default_name
  -OEChem-01062215323D

 29 28  0     1  0  0  0  0  0999 V2000
   -3.3998   -3.6239    1.3678 H   0  0  0  0  0  0  0  0  0  0  0  0
   -3.3608   -2.6749    0.8348 C   0  0  0  0  0  0  0  0  0  0  0  0
   -4.0988   -1.9909    1.2498 H   0  0  0  0  0  0  0  0  0  0  0  0
   -3.5618   -2.8419   -0.2222 H   0  0  0  0  0  0  0  0  0  0  0  0
   -1.9818   -2.0809    0.9918 C   0  0  0  0  0  0  0  0  0  0  0  0
   -1.1288   -2.6669    1.6468 O   0  0  0  0  0  0  0  0  0  0  0  0
   -1.7648   -0.9089    0.3998 N   0  0  0  0  0  0  0  0  0  0  0  0
   -2.5238   -0.4719   -0.1032 H   0  0  0  0  0  0  0  0  0  0  0  0
   -0.4848   -0.1959    0.4138 C   0  0  1  0  0  0  0  0  0  0  0  0
   -0.2302    0.0428    1.4477 H   0  0  0  0  0  0  0  0  0  0  0  0
    0.6076   -1.1257   -0.1497 C   0  0  0  0  0  0  0  0  0  0  0  0
    0.2802   -1.4874   -1.1266 H   0  0  0  0  0  0  0  0  0  0  0  0
    1.5262   -0.5534   -0.2881 H   0  0  0  0  0  0  0  0  0  0  0  0
    0.9096   -2.3429    0.7418 C   0  0  0  0  0  0  0  0  0  0  0  0
    1.2550   -2.0056    1.7189 H   0  0  0  0  0  0  0  0  0  0  0  0
   -0.0060   -2.9189    0.8759 H   0  0  0  0  0  0  0  0  0  0  0  0
    1.9775   -3.2668    0.1566 C   0  0  0  0  0  0  0  0  0  0  0  0
    2.4814   -3.0981   -0.9381 O   0  0  0  0  0  0  0  0  0  0  0  0
    2.3793   -4.2929    0.8748 N   0  0  0  0  0  0  0  0  0  0  0  0
    3.0829   -4.8660    0.4423 H   0  0  0  0  0  0  0  0  0  0  0  0
    2.0002   -4.4761    1.7818 H   0  0  0  0  0  0  0  0  0  0  0  0
   -0.5933    1.1228   -0.3673 C   0  0  0  0  0  0  0  0  0  0  0  0
   -1.6536    1.4394   -0.9036 O   0  0  0  0  0  0  0  0  0  0  0  0
    0.5050    1.8856   -0.4407 N   0  0  0  0  0  0  0  0  0  0  0  0
    1.3303    1.5732    0.0454 H   0  0  0  0  0  0  0  0  0  0  0  0
    0.5672    3.1594   -1.1562 C   0  0  0  0  0  0  0  0  0  0  0  0
   -0.1997    3.8354   -0.7702 H   0  0  0  0  0  0  0  0  0  0  0  0
    1.5482    3.6198   -1.0293 H   0  0  0  0  0  0  0  0  0  0  0  0
    0.3789    2.9950   -2.2185 H   0  0  0  0  0  0  0  0  0  0  0  0
  5  6  2  0  0  0  0
  5  7  1  0  0  0  0
  2  3  1  0  0  0  0
  2  4  1  0  0  0  0
  2  5  1  0  0  0  0
  1  2  1  0  0  0  0
 22 23  2  0  0  0  0
 22 24  1  0  0  0  0
 19 20  1  0  0  0  0
 19 21  1  0  0  0  0
 17 18  2  0  0  0  0
 17 19  1  0  0  0  0
 14 15  1  0  0  0  0
 14 16  1  0  0  0  0
 14 17  1  0  0  0  0
 11 12  1  0  0  0  0
 11 13  1  0  0  0  0
 11 14  1  0  0  0  0
  9 10  1  0  0  0  0
  9 11  1  0  0  0  0
  9 22  1  0  0  0  0
  7  8  1  0  0  0  0
  7  9  1  0  0  0  0
 26 27  1  0  0  0  0
 26 28  1  0  0  0  0
 26 29  1  0  0  0  0
 24 25  1  0  0  0  0
 24 26  1  0  0  0  0
M  END
$$$$
default_name
  -OEChem-01062215323D

 29 28  0     1  0  0  0  0  0999 V2000
   -3.3998   -3.6239    1.3678 H   0  0  0  0  0  0  0  0  0  0  0  0
   -3.3608   -2.6749    0.8348 C   0  0  0  0  0  0  0  0  0  0  0  0
   -4.0988   -1.9909    1.2498 H   0  0  0  0  0  0  0  0  0  0  0  0
   -3.5618   -2.8419   -0.2222 H   0  0  0  0  0  0  0  0  0  0  0  0
   -1.9818   -2.0809    0.9918 C   0  0  0  0  0  0  0  0  0  0  0  0
   -1.1288   -2.6669    1.6468 O   0  0  0  0  0  0  0  0  0  0  0  0
   -1.7648   -0.9089    0.3998 N   0  0  0  0  0  0  0  0  0  0  0  0
   -2.5238   -0.4719   -0.1032 H   0  0  0  0  0  0  0  0  0  0  0  0
   -0.4848   -0.1959    0.4138 C   0  0  1  0  0  0  0  0  0  0  0  0
   -0.2302    0.0428    1.4477 H   0  0  0  0  0  0  0  0  0  0  0  0
    0.6076   -1.1257   -0.1497 C   0  0  0  0  0  0  0  0  0  0  0  0
    0.2802   -1.4874   -1.1266 H   0  0  0  0  0  0  0  0  0  0  0  0
    1.5262   -0.5534   -0.2881 H   0  0  0  0  0  0  0  0  0  0  0  0
    0.9096   -2.3429    0.7418 C   0  0  0  0  0  0  0  0  0  0  0  0
    1.2550   -2.0056    1.7189 H   0  0  0  0  0  0  0  0  0  0  0  0
   -0.0060   -2.9189    0.8759 H   0  0  0  0  0  0  0  0  0  0  0  0
    1.9775   -3.2668    0.1566 C   0  0  0  0  0  0  0  0  0  0  0  0
    2.4814   -3.0981   -0.9381 O   0  0  0  0  0  0  0  0  0  0  0  0
    2.3793   -4.2929    0.8748 N   0  0  0  0  0  0  0  0  0  0  0  0
    3.0829   -4.8660    0.4423 H   0  0  0  0  0  0  0  0  0  0  0  0
    2.0002   -4.4761    1.7818 H   0  0  0  0  0  0  0  0  0  0  0  0
   -0.5933    1.1228   -0.3673 C   0  0  0  0  0  0  0  0  0  0  0  0
   -1.6964    1.5764   -0.6663 O   0  0  0  0  0  0  0  0  0  0  0  0
    0.5501    1.7317   -0.7067 N   0  0  0  0  0  0  0  0  0  0  0  0
    1.4156    1.3135   -0.4049 H   0  0  0  0  0  0  0  0  0  0  0  0
    0.6154    2.9833   -1.4602 C   0  0  0  0  0  0  0  0  0  0  0  0
    0.0483    3.7571   -0.9369 H   0  0  0  0  0  0  0  0  0  0  0  0
    1.6511    3.3089   -1.5684 H   0  0  0  0  0  0  0  0  0  0  0  0
    0.1749    2.8419   -2.4486 H   0  0  0  0  0  0  0  0  0  0  0  0
  5  6  2  0  0  0  0
  5  7  1  0  0  0  0
  2  3  1  0  0  0  0
  2  4  1  0  0  0  0
  2  5  1  0  0  0  0
  1  2  1  0  0  0  0
 22 23  2  0  0  0  0
 22 24  1  0  0  0  0
 19 20  1  0  0  0  0
 19 21  1  0  0  0  0
 17 18  2  0  0  0  0
 17 19  1  0  0  0  0
 14 15  1  0  0  0  0
 14 16  1  0  0  0  0
 14 17  1  0  0  0  0
 11 12  1  0  0  0  0
 11 13  1  0  0  0  0
 11 14  1  0  0  0  0
  9 10  1  0  0  0  0
  9 11  1  0  0  0  0
  9 22  1  0  0  0  0
  7  8  1  0  0  0  0
  7  9  1  0  0  0  0
 26 27  1  0  0  0  0
 26 28  1  0  0  0  0
 26 29  1  0  0  0  0
 24 25  1  0  0  0  0
 24 26  1  0  0  0  0
M  END
$$$$
default_name
  -OEChem-01062215323D

 29 28  0     1  0  0  0  0  0999 V2000
   -3.3998   -3.6239    1.3678 H   0  0  0  0  0  0  0  0  0  0  0  0
   -3.3608   -2.6749    0.8348 C   0  0  0  0  0  0  0  0  0  0  0  0
   -4.0988   -1.9909    1.2498 H   0  0  0  0  0  0  0  0  0  0  0  0
   -3.5618   -2.8419   -0.2222 H   0  0  0  0  0  0  0  0  0  0  0  0
   -1.9818   -2.0809    0.9918 C   0  0  0  0  0  0  0  0  0  0  0  0
   -1.1288   -2.6669    1.6468 O   0  0  0  0  0  0  0  0  0  0  0  0
   -1.7648   -0.9089    0.3998 N   0  0  0  0  0  0  0  0  0  0  0  0
   -2.5238   -0.4719   -0.1032 H   0  0  0  0  0  0  0  0  0  0  0  0
   -0.4848   -0.1959    0.4138 C   0  0  1  0  0  0  0  0  0  0  0  0
   -0.2302    0.0428    1.4477 H   0  0  0  0  0  0  0  0  0  0  0  0
    0.6076   -1.1257   -0.1497 C   0  0  0  0  0  0  0  0  0  0  0  0
    0.2802   -1.4874   -1.1266 H   0  0  0  0  0  0  0  0  0  0  0  0
    1.5262   -0.5534   -0.2881 H   0  0  0  0  0  0  0  0  0  0  0  0
    0.9096   -2.3429    0.7418 C   0  0  0  0  0  0  0  0  0  0  0  0
    1.2550   -2.0056    1.7189 H   0  0  0  0  0  0  0  0  0  0  0  0
   -0.0060   -2.9189    0.8759 H   0  0  0  0  0  0  0  0  0  0  0  0
    1.9775   -3.2668    0.1566 C   0  0  0  0  0  0  0  0  0  0  0  0
    2.4814   -3.0981   -0.9381 O   0  0  0  0  0  0  0  0  0  0  0  0
    2.3793   -4.2929    0.8748 N   0  0  0  0  0  0  0  0  0  0  0  0
    3.0829   -4.8660    0.4423 H   0  0  0  0  0  0  0  0  0  0  0  0
    2.0002   -4.4761    1.7818 H   0  0  0  0  0  0  0  0  0  0  0  0
   -0.5933    1.1228   -0.3673 C   0  0  0  0  0  0  0  0  0  0  0  0
   -1.6671    1.7187   -0.4301 O   0  0  0  0  0  0  0  0  0  0  0  0
    0.5144    1.5723   -0.9709 N   0  0  0  0  0  0  0  0  0  0  0  0
    1.3638    1.0432   -0.8541 H   0  0  0  0  0  0  0  0  0  0  0  0
    0.5712    2.8014   -1.7612 C   0  0  0  0  0  0  0  0  0  0  0  0
    0.2404    3.6458   -1.1516 H   0  0  0  0  0  0  0  0  0  0  0  0
    1.5898    2.9853   -2.1064 H   0  0  0  0  0  0  0  0  0  0  0  0
   -0.0934    2.7167   -2.6227 H   0  0  0  0  0  0  0  0  0  0  0  0
  5  6  2  0  0  0  0
  5  7  1  0  0  0  0
  2  3  1  0  0  0  0
  2  4  1  0  0  0  0
  2  5  1  0  0  0  0
  1  2  1  0  0  0  0
 22 23  2  0  0  0  0
 22 24  1  0  0  0  0
 19 20  1  0  0  0  0
 19 21  1  0  0  0  0
 17 18  2  0  0  0  0
 17 19  1  0  0  0  0
 14 15  1  0  0  0  0
 14 16  1  0  0  0  0
 14 17  1  0  0  0  0
 11 12  1  0  0  0  0
 11 13  1  0  0  0  0
 11 14  1  0  0  0  0
  9 10  1  0  0  0  0
  9 11  1  0  0  0  0
  9 22  1  0  0  0  0
  7  8  1  0  0  0  0
  7  9  1  0  0  0  0
 26 27  1  0  0  0  0
 26 28  1  0  0  0  0
 26 29  1  0  0  0  0
 24 25  1  0  0  0  0
 24 26  1  0  0  0  0
M  END
$$$$
default_name
  -OEChem-01062215323D

 29 28  0     1  0  0  0  0  0999 V2000
   -3.3998   -3.6239    1.3678 H   0  0  0  0  0  0  0  0  0  0  0  0
   -3.3608   -2.6749    0.8348 C   0  0  0  0  0  0  0  0  0  0  0  0
   -4.0988   -1.9909    1.2498 H   0  0  0  0  0  0  0  0  0  0  0  0
   -3.5618   -2.8419   -0.2222 H   0  0  0  0  0  0  0  0  0  0  0  0
   -1.9818   -2.0809    0.9918 C   0  0  0  0  0  0  0  0  0  0  0  0
   -1.1288   -2.6669    1.6468 O   0  0  0  0  0  0  0  0  0  0  0  0
   -1.7648   -0.9089    0.3998 N   0  0  0  0  0  0  0  0  0  0  0  0
   -2.5238   -0.4719   -0.1032 H   0  0  0  0  0  0  0  0  0  0  0  0
   -0.4848   -0.1959    0.4138 C   0  0  1  0  0  0  0  0  0  0  0  0
   -0.2302    0.0428    1.4477 H   0  0  0  0  0  0  0  0  0  0  0  0
    0.6076   -1.1257   -0.1497 C   0  0  0  0  0  0  0  0  0  0  0  0
    0.2802   -1.4874   -1.1266 H   0  0  0  0  0  0  0  0  0  0  0  0
    1.5262   -0.5534   -0.2881 H   0  0  0  0  0  0  0  0  0  0  0  0
    0.9096   -2.3429    0.7418 C   0  0  0  0  0  0  0  0  0  0  0  0
    1.2550   -2.0056    1.7189 H   0  0  0  0  0  0  0  0  0  0  0  0
   -0.0060   -2.9189    0.8759 H   0  0  0  0  0  0  0  0  0  0  0  0
    1.9775   -3.2668    0.1566 C   0  0  0  0  0  0  0  0  0  0  0  0
    2.4814   -3.0981   -0.9381 O   0  0  0  0  0  0  0  0  0  0  0  0
    2.3793   -4.2929    0.8748 N   0  0  0  0  0  0  0  0  0  0  0  0
    3.0829   -4.8660    0.4423 H   0  0  0  0  0  0  0  0  0  0  0  0
    2.0002   -4.4761    1.7818 H   0  0  0  0  0  0  0  0  0  0  0  0
   -0.5933    1.1228   -0.3673 C   0  0  0  0  0  0  0  0  0  0  0  0
   -1.5675    1.8566   -0.2111 O   0  0  0  0  0  0  0  0  0  0  0  0
    0.4002    1.4182   -1.2153 N   0  0  0  0  0  0  0  0  0  0  0  0
    1.1784    0.7807   -1.2715 H   0  0  0  0  0  0  0  0  0  0  0  0
    0.4378    2.6259   -2.0389 C   0  0  0  0  0  0  0  0  0  0  0  0
    0.3637    3.5090   -1.3996 H   0  0  0  0  0  0  0  0  0  0  0  0
    1.3685    2.6709   -2.6064 H   0  0  0  0  0  0  0  0  0  0  0  0
   -0.4077    2.6279   -2.7289 H   0  0  0  0  0  0  0  0  0  0  0  0
  5  6  2  0  0  0  0
  5  7  1  0  0  0  0
  2  3  1  0  0  0  0
  2  4  1  0  0  0  0
  2  5  1  0  0  0  0
  1  2  1  0  0  0  0
 22 23  2  0  0  0  0
 22 24  1  0  0  0  0
 19 20  1  0  0  0  0
 19 21  1  0  0  0  0
 17 18  2  0  0  0  0
 17 19  1  0  0  0  0
 14 15  1  0  0  0  0
 14 16  1  0  0  0  0
 14 17  1  0  0  0  0
 11 12  1  0  0  0  0
 11 13  1  0  0  0  0
 11 14  1  0  0  0  0
  9 10  1  0  0  0  0
  9 11  1  0  0  0  0
  9 22  1  0  0  0  0
  7  8  1  0  0  0  0
  7  9  1  0  0  0  0
 26 27  1  0  0  0  0
 26 28  1  0  0  0  0
 26 29  1  0  0  0  0
 24 25  1  0  0  0  0
 24 26  1  0  0  0  0
M  END
$$$$
default_name
  -OEChem-01062215323D

 29 28  0     1  0  0  0  0  0999 V2000
   -3.3998   -3.6239    1.3678 H   0  0  0  0  0  0  0  0  0  0  0  0
   -3.3608   -2.6749    0.8348 C   0  0  0  0  0  0  0  0  0  0  0  0
   -4.0988   -1.9909    1.2498 H   0  0  0  0  0  0  0  0  0  0  0  0
   -3.5618   -2.8419   -0.2222 H   0  0  0  0  0  0  0  0  0  0  0  0
   -1.9818   -2.0809    0.9918 C   0  0  0  0  0  0  0  0  0  0  0  0
   -1.1288   -2.6669    1.6468 O   0  0  0  0  0  0  0  0  0  0  0  0
   -1.7648   -0.9089    0.3998 N   0  0  0  0  0  0  0  0  0  0  0  0
   -2.5238   -0.4719   -0.1032 H   0  0  0  0  0  0  0  0  0  0  0  0
   -0.4848   -0.1959    0.4138 C   0  0  1  0  0  0  0  0  0  0  0  0
   -0.2302    0.0428    1.4477 H   0  0  0  0  0  0  0  0  0  0  0  0
    0.6076   -1.1257   -0.1497 C   0  0  0  0  0  0  0  0  0  0  0  0
    0.2802   -1.4874   -1.1266 H   0  0  0  0  0  0  0  0  0  0  0  0
    1.5262   -0.5534   -0.2881 H   0  0  0  0  0  0  0  0  0  0  0  0
    0.9096   -2.3429    0.7418 C   0  0  0  0  0  0  0  0  0  0  0  0
    1.2550   -2.0056    1.7189 H   0  0  0  0  0  0  0  0  0  0  0  0
   -0.0060   -2.9189    0.8759 H   0  0  0  0  0  0  0  0  0  0  0  0
    1.9775   -3.2668    0.1566 C   0  0  0  0  0  0  0  0  0  0  0  0
    2.4814   -3.0981   -0.9381 O   0  0  0  0  0  0  0  0  0  0  0  0
    2.3793   -4.2929    0.8748 N   0  0  0  0  0  0  0  0  0  0  0  0
    3.0829   -4.8660    0.4423 H   0  0  0  0  0  0  0  0  0  0  0  0
    2.0002   -4.4761    1.7818 H   0  0  0  0  0  0  0  0  0  0  0  0
   -0.5933    1.1228   -0.3673 C   0  0  0  0  0  0  0  0  0  0  0  0
   -1.4046    1.9808   -0.0241 O   0  0  0  0  0  0  0  0  0  0  0  0
    0.2154    1.2799   -1.4231 N   0  0  0  0  0  0  0  0  0  0  0  0
    0.8721    0.5439   -1.6287 H   0  0  0  0  0  0  0  0  0  0  0  0
    0.2241    2.4689   -2.2743 C   0  0  0  0  0  0  0  0  0  0  0  0
    0.4097    3.3562   -1.6640 H   0  0  0  0  0  0  0  0  0  0  0  0
    1.0024    2.3872   -3.0346 H   0  0  0  0  0  0  0  0  0  0  0  0
   -0.7466    2.5815   -2.7602 H   0  0  0  0  0  0  0  0  0  0  0  0
  5  6  2  0  0  0  0
  5  7  1  0  0  0  0
  2  3  1  0  0  0  0
  2  4  1  0  0  0  0
  2  5  1  0  0  0  0
  1  2  1  0  0  0  0
 22 23  2  0  0  0  0
 22 24  1  0  0  0  0
 19 20  1  0  0  0  0
 19 21  1  0  0  0  0
 17 18  2  0  0  0  0
 17 19  1  0  0  0  0
 14 15  1  0  0  0  0
 14 16  1  0  0  0  0
 14 17  1  0  0  0  0
 11 12  1  0  0  0  0
 11 13  1  0  0  0  0
 11 14  1  0  0  0  0
  9 10  1  0  0  0  0
  9 11  1  0  0  0  0
  9 22  1  0  0  0  0
  7  8  1  0  0  0  0
  7  9  1  0  0  0  0
 26 27  1  0  0  0  0
 26 28  1  0  0  0  0
 26 29  1  0  0  0  0
 24 25  1  0  0  0  0
 24 26  1  0  0  0  0
M  END
$$$$
default_name
  -OEChem-01062215323D

 29 28  0     1  0  0  0  0  0999 V2000
   -3.3998   -3.6239    1.3678 H   0  0  0  0  0  0  0  0  0  0  0  0
   -3.3608   -2.6749    0.8348 C   0  0  0  0  0  0  0  0  0  0  0  0
   -4.0988   -1.9909    1.2498 H   0  0  0  0  0  0  0  0  0  0  0  0
   -3.5618   -2.8419   -0.2222 H   0  0  0  0  0  0  0  0  0  0  0  0
   -1.9818   -2.0809    0.9918 C   0  0  0  0  0  0  0  0  0  0  0  0
   -1.1288   -2.6669    1.6468 O   0  0  0  0  0  0  0  0  0  0  0  0
   -1.7648   -0.9089    0.3998 N   0  0  0  0  0  0  0  0  0  0  0  0
   -2.5238   -0.4719   -0.1032 H   0  0  0  0  0  0  0  0  0  0  0  0
   -0.4848   -0.1959    0.4138 C   0  0  1  0  0  0  0  0  0  0  0  0
   -0.2302    0.0428    1.4477 H   0  0  0  0  0  0  0  0  0  0  0  0
    0.6076   -1.1257   -0.1497 C   0  0  0  0  0  0  0  0  0  0  0  0
    0.2802   -1.4874   -1.1266 H   0  0  0  0  0  0  0  0  0  0  0  0
    1.5262   -0.5534   -0.2881 H   0  0  0  0  0  0  0  0  0  0  0  0
    0.9096   -2.3429    0.7418 C   0  0  0  0  0  0  0  0  0  0  0  0
    1.2550   -2.0056    1.7189 H   0  0  0  0  0  0  0  0  0  0  0  0
   -0.0060   -2.9189    0.8759 H   0  0  0  0  0  0  0  0  0  0  0  0
    1.9775   -3.2668    0.1566 C   0  0  0  0  0  0  0  0  0  0  0  0
    2.4814   -3.0981   -0.9381 O   0  0  0  0  0  0  0  0  0  0  0  0
    2.3793   -4.2929    0.8748 N   0  0  0  0  0  0  0  0  0  0  0  0
    3.0829   -4.8660    0.4423 H   0  0  0  0  0  0  0  0  0  0  0  0
    2.0002   -4.4761    1.7818 H   0  0  0  0  0  0  0  0  0  0  0  0
   -0.5933    1.1228   -0.3673 C   0  0  0  0  0  0  0  0  0  0  0  0
   -1.1893    2.0826    0.1180 O   0  0  0  0  0  0  0  0  0  0  0  0
   -0.0275    1.1668   -1.5803 N   0  0  0  0  0  0  0  0  0  0  0  0
    0.4657    0.3490   -1.9013 H   0  0  0  0  0  0  0  0  0  0  0  0
   -0.0552    2.3411   -2.4513 C   0  0  0  0  0  0  0  0  0  0  0  0
    0.3753    3.1977   -1.9268 H   0  0  0  0  0  0  0  0  0  0  0  0
    0.5163    2.1535   -3.3616 H   0  0  0  0  0  0  0  0  0  0  0  0
   -1.0869    2.5808   -2.7142 H   0  0  0  0  0  0  0  0  0  0  0  0
  5  6  2  0  0  0  0
  5  7  1  0  0  0  0
  2  3  1  0  0  0  0
  2  4  1  0  0  0  0
  2  5  1  0  0  0  0
  1  2  1  0  0  0  0
 22 23  2  0  0  0  0
 22 24  1  0  0  0  0
 19 20  1  0  0  0  0
 19 21  1  0  0  0  0
 17 18  2  0  0  0  0
 17 19  1  0  0  0  0
 14 15  1  0  0  0  0
 14 16  1  0  0  0  0
 14 17  1  0  0  0  0
 11 12  1  0  0  0  0
 11 13  1  0  0  0  0
 11 14  1  0  0  0  0
  9 10  1  0  0  0  0
  9 11  1  0  0  0  0
  9 22  1  0  0  0  0
  7  8  1  0  0  0  0
  7  9  1  0  0  0  0
 26 27  1  0  0  0  0
 26 28  1  0  0  0  0
 26 29  1  0  0  0  0
 24 25  1  0  0  0  0
 24 26  1  0  0  0  0
M  END
$$$$
default_name
  -OEChem-01062215323D

 29 28  0     1  0  0  0  0  0999 V2000
   -3.3998   -3.6239    1.3678 H   0  0  0  0  0  0  0  0  0  0  0  0
   -3.3608   -2.6749    0.8348 C   0  0  0  0  0  0  0  0  0  0  0  0
   -4.0988   -1.9909    1.2498 H   0  0  0  0  0  0  0  0  0  0  0  0
   -3.5618   -2.8419   -0.2222 H   0  0  0  0  0  0  0  0  0  0  0  0
   -1.9818   -2.0809    0.9918 C   0  0  0  0  0  0  0  0  0  0  0  0
   -1.1288   -2.6669    1.6468 O   0  0  0  0  0  0  0  0  0  0  0  0
   -1.7648   -0.9089    0.3998 N   0  0  0  0  0  0  0  0  0  0  0  0
   -2.5238   -0.4719   -0.1032 H   0  0  0  0  0  0  0  0  0  0  0  0
   -0.4848   -0.1959    0.4138 C   0  0  1  0  0  0  0  0  0  0  0  0
   -0.2302    0.0428    1.4477 H   0  0  0  0  0  0  0  0  0  0  0  0
    0.6076   -1.1257   -0.1497 C   0  0  0  0  0  0  0  0  0  0  0  0
    0.2802   -1.4874   -1.1266 H   0  0  0  0  0  0  0  0  0  0  0  0
    1.5262   -0.5534   -0.2881 H   0  0  0  0  0  0  0  0  0  0  0  0
    0.9096   -2.3429    0.7418 C   0  0  0  0  0  0  0  0  0  0  0  0
    1.2550   -2.0056    1.7189 H   0  0  0  0  0  0  0  0  0  0  0  0
   -0.0060   -2.9189    0.8759 H   0  0  0  0  0  0  0  0  0  0  0  0
    1.9775   -3.2668    0.1566 C   0  0  0  0  0  0  0  0  0  0  0  0
    2.4814   -3.0981   -0.9381 O   0  0  0  0  0  0  0  0  0  0  0  0
    2.3793   -4.2929    0.8748 N   0  0  0  0  0  0  0  0  0  0  0  0
    3.0829   -4.8660    0.4423 H   0  0  0  0  0  0  0  0  0  0  0  0
    2.0002   -4.4761    1.7818 H   0  0  0  0  0  0  0  0  0  0  0  0
   -0.5933    1.1228   -0.3673 C   0  0  0  0  0  0  0  0  0  0  0  0
   -0.9364    2.1553    0.2056 O   0  0  0  0  0  0  0  0  0  0  0  0
   -0.3119    1.0867   -1.6761 N   0  0  0  0  0  0  0  0  0  0  0  0
   -0.0131    0.2092   -2.0709 H   0  0  0  0  0  0  0  0  0  0  0  0
   -0.3812    2.2511   -2.5579 C   0  0  0  0  0  0  0  0  0  0  0  0
    0.2629    3.0443   -2.1702 H   0  0  0  0  0  0  0  0  0  0  0  0
   -0.0567    1.9857   -3.5652 H   0  0  0  0  0  0  0  0  0  0  0  0
   -1.4056    2.6256   -2.5942 H   0  0  0  0  0  0  0  0  0  0  0  0
  5  6  2  0  0  0  0
  5  7  1  0  0  0  0
  2  3  1  0  0  0  0
  2  4  1  0  0  0  0
  2  5  1  0  0  0  0
  1  2  1  0  0  0  0
 22 23  2  0  0  0  0
 22 24  1  0  0  0  0
 19 20  1  0  0  0  0
 19 21  1  0  0  0  0
 17 18  2  0  0  0  0
 17 19  1  0  0  0  0
 14 15  1  0  0  0  0
 14 16  1  0  0  0  0
 14 17  1  0  0  0  0
 11 12  1  0  0  0  0
 11 13  1  0  0  0  0
 11 14  1  0  0  0  0
  9 10  1  0  0  0  0
  9 11  1  0  0  0  0
  9 22  1  0  0  0  0
  7  8  1  0  0  0  0
  7  9  1  0  0  0  0
 26 27  1  0  0  0  0
 26 28  1  0  0  0  0
 26 29  1  0  0  0  0
 24 25  1  0  0  0  0
 24 26  1  0  0  0  0
M  END
$$$$
default_name
  -OEChem-01062215323D

 29 28  0     1  0  0  0  0  0999 V2000
   -3.3998   -3.6239    1.3678 H   0  0  0  0  0  0  0  0  0  0  0  0
   -3.3608   -2.6749    0.8348 C   0  0  0  0  0  0  0  0  0  0  0  0
   -4.0988   -1.9909    1.2498 H   0  0  0  0  0  0  0  0  0  0  0  0
   -3.5618   -2.8419   -0.2222 H   0  0  0  0  0  0  0  0  0  0  0  0
   -1.9818   -2.0809    0.9918 C   0  0  0  0  0  0  0  0  0  0  0  0
   -1.1288   -2.6669    1.6468 O   0  0  0  0  0  0  0  0  0  0  0  0
   -1.7648   -0.9089    0.3998 N   0  0  0  0  0  0  0  0  0  0  0  0
   -2.5238   -0.4719   -0.1032 H   0  0  0  0  0  0  0  0  0  0  0  0
   -0.4848   -0.1959    0.4138 C   0  0  1  0  0  0  0  0  0  0  0  0
   -0.2302    0.0428    1.4477 H   0  0  0  0  0  0  0  0  0  0  0  0
    0.6076   -1.1257   -0.1497 C   0  0  0  0  0  0  0  0  0  0  0  0
    0.2802   -1.4874   -1.1266 H   0  0  0  0  0  0  0  0  0  0  0  0
    1.5262   -0.5534   -0.2881 H   0  0  0  0  0  0  0  0  0  0  0  0
    0.9096   -2.3429    0.7418 C   0  0  0  0  0  0  0  0  0  0  0  0
    1.2550   -2.0056    1.7189 H   0  0  0  0  0  0  0  0  0  0  0  0
   -0.0060   -2.9189    0.8759 H   0  0  0  0  0  0  0  0  0  0  0  0
    1.9775   -3.2668    0.1566 C   0  0  0  0  0  0  0  0  0  0  0  0
    2.4814   -3.0981   -0.9381 O   0  0  0  0  0  0  0  0  0  0  0  0
    2.3793   -4.2929    0.8748 N   0  0  0  0  0  0  0  0  0  0  0  0
    3.0829   -4.8660    0.4423 H   0  0  0  0  0  0  0  0  0  0  0  0
    2.0002   -4.4761    1.7818 H   0  0  0  0  0  0  0  0  0  0  0  0
   -0.5933    1.1228   -0.3673 C   0  0  0  0  0  0  0  0  0  0  0  0
   -0.6631    2.1939    0.2327 O   0  0  0  0  0  0  0  0  0  0  0  0
   -0.6185    1.0449   -1.7040 N   0  0  0  0  0  0  0  0  0  0  0  0
   -0.5316    0.1340   -2.1257 H   0  0  0  0  0  0  0  0  0  0  0  0
   -0.7315    2.2052   -2.5868 C   0  0  0  0  0  0  0  0  0  0  0  0
    0.0800    2.9065   -2.3775 H   0  0  0  0  0  0  0  0  0  0  0  0
   -0.6774    1.8953   -3.6315 H   0  0  0  0  0  0  0  0  0  0  0  0
   -1.6808    2.7131   -2.4083 H   0  0  0  0  0  0  0  0  0  0  0  0
  5  6  2  0  0  0  0
  5  7  1  0  0  0  0
  2  3  1  0  0  0  0
  2  4  1  0  0  0  0
  2  5  1  0  0  0  0
  1  2  1  0  0  0  0
 22 23  2  0  0  0  0
 22 24  1  0  0  0  0
 19 20  1  0  0  0  0
 19 21  1  0  0  0  0
 17 18  2  0  0  0  0
 17 19  1  0  0  0  0
 14 15  1  0  0  0  0
 14 16  1  0  0  0  0
 14 17  1  0  0  0  0
 11 12  1  0  0  0  0
 11 13  1  0  0  0  0
 11 14  1  0  0  0  0
  9 10  1  0  0  0  0
  9 11  1  0  0  0  0
  9 22  1  0  0  0  0
  7  8  1  0  0  0  0
  7  9  1  0  0  0  0
 26 27  1  0  0  0  0
 26 28  1  0  0  0  0
 26 29  1  0  0  0  0
 24 25  1  0  0  0  0
 24 26  1  0  0  0  0
M  END
$$$$
default_name
  -OEChem-01062215323D

 29 28  0     1  0  0  0  0  0999 V2000
   -3.3998   -3.6239    1.3678 H   0  0  0  0  0  0  0  0  0  0  0  0
   -3.3608   -2.6749    0.8348 C   0  0  0  0  0  0  0  0  0  0  0  0
   -4.0988   -1.9909    1.2498 H   0  0  0  0  0  0  0  0  0  0  0  0
   -3.5618   -2.8419   -0.2222 H   0  0  0  0  0  0  0  0  0  0  0  0
   -1.9818   -2.0809    0.9918 C   0  0  0  0  0  0  0  0  0  0  0  0
   -1.1288   -2.6669    1.6468 O   0  0  0  0  0  0  0  0  0  0  0  0
   -1.7648   -0.9089    0.3998 N   0  0  0  0  0  0  0  0  0  0  0  0
   -2.5238   -0.4719   -0.1032 H   0  0  0  0  0  0  0  0  0  0  0  0
   -0.4848   -0.1959    0.4138 C   0  0  1  0  0  0  0  0  0  0  0  0
   -0.2302    0.0428    1.4477 H   0  0  0  0  0  0  0  0  0  0  0  0
    0.6076   -1.1257   -0.1497 C   0  0  0  0  0  0  0  0  0  0  0  0
    0.2802   -1.4874   -1.1266 H   0  0  0  0  0  0  0  0  0  0  0  0
    1.5262   -0.5534   -0.2881 H   0  0  0  0  0  0  0  0  0  0  0  0
    0.9096   -2.3429    0.7418 C   0  0  0  0  0  0  0  0  0  0  0  0
    1.2550   -2.0056    1.7189 H   0  0  0  0  0  0  0  0  0  0  0  0
   -0.0060   -2.9189    0.8759 H   0  0  0  0  0  0  0  0  0  0  0  0
    1.9775   -3.2668    0.1566 C   0  0  0  0  0  0  0  0  0  0  0  0
    2.4814   -3.0981   -0.9381 O   0  0  0  0  0  0  0  0  0  0  0  0
    2.3793   -4.2929    0.8748 N   0  0  0  0  0  0  0  0  0  0  0  0
    3.0829   -4.8660    0.4423 H   0  0  0  0  0  0  0  0  0  0  0  0
    2.0002   -4.4761    1.7818 H   0  0  0  0  0  0  0  0  0  0  0  0
   -0.5933    1.1228   -0.3673 C   0  0  0  0  0  0  0  0  0  0  0  0
   -0.3880    2.1956    0.1974 O   0  0  0  0  0  0  0  0  0  0  0  0
   -0.9263    1.0444   -1.6621 N   0  0  0  0  0  0  0  0  0  0  0  0
   -1.0545    0.1286   -2.0621 H   0  0  0  0  0  0  0  0  0  0  0  0
   -1.0824    2.2063   -2.5360 C   0  0  0  0  0  0  0  0  0  0  0  0
   -0.1608    2.7936   -2.5345 H   0  0  0  0  0  0  0  0  0  0  0  0
   -1.3036    1.8885   -3.5561 H   0  0  0  0  0  0  0  0  0  0  0  0
   -1.8939    2.8371   -2.1692 H   0  0  0  0  0  0  0  0  0  0  0  0
  5  6  2  0  0  0  0
  5  7  1  0  0  0  0
  2  3  1  0  0  0  0
  2  4  1  0  0  0  0
  2  5  1  0  0  0  0
  1  2  1  0  0  0  0
 22 23  2  0  0  0  0
 22 24  1  0  0  0  0
 19 20  1  0  0  0  0
 19 21  1  0  0  0  0
 17 18  2  0  0  0  0
 17 19  1  0  0  0  0
 14 15  1  0  0  0  0
 14 16  1  0  0  0  0
 14 17  1  0  0  0  0
 11 12  1  0  0  0  0
 11 13  1  0  0  0  0
 11 14  1  0  0  0  0
  9 10  1  0  0  0  0
  9 11  1  0  0  0  0
  9 22  1  0  0  0  0
  7  8  1  0  0  0  0
  7  9  1  0  0  0  0
 26 27  1  0  0  0  0
 26 28  1  0  0  0  0
 26 29  1  0  0  0  0
 24 25  1  0  0  0  0
 24 26  1  0  0  0  0
M  END
$$$$
default_name
  -OEChem-01062215323D

 29 28  0     1  0  0  0  0  0999 V2000
   -3.3998   -3.6239    1.3678 H   0  0  0  0  0  0  0  0  0  0  0  0
   -3.3608   -2.6749    0.8348 C   0  0  0  0  0  0  0  0  0  0  0  0
   -4.0988   -1.9909    1.2498 H   0  0  0  0  0  0  0  0  0  0  0  0
   -3.5618   -2.8419   -0.2222 H   0  0  0  0  0  0  0  0  0  0  0  0
   -1.9818   -2.0809    0.9918 C   0  0  0  0  0  0  0  0  0  0  0  0
   -1.1288   -2.6669    1.6468 O   0  0  0  0  0  0  0  0  0  0  0  0
   -1.7648   -0.9089    0.3998 N   0  0  0  0  0  0  0  0  0  0  0  0
   -2.5238   -0.4719   -0.1032 H   0  0  0  0  0  0  0  0  0  0  0  0
   -0.4848   -0.1959    0.4138 C   0  0  1  0  0  0  0  0  0  0  0  0
   -0.2302    0.0428    1.4477 H   0  0  0  0  0  0  0  0  0  0  0  0
    0.6076   -1.1257   -0.1497 C   0  0  0  0  0  0  0  0  0  0  0  0
    0.2802   -1.4874   -1.1266 H   0  0  0  0  0  0  0  0  0  0  0  0
    1.5262   -0.5534   -0.2881 H   0  0  0  0  0  0  0  0  0  0  0  0
    0.9096   -2.3429    0.7418 C   0  0  0  0  0  0  0  0  0  0  0  0
    1.2550   -2.0056    1.7189 H   0  0  0  0  0  0  0  0  0  0  0  0
   -0.0060   -2.9189    0.8759 H   0  0  0  0  0  0  0  0  0  0  0  0
    1.9775   -3.2668    0.1566 C   0  0  0  0  0  0  0  0  0  0  0  0
    2.4814   -3.0981   -0.9381 O   0  0  0  0  0  0  0  0  0  0  0  0
    2.3793   -4.2929    0.8748 N   0  0  0  0  0  0  0  0  0  0  0  0
    3.0829   -4.8660    0.4423 H   0  0  0  0  0  0  0  0  0  0  0  0
    2.0002   -4.4761    1.7818 H   0  0  0  0  0  0  0  0  0  0  0  0
   -0.5933    1.1228   -0.3673 C   0  0  0  0  0  0  0  0  0  0  0  0
   -0.1299    2.1605    0.1023 O   0  0  0  0  0  0  0  0  0  0  0  0
   -1.2143    1.0852   -1.5532 N   0  0  0  0  0  0  0  0  0  0  0  0
   -1.5461    0.1934   -1.8845 H   0  0  0  0  0  0  0  0  0  0  0  0
   -1.4099    2.2546   -2.4091 C   0  0  0  0  0  0  0  0  0  0  0  0
   -0.4432    2.7135   -2.6307 H   0  0  0  0  0  0  0  0  0  0  0  0
   -1.8926    1.9656   -3.3440 H   0  0  0  0  0  0  0  0  0  0  0  0
   -2.0302    2.9894   -1.8932 H   0  0  0  0  0  0  0  0  0  0  0  0
  5  6  2  0  0  0  0
  5  7  1  0  0  0  0
  2  3  1  0  0  0  0
  2  4  1  0  0  0  0
  2  5  1  0  0  0  0
  1  2  1  0  0  0  0
 22 23  2  0  0  0  0
 22 24  1  0  0  0  0
 19 20  1  0  0  0  0
 19 21  1  0  0  0  0
 17 18  2  0  0  0  0
 17 19  1  0  0  0  0
 14 15  1  0  0  0  0
 14 16  1  0  0  0  0
 14 17  1  0  0  0  0
 11 12  1  0  0  0  0
 11 13  1  0  0  0  0
 11 14  1  0  0  0  0
  9 10  1  0  0  0  0
  9 11  1  0  0  0  0
  9 22  1  0  0  0  0
  7  8  1  0  0  0  0
  7  9  1  0  0  0  0
 26 27  1  0  0  0  0
 26 28  1  0  0  0  0
 26 29  1  0  0  0  0
 24 25  1  0  0  0  0
 24 26  1  0  0  0  0
M  END
$$$$
default_name
  -OEChem-01062215323D

 29 28  0     1  0  0  0  0  0999 V2000
   -3.3998   -3.6239    1.3678 H   0  0  0  0  0  0  0  0  0  0  0  0
   -3.3608   -2.6749    0.8348 C   0  0  0  0  0  0  0  0  0  0  0  0
   -4.0988   -1.9909    1.2498 H   0  0  0  0  0  0  0  0  0  0  0  0
   -3.5618   -2.8419   -0.2222 H   0  0  0  0  0  0  0  0  0  0  0  0
   -1.9818   -2.0809    0.9918 C   0  0  0  0  0  0  0  0  0  0  0  0
   -1.1288   -2.6669    1.6468 O   0  0  0  0  0  0  0  0  0  0  0  0
   -1.7648   -0.9089    0.3998 N   0  0  0  0  0  0  0  0  0  0  0  0
   -2.5238   -0.4719   -0.1032 H   0  0  0  0  0  0  0  0  0  0  0  0
   -0.4848   -0.1959    0.4138 C   0  0  1  0  0  0  0  0  0  0  0  0
   -0.2302    0.0428    1.4477 H   0  0  0  0  0  0  0  0  0  0  0  0
    0.6076   -1.1257   -0.1497 C   0  0  0  0  0  0  0  0  0  0  0  0
    0.2802   -1.4874   -1.1266 H   0  0  0  0  0  0  0  0  0  0  0  0
    1.5262   -0.5534   -0.2881 H   0  0  0  0  0  0  0  0  0  0  0  0
    0.9096   -2.3429    0.7418 C   0  0  0  0  0  0  0  0  0  0  0  0
    1.2550   -2.0056    1.7189 H   0  0  0  0  0  0  0  0  0  0  0  0
   -0.0060   -2.9189    0.8759 H   0  0  0  0  0  0  0  0  0  0  0  0
    1.9775   -3.2668    0.1566 C   0  0  0  0  0  0  0  0  0  0  0  0
    2.4814   -3.0981   -0.9381 O   0  0  0  0  0  0  0  0  0  0  0  0
    2.3793   -4.2929    0.8748 N   0  0  0  0  0  0  0  0  0  0  0  0
    3.0829   -4.8660    0.4423 H   0  0  0  0  0  0  0  0  0  0  0  0
    2.0002   -4.4761    1.7818 H   0  0  0  0  0  0  0  0  0  0  0  0
   -0.5933    1.1228   -0.3673 C   0  0  0  0  0  0  0  0  0  0  0  0
    0.0936    2.0909   -0.0464 O   0  0  0  0  0  0  0  0  0  0  0  0
   -1.4630    1.1645   -1.3848 N   0  0  0  0  0  0  0  0  0  0  0  0
   -1.9731    0.3239   -1.6048 H   0  0  0  0  0  0  0  0  0  0  0  0
   -1.6917    2.3466   -2.2146 C   0  0  0  0  0  0  0  0  0  0  0  0
   -0.7478    2.6714   -2.6594 H   0  0  0  0  0  0  0  0  0  0  0  0
   -2.4042    2.1215   -3.0096 H   0  0  0  0  0  0  0  0  0  0  0  0
   -2.0806    3.1595   -1.5990 H   0  0  0  0  0  0  0  0  0  0  0  0
  5  6  2  0  0  0  0
  5  7  1  0  0  0  0
  2  3  1  0  0  0  0
  2  4  1  0  0  0  0
  2  5  1  0  0  0  0
  1  2  1  0  0  0  0
 22 23  2  0  0  0  0
 22 24  1  0  0  0  0
 19 20  1  0  0  0  0
 19 21  1  0  0  0  0
 17 18  2  0  0  0  0
 17 19  1  0  0  0  0
 14 15  1  0  0  0  0
 14 16  1  0  0  0  0
 14 17  1  0  0  0  0
 11 12  1  0  0  0  0
 11 13  1  0  0  0  0
 11 14  1  0  0  0  0
  9 10  1  0  0  0  0
  9 11  1  0  0  0  0
  9 22  1  0  0  0  0
  7  8  1  0  0  0  0
  7  9  1  0  0  0  0
 26 27  1  0  0  0  0
 26 28  1  0  0  0  0
 26 29  1  0  0  0  0
 24 25  1  0  0  0  0
 24 26  1  0  0  0  0
M  END
$$$$
default_name
  -OEChem-01062215323D

 29 28  0     1  0  0  0  0  0999 V2000
   -3.3998   -3.6239    1.3678 H   0  0  0  0  0  0  0  0  0  0  0  0
   -3.3608   -2.6749    0.8348 C   0  0  0  0  0  0  0  0  0  0  0  0
   -4.0988   -1.9909    1.2498 H   0  0  0  0  0  0  0  0  0  0  0  0
   -3.5618   -2.8419   -0.2222 H   0  0  0  0  0  0  0  0  0  0  0  0
   -1.9818   -2.0809    0.9918 C   0  0  0  0  0  0  0  0  0  0  0  0
   -1.1288   -2.6669    1.6468 O   0  0  0  0  0  0  0  0  0  0  0  0
   -1.7648   -0.9089    0.3998 N   0  0  0  0  0  0  0  0  0  0  0  0
   -2.5238   -0.4719   -0.1032 H   0  0  0  0  0  0  0  0  0  0  0  0
   -0.4848   -0.1959    0.4138 C   0  0  1  0  0  0  0  0  0  0  0  0
   -0.2302    0.0428    1.4477 H   0  0  0  0  0  0  0  0  0  0  0  0
    0.6076   -1.1257   -0.1497 C   0  0  0  0  0  0  0  0  0  0  0  0
    0.2802   -1.4874   -1.1266 H   0  0  0  0  0  0  0  0  0  0  0  0
    1.5262   -0.5534   -0.2881 H   0  0  0  0  0  0  0  0  0  0  0  0
    0.9096   -2.3429    0.7418 C   0  0  0  0  0  0  0  0  0  0  0  0
    1.2550   -2.0056    1.7189 H   0  0  0  0  0  0  0  0  0  0  0  0
   -0.0060   -2.9189    0.8759 H   0  0  0  0  0  0  0  0  0  0  0  0
    1.9775   -3.2668    0.1566 C   0  0  0  0  0  0  0  0  0  0  0  0
    2.4814   -3.0981   -0.9381 O   0  0  0  0  0  0  0  0  0  0  0  0
    2.3793   -4.2929    0.8748 N   0  0  0  0  0  0  0  0  0  0  0  0
    3.0829   -4.8660    0.4423 H   0  0  0  0  0  0  0  0  0  0  0  0
    2.0002   -4.4761    1.7818 H   0  0  0  0  0  0  0  0  0  0  0  0
   -0.5933    1.1228   -0.3673 C   0  0  0  0  0  0  0  0  0  0  0  0
    0.2674    1.9915   -0.2383 O   0  0  0  0  0  0  0  0  0  0  0  0
   -1.6554    1.2768   -1.1683 N   0  0  0  0  0  0  0  0  0  0  0  0
   -2.3061    0.5112   -1.2423 H   0  0  0  0  0  0  0  0  0  0  0  0
   -1.9086    2.4760   -1.9659 C   0  0  0  0  0  0  0  0  0  0  0  0
   -1.0540    2.6703   -2.6186 H   0  0  0  0  0  0  0  0  0  0  0  0
   -2.8037    2.3456   -2.5759 H   0  0  0  0  0  0  0  0  0  0  0  0
   -2.0416    3.3357   -1.3069 H   0  0  0  0  0  0  0  0  0  0  0  0
  5  6  2  0  0  0  0
  5  7  1  0  0  0  0
  2  3  1  0  0  0  0
  2  4  1  0  0  0  0
  2  5  1  0  0  0  0
  1  2  1  0  0  0  0
 22 23  2  0  0  0  0
 22 24  1  0  0  0  0
 19 20  1  0  0  0  0
 19 21  1  0  0  0  0
 17 18  2  0  0  0  0
 17 19  1  0  0  0  0
 14 15  1  0  0  0  0
 14 16  1  0  0  0  0
 14 17  1  0  0  0  0
 11 12  1  0  0  0  0
 11 13  1  0  0  0  0
 11 14  1  0  0  0  0
  9 10  1  0  0  0  0
  9 11  1  0  0  0  0
  9 22  1  0  0  0  0
  7  8  1  0  0  0  0
  7  9  1  0  0  0  0
 26 27  1  0  0  0  0
 26 28  1  0  0  0  0
 26 29  1  0  0  0  0
 24 25  1  0  0  0  0
 24 26  1  0  0  0  0
M  END
$$$$
default_name
  -OEChem-01062215323D

 29 28  0     1  0  0  0  0  0999 V2000
   -3.3998   -3.6239    1.3678 H   0  0  0  0  0  0  0  0  0  0  0  0
   -3.3608   -2.6749    0.8348 C   0  0  0  0  0  0  0  0  0  0  0  0
   -4.0988   -1.9909    1.2498 H   0  0  0  0  0  0  0  0  0  0  0  0
   -3.5618   -2.8419   -0.2222 H   0  0  0  0  0  0  0  0  0  0  0  0
   -1.9818   -2.0809    0.9918 C   0  0  0  0  0  0  0  0  0  0  0  0
   -1.1288   -2.6669    1.6468 O   0  0  0  0  0  0  0  0  0  0  0  0
   -1.7648   -0.9089    0.3998 N   0  0  0  0  0  0  0  0  0  0  0  0
   -2.5238   -0.4719   -0.1032 H   0  0  0  0  0  0  0  0  0  0  0  0
   -0.4848   -0.1959    0.4138 C   0  0  1  0  0  0  0  0  0  0  0  0
   -0.2302    0.0428    1.4477 H   0  0  0  0  0  0  0  0  0  0  0  0
    0.6076   -1.1257   -0.1497 C   0  0  0  0  0  0  0  0  0  0  0  0
    0.2802   -1.4874   -1.1266 H   0  0  0  0  0  0  0  0  0  0  0  0
    1.5262   -0.5534   -0.2881 H   0  0  0  0  0  0  0  0  0  0  0  0
    0.9096   -2.3429    0.7418 C   0  0  0  0  0  0  0  0  0  0  0  0
    1.2550   -2.0056    1.7189 H   0  0  0  0  0  0  0  0  0  0  0  0
   -0.0060   -2.9189    0.8759 H   0  0  0  0  0  0  0  0  0  0  0  0
    1.9775   -3.2668    0.1566 C   0  0  0  0  0  0  0  0  0  0  0  0
    2.4814   -3.0981   -0.9381 O   0  0  0  0  0  0  0  0  0  0  0  0
    2.3793   -4.2929    0.8748 N   0  0  0  0  0  0  0  0  0  0  0  0
    3.0829   -4.8660    0.4423 H   0  0  0  0  0  0  0  0  0  0  0  0
    2.0002   -4.4761    1.7818 H   0  0  0  0  0  0  0  0  0  0  0  0
   -0.5933    1.1228   -0.3673 C   0  0  0  0  0  0  0  0  0  0  0  0
    0.3795    1.8691   -0.4605 O   0  0  0  0  0  0  0  0  0  0  0  0
   -1.7784    1.4146   -0.9185 N   0  0  0  0  0  0  0  0  0  0  0  0
   -2.5227    0.7426   -0.8215 H   0  0  0  0  0  0  0  0  0  0  0  0
   -2.0458    2.6342   -1.6798 C   0  0  0  0  0  0  0  0  0  0  0  0
   -1.3408    2.7103   -2.5113 H   0  0  0  0  0  0  0  0  0  0  0  0
   -3.0637    2.6224   -2.0724 H   0  0  0  0  0  0  0  0  0  0  0  0
   -1.9157    3.5062   -1.0365 H   0  0  0  0  0  0  0  0  0  0  0  0
  5  6  2  0  0  0  0
  5  7  1  0  0  0  0
  2  3  1  0  0  0  0
  2  4  1  0  0  0  0
  2  5  1  0  0  0  0
  1  2  1  0  0  0  0
 22 23  2  0  0  0  0
 22 24  1  0  0  0  0
 19 20  1  0  0  0  0
 19 21  1  0  0  0  0
 17 18  2  0  0  0  0
 17 19  1  0  0  0  0
 14 15  1  0  0  0  0
 14 16  1  0  0  0  0
 14 17  1  0  0  0  0
 11 12  1  0  0  0  0
 11 13  1  0  0  0  0
 11 14  1  0  0  0  0
  9 10  1  0  0  0  0
  9 11  1  0  0  0  0
  9 22  1  0  0  0  0
  7  8  1  0  0  0  0
  7  9  1  0  0  0  0
 26 27  1  0  0  0  0
 26 28  1  0  0  0  0
 26 29  1  0  0  0  0
 24 25  1  0  0  0  0
 24 26  1  0  0  0  0
M  END
$$$$
default_name
  -OEChem-01062215323D

 29 28  0     1  0  0  0  0  0999 V2000
   -3.3998   -3.6239    1.3678 H   0  0  0  0  0  0  0  0  0  0  0  0
   -3.3608   -2.6749    0.8348 C   0  0  0  0  0  0  0  0  0  0  0  0
   -4.0988   -1.9909    1.2498 H   0  0  0  0  0  0  0  0  0  0  0  0
   -3.5618   -2.8419   -0.2222 H   0  0  0  0  0  0  0  0  0  0  0  0
   -1.9818   -2.0809    0.9918 C   0  0  0  0  0  0  0  0  0  0  0  0
   -1.1288   -2.6669    1.6468 O   0  0  0  0  0  0  0  0  0  0  0  0
   -1.7648   -0.9089    0.3998 N   0  0  0  0  0  0  0  0  0  0  0  0
   -2.5238   -0.4719   -0.1032 H   0  0  0  0  0  0  0  0  0  0  0  0
   -0.4848   -0.1959    0.4138 C   0  0  1  0  0  0  0  0  0  0  0  0
   -0.2302    0.0428    1.4477 H   0  0  0  0  0  0  0  0  0  0  0  0
    0.6076   -1.1257   -0.1497 C   0  0  0  0  0  0  0  0  0  0  0  0
    0.2802   -1.4874   -1.1266 H   0  0  0  0  0  0  0  0  0  0  0  0
    1.5262   -0.5534   -0.2881 H   0  0  0  0  0  0  0  0  0  0  0  0
    0.9096   -2.3429    0.7418 C   0  0  0  0  0  0  0  0  0  0  0  0
    1.2550   -2.0056    1.7189 H   0  0  0  0  0  0  0  0  0  0  0  0
   -0.0060   -2.9189    0.8759 H   0  0  0  0  0  0  0  0  0  0  0  0
    1.9775   -3.2668    0.1566 C   0  0  0  0  0  0  0  0  0  0  0  0
    2.4814   -3.0981   -0.9381 O   0  0  0  0  0  0  0  0  0  0  0  0
    2.3793   -4.2929    0.8748 N   0  0  0  0  0  0  0  0  0  0  0  0
    3.0829   -4.8660    0.4423 H   0  0  0  0  0  0  0  0  0  0  0  0
    2.0002   -4.4761    1.7818 H   0  0  0  0  0  0  0  0  0  0  0  0
   -0.5933    1.1228   -0.3673 C   0  0  0  0  0  0  0  0  0  0  0  0
    0.4223    1.7321   -0.6978 O   0  0  0  0  0  0  0  0  0  0  0  0
   -1.8235    1.5685   -0.6525 N   0  0  0  0  0  0  0  0  0  0  0  0
   -2.6080    1.0023   -0.3712 H   0  0  0  0  0  0  0  0  0  0  0  0
   -2.0940    2.8103   -1.3758 C   0  0  0  0  0  0  0  0  0  0  0  0
   -1.5888    2.7886   -2.3446 H   0  0  0  0  0  0  0  0  0  0  0  0
   -3.1666    2.9333   -1.5332 H   0  0  0  0  0  0  0  0  0  0  0  0
   -1.7117    3.6592   -0.8065 H   0  0  0  0  0  0  0  0  0  0  0  0
  5  6  2  0  0  0  0
  5  7  1  0  0  0  0
  2  3  1  0  0  0  0
  2  4  1  0  0  0  0
  2  5  1  0  0  0  0
  1  2  1  0  0  0  0
 22 23  2  0  0  0  0
 22 24  1  0  0  0  0
 19 20  1  0  0  0  0
 19 21  1  0  0  0  0
 17 18  2  0  0  0  0
 17 19  1  0  0  0  0
 14 15  1  0  0  0  0
 14 16  1  0  0  0  0
 14 17  1  0  0  0  0
 11 12  1  0  0  0  0
 11 13  1  0  0  0  0
 11 14  1  0  0  0  0
  9 10  1  0  0  0  0
  9 11  1  0  0  0  0
  9 22  1  0  0  0  0
  7  8  1  0  0  0  0
  7  9  1  0  0  0  0
 26 27  1  0  0  0  0
 26 28  1  0  0  0  0
 26 29  1  0  0  0  0
 24 25  1  0  0  0  0
 24 26  1  0  0  0  0
M  END
$$$$
default_name
  -OEChem-01062215323D

 29 28  0     1  0  0  0  0  0999 V2000
   -3.3998   -3.6239    1.3678 H   0  0  0  0  0  0  0  0  0  0  0  0
   -3.3608   -2.6749    0.8348 C   0  0  0  0  0  0  0  0  0  0  0  0
   -4.0988   -1.9909    1.2498 H   0  0  0  0  0  0  0  0  0  0  0  0
   -3.5618   -2.8419   -0.2222 H   0  0  0  0  0  0  0  0  0  0  0  0
   -1.9818   -2.0809    0.9918 C   0  0  0  0  0  0  0  0  0  0  0  0
   -1.1288   -2.6669    1.6468 O   0  0  0  0  0  0  0  0  0  0  0  0
   -1.7648   -0.9089    0.3998 N   0  0  0  0  0  0  0  0  0  0  0  0
   -2.5238   -0.4719   -0.1032 H   0  0  0  0  0  0  0  0  0  0  0  0
   -0.4848   -0.1959    0.4138 C   0  0  1  0  0  0  0  0  0  0  0  0
   -0.2302    0.0428    1.4477 H   0  0  0  0  0  0  0  0  0  0  0  0
    0.6076   -1.1257   -0.1497 C   0  0  0  0  0  0  0  0  0  0  0  0
    0.2802   -1.4874   -1.1266 H   0  0  0  0  0  0  0  0  0  0  0  0
    1.5262   -0.5534   -0.2881 H   0  0  0  0  0  0  0  0  0  0  0  0
    0.9096   -2.3429    0.7418 C   0  0  0  0  0  0  0  0  0  0  0  0
    1.2550   -2.0056    1.7189 H   0  0  0  0  0  0  0  0  0  0  0  0
   -0.0060   -2.9189    0.8759 H   0  0  0  0  0  0  0  0  0  0  0  0
    1.9775   -3.2668    0.1566 C   0  0  0  0  0  0  0  0  0  0  0  0
    2.4814   -3.0981   -0.9381 O   0  0  0  0  0  0  0  0  0  0  0  0
    2.3793   -4.2929    0.8748 N   0  0  0  0  0  0  0  0  0  0  0  0
    3.0829   -4.8660    0.4423 H   0  0  0  0  0  0  0  0  0  0  0  0
    2.0002   -4.4761    1.7818 H   0  0  0  0  0  0  0  0  0  0  0  0
   -0.5933    1.1228   -0.3673 C   0  0  0  0  0  0  0  0  0  0  0  0
    0.3930    1.5898   -0.9340 O   0  0  0  0  0  0  0  0  0  0  0  0
   -1.7878    1.7279   -0.3883 N   0  0  0  0  0  0  0  0  0  0  0  0
   -2.5562    1.2726    0.0780 H   0  0  0  0  0  0  0  0  0  0  0  0
   -2.0499    2.9922   -1.0747 C   0  0  0  0  0  0  0  0  0  0  0  0
   -1.7810    2.8999   -2.1299 H   0  0  0  0  0  0  0  0  0  0  0  0
   -3.1053    3.2569   -0.9953 H   0  0  0  0  0  0  0  0  0  0  0  0
   -1.4435    3.7844   -0.6324 H   0  0  0  0  0  0  0  0  0  0  0  0
  5  6  2  0  0  0  0
  5  7  1  0  0  0  0
  2  3  1  0  0  0  0
  2  4  1  0  0  0  0
  2  5  1  0  0  0  0
  1  2  1  0  0  0  0
 22 23  2  0  0  0  0
 22 24  1  0  0  0  0
 19 20  1  0  0  0  0
 19 21  1  0  0  0  0
 17 18  2  0  0  0  0
 17 19  1  0  0  0  0
 14 15  1  0  0  0  0
 14 16  1  0  0  0  0
 14 17  1  0  0  0  0
 11 12  1  0  0  0  0
 11 13  1  0  0  0  0
 11 14  1  0  0  0  0
  9 10  1  0  0  0  0
  9 11  1  0  0  0  0
  9 22  1  0  0  0  0
  7  8  1  0  0  0  0
  7  9  1  0  0  0  0
 26 27  1  0  0  0  0
 26 28  1  0  0  0  0
 26 29  1  0  0  0  0
 24 25  1  0  0  0  0
 24 26  1  0  0  0  0
M  END
$$$$
default_name
  -OEChem-01062215323D

 29 28  0     1  0  0  0  0  0999 V2000
   -3.3998   -3.6239    1.3678 H   0  0  0  0  0  0  0  0  0  0  0  0
   -3.3608   -2.6749    0.8348 C   0  0  0  0  0  0  0  0  0  0  0  0
   -4.0988   -1.9909    1.2498 H   0  0  0  0  0  0  0  0  0  0  0  0
   -3.5618   -2.8419   -0.2222 H   0  0  0  0  0  0  0  0  0  0  0  0
   -1.9818   -2.0809    0.9918 C   0  0  0  0  0  0  0  0  0  0  0  0
   -1.1288   -2.6669    1.6468 O   0  0  0  0  0  0  0  0  0  0  0  0
   -1.7648   -0.9089    0.3998 N   0  0  0  0  0  0  0  0  0  0  0  0
   -2.5238   -0.4719   -0.1032 H   0  0  0  0  0  0  0  0  0  0  0  0
   -0.4848   -0.1959    0.4138 C   0  0  1  0  0  0  0  0  0  0  0  0
   -0.2302    0.0428    1.4477 H   0  0  0  0  0  0  0  0  0  0  0  0
    0.6076   -1.1257   -0.1497 C   0  0  0  0  0  0  0  0  0  0  0  0
    0.2802   -1.4874   -1.1266 H   0  0  0  0  0  0  0  0  0  0  0  0
    1.5262   -0.5534   -0.2881 H   0  0  0  0  0  0  0  0  0  0  0  0
    0.9096   -2.3429    0.7418 C   0  0  0  0  0  0  0  0  0  0  0  0
    1.2550   -2.0056    1.7189 H   0  0  0  0  0  0  0  0  0  0  0  0
   -0.0060   -2.9189    0.8759 H   0  0  0  0  0  0  0  0  0  0  0  0
    1.9775   -3.2668    0.1566 C   0  0  0  0  0  0  0  0  0  0  0  0
    2.4814   -3.0981   -0.9381 O   0  0  0  0  0  0  0  0  0  0  0  0
    2.3793   -4.2929    0.8748 N   0  0  0  0  0  0  0  0  0  0  0  0
    3.0829   -4.8660    0.4423 H   0  0  0  0  0  0  0  0  0  0  0  0
    2.0002   -4.4761    1.7818 H   0  0  0  0  0  0  0  0  0  0  0  0
   -0.5933    1.1228   -0.3673 C   0  0  0  0  0  0  0  0  0  0  0  0
    0.2935    1.4519   -1.1530 O   0  0  0  0  0  0  0  0  0  0  0  0
   -1.6736    1.8821   -0.1439 N   0  0  0  0  0  0  0  0  0  0  0  0
   -2.3708    1.5351    0.4954 H   0  0  0  0  0  0  0  0  0  0  0  0
   -1.9164    3.1677   -0.7971 C   0  0  0  0  0  0  0  0  0  0  0  0
   -1.9043    3.0367   -1.8819 H   0  0  0  0  0  0  0  0  0  0  0  0
   -2.8841    3.5713   -0.4953 H   0  0  0  0  0  0  0  0  0  0  0  0
   -1.1292    3.8732   -0.5261 H   0  0  0  0  0  0  0  0  0  0  0  0
  5  6  2  0  0  0  0
  5  7  1  0  0  0  0
  2  3  1  0  0  0  0
  2  4  1  0  0  0  0
  2  5  1  0  0  0  0
  1  2  1  0  0  0  0
 22 23  2  0  0  0  0
 22 24  1  0  0  0  0
 19 20  1  0  0  0  0
 19 21  1  0  0  0  0
 17 18  2  0  0  0  0
 17 19  1  0  0  0  0
 14 15  1  0  0  0  0
 14 16  1  0  0  0  0
 14 17  1  0  0  0  0
 11 12  1  0  0  0  0
 11 13  1  0  0  0  0
 11 14  1  0  0  0  0
  9 10  1  0  0  0  0
  9 11  1  0  0  0  0
  9 22  1  0  0  0  0
  7  8  1  0  0  0  0
  7  9  1  0  0  0  0
 26 27  1  0  0  0  0
 26 28  1  0  0  0  0
 26 29  1  0  0  0  0
 24 25  1  0  0  0  0
 24 26  1  0  0  0  0
M  END
$$$$
default_name
  -OEChem-01062215323D

 29 28  0     1  0  0  0  0  0999 V2000
   -3.3998   -3.6239    1.3678 H   0  0  0  0  0  0  0  0  0  0  0  0
   -3.3608   -2.6749    0.8348 C   0  0  0  0  0  0  0  0  0  0  0  0
   -4.0988   -1.9909    1.2498 H   0  0  0  0  0  0  0  0  0  0  0  0
   -3.5618   -2.8419   -0.2222 H   0  0  0  0  0  0  0  0  0  0  0  0
   -1.9818   -2.0809    0.9918 C   0  0  0  0  0  0  0  0  0  0  0  0
   -1.1288   -2.6669    1.6468 O   0  0  0  0  0  0  0  0  0  0  0  0
   -1.7648   -0.9089    0.3998 N   0  0  0  0  0  0  0  0  0  0  0  0
   -2.5238   -0.4719   -0.1032 H   0  0  0  0  0  0  0  0  0  0  0  0
   -0.4848   -0.1959    0.4138 C   0  0  1  0  0  0  0  0  0  0  0  0
   -0.2302    0.0428    1.4477 H   0  0  0  0  0  0  0  0  0  0  0  0
    0.6076   -1.1257   -0.1497 C   0  0  0  0  0  0  0  0  0  0  0  0
    0.2802   -1.4874   -1.1266 H   0  0  0  0  0  0  0  0  0  0  0  0
    1.5262   -0.5534   -0.2881 H   0  0  0  0  0  0  0  0  0  0  0  0
    0.9096   -2.3429    0.7418 C   0  0  0  0  0  0  0  0  0  0  0  0
    1.2550   -2.0056    1.7189 H   0  0  0  0  0  0  0  0  0  0  0  0
   -0.0060   -2.9189    0.8759 H   0  0  0  0  0  0  0  0  0  0  0  0
    1.9775   -3.2668    0.1566 C   0  0  0  0  0  0  0  0  0  0  0  0
    2.4814   -3.0981   -0.9381 O   0  0  0  0  0  0  0  0  0  0  0  0
    2.3793   -4.2929    0.8748 N   0  0  0  0  0  0  0  0  0  0  0  0
    3.0829   -4.8660    0.4423 H   0  0  0  0  0  0  0  0  0  0  0  0
    2.0002   -4.4761    1.7818 H   0  0  0  0  0  0  0  0  0  0  0  0
   -0.5933    1.1228   -0.3673 C   0  0  0  0  0  0  0  0  0  0  0  0
    0.1305    1.3277   -1.3400 O   0  0  0  0  0  0  0  0  0  0  0  0
   -1.4888    2.0204    0.0639 N   0  0  0  0  0  0  0  0  0  0  0  0
   -2.0644    1.7718    0.8526 H   0  0  0  0  0  0  0  0  0  0  0  0
   -1.7027    3.3247   -0.5617 C   0  0  0  0  0  0  0  0  0  0  0  0
   -1.9503    3.1895   -1.6175 H   0  0  0  0  0  0  0  0  0  0  0  0
   -2.5179    3.8550   -0.0671 H   0  0  0  0  0  0  0  0  0  0  0  0
   -0.7903    3.9196   -0.4949 H   0  0  0  0  0  0  0  0  0  0  0  0
  5  6  2  0  0  0  0
  5  7  1  0  0  0  0
  2  3  1  0  0  0  0
  2  4  1  0  0  0  0
  2  5  1  0  0  0  0
  1  2  1  0  0  0  0
 22 23  2  0  0  0  0
 22 24  1  0  0  0  0
 19 20  1  0  0  0  0
 19 21  1  0  0  0  0
 17 18  2  0  0  0  0
 17 19  1  0  0  0  0
 14 15  1  0  0  0  0
 14 16  1  0  0  0  0
 14 17  1  0  0  0  0
 11 12  1  0  0  0  0
 11 13  1  0  0  0  0
 11 14  1  0  0  0  0
  9 10  1  0  0  0  0
  9 11  1  0  0  0  0
  9 22  1  0  0  0  0
  7  8  1  0  0  0  0
  7  9  1  0  0  0  0
 26 27  1  0  0  0  0
 26 28  1  0  0  0  0
 26 29  1  0  0  0  0
 24 25  1  0  0  0  0
 24 26  1  0  0  0  0
M  END
$$$$
default_name
  -OEChem-01062215323D

 29 28  0     1  0  0  0  0  0999 V2000
   -3.3998   -3.6239    1.3678 H   0  0  0  0  0  0  0  0  0  0  0  0
   -3.3608   -2.6749    0.8348 C   0  0  0  0  0  0  0  0  0  0  0  0
   -4.0988   -1.9909    1.2498 H   0  0  0  0  0  0  0  0  0  0  0  0
   -3.5618   -2.8419   -0.2222 H   0  0  0  0  0  0  0  0  0  0  0  0
   -1.9818   -2.0809    0.9918 C   0  0  0  0  0  0  0  0  0  0  0  0
   -1.1288   -2.6669    1.6468 O   0  0  0  0  0  0  0  0  0  0  0  0
   -1.7648   -0.9089    0.3998 N   0  0  0  0  0  0  0  0  0  0  0  0
   -2.5238   -0.4719   -0.1032 H   0  0  0  0  0  0  0  0  0  0  0  0
   -0.4848   -0.1959    0.4138 C   0  0  1  0  0  0  0  0  0  0  0  0
   -0.2302    0.0428    1.4477 H   0  0  0  0  0  0  0  0  0  0  0  0
    0.6076   -1.1257   -0.1497 C   0  0  0  0  0  0  0  0  0  0  0  0
    0.2802   -1.4874   -1.1266 H   0  0  0  0  0  0  0  0  0  0  0  0
    1.5262   -0.5534   -0.2881 H   0  0  0  0  0  0  0  0  0  0  0  0
    0.9096   -2.3429    0.7418 C   0  0  0  0  0  0  0  0  0  0  0  0
    1.2550   -2.0056    1.7189 H   0  0  0  0  0  0  0  0  0  0  0  0
   -0.0060   -2.9189    0.8759 H   0  0  0  0  0  0  0  0  0  0  0  0
    1.9775   -3.2668    0.1566 C   0  0  0  0  0  0  0  0  0  0  0  0
    2.4814   -3.0981   -0.9381 O   0  0  0  0  0  0  0  0  0  0  0  0
    2.3793   -4.2929    0.8748 N   0  0  0  0  0  0  0  0  0  0  0  0
    3.0829   -4.8660    0.4423 H   0  0  0  0  0  0  0  0  0  0  0  0
    2.0002   -4.4761    1.7818 H   0  0  0  0  0  0  0  0  0  0  0  0
   -0.5933    1.1228   -0.3673 C   0  0  0  0  0  0  0  0  0  0  0  0
   -0.0848    1.2258   -1.4821 O   0  0  0  0  0  0  0  0  0  0  0  0
   -1.2459    2.1335    0.2211 N   0  0  0  0  0  0  0  0  0  0  0  0
   -1.6581    1.9668    1.1252 H   0  0  0  0  0  0  0  0  0  0  0  0
   -1.4234    3.4525   -0.3847 C   0  0  0  0  0  0  0  0  0  0  0  0
   -1.9159    3.3480   -1.3546 H   0  0  0  0  0  0  0  0  0  0  0  0
   -2.0318    4.0887    0.2599 H   0  0  0  0  0  0  0  0  0  0  0  0
   -0.4499    3.9204   -0.5409 H   0  0  0  0  0  0  0  0  0  0  0  0
  5  6  2  0  0  0  0
  5  7  1  0  0  0  0
  2  3  1  0  0  0  0
  2  4  1  0  0  0  0
  2  5  1  0  0  0  0
  1  2  1  0  0  0  0
 22 23  2  0  0  0  0
 22 24  1  0  0  0  0
 19 20  1  0  0  0  0
 19 21  1  0  0  0  0
 17 18  2  0  0  0  0
 17 19  1  0  0  0  0
 14 15  1  0  0  0  0
 14 16  1  0  0  0  0
 14 17  1  0  0  0  0
 11 12  1  0  0  0  0
 11 13  1  0  0  0  0
 11 14  1  0  0  0  0
  9 10  1  0  0  0  0
  9 11  1  0  0  0  0
  9 22  1  0  0  0  0
  7  8  1  0  0  0  0
  7  9  1  0  0  0  0
 26 27  1  0  0  0  0
 26 28  1  0  0  0  0
 26 29  1  0  0  0  0
 24 25  1  0  0  0  0
 24 26  1  0  0  0  0
M  END
$$$$
default_name
  -OEChem-01062215323D

 29 28  0     1  0  0  0  0  0999 V2000
   -3.3998   -3.6239    1.3678 H   0  0  0  0  0  0  0  0  0  0  0  0
   -3.3608   -2.6749    0.8348 C   0  0  0  0  0  0  0  0  0  0  0  0
   -4.0988   -1.9909    1.2498 H   0  0  0  0  0  0  0  0  0  0  0  0
   -3.5618   -2.8419   -0.2222 H   0  0  0  0  0  0  0  0  0  0  0  0
   -1.9818   -2.0809    0.9918 C   0  0  0  0  0  0  0  0  0  0  0  0
   -1.1288   -2.6669    1.6468 O   0  0  0  0  0  0  0  0  0  0  0  0
   -1.7648   -0.9089    0.3998 N   0  0  0  0  0  0  0  0  0  0  0  0
   -2.5238   -0.4719   -0.1032 H   0  0  0  0  0  0  0  0  0  0  0  0
   -0.4848   -0.1959    0.4138 C   0  0  1  0  0  0  0  0  0  0  0  0
   -0.2302    0.0428    1.4477 H   0  0  0  0  0  0  0  0  0  0  0  0
    0.6076   -1.1257   -0.1497 C   0  0  0  0  0  0  0  0  0  0  0  0
    0.2802   -1.4874   -1.1266 H   0  0  0  0  0  0  0  0  0  0  0  0
    1.5262   -0.5534   -0.2881 H   0  0  0  0  0  0  0  0  0  0  0  0
    0.9096   -2.3429    0.7418 C   0  0  0  0  0  0  0  0  0  0  0  0
    1.2550   -2.0056    1.7189 H   0  0  0  0  0  0  0  0  0  0  0  0
   -0.0060   -2.9189    0.8759 H   0  0  0  0  0  0  0  0  0  0  0  0
    1.9775   -3.2668    0.1566 C   0  0  0  0  0  0  0  0  0  0  0  0
    2.4814   -3.0981   -0.9381 O   0  0  0  0  0  0  0  0  0  0  0  0
    2.3793   -4.2929    0.8748 N   0  0  0  0  0  0  0  0  0  0  0  0
    3.0829   -4.8660    0.4423 H   0  0  0  0  0  0  0  0  0  0  0  0
    2.0002   -4.4761    1.7818 H   0  0  0  0  0  0  0  0  0  0  0  0
   -0.5933    1.1228   -0.3673 C   0  0  0  0  0  0  0  0  0  0  0  0
   -0.3377    1.1532   -1.5697 O   0  0  0  0  0  0  0  0  0  0  0  0
   -0.9615    2.2136    0.3169 N   0  0  0  0  0  0  0  0  0  0  0  0
   -1.1793    2.1066    1.2947 H   0  0  0  0  0  0  0  0  0  0  0  0
   -1.0974    3.5424   -0.2781 C   0  0  0  0  0  0  0  0  0  0  0  0
   -1.8034    3.5014   -1.1113 H   0  0  0  0  0  0  0  0  0  0  0  0
   -1.4589    4.2565    0.4635 H   0  0  0  0  0  0  0  0  0  0  0  0
   -0.1313    3.8755   -0.6609 H   0  0  0  0  0  0  0  0  0  0  0  0
  5  6  2  0  0  0  0
  5  7  1  0  0  0  0
  2  3  1  0  0  0  0
  2  4  1  0  0  0  0
  2  5  1  0  0  0  0
  1  2  1  0  0  0  0
 22 23  2  0  0  0  0
 22 24  1  0  0  0  0
 19 20  1  0  0  0  0
 19 21  1  0  0  0  0
 17 18  2  0  0  0  0
 17 19  1  0  0  0  0
 14 15  1  0  0  0  0
 14 16  1  0  0  0  0
 14 17  1  0  0  0  0
 11 12  1  0  0  0  0
 11 13  1  0  0  0  0
 11 14  1  0  0  0  0
  9 10  1  0  0  0  0
  9 11  1  0  0  0  0
  9 22  1  0  0  0  0
  7  8  1  0  0  0  0
  7  9  1  0  0  0  0
 26 27  1  0  0  0  0
 26 28  1  0  0  0  0
 26 29  1  0  0  0  0
 24 25  1  0  0  0  0
 24 26  1  0  0  0  0
M  END
$$$$
default_name
  -OEChem-01062215323D

 29 28  0     1  0  0  0  0  0999 V2000
   -3.3998   -3.6239    1.3678 H   0  0  0  0  0  0  0  0  0  0  0  0
   -3.3608   -2.6749    0.8348 C   0  0  0  0  0  0  0  0  0  0  0  0
   -4.0988   -1.9909    1.2498 H   0  0  0  0  0  0  0  0  0  0  0  0
   -3.5618   -2.8419   -0.2222 H   0  0  0  0  0  0  0  0  0  0  0  0
   -1.9818   -2.0809    0.9918 C   0  0  0  0  0  0  0  0  0  0  0  0
   -1.1288   -2.6669    1.6468 O   0  0  0  0  0  0  0  0  0  0  0  0
   -1.7648   -0.9089    0.3998 N   0  0  0  0  0  0  0  0  0  0  0  0
   -2.5238   -0.4719   -0.1032 H   0  0  0  0  0  0  0  0  0  0  0  0
   -0.4848   -0.1959    0.4138 C   0  0  1  0  0  0  0  0  0  0  0  0
   -0.2302    0.0428    1.4477 H   0  0  0  0  0  0  0  0  0  0  0  0
    0.6076   -1.1257   -0.1497 C   0  0  0  0  0  0  0  0  0  0  0  0
    0.2802   -1.4874   -1.1266 H   0  0  0  0  0  0  0  0  0  0  0  0
    1.5262   -0.5534   -0.2881 H   0  0  0  0  0  0  0  0  0  0  0  0
    0.9096   -2.3429    0.7418 C   0  0  0  0  0  0  0  0  0  0  0  0
    1.2550   -2.0056    1.7189 H   0  0  0  0  0  0  0  0  0  0  0  0
   -0.0060   -2.9189    0.8759 H   0  0  0  0  0  0  0  0  0  0  0  0
    1.9775   -3.2668    0.1566 C   0  0  0  0  0  0  0  0  0  0  0  0
    2.4814   -3.0981   -0.9381 O   0  0  0  0  0  0  0  0  0  0  0  0
    2.3793   -4.2929    0.8748 N   0  0  0  0  0  0  0  0  0  0  0  0
    3.0829   -4.8660    0.4423 H   0  0  0  0  0  0  0  0  0  0  0  0
    2.0002   -4.4761    1.7818 H   0  0  0  0  0  0  0  0  0  0  0  0
   -0.5933    1.1228   -0.3673 C   0  0  0  0  0  0  0  0  0  0  0  0
   -0.6110    1.1146   -1.5968 O   0  0  0  0  0  0  0  0  0  0  0  0
   -0.6549    2.2554    0.3448 N   0  0  0  0  0  0  0  0  0  0  0  0
   -0.6608    2.1818    1.3496 H   0  0  0  0  0  0  0  0  0  0  0  0
   -0.7471    3.5884   -0.2492 C   0  0  0  0  0  0  0  0  0  0  0  0
   -1.6205    3.6392   -0.9040 H   0  0  0  0  0  0  0  0  0  0  0  0
   -0.8381    4.3468    0.5298 H   0  0  0  0  0  0  0  0  0  0  0  0
    0.1440    3.7881   -0.8468 H   0  0  0  0  0  0  0  0  0  0  0  0
  5  6  2  0  0  0  0
  5  7  1  0  0  0  0
  2  3  1  0  0  0  0
  2  4  1  0  0  0  0
  2  5  1  0  0  0  0
  1  2  1  0  0  0  0
 22 23  2  0  0  0  0
 22 24  1  0  0  0  0
 19 20  1  0  0  0  0
 19 21  1  0  0  0  0
 17 18  2  0  0  0  0
 17 19  1  0  0  0  0
 14 15  1  0  0  0  0
 14 16  1  0  0  0  0
 14 17  1  0  0  0  0
 11 12  1  0  0  0  0
 11 13  1  0  0  0  0
 11 14  1  0  0  0  0
  9 10  1  0  0  0  0
  9 11  1  0  0  0  0
  9 22  1  0  0  0  0
  7  8  1  0  0  0  0
  7  9  1  0  0  0  0
 26 27  1  0  0  0  0
 26 28  1  0  0  0  0
 26 29  1  0  0  0  0
 24 25  1  0  0  0  0
 24 26  1  0  0  0  0
M  END
$$$$
default_name
  -OEChem-01062215323D

 29 28  0     1  0  0  0  0  0999 V2000
   -3.3998   -3.6239    1.3678 H   0  0  0  0  0  0  0  0  0  0  0  0
   -3.3608   -2.6749    0.8348 C   0  0  0  0  0  0  0  0  0  0  0  0
   -4.0988   -1.9909    1.2498 H   0  0  0  0  0  0  0  0  0  0  0  0
   -3.5618   -2.8419   -0.2222 H   0  0  0  0  0  0  0  0  0  0  0  0
   -1.9818   -2.0809    0.9918 C   0  0  0  0  0  0  0  0  0  0  0  0
   -1.1288   -2.6669    1.6468 O   0  0  0  0  0  0  0  0  0  0  0  0
   -1.7648   -0.9089    0.3998 N   0  0  0  0  0  0  0  0  0  0  0  0
   -2.5238   -0.4719   -0.1032 H   0  0  0  0  0  0  0  0  0  0  0  0
   -0.4848   -0.1959    0.4138 C   0  0  1  0  0  0  0  0  0  0  0  0
   -0.2302    0.0428    1.4477 H   0  0  0  0  0  0  0  0  0  0  0  0
    0.6076   -1.1257   -0.1497 C   0  0  0  0  0  0  0  0  0  0  0  0
    0.2802   -1.4874   -1.1266 H   0  0  0  0  0  0  0  0  0  0  0  0
    1.5262   -0.5534   -0.2881 H   0  0  0  0  0  0  0  0  0  0  0  0
    0.9096   -2.3429    0.7418 C   0  0  0  0  0  0  0  0  0  0  0  0
    1.2550   -2.0056    1.7189 H   0  0  0  0  0  0  0  0  0  0  0  0
   -0.0060   -2.9189    0.8759 H   0  0  0  0  0  0  0  0  0  0  0  0
    1.9775   -3.2668    0.1566 C   0  0  0  0  0  0  0  0  0  0  0  0
    2.4814   -3.0981   -0.9381 O   0  0  0  0  0  0  0  0  0  0  0  0
    2.3793   -4.2929    0.8748 N   0  0  0  0  0  0  0  0  0  0  0  0
    3.0829   -4.8660    0.4423 H   0  0  0  0  0  0  0  0  0  0  0  0
    2.0002   -4.4761    1.7818 H   0  0  0  0  0  0  0  0  0  0  0  0
   -0.5933    1.1228   -0.3673 C   0  0  0  0  0  0  0  0  0  0  0  0
   -0.8860    1.1128   -1.5615 O   0  0  0  0  0  0  0  0  0  0  0  0
   -0.3471    2.2559    0.3028 N   0  0  0  0  0  0  0  0  0  0  0  0
   -0.1379    2.1871    1.2860 H   0  0  0  0  0  0  0  0  0  0  0  0
   -0.3962    3.5872   -0.2999 C   0  0  0  0  0  0  0  0  0  0  0  0
   -1.3797    3.7521   -0.7469 H   0  0  0  0  0  0  0  0  0  0  0  0
   -0.2119    4.3537    0.4544 H   0  0  0  0  0  0  0  0  0  0  0  0
    0.3570    3.6640   -1.0859 H   0  0  0  0  0  0  0  0  0  0  0  0
  5  6  2  0  0  0  0
  5  7  1  0  0  0  0
  2  3  1  0  0  0  0
  2  4  1  0  0  0  0
  2  5  1  0  0  0  0
  1  2  1  0  0  0  0
 22 23  2  0  0  0  0
 22 24  1  0  0  0  0
 19 20  1  0  0  0  0
 19 21  1  0  0  0  0
 17 18  2  0  0  0  0
 17 19  1  0  0  0  0
 14 15  1  0  0  0  0
 14 16  1  0  0  0  0
 14 17  1  0  0  0  0
 11 12  1  0  0  0  0
 11 13  1  0  0  0  0
 11 14  1  0  0  0  0
  9 10  1  0  0  0  0
  9 11  1  0  0  0  0
  9 22  1  0  0  0  0
  7  8  1  0  0  0  0
  7  9  1  0  0  0  0
 26 27  1  0  0  0  0
 26 28  1  0  0  0  0
 26 29  1  0  0  0  0
 24 25  1  0  0  0  0
 24 26  1  0  0  0  0
M  END
$$$$
default_name
  -OEChem-01062215323D

 29 28  0     1  0  0  0  0  0999 V2000
   -3.3998   -3.6239    1.3678 H   0  0  0  0  0  0  0  0  0  0  0  0
   -3.3608   -2.6749    0.8348 C   0  0  0  0  0  0  0  0  0  0  0  0
   -4.0988   -1.9909    1.2498 H   0  0  0  0  0  0  0  0  0  0  0  0
   -3.5618   -2.8419   -0.2222 H   0  0  0  0  0  0  0  0  0  0  0  0
   -1.9818   -2.0809    0.9918 C   0  0  0  0  0  0  0  0  0  0  0  0
   -1.1288   -2.6669    1.6468 O   0  0  0  0  0  0  0  0  0  0  0  0
   -1.7648   -0.9089    0.3998 N   0  0  0  0  0  0  0  0  0  0  0  0
   -2.5238   -0.4719   -0.1032 H   0  0  0  0  0  0  0  0  0  0  0  0
   -0.4848   -0.1959    0.4138 C   0  0  1  0  0  0  0  0  0  0  0  0
   -0.2302    0.0428    1.4477 H   0  0  0  0  0  0  0  0  0  0  0  0
    0.6076   -1.1257   -0.1497 C   0  0  0  0  0  0  0  0  0  0  0  0
    0.2802   -1.4874   -1.1266 H   0  0  0  0  0  0  0  0  0  0  0  0
    1.5262   -0.5534   -0.2881 H   0  0  0  0  0  0  0  0  0  0  0  0
    0.9096   -2.3429    0.7418 C   0  0  0  0  0  0  0  0  0  0  0  0
    1.2550   -2.0056    1.7189 H   0  0  0  0  0  0  0  0  0  0  0  0
   -0.0060   -2.9189    0.8759 H   0  0  0  0  0  0  0  0  0  0  0  0
    1.9775   -3.2668    0.1566 C   0  0  0  0  0  0  0  0  0  0  0  0
    2.4814   -3.0981   -0.9381 O   0  0  0  0  0  0  0  0  0  0  0  0
    2.3793   -4.2929    0.8748 N   0  0  0  0  0  0  0  0  0  0  0  0
    3.0829   -4.8660    0.4423 H   0  0  0  0  0  0  0  0  0  0  0  0
    2.0002   -4.4761    1.7818 H   0  0  0  0  0  0  0  0  0  0  0  0
   -0.5933    1.1228   -0.3673 C   0  0  0  0  0  0  0  0  0  0  0  0
   -1.1441    1.1480   -1.4664 O   0  0  0  0  0  0  0  0  0  0  0  0
   -0.0591    2.2151    0.1940 N   0  0  0  0  0  0  0  0  0  0  0  0
    0.3538    2.1224    1.1084 H   0  0  0  0  0  0  0  0  0  0  0  0
   -0.0687    3.5390   -0.4269 C   0  0  0  0  0  0  0  0  0  0  0  0
   -1.0973    3.8323   -0.6508 H   0  0  0  0  0  0  0  0  0  0  0  0
    0.3771    4.2765    0.2423 H   0  0  0  0  0  0  0  0  0  0  0  0
    0.4934    3.5118   -1.3619 H   0  0  0  0  0  0  0  0  0  0  0  0
  5  6  2  0  0  0  0
  5  7  1  0  0  0  0
  2  3  1  0  0  0  0
  2  4  1  0  0  0  0
  2  5  1  0  0  0  0
  1  2  1  0  0  0  0
 22 23  2  0  0  0  0
 22 24  1  0  0  0  0
 19 20  1  0  0  0  0
 19 21  1  0  0  0  0
 17 18  2  0  0  0  0
 17 19  1  0  0  0  0
 14 15  1  0  0  0  0
 14 16  1  0  0  0  0
 14 17  1  0  0  0  0
 11 12  1  0  0  0  0
 11 13  1  0  0  0  0
 11 14  1  0  0  0  0
  9 10  1  0  0  0  0
  9 11  1  0  0  0  0
  9 22  1  0  0  0  0
  7  8  1  0  0  0  0
  7  9  1  0  0  0  0
 26 27  1  0  0  0  0
 26 28  1  0  0  0  0
 26 29  1  0  0  0  0
 24 25  1  0  0  0  0
 24 26  1  0  0  0  0
M  END
$$$$
default_name
  -OEChem-01062215323D

 29 28  0     1  0  0  0  0  0999 V2000
   -3.3998   -3.6239    1.3678 H   0  0  0  0  0  0  0  0  0  0  0  0
   -3.3608   -2.6749    0.8348 C   0  0  0  0  0  0  0  0  0  0  0  0
   -4.0988   -1.9909    1.2498 H   0  0  0  0  0  0  0  0  0  0  0  0
   -3.5618   -2.8419   -0.2222 H   0  0  0  0  0  0  0  0  0  0  0  0
   -1.9818   -2.0809    0.9918 C   0  0  0  0  0  0  0  0  0  0  0  0
   -1.1288   -2.6669    1.6468 O   0  0  0  0  0  0  0  0  0  0  0  0
   -1.7648   -0.9089    0.3998 N   0  0  0  0  0  0  0  0  0  0  0  0
   -2.5238   -0.4719   -0.1032 H   0  0  0  0  0  0  0  0  0  0  0  0
   -0.4848   -0.1959    0.4138 C   0  0  1  0  0  0  0  0  0  0  0  0
   -0.2302    0.0428    1.4477 H   0  0  0  0  0  0  0  0  0  0  0  0
    0.6076   -1.1257   -0.1497 C   0  0  0  0  0  0  0  0  0  0  0  0
    0.2802   -1.4874   -1.1266 H   0  0  0  0  0  0  0  0  0  0  0  0
    1.5262   -0.5534   -0.2881 H   0  0  0  0  0  0  0  0  0  0  0  0
    0.9096   -2.3429    0.7418 C   0  0  0  0  0  0  0  0  0  0  0  0
    1.2550   -2.0056    1.7189 H   0  0  0  0  0  0  0  0  0  0  0  0
   -0.0060   -2.9189    0.8759 H   0  0  0  0  0  0  0  0  0  0  0  0
    1.9775   -3.2668    0.1566 C   0  0  0  0  0  0  0  0  0  0  0  0
    2.4814   -3.0981   -0.9381 O   0  0  0  0  0  0  0  0  0  0  0  0
    2.3793   -4.2929    0.8748 N   0  0  0  0  0  0  0  0  0  0  0  0
    3.0829   -4.8660    0.4423 H   0  0  0  0  0  0  0  0  0  0  0  0
    2.0002   -4.4761    1.7818 H   0  0  0  0  0  0  0  0  0  0  0  0
   -0.5933    1.1228   -0.3673 C   0  0  0  0  0  0  0  0  0  0  0  0
   -1.3677    1.2176   -1.3177 O   0  0  0  0  0  0  0  0  0  0  0  0
    0.1896    2.1358    0.0256 N   0  0  0  0  0  0  0  0  0  0  0  0
    0.7807    1.9919    0.8287 H   0  0  0  0  0  0  0  0  0  0  0  0
    0.2131    3.4470   -0.6214 C   0  0  0  0  0  0  0  0  0  0  0  0
   -0.7927    3.8743   -0.6221 H   0  0  0  0  0  0  0  0  0  0  0  0
    0.8887    4.1206   -0.0920 H   0  0  0  0  0  0  0  0  0  0  0  0
    0.5438    3.3417   -1.6560 H   0  0  0  0  0  0  0  0  0  0  0  0
  5  6  2  0  0  0  0
  5  7  1  0  0  0  0
  2  3  1  0  0  0  0
  2  4  1  0  0  0  0
  2  5  1  0  0  0  0
  1  2  1  0  0  0  0
 22 23  2  0  0  0  0
 22 24  1  0  0  0  0
 19 20  1  0  0  0  0
 19 21  1  0  0  0  0
 17 18  2  0  0  0  0
 17 19  1  0  0  0  0
 14 15  1  0  0  0  0
 14 16  1  0  0  0  0
 14 17  1  0  0  0  0
 11 12  1  0  0  0  0
 11 13  1  0  0  0  0
 11 14  1  0  0  0  0
  9 10  1  0  0  0  0
  9 11  1  0  0  0  0
  9 22  1  0  0  0  0
  7  8  1  0  0  0  0
  7  9  1  0  0  0  0
 26 27  1  0  0  0  0
 26 28  1  0  0  0  0
 26 29  1  0  0  0  0
 24 25  1  0  0  0  0
 24 26  1  0  0  0  0
M  END
$$$$
default_name
  -OEChem-01062215323D

 29 28  0     1  0  0  0  0  0999 V2000
   -3.3998   -3.6239    1.3678 H   0  0  0  0  0  0  0  0  0  0  0  0
   -3.3608   -2.6749    0.8348 C   0  0  0  0  0  0  0  0  0  0  0  0
   -4.0988   -1.9909    1.2498 H   0  0  0  0  0  0  0  0  0  0  0  0
   -3.5618   -2.8419   -0.2222 H   0  0  0  0  0  0  0  0  0  0  0  0
   -1.9818   -2.0809    0.9918 C   0  0  0  0  0  0  0  0  0  0  0  0
   -1.1288   -2.6669    1.6468 O   0  0  0  0  0  0  0  0  0  0  0  0
   -1.7648   -0.9089    0.3998 N   0  0  0  0  0  0  0  0  0  0  0  0
   -2.5238   -0.4719   -0.1032 H   0  0  0  0  0  0  0  0  0  0  0  0
   -0.4848   -0.1959    0.4138 C   0  0  1  0  0  0  0  0  0  0  0  0
   -0.2302    0.0428    1.4477 H   0  0  0  0  0  0  0  0  0  0  0  0
    0.6076   -1.1257   -0.1497 C   0  0  0  0  0  0  0  0  0  0  0  0
    0.2802   -1.4874   -1.1266 H   0  0  0  0  0  0  0  0  0  0  0  0
    1.5262   -0.5534   -0.2881 H   0  0  0  0  0  0  0  0  0  0  0  0
    0.9096   -2.3429    0.7418 C   0  0  0  0  0  0  0  0  0  0  0  0
    1.2550   -2.0056    1.7189 H   0  0  0  0  0  0  0  0  0  0  0  0
   -0.0060   -2.9189    0.8759 H   0  0  0  0  0  0  0  0  0  0  0  0
    1.9775   -3.2668    0.1566 C   0  0  0  0  0  0  0  0  0  0  0  0
    2.4814   -3.0981   -0.9381 O   0  0  0  0  0  0  0  0  0  0  0  0
    2.3793   -4.2929    0.8748 N   0  0  0  0  0  0  0  0  0  0  0  0
    3.0829   -4.8660    0.4423 H   0  0  0  0  0  0  0  0  0  0  0  0
    2.0002   -4.4761    1.7818 H   0  0  0  0  0  0  0  0  0  0  0  0
   -0.5933    1.1228   -0.3673 C   0  0  0  0  0  0  0  0  0  0  0  0
   -1.5415    1.3170   -1.1258 O   0  0  0  0  0  0  0  0  0  0  0  0
    0.3820    2.0234   -0.1909 N   0  0  0  0  0  0  0  0  0  0  0  0
    1.1138    1.8046    0.4662 H   0  0  0  0  0  0  0  0  0  0  0  0
    0.4300    3.3175   -0.8701 C   0  0  0  0  0  0  0  0  0  0  0  0
   -0.4865    3.8754   -0.6628 H   0  0  0  0  0  0  0  0  0  0  0  0
    1.2882    3.8966   -0.5258 H   0  0  0  0  0  0  0  0  0  0  0  0
    0.5047    3.1654   -1.9482 H   0  0  0  0  0  0  0  0  0  0  0  0
  5  6  2  0  0  0  0
  5  7  1  0  0  0  0
  2  3  1  0  0  0  0
  2  4  1  0  0  0  0
  2  5  1  0  0  0  0
  1  2  1  0  0  0  0
 22 23  2  0  0  0  0
 22 24  1  0  0  0  0
 19 20  1  0  0  0  0
 19 21  1  0  0  0  0
 17 18  2  0  0  0  0
 17 19  1  0  0  0  0
 14 15  1  0  0  0  0
 14 16  1  0  0  0  0
 14 17  1  0  0  0  0
 11 12  1  0  0  0  0
 11 13  1  0  0  0  0
 11 14  1  0  0  0  0
  9 10  1  0  0  0  0
  9 11  1  0  0  0  0
  9 22  1  0  0  0  0
  7  8  1  0  0  0  0
  7  9  1  0  0  0  0
 26 27  1  0  0  0  0
 26 28  1  0  0  0  0
 26 29  1  0  0  0  0
 24 25  1  0  0  0  0
 24 26  1  0  0  0  0
M  END
$$$$
default_name
  -OEChem-01062215323D

 29 28  0     1  0  0  0  0  0999 V2000
   -3.3998   -3.6239    1.3678 H   0  0  0  0  0  0  0  0  0  0  0  0
   -3.3608   -2.6749    0.8348 C   0  0  0  0  0  0  0  0  0  0  0  0
   -4.0988   -1.9909    1.2498 H   0  0  0  0  0  0  0  0  0  0  0  0
   -3.5618   -2.8419   -0.2222 H   0  0  0  0  0  0  0  0  0  0  0  0
   -1.9818   -2.0809    0.9918 C   0  0  0  0  0  0  0  0  0  0  0  0
   -1.1288   -2.6669    1.6468 O   0  0  0  0  0  0  0  0  0  0  0  0
   -1.7648   -0.9089    0.3998 N   0  0  0  0  0  0  0  0  0  0  0  0
   -2.5238   -0.4719   -0.1032 H   0  0  0  0  0  0  0  0  0  0  0  0
   -0.4848   -0.1959    0.4138 C   0  0  1  0  0  0  0  0  0  0  0  0
   -0.0988   -0.1927    1.4345 H   0  0  0  0  0  0  0  0  0  0  0  0
    0.5165   -0.9557   -0.4781 C   0  0  0  0  0  0  0  0  0  0  0  0
    0.0641   -1.0928   -1.4625 H   0  0  0  0  0  0  0  0  0  0  0  0
    1.4170   -0.3514   -0.5977 H   0  0  0  0  0  0  0  0  0  0  0  0
    0.9139   -2.3375    0.0697 C   0  0  0  0  0  0  0  0  0  0  0  0
    1.3839   -2.2239    1.0463 H   0  0  0  0  0  0  0  0  0  0  0  0
    0.0158   -2.9444    0.1839 H   0  0  0  0  0  0  0  0  0  0  0  0
    1.8883   -3.0871   -0.8388 C   0  0  0  0  0  0  0  0  0  0  0  0
    2.2519   -2.6669   -1.9213 O   0  0  0  0  0  0  0  0  0  0  0  0
    2.3652   -4.2420   -0.4277 N   0  0  0  0  0  0  0  0  0  0  0  0
    3.0016   -4.6905   -1.0636 H   0  0  0  0  0  0  0  0  0  0  0  0
    2.1014   -4.6317    0.4545 H   0  0  0  0  0  0  0  0  0  0  0  0
   -0.6752    1.2631   -0.0287 C   0  0  0  0  0  0  0  0  0  0  0  0
   -1.7908    1.6747   -0.3418 O   0  0  0  0  0  0  0  0  0  0  0  0
    0.4141    2.0413   -0.0650 N   0  0  0  0  0  0  0  0  0  0  0  0
    1.2904    1.6412    0.2301 H   0  0  0  0  0  0  0  0  0  0  0  0
    0.4008    3.4447   -0.4758 C   0  0  0  0  0  0  0  0  0  0  0  0
   -0.3030    4.0029    0.1464 H   0  0  0  0  0  0  0  0  0  0  0  0
    1.3955    3.8811   -0.3723 H   0  0  0  0  0  0  0  0  0  0  0  0
    0.0780    3.5214   -1.5154 H   0  0  0  0  0  0  0  0  0  0  0  0
  5  6  2  0  0  0  0
  5  7  1  0  0  0  0
  2  3  1  0  0  0  0
  2  4  1  0  0  0  0
  2  5  1  0  0  0  0
  1  2  1  0  0  0  0
 22 23  2  0  0  0  0
 22 24  1  0  0  0  0
 19 20  1  0  0  0  0
 19 21  1  0  0  0  0
 17 18  2  0  0  0  0
 17 19  1  0  0  0  0
 14 15  1  0  0  0  0
 14 16  1  0  0  0  0
 14 17  1  0  0  0  0
 11 12  1  0  0  0  0
 11 13  1  0  0  0  0
 11 14  1  0  0  0  0
  9 10  1  0  0  0  0
  9 11  1  0  0  0  0
  9 22  1  0  0  0  0
  7  8  1  0  0  0  0
  7  9  1  0  0  0  0
 26 27  1  0  0  0  0
 26 28  1  0  0  0  0
 26 29  1  0  0  0  0
 24 25  1  0  0  0  0
 24 26  1  0  0  0  0
M  END
$$$$
default_name
  -OEChem-01062215323D

 29 28  0     1  0  0  0  0  0999 V2000
   -3.3998   -3.6239    1.3678 H   0  0  0  0  0  0  0  0  0  0  0  0
   -3.3608   -2.6749    0.8348 C   0  0  0  0  0  0  0  0  0  0  0  0
   -4.0988   -1.9909    1.2498 H   0  0  0  0  0  0  0  0  0  0  0  0
   -3.5618   -2.8419   -0.2222 H   0  0  0  0  0  0  0  0  0  0  0  0
   -1.9818   -2.0809    0.9918 C   0  0  0  0  0  0  0  0  0  0  0  0
   -1.1288   -2.6669    1.6468 O   0  0  0  0  0  0  0  0  0  0  0  0
   -1.7648   -0.9089    0.3998 N   0  0  0  0  0  0  0  0  0  0  0  0
   -2.5238   -0.4719   -0.1032 H   0  0  0  0  0  0  0  0  0  0  0  0
   -0.4848   -0.1959    0.4138 C   0  0  1  0  0  0  0  0  0  0  0  0
   -0.0988   -0.1927    1.4345 H   0  0  0  0  0  0  0  0  0  0  0  0
    0.5165   -0.9557   -0.4781 C   0  0  0  0  0  0  0  0  0  0  0  0
    0.0641   -1.0928   -1.4625 H   0  0  0  0  0  0  0  0  0  0  0  0
    1.4170   -0.3514   -0.5977 H   0  0  0  0  0  0  0  0  0  0  0  0
    0.9139   -2.3375    0.0697 C   0  0  0  0  0  0  0  0  0  0  0  0
    1.3839   -2.2239    1.0463 H   0  0  0  0  0  0  0  0  0  0  0  0
    0.0158   -2.9444    0.1839 H   0  0  0  0  0  0  0  0  0  0  0  0
    1.8883   -3.0871   -0.8388 C   0  0  0  0  0  0  0  0  0  0  0  0
    2.2519   -2.6669   -1.9213 O   0  0  0  0  0  0  0  0  0  0  0  0
    2.3652   -4.2420   -0.4277 N   0  0  0  0  0  0  0  0  0  0  0  0
    3.0016   -4.6905   -1.0636 H   0  0  0  0  0  0  0  0  0  0  0  0
    2.1014   -4.6317    0.4545 H   0  0  0  0  0  0  0  0  0  0  0  0
   -0.6752    1.2631   -0.0287 C   0  0  0  0  0  0  0  0  0  0  0  0
   -1.8017    1.7538   -0.0763 O   0  0  0  0  0  0  0  0  0  0  0  0
    0.4235    1.9523   -0.3624 N   0  0  0  0  0  0  0  0  0  0  0  0
    1.3151    1.4914   -0.2743 H   0  0  0  0  0  0  0  0  0  0  0  0
    0.4082    3.3427   -0.8152 C   0  0  0  0  0  0  0  0  0  0  0  0
   -0.0790    3.9685   -0.0635 H   0  0  0  0  0  0  0  0  0  0  0  0
    1.4257    3.7019   -0.9763 H   0  0  0  0  0  0  0  0  0  0  0  0
   -0.1553    3.4208   -1.7466 H   0  0  0  0  0  0  0  0  0  0  0  0
  5  6  2  0  0  0  0
  5  7  1  0  0  0  0
  2  3  1  0  0  0  0
  2  4  1  0  0  0  0
  2  5  1  0  0  0  0
  1  2  1  0  0  0  0
 22 23  2  0  0  0  0
 22 24  1  0  0  0  0
 19 20  1  0  0  0  0
 19 21  1  0  0  0  0
 17 18  2  0  0  0  0
 17 19  1  0  0  0  0
 14 15  1  0  0  0  0
 14 16  1  0  0  0  0
 14 17  1  0  0  0  0
 11 12  1  0  0  0  0
 11 13  1  0  0  0  0
 11 14  1  0  0  0  0
  9 10  1  0  0  0  0
  9 11  1  0  0  0  0
  9 22  1  0  0  0  0
  7  8  1  0  0  0  0
  7  9  1  0  0  0  0
 26 27  1  0  0  0  0
 26 28  1  0  0  0  0
 26 29  1  0  0  0  0
 24 25  1  0  0  0  0
 24 26  1  0  0  0  0
M  END
$$$$
default_name
  -OEChem-01062215323D

 29 28  0     1  0  0  0  0  0999 V2000
   -3.3998   -3.6239    1.3678 H   0  0  0  0  0  0  0  0  0  0  0  0
   -3.3608   -2.6749    0.8348 C   0  0  0  0  0  0  0  0  0  0  0  0
   -4.0988   -1.9909    1.2498 H   0  0  0  0  0  0  0  0  0  0  0  0
   -3.5618   -2.8419   -0.2222 H   0  0  0  0  0  0  0  0  0  0  0  0
   -1.9818   -2.0809    0.9918 C   0  0  0  0  0  0  0  0  0  0  0  0
   -1.1288   -2.6669    1.6468 O   0  0  0  0  0  0  0  0  0  0  0  0
   -1.7648   -0.9089    0.3998 N   0  0  0  0  0  0  0  0  0  0  0  0
   -2.5238   -0.4719   -0.1032 H   0  0  0  0  0  0  0  0  0  0  0  0
   -0.4848   -0.1959    0.4138 C   0  0  1  0  0  0  0  0  0  0  0  0
   -0.0988   -0.1927    1.4345 H   0  0  0  0  0  0  0  0  0  0  0  0
    0.5165   -0.9557   -0.4781 C   0  0  0  0  0  0  0  0  0  0  0  0
    0.0641   -1.0928   -1.4625 H   0  0  0  0  0  0  0  0  0  0  0  0
    1.4170   -0.3514   -0.5977 H   0  0  0  0  0  0  0  0  0  0  0  0
    0.9139   -2.3375    0.0697 C   0  0  0  0  0  0  0  0  0  0  0  0
    1.3839   -2.2239    1.0463 H   0  0  0  0  0  0  0  0  0  0  0  0
    0.0158   -2.9444    0.1839 H   0  0  0  0  0  0  0  0  0  0  0  0
    1.8883   -3.0871   -0.8388 C   0  0  0  0  0  0  0  0  0  0  0  0
    2.2519   -2.6669   -1.9213 O   0  0  0  0  0  0  0  0  0  0  0  0
    2.3652   -4.2420   -0.4277 N   0  0  0  0  0  0  0  0  0  0  0  0
    3.0016   -4.6905   -1.0636 H   0  0  0  0  0  0  0  0  0  0  0  0
    2.1014   -4.6317    0.4545 H   0  0  0  0  0  0  0  0  0  0  0  0
   -0.6752    1.2631   -0.0287 C   0  0  0  0  0  0  0  0  0  0  0  0
   -1.7411    1.8395    0.1804 O   0  0  0  0  0  0  0  0  0  0  0  0
    0.3528    1.8561   -0.6492 N   0  0  0  0  0  0  0  0  0  0  0  0
    1.2037    1.3288   -0.7628 H   0  0  0  0  0  0  0  0  0  0  0  0
    0.3242    3.2327   -1.1417 C   0  0  0  0  0  0  0  0  0  0  0  0
    0.0831    3.9118   -0.3201 H   0  0  0  0  0  0  0  0  0  0  0  0
    1.2932    3.5071   -1.5614 H   0  0  0  0  0  0  0  0  0  0  0  0
   -0.4449    3.3337   -1.9094 H   0  0  0  0  0  0  0  0  0  0  0  0
  5  6  2  0  0  0  0
  5  7  1  0  0  0  0
  2  3  1  0  0  0  0
  2  4  1  0  0  0  0
  2  5  1  0  0  0  0
  1  2  1  0  0  0  0
 22 23  2  0  0  0  0
 22 24  1  0  0  0  0
 19 20  1  0  0  0  0
 19 21  1  0  0  0  0
 17 18  2  0  0  0  0
 17 19  1  0  0  0  0
 14 15  1  0  0  0  0
 14 16  1  0  0  0  0
 14 17  1  0  0  0  0
 11 12  1  0  0  0  0
 11 13  1  0  0  0  0
 11 14  1  0  0  0  0
  9 10  1  0  0  0  0
  9 11  1  0  0  0  0
  9 22  1  0  0  0  0
  7  8  1  0  0  0  0
  7  9  1  0  0  0  0
 26 27  1  0  0  0  0
 26 28  1  0  0  0  0
 26 29  1  0  0  0  0
 24 25  1  0  0  0  0
 24 26  1  0  0  0  0
M  END
$$$$
default_name
  -OEChem-01062215323D

 29 28  0     1  0  0  0  0  0999 V2000
   -3.3998   -3.6239    1.3678 H   0  0  0  0  0  0  0  0  0  0  0  0
   -3.3608   -2.6749    0.8348 C   0  0  0  0  0  0  0  0  0  0  0  0
   -4.0988   -1.9909    1.2498 H   0  0  0  0  0  0  0  0  0  0  0  0
   -3.5618   -2.8419   -0.2222 H   0  0  0  0  0  0  0  0  0  0  0  0
   -1.9818   -2.0809    0.9918 C   0  0  0  0  0  0  0  0  0  0  0  0
   -1.1288   -2.6669    1.6468 O   0  0  0  0  0  0  0  0  0  0  0  0
   -1.7648   -0.9089    0.3998 N   0  0  0  0  0  0  0  0  0  0  0  0
   -2.5238   -0.4719   -0.1032 H   0  0  0  0  0  0  0  0  0  0  0  0
   -0.4848   -0.1959    0.4138 C   0  0  1  0  0  0  0  0  0  0  0  0
   -0.0988   -0.1927    1.4345 H   0  0  0  0  0  0  0  0  0  0  0  0
    0.5165   -0.9557   -0.4781 C   0  0  0  0  0  0  0  0  0  0  0  0
    0.0641   -1.0928   -1.4625 H   0  0  0  0  0  0  0  0  0  0  0  0
    1.4170   -0.3514   -0.5977 H   0  0  0  0  0  0  0  0  0  0  0  0
    0.9139   -2.3375    0.0697 C   0  0  0  0  0  0  0  0  0  0  0  0
    1.3839   -2.2239    1.0463 H   0  0  0  0  0  0  0  0  0  0  0  0
    0.0158   -2.9444    0.1839 H   0  0  0  0  0  0  0  0  0  0  0  0
    1.8883   -3.0871   -0.8388 C   0  0  0  0  0  0  0  0  0  0  0  0
    2.2519   -2.6669   -1.9213 O   0  0  0  0  0  0  0  0  0  0  0  0
    2.3652   -4.2420   -0.4277 N   0  0  0  0  0  0  0  0  0  0  0  0
    3.0016   -4.6905   -1.0636 H   0  0  0  0  0  0  0  0  0  0  0  0
    2.1014   -4.6317    0.4545 H   0  0  0  0  0  0  0  0  0  0  0  0
   -0.6752    1.2631   -0.0287 C   0  0  0  0  0  0  0  0  0  0  0  0
   -1.6130    1.9261    0.4107 O   0  0  0  0  0  0  0  0  0  0  0  0
    0.2068    1.7593   -0.9058 N   0  0  0  0  0  0  0  0  0  0  0  0
    0.9640    1.1643   -1.2021 H   0  0  0  0  0  0  0  0  0  0  0  0
    0.1546    3.1223   -1.4328 C   0  0  0  0  0  0  0  0  0  0  0  0
    0.1725    3.8368   -0.6061 H   0  0  0  0  0  0  0  0  0  0  0  0
    1.0068    3.3101   -2.0878 H   0  0  0  0  0  0  0  0  0  0  0  0
   -0.7711    3.2659   -1.9926 H   0  0  0  0  0  0  0  0  0  0  0  0
  5  6  2  0  0  0  0
  5  7  1  0  0  0  0
  2  3  1  0  0  0  0
  2  4  1  0  0  0  0
  2  5  1  0  0  0  0
  1  2  1  0  0  0  0
 22 23  2  0  0  0  0
 22 24  1  0  0  0  0
 19 20  1  0  0  0  0
 19 21  1  0  0  0  0
 17 18  2  0  0  0  0
 17 19  1  0  0  0  0
 14 15  1  0  0  0  0
 14 16  1  0  0  0  0
 14 17  1  0  0  0  0
 11 12  1  0  0  0  0
 11 13  1  0  0  0  0
 11 14  1  0  0  0  0
  9 10  1  0  0  0  0
  9 11  1  0  0  0  0
  9 22  1  0  0  0  0
  7  8  1  0  0  0  0
  7  9  1  0  0  0  0
 26 27  1  0  0  0  0
 26 28  1  0  0  0  0
 26 29  1  0  0  0  0
 24 25  1  0  0  0  0
 24 26  1  0  0  0  0
M  END
$$$$
default_name
  -OEChem-01062215323D

 29 28  0     1  0  0  0  0  0999 V2000
   -3.3998   -3.6239    1.3678 H   0  0  0  0  0  0  0  0  0  0  0  0
   -3.3608   -2.6749    0.8348 C   0  0  0  0  0  0  0  0  0  0  0  0
   -4.0988   -1.9909    1.2498 H   0  0  0  0  0  0  0  0  0  0  0  0
   -3.5618   -2.8419   -0.2222 H   0  0  0  0  0  0  0  0  0  0  0  0
   -1.9818   -2.0809    0.9918 C   0  0  0  0  0  0  0  0  0  0  0  0
   -1.1288   -2.6669    1.6468 O   0  0  0  0  0  0  0  0  0  0  0  0
   -1.7648   -0.9089    0.3998 N   0  0  0  0  0  0  0  0  0  0  0  0
   -2.5238   -0.4719   -0.1032 H   0  0  0  0  0  0  0  0  0  0  0  0
   -0.4848   -0.1959    0.4138 C   0  0  1  0  0  0  0  0  0  0  0  0
   -0.0988   -0.1927    1.4345 H   0  0  0  0  0  0  0  0  0  0  0  0
    0.5165   -0.9557   -0.4781 C   0  0  0  0  0  0  0  0  0  0  0  0
    0.0641   -1.0928   -1.4625 H   0  0  0  0  0  0  0  0  0  0  0  0
    1.4170   -0.3514   -0.5977 H   0  0  0  0  0  0  0  0  0  0  0  0
    0.9139   -2.3375    0.0697 C   0  0  0  0  0  0  0  0  0  0  0  0
    1.3839   -2.2239    1.0463 H   0  0  0  0  0  0  0  0  0  0  0  0
    0.0158   -2.9444    0.1839 H   0  0  0  0  0  0  0  0  0  0  0  0
    1.8883   -3.0871   -0.8388 C   0  0  0  0  0  0  0  0  0  0  0  0
    2.2519   -2.6669   -1.9213 O   0  0  0  0  0  0  0  0  0  0  0  0
    2.3652   -4.2420   -0.4277 N   0  0  0  0  0  0  0  0  0  0  0  0
    3.0016   -4.6905   -1.0636 H   0  0  0  0  0  0  0  0  0  0  0  0
    2.1014   -4.6317    0.4545 H   0  0  0  0  0  0  0  0  0  0  0  0
   -0.6752    1.2631   -0.0287 C   0  0  0  0  0  0  0  0  0  0  0  0
   -1.4263    2.0075    0.5989 O   0  0  0  0  0  0  0  0  0  0  0  0
   -0.0044    1.6684   -1.1146 N   0  0  0  0  0  0  0  0  0  0  0  0
    0.6122    1.0092   -1.5622 H   0  0  0  0  0  0  0  0  0  0  0  0
   -0.0889    3.0190   -1.6688 C   0  0  0  0  0  0  0  0  0  0  0  0
    0.1829    3.7485   -0.9019 H   0  0  0  0  0  0  0  0  0  0  0  0
    0.5861    3.1243   -2.5195 H   0  0  0  0  0  0  0  0  0  0  0  0
   -1.1117    3.2220   -1.9907 H   0  0  0  0  0  0  0  0  0  0  0  0
  5  6  2  0  0  0  0
  5  7  1  0  0  0  0
  2  3  1  0  0  0  0
  2  4  1  0  0  0  0
  2  5  1  0  0  0  0
  1  2  1  0  0  0  0
 22 23  2  0  0  0  0
 22 24  1  0  0  0  0
 19 20  1  0  0  0  0
 19 21  1  0  0  0  0
 17 18  2  0  0  0  0
 17 19  1  0  0  0  0
 14 15  1  0  0  0  0
 14 16  1  0  0  0  0
 14 17  1  0  0  0  0
 11 12  1  0  0  0  0
 11 13  1  0  0  0  0
 11 14  1  0  0  0  0
  9 10  1  0  0  0  0
  9 11  1  0  0  0  0
  9 22  1  0  0  0  0
  7  8  1  0  0  0  0
  7  9  1  0  0  0  0
 26 27  1  0  0  0  0
 26 28  1  0  0  0  0
 26 29  1  0  0  0  0
 24 25  1  0  0  0  0
 24 26  1  0  0  0  0
M  END
$$$$
default_name
  -OEChem-01062215323D

 29 28  0     1  0  0  0  0  0999 V2000
   -3.3998   -3.6239    1.3678 H   0  0  0  0  0  0  0  0  0  0  0  0
   -3.3608   -2.6749    0.8348 C   0  0  0  0  0  0  0  0  0  0  0  0
   -4.0988   -1.9909    1.2498 H   0  0  0  0  0  0  0  0  0  0  0  0
   -3.5618   -2.8419   -0.2222 H   0  0  0  0  0  0  0  0  0  0  0  0
   -1.9818   -2.0809    0.9918 C   0  0  0  0  0  0  0  0  0  0  0  0
   -1.1288   -2.6669    1.6468 O   0  0  0  0  0  0  0  0  0  0  0  0
   -1.7648   -0.9089    0.3998 N   0  0  0  0  0  0  0  0  0  0  0  0
   -2.5238   -0.4719   -0.1032 H   0  0  0  0  0  0  0  0  0  0  0  0
   -0.4848   -0.1959    0.4138 C   0  0  1  0  0  0  0  0  0  0  0  0
   -0.0988   -0.1927    1.4345 H   0  0  0  0  0  0  0  0  0  0  0  0
    0.5165   -0.9557   -0.4781 C   0  0  0  0  0  0  0  0  0  0  0  0
    0.0641   -1.0928   -1.4625 H   0  0  0  0  0  0  0  0  0  0  0  0
    1.4170   -0.3514   -0.5977 H   0  0  0  0  0  0  0  0  0  0  0  0
    0.9139   -2.3375    0.0697 C   0  0  0  0  0  0  0  0  0  0  0  0
    1.3839   -2.2239    1.0463 H   0  0  0  0  0  0  0  0  0  0  0  0
    0.0158   -2.9444    0.1839 H   0  0  0  0  0  0  0  0  0  0  0  0
    1.8883   -3.0871   -0.8388 C   0  0  0  0  0  0  0  0  0  0  0  0
    2.2519   -2.6669   -1.9213 O   0  0  0  0  0  0  0  0  0  0  0  0
    2.3652   -4.2420   -0.4277 N   0  0  0  0  0  0  0  0  0  0  0  0
    3.0016   -4.6905   -1.0636 H   0  0  0  0  0  0  0  0  0  0  0  0
    2.1014   -4.6317    0.4545 H   0  0  0  0  0  0  0  0  0  0  0  0
   -0.6752    1.2631   -0.0287 C   0  0  0  0  0  0  0  0  0  0  0  0
   -1.1936    2.0783    0.7322 O   0  0  0  0  0  0  0  0  0  0  0  0
   -0.2665    1.5897   -1.2615 N   0  0  0  0  0  0  0  0  0  0  0  0
    0.1723    0.8740   -1.8186 H   0  0  0  0  0  0  0  0  0  0  0  0
   -0.3899    2.9297   -1.8336 C   0  0  0  0  0  0  0  0  0  0  0  0
    0.1137    3.6529   -1.1873 H   0  0  0  0  0  0  0  0  0  0  0  0
    0.0598    2.9624   -2.8272 H   0  0  0  0  0  0  0  0  0  0  0  0
   -1.4435    3.2051   -1.9037 H   0  0  0  0  0  0  0  0  0  0  0  0
  5  6  2  0  0  0  0
  5  7  1  0  0  0  0
  2  3  1  0  0  0  0
  2  4  1  0  0  0  0
  2  5  1  0  0  0  0
  1  2  1  0  0  0  0
 22 23  2  0  0  0  0
 22 24  1  0  0  0  0
 19 20  1  0  0  0  0
 19 21  1  0  0  0  0
 17 18  2  0  0  0  0
 17 19  1  0  0  0  0
 14 15  1  0  0  0  0
 14 16  1  0  0  0  0
 14 17  1  0  0  0  0
 11 12  1  0  0  0  0
 11 13  1  0  0  0  0
 11 14  1  0  0  0  0
  9 10  1  0  0  0  0
  9 11  1  0  0  0  0
  9 22  1  0  0  0  0
  7  8  1  0  0  0  0
  7  9  1  0  0  0  0
 26 27  1  0  0  0  0
 26 28  1  0  0  0  0
 26 29  1  0  0  0  0
 24 25  1  0  0  0  0
 24 26  1  0  0  0  0
M  END
$$$$
default_name
  -OEChem-01062215323D

 29 28  0     1  0  0  0  0  0999 V2000
   -3.3998   -3.6239    1.3678 H   0  0  0  0  0  0  0  0  0  0  0  0
   -3.3608   -2.6749    0.8348 C   0  0  0  0  0  0  0  0  0  0  0  0
   -4.0988   -1.9909    1.2498 H   0  0  0  0  0  0  0  0  0  0  0  0
   -3.5618   -2.8419   -0.2222 H   0  0  0  0  0  0  0  0  0  0  0  0
   -1.9818   -2.0809    0.9918 C   0  0  0  0  0  0  0  0  0  0  0  0
   -1.1288   -2.6669    1.6468 O   0  0  0  0  0  0  0  0  0  0  0  0
   -1.7648   -0.9089    0.3998 N   0  0  0  0  0  0  0  0  0  0  0  0
   -2.5238   -0.4719   -0.1032 H   0  0  0  0  0  0  0  0  0  0  0  0
   -0.4848   -0.1959    0.4138 C   0  0  1  0  0  0  0  0  0  0  0  0
   -0.0988   -0.1927    1.4345 H   0  0  0  0  0  0  0  0  0  0  0  0
    0.5165   -0.9557   -0.4781 C   0  0  0  0  0  0  0  0  0  0  0  0
    0.0641   -1.0928   -1.4625 H   0  0  0  0  0  0  0  0  0  0  0  0
    1.4170   -0.3514   -0.5977 H   0  0  0  0  0  0  0  0  0  0  0  0
    0.9139   -2.3375    0.0697 C   0  0  0  0  0  0  0  0  0  0  0  0
    1.3839   -2.2239    1.0463 H   0  0  0  0  0  0  0  0  0  0  0  0
    0.0158   -2.9444    0.1839 H   0  0  0  0  0  0  0  0  0  0  0  0
    1.8883   -3.0871   -0.8388 C   0  0  0  0  0  0  0  0  0  0  0  0
    2.2519   -2.6669   -1.9213 O   0  0  0  0  0  0  0  0  0  0  0  0
    2.3652   -4.2420   -0.4277 N   0  0  0  0  0  0  0  0  0  0  0  0
    3.0016   -4.6905   -1.0636 H   0  0  0  0  0  0  0  0  0  0  0  0
    2.1014   -4.6317    0.4545 H   0  0  0  0  0  0  0  0  0  0  0  0
   -0.6752    1.2631   -0.0287 C   0  0  0  0  0  0  0  0  0  0  0  0
   -0.9308    2.1336    0.8014 O   0  0  0  0  0  0  0  0  0  0  0  0
   -0.5617    1.5284   -1.3364 N   0  0  0  0  0  0  0  0  0  0  0  0
   -0.3256    0.7680   -1.9538 H   0  0  0  0  0  0  0  0  0  0  0  0
   -0.7277    2.8607   -1.9160 C   0  0  0  0  0  0  0  0  0  0  0  0
   -0.0304    3.5565   -1.4430 H   0  0  0  0  0  0  0  0  0  0  0  0
   -0.5362    2.8353   -2.9898 H   0  0  0  0  0  0  0  0  0  0  0  0
   -1.7439    3.2162   -1.7376 H   0  0  0  0  0  0  0  0  0  0  0  0
  5  6  2  0  0  0  0
  5  7  1  0  0  0  0
  2  3  1  0  0  0  0
  2  4  1  0  0  0  0
  2  5  1  0  0  0  0
  1  2  1  0  0  0  0
 22 23  2  0  0  0  0
 22 24  1  0  0  0  0
 19 20  1  0  0  0  0
 19 21  1  0  0  0  0
 17 18  2  0  0  0  0
 17 19  1  0  0  0  0
 14 15  1  0  0  0  0
 14 16  1  0  0  0  0
 14 17  1  0  0  0  0
 11 12  1  0  0  0  0
 11 13  1  0  0  0  0
 11 14  1  0  0  0  0
  9 10  1  0  0  0  0
  9 11  1  0  0  0  0
  9 22  1  0  0  0  0
  7  8  1  0  0  0  0
  7  9  1  0  0  0  0
 26 27  1  0  0  0  0
 26 28  1  0  0  0  0
 26 29  1  0  0  0  0
 24 25  1  0  0  0  0
 24 26  1  0  0  0  0
M  END
$$$$
default_name
  -OEChem-01062215323D

 29 28  0     1  0  0  0  0  0999 V2000
   -3.3998   -3.6239    1.3678 H   0  0  0  0  0  0  0  0  0  0  0  0
   -3.3608   -2.6749    0.8348 C   0  0  0  0  0  0  0  0  0  0  0  0
   -4.0988   -1.9909    1.2498 H   0  0  0  0  0  0  0  0  0  0  0  0
   -3.5618   -2.8419   -0.2222 H   0  0  0  0  0  0  0  0  0  0  0  0
   -1.9818   -2.0809    0.9918 C   0  0  0  0  0  0  0  0  0  0  0  0
   -1.1288   -2.6669    1.6468 O   0  0  0  0  0  0  0  0  0  0  0  0
   -1.7648   -0.9089    0.3998 N   0  0  0  0  0  0  0  0  0  0  0  0
   -2.5238   -0.4719   -0.1032 H   0  0  0  0  0  0  0  0  0  0  0  0
   -0.4848   -0.1959    0.4138 C   0  0  1  0  0  0  0  0  0  0  0  0
   -0.0988   -0.1927    1.4345 H   0  0  0  0  0  0  0  0  0  0  0  0
    0.5165   -0.9557   -0.4781 C   0  0  0  0  0  0  0  0  0  0  0  0
    0.0641   -1.0928   -1.4625 H   0  0  0  0  0  0  0  0  0  0  0  0
    1.4170   -0.3514   -0.5977 H   0  0  0  0  0  0  0  0  0  0  0  0
    0.9139   -2.3375    0.0697 C   0  0  0  0  0  0  0  0  0  0  0  0
    1.3839   -2.2239    1.0463 H   0  0  0  0  0  0  0  0  0  0  0  0
    0.0158   -2.9444    0.1839 H   0  0  0  0  0  0  0  0  0  0  0  0
    1.8883   -3.0871   -0.8388 C   0  0  0  0  0  0  0  0  0  0  0  0
    2.2519   -2.6669   -1.9213 O   0  0  0  0  0  0  0  0  0  0  0  0
    2.3652   -4.2420   -0.4277 N   0  0  0  0  0  0  0  0  0  0  0  0
    3.0016   -4.6905   -1.0636 H   0  0  0  0  0  0  0  0  0  0  0  0
    2.1014   -4.6317    0.4545 H   0  0  0  0  0  0  0  0  0  0  0  0
   -0.6752    1.2631   -0.0287 C   0  0  0  0  0  0  0  0  0  0  0  0
   -0.6558    2.1696    0.8020 O   0  0  0  0  0  0  0  0  0  0  0  0
   -0.8698    1.4889   -1.3343 N   0  0  0  0  0  0  0  0  0  0  0  0
   -0.8478    0.6984   -1.9586 H   0  0  0  0  0  0  0  0  0  0  0  0
   -1.0794    2.8165   -1.9103 C   0  0  0  0  0  0  0  0  0  0  0  0
   -0.2397    3.4660   -1.6514 H   0  0  0  0  0  0  0  0  0  0  0  0
   -1.1614    2.7517   -2.9963 H   0  0  0  0  0  0  0  0  0  0  0  0
   -1.9924    3.2547   -1.5037 H   0  0  0  0  0  0  0  0  0  0  0  0
  5  6  2  0  0  0  0
  5  7  1  0  0  0  0
  2  3  1  0  0  0  0
  2  4  1  0  0  0  0
  2  5  1  0  0  0  0
  1  2  1  0  0  0  0
 22 23  2  0  0  0  0
 22 24  1  0  0  0  0
 19 20  1  0  0  0  0
 19 21  1  0  0  0  0
 17 18  2  0  0  0  0
 17 19  1  0  0  0  0
 14 15  1  0  0  0  0
 14 16  1  0  0  0  0
 14 17  1  0  0  0  0
 11 12  1  0  0  0  0
 11 13  1  0  0  0  0
 11 14  1  0  0  0  0
  9 10  1  0  0  0  0
  9 11  1  0  0  0  0
  9 22  1  0  0  0  0
  7  8  1  0  0  0  0
  7  9  1  0  0  0  0
 26 27  1  0  0  0  0
 26 28  1  0  0  0  0
 26 29  1  0  0  0  0
 24 25  1  0  0  0  0
 24 26  1  0  0  0  0
M  END
$$$$
default_name
  -OEChem-01062215323D

 29 28  0     1  0  0  0  0  0999 V2000
   -3.3998   -3.6239    1.3678 H   0  0  0  0  0  0  0  0  0  0  0  0
   -3.3608   -2.6749    0.8348 C   0  0  0  0  0  0  0  0  0  0  0  0
   -4.0988   -1.9909    1.2498 H   0  0  0  0  0  0  0  0  0  0  0  0
   -3.5618   -2.8419   -0.2222 H   0  0  0  0  0  0  0  0  0  0  0  0
   -1.9818   -2.0809    0.9918 C   0  0  0  0  0  0  0  0  0  0  0  0
   -1.1288   -2.6669    1.6468 O   0  0  0  0  0  0  0  0  0  0  0  0
   -1.7648   -0.9089    0.3998 N   0  0  0  0  0  0  0  0  0  0  0  0
   -2.5238   -0.4719   -0.1032 H   0  0  0  0  0  0  0  0  0  0  0  0
   -0.4848   -0.1959    0.4138 C   0  0  1  0  0  0  0  0  0  0  0  0
   -0.0988   -0.1927    1.4345 H   0  0  0  0  0  0  0  0  0  0  0  0
    0.5165   -0.9557   -0.4781 C   0  0  0  0  0  0  0  0  0  0  0  0
    0.0641   -1.0928   -1.4625 H   0  0  0  0  0  0  0  0  0  0  0  0
    1.4170   -0.3514   -0.5977 H   0  0  0  0  0  0  0  0  0  0  0  0
    0.9139   -2.3375    0.0697 C   0  0  0  0  0  0  0  0  0  0  0  0
    1.3839   -2.2239    1.0463 H   0  0  0  0  0  0  0  0  0  0  0  0
    0.0158   -2.9444    0.1839 H   0  0  0  0  0  0  0  0  0  0  0  0
    1.8883   -3.0871   -0.8388 C   0  0  0  0  0  0  0  0  0  0  0  0
    2.2519   -2.6669   -1.9213 O   0  0  0  0  0  0  0  0  0  0  0  0
    2.3652   -4.2420   -0.4277 N   0  0  0  0  0  0  0  0  0  0  0  0
    3.0016   -4.6905   -1.0636 H   0  0  0  0  0  0  0  0  0  0  0  0
    2.1014   -4.6317    0.4545 H   0  0  0  0  0  0  0  0  0  0  0  0
   -0.6752    1.2631   -0.0287 C   0  0  0  0  0  0  0  0  0  0  0  0
   -0.3874    2.1840    0.7338 O   0  0  0  0  0  0  0  0  0  0  0  0
   -1.1698    1.4737   -1.2552 N   0  0  0  0  0  0  0  0  0  0  0  0
   -1.3585    0.6699   -1.8327 H   0  0  0  0  0  0  0  0  0  0  0  0
   -1.4211    2.8002   -1.8169 C   0  0  0  0  0  0  0  0  0  0  0  0
   -0.4997    3.3875   -1.7984 H   0  0  0  0  0  0  0  0  0  0  0  0
   -1.7730    2.7173   -2.8463 H   0  0  0  0  0  0  0  0  0  0  0  0
   -2.1721    3.3180   -1.2179 H   0  0  0  0  0  0  0  0  0  0  0  0
  5  6  2  0  0  0  0
  5  7  1  0  0  0  0
  2  3  1  0  0  0  0
  2  4  1  0  0  0  0
  2  5  1  0  0  0  0
  1  2  1  0  0  0  0
 22 23  2  0  0  0  0
 22 24  1  0  0  0  0
 19 20  1  0  0  0  0
 19 21  1  0  0  0  0
 17 18  2  0  0  0  0
 17 19  1  0  0  0  0
 14 15  1  0  0  0  0
 14 16  1  0  0  0  0
 14 17  1  0  0  0  0
 11 12  1  0  0  0  0
 11 13  1  0  0  0  0
 11 14  1  0  0  0  0
  9 10  1  0  0  0  0
  9 11  1  0  0  0  0
  9 22  1  0  0  0  0
  7  8  1  0  0  0  0
  7  9  1  0  0  0  0
 26 27  1  0  0  0  0
 26 28  1  0  0  0  0
 26 29  1  0  0  0  0
 24 25  1  0  0  0  0
 24 26  1  0  0  0  0
M  END
$$$$
default_name
  -OEChem-01062215323D

 29 28  0     1  0  0  0  0  0999 V2000
   -3.3998   -3.6239    1.3678 H   0  0  0  0  0  0  0  0  0  0  0  0
   -3.3608   -2.6749    0.8348 C   0  0  0  0  0  0  0  0  0  0  0  0
   -4.0988   -1.9909    1.2498 H   0  0  0  0  0  0  0  0  0  0  0  0
   -3.5618   -2.8419   -0.2222 H   0  0  0  0  0  0  0  0  0  0  0  0
   -1.9818   -2.0809    0.9918 C   0  0  0  0  0  0  0  0  0  0  0  0
   -1.1288   -2.6669    1.6468 O   0  0  0  0  0  0  0  0  0  0  0  0
   -1.7648   -0.9089    0.3998 N   0  0  0  0  0  0  0  0  0  0  0  0
   -2.5238   -0.4719   -0.1032 H   0  0  0  0  0  0  0  0  0  0  0  0
   -0.4848   -0.1959    0.4138 C   0  0  1  0  0  0  0  0  0  0  0  0
   -0.0988   -0.1927    1.4345 H   0  0  0  0  0  0  0  0  0  0  0  0
    0.5165   -0.9557   -0.4781 C   0  0  0  0  0  0  0  0  0  0  0  0
    0.0641   -1.0928   -1.4625 H   0  0  0  0  0  0  0  0  0  0  0  0
    1.4170   -0.3514   -0.5977 H   0  0  0  0  0  0  0  0  0  0  0  0
    0.9139   -2.3375    0.0697 C   0  0  0  0  0  0  0  0  0  0  0  0
    1.3839   -2.2239    1.0463 H   0  0  0  0  0  0  0  0  0  0  0  0
    0.0158   -2.9444    0.1839 H   0  0  0  0  0  0  0  0  0  0  0  0
    1.8883   -3.0871   -0.8388 C   0  0  0  0  0  0  0  0  0  0  0  0
    2.2519   -2.6669   -1.9213 O   0  0  0  0  0  0  0  0  0  0  0  0
    2.3652   -4.2420   -0.4277 N   0  0  0  0  0  0  0  0  0  0  0  0
    3.0016   -4.6905   -1.0636 H   0  0  0  0  0  0  0  0  0  0  0  0
    2.1014   -4.6317    0.4545 H   0  0  0  0  0  0  0  0  0  0  0  0
   -0.6752    1.2631   -0.0287 C   0  0  0  0  0  0  0  0  0  0  0  0
   -0.1438    2.1756    0.6014 O   0  0  0  0  0  0  0  0  0  0  0  0
   -1.4413    1.4839   -1.1046 N   0  0  0  0  0  0  0  0  0  0  0  0
   -1.8230    0.6845   -1.5847 H   0  0  0  0  0  0  0  0  0  0  0  0
   -1.7293    2.8130   -1.6422 C   0  0  0  0  0  0  0  0  0  0  0  0
   -0.7929    3.3264   -1.8739 H   0  0  0  0  0  0  0  0  0  0  0  0
   -2.3296    2.7346   -2.5500 H   0  0  0  0  0  0  0  0  0  0  0  0
   -2.2707    3.4016   -0.8997 H   0  0  0  0  0  0  0  0  0  0  0  0
  5  6  2  0  0  0  0
  5  7  1  0  0  0  0
  2  3  1  0  0  0  0
  2  4  1  0  0  0  0
  2  5  1  0  0  0  0
  1  2  1  0  0  0  0
 22 23  2  0  0  0  0
 22 24  1  0  0  0  0
 19 20  1  0  0  0  0
 19 21  1  0  0  0  0
 17 18  2  0  0  0  0
 17 19  1  0  0  0  0
 14 15  1  0  0  0  0
 14 16  1  0  0  0  0
 14 17  1  0  0  0  0
 11 12  1  0  0  0  0
 11 13  1  0  0  0  0
 11 14  1  0  0  0  0
  9 10  1  0  0  0  0
  9 11  1  0  0  0  0
  9 22  1  0  0  0  0
  7  8  1  0  0  0  0
  7  9  1  0  0  0  0
 26 27  1  0  0  0  0
 26 28  1  0  0  0  0
 26 29  1  0  0  0  0
 24 25  1  0  0  0  0
 24 26  1  0  0  0  0
M  END
$$$$
default_name
  -OEChem-01062215323D

 29 28  0     1  0  0  0  0  0999 V2000
   -3.3998   -3.6239    1.3678 H   0  0  0  0  0  0  0  0  0  0  0  0
   -3.3608   -2.6749    0.8348 C   0  0  0  0  0  0  0  0  0  0  0  0
   -4.0988   -1.9909    1.2498 H   0  0  0  0  0  0  0  0  0  0  0  0
   -3.5618   -2.8419   -0.2222 H   0  0  0  0  0  0  0  0  0  0  0  0
   -1.9818   -2.0809    0.9918 C   0  0  0  0  0  0  0  0  0  0  0  0
   -1.1288   -2.6669    1.6468 O   0  0  0  0  0  0  0  0  0  0  0  0
   -1.7648   -0.9089    0.3998 N   0  0  0  0  0  0  0  0  0  0  0  0
   -2.5238   -0.4719   -0.1032 H   0  0  0  0  0  0  0  0  0  0  0  0
   -0.4848   -0.1959    0.4138 C   0  0  1  0  0  0  0  0  0  0  0  0
   -0.0988   -0.1927    1.4345 H   0  0  0  0  0  0  0  0  0  0  0  0
    0.5165   -0.9557   -0.4781 C   0  0  0  0  0  0  0  0  0  0  0  0
    0.0641   -1.0928   -1.4625 H   0  0  0  0  0  0  0  0  0  0  0  0
    1.4170   -0.3514   -0.5977 H   0  0  0  0  0  0  0  0  0  0  0  0
    0.9139   -2.3375    0.0697 C   0  0  0  0  0  0  0  0  0  0  0  0
    1.3839   -2.2239    1.0463 H   0  0  0  0  0  0  0  0  0  0  0  0
    0.0158   -2.9444    0.1839 H   0  0  0  0  0  0  0  0  0  0  0  0
    1.8883   -3.0871   -0.8388 C   0  0  0  0  0  0  0  0  0  0  0  0
    2.2519   -2.6669   -1.9213 O   0  0  0  0  0  0  0  0  0  0  0  0
    2.3652   -4.2420   -0.4277 N   0  0  0  0  0  0  0  0  0  0  0  0
    3.0016   -4.6905   -1.0636 H   0  0  0  0  0  0  0  0  0  0  0  0
    2.1014   -4.6317    0.4545 H   0  0  0  0  0  0  0  0  0  0  0  0
   -0.6752    1.2631   -0.0287 C   0  0  0  0  0  0  0  0  0  0  0  0
    0.0583    2.1452    0.4140 O   0  0  0  0  0  0  0  0  0  0  0  0
   -1.6658    1.5189   -0.8928 N   0  0  0  0  0  0  0  0  0  0  0  0
   -2.2096    0.7412   -1.2314 H   0  0  0  0  0  0  0  0  0  0  0  0
   -1.9832    2.8538   -1.3982 C   0  0  0  0  0  0  0  0  0  0  0  0
   -1.0992    3.2867   -1.8729 H   0  0  0  0  0  0  0  0  0  0  0  0
   -2.7930    2.8022   -2.1275 H   0  0  0  0  0  0  0  0  0  0  0  0
   -2.2815    3.4999   -0.5708 H   0  0  0  0  0  0  0  0  0  0  0  0
  5  6  2  0  0  0  0
  5  7  1  0  0  0  0
  2  3  1  0  0  0  0
  2  4  1  0  0  0  0
  2  5  1  0  0  0  0
  1  2  1  0  0  0  0
 22 23  2  0  0  0  0
 22 24  1  0  0  0  0
 19 20  1  0  0  0  0
 19 21  1  0  0  0  0
 17 18  2  0  0  0  0
 17 19  1  0  0  0  0
 14 15  1  0  0  0  0
 14 16  1  0  0  0  0
 14 17  1  0  0  0  0
 11 12  1  0  0  0  0
 11 13  1  0  0  0  0
 11 14  1  0  0  0  0
  9 10  1  0  0  0  0
  9 11  1  0  0  0  0
  9 22  1  0  0  0  0
  7  8  1  0  0  0  0
  7  9  1  0  0  0  0
 26 27  1  0  0  0  0
 26 28  1  0  0  0  0
 26 29  1  0  0  0  0
 24 25  1  0  0  0  0
 24 26  1  0  0  0  0
M  END
$$$$
default_name
  -OEChem-01062215323D

 29 28  0     1  0  0  0  0  0999 V2000
   -3.3998   -3.6239    1.3678 H   0  0  0  0  0  0  0  0  0  0  0  0
   -3.3608   -2.6749    0.8348 C   0  0  0  0  0  0  0  0  0  0  0  0
   -4.0988   -1.9909    1.2498 H   0  0  0  0  0  0  0  0  0  0  0  0
   -3.5618   -2.8419   -0.2222 H   0  0  0  0  0  0  0  0  0  0  0  0
   -1.9818   -2.0809    0.9918 C   0  0  0  0  0  0  0  0  0  0  0  0
   -1.1288   -2.6669    1.6468 O   0  0  0  0  0  0  0  0  0  0  0  0
   -1.7648   -0.9089    0.3998 N   0  0  0  0  0  0  0  0  0  0  0  0
   -2.5238   -0.4719   -0.1032 H   0  0  0  0  0  0  0  0  0  0  0  0
   -0.4848   -0.1959    0.4138 C   0  0  1  0  0  0  0  0  0  0  0  0
   -0.0988   -0.1927    1.4345 H   0  0  0  0  0  0  0  0  0  0  0  0
    0.5165   -0.9557   -0.4781 C   0  0  0  0  0  0  0  0  0  0  0  0
    0.0641   -1.0928   -1.4625 H   0  0  0  0  0  0  0  0  0  0  0  0
    1.4170   -0.3514   -0.5977 H   0  0  0  0  0  0  0  0  0  0  0  0
    0.9139   -2.3375    0.0697 C   0  0  0  0  0  0  0  0  0  0  0  0
    1.3839   -2.2239    1.0463 H   0  0  0  0  0  0  0  0  0  0  0  0
    0.0158   -2.9444    0.1839 H   0  0  0  0  0  0  0  0  0  0  0  0
    1.8883   -3.0871   -0.8388 C   0  0  0  0  0  0  0  0  0  0  0  0
    2.2519   -2.6669   -1.9213 O   0  0  0  0  0  0  0  0  0  0  0  0
    2.3652   -4.2420   -0.4277 N   0  0  0  0  0  0  0  0  0  0  0  0
    3.0016   -4.6905   -1.0636 H   0  0  0  0  0  0  0  0  0  0  0  0
    2.1014   -4.6317    0.4545 H   0  0  0  0  0  0  0  0  0  0  0  0
   -0.6752    1.2631   -0.0287 C   0  0  0  0  0  0  0  0  0  0  0  0
    0.2053    2.0947    0.1843 O   0  0  0  0  0  0  0  0  0  0  0  0
   -1.8280    1.5761   -0.6341 N   0  0  0  0  0  0  0  0  0  0  0  0
   -2.4920    0.8361   -0.7970 H   0  0  0  0  0  0  0  0  0  0  0  0
   -2.1654    2.9201   -1.1013 C   0  0  0  0  0  0  0  0  0  0  0  0
   -1.3978    3.2713   -1.7953 H   0  0  0  0  0  0  0  0  0  0  0  0
   -3.1318    2.9156   -1.6076 H   0  0  0  0  0  0  0  0  0  0  0  0
   -2.2038    3.6062   -0.2536 H   0  0  0  0  0  0  0  0  0  0  0  0
  5  6  2  0  0  0  0
  5  7  1  0  0  0  0
  2  3  1  0  0  0  0
  2  4  1  0  0  0  0
  2  5  1  0  0  0  0
  1  2  1  0  0  0  0
 22 23  2  0  0  0  0
 22 24  1  0  0  0  0
 19 20  1  0  0  0  0
 19 21  1  0  0  0  0
 17 18  2  0  0  0  0
 17 19  1  0  0  0  0
 14 15  1  0  0  0  0
 14 16  1  0  0  0  0
 14 17  1  0  0  0  0
 11 12  1  0  0  0  0
 11 13  1  0  0  0  0
 11 14  1  0  0  0  0
  9 10  1  0  0  0  0
  9 11  1  0  0  0  0
  9 22  1  0  0  0  0
  7  8  1  0  0  0  0
  7  9  1  0  0  0  0
 26 27  1  0  0  0  0
 26 28  1  0  0  0  0
 26 29  1  0  0  0  0
 24 25  1  0  0  0  0
 24 26  1  0  0  0  0
M  END
$$$$
default_name
  -OEChem-01062215323D

 29 28  0     1  0  0  0  0  0999 V2000
   -3.3998   -3.6239    1.3678 H   0  0  0  0  0  0  0  0  0  0  0  0
   -3.3608   -2.6749    0.8348 C   0  0  0  0  0  0  0  0  0  0  0  0
   -4.0988   -1.9909    1.2498 H   0  0  0  0  0  0  0  0  0  0  0  0
   -3.5618   -2.8419   -0.2222 H   0  0  0  0  0  0  0  0  0  0  0  0
   -1.9818   -2.0809    0.9918 C   0  0  0  0  0  0  0  0  0  0  0  0
   -1.1288   -2.6669    1.6468 O   0  0  0  0  0  0  0  0  0  0  0  0
   -1.7648   -0.9089    0.3998 N   0  0  0  0  0  0  0  0  0  0  0  0
   -2.5238   -0.4719   -0.1032 H   0  0  0  0  0  0  0  0  0  0  0  0
   -0.4848   -0.1959    0.4138 C   0  0  1  0  0  0  0  0  0  0  0  0
   -0.0988   -0.1927    1.4345 H   0  0  0  0  0  0  0  0  0  0  0  0
    0.5165   -0.9557   -0.4781 C   0  0  0  0  0  0  0  0  0  0  0  0
    0.0641   -1.0928   -1.4625 H   0  0  0  0  0  0  0  0  0  0  0  0
    1.4170   -0.3514   -0.5977 H   0  0  0  0  0  0  0  0  0  0  0  0
    0.9139   -2.3375    0.0697 C   0  0  0  0  0  0  0  0  0  0  0  0
    1.3839   -2.2239    1.0463 H   0  0  0  0  0  0  0  0  0  0  0  0
    0.0158   -2.9444    0.1839 H   0  0  0  0  0  0  0  0  0  0  0  0
    1.8883   -3.0871   -0.8388 C   0  0  0  0  0  0  0  0  0  0  0  0
    2.2519   -2.6669   -1.9213 O   0  0  0  0  0  0  0  0  0  0  0  0
    2.3652   -4.2420   -0.4277 N   0  0  0  0  0  0  0  0  0  0  0  0
    3.0016   -4.6905   -1.0636 H   0  0  0  0  0  0  0  0  0  0  0  0
    2.1014   -4.6317    0.4545 H   0  0  0  0  0  0  0  0  0  0  0  0
   -0.6752    1.2631   -0.0287 C   0  0  0  0  0  0  0  0  0  0  0  0
    0.2870    2.0276   -0.0721 O   0  0  0  0  0  0  0  0  0  0  0  0
   -1.9168    1.6518   -0.3462 N   0  0  0  0  0  0  0  0  0  0  0  0
   -2.6509    0.9627   -0.3110 H   0  0  0  0  0  0  0  0  0  0  0  0
   -2.2635    3.0072   -0.7719 C   0  0  0  0  0  0  0  0  0  0  0  0
   -1.6683    3.2811   -1.6465 H   0  0  0  0  0  0  0  0  0  0  0  0
   -3.3229    3.0671   -1.0259 H   0  0  0  0  0  0  0  0  0  0  0  0
   -2.0428    3.7133    0.0303 H   0  0  0  0  0  0  0  0  0  0  0  0
  5  6  2  0  0  0  0
  5  7  1  0  0  0  0
  2  3  1  0  0  0  0
  2  4  1  0  0  0  0
  2  5  1  0  0  0  0
  1  2  1  0  0  0  0
 22 23  2  0  0  0  0
 22 24  1  0  0  0  0
 19 20  1  0  0  0  0
 19 21  1  0  0  0  0
 17 18  2  0  0  0  0
 17 19  1  0  0  0  0
 14 15  1  0  0  0  0
 14 16  1  0  0  0  0
 14 17  1  0  0  0  0
 11 12  1  0  0  0  0
 11 13  1  0  0  0  0
 11 14  1  0  0  0  0
  9 10  1  0  0  0  0
  9 11  1  0  0  0  0
  9 22  1  0  0  0  0
  7  8  1  0  0  0  0
  7  9  1  0  0  0  0
 26 27  1  0  0  0  0
 26 28  1  0  0  0  0
 26 29  1  0  0  0  0
 24 25  1  0  0  0  0
 24 26  1  0  0  0  0
M  END
$$$$
default_name
  -OEChem-01062215323D

 29 28  0     1  0  0  0  0  0999 V2000
   -3.3998   -3.6239    1.3678 H   0  0  0  0  0  0  0  0  0  0  0  0
   -3.3608   -2.6749    0.8348 C   0  0  0  0  0  0  0  0  0  0  0  0
   -4.0988   -1.9909    1.2498 H   0  0  0  0  0  0  0  0  0  0  0  0
   -3.5618   -2.8419   -0.2222 H   0  0  0  0  0  0  0  0  0  0  0  0
   -1.9818   -2.0809    0.9918 C   0  0  0  0  0  0  0  0  0  0  0  0
   -1.1288   -2.6669    1.6468 O   0  0  0  0  0  0  0  0  0  0  0  0
   -1.7648   -0.9089    0.3998 N   0  0  0  0  0  0  0  0  0  0  0  0
   -2.5238   -0.4719   -0.1032 H   0  0  0  0  0  0  0  0  0  0  0  0
   -0.4848   -0.1959    0.4138 C   0  0  1  0  0  0  0  0  0  0  0  0
   -0.0988   -0.1927    1.4345 H   0  0  0  0  0  0  0  0  0  0  0  0
    0.5165   -0.9557   -0.4781 C   0  0  0  0  0  0  0  0  0  0  0  0
    0.0641   -1.0928   -1.4625 H   0  0  0  0  0  0  0  0  0  0  0  0
    1.4170   -0.3514   -0.5977 H   0  0  0  0  0  0  0  0  0  0  0  0
    0.9139   -2.3375    0.0697 C   0  0  0  0  0  0  0  0  0  0  0  0
    1.3839   -2.2239    1.0463 H   0  0  0  0  0  0  0  0  0  0  0  0
    0.0158   -2.9444    0.1839 H   0  0  0  0  0  0  0  0  0  0  0  0
    1.8883   -3.0871   -0.8388 C   0  0  0  0  0  0  0  0  0  0  0  0
    2.2519   -2.6669   -1.9213 O   0  0  0  0  0  0  0  0  0  0  0  0
    2.3652   -4.2420   -0.4277 N   0  0  0  0  0  0  0  0  0  0  0  0
    3.0016   -4.6905   -1.0636 H   0  0  0  0  0  0  0  0  0  0  0  0
    2.1014   -4.6317    0.4545 H   0  0  0  0  0  0  0  0  0  0  0  0
   -0.6752    1.2631   -0.0287 C   0  0  0  0  0  0  0  0  0  0  0  0
    0.2979    1.9485   -0.3377 O   0  0  0  0  0  0  0  0  0  0  0  0
   -1.9261    1.7408   -0.0487 N   0  0  0  0  0  0  0  0  0  0  0  0
   -2.6755    1.1125    0.1935 H   0  0  0  0  0  0  0  0  0  0  0  0
   -2.2708    3.1091   -0.4325 C   0  0  0  0  0  0  0  0  0  0  0  0
   -1.8922    3.3155   -1.4366 H   0  0  0  0  0  0  0  0  0  0  0  0
   -3.3531    3.2463   -0.4219 H   0  0  0  0  0  0  0  0  0  0  0  0
   -1.8096    3.8139    0.2615 H   0  0  0  0  0  0  0  0  0  0  0  0
  5  6  2  0  0  0  0
  5  7  1  0  0  0  0
  2  3  1  0  0  0  0
  2  4  1  0  0  0  0
  2  5  1  0  0  0  0
  1  2  1  0  0  0  0
 22 23  2  0  0  0  0
 22 24  1  0  0  0  0
 19 20  1  0  0  0  0
 19 21  1  0  0  0  0
 17 18  2  0  0  0  0
 17 19  1  0  0  0  0
 14 15  1  0  0  0  0
 14 16  1  0  0  0  0
 14 17  1  0  0  0  0
 11 12  1  0  0  0  0
 11 13  1  0  0  0  0
 11 14  1  0  0  0  0
  9 10  1  0  0  0  0
  9 11  1  0  0  0  0
  9 22  1  0  0  0  0
  7  8  1  0  0  0  0
  7  9  1  0  0  0  0
 26 27  1  0  0  0  0
 26 28  1  0  0  0  0
 26 29  1  0  0  0  0
 24 25  1  0  0  0  0
 24 26  1  0  0  0  0
M  END
$$$$
default_name
  -OEChem-01062215323D

 29 28  0     1  0  0  0  0  0999 V2000
   -3.3998   -3.6239    1.3678 H   0  0  0  0  0  0  0  0  0  0  0  0
   -3.3608   -2.6749    0.8348 C   0  0  0  0  0  0  0  0  0  0  0  0
   -4.0988   -1.9909    1.2498 H   0  0  0  0  0  0  0  0  0  0  0  0
   -3.5618   -2.8419   -0.2222 H   0  0  0  0  0  0  0  0  0  0  0  0
   -1.9818   -2.0809    0.9918 C   0  0  0  0  0  0  0  0  0  0  0  0
   -1.1288   -2.6669    1.6468 O   0  0  0  0  0  0  0  0  0  0  0  0
   -1.7648   -0.9089    0.3998 N   0  0  0  0  0  0  0  0  0  0  0  0
   -2.5238   -0.4719   -0.1032 H   0  0  0  0  0  0  0  0  0  0  0  0
   -0.4848   -0.1959    0.4138 C   0  0  1  0  0  0  0  0  0  0  0  0
   -0.0988   -0.1927    1.4345 H   0  0  0  0  0  0  0  0  0  0  0  0
    0.5165   -0.9557   -0.4781 C   0  0  0  0  0  0  0  0  0  0  0  0
    0.0641   -1.0928   -1.4625 H   0  0  0  0  0  0  0  0  0  0  0  0
    1.4170   -0.3514   -0.5977 H   0  0  0  0  0  0  0  0  0  0  0  0
    0.9139   -2.3375    0.0697 C   0  0  0  0  0  0  0  0  0  0  0  0
    1.3839   -2.2239    1.0463 H   0  0  0  0  0  0  0  0  0  0  0  0
    0.0158   -2.9444    0.1839 H   0  0  0  0  0  0  0  0  0  0  0  0
    1.8883   -3.0871   -0.8388 C   0  0  0  0  0  0  0  0  0  0  0  0
    2.2519   -2.6669   -1.9213 O   0  0  0  0  0  0  0  0  0  0  0  0
    2.3652   -4.2420   -0.4277 N   0  0  0  0  0  0  0  0  0  0  0  0
    3.0016   -4.6905   -1.0636 H   0  0  0  0  0  0  0  0  0  0  0  0
    2.1014   -4.6317    0.4545 H   0  0  0  0  0  0  0  0  0  0  0  0
   -0.6752    1.2631   -0.0287 C   0  0  0  0  0  0  0  0  0  0  0  0
    0.2372    1.8628   -0.5943 O   0  0  0  0  0  0  0  0  0  0  0  0
   -1.8554    1.8370    0.2381 N   0  0  0  0  0  0  0  0  0  0  0  0
   -2.5642    1.2751    0.6820 H   0  0  0  0  0  0  0  0  0  0  0  0
   -2.1868    3.2191   -0.1060 C   0  0  0  0  0  0  0  0  0  0  0  0
   -2.0544    3.3722   -1.1799 H   0  0  0  0  0  0  0  0  0  0  0  0
   -3.2206    3.4410    0.1632 H   0  0  0  0  0  0  0  0  0  0  0  0
   -1.5200    3.9010    0.4243 H   0  0  0  0  0  0  0  0  0  0  0  0
  5  6  2  0  0  0  0
  5  7  1  0  0  0  0
  2  3  1  0  0  0  0
  2  4  1  0  0  0  0
  2  5  1  0  0  0  0
  1  2  1  0  0  0  0
 22 23  2  0  0  0  0
 22 24  1  0  0  0  0
 19 20  1  0  0  0  0
 19 21  1  0  0  0  0
 17 18  2  0  0  0  0
 17 19  1  0  0  0  0
 14 15  1  0  0  0  0
 14 16  1  0  0  0  0
 14 17  1  0  0  0  0
 11 12  1  0  0  0  0
 11 13  1  0  0  0  0
 11 14  1  0  0  0  0
  9 10  1  0  0  0  0
  9 11  1  0  0  0  0
  9 22  1  0  0  0  0
  7  8  1  0  0  0  0
  7  9  1  0  0  0  0
 26 27  1  0  0  0  0
 26 28  1  0  0  0  0
 26 29  1  0  0  0  0
 24 25  1  0  0  0  0
 24 26  1  0  0  0  0
M  END
$$$$
default_name
  -OEChem-01062215323D

 29 28  0     1  0  0  0  0  0999 V2000
   -3.3998   -3.6239    1.3678 H   0  0  0  0  0  0  0  0  0  0  0  0
   -3.3608   -2.6749    0.8348 C   0  0  0  0  0  0  0  0  0  0  0  0
   -4.0988   -1.9909    1.2498 H   0  0  0  0  0  0  0  0  0  0  0  0
   -3.5618   -2.8419   -0.2222 H   0  0  0  0  0  0  0  0  0  0  0  0
   -1.9818   -2.0809    0.9918 C   0  0  0  0  0  0  0  0  0  0  0  0
   -1.1288   -2.6669    1.6468 O   0  0  0  0  0  0  0  0  0  0  0  0
   -1.7648   -0.9089    0.3998 N   0  0  0  0  0  0  0  0  0  0  0  0
   -2.5238   -0.4719   -0.1032 H   0  0  0  0  0  0  0  0  0  0  0  0
   -0.4848   -0.1959    0.4138 C   0  0  1  0  0  0  0  0  0  0  0  0
   -0.0988   -0.1927    1.4345 H   0  0  0  0  0  0  0  0  0  0  0  0
    0.5165   -0.9557   -0.4781 C   0  0  0  0  0  0  0  0  0  0  0  0
    0.0641   -1.0928   -1.4625 H   0  0  0  0  0  0  0  0  0  0  0  0
    1.4170   -0.3514   -0.5977 H   0  0  0  0  0  0  0  0  0  0  0  0
    0.9139   -2.3375    0.0697 C   0  0  0  0  0  0  0  0  0  0  0  0
    1.3839   -2.2239    1.0463 H   0  0  0  0  0  0  0  0  0  0  0  0
    0.0158   -2.9444    0.1839 H   0  0  0  0  0  0  0  0  0  0  0  0
    1.8883   -3.0871   -0.8388 C   0  0  0  0  0  0  0  0  0  0  0  0
    2.2519   -2.6669   -1.9213 O   0  0  0  0  0  0  0  0  0  0  0  0
    2.3652   -4.2420   -0.4277 N   0  0  0  0  0  0  0  0  0  0  0  0
    3.0016   -4.6905   -1.0636 H   0  0  0  0  0  0  0  0  0  0  0  0
    2.1014   -4.6317    0.4545 H   0  0  0  0  0  0  0  0  0  0  0  0
   -0.6752    1.2631   -0.0287 C   0  0  0  0  0  0  0  0  0  0  0  0
    0.1092    1.7762   -0.8246 O   0  0  0  0  0  0  0  0  0  0  0  0
   -1.7095    1.9339    0.4946 N   0  0  0  0  0  0  0  0  0  0  0  0
   -2.3245    1.4396    1.1212 H   0  0  0  0  0  0  0  0  0  0  0  0
   -2.0173    3.3295    0.1851 C   0  0  0  0  0  0  0  0  0  0  0  0
   -2.1437    3.4472   -0.8939 H   0  0  0  0  0  0  0  0  0  0  0  0
   -2.9342    3.6380    0.6896 H   0  0  0  0  0  0  0  0  0  0  0  0
   -1.1937    3.9689    0.5075 H   0  0  0  0  0  0  0  0  0  0  0  0
  5  6  2  0  0  0  0
  5  7  1  0  0  0  0
  2  3  1  0  0  0  0
  2  4  1  0  0  0  0
  2  5  1  0  0  0  0
  1  2  1  0  0  0  0
 22 23  2  0  0  0  0
 22 24  1  0  0  0  0
 19 20  1  0  0  0  0
 19 21  1  0  0  0  0
 17 18  2  0  0  0  0
 17 19  1  0  0  0  0
 14 15  1  0  0  0  0
 14 16  1  0  0  0  0
 14 17  1  0  0  0  0
 11 12  1  0  0  0  0
 11 13  1  0  0  0  0
 11 14  1  0  0  0  0
  9 10  1  0  0  0  0
  9 11  1  0  0  0  0
  9 22  1  0  0  0  0
  7  8  1  0  0  0  0
  7  9  1  0  0  0  0
 26 27  1  0  0  0  0
 26 28  1  0  0  0  0
 26 29  1  0  0  0  0
 24 25  1  0  0  0  0
 24 26  1  0  0  0  0
M  END
$$$$
default_name
  -OEChem-01062215323D

 29 28  0     1  0  0  0  0  0999 V2000
   -3.3998   -3.6239    1.3678 H   0  0  0  0  0  0  0  0  0  0  0  0
   -3.3608   -2.6749    0.8348 C   0  0  0  0  0  0  0  0  0  0  0  0
   -4.0988   -1.9909    1.2498 H   0  0  0  0  0  0  0  0  0  0  0  0
   -3.5618   -2.8419   -0.2222 H   0  0  0  0  0  0  0  0  0  0  0  0
   -1.9818   -2.0809    0.9918 C   0  0  0  0  0  0  0  0  0  0  0  0
   -1.1288   -2.6669    1.6468 O   0  0  0  0  0  0  0  0  0  0  0  0
   -1.7648   -0.9089    0.3998 N   0  0  0  0  0  0  0  0  0  0  0  0
   -2.5238   -0.4719   -0.1032 H   0  0  0  0  0  0  0  0  0  0  0  0
   -0.4848   -0.1959    0.4138 C   0  0  1  0  0  0  0  0  0  0  0  0
   -0.0988   -0.1927    1.4345 H   0  0  0  0  0  0  0  0  0  0  0  0
    0.5165   -0.9557   -0.4781 C   0  0  0  0  0  0  0  0  0  0  0  0
    0.0641   -1.0928   -1.4625 H   0  0  0  0  0  0  0  0  0  0  0  0
    1.4170   -0.3514   -0.5977 H   0  0  0  0  0  0  0  0  0  0  0  0
    0.9139   -2.3375    0.0697 C   0  0  0  0  0  0  0  0  0  0  0  0
    1.3839   -2.2239    1.0463 H   0  0  0  0  0  0  0  0  0  0  0  0
    0.0158   -2.9444    0.1839 H   0  0  0  0  0  0  0  0  0  0  0  0
    1.8883   -3.0871   -0.8388 C   0  0  0  0  0  0  0  0  0  0  0  0
    2.2519   -2.6669   -1.9213 O   0  0  0  0  0  0  0  0  0  0  0  0
    2.3652   -4.2420   -0.4277 N   0  0  0  0  0  0  0  0  0  0  0  0
    3.0016   -4.6905   -1.0636 H   0  0  0  0  0  0  0  0  0  0  0  0
    2.1014   -4.6317    0.4545 H   0  0  0  0  0  0  0  0  0  0  0  0
   -0.6752    1.2631   -0.0287 C   0  0  0  0  0  0  0  0  0  0  0  0
   -0.0775    1.6948   -1.0128 O   0  0  0  0  0  0  0  0  0  0  0  0
   -1.4982    2.0248    0.7034 N   0  0  0  0  0  0  0  0  0  0  0  0
   -1.9727    1.5947    1.4813 H   0  0  0  0  0  0  0  0  0  0  0  0
   -1.7737    3.4329    0.4211 C   0  0  0  0  0  0  0  0  0  0  0  0
   -2.1542    3.5356   -0.5981 H   0  0  0  0  0  0  0  0  0  0  0  0
   -2.5135    3.8238    1.1213 H   0  0  0  0  0  0  0  0  0  0  0  0
   -0.8531    4.0127    0.5056 H   0  0  0  0  0  0  0  0  0  0  0  0
  5  6  2  0  0  0  0
  5  7  1  0  0  0  0
  2  3  1  0  0  0  0
  2  4  1  0  0  0  0
  2  5  1  0  0  0  0
  1  2  1  0  0  0  0
 22 23  2  0  0  0  0
 22 24  1  0  0  0  0
 19 20  1  0  0  0  0
 19 21  1  0  0  0  0
 17 18  2  0  0  0  0
 17 19  1  0  0  0  0
 14 15  1  0  0  0  0
 14 16  1  0  0  0  0
 14 17  1  0  0  0  0
 11 12  1  0  0  0  0
 11 13  1  0  0  0  0
 11 14  1  0  0  0  0
  9 10  1  0  0  0  0
  9 11  1  0  0  0  0
  9 22  1  0  0  0  0
  7  8  1  0  0  0  0
  7  9  1  0  0  0  0
 26 27  1  0  0  0  0
 26 28  1  0  0  0  0
 26 29  1  0  0  0  0
 24 25  1  0  0  0  0
 24 26  1  0  0  0  0
M  END
$$$$
default_name
  -OEChem-01062215323D

 29 28  0     1  0  0  0  0  0999 V2000
   -3.3998   -3.6239    1.3678 H   0  0  0  0  0  0  0  0  0  0  0  0
   -3.3608   -2.6749    0.8348 C   0  0  0  0  0  0  0  0  0  0  0  0
   -4.0988   -1.9909    1.2498 H   0  0  0  0  0  0  0  0  0  0  0  0
   -3.5618   -2.8419   -0.2222 H   0  0  0  0  0  0  0  0  0  0  0  0
   -1.9818   -2.0809    0.9918 C   0  0  0  0  0  0  0  0  0  0  0  0
   -1.1288   -2.6669    1.6468 O   0  0  0  0  0  0  0  0  0  0  0  0
   -1.7648   -0.9089    0.3998 N   0  0  0  0  0  0  0  0  0  0  0  0
   -2.5238   -0.4719   -0.1032 H   0  0  0  0  0  0  0  0  0  0  0  0
   -0.4848   -0.1959    0.4138 C   0  0  1  0  0  0  0  0  0  0  0  0
   -0.0988   -0.1927    1.4345 H   0  0  0  0  0  0  0  0  0  0  0  0
    0.5165   -0.9557   -0.4781 C   0  0  0  0  0  0  0  0  0  0  0  0
    0.0641   -1.0928   -1.4625 H   0  0  0  0  0  0  0  0  0  0  0  0
    1.4170   -0.3514   -0.5977 H   0  0  0  0  0  0  0  0  0  0  0  0
    0.9139   -2.3375    0.0697 C   0  0  0  0  0  0  0  0  0  0  0  0
    1.3839   -2.2239    1.0463 H   0  0  0  0  0  0  0  0  0  0  0  0
    0.0158   -2.9444    0.1839 H   0  0  0  0  0  0  0  0  0  0  0  0
    1.8883   -3.0871   -0.8388 C   0  0  0  0  0  0  0  0  0  0  0  0
    2.2519   -2.6669   -1.9213 O   0  0  0  0  0  0  0  0  0  0  0  0
    2.3652   -4.2420   -0.4277 N   0  0  0  0  0  0  0  0  0  0  0  0
    3.0016   -4.6905   -1.0636 H   0  0  0  0  0  0  0  0  0  0  0  0
    2.1014   -4.6317    0.4545 H   0  0  0  0  0  0  0  0  0  0  0  0
   -0.6752    1.2631   -0.0287 C   0  0  0  0  0  0  0  0  0  0  0  0
   -0.3102    1.6240   -1.1461 O   0  0  0  0  0  0  0  0  0  0  0  0
   -1.2361    2.1035    0.8503 N   0  0  0  0  0  0  0  0  0  0  0  0
   -1.5328    1.7299    1.7377 H   0  0  0  0  0  0  0  0  0  0  0  0
   -1.4728    3.5221    0.5859 C   0  0  0  0  0  0  0  0  0  0  0  0
   -2.0850    3.6312   -0.3127 H   0  0  0  0  0  0  0  0  0  0  0  0
   -1.9873    3.9858    1.4289 H   0  0  0  0  0  0  0  0  0  0  0  0
   -0.5213    4.0296    0.4186 H   0  0  0  0  0  0  0  0  0  0  0  0
  5  6  2  0  0  0  0
  5  7  1  0  0  0  0
  2  3  1  0  0  0  0
  2  4  1  0  0  0  0
  2  5  1  0  0  0  0
  1  2  1  0  0  0  0
 22 23  2  0  0  0  0
 22 24  1  0  0  0  0
 19 20  1  0  0  0  0
 19 21  1  0  0  0  0
 17 18  2  0  0  0  0
 17 19  1  0  0  0  0
 14 15  1  0  0  0  0
 14 16  1  0  0  0  0
 14 17  1  0  0  0  0
 11 12  1  0  0  0  0
 11 13  1  0  0  0  0
 11 14  1  0  0  0  0
  9 10  1  0  0  0  0
  9 11  1  0  0  0  0
  9 22  1  0  0  0  0
  7  8  1  0  0  0  0
  7  9  1  0  0  0  0
 26 27  1  0  0  0  0
 26 28  1  0  0  0  0
 26 29  1  0  0  0  0
 24 25  1  0  0  0  0
 24 26  1  0  0  0  0
M  END
$$$$
default_name
  -OEChem-01062215323D

 29 28  0     1  0  0  0  0  0999 V2000
   -3.3998   -3.6239    1.3678 H   0  0  0  0  0  0  0  0  0  0  0  0
   -3.3608   -2.6749    0.8348 C   0  0  0  0  0  0  0  0  0  0  0  0
   -4.0988   -1.9909    1.2498 H   0  0  0  0  0  0  0  0  0  0  0  0
   -3.5618   -2.8419   -0.2222 H   0  0  0  0  0  0  0  0  0  0  0  0
   -1.9818   -2.0809    0.9918 C   0  0  0  0  0  0  0  0  0  0  0  0
   -1.1288   -2.6669    1.6468 O   0  0  0  0  0  0  0  0  0  0  0  0
   -1.7648   -0.9089    0.3998 N   0  0  0  0  0  0  0  0  0  0  0  0
   -2.5238   -0.4719   -0.1032 H   0  0  0  0  0  0  0  0  0  0  0  0
   -0.4848   -0.1959    0.4138 C   0  0  1  0  0  0  0  0  0  0  0  0
   -0.0988   -0.1927    1.4345 H   0  0  0  0  0  0  0  0  0  0  0  0
    0.5165   -0.9557   -0.4781 C   0  0  0  0  0  0  0  0  0  0  0  0
    0.0641   -1.0928   -1.4625 H   0  0  0  0  0  0  0  0  0  0  0  0
    1.4170   -0.3514   -0.5977 H   0  0  0  0  0  0  0  0  0  0  0  0
    0.9139   -2.3375    0.0697 C   0  0  0  0  0  0  0  0  0  0  0  0
    1.3839   -2.2239    1.0463 H   0  0  0  0  0  0  0  0  0  0  0  0
    0.0158   -2.9444    0.1839 H   0  0  0  0  0  0  0  0  0  0  0  0
    1.8883   -3.0871   -0.8388 C   0  0  0  0  0  0  0  0  0  0  0  0
    2.2519   -2.6669   -1.9213 O   0  0  0  0  0  0  0  0  0  0  0  0
    2.3652   -4.2420   -0.4277 N   0  0  0  0  0  0  0  0  0  0  0  0
    3.0016   -4.6905   -1.0636 H   0  0  0  0  0  0  0  0  0  0  0  0
    2.1014   -4.6317    0.4545 H   0  0  0  0  0  0  0  0  0  0  0  0
   -0.6752    1.2631   -0.0287 C   0  0  0  0  0  0  0  0  0  0  0  0
   -0.5730    1.5687   -1.2153 O   0  0  0  0  0  0  0  0  0  0  0  0
   -0.9409    2.1648    0.9253 N   0  0  0  0  0  0  0  0  0  0  0  0
   -1.0348    1.8359    1.8730 H   0  0  0  0  0  0  0  0  0  0  0  0
   -1.1349    3.5912    0.6683 C   0  0  0  0  0  0  0  0  0  0  0  0
   -1.9408    3.7275   -0.0571 H   0  0  0  0  0  0  0  0  0  0  0  0
   -1.3912    4.1129    1.5916 H   0  0  0  0  0  0  0  0  0  0  0  0
   -0.2209    4.0185    0.2525 H   0  0  0  0  0  0  0  0  0  0  0  0
  5  6  2  0  0  0  0
  5  7  1  0  0  0  0
  2  3  1  0  0  0  0
  2  4  1  0  0  0  0
  2  5  1  0  0  0  0
  1  2  1  0  0  0  0
 22 23  2  0  0  0  0
 22 24  1  0  0  0  0
 19 20  1  0  0  0  0
 19 21  1  0  0  0  0
 17 18  2  0  0  0  0
 17 19  1  0  0  0  0
 14 15  1  0  0  0  0
 14 16  1  0  0  0  0
 14 17  1  0  0  0  0
 11 12  1  0  0  0  0
 11 13  1  0  0  0  0
 11 14  1  0  0  0  0
  9 10  1  0  0  0  0
  9 11  1  0  0  0  0
  9 22  1  0  0  0  0
  7  8  1  0  0  0  0
  7  9  1  0  0  0  0
 26 27  1  0  0  0  0
 26 28  1  0  0  0  0
 26 29  1  0  0  0  0
 24 25  1  0  0  0  0
 24 26  1  0  0  0  0
M  END
$$$$
default_name
  -OEChem-01062215323D

 29 28  0     1  0  0  0  0  0999 V2000
   -3.3998   -3.6239    1.3678 H   0  0  0  0  0  0  0  0  0  0  0  0
   -3.3608   -2.6749    0.8348 C   0  0  0  0  0  0  0  0  0  0  0  0
   -4.0988   -1.9909    1.2498 H   0  0  0  0  0  0  0  0  0  0  0  0
   -3.5618   -2.8419   -0.2222 H   0  0  0  0  0  0  0  0  0  0  0  0
   -1.9818   -2.0809    0.9918 C   0  0  0  0  0  0  0  0  0  0  0  0
   -1.1288   -2.6669    1.6468 O   0  0  0  0  0  0  0  0  0  0  0  0
   -1.7648   -0.9089    0.3998 N   0  0  0  0  0  0  0  0  0  0  0  0
   -2.5238   -0.4719   -0.1032 H   0  0  0  0  0  0  0  0  0  0  0  0
   -0.4848   -0.1959    0.4138 C   0  0  1  0  0  0  0  0  0  0  0  0
   -0.0988   -0.1927    1.4345 H   0  0  0  0  0  0  0  0  0  0  0  0
    0.5165   -0.9557   -0.4781 C   0  0  0  0  0  0  0  0  0  0  0  0
    0.0641   -1.0928   -1.4625 H   0  0  0  0  0  0  0  0  0  0  0  0
    1.4170   -0.3514   -0.5977 H   0  0  0  0  0  0  0  0  0  0  0  0
    0.9139   -2.3375    0.0697 C   0  0  0  0  0  0  0  0  0  0  0  0
    1.3839   -2.2239    1.0463 H   0  0  0  0  0  0  0  0  0  0  0  0
    0.0158   -2.9444    0.1839 H   0  0  0  0  0  0  0  0  0  0  0  0
    1.8883   -3.0871   -0.8388 C   0  0  0  0  0  0  0  0  0  0  0  0
    2.2519   -2.6669   -1.9213 O   0  0  0  0  0  0  0  0  0  0  0  0
    2.3652   -4.2420   -0.4277 N   0  0  0  0  0  0  0  0  0  0  0  0
    3.0016   -4.6905   -1.0636 H   0  0  0  0  0  0  0  0  0  0  0  0
    2.1014   -4.6317    0.4545 H   0  0  0  0  0  0  0  0  0  0  0  0
   -0.6752    1.2631   -0.0287 C   0  0  0  0  0  0  0  0  0  0  0  0
   -0.8480    1.5327   -1.2159 O   0  0  0  0  0  0  0  0  0  0  0  0
   -0.6328    2.2043    0.9231 N   0  0  0  0  0  0  0  0  0  0  0  0
   -0.5127    1.9055    1.8778 H   0  0  0  0  0  0  0  0  0  0  0  0
   -0.7832    3.6353    0.6626 C   0  0  0  0  0  0  0  0  0  0  0  0
   -1.7316    3.8180    0.1513 H   0  0  0  0  0  0  0  0  0  0  0  0
   -0.7661    4.1965    1.5981 H   0  0  0  0  0  0  0  0  0  0  0  0
    0.0276    3.9800    0.0186 H   0  0  0  0  0  0  0  0  0  0  0  0
  5  6  2  0  0  0  0
  5  7  1  0  0  0  0
  2  3  1  0  0  0  0
  2  4  1  0  0  0  0
  2  5  1  0  0  0  0
  1  2  1  0  0  0  0
 22 23  2  0  0  0  0
 22 24  1  0  0  0  0
 19 20  1  0  0  0  0
 19 21  1  0  0  0  0
 17 18  2  0  0  0  0
 17 19  1  0  0  0  0
 14 15  1  0  0  0  0
 14 16  1  0  0  0  0
 14 17  1  0  0  0  0
 11 12  1  0  0  0  0
 11 13  1  0  0  0  0
 11 14  1  0  0  0  0
  9 10  1  0  0  0  0
  9 11  1  0  0  0  0
  9 22  1  0  0  0  0
  7  8  1  0  0  0  0
  7  9  1  0  0  0  0
 26 27  1  0  0  0  0
 26 28  1  0  0  0  0
 26 29  1  0  0  0  0
 24 25  1  0  0  0  0
 24 26  1  0  0  0  0
M  END
$$$$
default_name
  -OEChem-01062215323D

 29 28  0     1  0  0  0  0  0999 V2000
   -3.3998   -3.6239    1.3678 H   0  0  0  0  0  0  0  0  0  0  0  0
   -3.3608   -2.6749    0.8348 C   0  0  0  0  0  0  0  0  0  0  0  0
   -4.0988   -1.9909    1.2498 H   0  0  0  0  0  0  0  0  0  0  0  0
   -3.5618   -2.8419   -0.2222 H   0  0  0  0  0  0  0  0  0  0  0  0
   -1.9818   -2.0809    0.9918 C   0  0  0  0  0  0  0  0  0  0  0  0
   -1.1288   -2.6669    1.6468 O   0  0  0  0  0  0  0  0  0  0  0  0
   -1.7648   -0.9089    0.3998 N   0  0  0  0  0  0  0  0  0  0  0  0
   -2.5238   -0.4719   -0.1032 H   0  0  0  0  0  0  0  0  0  0  0  0
   -0.4848   -0.1959    0.4138 C   0  0  1  0  0  0  0  0  0  0  0  0
   -0.0988   -0.1927    1.4345 H   0  0  0  0  0  0  0  0  0  0  0  0
    0.5165   -0.9557   -0.4781 C   0  0  0  0  0  0  0  0  0  0  0  0
    0.0641   -1.0928   -1.4625 H   0  0  0  0  0  0  0  0  0  0  0  0
    1.4170   -0.3514   -0.5977 H   0  0  0  0  0  0  0  0  0  0  0  0
    0.9139   -2.3375    0.0697 C   0  0  0  0  0  0  0  0  0  0  0  0
    1.3839   -2.2239    1.0463 H   0  0  0  0  0  0  0  0  0  0  0  0
    0.0158   -2.9444    0.1839 H   0  0  0  0  0  0  0  0  0  0  0  0
    1.8883   -3.0871   -0.8388 C   0  0  0  0  0  0  0  0  0  0  0  0
    2.2519   -2.6669   -1.9213 O   0  0  0  0  0  0  0  0  0  0  0  0
    2.3652   -4.2420   -0.4277 N   0  0  0  0  0  0  0  0  0  0  0  0
    3.0016   -4.6905   -1.0636 H   0  0  0  0  0  0  0  0  0  0  0  0
    2.1014   -4.6317    0.4545 H   0  0  0  0  0  0  0  0  0  0  0  0
   -0.6752    1.2631   -0.0287 C   0  0  0  0  0  0  0  0  0  0  0  0
   -1.1164    1.5183   -1.1477 O   0  0  0  0  0  0  0  0  0  0  0  0
   -0.3328    2.2195    0.8441 N   0  0  0  0  0  0  0  0  0  0  0  0
   -0.0020    1.9340    1.7519 H   0  0  0  0  0  0  0  0  0  0  0  0
   -0.4416    3.6516    0.5692 C   0  0  0  0  0  0  0  0  0  0  0  0
   -1.4715    3.8965    0.2983 H   0  0  0  0  0  0  0  0  0  0  0  0
   -0.1544    4.2308    1.4481 H   0  0  0  0  0  0  0  0  0  0  0  0
    0.2073    3.9167   -0.2672 H   0  0  0  0  0  0  0  0  0  0  0  0
  5  6  2  0  0  0  0
  5  7  1  0  0  0  0
  2  3  1  0  0  0  0
  2  4  1  0  0  0  0
  2  5  1  0  0  0  0
  1  2  1  0  0  0  0
 22 23  2  0  0  0  0
 22 24  1  0  0  0  0
 19 20  1  0  0  0  0
 19 21  1  0  0  0  0
 17 18  2  0  0  0  0
 17 19  1  0  0  0  0
 14 15  1  0  0  0  0
 14 16  1  0  0  0  0
 14 17  1  0  0  0  0
 11 12  1  0  0  0  0
 11 13  1  0  0  0  0
 11 14  1  0  0  0  0
  9 10  1  0  0  0  0
  9 11  1  0  0  0  0
  9 22  1  0  0  0  0
  7  8  1  0  0  0  0
  7  9  1  0  0  0  0
 26 27  1  0  0  0  0
 26 28  1  0  0  0  0
 26 29  1  0  0  0  0
 24 25  1  0  0  0  0
 24 26  1  0  0  0  0
M  END
$$$$
default_name
  -OEChem-01062215323D

 29 28  0     1  0  0  0  0  0999 V2000
   -3.3998   -3.6239    1.3678 H   0  0  0  0  0  0  0  0  0  0  0  0
   -3.3608   -2.6749    0.8348 C   0  0  0  0  0  0  0  0  0  0  0  0
   -4.0988   -1.9909    1.2498 H   0  0  0  0  0  0  0  0  0  0  0  0
   -3.5618   -2.8419   -0.2222 H   0  0  0  0  0  0  0  0  0  0  0  0
   -1.9818   -2.0809    0.9918 C   0  0  0  0  0  0  0  0  0  0  0  0
   -1.1288   -2.6669    1.6468 O   0  0  0  0  0  0  0  0  0  0  0  0
   -1.7648   -0.9089    0.3998 N   0  0  0  0  0  0  0  0  0  0  0  0
   -2.5238   -0.4719   -0.1032 H   0  0  0  0  0  0  0  0  0  0  0  0
   -0.4848   -0.1959    0.4138 C   0  0  1  0  0  0  0  0  0  0  0  0
   -0.0988   -0.1927    1.4345 H   0  0  0  0  0  0  0  0  0  0  0  0
    0.5165   -0.9557   -0.4781 C   0  0  0  0  0  0  0  0  0  0  0  0
    0.0641   -1.0928   -1.4625 H   0  0  0  0  0  0  0  0  0  0  0  0
    1.4170   -0.3514   -0.5977 H   0  0  0  0  0  0  0  0  0  0  0  0
    0.9139   -2.3375    0.0697 C   0  0  0  0  0  0  0  0  0  0  0  0
    1.3839   -2.2239    1.0463 H   0  0  0  0  0  0  0  0  0  0  0  0
    0.0158   -2.9444    0.1839 H   0  0  0  0  0  0  0  0  0  0  0  0
    1.8883   -3.0871   -0.8388 C   0  0  0  0  0  0  0  0  0  0  0  0
    2.2519   -2.6669   -1.9213 O   0  0  0  0  0  0  0  0  0  0  0  0
    2.3652   -4.2420   -0.4277 N   0  0  0  0  0  0  0  0  0  0  0  0
    3.0016   -4.6905   -1.0636 H   0  0  0  0  0  0  0  0  0  0  0  0
    2.1014   -4.6317    0.4545 H   0  0  0  0  0  0  0  0  0  0  0  0
   -0.6752    1.2631   -0.0287 C   0  0  0  0  0  0  0  0  0  0  0  0
   -1.3600    1.5266   -1.0154 O   0  0  0  0  0  0  0  0  0  0  0  0
   -0.0613    2.2093    0.6935 N   0  0  0  0  0  0  0  0  0  0  0  0
    0.4625    1.9194    1.5039 H   0  0  0  0  0  0  0  0  0  0  0  0
   -0.1333    3.6389    0.3945 C   0  0  0  0  0  0  0  0  0  0  0  0
   -1.1784    3.9577    0.3739 H   0  0  0  0  0  0  0  0  0  0  0  0
    0.4022    4.2136    1.1517 H   0  0  0  0  0  0  0  0  0  0  0  0
    0.3059    3.8331   -0.5854 H   0  0  0  0  0  0  0  0  0  0  0  0
  5  6  2  0  0  0  0
  5  7  1  0  0  0  0
  2  3  1  0  0  0  0
  2  4  1  0  0  0  0
  2  5  1  0  0  0  0
  1  2  1  0  0  0  0
 22 23  2  0  0  0  0
 22 24  1  0  0  0  0
 19 20  1  0  0  0  0
 19 21  1  0  0  0  0
 17 18  2  0  0  0  0
 17 19  1  0  0  0  0
 14 15  1  0  0  0  0
 14 16  1  0  0  0  0
 14 17  1  0  0  0  0
 11 12  1  0  0  0  0
 11 13  1  0  0  0  0
 11 14  1  0  0  0  0
  9 10  1  0  0  0  0
  9 11  1  0  0  0  0
  9 22  1  0  0  0  0
  7  8  1  0  0  0  0
  7  9  1  0  0  0  0
 26 27  1  0  0  0  0
 26 28  1  0  0  0  0
 26 29  1  0  0  0  0
 24 25  1  0  0  0  0
 24 26  1  0  0  0  0
M  END
$$$$
default_name
  -OEChem-01062215323D

 29 28  0     1  0  0  0  0  0999 V2000
   -3.3998   -3.6239    1.3678 H   0  0  0  0  0  0  0  0  0  0  0  0
   -3.3608   -2.6749    0.8348 C   0  0  0  0  0  0  0  0  0  0  0  0
   -4.0988   -1.9909    1.2498 H   0  0  0  0  0  0  0  0  0  0  0  0
   -3.5618   -2.8419   -0.2222 H   0  0  0  0  0  0  0  0  0  0  0  0
   -1.9818   -2.0809    0.9918 C   0  0  0  0  0  0  0  0  0  0  0  0
   -1.1288   -2.6669    1.6468 O   0  0  0  0  0  0  0  0  0  0  0  0
   -1.7648   -0.9089    0.3998 N   0  0  0  0  0  0  0  0  0  0  0  0
   -2.5238   -0.4719   -0.1032 H   0  0  0  0  0  0  0  0  0  0  0  0
   -0.4848   -0.1959    0.4138 C   0  0  1  0  0  0  0  0  0  0  0  0
   -0.0988   -0.1927    1.4345 H   0  0  0  0  0  0  0  0  0  0  0  0
    0.5165   -0.9557   -0.4781 C   0  0  0  0  0  0  0  0  0  0  0  0
    0.0641   -1.0928   -1.4625 H   0  0  0  0  0  0  0  0  0  0  0  0
    1.4170   -0.3514   -0.5977 H   0  0  0  0  0  0  0  0  0  0  0  0
    0.9139   -2.3375    0.0697 C   0  0  0  0  0  0  0  0  0  0  0  0
    1.3839   -2.2239    1.0463 H   0  0  0  0  0  0  0  0  0  0  0  0
    0.0158   -2.9444    0.1839 H   0  0  0  0  0  0  0  0  0  0  0  0
    1.8883   -3.0871   -0.8388 C   0  0  0  0  0  0  0  0  0  0  0  0
    2.2519   -2.6669   -1.9213 O   0  0  0  0  0  0  0  0  0  0  0  0
    2.3652   -4.2420   -0.4277 N   0  0  0  0  0  0  0  0  0  0  0  0
    3.0016   -4.6905   -1.0636 H   0  0  0  0  0  0  0  0  0  0  0  0
    2.1014   -4.6317    0.4545 H   0  0  0  0  0  0  0  0  0  0  0  0
   -0.6752    1.2631   -0.0287 C   0  0  0  0  0  0  0  0  0  0  0  0
   -1.5622    1.5571   -0.8280 O   0  0  0  0  0  0  0  0  0  0  0  0
    0.1632    2.1743    0.4816 N   0  0  0  0  0  0  0  0  0  0  0  0
    0.8491    1.8627    1.1506 H   0  0  0  0  0  0  0  0  0  0  0  0
    0.1206    3.5980    0.1505 C   0  0  0  0  0  0  0  0  0  0  0  0
   -0.8721    3.9973    0.3728 H   0  0  0  0  0  0  0  0  0  0  0  0
    0.8656    4.1460    0.7293 H   0  0  0  0  0  0  0  0  0  0  0  0
    0.3167    3.7348   -0.9143 H   0  0  0  0  0  0  0  0  0  0  0  0
  5  6  2  0  0  0  0
  5  7  1  0  0  0  0
  2  3  1  0  0  0  0
  2  4  1  0  0  0  0
  2  5  1  0  0  0  0
  1  2  1  0  0  0  0
 22 23  2  0  0  0  0
 22 24  1  0  0  0  0
 19 20  1  0  0  0  0
 19 21  1  0  0  0  0
 17 18  2  0  0  0  0
 17 19  1  0  0  0  0
 14 15  1  0  0  0  0
 14 16  1  0  0  0  0
 14 17  1  0  0  0  0
 11 12  1  0  0  0  0
 11 13  1  0  0  0  0
 11 14  1  0  0  0  0
  9 10  1  0  0  0  0
  9 11  1  0  0  0  0
  9 22  1  0  0  0  0
  7  8  1  0  0  0  0
  7  9  1  0  0  0  0
 26 27  1  0  0  0  0
 26 28  1  0  0  0  0
 26 29  1  0  0  0  0
 24 25  1  0  0  0  0
 24 26  1  0  0  0  0
M  END
$$$$
default_name
  -OEChem-01062215323D

 29 28  0     1  0  0  0  0  0999 V2000
   -3.3998   -3.6239    1.3678 H   0  0  0  0  0  0  0  0  0  0  0  0
   -3.3608   -2.6749    0.8348 C   0  0  0  0  0  0  0  0  0  0  0  0
   -4.0988   -1.9909    1.2498 H   0  0  0  0  0  0  0  0  0  0  0  0
   -3.5618   -2.8419   -0.2222 H   0  0  0  0  0  0  0  0  0  0  0  0
   -1.9818   -2.0809    0.9918 C   0  0  0  0  0  0  0  0  0  0  0  0
   -1.1288   -2.6669    1.6468 O   0  0  0  0  0  0  0  0  0  0  0  0
   -1.7648   -0.9089    0.3998 N   0  0  0  0  0  0  0  0  0  0  0  0
   -2.5238   -0.4719   -0.1032 H   0  0  0  0  0  0  0  0  0  0  0  0
   -0.4848   -0.1959    0.4138 C   0  0  1  0  0  0  0  0  0  0  0  0
   -0.0988   -0.1927    1.4345 H   0  0  0  0  0  0  0  0  0  0  0  0
    0.5165   -0.9557   -0.4781 C   0  0  0  0  0  0  0  0  0  0  0  0
    0.0641   -1.0928   -1.4625 H   0  0  0  0  0  0  0  0  0  0  0  0
    1.4170   -0.3514   -0.5977 H   0  0  0  0  0  0  0  0  0  0  0  0
    0.9139   -2.3375    0.0697 C   0  0  0  0  0  0  0  0  0  0  0  0
    1.3839   -2.2239    1.0463 H   0  0  0  0  0  0  0  0  0  0  0  0
    0.0158   -2.9444    0.1839 H   0  0  0  0  0  0  0  0  0  0  0  0
    1.8883   -3.0871   -0.8388 C   0  0  0  0  0  0  0  0  0  0  0  0
    2.2519   -2.6669   -1.9213 O   0  0  0  0  0  0  0  0  0  0  0  0
    2.3652   -4.2420   -0.4277 N   0  0  0  0  0  0  0  0  0  0  0  0
    3.0016   -4.6905   -1.0636 H   0  0  0  0  0  0  0  0  0  0  0  0
    2.1014   -4.6317    0.4545 H   0  0  0  0  0  0  0  0  0  0  0  0
   -0.6752    1.2631   -0.0287 C   0  0  0  0  0  0  0  0  0  0  0  0
   -1.7091    1.6076   -0.5982 O   0  0  0  0  0  0  0  0  0  0  0  0
    0.3253    2.1170    0.2229 N   0  0  0  0  0  0  0  0  0  0  0  0
    1.1315    1.7678    0.7161 H   0  0  0  0  0  0  0  0  0  0  0  0
    0.3028    3.5318   -0.1464 C   0  0  0  0  0  0  0  0  0  0  0  0
   -0.5735    4.0128    0.2952 H   0  0  0  0  0  0  0  0  0  0  0  0
    1.2044    4.0325    0.2094 H   0  0  0  0  0  0  0  0  0  0  0  0
    0.2389    3.6285   -1.2315 H   0  0  0  0  0  0  0  0  0  0  0  0
  5  6  2  0  0  0  0
  5  7  1  0  0  0  0
  2  3  1  0  0  0  0
  2  4  1  0  0  0  0
  2  5  1  0  0  0  0
  1  2  1  0  0  0  0
 22 23  2  0  0  0  0
 22 24  1  0  0  0  0
 19 20  1  0  0  0  0
 19 21  1  0  0  0  0
 17 18  2  0  0  0  0
 17 19  1  0  0  0  0
 14 15  1  0  0  0  0
 14 16  1  0  0  0  0
 14 17  1  0  0  0  0
 11 12  1  0  0  0  0
 11 13  1  0  0  0  0
 11 14  1  0  0  0  0
  9 10  1  0  0  0  0
  9 11  1  0  0  0  0
  9 22  1  0  0  0  0
  7  8  1  0  0  0  0
  7  9  1  0  0  0  0
 26 27  1  0  0  0  0
 26 28  1  0  0  0  0
 26 29  1  0  0  0  0
 24 25  1  0  0  0  0
 24 26  1  0  0  0  0
M  END
$$$$
default_name
  -OEChem-01062215323D

 29 28  0     1  0  0  0  0  0999 V2000
   -3.3998   -3.6239    1.3678 H   0  0  0  0  0  0  0  0  0  0  0  0
   -3.3608   -2.6749    0.8348 C   0  0  0  0  0  0  0  0  0  0  0  0
   -4.0988   -1.9909    1.2498 H   0  0  0  0  0  0  0  0  0  0  0  0
   -3.5618   -2.8419   -0.2222 H   0  0  0  0  0  0  0  0  0  0  0  0
   -1.9818   -2.0809    0.9918 C   0  0  0  0  0  0  0  0  0  0  0  0
   -1.1288   -2.6669    1.6468 O   0  0  0  0  0  0  0  0  0  0  0  0
   -1.7648   -0.9089    0.3998 N   0  0  0  0  0  0  0  0  0  0  0  0
   -2.5238   -0.4719   -0.1032 H   0  0  0  0  0  0  0  0  0  0  0  0
   -0.4848   -0.1959    0.4138 C   0  0  1  0  0  0  0  0  0  0  0  0
    0.0269   -0.4168    1.3520 H   0  0  0  0  0  0  0  0  0  0  0  0
    0.3867   -0.7174   -0.7454 C   0  0  0  0  0  0  0  0  0  0  0  0
   -0.1879   -0.6363   -1.6704 H   0  0  0  0  0  0  0  0  0  0  0  0
    1.2721   -0.0866   -0.8374 H   0  0  0  0  0  0  0  0  0  0  0  0
    0.8335   -2.1803   -0.5789 C   0  0  0  0  0  0  0  0  0  0  0  0
    1.4243   -2.2824    0.3311 H   0  0  0  0  0  0  0  0  0  0  0  0
   -0.0503   -2.8125   -0.4930 H   0  0  0  0  0  0  0  0  0  0  0  0
    1.6763   -2.6886   -1.7485 C   0  0  0  0  0  0  0  0  0  0  0  0
    1.9054   -2.0287   -2.7447 O   0  0  0  0  0  0  0  0  0  0  0  0
    2.1873   -3.8983   -1.6726 N   0  0  0  0  0  0  0  0  0  0  0  0
    2.7330   -4.1807   -2.4682 H   0  0  0  0  0  0  0  0  0  0  0  0
    2.0324   -4.4817   -0.8755 H   0  0  0  0  0  0  0  0  0  0  0  0
   -0.7120    1.3219    0.3405 C   0  0  0  0  0  0  0  0  0  0  0  0
   -1.8532    1.7746    0.2712 O   0  0  0  0  0  0  0  0  0  0  0  0
    0.3733    2.1065    0.3446 N   0  0  0  0  0  0  0  0  0  0  0  0
    1.2750    1.6650    0.4290 H   0  0  0  0  0  0  0  0  0  0  0  0
    0.3251    3.5660    0.2670 C   0  0  0  0  0  0  0  0  0  0  0  0
   -0.2878    3.9572    1.0827 H   0  0  0  0  0  0  0  0  0  0  0  0
    1.3300    3.9845    0.3407 H   0  0  0  0  0  0  0  0  0  0  0  0
   -0.1254    3.8701   -0.6793 H   0  0  0  0  0  0  0  0  0  0  0  0
  5  6  2  0  0  0  0
  5  7  1  0  0  0  0
  2  3  1  0  0  0  0
  2  4  1  0  0  0  0
  2  5  1  0  0  0  0
  1  2  1  0  0  0  0
 22 23  2  0  0  0  0
 22 24  1  0  0  0  0
 19 20  1  0  0  0  0
 19 21  1  0  0  0  0
 17 18  2  0  0  0  0
 17 19  1  0  0  0  0
 14 15  1  0  0  0  0
 14 16  1  0  0  0  0
 14 17  1  0  0  0  0
 11 12  1  0  0  0  0
 11 13  1  0  0  0  0
 11 14  1  0  0  0  0
  9 10  1  0  0  0  0
  9 11  1  0  0  0  0
  9 22  1  0  0  0  0
  7  8  1  0  0  0  0
  7  9  1  0  0  0  0
 26 27  1  0  0  0  0
 26 28  1  0  0  0  0
 26 29  1  0  0  0  0
 24 25  1  0  0  0  0
 24 26  1  0  0  0  0
M  END
$$$$
default_name
  -OEChem-01062215323D

 29 28  0     1  0  0  0  0  0999 V2000
   -3.3998   -3.6239    1.3678 H   0  0  0  0  0  0  0  0  0  0  0  0
   -3.3608   -2.6749    0.8348 C   0  0  0  0  0  0  0  0  0  0  0  0
   -4.0988   -1.9909    1.2498 H   0  0  0  0  0  0  0  0  0  0  0  0
   -3.5618   -2.8419   -0.2222 H   0  0  0  0  0  0  0  0  0  0  0  0
   -1.9818   -2.0809    0.9918 C   0  0  0  0  0  0  0  0  0  0  0  0
   -1.1288   -2.6669    1.6468 O   0  0  0  0  0  0  0  0  0  0  0  0
   -1.7648   -0.9089    0.3998 N   0  0  0  0  0  0  0  0  0  0  0  0
   -2.5238   -0.4719   -0.1032 H   0  0  0  0  0  0  0  0  0  0  0  0
   -0.4848   -0.1959    0.4138 C   0  0  1  0  0  0  0  0  0  0  0  0
    0.0269   -0.4168    1.3520 H   0  0  0  0  0  0  0  0  0  0  0  0
    0.3867   -0.7174   -0.7454 C   0  0  0  0  0  0  0  0  0  0  0  0
   -0.1879   -0.6363   -1.6704 H   0  0  0  0  0  0  0  0  0  0  0  0
    1.2721   -0.0866   -0.8374 H   0  0  0  0  0  0  0  0  0  0  0  0
    0.8335   -2.1803   -0.5789 C   0  0  0  0  0  0  0  0  0  0  0  0
    1.4243   -2.2824    0.3311 H   0  0  0  0  0  0  0  0  0  0  0  0
   -0.0503   -2.8125   -0.4930 H   0  0  0  0  0  0  0  0  0  0  0  0
    1.6763   -2.6886   -1.7485 C   0  0  0  0  0  0  0  0  0  0  0  0
    1.9054   -2.0287   -2.7447 O   0  0  0  0  0  0  0  0  0  0  0  0
    2.1873   -3.8983   -1.6726 N   0  0  0  0  0  0  0  0  0  0  0  0
    2.7330   -4.1807   -2.4682 H   0  0  0  0  0  0  0  0  0  0  0  0
    2.0324   -4.4817   -0.8755 H   0  0  0  0  0  0  0  0  0  0  0  0
   -0.7120    1.3219    0.3405 C   0  0  0  0  0  0  0  0  0  0  0  0
   -1.8295    1.7915    0.5471 O   0  0  0  0  0  0  0  0  0  0  0  0
    0.3440    2.0872    0.0359 N   0  0  0  0  0  0  0  0  0  0  0  0
    1.2340    1.6335   -0.0953 H   0  0  0  0  0  0  0  0  0  0  0  0
    0.2883    3.5435   -0.0849 C   0  0  0  0  0  0  0  0  0  0  0  0
   -0.0925    3.9749    0.8440 H   0  0  0  0  0  0  0  0  0  0  0  0
    1.2817    3.9470   -0.2871 H   0  0  0  0  0  0  0  0  0  0  0  0
   -0.3872    3.8205   -0.8961 H   0  0  0  0  0  0  0  0  0  0  0  0
  5  6  2  0  0  0  0
  5  7  1  0  0  0  0
  2  3  1  0  0  0  0
  2  4  1  0  0  0  0
  2  5  1  0  0  0  0
  1  2  1  0  0  0  0
 22 23  2  0  0  0  0
 22 24  1  0  0  0  0
 19 20  1  0  0  0  0
 19 21  1  0  0  0  0
 17 18  2  0  0  0  0
 17 19  1  0  0  0  0
 14 15  1  0  0  0  0
 14 16  1  0  0  0  0
 14 17  1  0  0  0  0
 11 12  1  0  0  0  0
 11 13  1  0  0  0  0
 11 14  1  0  0  0  0
  9 10  1  0  0  0  0
  9 11  1  0  0  0  0
  9 22  1  0  0  0  0
  7  8  1  0  0  0  0
  7  9  1  0  0  0  0
 26 27  1  0  0  0  0
 26 28  1  0  0  0  0
 26 29  1  0  0  0  0
 24 25  1  0  0  0  0
 24 26  1  0  0  0  0
M  END
$$$$
default_name
  -OEChem-01062215323D

 29 28  0     1  0  0  0  0  0999 V2000
   -3.3998   -3.6239    1.3678 H   0  0  0  0  0  0  0  0  0  0  0  0
   -3.3608   -2.6749    0.8348 C   0  0  0  0  0  0  0  0  0  0  0  0
   -4.0988   -1.9909    1.2498 H   0  0  0  0  0  0  0  0  0  0  0  0
   -3.5618   -2.8419   -0.2222 H   0  0  0  0  0  0  0  0  0  0  0  0
   -1.9818   -2.0809    0.9918 C   0  0  0  0  0  0  0  0  0  0  0  0
   -1.1288   -2.6669    1.6468 O   0  0  0  0  0  0  0  0  0  0  0  0
   -1.7648   -0.9089    0.3998 N   0  0  0  0  0  0  0  0  0  0  0  0
   -2.5238   -0.4719   -0.1032 H   0  0  0  0  0  0  0  0  0  0  0  0
   -0.4848   -0.1959    0.4138 C   0  0  1  0  0  0  0  0  0  0  0  0
    0.0269   -0.4168    1.3520 H   0  0  0  0  0  0  0  0  0  0  0  0
    0.3867   -0.7174   -0.7454 C   0  0  0  0  0  0  0  0  0  0  0  0
   -0.1879   -0.6363   -1.6704 H   0  0  0  0  0  0  0  0  0  0  0  0
    1.2721   -0.0866   -0.8374 H   0  0  0  0  0  0  0  0  0  0  0  0
    0.8335   -2.1803   -0.5789 C   0  0  0  0  0  0  0  0  0  0  0  0
    1.4243   -2.2824    0.3311 H   0  0  0  0  0  0  0  0  0  0  0  0
   -0.0503   -2.8125   -0.4930 H   0  0  0  0  0  0  0  0  0  0  0  0
    1.6763   -2.6886   -1.7485 C   0  0  0  0  0  0  0  0  0  0  0  0
    1.9054   -2.0287   -2.7447 O   0  0  0  0  0  0  0  0  0  0  0  0
    2.1873   -3.8983   -1.6726 N   0  0  0  0  0  0  0  0  0  0  0  0
    2.7330   -4.1807   -2.4682 H   0  0  0  0  0  0  0  0  0  0  0  0
    2.0324   -4.4817   -0.8755 H   0  0  0  0  0  0  0  0  0  0  0  0
   -0.7120    1.3219    0.3405 C   0  0  0  0  0  0  0  0  0  0  0  0
   -1.7359    1.8180    0.8068 O   0  0  0  0  0  0  0  0  0  0  0  0
    0.2365    2.0572   -0.2540 N   0  0  0  0  0  0  0  0  0  0  0  0
    1.0599    1.5836   -0.5899 H   0  0  0  0  0  0  0  0  0  0  0  0
    0.1625    3.5087   -0.4146 C   0  0  0  0  0  0  0  0  0  0  0  0
    0.0353    3.9805    0.5629 H   0  0  0  0  0  0  0  0  0  0  0  0
    1.0740    3.8873   -0.8797 H   0  0  0  0  0  0  0  0  0  0  0  0
   -0.6960    3.7675   -1.0367 H   0  0  0  0  0  0  0  0  0  0  0  0
  5  6  2  0  0  0  0
  5  7  1  0  0  0  0
  2  3  1  0  0  0  0
  2  4  1  0  0  0  0
  2  5  1  0  0  0  0
  1  2  1  0  0  0  0
 22 23  2  0  0  0  0
 22 24  1  0  0  0  0
 19 20  1  0  0  0  0
 19 21  1  0  0  0  0
 17 18  2  0  0  0  0
 17 19  1  0  0  0  0
 14 15  1  0  0  0  0
 14 16  1  0  0  0  0
 14 17  1  0  0  0  0
 11 12  1  0  0  0  0
 11 13  1  0  0  0  0
 11 14  1  0  0  0  0
  9 10  1  0  0  0  0
  9 11  1  0  0  0  0
  9 22  1  0  0  0  0
  7  8  1  0  0  0  0
  7  9  1  0  0  0  0
 26 27  1  0  0  0  0
 26 28  1  0  0  0  0
 26 29  1  0  0  0  0
 24 25  1  0  0  0  0
 24 26  1  0  0  0  0
M  END
$$$$
default_name
  -OEChem-01062215323D

 29 28  0     1  0  0  0  0  0999 V2000
   -3.3998   -3.6239    1.3678 H   0  0  0  0  0  0  0  0  0  0  0  0
   -3.3608   -2.6749    0.8348 C   0  0  0  0  0  0  0  0  0  0  0  0
   -4.0988   -1.9909    1.2498 H   0  0  0  0  0  0  0  0  0  0  0  0
   -3.5618   -2.8419   -0.2222 H   0  0  0  0  0  0  0  0  0  0  0  0
   -1.9818   -2.0809    0.9918 C   0  0  0  0  0  0  0  0  0  0  0  0
   -1.1288   -2.6669    1.6468 O   0  0  0  0  0  0  0  0  0  0  0  0
   -1.7648   -0.9089    0.3998 N   0  0  0  0  0  0  0  0  0  0  0  0
   -2.5238   -0.4719   -0.1032 H   0  0  0  0  0  0  0  0  0  0  0  0
   -0.4848   -0.1959    0.4138 C   0  0  1  0  0  0  0  0  0  0  0  0
    0.0269   -0.4168    1.3520 H   0  0  0  0  0  0  0  0  0  0  0  0
    0.3867   -0.7174   -0.7454 C   0  0  0  0  0  0  0  0  0  0  0  0
   -0.1879   -0.6363   -1.6704 H   0  0  0  0  0  0  0  0  0  0  0  0
    1.2721   -0.0866   -0.8374 H   0  0  0  0  0  0  0  0  0  0  0  0
    0.8335   -2.1803   -0.5789 C   0  0  0  0  0  0  0  0  0  0  0  0
    1.4243   -2.2824    0.3311 H   0  0  0  0  0  0  0  0  0  0  0  0
   -0.0503   -2.8125   -0.4930 H   0  0  0  0  0  0  0  0  0  0  0  0
    1.6763   -2.6886   -1.7485 C   0  0  0  0  0  0  0  0  0  0  0  0
    1.9054   -2.0287   -2.7447 O   0  0  0  0  0  0  0  0  0  0  0  0
    2.1873   -3.8983   -1.6726 N   0  0  0  0  0  0  0  0  0  0  0  0
    2.7330   -4.1807   -2.4682 H   0  0  0  0  0  0  0  0  0  0  0  0
    2.0324   -4.4817   -0.8755 H   0  0  0  0  0  0  0  0  0  0  0  0
   -0.7120    1.3219    0.3405 C   0  0  0  0  0  0  0  0  0  0  0  0
   -1.5788    1.8524    1.0327 O   0  0  0  0  0  0  0  0  0  0  0  0
    0.0582    2.0183   -0.5053 N   0  0  0  0  0  0  0  0  0  0  0  0
    0.7647    1.5186   -1.0213 H   0  0  0  0  0  0  0  0  0  0  0  0
   -0.0438    3.4641   -0.6995 C   0  0  0  0  0  0  0  0  0  0  0  0
    0.0869    3.9735    0.2585 H   0  0  0  0  0  0  0  0  0  0  0  0
    0.7211    3.8095   -1.3967 H   0  0  0  0  0  0  0  0  0  0  0  0
   -1.0310    3.7147   -1.0914 H   0  0  0  0  0  0  0  0  0  0  0  0
  5  6  2  0  0  0  0
  5  7  1  0  0  0  0
  2  3  1  0  0  0  0
  2  4  1  0  0  0  0
  2  5  1  0  0  0  0
  1  2  1  0  0  0  0
 22 23  2  0  0  0  0
 22 24  1  0  0  0  0
 19 20  1  0  0  0  0
 19 21  1  0  0  0  0
 17 18  2  0  0  0  0
 17 19  1  0  0  0  0
 14 15  1  0  0  0  0
 14 16  1  0  0  0  0
 14 17  1  0  0  0  0
 11 12  1  0  0  0  0
 11 13  1  0  0  0  0
 11 14  1  0  0  0  0
  9 10  1  0  0  0  0
  9 11  1  0  0  0  0
  9 22  1  0  0  0  0
  7  8  1  0  0  0  0
  7  9  1  0  0  0  0
 26 27  1  0  0  0  0
 26 28  1  0  0  0  0
 26 29  1  0  0  0  0
 24 25  1  0  0  0  0
 24 26  1  0  0  0  0
M  END
$$$$
default_name
  -OEChem-01062215323D

 29 28  0     1  0  0  0  0  0999 V2000
   -3.3998   -3.6239    1.3678 H   0  0  0  0  0  0  0  0  0  0  0  0
   -3.3608   -2.6749    0.8348 C   0  0  0  0  0  0  0  0  0  0  0  0
   -4.0988   -1.9909    1.2498 H   0  0  0  0  0  0  0  0  0  0  0  0
   -3.5618   -2.8419   -0.2222 H   0  0  0  0  0  0  0  0  0  0  0  0
   -1.9818   -2.0809    0.9918 C   0  0  0  0  0  0  0  0  0  0  0  0
   -1.1288   -2.6669    1.6468 O   0  0  0  0  0  0  0  0  0  0  0  0
   -1.7648   -0.9089    0.3998 N   0  0  0  0  0  0  0  0  0  0  0  0
   -2.5238   -0.4719   -0.1032 H   0  0  0  0  0  0  0  0  0  0  0  0
   -0.4848   -0.1959    0.4138 C   0  0  1  0  0  0  0  0  0  0  0  0
    0.0269   -0.4168    1.3520 H   0  0  0  0  0  0  0  0  0  0  0  0
    0.3867   -0.7174   -0.7454 C   0  0  0  0  0  0  0  0  0  0  0  0
   -0.1879   -0.6363   -1.6704 H   0  0  0  0  0  0  0  0  0  0  0  0
    1.2721   -0.0866   -0.8374 H   0  0  0  0  0  0  0  0  0  0  0  0
    0.8335   -2.1803   -0.5789 C   0  0  0  0  0  0  0  0  0  0  0  0
    1.4243   -2.2824    0.3311 H   0  0  0  0  0  0  0  0  0  0  0  0
   -0.0503   -2.8125   -0.4930 H   0  0  0  0  0  0  0  0  0  0  0  0
    1.6763   -2.6886   -1.7485 C   0  0  0  0  0  0  0  0  0  0  0  0
    1.9054   -2.0287   -2.7447 O   0  0  0  0  0  0  0  0  0  0  0  0
    2.1873   -3.8983   -1.6726 N   0  0  0  0  0  0  0  0  0  0  0  0
    2.7330   -4.1807   -2.4682 H   0  0  0  0  0  0  0  0  0  0  0  0
    2.0324   -4.4817   -0.8755 H   0  0  0  0  0  0  0  0  0  0  0  0
   -0.7120    1.3219    0.3405 C   0  0  0  0  0  0  0  0  0  0  0  0
   -1.3689    1.8924    1.2094 O   0  0  0  0  0  0  0  0  0  0  0  0
   -0.1788    1.9734   -0.7011 N   0  0  0  0  0  0  0  0  0  0  0  0
    0.3684    1.4429   -1.3600 H   0  0  0  0  0  0  0  0  0  0  0  0
   -0.3164    3.4126   -0.9202 C   0  0  0  0  0  0  0  0  0  0  0  0
    0.0588    3.9545   -0.0485 H   0  0  0  0  0  0  0  0  0  0  0  0
    0.2471    3.7189   -1.8029 H   0  0  0  0  0  0  0  0  0  0  0  0
   -1.3691    3.6657   -1.0567 H   0  0  0  0  0  0  0  0  0  0  0  0
  5  6  2  0  0  0  0
  5  7  1  0  0  0  0
  2  3  1  0  0  0  0
  2  4  1  0  0  0  0
  2  5  1  0  0  0  0
  1  2  1  0  0  0  0
 22 23  2  0  0  0  0
 22 24  1  0  0  0  0
 19 20  1  0  0  0  0
 19 21  1  0  0  0  0
 17 18  2  0  0  0  0
 17 19  1  0  0  0  0
 14 15  1  0  0  0  0
 14 16  1  0  0  0  0
 14 17  1  0  0  0  0
 11 12  1  0  0  0  0
 11 13  1  0  0  0  0
 11 14  1  0  0  0  0
  9 10  1  0  0  0  0
  9 11  1  0  0  0  0
  9 22  1  0  0  0  0
  7  8  1  0  0  0  0
  7  9  1  0  0  0  0
 26 27  1  0  0  0  0
 26 28  1  0  0  0  0
 26 29  1  0  0  0  0
 24 25  1  0  0  0  0
 24 26  1  0  0  0  0
M  END
$$$$
default_name
  -OEChem-01062215323D

 29 28  0     1  0  0  0  0  0999 V2000
   -3.3998   -3.6239    1.3678 H   0  0  0  0  0  0  0  0  0  0  0  0
   -3.3608   -2.6749    0.8348 C   0  0  0  0  0  0  0  0  0  0  0  0
   -4.0988   -1.9909    1.2498 H   0  0  0  0  0  0  0  0  0  0  0  0
   -3.5618   -2.8419   -0.2222 H   0  0  0  0  0  0  0  0  0  0  0  0
   -1.9818   -2.0809    0.9918 C   0  0  0  0  0  0  0  0  0  0  0  0
   -1.1288   -2.6669    1.6468 O   0  0  0  0  0  0  0  0  0  0  0  0
   -1.7648   -0.9089    0.3998 N   0  0  0  0  0  0  0  0  0  0  0  0
   -2.5238   -0.4719   -0.1032 H   0  0  0  0  0  0  0  0  0  0  0  0
   -0.4848   -0.1959    0.4138 C   0  0  1  0  0  0  0  0  0  0  0  0
    0.0269   -0.4168    1.3520 H   0  0  0  0  0  0  0  0  0  0  0  0
    0.3867   -0.7174   -0.7454 C   0  0  0  0  0  0  0  0  0  0  0  0
   -0.1879   -0.6363   -1.6704 H   0  0  0  0  0  0  0  0  0  0  0  0
    1.2721   -0.0866   -0.8374 H   0  0  0  0  0  0  0  0  0  0  0  0
    0.8335   -2.1803   -0.5789 C   0  0  0  0  0  0  0  0  0  0  0  0
    1.4243   -2.2824    0.3311 H   0  0  0  0  0  0  0  0  0  0  0  0
   -0.0503   -2.8125   -0.4930 H   0  0  0  0  0  0  0  0  0  0  0  0
    1.6763   -2.6886   -1.7485 C   0  0  0  0  0  0  0  0  0  0  0  0
    1.9054   -2.0287   -2.7447 O   0  0  0  0  0  0  0  0  0  0  0  0
    2.1873   -3.8983   -1.6726 N   0  0  0  0  0  0  0  0  0  0  0  0
    2.7330   -4.1807   -2.4682 H   0  0  0  0  0  0  0  0  0  0  0  0
    2.0324   -4.4817   -0.8755 H   0  0  0  0  0  0  0  0  0  0  0  0
   -0.7120    1.3219    0.3405 C   0  0  0  0  0  0  0  0  0  0  0  0
   -1.1204    1.9352    1.3249 O   0  0  0  0  0  0  0  0  0  0  0  0
   -0.4583    1.9254   -0.8278 N   0  0  0  0  0  0  0  0  0  0  0  0
   -0.1019    1.3617   -1.5830 H   0  0  0  0  0  0  0  0  0  0  0  0
   -0.6368    3.3578   -1.0618 C   0  0  0  0  0  0  0  0  0  0  0  0
   -0.0470    3.9247   -0.3372 H   0  0  0  0  0  0  0  0  0  0  0  0
   -0.3157    3.6217   -2.0706 H   0  0  0  0  0  0  0  0  0  0  0  0
   -1.6875    3.6240   -0.9348 H   0  0  0  0  0  0  0  0  0  0  0  0
  5  6  2  0  0  0  0
  5  7  1  0  0  0  0
  2  3  1  0  0  0  0
  2  4  1  0  0  0  0
  2  5  1  0  0  0  0
  1  2  1  0  0  0  0
 22 23  2  0  0  0  0
 22 24  1  0  0  0  0
 19 20  1  0  0  0  0
 19 21  1  0  0  0  0
 17 18  2  0  0  0  0
 17 19  1  0  0  0  0
 14 15  1  0  0  0  0
 14 16  1  0  0  0  0
 14 17  1  0  0  0  0
 11 12  1  0  0  0  0
 11 13  1  0  0  0  0
 11 14  1  0  0  0  0
  9 10  1  0  0  0  0
  9 11  1  0  0  0  0
  9 22  1  0  0  0  0
  7  8  1  0  0  0  0
  7  9  1  0  0  0  0
 26 27  1  0  0  0  0
 26 28  1  0  0  0  0
 26 29  1  0  0  0  0
 24 25  1  0  0  0  0
 24 26  1  0  0  0  0
M  END
$$$$
default_name
  -OEChem-01062215323D

 29 28  0     1  0  0  0  0  0999 V2000
   -3.3998   -3.6239    1.3678 H   0  0  0  0  0  0  0  0  0  0  0  0
   -3.3608   -2.6749    0.8348 C   0  0  0  0  0  0  0  0  0  0  0  0
   -4.0988   -1.9909    1.2498 H   0  0  0  0  0  0  0  0  0  0  0  0
   -3.5618   -2.8419   -0.2222 H   0  0  0  0  0  0  0  0  0  0  0  0
   -1.9818   -2.0809    0.9918 C   0  0  0  0  0  0  0  0  0  0  0  0
   -1.1288   -2.6669    1.6468 O   0  0  0  0  0  0  0  0  0  0  0  0
   -1.7648   -0.9089    0.3998 N   0  0  0  0  0  0  0  0  0  0  0  0
   -2.5238   -0.4719   -0.1032 H   0  0  0  0  0  0  0  0  0  0  0  0
   -0.4848   -0.1959    0.4138 C   0  0  1  0  0  0  0  0  0  0  0  0
    0.0269   -0.4168    1.3520 H   0  0  0  0  0  0  0  0  0  0  0  0
    0.3867   -0.7174   -0.7454 C   0  0  0  0  0  0  0  0  0  0  0  0
   -0.1879   -0.6363   -1.6704 H   0  0  0  0  0  0  0  0  0  0  0  0
    1.2721   -0.0866   -0.8374 H   0  0  0  0  0  0  0  0  0  0  0  0
    0.8335   -2.1803   -0.5789 C   0  0  0  0  0  0  0  0  0  0  0  0
    1.4243   -2.2824    0.3311 H   0  0  0  0  0  0  0  0  0  0  0  0
   -0.0503   -2.8125   -0.4930 H   0  0  0  0  0  0  0  0  0  0  0  0
    1.6763   -2.6886   -1.7485 C   0  0  0  0  0  0  0  0  0  0  0  0
    1.9054   -2.0287   -2.7447 O   0  0  0  0  0  0  0  0  0  0  0  0
    2.1873   -3.8983   -1.6726 N   0  0  0  0  0  0  0  0  0  0  0  0
    2.7330   -4.1807   -2.4682 H   0  0  0  0  0  0  0  0  0  0  0  0
    2.0324   -4.4817   -0.8755 H   0  0  0  0  0  0  0  0  0  0  0  0
   -0.7120    1.3219    0.3405 C   0  0  0  0  0  0  0  0  0  0  0  0
   -0.8503    1.9779    1.3713 O   0  0  0  0  0  0  0  0  0  0  0  0
   -0.7613    1.8777   -0.8770 N   0  0  0  0  0  0  0  0  0  0  0  0
   -0.6142    1.2806   -1.6750 H   0  0  0  0  0  0  0  0  0  0  0  0
   -0.9831    3.3034   -1.1145 C   0  0  0  0  0  0  0  0  0  0  0  0
   -0.2234    3.8862   -0.5878 H   0  0  0  0  0  0  0  0  0  0  0  0
   -0.9290    3.5245   -2.1815 H   0  0  0  0  0  0  0  0  0  0  0  0
   -1.9644    3.5922   -0.7340 H   0  0  0  0  0  0  0  0  0  0  0  0
  5  6  2  0  0  0  0
  5  7  1  0  0  0  0
  2  3  1  0  0  0  0
  2  4  1  0  0  0  0
  2  5  1  0  0  0  0
  1  2  1  0  0  0  0
 22 23  2  0  0  0  0
 22 24  1  0  0  0  0
 19 20  1  0  0  0  0
 19 21  1  0  0  0  0
 17 18  2  0  0  0  0
 17 19  1  0  0  0  0
 14 15  1  0  0  0  0
 14 16  1  0  0  0  0
 14 17  1  0  0  0  0
 11 12  1  0  0  0  0
 11 13  1  0  0  0  0
 11 14  1  0  0  0  0
  9 10  1  0  0  0  0
  9 11  1  0  0  0  0
  9 22  1  0  0  0  0
  7  8  1  0  0  0  0
  7  9  1  0  0  0  0
 26 27  1  0  0  0  0
 26 28  1  0  0  0  0
 26 29  1  0  0  0  0
 24 25  1  0  0  0  0
 24 26  1  0  0  0  0
M  END
$$$$
default_name
  -OEChem-01062215323D

 29 28  0     1  0  0  0  0  0999 V2000
   -3.3998   -3.6239    1.3678 H   0  0  0  0  0  0  0  0  0  0  0  0
   -3.3608   -2.6749    0.8348 C   0  0  0  0  0  0  0  0  0  0  0  0
   -4.0988   -1.9909    1.2498 H   0  0  0  0  0  0  0  0  0  0  0  0
   -3.5618   -2.8419   -0.2222 H   0  0  0  0  0  0  0  0  0  0  0  0
   -1.9818   -2.0809    0.9918 C   0  0  0  0  0  0  0  0  0  0  0  0
   -1.1288   -2.6669    1.6468 O   0  0  0  0  0  0  0  0  0  0  0  0
   -1.7648   -0.9089    0.3998 N   0  0  0  0  0  0  0  0  0  0  0  0
   -2.5238   -0.4719   -0.1032 H   0  0  0  0  0  0  0  0  0  0  0  0
   -0.4848   -0.1959    0.4138 C   0  0  1  0  0  0  0  0  0  0  0  0
    0.0269   -0.4168    1.3520 H   0  0  0  0  0  0  0  0  0  0  0  0
    0.3867   -0.7174   -0.7454 C   0  0  0  0  0  0  0  0  0  0  0  0
   -0.1879   -0.6363   -1.6704 H   0  0  0  0  0  0  0  0  0  0  0  0
    1.2721   -0.0866   -0.8374 H   0  0  0  0  0  0  0  0  0  0  0  0
    0.8335   -2.1803   -0.5789 C   0  0  0  0  0  0  0  0  0  0  0  0
    1.4243   -2.2824    0.3311 H   0  0  0  0  0  0  0  0  0  0  0  0
   -0.0503   -2.8125   -0.4930 H   0  0  0  0  0  0  0  0  0  0  0  0
    1.6763   -2.6886   -1.7485 C   0  0  0  0  0  0  0  0  0  0  0  0
    1.9054   -2.0287   -2.7447 O   0  0  0  0  0  0  0  0  0  0  0  0
    2.1873   -3.8983   -1.6726 N   0  0  0  0  0  0  0  0  0  0  0  0
    2.7330   -4.1807   -2.4682 H   0  0  0  0  0  0  0  0  0  0  0  0
    2.0324   -4.4817   -0.8755 H   0  0  0  0  0  0  0  0  0  0  0  0
   -0.7120    1.3219    0.3405 C   0  0  0  0  0  0  0  0  0  0  0  0
   -0.5770    2.0175    1.3455 O   0  0  0  0  0  0  0  0  0  0  0  0
   -1.0671    1.8335   -0.8451 N   0  0  0  0  0  0  0  0  0  0  0  0
   -1.1336    1.2050   -1.6298 H   0  0  0  0  0  0  0  0  0  0  0  0
   -1.3318    3.2532   -1.0748 C   0  0  0  0  0  0  0  0  0  0  0  0
   -0.4583    3.8416   -0.7833 H   0  0  0  0  0  0  0  0  0  0  0  0
   -1.5509    3.4340   -2.1282 H   0  0  0  0  0  0  0  0  0  0  0  0
   -2.1809    3.5727   -0.4681 H   0  0  0  0  0  0  0  0  0  0  0  0
  5  6  2  0  0  0  0
  5  7  1  0  0  0  0
  2  3  1  0  0  0  0
  2  4  1  0  0  0  0
  2  5  1  0  0  0  0
  1  2  1  0  0  0  0
 22 23  2  0  0  0  0
 22 24  1  0  0  0  0
 19 20  1  0  0  0  0
 19 21  1  0  0  0  0
 17 18  2  0  0  0  0
 17 19  1  0  0  0  0
 14 15  1  0  0  0  0
 14 16  1  0  0  0  0
 14 17  1  0  0  0  0
 11 12  1  0  0  0  0
 11 13  1  0  0  0  0
 11 14  1  0  0  0  0
  9 10  1  0  0  0  0
  9 11  1  0  0  0  0
  9 22  1  0  0  0  0
  7  8  1  0  0  0  0
  7  9  1  0  0  0  0
 26 27  1  0  0  0  0
 26 28  1  0  0  0  0
 26 29  1  0  0  0  0
 24 25  1  0  0  0  0
 24 26  1  0  0  0  0
M  END
$$$$
default_name
  -OEChem-01062215323D

 29 28  0     1  0  0  0  0  0999 V2000
   -3.3998   -3.6239    1.3678 H   0  0  0  0  0  0  0  0  0  0  0  0
   -3.3608   -2.6749    0.8348 C   0  0  0  0  0  0  0  0  0  0  0  0
   -4.0988   -1.9909    1.2498 H   0  0  0  0  0  0  0  0  0  0  0  0
   -3.5618   -2.8419   -0.2222 H   0  0  0  0  0  0  0  0  0  0  0  0
   -1.9818   -2.0809    0.9918 C   0  0  0  0  0  0  0  0  0  0  0  0
   -1.1288   -2.6669    1.6468 O   0  0  0  0  0  0  0  0  0  0  0  0
   -1.7648   -0.9089    0.3998 N   0  0  0  0  0  0  0  0  0  0  0  0
   -2.5238   -0.4719   -0.1032 H   0  0  0  0  0  0  0  0  0  0  0  0
   -0.4848   -0.1959    0.4138 C   0  0  1  0  0  0  0  0  0  0  0  0
    0.0269   -0.4168    1.3520 H   0  0  0  0  0  0  0  0  0  0  0  0
    0.3867   -0.7174   -0.7454 C   0  0  0  0  0  0  0  0  0  0  0  0
   -0.1879   -0.6363   -1.6704 H   0  0  0  0  0  0  0  0  0  0  0  0
    1.2721   -0.0866   -0.8374 H   0  0  0  0  0  0  0  0  0  0  0  0
    0.8335   -2.1803   -0.5789 C   0  0  0  0  0  0  0  0  0  0  0  0
    1.4243   -2.2824    0.3311 H   0  0  0  0  0  0  0  0  0  0  0  0
   -0.0503   -2.8125   -0.4930 H   0  0  0  0  0  0  0  0  0  0  0  0
    1.6763   -2.6886   -1.7485 C   0  0  0  0  0  0  0  0  0  0  0  0
    1.9054   -2.0287   -2.7447 O   0  0  0  0  0  0  0  0  0  0  0  0
    2.1873   -3.8983   -1.6726 N   0  0  0  0  0  0  0  0  0  0  0  0
    2.7330   -4.1807   -2.4682 H   0  0  0  0  0  0  0  0  0  0  0  0
    2.0324   -4.4817   -0.8755 H   0  0  0  0  0  0  0  0  0  0  0  0
   -0.7120    1.3219    0.3405 C   0  0  0  0  0  0  0  0  0  0  0  0
   -0.3192    2.0514    1.2491 O   0  0  0  0  0  0  0  0  0  0  0  0
   -1.3549    1.7957   -0.7345 N   0  0  0  0  0  0  0  0  0  0  0  0
   -1.6246    1.1402   -1.4505 H   0  0  0  0  0  0  0  0  0  0  0  0
   -1.6591    3.2104   -0.9454 C   0  0  0  0  0  0  0  0  0  0  0  0
   -0.7358    3.7939   -0.9103 H   0  0  0  0  0  0  0  0  0  0  0  0
   -2.1392    3.3563   -1.9142 H   0  0  0  0  0  0  0  0  0  0  0  0
   -2.3222    3.5666   -0.1552 H   0  0  0  0  0  0  0  0  0  0  0  0
  5  6  2  0  0  0  0
  5  7  1  0  0  0  0
  2  3  1  0  0  0  0
  2  4  1  0  0  0  0
  2  5  1  0  0  0  0
  1  2  1  0  0  0  0
 22 23  2  0  0  0  0
 22 24  1  0  0  0  0
 19 20  1  0  0  0  0
 19 21  1  0  0  0  0
 17 18  2  0  0  0  0
 17 19  1  0  0  0  0
 14 15  1  0  0  0  0
 14 16  1  0  0  0  0
 14 17  1  0  0  0  0
 11 12  1  0  0  0  0
 11 13  1  0  0  0  0
 11 14  1  0  0  0  0
  9 10  1  0  0  0  0
  9 11  1  0  0  0  0
  9 22  1  0  0  0  0
  7  8  1  0  0  0  0
  7  9  1  0  0  0  0
 26 27  1  0  0  0  0
 26 28  1  0  0  0  0
 26 29  1  0  0  0  0
 24 25  1  0  0  0  0
 24 26  1  0  0  0  0
M  END
$$$$
default_name
  -OEChem-01062215323D

 29 28  0     1  0  0  0  0  0999 V2000
   -3.3998   -3.6239    1.3678 H   0  0  0  0  0  0  0  0  0  0  0  0
   -3.3608   -2.6749    0.8348 C   0  0  0  0  0  0  0  0  0  0  0  0
   -4.0988   -1.9909    1.2498 H   0  0  0  0  0  0  0  0  0  0  0  0
   -3.5618   -2.8419   -0.2222 H   0  0  0  0  0  0  0  0  0  0  0  0
   -1.9818   -2.0809    0.9918 C   0  0  0  0  0  0  0  0  0  0  0  0
   -1.1288   -2.6669    1.6468 O   0  0  0  0  0  0  0  0  0  0  0  0
   -1.7648   -0.9089    0.3998 N   0  0  0  0  0  0  0  0  0  0  0  0
   -2.5238   -0.4719   -0.1032 H   0  0  0  0  0  0  0  0  0  0  0  0
   -0.4848   -0.1959    0.4138 C   0  0  1  0  0  0  0  0  0  0  0  0
    0.0269   -0.4168    1.3520 H   0  0  0  0  0  0  0  0  0  0  0  0
    0.3867   -0.7174   -0.7454 C   0  0  0  0  0  0  0  0  0  0  0  0
   -0.1879   -0.6363   -1.6704 H   0  0  0  0  0  0  0  0  0  0  0  0
    1.2721   -0.0866   -0.8374 H   0  0  0  0  0  0  0  0  0  0  0  0
    0.8335   -2.1803   -0.5789 C   0  0  0  0  0  0  0  0  0  0  0  0
    1.4243   -2.2824    0.3311 H   0  0  0  0  0  0  0  0  0  0  0  0
   -0.0503   -2.8125   -0.4930 H   0  0  0  0  0  0  0  0  0  0  0  0
    1.6763   -2.6886   -1.7485 C   0  0  0  0  0  0  0  0  0  0  0  0
    1.9054   -2.0287   -2.7447 O   0  0  0  0  0  0  0  0  0  0  0  0
    2.1873   -3.8983   -1.6726 N   0  0  0  0  0  0  0  0  0  0  0  0
    2.7330   -4.1807   -2.4682 H   0  0  0  0  0  0  0  0  0  0  0  0
    2.0324   -4.4817   -0.8755 H   0  0  0  0  0  0  0  0  0  0  0  0
   -0.7120    1.3219    0.3405 C   0  0  0  0  0  0  0  0  0  0  0  0
   -0.0944    2.0774    1.0888 O   0  0  0  0  0  0  0  0  0  0  0  0
   -1.6051    1.7671   -0.5526 N   0  0  0  0  0  0  0  0  0  0  0  0
   -2.0539    1.0905   -1.1492 H   0  0  0  0  0  0  0  0  0  0  0  0
   -1.9427    3.1781   -0.7350 C   0  0  0  0  0  0  0  0  0  0  0  0
   -1.0369    3.7464   -0.9603 H   0  0  0  0  0  0  0  0  0  0  0  0
   -2.6536    3.2967   -1.5541 H   0  0  0  0  0  0  0  0  0  0  0  0
   -2.3789    3.5745    0.1835 H   0  0  0  0  0  0  0  0  0  0  0  0
  5  6  2  0  0  0  0
  5  7  1  0  0  0  0
  2  3  1  0  0  0  0
  2  4  1  0  0  0  0
  2  5  1  0  0  0  0
  1  2  1  0  0  0  0
 22 23  2  0  0  0  0
 22 24  1  0  0  0  0
 19 20  1  0  0  0  0
 19 21  1  0  0  0  0
 17 18  2  0  0  0  0
 17 19  1  0  0  0  0
 14 15  1  0  0  0  0
 14 16  1  0  0  0  0
 14 17  1  0  0  0  0
 11 12  1  0  0  0  0
 11 13  1  0  0  0  0
 11 14  1  0  0  0  0
  9 10  1  0  0  0  0
  9 11  1  0  0  0  0
  9 22  1  0  0  0  0
  7  8  1  0  0  0  0
  7  9  1  0  0  0  0
 26 27  1  0  0  0  0
 26 28  1  0  0  0  0
 26 29  1  0  0  0  0
 24 25  1  0  0  0  0
 24 26  1  0  0  0  0
M  END
$$$$
default_name
  -OEChem-01062215323D

 29 28  0     1  0  0  0  0  0999 V2000
   -3.3998   -3.6239    1.3678 H   0  0  0  0  0  0  0  0  0  0  0  0
   -3.3608   -2.6749    0.8348 C   0  0  0  0  0  0  0  0  0  0  0  0
   -4.0988   -1.9909    1.2498 H   0  0  0  0  0  0  0  0  0  0  0  0
   -3.5618   -2.8419   -0.2222 H   0  0  0  0  0  0  0  0  0  0  0  0
   -1.9818   -2.0809    0.9918 C   0  0  0  0  0  0  0  0  0  0  0  0
   -1.1288   -2.6669    1.6468 O   0  0  0  0  0  0  0  0  0  0  0  0
   -1.7648   -0.9089    0.3998 N   0  0  0  0  0  0  0  0  0  0  0  0
   -2.5238   -0.4719   -0.1032 H   0  0  0  0  0  0  0  0  0  0  0  0
   -0.4848   -0.1959    0.4138 C   0  0  1  0  0  0  0  0  0  0  0  0
    0.0269   -0.4168    1.3520 H   0  0  0  0  0  0  0  0  0  0  0  0
    0.3867   -0.7174   -0.7454 C   0  0  0  0  0  0  0  0  0  0  0  0
   -0.1879   -0.6363   -1.6704 H   0  0  0  0  0  0  0  0  0  0  0  0
    1.2721   -0.0866   -0.8374 H   0  0  0  0  0  0  0  0  0  0  0  0
    0.8335   -2.1803   -0.5789 C   0  0  0  0  0  0  0  0  0  0  0  0
    1.4243   -2.2824    0.3311 H   0  0  0  0  0  0  0  0  0  0  0  0
   -0.0503   -2.8125   -0.4930 H   0  0  0  0  0  0  0  0  0  0  0  0
    1.6763   -2.6886   -1.7485 C   0  0  0  0  0  0  0  0  0  0  0  0
    1.9054   -2.0287   -2.7447 O   0  0  0  0  0  0  0  0  0  0  0  0
    2.1873   -3.8983   -1.6726 N   0  0  0  0  0  0  0  0  0  0  0  0
    2.7330   -4.1807   -2.4682 H   0  0  0  0  0  0  0  0  0  0  0  0
    2.0324   -4.4817   -0.8755 H   0  0  0  0  0  0  0  0  0  0  0  0
   -0.7120    1.3219    0.3405 C   0  0  0  0  0  0  0  0  0  0  0  0
    0.0821    2.0935    0.8755 O   0  0  0  0  0  0  0  0  0  0  0  0
   -1.8006    1.7494   -0.3119 N   0  0  0  0  0  0  0  0  0  0  0  0
   -2.3921    1.0593   -0.7466 H   0  0  0  0  0  0  0  0  0  0  0  0
   -2.1632    3.1585   -0.4581 C   0  0  0  0  0  0  0  0  0  0  0  0
   -1.3410    3.7024   -0.9298 H   0  0  0  0  0  0  0  0  0  0  0  0
   -3.0592    3.2593   -1.0725 H   0  0  0  0  0  0  0  0  0  0  0  0
   -2.3469    3.5958    0.5248 H   0  0  0  0  0  0  0  0  0  0  0  0
  5  6  2  0  0  0  0
  5  7  1  0  0  0  0
  2  3  1  0  0  0  0
  2  4  1  0  0  0  0
  2  5  1  0  0  0  0
  1  2  1  0  0  0  0
 22 23  2  0  0  0  0
 22 24  1  0  0  0  0
 19 20  1  0  0  0  0
 19 21  1  0  0  0  0
 17 18  2  0  0  0  0
 17 19  1  0  0  0  0
 14 15  1  0  0  0  0
 14 16  1  0  0  0  0
 14 17  1  0  0  0  0
 11 12  1  0  0  0  0
 11 13  1  0  0  0  0
 11 14  1  0  0  0  0
  9 10  1  0  0  0  0
  9 11  1  0  0  0  0
  9 22  1  0  0  0  0
  7  8  1  0  0  0  0
  7  9  1  0  0  0  0
 26 27  1  0  0  0  0
 26 28  1  0  0  0  0
 26 29  1  0  0  0  0
 24 25  1  0  0  0  0
 24 26  1  0  0  0  0
M  END
$$$$
default_name
  -OEChem-01062215323D

 29 28  0     1  0  0  0  0  0999 V2000
   -3.3998   -3.6239    1.3678 H   0  0  0  0  0  0  0  0  0  0  0  0
   -3.3608   -2.6749    0.8348 C   0  0  0  0  0  0  0  0  0  0  0  0
   -4.0988   -1.9909    1.2498 H   0  0  0  0  0  0  0  0  0  0  0  0
   -3.5618   -2.8419   -0.2222 H   0  0  0  0  0  0  0  0  0  0  0  0
   -1.9818   -2.0809    0.9918 C   0  0  0  0  0  0  0  0  0  0  0  0
   -1.1288   -2.6669    1.6468 O   0  0  0  0  0  0  0  0  0  0  0  0
   -1.7648   -0.9089    0.3998 N   0  0  0  0  0  0  0  0  0  0  0  0
   -2.5238   -0.4719   -0.1032 H   0  0  0  0  0  0  0  0  0  0  0  0
   -0.4848   -0.1959    0.4138 C   0  0  1  0  0  0  0  0  0  0  0  0
    0.0269   -0.4168    1.3520 H   0  0  0  0  0  0  0  0  0  0  0  0
    0.3867   -0.7174   -0.7454 C   0  0  0  0  0  0  0  0  0  0  0  0
   -0.1879   -0.6363   -1.6704 H   0  0  0  0  0  0  0  0  0  0  0  0
    1.2721   -0.0866   -0.8374 H   0  0  0  0  0  0  0  0  0  0  0  0
    0.8335   -2.1803   -0.5789 C   0  0  0  0  0  0  0  0  0  0  0  0
    1.4243   -2.2824    0.3311 H   0  0  0  0  0  0  0  0  0  0  0  0
   -0.0503   -2.8125   -0.4930 H   0  0  0  0  0  0  0  0  0  0  0  0
    1.6763   -2.6886   -1.7485 C   0  0  0  0  0  0  0  0  0  0  0  0
    1.9054   -2.0287   -2.7447 O   0  0  0  0  0  0  0  0  0  0  0  0
    2.1873   -3.8983   -1.6726 N   0  0  0  0  0  0  0  0  0  0  0  0
    2.7330   -4.1807   -2.4682 H   0  0  0  0  0  0  0  0  0  0  0  0
    2.0324   -4.4817   -0.8755 H   0  0  0  0  0  0  0  0  0  0  0  0
   -0.7120    1.3219    0.3405 C   0  0  0  0  0  0  0  0  0  0  0  0
    0.1982    2.0987    0.6237 O   0  0  0  0  0  0  0  0  0  0  0  0
   -1.9281    1.7440   -0.0287 N   0  0  0  0  0  0  0  0  0  0  0  0
   -2.6162    1.0488   -0.2700 H   0  0  0  0  0  0  0  0  0  0  0  0
   -2.3057    3.1529   -0.1335 C   0  0  0  0  0  0  0  0  0  0  0  0
   -1.6276    3.6647   -0.8208 H   0  0  0  0  0  0  0  0  0  0  0  0
   -3.3283    3.2465   -0.5021 H   0  0  0  0  0  0  0  0  0  0  0  0
   -2.2285    3.6290    0.8454 H   0  0  0  0  0  0  0  0  0  0  0  0
  5  6  2  0  0  0  0
  5  7  1  0  0  0  0
  2  3  1  0  0  0  0
  2  4  1  0  0  0  0
  2  5  1  0  0  0  0
  1  2  1  0  0  0  0
 22 23  2  0  0  0  0
 22 24  1  0  0  0  0
 19 20  1  0  0  0  0
 19 21  1  0  0  0  0
 17 18  2  0  0  0  0
 17 19  1  0  0  0  0
 14 15  1  0  0  0  0
 14 16  1  0  0  0  0
 14 17  1  0  0  0  0
 11 12  1  0  0  0  0
 11 13  1  0  0  0  0
 11 14  1  0  0  0  0
  9 10  1  0  0  0  0
  9 11  1  0  0  0  0
  9 22  1  0  0  0  0
  7  8  1  0  0  0  0
  7  9  1  0  0  0  0
 26 27  1  0  0  0  0
 26 28  1  0  0  0  0
 26 29  1  0  0  0  0
 24 25  1  0  0  0  0
 24 26  1  0  0  0  0
M  END
$$$$
default_name
  -OEChem-01062215323D

 29 28  0     1  0  0  0  0  0999 V2000
   -3.3998   -3.6239    1.3678 H   0  0  0  0  0  0  0  0  0  0  0  0
   -3.3608   -2.6749    0.8348 C   0  0  0  0  0  0  0  0  0  0  0  0
   -4.0988   -1.9909    1.2498 H   0  0  0  0  0  0  0  0  0  0  0  0
   -3.5618   -2.8419   -0.2222 H   0  0  0  0  0  0  0  0  0  0  0  0
   -1.9818   -2.0809    0.9918 C   0  0  0  0  0  0  0  0  0  0  0  0
   -1.1288   -2.6669    1.6468 O   0  0  0  0  0  0  0  0  0  0  0  0
   -1.7648   -0.9089    0.3998 N   0  0  0  0  0  0  0  0  0  0  0  0
   -2.5238   -0.4719   -0.1032 H   0  0  0  0  0  0  0  0  0  0  0  0
   -0.4848   -0.1959    0.4138 C   0  0  1  0  0  0  0  0  0  0  0  0
    0.0269   -0.4168    1.3520 H   0  0  0  0  0  0  0  0  0  0  0  0
    0.3867   -0.7174   -0.7454 C   0  0  0  0  0  0  0  0  0  0  0  0
   -0.1879   -0.6363   -1.6704 H   0  0  0  0  0  0  0  0  0  0  0  0
    1.2721   -0.0866   -0.8374 H   0  0  0  0  0  0  0  0  0  0  0  0
    0.8335   -2.1803   -0.5789 C   0  0  0  0  0  0  0  0  0  0  0  0
    1.4243   -2.2824    0.3311 H   0  0  0  0  0  0  0  0  0  0  0  0
   -0.0503   -2.8125   -0.4930 H   0  0  0  0  0  0  0  0  0  0  0  0
    1.6763   -2.6886   -1.7485 C   0  0  0  0  0  0  0  0  0  0  0  0
    1.9054   -2.0287   -2.7447 O   0  0  0  0  0  0  0  0  0  0  0  0
    2.1873   -3.8983   -1.6726 N   0  0  0  0  0  0  0  0  0  0  0  0
    2.7330   -4.1807   -2.4682 H   0  0  0  0  0  0  0  0  0  0  0  0
    2.0324   -4.4817   -0.8755 H   0  0  0  0  0  0  0  0  0  0  0  0
   -0.7120    1.3219    0.3405 C   0  0  0  0  0  0  0  0  0  0  0  0
    0.2461    2.0927    0.3506 O   0  0  0  0  0  0  0  0  0  0  0  0
   -1.9789    1.7512    0.2777 N   0  0  0  0  0  0  0  0  0  0  0  0
   -2.7110    1.0596    0.2481 H   0  0  0  0  0  0  0  0  0  0  0  0
   -2.3603    3.1616    0.2167 C   0  0  0  0  0  0  0  0  0  0  0  0
   -1.8770    3.6361   -0.6409 H   0  0  0  0  0  0  0  0  0  0  0  0
   -3.4425    3.2594    0.1180 H   0  0  0  0  0  0  0  0  0  0  0  0
   -2.0317    3.6719    1.1236 H   0  0  0  0  0  0  0  0  0  0  0  0
  5  6  2  0  0  0  0
  5  7  1  0  0  0  0
  2  3  1  0  0  0  0
  2  4  1  0  0  0  0
  2  5  1  0  0  0  0
  1  2  1  0  0  0  0
 22 23  2  0  0  0  0
 22 24  1  0  0  0  0
 19 20  1  0  0  0  0
 19 21  1  0  0  0  0
 17 18  2  0  0  0  0
 17 19  1  0  0  0  0
 14 15  1  0  0  0  0
 14 16  1  0  0  0  0
 14 17  1  0  0  0  0
 11 12  1  0  0  0  0
 11 13  1  0  0  0  0
 11 14  1  0  0  0  0
  9 10  1  0  0  0  0
  9 11  1  0  0  0  0
  9 22  1  0  0  0  0
  7  8  1  0  0  0  0
  7  9  1  0  0  0  0
 26 27  1  0  0  0  0
 26 28  1  0  0  0  0
 26 29  1  0  0  0  0
 24 25  1  0  0  0  0
 24 26  1  0  0  0  0
M  END
$$$$
default_name
  -OEChem-01062215323D

 29 28  0     1  0  0  0  0  0999 V2000
   -3.3998   -3.6239    1.3678 H   0  0  0  0  0  0  0  0  0  0  0  0
   -3.3608   -2.6749    0.8348 C   0  0  0  0  0  0  0  0  0  0  0  0
   -4.0988   -1.9909    1.2498 H   0  0  0  0  0  0  0  0  0  0  0  0
   -3.5618   -2.8419   -0.2222 H   0  0  0  0  0  0  0  0  0  0  0  0
   -1.9818   -2.0809    0.9918 C   0  0  0  0  0  0  0  0  0  0  0  0
   -1.1288   -2.6669    1.6468 O   0  0  0  0  0  0  0  0  0  0  0  0
   -1.7648   -0.9089    0.3998 N   0  0  0  0  0  0  0  0  0  0  0  0
   -2.5238   -0.4719   -0.1032 H   0  0  0  0  0  0  0  0  0  0  0  0
   -0.4848   -0.1959    0.4138 C   0  0  1  0  0  0  0  0  0  0  0  0
    0.0269   -0.4168    1.3520 H   0  0  0  0  0  0  0  0  0  0  0  0
    0.3867   -0.7174   -0.7454 C   0  0  0  0  0  0  0  0  0  0  0  0
   -0.1879   -0.6363   -1.6704 H   0  0  0  0  0  0  0  0  0  0  0  0
    1.2721   -0.0866   -0.8374 H   0  0  0  0  0  0  0  0  0  0  0  0
    0.8335   -2.1803   -0.5789 C   0  0  0  0  0  0  0  0  0  0  0  0
    1.4243   -2.2824    0.3311 H   0  0  0  0  0  0  0  0  0  0  0  0
   -0.0503   -2.8125   -0.4930 H   0  0  0  0  0  0  0  0  0  0  0  0
    1.6763   -2.6886   -1.7485 C   0  0  0  0  0  0  0  0  0  0  0  0
    1.9054   -2.0287   -2.7447 O   0  0  0  0  0  0  0  0  0  0  0  0
    2.1873   -3.8983   -1.6726 N   0  0  0  0  0  0  0  0  0  0  0  0
    2.7330   -4.1807   -2.4682 H   0  0  0  0  0  0  0  0  0  0  0  0
    2.0324   -4.4817   -0.8755 H   0  0  0  0  0  0  0  0  0  0  0  0
   -0.7120    1.3219    0.3405 C   0  0  0  0  0  0  0  0  0  0  0  0
    0.2225    2.0758    0.0748 O   0  0  0  0  0  0  0  0  0  0  0  0
   -1.9496    1.7705    0.5864 N   0  0  0  0  0  0  0  0  0  0  0  0
   -2.6700    1.0911    0.7723 H   0  0  0  0  0  0  0  0  0  0  0  0
   -2.3235    3.1841    0.5686 C   0  0  0  0  0  0  0  0  0  0  0  0
   -2.0722    3.6184   -0.4022 H   0  0  0  0  0  0  0  0  0  0  0  0
   -3.3941    3.2970    0.7458 H   0  0  0  0  0  0  0  0  0  0  0  0
   -1.7699    3.7215    1.3404 H   0  0  0  0  0  0  0  0  0  0  0  0
  5  6  2  0  0  0  0
  5  7  1  0  0  0  0
  2  3  1  0  0  0  0
  2  4  1  0  0  0  0
  2  5  1  0  0  0  0
  1  2  1  0  0  0  0
 22 23  2  0  0  0  0
 22 24  1  0  0  0  0
 19 20  1  0  0  0  0
 19 21  1  0  0  0  0
 17 18  2  0  0  0  0
 17 19  1  0  0  0  0
 14 15  1  0  0  0  0
 14 16  1  0  0  0  0
 14 17  1  0  0  0  0
 11 12  1  0  0  0  0
 11 13  1  0  0  0  0
 11 14  1  0  0  0  0
  9 10  1  0  0  0  0
  9 11  1  0  0  0  0
  9 22  1  0  0  0  0
  7  8  1  0  0  0  0
  7  9  1  0  0  0  0
 26 27  1  0  0  0  0
 26 28  1  0  0  0  0
 26 29  1  0  0  0  0
 24 25  1  0  0  0  0
 24 26  1  0  0  0  0
M  END
$$$$
default_name
  -OEChem-01062215323D

 29 28  0     1  0  0  0  0  0999 V2000
   -3.3998   -3.6239    1.3678 H   0  0  0  0  0  0  0  0  0  0  0  0
   -3.3608   -2.6749    0.8348 C   0  0  0  0  0  0  0  0  0  0  0  0
   -4.0988   -1.9909    1.2498 H   0  0  0  0  0  0  0  0  0  0  0  0
   -3.5618   -2.8419   -0.2222 H   0  0  0  0  0  0  0  0  0  0  0  0
   -1.9818   -2.0809    0.9918 C   0  0  0  0  0  0  0  0  0  0  0  0
   -1.1288   -2.6669    1.6468 O   0  0  0  0  0  0  0  0  0  0  0  0
   -1.7648   -0.9089    0.3998 N   0  0  0  0  0  0  0  0  0  0  0  0
   -2.5238   -0.4719   -0.1032 H   0  0  0  0  0  0  0  0  0  0  0  0
   -0.4848   -0.1959    0.4138 C   0  0  1  0  0  0  0  0  0  0  0  0
    0.0269   -0.4168    1.3520 H   0  0  0  0  0  0  0  0  0  0  0  0
    0.3867   -0.7174   -0.7454 C   0  0  0  0  0  0  0  0  0  0  0  0
   -0.1879   -0.6363   -1.6704 H   0  0  0  0  0  0  0  0  0  0  0  0
    1.2721   -0.0866   -0.8374 H   0  0  0  0  0  0  0  0  0  0  0  0
    0.8335   -2.1803   -0.5789 C   0  0  0  0  0  0  0  0  0  0  0  0
    1.4243   -2.2824    0.3311 H   0  0  0  0  0  0  0  0  0  0  0  0
   -0.0503   -2.8125   -0.4930 H   0  0  0  0  0  0  0  0  0  0  0  0
    1.6763   -2.6886   -1.7485 C   0  0  0  0  0  0  0  0  0  0  0  0
    1.9054   -2.0287   -2.7447 O   0  0  0  0  0  0  0  0  0  0  0  0
    2.1873   -3.8983   -1.6726 N   0  0  0  0  0  0  0  0  0  0  0  0
    2.7330   -4.1807   -2.4682 H   0  0  0  0  0  0  0  0  0  0  0  0
    2.0324   -4.4817   -0.8755 H   0  0  0  0  0  0  0  0  0  0  0  0
   -0.7120    1.3219    0.3405 C   0  0  0  0  0  0  0  0  0  0  0  0
    0.1289    2.0492   -0.1849 O   0  0  0  0  0  0  0  0  0  0  0  0
   -1.8421    1.8006    0.8763 N   0  0  0  0  0  0  0  0  0  0  0  0
   -2.4959    1.1410    1.2670 H   0  0  0  0  0  0  0  0  0  0  0  0
   -2.1977    3.2189    0.8982 C   0  0  0  0  0  0  0  0  0  0  0  0
   -2.2000    3.6128   -0.1211 H   0  0  0  0  0  0  0  0  0  0  0  0
   -3.1864    3.3567    1.3384 H   0  0  0  0  0  0  0  0  0  0  0  0
   -1.4611    3.7746    1.4810 H   0  0  0  0  0  0  0  0  0  0  0  0
  5  6  2  0  0  0  0
  5  7  1  0  0  0  0
  2  3  1  0  0  0  0
  2  4  1  0  0  0  0
  2  5  1  0  0  0  0
  1  2  1  0  0  0  0
 22 23  2  0  0  0  0
 22 24  1  0  0  0  0
 19 20  1  0  0  0  0
 19 21  1  0  0  0  0
 17 18  2  0  0  0  0
 17 19  1  0  0  0  0
 14 15  1  0  0  0  0
 14 16  1  0  0  0  0
 14 17  1  0  0  0  0
 11 12  1  0  0  0  0
 11 13  1  0  0  0  0
 11 14  1  0  0  0  0
  9 10  1  0  0  0  0
  9 11  1  0  0  0  0
  9 22  1  0  0  0  0
  7  8  1  0  0  0  0
  7  9  1  0  0  0  0
 26 27  1  0  0  0  0
 26 28  1  0  0  0  0
 26 29  1  0  0  0  0
 24 25  1  0  0  0  0
 24 26  1  0  0  0  0
M  END
$$$$
default_name
  -OEChem-01062215323D

 29 28  0     1  0  0  0  0  0999 V2000
   -3.3998   -3.6239    1.3678 H   0  0  0  0  0  0  0  0  0  0  0  0
   -3.3608   -2.6749    0.8348 C   0  0  0  0  0  0  0  0  0  0  0  0
   -4.0988   -1.9909    1.2498 H   0  0  0  0  0  0  0  0  0  0  0  0
   -3.5618   -2.8419   -0.2222 H   0  0  0  0  0  0  0  0  0  0  0  0
   -1.9818   -2.0809    0.9918 C   0  0  0  0  0  0  0  0  0  0  0  0
   -1.1288   -2.6669    1.6468 O   0  0  0  0  0  0  0  0  0  0  0  0
   -1.7648   -0.9089    0.3998 N   0  0  0  0  0  0  0  0  0  0  0  0
   -2.5238   -0.4719   -0.1032 H   0  0  0  0  0  0  0  0  0  0  0  0
   -0.4848   -0.1959    0.4138 C   0  0  1  0  0  0  0  0  0  0  0  0
    0.0269   -0.4168    1.3520 H   0  0  0  0  0  0  0  0  0  0  0  0
    0.3867   -0.7174   -0.7454 C   0  0  0  0  0  0  0  0  0  0  0  0
   -0.1879   -0.6363   -1.6704 H   0  0  0  0  0  0  0  0  0  0  0  0
    1.2721   -0.0866   -0.8374 H   0  0  0  0  0  0  0  0  0  0  0  0
    0.8335   -2.1803   -0.5789 C   0  0  0  0  0  0  0  0  0  0  0  0
    1.4243   -2.2824    0.3311 H   0  0  0  0  0  0  0  0  0  0  0  0
   -0.0503   -2.8125   -0.4930 H   0  0  0  0  0  0  0  0  0  0  0  0
    1.6763   -2.6886   -1.7485 C   0  0  0  0  0  0  0  0  0  0  0  0
    1.9054   -2.0287   -2.7447 O   0  0  0  0  0  0  0  0  0  0  0  0
    2.1873   -3.8983   -1.6726 N   0  0  0  0  0  0  0  0  0  0  0  0
    2.7330   -4.1807   -2.4682 H   0  0  0  0  0  0  0  0  0  0  0  0
    2.0324   -4.4817   -0.8755 H   0  0  0  0  0  0  0  0  0  0  0  0
   -0.7120    1.3219    0.3405 C   0  0  0  0  0  0  0  0  0  0  0  0
   -0.0282    2.0148   -0.4109 O   0  0  0  0  0  0  0  0  0  0  0  0
   -1.6638    1.8394    1.1276 N   0  0  0  0  0  0  0  0  0  0  0  0
   -2.2007    1.2061    1.6984 H   0  0  0  0  0  0  0  0  0  0  0  0
   -1.9914    3.2635    1.1831 C   0  0  0  0  0  0  0  0  0  0  0  0
   -2.2517    3.6198    0.1834 H   0  0  0  0  0  0  0  0  0  0  0  0
   -2.8336    3.4345    1.8554 H   0  0  0  0  0  0  0  0  0  0  0  0
   -1.1261    3.8273    1.5357 H   0  0  0  0  0  0  0  0  0  0  0  0
  5  6  2  0  0  0  0
  5  7  1  0  0  0  0
  2  3  1  0  0  0  0
  2  4  1  0  0  0  0
  2  5  1  0  0  0  0
  1  2  1  0  0  0  0
 22 23  2  0  0  0  0
 22 24  1  0  0  0  0
 19 20  1  0  0  0  0
 19 21  1  0  0  0  0
 17 18  2  0  0  0  0
 17 19  1  0  0  0  0
 14 15  1  0  0  0  0
 14 16  1  0  0  0  0
 14 17  1  0  0  0  0
 11 12  1  0  0  0  0
 11 13  1  0  0  0  0
 11 14  1  0  0  0  0
  9 10  1  0  0  0  0
  9 11  1  0  0  0  0
  9 22  1  0  0  0  0
  7  8  1  0  0  0  0
  7  9  1  0  0  0  0
 26 27  1  0  0  0  0
 26 28  1  0  0  0  0
 26 29  1  0  0  0  0
 24 25  1  0  0  0  0
 24 26  1  0  0  0  0
M  END
$$$$
default_name
  -OEChem-01062215323D

 29 28  0     1  0  0  0  0  0999 V2000
   -3.3998   -3.6239    1.3678 H   0  0  0  0  0  0  0  0  0  0  0  0
   -3.3608   -2.6749    0.8348 C   0  0  0  0  0  0  0  0  0  0  0  0
   -4.0988   -1.9909    1.2498 H   0  0  0  0  0  0  0  0  0  0  0  0
   -3.5618   -2.8419   -0.2222 H   0  0  0  0  0  0  0  0  0  0  0  0
   -1.9818   -2.0809    0.9918 C   0  0  0  0  0  0  0  0  0  0  0  0
   -1.1288   -2.6669    1.6468 O   0  0  0  0  0  0  0  0  0  0  0  0
   -1.7648   -0.9089    0.3998 N   0  0  0  0  0  0  0  0  0  0  0  0
   -2.5238   -0.4719   -0.1032 H   0  0  0  0  0  0  0  0  0  0  0  0
   -0.4848   -0.1959    0.4138 C   0  0  1  0  0  0  0  0  0  0  0  0
    0.0269   -0.4168    1.3520 H   0  0  0  0  0  0  0  0  0  0  0  0
    0.3867   -0.7174   -0.7454 C   0  0  0  0  0  0  0  0  0  0  0  0
   -0.1879   -0.6363   -1.6704 H   0  0  0  0  0  0  0  0  0  0  0  0
    1.2721   -0.0866   -0.8374 H   0  0  0  0  0  0  0  0  0  0  0  0
    0.8335   -2.1803   -0.5789 C   0  0  0  0  0  0  0  0  0  0  0  0
    1.4243   -2.2824    0.3311 H   0  0  0  0  0  0  0  0  0  0  0  0
   -0.0503   -2.8125   -0.4930 H   0  0  0  0  0  0  0  0  0  0  0  0
    1.6763   -2.6886   -1.7485 C   0  0  0  0  0  0  0  0  0  0  0  0
    1.9054   -2.0287   -2.7447 O   0  0  0  0  0  0  0  0  0  0  0  0
    2.1873   -3.8983   -1.6726 N   0  0  0  0  0  0  0  0  0  0  0  0
    2.7330   -4.1807   -2.4682 H   0  0  0  0  0  0  0  0  0  0  0  0
    2.0324   -4.4817   -0.8755 H   0  0  0  0  0  0  0  0  0  0  0  0
   -0.7120    1.3219    0.3405 C   0  0  0  0  0  0  0  0  0  0  0  0
   -0.2382    1.9748   -0.5876 O   0  0  0  0  0  0  0  0  0  0  0  0
   -1.4268    1.8844    1.3234 N   0  0  0  0  0  0  0  0  0  0  0  0
   -1.8044    1.2818    2.0371 H   0  0  0  0  0  0  0  0  0  0  0  0
   -1.7188    3.3150    1.4039 C   0  0  0  0  0  0  0  0  0  0  0  0
   -2.2236    3.6389    0.4904 H   0  0  0  0  0  0  0  0  0  0  0  0
   -2.3596    3.5251    2.2616 H   0  0  0  0  0  0  0  0  0  0  0  0
   -0.7880    3.8763    1.5010 H   0  0  0  0  0  0  0  0  0  0  0  0
  5  6  2  0  0  0  0
  5  7  1  0  0  0  0
  2  3  1  0  0  0  0
  2  4  1  0  0  0  0
  2  5  1  0  0  0  0
  1  2  1  0  0  0  0
 22 23  2  0  0  0  0
 22 24  1  0  0  0  0
 19 20  1  0  0  0  0
 19 21  1  0  0  0  0
 17 18  2  0  0  0  0
 17 19  1  0  0  0  0
 14 15  1  0  0  0  0
 14 16  1  0  0  0  0
 14 17  1  0  0  0  0
 11 12  1  0  0  0  0
 11 13  1  0  0  0  0
 11 14  1  0  0  0  0
  9 10  1  0  0  0  0
  9 11  1  0  0  0  0
  9 22  1  0  0  0  0
  7  8  1  0  0  0  0
  7  9  1  0  0  0  0
 26 27  1  0  0  0  0
 26 28  1  0  0  0  0
 26 29  1  0  0  0  0
 24 25  1  0  0  0  0
 24 26  1  0  0  0  0
M  END
$$$$
default_name
  -OEChem-01062215323D

 29 28  0     1  0  0  0  0  0999 V2000
   -3.3998   -3.6239    1.3678 H   0  0  0  0  0  0  0  0  0  0  0  0
   -3.3608   -2.6749    0.8348 C   0  0  0  0  0  0  0  0  0  0  0  0
   -4.0988   -1.9909    1.2498 H   0  0  0  0  0  0  0  0  0  0  0  0
   -3.5618   -2.8419   -0.2222 H   0  0  0  0  0  0  0  0  0  0  0  0
   -1.9818   -2.0809    0.9918 C   0  0  0  0  0  0  0  0  0  0  0  0
   -1.1288   -2.6669    1.6468 O   0  0  0  0  0  0  0  0  0  0  0  0
   -1.7648   -0.9089    0.3998 N   0  0  0  0  0  0  0  0  0  0  0  0
   -2.5238   -0.4719   -0.1032 H   0  0  0  0  0  0  0  0  0  0  0  0
   -0.4848   -0.1959    0.4138 C   0  0  1  0  0  0  0  0  0  0  0  0
    0.0269   -0.4168    1.3520 H   0  0  0  0  0  0  0  0  0  0  0  0
    0.3867   -0.7174   -0.7454 C   0  0  0  0  0  0  0  0  0  0  0  0
   -0.1879   -0.6363   -1.6704 H   0  0  0  0  0  0  0  0  0  0  0  0
    1.2721   -0.0866   -0.8374 H   0  0  0  0  0  0  0  0  0  0  0  0
    0.8335   -2.1803   -0.5789 C   0  0  0  0  0  0  0  0  0  0  0  0
    1.4243   -2.2824    0.3311 H   0  0  0  0  0  0  0  0  0  0  0  0
   -0.0503   -2.8125   -0.4930 H   0  0  0  0  0  0  0  0  0  0  0  0
    1.6763   -2.6886   -1.7485 C   0  0  0  0  0  0  0  0  0  0  0  0
    1.9054   -2.0287   -2.7447 O   0  0  0  0  0  0  0  0  0  0  0  0
    2.1873   -3.8983   -1.6726 N   0  0  0  0  0  0  0  0  0  0  0  0
    2.7330   -4.1807   -2.4682 H   0  0  0  0  0  0  0  0  0  0  0  0
    2.0324   -4.4817   -0.8755 H   0  0  0  0  0  0  0  0  0  0  0  0
   -0.7120    1.3219    0.3405 C   0  0  0  0  0  0  0  0  0  0  0  0
   -0.4867    1.9321   -0.7031 O   0  0  0  0  0  0  0  0  0  0  0  0
   -1.1473    1.9323    1.4501 N   0  0  0  0  0  0  0  0  0  0  0  0
   -1.3341    1.3629    2.2601 H   0  0  0  0  0  0  0  0  0  0  0  0
   -1.3984    3.3698    1.5454 C   0  0  0  0  0  0  0  0  0  0  0  0
   -2.1178    3.6686    0.7790 H   0  0  0  0  0  0  0  0  0  0  0  0
   -1.7968    3.6222    2.5293 H   0  0  0  0  0  0  0  0  0  0  0  0
   -0.4696    3.9180    1.3791 H   0  0  0  0  0  0  0  0  0  0  0  0
  5  6  2  0  0  0  0
  5  7  1  0  0  0  0
  2  3  1  0  0  0  0
  2  4  1  0  0  0  0
  2  5  1  0  0  0  0
  1  2  1  0  0  0  0
 22 23  2  0  0  0  0
 22 24  1  0  0  0  0
 19 20  1  0  0  0  0
 19 21  1  0  0  0  0
 17 18  2  0  0  0  0
 17 19  1  0  0  0  0
 14 15  1  0  0  0  0
 14 16  1  0  0  0  0
 14 17  1  0  0  0  0
 11 12  1  0  0  0  0
 11 13  1  0  0  0  0
 11 14  1  0  0  0  0
  9 10  1  0  0  0  0
  9 11  1  0  0  0  0
  9 22  1  0  0  0  0
  7  8  1  0  0  0  0
  7  9  1  0  0  0  0
 26 27  1  0  0  0  0
 26 28  1  0  0  0  0
 26 29  1  0  0  0  0
 24 25  1  0  0  0  0
 24 26  1  0  0  0  0
M  END
$$$$
default_name
  -OEChem-01062215323D

 29 28  0     1  0  0  0  0  0999 V2000
   -3.3998   -3.6239    1.3678 H   0  0  0  0  0  0  0  0  0  0  0  0
   -3.3608   -2.6749    0.8348 C   0  0  0  0  0  0  0  0  0  0  0  0
   -4.0988   -1.9909    1.2498 H   0  0  0  0  0  0  0  0  0  0  0  0
   -3.5618   -2.8419   -0.2222 H   0  0  0  0  0  0  0  0  0  0  0  0
   -1.9818   -2.0809    0.9918 C   0  0  0  0  0  0  0  0  0  0  0  0
   -1.1288   -2.6669    1.6468 O   0  0  0  0  0  0  0  0  0  0  0  0
   -1.7648   -0.9089    0.3998 N   0  0  0  0  0  0  0  0  0  0  0  0
   -2.5238   -0.4719   -0.1032 H   0  0  0  0  0  0  0  0  0  0  0  0
   -0.4848   -0.1959    0.4138 C   0  0  1  0  0  0  0  0  0  0  0  0
    0.0269   -0.4168    1.3520 H   0  0  0  0  0  0  0  0  0  0  0  0
    0.3867   -0.7174   -0.7454 C   0  0  0  0  0  0  0  0  0  0  0  0
   -0.1879   -0.6363   -1.6704 H   0  0  0  0  0  0  0  0  0  0  0  0
    1.2721   -0.0866   -0.8374 H   0  0  0  0  0  0  0  0  0  0  0  0
    0.8335   -2.1803   -0.5789 C   0  0  0  0  0  0  0  0  0  0  0  0
    1.4243   -2.2824    0.3311 H   0  0  0  0  0  0  0  0  0  0  0  0
   -0.0503   -2.8125   -0.4930 H   0  0  0  0  0  0  0  0  0  0  0  0
    1.6763   -2.6886   -1.7485 C   0  0  0  0  0  0  0  0  0  0  0  0
    1.9054   -2.0287   -2.7447 O   0  0  0  0  0  0  0  0  0  0  0  0
    2.1873   -3.8983   -1.6726 N   0  0  0  0  0  0  0  0  0  0  0  0
    2.7330   -4.1807   -2.4682 H   0  0  0  0  0  0  0  0  0  0  0  0
    2.0324   -4.4817   -0.8755 H   0  0  0  0  0  0  0  0  0  0  0  0
   -0.7120    1.3219    0.3405 C   0  0  0  0  0  0  0  0  0  0  0  0
   -0.7567    1.8894   -0.7495 O   0  0  0  0  0  0  0  0  0  0  0  0
   -0.8443    1.9801    1.4993 N   0  0  0  0  0  0  0  0  0  0  0  0
   -0.8218    1.4440    2.3521 H   0  0  0  0  0  0  0  0  0  0  0  0
   -1.0521    3.4242    1.5982 C   0  0  0  0  0  0  0  0  0  0  0  0
   -1.9414    3.7071    1.0296 H   0  0  0  0  0  0  0  0  0  0  0  0
   -1.1835    3.7194    2.6403 H   0  0  0  0  0  0  0  0  0  0  0  0
   -0.1927    3.9498    1.1784 H   0  0  0  0  0  0  0  0  0  0  0  0
  5  6  2  0  0  0  0
  5  7  1  0  0  0  0
  2  3  1  0  0  0  0
  2  4  1  0  0  0  0
  2  5  1  0  0  0  0
  1  2  1  0  0  0  0
 22 23  2  0  0  0  0
 22 24  1  0  0  0  0
 19 20  1  0  0  0  0
 19 21  1  0  0  0  0
 17 18  2  0  0  0  0
 17 19  1  0  0  0  0
 14 15  1  0  0  0  0
 14 16  1  0  0  0  0
 14 17  1  0  0  0  0
 11 12  1  0  0  0  0
 11 13  1  0  0  0  0
 11 14  1  0  0  0  0
  9 10  1  0  0  0  0
  9 11  1  0  0  0  0
  9 22  1  0  0  0  0
  7  8  1  0  0  0  0
  7  9  1  0  0  0  0
 26 27  1  0  0  0  0
 26 28  1  0  0  0  0
 26 29  1  0  0  0  0
 24 25  1  0  0  0  0
 24 26  1  0  0  0  0
M  END
$$$$
default_name
  -OEChem-01062215323D

 29 28  0     1  0  0  0  0  0999 V2000
   -3.3998   -3.6239    1.3678 H   0  0  0  0  0  0  0  0  0  0  0  0
   -3.3608   -2.6749    0.8348 C   0  0  0  0  0  0  0  0  0  0  0  0
   -4.0988   -1.9909    1.2498 H   0  0  0  0  0  0  0  0  0  0  0  0
   -3.5618   -2.8419   -0.2222 H   0  0  0  0  0  0  0  0  0  0  0  0
   -1.9818   -2.0809    0.9918 C   0  0  0  0  0  0  0  0  0  0  0  0
   -1.1288   -2.6669    1.6468 O   0  0  0  0  0  0  0  0  0  0  0  0
   -1.7648   -0.9089    0.3998 N   0  0  0  0  0  0  0  0  0  0  0  0
   -2.5238   -0.4719   -0.1032 H   0  0  0  0  0  0  0  0  0  0  0  0
   -0.4848   -0.1959    0.4138 C   0  0  1  0  0  0  0  0  0  0  0  0
    0.0269   -0.4168    1.3520 H   0  0  0  0  0  0  0  0  0  0  0  0
    0.3867   -0.7174   -0.7454 C   0  0  0  0  0  0  0  0  0  0  0  0
   -0.1879   -0.6363   -1.6704 H   0  0  0  0  0  0  0  0  0  0  0  0
    1.2721   -0.0866   -0.8374 H   0  0  0  0  0  0  0  0  0  0  0  0
    0.8335   -2.1803   -0.5789 C   0  0  0  0  0  0  0  0  0  0  0  0
    1.4243   -2.2824    0.3311 H   0  0  0  0  0  0  0  0  0  0  0  0
   -0.0503   -2.8125   -0.4930 H   0  0  0  0  0  0  0  0  0  0  0  0
    1.6763   -2.6886   -1.7485 C   0  0  0  0  0  0  0  0  0  0  0  0
    1.9054   -2.0287   -2.7447 O   0  0  0  0  0  0  0  0  0  0  0  0
    2.1873   -3.8983   -1.6726 N   0  0  0  0  0  0  0  0  0  0  0  0
    2.7330   -4.1807   -2.4682 H   0  0  0  0  0  0  0  0  0  0  0  0
    2.0324   -4.4817   -0.8755 H   0  0  0  0  0  0  0  0  0  0  0  0
   -0.7120    1.3219    0.3405 C   0  0  0  0  0  0  0  0  0  0  0  0
   -1.0300    1.8497   -0.7236 O   0  0  0  0  0  0  0  0  0  0  0  0
   -0.5385    2.0243    1.4674 N   0  0  0  0  0  0  0  0  0  0  0  0
   -0.3024    1.5196    2.3069 H   0  0  0  0  0  0  0  0  0  0  0  0
   -0.7034    3.4744    1.5585 C   0  0  0  0  0  0  0  0  0  0  0  0
   -1.7065    3.7518    1.2251 H   0  0  0  0  0  0  0  0  0  0  0  0
   -0.5616    3.8099    2.5869 H   0  0  0  0  0  0  0  0  0  0  0  0
    0.0238    3.9694    0.9125 H   0  0  0  0  0  0  0  0  0  0  0  0
  5  6  2  0  0  0  0
  5  7  1  0  0  0  0
  2  3  1  0  0  0  0
  2  4  1  0  0  0  0
  2  5  1  0  0  0  0
  1  2  1  0  0  0  0
 22 23  2  0  0  0  0
 22 24  1  0  0  0  0
 19 20  1  0  0  0  0
 19 21  1  0  0  0  0
 17 18  2  0  0  0  0
 17 19  1  0  0  0  0
 14 15  1  0  0  0  0
 14 16  1  0  0  0  0
 14 17  1  0  0  0  0
 11 12  1  0  0  0  0
 11 13  1  0  0  0  0
 11 14  1  0  0  0  0
  9 10  1  0  0  0  0
  9 11  1  0  0  0  0
  9 22  1  0  0  0  0
  7  8  1  0  0  0  0
  7  9  1  0  0  0  0
 26 27  1  0  0  0  0
 26 28  1  0  0  0  0
 26 29  1  0  0  0  0
 24 25  1  0  0  0  0
 24 26  1  0  0  0  0
M  END
$$$$
default_name
  -OEChem-01062215323D

 29 28  0     1  0  0  0  0  0999 V2000
   -3.3998   -3.6239    1.3678 H   0  0  0  0  0  0  0  0  0  0  0  0
   -3.3608   -2.6749    0.8348 C   0  0  0  0  0  0  0  0  0  0  0  0
   -4.0988   -1.9909    1.2498 H   0  0  0  0  0  0  0  0  0  0  0  0
   -3.5618   -2.8419   -0.2222 H   0  0  0  0  0  0  0  0  0  0  0  0
   -1.9818   -2.0809    0.9918 C   0  0  0  0  0  0  0  0  0  0  0  0
   -1.1288   -2.6669    1.6468 O   0  0  0  0  0  0  0  0  0  0  0  0
   -1.7648   -0.9089    0.3998 N   0  0  0  0  0  0  0  0  0  0  0  0
   -2.5238   -0.4719   -0.1032 H   0  0  0  0  0  0  0  0  0  0  0  0
   -0.4848   -0.1959    0.4138 C   0  0  1  0  0  0  0  0  0  0  0  0
    0.0269   -0.4168    1.3520 H   0  0  0  0  0  0  0  0  0  0  0  0
    0.3867   -0.7174   -0.7454 C   0  0  0  0  0  0  0  0  0  0  0  0
   -0.1879   -0.6363   -1.6704 H   0  0  0  0  0  0  0  0  0  0  0  0
    1.2721   -0.0866   -0.8374 H   0  0  0  0  0  0  0  0  0  0  0  0
    0.8335   -2.1803   -0.5789 C   0  0  0  0  0  0  0  0  0  0  0  0
    1.4243   -2.2824    0.3311 H   0  0  0  0  0  0  0  0  0  0  0  0
   -0.0503   -2.8125   -0.4930 H   0  0  0  0  0  0  0  0  0  0  0  0
    1.6763   -2.6886   -1.7485 C   0  0  0  0  0  0  0  0  0  0  0  0
    1.9054   -2.0287   -2.7447 O   0  0  0  0  0  0  0  0  0  0  0  0
    2.1873   -3.8983   -1.6726 N   0  0  0  0  0  0  0  0  0  0  0  0
    2.7330   -4.1807   -2.4682 H   0  0  0  0  0  0  0  0  0  0  0  0
    2.0324   -4.4817   -0.8755 H   0  0  0  0  0  0  0  0  0  0  0  0
   -0.7120    1.3219    0.3405 C   0  0  0  0  0  0  0  0  0  0  0  0
   -1.2878    1.8158   -0.6273 O   0  0  0  0  0  0  0  0  0  0  0  0
   -0.2507    2.0620    1.3568 N   0  0  0  0  0  0  0  0  0  0  0  0
    0.1886    1.5844    2.1275 H   0  0  0  0  0  0  0  0  0  0  0  0
   -0.3761    3.5172    1.4290 C   0  0  0  0  0  0  0  0  0  0  0  0
   -1.4290    3.7994    1.3522 H   0  0  0  0  0  0  0  0  0  0  0  0
    0.0267    3.8876    2.3729 H   0  0  0  0  0  0  0  0  0  0  0  0
    0.1651    3.9754    0.5995 H   0  0  0  0  0  0  0  0  0  0  0  0
  5  6  2  0  0  0  0
  5  7  1  0  0  0  0
  2  3  1  0  0  0  0
  2  4  1  0  0  0  0
  2  5  1  0  0  0  0
  1  2  1  0  0  0  0
 22 23  2  0  0  0  0
 22 24  1  0  0  0  0
 19 20  1  0  0  0  0
 19 21  1  0  0  0  0
 17 18  2  0  0  0  0
 17 19  1  0  0  0  0
 14 15  1  0  0  0  0
 14 16  1  0  0  0  0
 14 17  1  0  0  0  0
 11 12  1  0  0  0  0
 11 13  1  0  0  0  0
 11 14  1  0  0  0  0
  9 10  1  0  0  0  0
  9 11  1  0  0  0  0
  9 22  1  0  0  0  0
  7  8  1  0  0  0  0
  7  9  1  0  0  0  0
 26 27  1  0  0  0  0
 26 28  1  0  0  0  0
 26 29  1  0  0  0  0
 24 25  1  0  0  0  0
 24 26  1  0  0  0  0
M  END
$$$$
default_name
  -OEChem-01062215323D

 29 28  0     1  0  0  0  0  0999 V2000
   -3.3998   -3.6239    1.3678 H   0  0  0  0  0  0  0  0  0  0  0  0
   -3.3608   -2.6749    0.8348 C   0  0  0  0  0  0  0  0  0  0  0  0
   -4.0988   -1.9909    1.2498 H   0  0  0  0  0  0  0  0  0  0  0  0
   -3.5618   -2.8419   -0.2222 H   0  0  0  0  0  0  0  0  0  0  0  0
   -1.9818   -2.0809    0.9918 C   0  0  0  0  0  0  0  0  0  0  0  0
   -1.1288   -2.6669    1.6468 O   0  0  0  0  0  0  0  0  0  0  0  0
   -1.7648   -0.9089    0.3998 N   0  0  0  0  0  0  0  0  0  0  0  0
   -2.5238   -0.4719   -0.1032 H   0  0  0  0  0  0  0  0  0  0  0  0
   -0.4848   -0.1959    0.4138 C   0  0  1  0  0  0  0  0  0  0  0  0
    0.0269   -0.4168    1.3520 H   0  0  0  0  0  0  0  0  0  0  0  0
    0.3867   -0.7174   -0.7454 C   0  0  0  0  0  0  0  0  0  0  0  0
   -0.1879   -0.6363   -1.6704 H   0  0  0  0  0  0  0  0  0  0  0  0
    1.2721   -0.0866   -0.8374 H   0  0  0  0  0  0  0  0  0  0  0  0
    0.8335   -2.1803   -0.5789 C   0  0  0  0  0  0  0  0  0  0  0  0
    1.4243   -2.2824    0.3311 H   0  0  0  0  0  0  0  0  0  0  0  0
   -0.0503   -2.8125   -0.4930 H   0  0  0  0  0  0  0  0  0  0  0  0
    1.6763   -2.6886   -1.7485 C   0  0  0  0  0  0  0  0  0  0  0  0
    1.9054   -2.0287   -2.7447 O   0  0  0  0  0  0  0  0  0  0  0  0
    2.1873   -3.8983   -1.6726 N   0  0  0  0  0  0  0  0  0  0  0  0
    2.7330   -4.1807   -2.4682 H   0  0  0  0  0  0  0  0  0  0  0  0
    2.0324   -4.4817   -0.8755 H   0  0  0  0  0  0  0  0  0  0  0  0
   -0.7120    1.3219    0.3405 C   0  0  0  0  0  0  0  0  0  0  0  0
   -1.5127    1.7899   -0.4670 O   0  0  0  0  0  0  0  0  0  0  0  0
   -0.0005    2.0907    1.1749 N   0  0  0  0  0  0  0  0  0  0  0  0
    0.6179    1.6341    1.8263 H   0  0  0  0  0  0  0  0  0  0  0  0
   -0.0925    3.5495    1.2187 C   0  0  0  0  0  0  0  0  0  0  0  0
   -1.1279    3.8469    1.4021 H   0  0  0  0  0  0  0  0  0  0  0  0
    0.5411    3.9472    2.0128 H   0  0  0  0  0  0  0  0  0  0  0  0
    0.2218    3.9675    0.2608 H   0  0  0  0  0  0  0  0  0  0  0  0
  5  6  2  0  0  0  0
  5  7  1  0  0  0  0
  2  3  1  0  0  0  0
  2  4  1  0  0  0  0
  2  5  1  0  0  0  0
  1  2  1  0  0  0  0
 22 23  2  0  0  0  0
 22 24  1  0  0  0  0
 19 20  1  0  0  0  0
 19 21  1  0  0  0  0
 17 18  2  0  0  0  0
 17 19  1  0  0  0  0
 14 15  1  0  0  0  0
 14 16  1  0  0  0  0
 14 17  1  0  0  0  0
 11 12  1  0  0  0  0
 11 13  1  0  0  0  0
 11 14  1  0  0  0  0
  9 10  1  0  0  0  0
  9 11  1  0  0  0  0
  9 22  1  0  0  0  0
  7  8  1  0  0  0  0
  7  9  1  0  0  0  0
 26 27  1  0  0  0  0
 26 28  1  0  0  0  0
 26 29  1  0  0  0  0
 24 25  1  0  0  0  0
 24 26  1  0  0  0  0
M  END
$$$$
default_name
  -OEChem-01062215323D

 29 28  0     1  0  0  0  0  0999 V2000
   -3.3998   -3.6239    1.3678 H   0  0  0  0  0  0  0  0  0  0  0  0
   -3.3608   -2.6749    0.8348 C   0  0  0  0  0  0  0  0  0  0  0  0
   -4.0988   -1.9909    1.2498 H   0  0  0  0  0  0  0  0  0  0  0  0
   -3.5618   -2.8419   -0.2222 H   0  0  0  0  0  0  0  0  0  0  0  0
   -1.9818   -2.0809    0.9918 C   0  0  0  0  0  0  0  0  0  0  0  0
   -1.1288   -2.6669    1.6468 O   0  0  0  0  0  0  0  0  0  0  0  0
   -1.7648   -0.9089    0.3998 N   0  0  0  0  0  0  0  0  0  0  0  0
   -2.5238   -0.4719   -0.1032 H   0  0  0  0  0  0  0  0  0  0  0  0
   -0.4848   -0.1959    0.4138 C   0  0  1  0  0  0  0  0  0  0  0  0
    0.0269   -0.4168    1.3520 H   0  0  0  0  0  0  0  0  0  0  0  0
    0.3867   -0.7174   -0.7454 C   0  0  0  0  0  0  0  0  0  0  0  0
   -0.1879   -0.6363   -1.6704 H   0  0  0  0  0  0  0  0  0  0  0  0
    1.2721   -0.0866   -0.8374 H   0  0  0  0  0  0  0  0  0  0  0  0
    0.8335   -2.1803   -0.5789 C   0  0  0  0  0  0  0  0  0  0  0  0
    1.4243   -2.2824    0.3311 H   0  0  0  0  0  0  0  0  0  0  0  0
   -0.0503   -2.8125   -0.4930 H   0  0  0  0  0  0  0  0  0  0  0  0
    1.6763   -2.6886   -1.7485 C   0  0  0  0  0  0  0  0  0  0  0  0
    1.9054   -2.0287   -2.7447 O   0  0  0  0  0  0  0  0  0  0  0  0
    2.1873   -3.8983   -1.6726 N   0  0  0  0  0  0  0  0  0  0  0  0
    2.7330   -4.1807   -2.4682 H   0  0  0  0  0  0  0  0  0  0  0  0
    2.0324   -4.4817   -0.8755 H   0  0  0  0  0  0  0  0  0  0  0  0
   -0.7120    1.3219    0.3405 C   0  0  0  0  0  0  0  0  0  0  0  0
   -1.6891    1.7738   -0.2536 O   0  0  0  0  0  0  0  0  0  0  0  0
    0.1950    2.1083    0.9342 N   0  0  0  0  0  0  0  0  0  0  0  0
    0.9561    1.6653    1.4236 H   0  0  0  0  0  0  0  0  0  0  0  0
    0.1280    3.5691    0.9418 C   0  0  0  0  0  0  0  0  0  0  0  0
   -0.8237    3.8910    1.3716 H   0  0  0  0  0  0  0  0  0  0  0  0
    0.9467    3.9847    1.5312 H   0  0  0  0  0  0  0  0  0  0  0  0
    0.1898    3.9462   -0.0805 H   0  0  0  0  0  0  0  0  0  0  0  0
  5  6  2  0  0  0  0
  5  7  1  0  0  0  0
  2  3  1  0  0  0  0
  2  4  1  0  0  0  0
  2  5  1  0  0  0  0
  1  2  1  0  0  0  0
 22 23  2  0  0  0  0
 22 24  1  0  0  0  0
 19 20  1  0  0  0  0
 19 21  1  0  0  0  0
 17 18  2  0  0  0  0
 17 19  1  0  0  0  0
 14 15  1  0  0  0  0
 14 16  1  0  0  0  0
 14 17  1  0  0  0  0
 11 12  1  0  0  0  0
 11 13  1  0  0  0  0
 11 14  1  0  0  0  0
  9 10  1  0  0  0  0
  9 11  1  0  0  0  0
  9 22  1  0  0  0  0
  7  8  1  0  0  0  0
  7  9  1  0  0  0  0
 26 27  1  0  0  0  0
 26 28  1  0  0  0  0
 26 29  1  0  0  0  0
 24 25  1  0  0  0  0
 24 26  1  0  0  0  0
M  END
$$$$
default_name
  -OEChem-01062215323D

 29 28  0     1  0  0  0  0  0999 V2000
   -3.3998   -3.6239    1.3678 H   0  0  0  0  0  0  0  0  0  0  0  0
   -3.3608   -2.6749    0.8348 C   0  0  0  0  0  0  0  0  0  0  0  0
   -4.0988   -1.9909    1.2498 H   0  0  0  0  0  0  0  0  0  0  0  0
   -3.5618   -2.8419   -0.2222 H   0  0  0  0  0  0  0  0  0  0  0  0
   -1.9818   -2.0809    0.9918 C   0  0  0  0  0  0  0  0  0  0  0  0
   -1.1288   -2.6669    1.6468 O   0  0  0  0  0  0  0  0  0  0  0  0
   -1.7648   -0.9089    0.3998 N   0  0  0  0  0  0  0  0  0  0  0  0
   -2.5238   -0.4719   -0.1032 H   0  0  0  0  0  0  0  0  0  0  0  0
   -0.4848   -0.1959    0.4138 C   0  0  1  0  0  0  0  0  0  0  0  0
    0.0269   -0.4168    1.3520 H   0  0  0  0  0  0  0  0  0  0  0  0
    0.3867   -0.7174   -0.7454 C   0  0  0  0  0  0  0  0  0  0  0  0
   -0.1879   -0.6363   -1.6704 H   0  0  0  0  0  0  0  0  0  0  0  0
    1.2721   -0.0866   -0.8374 H   0  0  0  0  0  0  0  0  0  0  0  0
    0.8335   -2.1803   -0.5789 C   0  0  0  0  0  0  0  0  0  0  0  0
    1.4243   -2.2824    0.3311 H   0  0  0  0  0  0  0  0  0  0  0  0
   -0.0503   -2.8125   -0.4930 H   0  0  0  0  0  0  0  0  0  0  0  0
    1.6763   -2.6886   -1.7485 C   0  0  0  0  0  0  0  0  0  0  0  0
    1.9054   -2.0287   -2.7447 O   0  0  0  0  0  0  0  0  0  0  0  0
    2.1873   -3.8983   -1.6726 N   0  0  0  0  0  0  0  0  0  0  0  0
    2.7330   -4.1807   -2.4682 H   0  0  0  0  0  0  0  0  0  0  0  0
    2.0324   -4.4817   -0.8755 H   0  0  0  0  0  0  0  0  0  0  0  0
   -0.7120    1.3219    0.3405 C   0  0  0  0  0  0  0  0  0  0  0  0
   -1.8053    1.7686   -0.0019 O   0  0  0  0  0  0  0  0  0  0  0  0
    0.3225    2.1137    0.6509 N   0  0  0  0  0  0  0  0  0  0  0  0
    1.1802    1.6758    0.9470 H   0  0  0  0  0  0  0  0  0  0  0  0
    0.2705    3.5747    0.6172 C   0  0  0  0  0  0  0  0  0  0  0  0
   -0.5372    3.9286    1.2627 H   0  0  0  0  0  0  0  0  0  0  0  0
    1.2158    3.9974    0.9609 H   0  0  0  0  0  0  0  0  0  0  0  0
    0.0714    3.9130   -0.4011 H   0  0  0  0  0  0  0  0  0  0  0  0
  5  6  2  0  0  0  0
  5  7  1  0  0  0  0
  2  3  1  0  0  0  0
  2  4  1  0  0  0  0
  2  5  1  0  0  0  0
  1  2  1  0  0  0  0
 22 23  2  0  0  0  0
 22 24  1  0  0  0  0
 19 20  1  0  0  0  0
 19 21  1  0  0  0  0
 17 18  2  0  0  0  0
 17 19  1  0  0  0  0
 14 15  1  0  0  0  0
 14 16  1  0  0  0  0
 14 17  1  0  0  0  0
 11 12  1  0  0  0  0
 11 13  1  0  0  0  0
 11 14  1  0  0  0  0
  9 10  1  0  0  0  0
  9 11  1  0  0  0  0
  9 22  1  0  0  0  0
  7  8  1  0  0  0  0
  7  9  1  0  0  0  0
 26 27  1  0  0  0  0
 26 28  1  0  0  0  0
 26 29  1  0  0  0  0
 24 25  1  0  0  0  0
 24 26  1  0  0  0  0
M  END
$$$$
default_name
  -OEChem-01062215323D

 29 28  0     1  0  0  0  0  0999 V2000
   -3.3998   -3.6239    1.3678 H   0  0  0  0  0  0  0  0  0  0  0  0
   -3.3608   -2.6749    0.8348 C   0  0  0  0  0  0  0  0  0  0  0  0
   -4.0988   -1.9909    1.2498 H   0  0  0  0  0  0  0  0  0  0  0  0
   -3.5618   -2.8419   -0.2222 H   0  0  0  0  0  0  0  0  0  0  0  0
   -1.9818   -2.0809    0.9918 C   0  0  0  0  0  0  0  0  0  0  0  0
   -1.1288   -2.6669    1.6468 O   0  0  0  0  0  0  0  0  0  0  0  0
   -1.7648   -0.9089    0.3998 N   0  0  0  0  0  0  0  0  0  0  0  0
   -2.5238   -0.4719   -0.1032 H   0  0  0  0  0  0  0  0  0  0  0  0
   -0.4848   -0.1959    0.4138 C   0  0  1  0  0  0  0  0  0  0  0  0
    0.1386   -0.6144    1.2058 H   0  0  0  0  0  0  0  0  0  0  0  0
    0.2271   -0.4272   -0.9334 C   0  0  0  0  0  0  0  0  0  0  0  0
   -0.4587   -0.1489   -1.7363 H   0  0  0  0  0  0  0  0  0  0  0  0
    1.1013    0.2231   -0.9908 H   0  0  0  0  0  0  0  0  0  0  0  0
    0.6737   -1.8821   -1.1597 C   0  0  0  0  0  0  0  0  0  0  0  0
    1.3734   -2.1771   -0.3780 H   0  0  0  0  0  0  0  0  0  0  0  0
   -0.1997   -2.5322   -1.1087 H   0  0  0  0  0  0  0  0  0  0  0  0
    1.3560   -2.0986   -2.5104 C   0  0  0  0  0  0  0  0  0  0  0  0
    1.4654   -1.2268   -3.3521 O   0  0  0  0  0  0  0  0  0  0  0  0
    1.8579   -3.2853   -2.7750 N   0  0  0  0  0  0  0  0  0  0  0  0
    2.2953   -3.3713   -3.6759 H   0  0  0  0  0  0  0  0  0  0  0  0
    1.7979   -4.0362   -2.1175 H   0  0  0  0  0  0  0  0  0  0  0  0
   -0.7011    1.2952    0.7149 C   0  0  0  0  0  0  0  0  0  0  0  0
   -1.8364    1.7324    0.8939 O   0  0  0  0  0  0  0  0  0  0  0  0
    0.3853    2.0769    0.7601 N   0  0  0  0  0  0  0  0  0  0  0  0
    1.2851    1.6430    0.6284 H   0  0  0  0  0  0  0  0  0  0  0  0
    0.3453    3.5151    1.0213 C   0  0  0  0  0  0  0  0  0  0  0  0
   -0.1550    3.7014    1.9748 H   0  0  0  0  0  0  0  0  0  0  0  0
    1.3564    3.9231    1.0610 H   0  0  0  0  0  0  0  0  0  0  0  0
   -0.2175    4.0175    0.2327 H   0  0  0  0  0  0  0  0  0  0  0  0
  5  6  2  0  0  0  0
  5  7  1  0  0  0  0
  2  3  1  0  0  0  0
  2  4  1  0  0  0  0
  2  5  1  0  0  0  0
  1  2  1  0  0  0  0
 22 23  2  0  0  0  0
 22 24  1  0  0  0  0
 19 20  1  0  0  0  0
 19 21  1  0  0  0  0
 17 18  2  0  0  0  0
 17 19  1  0  0  0  0
 14 15  1  0  0  0  0
 14 16  1  0  0  0  0
 14 17  1  0  0  0  0
 11 12  1  0  0  0  0
 11 13  1  0  0  0  0
 11 14  1  0  0  0  0
  9 10  1  0  0  0  0
  9 11  1  0  0  0  0
  9 22  1  0  0  0  0
  7  8  1  0  0  0  0
  7  9  1  0  0  0  0
 26 27  1  0  0  0  0
 26 28  1  0  0  0  0
 26 29  1  0  0  0  0
 24 25  1  0  0  0  0
 24 26  1  0  0  0  0
M  END
$$$$
default_name
  -OEChem-01062215323D

 29 28  0     1  0  0  0  0  0999 V2000
   -3.3998   -3.6239    1.3678 H   0  0  0  0  0  0  0  0  0  0  0  0
   -3.3608   -2.6749    0.8348 C   0  0  0  0  0  0  0  0  0  0  0  0
   -4.0988   -1.9909    1.2498 H   0  0  0  0  0  0  0  0  0  0  0  0
   -3.5618   -2.8419   -0.2222 H   0  0  0  0  0  0  0  0  0  0  0  0
   -1.9818   -2.0809    0.9918 C   0  0  0  0  0  0  0  0  0  0  0  0
   -1.1288   -2.6669    1.6468 O   0  0  0  0  0  0  0  0  0  0  0  0
   -1.7648   -0.9089    0.3998 N   0  0  0  0  0  0  0  0  0  0  0  0
   -2.5238   -0.4719   -0.1032 H   0  0  0  0  0  0  0  0  0  0  0  0
   -0.4848   -0.1959    0.4138 C   0  0  1  0  0  0  0  0  0  0  0  0
    0.1386   -0.6144    1.2058 H   0  0  0  0  0  0  0  0  0  0  0  0
    0.2271   -0.4272   -0.9334 C   0  0  0  0  0  0  0  0  0  0  0  0
   -0.4587   -0.1489   -1.7363 H   0  0  0  0  0  0  0  0  0  0  0  0
    1.1013    0.2231   -0.9908 H   0  0  0  0  0  0  0  0  0  0  0  0
    0.6737   -1.8821   -1.1597 C   0  0  0  0  0  0  0  0  0  0  0  0
    1.3734   -2.1771   -0.3780 H   0  0  0  0  0  0  0  0  0  0  0  0
   -0.1997   -2.5322   -1.1087 H   0  0  0  0  0  0  0  0  0  0  0  0
    1.3560   -2.0986   -2.5104 C   0  0  0  0  0  0  0  0  0  0  0  0
    1.4654   -1.2268   -3.3521 O   0  0  0  0  0  0  0  0  0  0  0  0
    1.8579   -3.2853   -2.7750 N   0  0  0  0  0  0  0  0  0  0  0  0
    2.2953   -3.3713   -3.6759 H   0  0  0  0  0  0  0  0  0  0  0  0
    1.7979   -4.0362   -2.1175 H   0  0  0  0  0  0  0  0  0  0  0  0
   -0.7011    1.2952    0.7149 C   0  0  0  0  0  0  0  0  0  0  0  0
   -1.7780    1.6869    1.1611 O   0  0  0  0  0  0  0  0  0  0  0  0
    0.3170    2.1273    0.4613 N   0  0  0  0  0  0  0  0  0  0  0  0
    1.1778    1.7301    0.1200 H   0  0  0  0  0  0  0  0  0  0  0  0
    0.2640    3.5720    0.6810 C   0  0  0  0  0  0  0  0  0  0  0  0
    0.0087    3.7759    1.7238 H   0  0  0  0  0  0  0  0  0  0  0  0
    1.2287    4.0275    0.4522 H   0  0  0  0  0  0  0  0  0  0  0  0
   -0.5051    4.0136    0.0450 H   0  0  0  0  0  0  0  0  0  0  0  0
  5  6  2  0  0  0  0
  5  7  1  0  0  0  0
  2  3  1  0  0  0  0
  2  4  1  0  0  0  0
  2  5  1  0  0  0  0
  1  2  1  0  0  0  0
 22 23  2  0  0  0  0
 22 24  1  0  0  0  0
 19 20  1  0  0  0  0
 19 21  1  0  0  0  0
 17 18  2  0  0  0  0
 17 19  1  0  0  0  0
 14 15  1  0  0  0  0
 14 16  1  0  0  0  0
 14 17  1  0  0  0  0
 11 12  1  0  0  0  0
 11 13  1  0  0  0  0
 11 14  1  0  0  0  0
  9 10  1  0  0  0  0
  9 11  1  0  0  0  0
  9 22  1  0  0  0  0
  7  8  1  0  0  0  0
  7  9  1  0  0  0  0
 26 27  1  0  0  0  0
 26 28  1  0  0  0  0
 26 29  1  0  0  0  0
 24 25  1  0  0  0  0
 24 26  1  0  0  0  0
M  END
$$$$
default_name
  -OEChem-01062215323D

 29 28  0     1  0  0  0  0  0999 V2000
   -3.3998   -3.6239    1.3678 H   0  0  0  0  0  0  0  0  0  0  0  0
   -3.3608   -2.6749    0.8348 C   0  0  0  0  0  0  0  0  0  0  0  0
   -4.0988   -1.9909    1.2498 H   0  0  0  0  0  0  0  0  0  0  0  0
   -3.5618   -2.8419   -0.2222 H   0  0  0  0  0  0  0  0  0  0  0  0
   -1.9818   -2.0809    0.9918 C   0  0  0  0  0  0  0  0  0  0  0  0
   -1.1288   -2.6669    1.6468 O   0  0  0  0  0  0  0  0  0  0  0  0
   -1.7648   -0.9089    0.3998 N   0  0  0  0  0  0  0  0  0  0  0  0
   -2.5238   -0.4719   -0.1032 H   0  0  0  0  0  0  0  0  0  0  0  0
   -0.4848   -0.1959    0.4138 C   0  0  1  0  0  0  0  0  0  0  0  0
    0.1386   -0.6144    1.2058 H   0  0  0  0  0  0  0  0  0  0  0  0
    0.2271   -0.4272   -0.9334 C   0  0  0  0  0  0  0  0  0  0  0  0
   -0.4587   -0.1489   -1.7363 H   0  0  0  0  0  0  0  0  0  0  0  0
    1.1013    0.2231   -0.9908 H   0  0  0  0  0  0  0  0  0  0  0  0
    0.6737   -1.8821   -1.1597 C   0  0  0  0  0  0  0  0  0  0  0  0
    1.3734   -2.1771   -0.3780 H   0  0  0  0  0  0  0  0  0  0  0  0
   -0.1997   -2.5322   -1.1087 H   0  0  0  0  0  0  0  0  0  0  0  0
    1.3560   -2.0986   -2.5104 C   0  0  0  0  0  0  0  0  0  0  0  0
    1.4654   -1.2268   -3.3521 O   0  0  0  0  0  0  0  0  0  0  0  0
    1.8579   -3.2853   -2.7750 N   0  0  0  0  0  0  0  0  0  0  0  0
    2.2953   -3.3713   -3.6759 H   0  0  0  0  0  0  0  0  0  0  0  0
    1.7979   -4.0362   -2.1175 H   0  0  0  0  0  0  0  0  0  0  0  0
   -0.7011    1.2952    0.7149 C   0  0  0  0  0  0  0  0  0  0  0  0
   -1.6520    1.6556    1.4063 O   0  0  0  0  0  0  0  0  0  0  0  0
    0.1735    2.1617    0.1879 N   0  0  0  0  0  0  0  0  0  0  0  0
    0.9421    1.7903   -0.3472 H   0  0  0  0  0  0  0  0  0  0  0  0
    0.0972    3.6105    0.3705 C   0  0  0  0  0  0  0  0  0  0  0  0
    0.1000    3.8470    1.4374 H   0  0  0  0  0  0  0  0  0  0  0  0
    0.9471    4.0997   -0.1077 H   0  0  0  0  0  0  0  0  0  0  0  0
   -0.8298    3.9885   -0.0639 H   0  0  0  0  0  0  0  0  0  0  0  0
  5  6  2  0  0  0  0
  5  7  1  0  0  0  0
  2  3  1  0  0  0  0
  2  4  1  0  0  0  0
  2  5  1  0  0  0  0
  1  2  1  0  0  0  0
 22 23  2  0  0  0  0
 22 24  1  0  0  0  0
 19 20  1  0  0  0  0
 19 21  1  0  0  0  0
 17 18  2  0  0  0  0
 17 19  1  0  0  0  0
 14 15  1  0  0  0  0
 14 16  1  0  0  0  0
 14 17  1  0  0  0  0
 11 12  1  0  0  0  0
 11 13  1  0  0  0  0
 11 14  1  0  0  0  0
  9 10  1  0  0  0  0
  9 11  1  0  0  0  0
  9 22  1  0  0  0  0
  7  8  1  0  0  0  0
  7  9  1  0  0  0  0
 26 27  1  0  0  0  0
 26 28  1  0  0  0  0
 26 29  1  0  0  0  0
 24 25  1  0  0  0  0
 24 26  1  0  0  0  0
M  END
$$$$
default_name
  -OEChem-01062215323D

 29 28  0     1  0  0  0  0  0999 V2000
   -3.3998   -3.6239    1.3678 H   0  0  0  0  0  0  0  0  0  0  0  0
   -3.3608   -2.6749    0.8348 C   0  0  0  0  0  0  0  0  0  0  0  0
   -4.0988   -1.9909    1.2498 H   0  0  0  0  0  0  0  0  0  0  0  0
   -3.5618   -2.8419   -0.2222 H   0  0  0  0  0  0  0  0  0  0  0  0
   -1.9818   -2.0809    0.9918 C   0  0  0  0  0  0  0  0  0  0  0  0
   -1.1288   -2.6669    1.6468 O   0  0  0  0  0  0  0  0  0  0  0  0
   -1.7648   -0.9089    0.3998 N   0  0  0  0  0  0  0  0  0  0  0  0
   -2.5238   -0.4719   -0.1032 H   0  0  0  0  0  0  0  0  0  0  0  0
   -0.4848   -0.1959    0.4138 C   0  0  1  0  0  0  0  0  0  0  0  0
    0.1386   -0.6144    1.2058 H   0  0  0  0  0  0  0  0  0  0  0  0
    0.2271   -0.4272   -0.9334 C   0  0  0  0  0  0  0  0  0  0  0  0
   -0.4587   -0.1489   -1.7363 H   0  0  0  0  0  0  0  0  0  0  0  0
    1.1013    0.2231   -0.9908 H   0  0  0  0  0  0  0  0  0  0  0  0
    0.6737   -1.8821   -1.1597 C   0  0  0  0  0  0  0  0  0  0  0  0
    1.3734   -2.1771   -0.3780 H   0  0  0  0  0  0  0  0  0  0  0  0
   -0.1997   -2.5322   -1.1087 H   0  0  0  0  0  0  0  0  0  0  0  0
    1.3560   -2.0986   -2.5104 C   0  0  0  0  0  0  0  0  0  0  0  0
    1.4654   -1.2268   -3.3521 O   0  0  0  0  0  0  0  0  0  0  0  0
    1.8579   -3.2853   -2.7750 N   0  0  0  0  0  0  0  0  0  0  0  0
    2.2953   -3.3713   -3.6759 H   0  0  0  0  0  0  0  0  0  0  0  0
    1.7979   -4.0362   -2.1175 H   0  0  0  0  0  0  0  0  0  0  0  0
   -0.7011    1.2952    0.7149 C   0  0  0  0  0  0  0  0  0  0  0  0
   -1.4673    1.6408    1.6125 O   0  0  0  0  0  0  0  0  0  0  0  0
   -0.0356    2.1776   -0.0413 N   0  0  0  0  0  0  0  0  0  0  0  0
    0.5940    1.8194   -0.7415 H   0  0  0  0  0  0  0  0  0  0  0  0
   -0.1439    3.6279    0.1111 C   0  0  0  0  0  0  0  0  0  0  0  0
    0.1127    3.9099    1.1353 H   0  0  0  0  0  0  0  0  0  0  0  0
    0.5309    4.1348   -0.5803 H   0  0  0  0  0  0  0  0  0  0  0  0
   -1.1696    3.9438   -0.0867 H   0  0  0  0  0  0  0  0  0  0  0  0
  5  6  2  0  0  0  0
  5  7  1  0  0  0  0
  2  3  1  0  0  0  0
  2  4  1  0  0  0  0
  2  5  1  0  0  0  0
  1  2  1  0  0  0  0
 22 23  2  0  0  0  0
 22 24  1  0  0  0  0
 19 20  1  0  0  0  0
 19 21  1  0  0  0  0
 17 18  2  0  0  0  0
 17 19  1  0  0  0  0
 14 15  1  0  0  0  0
 14 16  1  0  0  0  0
 14 17  1  0  0  0  0
 11 12  1  0  0  0  0
 11 13  1  0  0  0  0
 11 14  1  0  0  0  0
  9 10  1  0  0  0  0
  9 11  1  0  0  0  0
  9 22  1  0  0  0  0
  7  8  1  0  0  0  0
  7  9  1  0  0  0  0
 26 27  1  0  0  0  0
 26 28  1  0  0  0  0
 26 29  1  0  0  0  0
 24 25  1  0  0  0  0
 24 26  1  0  0  0  0
M  END
$$$$
default_name
  -OEChem-01062215323D

 29 28  0     1  0  0  0  0  0999 V2000
   -3.3998   -3.6239    1.3678 H   0  0  0  0  0  0  0  0  0  0  0  0
   -3.3608   -2.6749    0.8348 C   0  0  0  0  0  0  0  0  0  0  0  0
   -4.0988   -1.9909    1.2498 H   0  0  0  0  0  0  0  0  0  0  0  0
   -3.5618   -2.8419   -0.2222 H   0  0  0  0  0  0  0  0  0  0  0  0
   -1.9818   -2.0809    0.9918 C   0  0  0  0  0  0  0  0  0  0  0  0
   -1.1288   -2.6669    1.6468 O   0  0  0  0  0  0  0  0  0  0  0  0
   -1.7648   -0.9089    0.3998 N   0  0  0  0  0  0  0  0  0  0  0  0
   -2.5238   -0.4719   -0.1032 H   0  0  0  0  0  0  0  0  0  0  0  0
   -0.4848   -0.1959    0.4138 C   0  0  1  0  0  0  0  0  0  0  0  0
    0.1386   -0.6144    1.2058 H   0  0  0  0  0  0  0  0  0  0  0  0
    0.2271   -0.4272   -0.9334 C   0  0  0  0  0  0  0  0  0  0  0  0
   -0.4587   -0.1489   -1.7363 H   0  0  0  0  0  0  0  0  0  0  0  0
    1.1013    0.2231   -0.9908 H   0  0  0  0  0  0  0  0  0  0  0  0
    0.6737   -1.8821   -1.1597 C   0  0  0  0  0  0  0  0  0  0  0  0
    1.3734   -2.1771   -0.3780 H   0  0  0  0  0  0  0  0  0  0  0  0
   -0.1997   -2.5322   -1.1087 H   0  0  0  0  0  0  0  0  0  0  0  0
    1.3560   -2.0986   -2.5104 C   0  0  0  0  0  0  0  0  0  0  0  0
    1.4654   -1.2268   -3.3521 O   0  0  0  0  0  0  0  0  0  0  0  0
    1.8579   -3.2853   -2.7750 N   0  0  0  0  0  0  0  0  0  0  0  0
    2.2953   -3.3713   -3.6759 H   0  0  0  0  0  0  0  0  0  0  0  0
    1.7979   -4.0362   -2.1175 H   0  0  0  0  0  0  0  0  0  0  0  0
   -0.7011    1.2952    0.7149 C   0  0  0  0  0  0  0  0  0  0  0  0
   -1.2362    1.6433    1.7659 O   0  0  0  0  0  0  0  0  0  0  0  0
   -0.2959    2.1741   -0.2107 N   0  0  0  0  0  0  0  0  0  0  0  0
    0.1573    1.8155   -1.0360 H   0  0  0  0  0  0  0  0  0  0  0  0
   -0.4428    3.6230   -0.0795 C   0  0  0  0  0  0  0  0  0  0  0  0
    0.0459    3.9602    0.8380 H   0  0  0  0  0  0  0  0  0  0  0  0
    0.0084    4.1303   -0.9336 H   0  0  0  0  0  0  0  0  0  0  0  0
   -1.5012    3.8825   -0.0217 H   0  0  0  0  0  0  0  0  0  0  0  0
  5  6  2  0  0  0  0
  5  7  1  0  0  0  0
  2  3  1  0  0  0  0
  2  4  1  0  0  0  0
  2  5  1  0  0  0  0
  1  2  1  0  0  0  0
 22 23  2  0  0  0  0
 22 24  1  0  0  0  0
 19 20  1  0  0  0  0
 19 21  1  0  0  0  0
 17 18  2  0  0  0  0
 17 19  1  0  0  0  0
 14 15  1  0  0  0  0
 14 16  1  0  0  0  0
 14 17  1  0  0  0  0
 11 12  1  0  0  0  0
 11 13  1  0  0  0  0
 11 14  1  0  0  0  0
  9 10  1  0  0  0  0
  9 11  1  0  0  0  0
  9 22  1  0  0  0  0
  7  8  1  0  0  0  0
  7  9  1  0  0  0  0
 26 27  1  0  0  0  0
 26 28  1  0  0  0  0
 26 29  1  0  0  0  0
 24 25  1  0  0  0  0
 24 26  1  0  0  0  0
M  END
$$$$
default_name
  -OEChem-01062215323D

 29 28  0     1  0  0  0  0  0999 V2000
   -3.3998   -3.6239    1.3678 H   0  0  0  0  0  0  0  0  0  0  0  0
   -3.3608   -2.6749    0.8348 C   0  0  0  0  0  0  0  0  0  0  0  0
   -4.0988   -1.9909    1.2498 H   0  0  0  0  0  0  0  0  0  0  0  0
   -3.5618   -2.8419   -0.2222 H   0  0  0  0  0  0  0  0  0  0  0  0
   -1.9818   -2.0809    0.9918 C   0  0  0  0  0  0  0  0  0  0  0  0
   -1.1288   -2.6669    1.6468 O   0  0  0  0  0  0  0  0  0  0  0  0
   -1.7648   -0.9089    0.3998 N   0  0  0  0  0  0  0  0  0  0  0  0
   -2.5238   -0.4719   -0.1032 H   0  0  0  0  0  0  0  0  0  0  0  0
   -0.4848   -0.1959    0.4138 C   0  0  1  0  0  0  0  0  0  0  0  0
    0.1386   -0.6144    1.2058 H   0  0  0  0  0  0  0  0  0  0  0  0
    0.2271   -0.4272   -0.9334 C   0  0  0  0  0  0  0  0  0  0  0  0
   -0.4587   -0.1489   -1.7363 H   0  0  0  0  0  0  0  0  0  0  0  0
    1.1013    0.2231   -0.9908 H   0  0  0  0  0  0  0  0  0  0  0  0
    0.6737   -1.8821   -1.1597 C   0  0  0  0  0  0  0  0  0  0  0  0
    1.3734   -2.1771   -0.3780 H   0  0  0  0  0  0  0  0  0  0  0  0
   -0.1997   -2.5322   -1.1087 H   0  0  0  0  0  0  0  0  0  0  0  0
    1.3560   -2.0986   -2.5104 C   0  0  0  0  0  0  0  0  0  0  0  0
    1.4654   -1.2268   -3.3521 O   0  0  0  0  0  0  0  0  0  0  0  0
    1.8579   -3.2853   -2.7750 N   0  0  0  0  0  0  0  0  0  0  0  0
    2.2953   -3.3713   -3.6759 H   0  0  0  0  0  0  0  0  0  0  0  0
    1.7979   -4.0362   -2.1175 H   0  0  0  0  0  0  0  0  0  0  0  0
   -0.7011    1.2952    0.7149 C   0  0  0  0  0  0  0  0  0  0  0  0
   -0.9746    1.6631    1.8559 O   0  0  0  0  0  0  0  0  0  0  0  0
   -0.5898    2.1512   -0.3089 N   0  0  0  0  0  0  0  0  0  0  0  0
   -0.3383    1.7788   -1.2107 H   0  0  0  0  0  0  0  0  0  0  0  0
   -0.7791    3.5962   -0.1884 C   0  0  0  0  0  0  0  0  0  0  0  0
   -0.0958    3.9946    0.5657 H   0  0  0  0  0  0  0  0  0  0  0  0
   -0.5848    4.0866   -1.1434 H   0  0  0  0  0  0  0  0  0  0  0  0
   -1.8021    3.8089    0.1266 H   0  0  0  0  0  0  0  0  0  0  0  0
  5  6  2  0  0  0  0
  5  7  1  0  0  0  0
  2  3  1  0  0  0  0
  2  4  1  0  0  0  0
  2  5  1  0  0  0  0
  1  2  1  0  0  0  0
 22 23  2  0  0  0  0
 22 24  1  0  0  0  0
 19 20  1  0  0  0  0
 19 21  1  0  0  0  0
 17 18  2  0  0  0  0
 17 19  1  0  0  0  0
 14 15  1  0  0  0  0
 14 16  1  0  0  0  0
 14 17  1  0  0  0  0
 11 12  1  0  0  0  0
 11 13  1  0  0  0  0
 11 14  1  0  0  0  0
  9 10  1  0  0  0  0
  9 11  1  0  0  0  0
  9 22  1  0  0  0  0
  7  8  1  0  0  0  0
  7  9  1  0  0  0  0
 26 27  1  0  0  0  0
 26 28  1  0  0  0  0
 26 29  1  0  0  0  0
 24 25  1  0  0  0  0
 24 26  1  0  0  0  0
M  END
$$$$
default_name
  -OEChem-01062215323D

 29 28  0     1  0  0  0  0  0999 V2000
   -3.3998   -3.6239    1.3678 H   0  0  0  0  0  0  0  0  0  0  0  0
   -3.3608   -2.6749    0.8348 C   0  0  0  0  0  0  0  0  0  0  0  0
   -4.0988   -1.9909    1.2498 H   0  0  0  0  0  0  0  0  0  0  0  0
   -3.5618   -2.8419   -0.2222 H   0  0  0  0  0  0  0  0  0  0  0  0
   -1.9818   -2.0809    0.9918 C   0  0  0  0  0  0  0  0  0  0  0  0
   -1.1288   -2.6669    1.6468 O   0  0  0  0  0  0  0  0  0  0  0  0
   -1.7648   -0.9089    0.3998 N   0  0  0  0  0  0  0  0  0  0  0  0
   -2.5238   -0.4719   -0.1032 H   0  0  0  0  0  0  0  0  0  0  0  0
   -0.4848   -0.1959    0.4138 C   0  0  1  0  0  0  0  0  0  0  0  0
    0.1386   -0.6144    1.2058 H   0  0  0  0  0  0  0  0  0  0  0  0
    0.2271   -0.4272   -0.9334 C   0  0  0  0  0  0  0  0  0  0  0  0
   -0.4587   -0.1489   -1.7363 H   0  0  0  0  0  0  0  0  0  0  0  0
    1.1013    0.2231   -0.9908 H   0  0  0  0  0  0  0  0  0  0  0  0
    0.6737   -1.8821   -1.1597 C   0  0  0  0  0  0  0  0  0  0  0  0
    1.3734   -2.1771   -0.3780 H   0  0  0  0  0  0  0  0  0  0  0  0
   -0.1997   -2.5322   -1.1087 H   0  0  0  0  0  0  0  0  0  0  0  0
    1.3560   -2.0986   -2.5104 C   0  0  0  0  0  0  0  0  0  0  0  0
    1.4654   -1.2268   -3.3521 O   0  0  0  0  0  0  0  0  0  0  0  0
    1.8579   -3.2853   -2.7750 N   0  0  0  0  0  0  0  0  0  0  0  0
    2.2953   -3.3713   -3.6759 H   0  0  0  0  0  0  0  0  0  0  0  0
    1.7979   -4.0362   -2.1175 H   0  0  0  0  0  0  0  0  0  0  0  0
   -0.7011    1.2952    0.7149 C   0  0  0  0  0  0  0  0  0  0  0  0
   -0.7004    1.6988    1.8765 O   0  0  0  0  0  0  0  0  0  0  0  0
   -0.8971    2.1107   -0.3291 N   0  0  0  0  0  0  0  0  0  0  0  0
   -0.8591    1.7119   -1.2535 H   0  0  0  0  0  0  0  0  0  0  0  0
   -1.1300    3.5493   -0.2081 C   0  0  0  0  0  0  0  0  0  0  0  0
   -0.3029    4.0107    0.3371 H   0  0  0  0  0  0  0  0  0  0  0  0
   -1.2083    4.0066   -1.1955 H   0  0  0  0  0  0  0  0  0  0  0  0
   -2.0518    3.7280    0.3481 H   0  0  0  0  0  0  0  0  0  0  0  0
  5  6  2  0  0  0  0
  5  7  1  0  0  0  0
  2  3  1  0  0  0  0
  2  4  1  0  0  0  0
  2  5  1  0  0  0  0
  1  2  1  0  0  0  0
 22 23  2  0  0  0  0
 22 24  1  0  0  0  0
 19 20  1  0  0  0  0
 19 21  1  0  0  0  0
 17 18  2  0  0  0  0
 17 19  1  0  0  0  0
 14 15  1  0  0  0  0
 14 16  1  0  0  0  0
 14 17  1  0  0  0  0
 11 12  1  0  0  0  0
 11 13  1  0  0  0  0
 11 14  1  0  0  0  0
  9 10  1  0  0  0  0
  9 11  1  0  0  0  0
  9 22  1  0  0  0  0
  7  8  1  0  0  0  0
  7  9  1  0  0  0  0
 26 27  1  0  0  0  0
 26 28  1  0  0  0  0
 26 29  1  0  0  0  0
 24 25  1  0  0  0  0
 24 26  1  0  0  0  0
M  END
$$$$
default_name
  -OEChem-01062215323D

 29 28  0     1  0  0  0  0  0999 V2000
   -3.3998   -3.6239    1.3678 H   0  0  0  0  0  0  0  0  0  0  0  0
   -3.3608   -2.6749    0.8348 C   0  0  0  0  0  0  0  0  0  0  0  0
   -4.0988   -1.9909    1.2498 H   0  0  0  0  0  0  0  0  0  0  0  0
   -3.5618   -2.8419   -0.2222 H   0  0  0  0  0  0  0  0  0  0  0  0
   -1.9818   -2.0809    0.9918 C   0  0  0  0  0  0  0  0  0  0  0  0
   -1.1288   -2.6669    1.6468 O   0  0  0  0  0  0  0  0  0  0  0  0
   -1.7648   -0.9089    0.3998 N   0  0  0  0  0  0  0  0  0  0  0  0
   -2.5238   -0.4719   -0.1032 H   0  0  0  0  0  0  0  0  0  0  0  0
   -0.4848   -0.1959    0.4138 C   0  0  1  0  0  0  0  0  0  0  0  0
    0.1386   -0.6144    1.2058 H   0  0  0  0  0  0  0  0  0  0  0  0
    0.2271   -0.4272   -0.9334 C   0  0  0  0  0  0  0  0  0  0  0  0
   -0.4587   -0.1489   -1.7363 H   0  0  0  0  0  0  0  0  0  0  0  0
    1.1013    0.2231   -0.9908 H   0  0  0  0  0  0  0  0  0  0  0  0
    0.6737   -1.8821   -1.1597 C   0  0  0  0  0  0  0  0  0  0  0  0
    1.3734   -2.1771   -0.3780 H   0  0  0  0  0  0  0  0  0  0  0  0
   -0.1997   -2.5322   -1.1087 H   0  0  0  0  0  0  0  0  0  0  0  0
    1.3560   -2.0986   -2.5104 C   0  0  0  0  0  0  0  0  0  0  0  0
    1.4654   -1.2268   -3.3521 O   0  0  0  0  0  0  0  0  0  0  0  0
    1.8579   -3.2853   -2.7750 N   0  0  0  0  0  0  0  0  0  0  0  0
    2.2953   -3.3713   -3.6759 H   0  0  0  0  0  0  0  0  0  0  0  0
    1.7979   -4.0362   -2.1175 H   0  0  0  0  0  0  0  0  0  0  0  0
   -0.7011    1.2952    0.7149 C   0  0  0  0  0  0  0  0  0  0  0  0
   -0.4321    1.7479    1.8261 O   0  0  0  0  0  0  0  0  0  0  0  0
   -1.1970    2.0553   -0.2699 N   0  0  0  0  0  0  0  0  0  0  0  0
   -1.3695    1.6193   -1.1617 H   0  0  0  0  0  0  0  0  0  0  0  0
   -1.4715    3.4854   -0.1373 C   0  0  0  0  0  0  0  0  0  0  0  0
   -0.5611    4.0075    0.1677 H   0  0  0  0  0  0  0  0  0  0  0  0
   -1.8196    3.8959   -1.0863 H   0  0  0  0  0  0  0  0  0  0  0  0
   -2.2332    3.6452    0.6277 H   0  0  0  0  0  0  0  0  0  0  0  0
  5  6  2  0  0  0  0
  5  7  1  0  0  0  0
  2  3  1  0  0  0  0
  2  4  1  0  0  0  0
  2  5  1  0  0  0  0
  1  2  1  0  0  0  0
 22 23  2  0  0  0  0
 22 24  1  0  0  0  0
 19 20  1  0  0  0  0
 19 21  1  0  0  0  0
 17 18  2  0  0  0  0
 17 19  1  0  0  0  0
 14 15  1  0  0  0  0
 14 16  1  0  0  0  0
 14 17  1  0  0  0  0
 11 12  1  0  0  0  0
 11 13  1  0  0  0  0
 11 14  1  0  0  0  0
  9 10  1  0  0  0  0
  9 11  1  0  0  0  0
  9 22  1  0  0  0  0
  7  8  1  0  0  0  0
  7  9  1  0  0  0  0
 26 27  1  0  0  0  0
 26 28  1  0  0  0  0
 26 29  1  0  0  0  0
 24 25  1  0  0  0  0
 24 26  1  0  0  0  0
M  END
$$$$
default_name
  -OEChem-01062215323D

 29 28  0     1  0  0  0  0  0999 V2000
   -3.3998   -3.6239    1.3678 H   0  0  0  0  0  0  0  0  0  0  0  0
   -3.3608   -2.6749    0.8348 C   0  0  0  0  0  0  0  0  0  0  0  0
   -4.0988   -1.9909    1.2498 H   0  0  0  0  0  0  0  0  0  0  0  0
   -3.5618   -2.8419   -0.2222 H   0  0  0  0  0  0  0  0  0  0  0  0
   -1.9818   -2.0809    0.9918 C   0  0  0  0  0  0  0  0  0  0  0  0
   -1.1288   -2.6669    1.6468 O   0  0  0  0  0  0  0  0  0  0  0  0
   -1.7648   -0.9089    0.3998 N   0  0  0  0  0  0  0  0  0  0  0  0
   -2.5238   -0.4719   -0.1032 H   0  0  0  0  0  0  0  0  0  0  0  0
   -0.4848   -0.1959    0.4138 C   0  0  1  0  0  0  0  0  0  0  0  0
    0.1386   -0.6144    1.2058 H   0  0  0  0  0  0  0  0  0  0  0  0
    0.2271   -0.4272   -0.9334 C   0  0  0  0  0  0  0  0  0  0  0  0
   -0.4587   -0.1489   -1.7363 H   0  0  0  0  0  0  0  0  0  0  0  0
    1.1013    0.2231   -0.9908 H   0  0  0  0  0  0  0  0  0  0  0  0
    0.6737   -1.8821   -1.1597 C   0  0  0  0  0  0  0  0  0  0  0  0
    1.3734   -2.1771   -0.3780 H   0  0  0  0  0  0  0  0  0  0  0  0
   -0.1997   -2.5322   -1.1087 H   0  0  0  0  0  0  0  0  0  0  0  0
    1.3560   -2.0986   -2.5104 C   0  0  0  0  0  0  0  0  0  0  0  0
    1.4654   -1.2268   -3.3521 O   0  0  0  0  0  0  0  0  0  0  0  0
    1.8579   -3.2853   -2.7750 N   0  0  0  0  0  0  0  0  0  0  0  0
    2.2953   -3.3713   -3.6759 H   0  0  0  0  0  0  0  0  0  0  0  0
    1.7979   -4.0362   -2.1175 H   0  0  0  0  0  0  0  0  0  0  0  0
   -0.7011    1.2952    0.7149 C   0  0  0  0  0  0  0  0  0  0  0  0
   -0.1881    1.8071    1.7083 O   0  0  0  0  0  0  0  0  0  0  0  0
   -1.4689    1.9886   -0.1354 N   0  0  0  0  0  0  0  0  0  0  0  0
   -1.8347    1.5073   -0.9414 H   0  0  0  0  0  0  0  0  0  0  0  0
   -1.7803    3.4090    0.0192 C   0  0  0  0  0  0  0  0  0  0  0  0
   -0.8530    3.9850    0.0690 H   0  0  0  0  0  0  0  0  0  0  0  0
   -2.3770    3.7619   -0.8233 H   0  0  0  0  0  0  0  0  0  0  0  0
   -2.3340    3.5662    0.9464 H   0  0  0  0  0  0  0  0  0  0  0  0
  5  6  2  0  0  0  0
  5  7  1  0  0  0  0
  2  3  1  0  0  0  0
  2  4  1  0  0  0  0
  2  5  1  0  0  0  0
  1  2  1  0  0  0  0
 22 23  2  0  0  0  0
 22 24  1  0  0  0  0
 19 20  1  0  0  0  0
 19 21  1  0  0  0  0
 17 18  2  0  0  0  0
 17 19  1  0  0  0  0
 14 15  1  0  0  0  0
 14 16  1  0  0  0  0
 14 17  1  0  0  0  0
 11 12  1  0  0  0  0
 11 13  1  0  0  0  0
 11 14  1  0  0  0  0
  9 10  1  0  0  0  0
  9 11  1  0  0  0  0
  9 22  1  0  0  0  0
  7  8  1  0  0  0  0
  7  9  1  0  0  0  0
 26 27  1  0  0  0  0
 26 28  1  0  0  0  0
 26 29  1  0  0  0  0
 24 25  1  0  0  0  0
 24 26  1  0  0  0  0
M  END
$$$$
default_name
  -OEChem-01062215323D

 29 28  0     1  0  0  0  0  0999 V2000
   -3.3998   -3.6239    1.3678 H   0  0  0  0  0  0  0  0  0  0  0  0
   -3.3608   -2.6749    0.8348 C   0  0  0  0  0  0  0  0  0  0  0  0
   -4.0988   -1.9909    1.2498 H   0  0  0  0  0  0  0  0  0  0  0  0
   -3.5618   -2.8419   -0.2222 H   0  0  0  0  0  0  0  0  0  0  0  0
   -1.9818   -2.0809    0.9918 C   0  0  0  0  0  0  0  0  0  0  0  0
   -1.1288   -2.6669    1.6468 O   0  0  0  0  0  0  0  0  0  0  0  0
   -1.7648   -0.9089    0.3998 N   0  0  0  0  0  0  0  0  0  0  0  0
   -2.5238   -0.4719   -0.1032 H   0  0  0  0  0  0  0  0  0  0  0  0
   -0.4848   -0.1959    0.4138 C   0  0  1  0  0  0  0  0  0  0  0  0
    0.1386   -0.6144    1.2058 H   0  0  0  0  0  0  0  0  0  0  0  0
    0.2271   -0.4272   -0.9334 C   0  0  0  0  0  0  0  0  0  0  0  0
   -0.4587   -0.1489   -1.7363 H   0  0  0  0  0  0  0  0  0  0  0  0
    1.1013    0.2231   -0.9908 H   0  0  0  0  0  0  0  0  0  0  0  0
    0.6737   -1.8821   -1.1597 C   0  0  0  0  0  0  0  0  0  0  0  0
    1.3734   -2.1771   -0.3780 H   0  0  0  0  0  0  0  0  0  0  0  0
   -0.1997   -2.5322   -1.1087 H   0  0  0  0  0  0  0  0  0  0  0  0
    1.3560   -2.0986   -2.5104 C   0  0  0  0  0  0  0  0  0  0  0  0
    1.4654   -1.2268   -3.3521 O   0  0  0  0  0  0  0  0  0  0  0  0
    1.8579   -3.2853   -2.7750 N   0  0  0  0  0  0  0  0  0  0  0  0
    2.2953   -3.3713   -3.6759 H   0  0  0  0  0  0  0  0  0  0  0  0
    1.7979   -4.0362   -2.1175 H   0  0  0  0  0  0  0  0  0  0  0  0
   -0.7011    1.2952    0.7149 C   0  0  0  0  0  0  0  0  0  0  0  0
    0.0150    1.8723    1.5311 O   0  0  0  0  0  0  0  0  0  0  0  0
   -1.6945    1.9154    0.0652 N   0  0  0  0  0  0  0  0  0  0  0  0
   -2.2231    1.3836   -0.6078 H   0  0  0  0  0  0  0  0  0  0  0  0
   -2.0354    3.3252    0.2507 C   0  0  0  0  0  0  0  0  0  0  0  0
   -1.1585    3.9450    0.0479 H   0  0  0  0  0  0  0  0  0  0  0  0
   -2.8425    3.6137   -0.4243 H   0  0  0  0  0  0  0  0  0  0  0  0
   -2.3474    3.4964    1.2824 H   0  0  0  0  0  0  0  0  0  0  0  0
  5  6  2  0  0  0  0
  5  7  1  0  0  0  0
  2  3  1  0  0  0  0
  2  4  1  0  0  0  0
  2  5  1  0  0  0  0
  1  2  1  0  0  0  0
 22 23  2  0  0  0  0
 22 24  1  0  0  0  0
 19 20  1  0  0  0  0
 19 21  1  0  0  0  0
 17 18  2  0  0  0  0
 17 19  1  0  0  0  0
 14 15  1  0  0  0  0
 14 16  1  0  0  0  0
 14 17  1  0  0  0  0
 11 12  1  0  0  0  0
 11 13  1  0  0  0  0
 11 14  1  0  0  0  0
  9 10  1  0  0  0  0
  9 11  1  0  0  0  0
  9 22  1  0  0  0  0
  7  8  1  0  0  0  0
  7  9  1  0  0  0  0
 26 27  1  0  0  0  0
 26 28  1  0  0  0  0
 26 29  1  0  0  0  0
 24 25  1  0  0  0  0
 24 26  1  0  0  0  0
M  END
$$$$
default_name
  -OEChem-01062215323D

 29 28  0     1  0  0  0  0  0999 V2000
   -3.3998   -3.6239    1.3678 H   0  0  0  0  0  0  0  0  0  0  0  0
   -3.3608   -2.6749    0.8348 C   0  0  0  0  0  0  0  0  0  0  0  0
   -4.0988   -1.9909    1.2498 H   0  0  0  0  0  0  0  0  0  0  0  0
   -3.5618   -2.8419   -0.2222 H   0  0  0  0  0  0  0  0  0  0  0  0
   -1.9818   -2.0809    0.9918 C   0  0  0  0  0  0  0  0  0  0  0  0
   -1.1288   -2.6669    1.6468 O   0  0  0  0  0  0  0  0  0  0  0  0
   -1.7648   -0.9089    0.3998 N   0  0  0  0  0  0  0  0  0  0  0  0
   -2.5238   -0.4719   -0.1032 H   0  0  0  0  0  0  0  0  0  0  0  0
   -0.4848   -0.1959    0.4138 C   0  0  1  0  0  0  0  0  0  0  0  0
    0.1386   -0.6144    1.2058 H   0  0  0  0  0  0  0  0  0  0  0  0
    0.2271   -0.4272   -0.9334 C   0  0  0  0  0  0  0  0  0  0  0  0
   -0.4587   -0.1489   -1.7363 H   0  0  0  0  0  0  0  0  0  0  0  0
    1.1013    0.2231   -0.9908 H   0  0  0  0  0  0  0  0  0  0  0  0
    0.6737   -1.8821   -1.1597 C   0  0  0  0  0  0  0  0  0  0  0  0
    1.3734   -2.1771   -0.3780 H   0  0  0  0  0  0  0  0  0  0  0  0
   -0.1997   -2.5322   -1.1087 H   0  0  0  0  0  0  0  0  0  0  0  0
    1.3560   -2.0986   -2.5104 C   0  0  0  0  0  0  0  0  0  0  0  0
    1.4654   -1.2268   -3.3521 O   0  0  0  0  0  0  0  0  0  0  0  0
    1.8579   -3.2853   -2.7750 N   0  0  0  0  0  0  0  0  0  0  0  0
    2.2953   -3.3713   -3.6759 H   0  0  0  0  0  0  0  0  0  0  0  0
    1.7979   -4.0362   -2.1175 H   0  0  0  0  0  0  0  0  0  0  0  0
   -0.7011    1.2952    0.7149 C   0  0  0  0  0  0  0  0  0  0  0  0
    0.1633    1.9392    1.3065 O   0  0  0  0  0  0  0  0  0  0  0  0
   -1.8582    1.8405    0.3184 N   0  0  0  0  0  0  0  0  0  0  0  0
   -2.5081    1.2565   -0.1834 H   0  0  0  0  0  0  0  0  0  0  0  0
   -2.2194    3.2398    0.5415 C   0  0  0  0  0  0  0  0  0  0  0  0
   -1.4569    3.8900    0.1056 H   0  0  0  0  0  0  0  0  0  0  0  0
   -3.1845    3.4616    0.0834 H   0  0  0  0  0  0  0  0  0  0  0  0
   -2.2723    3.4405    1.6129 H   0  0  0  0  0  0  0  0  0  0  0  0
  5  6  2  0  0  0  0
  5  7  1  0  0  0  0
  2  3  1  0  0  0  0
  2  4  1  0  0  0  0
  2  5  1  0  0  0  0
  1  2  1  0  0  0  0
 22 23  2  0  0  0  0
 22 24  1  0  0  0  0
 19 20  1  0  0  0  0
 19 21  1  0  0  0  0
 17 18  2  0  0  0  0
 17 19  1  0  0  0  0
 14 15  1  0  0  0  0
 14 16  1  0  0  0  0
 14 17  1  0  0  0  0
 11 12  1  0  0  0  0
 11 13  1  0  0  0  0
 11 14  1  0  0  0  0
  9 10  1  0  0  0  0
  9 11  1  0  0  0  0
  9 22  1  0  0  0  0
  7  8  1  0  0  0  0
  7  9  1  0  0  0  0
 26 27  1  0  0  0  0
 26 28  1  0  0  0  0
 26 29  1  0  0  0  0
 24 25  1  0  0  0  0
 24 26  1  0  0  0  0
M  END
$$$$
default_name
  -OEChem-01062215323D

 29 28  0     1  0  0  0  0  0999 V2000
   -3.3998   -3.6239    1.3678 H   0  0  0  0  0  0  0  0  0  0  0  0
   -3.3608   -2.6749    0.8348 C   0  0  0  0  0  0  0  0  0  0  0  0
   -4.0988   -1.9909    1.2498 H   0  0  0  0  0  0  0  0  0  0  0  0
   -3.5618   -2.8419   -0.2222 H   0  0  0  0  0  0  0  0  0  0  0  0
   -1.9818   -2.0809    0.9918 C   0  0  0  0  0  0  0  0  0  0  0  0
   -1.1288   -2.6669    1.6468 O   0  0  0  0  0  0  0  0  0  0  0  0
   -1.7648   -0.9089    0.3998 N   0  0  0  0  0  0  0  0  0  0  0  0
   -2.5238   -0.4719   -0.1032 H   0  0  0  0  0  0  0  0  0  0  0  0
   -0.4848   -0.1959    0.4138 C   0  0  1  0  0  0  0  0  0  0  0  0
    0.1386   -0.6144    1.2058 H   0  0  0  0  0  0  0  0  0  0  0  0
    0.2271   -0.4272   -0.9334 C   0  0  0  0  0  0  0  0  0  0  0  0
   -0.4587   -0.1489   -1.7363 H   0  0  0  0  0  0  0  0  0  0  0  0
    1.1013    0.2231   -0.9908 H   0  0  0  0  0  0  0  0  0  0  0  0
    0.6737   -1.8821   -1.1597 C   0  0  0  0  0  0  0  0  0  0  0  0
    1.3734   -2.1771   -0.3780 H   0  0  0  0  0  0  0  0  0  0  0  0
   -0.1997   -2.5322   -1.1087 H   0  0  0  0  0  0  0  0  0  0  0  0
    1.3560   -2.0986   -2.5104 C   0  0  0  0  0  0  0  0  0  0  0  0
    1.4654   -1.2268   -3.3521 O   0  0  0  0  0  0  0  0  0  0  0  0
    1.8579   -3.2853   -2.7750 N   0  0  0  0  0  0  0  0  0  0  0  0
    2.2953   -3.3713   -3.6759 H   0  0  0  0  0  0  0  0  0  0  0  0
    1.7979   -4.0362   -2.1175 H   0  0  0  0  0  0  0  0  0  0  0  0
   -0.7011    1.2952    0.7149 C   0  0  0  0  0  0  0  0  0  0  0  0
    0.2468    2.0032    1.0499 O   0  0  0  0  0  0  0  0  0  0  0  0
   -1.9490    1.7691    0.6067 N   0  0  0  0  0  0  0  0  0  0  0  0
   -2.6704    1.1348    0.3028 H   0  0  0  0  0  0  0  0  0  0  0  0
   -2.3198    3.1585    0.8716 C   0  0  0  0  0  0  0  0  0  0  0  0
   -1.7278    3.8239    0.2383 H   0  0  0  0  0  0  0  0  0  0  0  0
   -3.3796    3.3157    0.6652 H   0  0  0  0  0  0  0  0  0  0  0  0
   -2.1140    3.4024    1.9153 H   0  0  0  0  0  0  0  0  0  0  0  0
  5  6  2  0  0  0  0
  5  7  1  0  0  0  0
  2  3  1  0  0  0  0
  2  4  1  0  0  0  0
  2  5  1  0  0  0  0
  1  2  1  0  0  0  0
 22 23  2  0  0  0  0
 22 24  1  0  0  0  0
 19 20  1  0  0  0  0
 19 21  1  0  0  0  0
 17 18  2  0  0  0  0
 17 19  1  0  0  0  0
 14 15  1  0  0  0  0
 14 16  1  0  0  0  0
 14 17  1  0  0  0  0
 11 12  1  0  0  0  0
 11 13  1  0  0  0  0
 11 14  1  0  0  0  0
  9 10  1  0  0  0  0
  9 11  1  0  0  0  0
  9 22  1  0  0  0  0
  7  8  1  0  0  0  0
  7  9  1  0  0  0  0
 26 27  1  0  0  0  0
 26 28  1  0  0  0  0
 26 29  1  0  0  0  0
 24 25  1  0  0  0  0
 24 26  1  0  0  0  0
M  END
$$$$
default_name
  -OEChem-01062215323D

 29 28  0     1  0  0  0  0  0999 V2000
   -3.3998   -3.6239    1.3678 H   0  0  0  0  0  0  0  0  0  0  0  0
   -3.3608   -2.6749    0.8348 C   0  0  0  0  0  0  0  0  0  0  0  0
   -4.0988   -1.9909    1.2498 H   0  0  0  0  0  0  0  0  0  0  0  0
   -3.5618   -2.8419   -0.2222 H   0  0  0  0  0  0  0  0  0  0  0  0
   -1.9818   -2.0809    0.9918 C   0  0  0  0  0  0  0  0  0  0  0  0
   -1.1288   -2.6669    1.6468 O   0  0  0  0  0  0  0  0  0  0  0  0
   -1.7648   -0.9089    0.3998 N   0  0  0  0  0  0  0  0  0  0  0  0
   -2.5238   -0.4719   -0.1032 H   0  0  0  0  0  0  0  0  0  0  0  0
   -0.4848   -0.1959    0.4138 C   0  0  1  0  0  0  0  0  0  0  0  0
    0.1386   -0.6144    1.2058 H   0  0  0  0  0  0  0  0  0  0  0  0
    0.2271   -0.4272   -0.9334 C   0  0  0  0  0  0  0  0  0  0  0  0
   -0.4587   -0.1489   -1.7363 H   0  0  0  0  0  0  0  0  0  0  0  0
    1.1013    0.2231   -0.9908 H   0  0  0  0  0  0  0  0  0  0  0  0
    0.6737   -1.8821   -1.1597 C   0  0  0  0  0  0  0  0  0  0  0  0
    1.3734   -2.1771   -0.3780 H   0  0  0  0  0  0  0  0  0  0  0  0
   -0.1997   -2.5322   -1.1087 H   0  0  0  0  0  0  0  0  0  0  0  0
    1.3560   -2.0986   -2.5104 C   0  0  0  0  0  0  0  0  0  0  0  0
    1.4654   -1.2268   -3.3521 O   0  0  0  0  0  0  0  0  0  0  0  0
    1.8579   -3.2853   -2.7750 N   0  0  0  0  0  0  0  0  0  0  0  0
    2.2953   -3.3713   -3.6759 H   0  0  0  0  0  0  0  0  0  0  0  0
    1.7979   -4.0362   -2.1175 H   0  0  0  0  0  0  0  0  0  0  0  0
   -0.7011    1.2952    0.7149 C   0  0  0  0  0  0  0  0  0  0  0  0
    0.2597    2.0598    0.7787 O   0  0  0  0  0  0  0  0  0  0  0  0
   -1.9607    1.7060    0.9107 N   0  0  0  0  0  0  0  0  0  0  0  0
   -2.6989    1.0267    0.8175 H   0  0  0  0  0  0  0  0  0  0  0  0
   -2.3297    3.0870    1.2187 C   0  0  0  0  0  0  0  0  0  0  0  0
   -1.9529    3.7511    0.4370 H   0  0  0  0  0  0  0  0  0  0  0  0
   -3.4145    3.1862    1.2816 H   0  0  0  0  0  0  0  0  0  0  0  0
   -1.8831    3.3847    2.1690 H   0  0  0  0  0  0  0  0  0  0  0  0
  5  6  2  0  0  0  0
  5  7  1  0  0  0  0
  2  3  1  0  0  0  0
  2  4  1  0  0  0  0
  2  5  1  0  0  0  0
  1  2  1  0  0  0  0
 22 23  2  0  0  0  0
 22 24  1  0  0  0  0
 19 20  1  0  0  0  0
 19 21  1  0  0  0  0
 17 18  2  0  0  0  0
 17 19  1  0  0  0  0
 14 15  1  0  0  0  0
 14 16  1  0  0  0  0
 14 17  1  0  0  0  0
 11 12  1  0  0  0  0
 11 13  1  0  0  0  0
 11 14  1  0  0  0  0
  9 10  1  0  0  0  0
  9 11  1  0  0  0  0
  9 22  1  0  0  0  0
  7  8  1  0  0  0  0
  7  9  1  0  0  0  0
 26 27  1  0  0  0  0
 26 28  1  0  0  0  0
 26 29  1  0  0  0  0
 24 25  1  0  0  0  0
 24 26  1  0  0  0  0
M  END
$$$$
default_name
  -OEChem-01062215323D

 29 28  0     1  0  0  0  0  0999 V2000
   -3.3998   -3.6239    1.3678 H   0  0  0  0  0  0  0  0  0  0  0  0
   -3.3608   -2.6749    0.8348 C   0  0  0  0  0  0  0  0  0  0  0  0
   -4.0988   -1.9909    1.2498 H   0  0  0  0  0  0  0  0  0  0  0  0
   -3.5618   -2.8419   -0.2222 H   0  0  0  0  0  0  0  0  0  0  0  0
   -1.9818   -2.0809    0.9918 C   0  0  0  0  0  0  0  0  0  0  0  0
   -1.1288   -2.6669    1.6468 O   0  0  0  0  0  0  0  0  0  0  0  0
   -1.7648   -0.9089    0.3998 N   0  0  0  0  0  0  0  0  0  0  0  0
   -2.5238   -0.4719   -0.1032 H   0  0  0  0  0  0  0  0  0  0  0  0
   -0.4848   -0.1959    0.4138 C   0  0  1  0  0  0  0  0  0  0  0  0
    0.1386   -0.6144    1.2058 H   0  0  0  0  0  0  0  0  0  0  0  0
    0.2271   -0.4272   -0.9334 C   0  0  0  0  0  0  0  0  0  0  0  0
   -0.4587   -0.1489   -1.7363 H   0  0  0  0  0  0  0  0  0  0  0  0
    1.1013    0.2231   -0.9908 H   0  0  0  0  0  0  0  0  0  0  0  0
    0.6737   -1.8821   -1.1597 C   0  0  0  0  0  0  0  0  0  0  0  0
    1.3734   -2.1771   -0.3780 H   0  0  0  0  0  0  0  0  0  0  0  0
   -0.1997   -2.5322   -1.1087 H   0  0  0  0  0  0  0  0  0  0  0  0
    1.3560   -2.0986   -2.5104 C   0  0  0  0  0  0  0  0  0  0  0  0
    1.4654   -1.2268   -3.3521 O   0  0  0  0  0  0  0  0  0  0  0  0
    1.8579   -3.2853   -2.7750 N   0  0  0  0  0  0  0  0  0  0  0  0
    2.2953   -3.3713   -3.6759 H   0  0  0  0  0  0  0  0  0  0  0  0
    1.7979   -4.0362   -2.1175 H   0  0  0  0  0  0  0  0  0  0  0  0
   -0.7011    1.2952    0.7149 C   0  0  0  0  0  0  0  0  0  0  0  0
    0.2012    2.1053    0.5115 O   0  0  0  0  0  0  0  0  0  0  0  0
   -1.8924    1.6556    1.2095 N   0  0  0  0  0  0  0  0  0  0  0  0
   -2.5916    0.9396    1.3259 H   0  0  0  0  0  0  0  0  0  0  0  0
   -2.2485    3.0300    1.5591 C   0  0  0  0  0  0  0  0  0  0  0  0
   -2.1166    3.6766    0.6881 H   0  0  0  0  0  0  0  0  0  0  0  0
   -3.2868    3.0818    1.8904 H   0  0  0  0  0  0  0  0  0  0  0  0
   -1.5955    3.3885    2.3567 H   0  0  0  0  0  0  0  0  0  0  0  0
  5  6  2  0  0  0  0
  5  7  1  0  0  0  0
  2  3  1  0  0  0  0
  2  4  1  0  0  0  0
  2  5  1  0  0  0  0
  1  2  1  0  0  0  0
 22 23  2  0  0  0  0
 22 24  1  0  0  0  0
 19 20  1  0  0  0  0
 19 21  1  0  0  0  0
 17 18  2  0  0  0  0
 17 19  1  0  0  0  0
 14 15  1  0  0  0  0
 14 16  1  0  0  0  0
 14 17  1  0  0  0  0
 11 12  1  0  0  0  0
 11 13  1  0  0  0  0
 11 14  1  0  0  0  0
  9 10  1  0  0  0  0
  9 11  1  0  0  0  0
  9 22  1  0  0  0  0
  7  8  1  0  0  0  0
  7  9  1  0  0  0  0
 26 27  1  0  0  0  0
 26 28  1  0  0  0  0
 26 29  1  0  0  0  0
 24 25  1  0  0  0  0
 24 26  1  0  0  0  0
M  END
$$$$
default_name
  -OEChem-01062215323D

 29 28  0     1  0  0  0  0  0999 V2000
   -3.3998   -3.6239    1.3678 H   0  0  0  0  0  0  0  0  0  0  0  0
   -3.3608   -2.6749    0.8348 C   0  0  0  0  0  0  0  0  0  0  0  0
   -4.0988   -1.9909    1.2498 H   0  0  0  0  0  0  0  0  0  0  0  0
   -3.5618   -2.8419   -0.2222 H   0  0  0  0  0  0  0  0  0  0  0  0
   -1.9818   -2.0809    0.9918 C   0  0  0  0  0  0  0  0  0  0  0  0
   -1.1288   -2.6669    1.6468 O   0  0  0  0  0  0  0  0  0  0  0  0
   -1.7648   -0.9089    0.3998 N   0  0  0  0  0  0  0  0  0  0  0  0
   -2.5238   -0.4719   -0.1032 H   0  0  0  0  0  0  0  0  0  0  0  0
   -0.4848   -0.1959    0.4138 C   0  0  1  0  0  0  0  0  0  0  0  0
    0.1386   -0.6144    1.2058 H   0  0  0  0  0  0  0  0  0  0  0  0
    0.2271   -0.4272   -0.9334 C   0  0  0  0  0  0  0  0  0  0  0  0
   -0.4587   -0.1489   -1.7363 H   0  0  0  0  0  0  0  0  0  0  0  0
    1.1013    0.2231   -0.9908 H   0  0  0  0  0  0  0  0  0  0  0  0
    0.6737   -1.8821   -1.1597 C   0  0  0  0  0  0  0  0  0  0  0  0
    1.3734   -2.1771   -0.3780 H   0  0  0  0  0  0  0  0  0  0  0  0
   -0.1997   -2.5322   -1.1087 H   0  0  0  0  0  0  0  0  0  0  0  0
    1.3560   -2.0986   -2.5104 C   0  0  0  0  0  0  0  0  0  0  0  0
    1.4654   -1.2268   -3.3521 O   0  0  0  0  0  0  0  0  0  0  0  0
    1.8579   -3.2853   -2.7750 N   0  0  0  0  0  0  0  0  0  0  0  0
    2.2953   -3.3713   -3.6759 H   0  0  0  0  0  0  0  0  0  0  0  0
    1.7979   -4.0362   -2.1175 H   0  0  0  0  0  0  0  0  0  0  0  0
   -0.7011    1.2952    0.7149 C   0  0  0  0  0  0  0  0  0  0  0  0
    0.0753    2.1365    0.2663 O   0  0  0  0  0  0  0  0  0  0  0  0
   -1.7488    1.6212    1.4828 N   0  0  0  0  0  0  0  0  0  0  0  0
   -2.3559    0.8794    1.7931 H   0  0  0  0  0  0  0  0  0  0  0  0
   -2.0817    2.9916    1.8696 C   0  0  0  0  0  0  0  0  0  0  0  0
   -2.2080    3.6056    0.9744 H   0  0  0  0  0  0  0  0  0  0  0  0
   -3.0052    3.0096    2.4502 H   0  0  0  0  0  0  0  0  0  0  0  0
   -1.2708    3.4136    2.4656 H   0  0  0  0  0  0  0  0  0  0  0  0
  5  6  2  0  0  0  0
  5  7  1  0  0  0  0
  2  3  1  0  0  0  0
  2  4  1  0  0  0  0
  2  5  1  0  0  0  0
  1  2  1  0  0  0  0
 22 23  2  0  0  0  0
 22 24  1  0  0  0  0
 19 20  1  0  0  0  0
 19 21  1  0  0  0  0
 17 18  2  0  0  0  0
 17 19  1  0  0  0  0
 14 15  1  0  0  0  0
 14 16  1  0  0  0  0
 14 17  1  0  0  0  0
 11 12  1  0  0  0  0
 11 13  1  0  0  0  0
 11 14  1  0  0  0  0
  9 10  1  0  0  0  0
  9 11  1  0  0  0  0
  9 22  1  0  0  0  0
  7  8  1  0  0  0  0
  7  9  1  0  0  0  0
 26 27  1  0  0  0  0
 26 28  1  0  0  0  0
 26 29  1  0  0  0  0
 24 25  1  0  0  0  0
 24 26  1  0  0  0  0
M  END
$$$$
default_name
  -OEChem-01062215323D

 29 28  0     1  0  0  0  0  0999 V2000
   -3.3998   -3.6239    1.3678 H   0  0  0  0  0  0  0  0  0  0  0  0
   -3.3608   -2.6749    0.8348 C   0  0  0  0  0  0  0  0  0  0  0  0
   -4.0988   -1.9909    1.2498 H   0  0  0  0  0  0  0  0  0  0  0  0
   -3.5618   -2.8419   -0.2222 H   0  0  0  0  0  0  0  0  0  0  0  0
   -1.9818   -2.0809    0.9918 C   0  0  0  0  0  0  0  0  0  0  0  0
   -1.1288   -2.6669    1.6468 O   0  0  0  0  0  0  0  0  0  0  0  0
   -1.7648   -0.9089    0.3998 N   0  0  0  0  0  0  0  0  0  0  0  0
   -2.5238   -0.4719   -0.1032 H   0  0  0  0  0  0  0  0  0  0  0  0
   -0.4848   -0.1959    0.4138 C   0  0  1  0  0  0  0  0  0  0  0  0
    0.1386   -0.6144    1.2058 H   0  0  0  0  0  0  0  0  0  0  0  0
    0.2271   -0.4272   -0.9334 C   0  0  0  0  0  0  0  0  0  0  0  0
   -0.4587   -0.1489   -1.7363 H   0  0  0  0  0  0  0  0  0  0  0  0
    1.1013    0.2231   -0.9908 H   0  0  0  0  0  0  0  0  0  0  0  0
    0.6737   -1.8821   -1.1597 C   0  0  0  0  0  0  0  0  0  0  0  0
    1.3734   -2.1771   -0.3780 H   0  0  0  0  0  0  0  0  0  0  0  0
   -0.1997   -2.5322   -1.1087 H   0  0  0  0  0  0  0  0  0  0  0  0
    1.3560   -2.0986   -2.5104 C   0  0  0  0  0  0  0  0  0  0  0  0
    1.4654   -1.2268   -3.3521 O   0  0  0  0  0  0  0  0  0  0  0  0
    1.8579   -3.2853   -2.7750 N   0  0  0  0  0  0  0  0  0  0  0  0
    2.2953   -3.3713   -3.6759 H   0  0  0  0  0  0  0  0  0  0  0  0
    1.7979   -4.0362   -2.1175 H   0  0  0  0  0  0  0  0  0  0  0  0
   -0.7011    1.2952    0.7149 C   0  0  0  0  0  0  0  0  0  0  0  0
   -0.1095    2.1514    0.0601 O   0  0  0  0  0  0  0  0  0  0  0  0
   -1.5397    1.6052    1.7120 N   0  0  0  0  0  0  0  0  0  0  0  0
   -2.0078    0.8503    2.1874 H   0  0  0  0  0  0  0  0  0  0  0  0
   -1.8406    2.9742    2.1290 C   0  0  0  0  0  0  0  0  0  0  0  0
   -2.2207    3.5427    1.2766 H   0  0  0  0  0  0  0  0  0  0  0  0
   -2.5890    2.9745    2.9228 H   0  0  0  0  0  0  0  0  0  0  0  0
   -0.9310    3.4583    2.4884 H   0  0  0  0  0  0  0  0  0  0  0  0
  5  6  2  0  0  0  0
  5  7  1  0  0  0  0
  2  3  1  0  0  0  0
  2  4  1  0  0  0  0
  2  5  1  0  0  0  0
  1  2  1  0  0  0  0
 22 23  2  0  0  0  0
 22 24  1  0  0  0  0
 19 20  1  0  0  0  0
 19 21  1  0  0  0  0
 17 18  2  0  0  0  0
 17 19  1  0  0  0  0
 14 15  1  0  0  0  0
 14 16  1  0  0  0  0
 14 17  1  0  0  0  0
 11 12  1  0  0  0  0
 11 13  1  0  0  0  0
 11 14  1  0  0  0  0
  9 10  1  0  0  0  0
  9 11  1  0  0  0  0
  9 22  1  0  0  0  0
  7  8  1  0  0  0  0
  7  9  1  0  0  0  0
 26 27  1  0  0  0  0
 26 28  1  0  0  0  0
 26 29  1  0  0  0  0
 24 25  1  0  0  0  0
 24 26  1  0  0  0  0
M  END
$$$$
default_name
  -OEChem-01062215323D

 29 28  0     1  0  0  0  0  0999 V2000
   -3.3998   -3.6239    1.3678 H   0  0  0  0  0  0  0  0  0  0  0  0
   -3.3608   -2.6749    0.8348 C   0  0  0  0  0  0  0  0  0  0  0  0
   -4.0988   -1.9909    1.2498 H   0  0  0  0  0  0  0  0  0  0  0  0
   -3.5618   -2.8419   -0.2222 H   0  0  0  0  0  0  0  0  0  0  0  0
   -1.9818   -2.0809    0.9918 C   0  0  0  0  0  0  0  0  0  0  0  0
   -1.1288   -2.6669    1.6468 O   0  0  0  0  0  0  0  0  0  0  0  0
   -1.7648   -0.9089    0.3998 N   0  0  0  0  0  0  0  0  0  0  0  0
   -2.5238   -0.4719   -0.1032 H   0  0  0  0  0  0  0  0  0  0  0  0
   -0.4848   -0.1959    0.4138 C   0  0  1  0  0  0  0  0  0  0  0  0
    0.1386   -0.6144    1.2058 H   0  0  0  0  0  0  0  0  0  0  0  0
    0.2271   -0.4272   -0.9334 C   0  0  0  0  0  0  0  0  0  0  0  0
   -0.4587   -0.1489   -1.7363 H   0  0  0  0  0  0  0  0  0  0  0  0
    1.1013    0.2231   -0.9908 H   0  0  0  0  0  0  0  0  0  0  0  0
    0.6737   -1.8821   -1.1597 C   0  0  0  0  0  0  0  0  0  0  0  0
    1.3734   -2.1771   -0.3780 H   0  0  0  0  0  0  0  0  0  0  0  0
   -0.1997   -2.5322   -1.1087 H   0  0  0  0  0  0  0  0  0  0  0  0
    1.3560   -2.0986   -2.5104 C   0  0  0  0  0  0  0  0  0  0  0  0
    1.4654   -1.2268   -3.3521 O   0  0  0  0  0  0  0  0  0  0  0  0
    1.8579   -3.2853   -2.7750 N   0  0  0  0  0  0  0  0  0  0  0  0
    2.2953   -3.3713   -3.6759 H   0  0  0  0  0  0  0  0  0  0  0  0
    1.7979   -4.0362   -2.1175 H   0  0  0  0  0  0  0  0  0  0  0  0
   -0.7011    1.2952    0.7149 C   0  0  0  0  0  0  0  0  0  0  0  0
   -0.3405    2.1488   -0.0933 O   0  0  0  0  0  0  0  0  0  0  0  0
   -1.2794    1.6088    1.8814 N   0  0  0  0  0  0  0  0  0  0  0  0
   -1.5711    0.8542    2.4819 H   0  0  0  0  0  0  0  0  0  0  0  0
   -1.5417    2.9790    2.3196 C   0  0  0  0  0  0  0  0  0  0  0  0
   -2.1538    3.4923    1.5739 H   0  0  0  0  0  0  0  0  0  0  0  0
   -2.0665    2.9790    3.2761 H   0  0  0  0  0  0  0  0  0  0  0  0
   -0.5994    3.5196    2.4234 H   0  0  0  0  0  0  0  0  0  0  0  0
  5  6  2  0  0  0  0
  5  7  1  0  0  0  0
  2  3  1  0  0  0  0
  2  4  1  0  0  0  0
  2  5  1  0  0  0  0
  1  2  1  0  0  0  0
 22 23  2  0  0  0  0
 22 24  1  0  0  0  0
 19 20  1  0  0  0  0
 19 21  1  0  0  0  0
 17 18  2  0  0  0  0
 17 19  1  0  0  0  0
 14 15  1  0  0  0  0
 14 16  1  0  0  0  0
 14 17  1  0  0  0  0
 11 12  1  0  0  0  0
 11 13  1  0  0  0  0
 11 14  1  0  0  0  0
  9 10  1  0  0  0  0
  9 11  1  0  0  0  0
  9 22  1  0  0  0  0
  7  8  1  0  0  0  0
  7  9  1  0  0  0  0
 26 27  1  0  0  0  0
 26 28  1  0  0  0  0
 26 29  1  0  0  0  0
 24 25  1  0  0  0  0
 24 26  1  0  0  0  0
M  END
$$$$
default_name
  -OEChem-01062215323D

 29 28  0     1  0  0  0  0  0999 V2000
   -3.3998   -3.6239    1.3678 H   0  0  0  0  0  0  0  0  0  0  0  0
   -3.3608   -2.6749    0.8348 C   0  0  0  0  0  0  0  0  0  0  0  0
   -4.0988   -1.9909    1.2498 H   0  0  0  0  0  0  0  0  0  0  0  0
   -3.5618   -2.8419   -0.2222 H   0  0  0  0  0  0  0  0  0  0  0  0
   -1.9818   -2.0809    0.9918 C   0  0  0  0  0  0  0  0  0  0  0  0
   -1.1288   -2.6669    1.6468 O   0  0  0  0  0  0  0  0  0  0  0  0
   -1.7648   -0.9089    0.3998 N   0  0  0  0  0  0  0  0  0  0  0  0
   -2.5238   -0.4719   -0.1032 H   0  0  0  0  0  0  0  0  0  0  0  0
   -0.4848   -0.1959    0.4138 C   0  0  1  0  0  0  0  0  0  0  0  0
    0.1386   -0.6144    1.2058 H   0  0  0  0  0  0  0  0  0  0  0  0
    0.2271   -0.4272   -0.9334 C   0  0  0  0  0  0  0  0  0  0  0  0
   -0.4587   -0.1489   -1.7363 H   0  0  0  0  0  0  0  0  0  0  0  0
    1.1013    0.2231   -0.9908 H   0  0  0  0  0  0  0  0  0  0  0  0
    0.6737   -1.8821   -1.1597 C   0  0  0  0  0  0  0  0  0  0  0  0
    1.3734   -2.1771   -0.3780 H   0  0  0  0  0  0  0  0  0  0  0  0
   -0.1997   -2.5322   -1.1087 H   0  0  0  0  0  0  0  0  0  0  0  0
    1.3560   -2.0986   -2.5104 C   0  0  0  0  0  0  0  0  0  0  0  0
    1.4654   -1.2268   -3.3521 O   0  0  0  0  0  0  0  0  0  0  0  0
    1.8579   -3.2853   -2.7750 N   0  0  0  0  0  0  0  0  0  0  0  0
    2.2953   -3.3713   -3.6759 H   0  0  0  0  0  0  0  0  0  0  0  0
    1.7979   -4.0362   -2.1175 H   0  0  0  0  0  0  0  0  0  0  0  0
   -0.7011    1.2952    0.7149 C   0  0  0  0  0  0  0  0  0  0  0  0
   -0.6021    2.1290   -0.1833 O   0  0  0  0  0  0  0  0  0  0  0  0
   -0.9856    1.6316    1.9796 N   0  0  0  0  0  0  0  0  0  0  0  0
   -1.0755    0.8908    2.6566 H   0  0  0  0  0  0  0  0  0  0  0  0
   -1.2054    3.0059    2.4285 C   0  0  0  0  0  0  0  0  0  0  0  0
   -2.0121    3.4579    1.8462 H   0  0  0  0  0  0  0  0  0  0  0  0
   -1.4733    3.0227    3.4860 H   0  0  0  0  0  0  0  0  0  0  0  0
   -0.2985    3.5932    2.2751 H   0  0  0  0  0  0  0  0  0  0  0  0
  5  6  2  0  0  0  0
  5  7  1  0  0  0  0
  2  3  1  0  0  0  0
  2  4  1  0  0  0  0
  2  5  1  0  0  0  0
  1  2  1  0  0  0  0
 22 23  2  0  0  0  0
 22 24  1  0  0  0  0
 19 20  1  0  0  0  0
 19 21  1  0  0  0  0
 17 18  2  0  0  0  0
 17 19  1  0  0  0  0
 14 15  1  0  0  0  0
 14 16  1  0  0  0  0
 14 17  1  0  0  0  0
 11 12  1  0  0  0  0
 11 13  1  0  0  0  0
 11 14  1  0  0  0  0
  9 10  1  0  0  0  0
  9 11  1  0  0  0  0
  9 22  1  0  0  0  0
  7  8  1  0  0  0  0
  7  9  1  0  0  0  0
 26 27  1  0  0  0  0
 26 28  1  0  0  0  0
 26 29  1  0  0  0  0
 24 25  1  0  0  0  0
 24 26  1  0  0  0  0
M  END
$$$$
default_name
  -OEChem-01062215323D

 29 28  0     1  0  0  0  0  0999 V2000
   -3.3998   -3.6239    1.3678 H   0  0  0  0  0  0  0  0  0  0  0  0
   -3.3608   -2.6749    0.8348 C   0  0  0  0  0  0  0  0  0  0  0  0
   -4.0988   -1.9909    1.2498 H   0  0  0  0  0  0  0  0  0  0  0  0
   -3.5618   -2.8419   -0.2222 H   0  0  0  0  0  0  0  0  0  0  0  0
   -1.9818   -2.0809    0.9918 C   0  0  0  0  0  0  0  0  0  0  0  0
   -1.1288   -2.6669    1.6468 O   0  0  0  0  0  0  0  0  0  0  0  0
   -1.7648   -0.9089    0.3998 N   0  0  0  0  0  0  0  0  0  0  0  0
   -2.5238   -0.4719   -0.1032 H   0  0  0  0  0  0  0  0  0  0  0  0
   -0.4848   -0.1959    0.4138 C   0  0  1  0  0  0  0  0  0  0  0  0
    0.1386   -0.6144    1.2058 H   0  0  0  0  0  0  0  0  0  0  0  0
    0.2271   -0.4272   -0.9334 C   0  0  0  0  0  0  0  0  0  0  0  0
   -0.4587   -0.1489   -1.7363 H   0  0  0  0  0  0  0  0  0  0  0  0
    1.1013    0.2231   -0.9908 H   0  0  0  0  0  0  0  0  0  0  0  0
    0.6737   -1.8821   -1.1597 C   0  0  0  0  0  0  0  0  0  0  0  0
    1.3734   -2.1771   -0.3780 H   0  0  0  0  0  0  0  0  0  0  0  0
   -0.1997   -2.5322   -1.1087 H   0  0  0  0  0  0  0  0  0  0  0  0
    1.3560   -2.0986   -2.5104 C   0  0  0  0  0  0  0  0  0  0  0  0
    1.4654   -1.2268   -3.3521 O   0  0  0  0  0  0  0  0  0  0  0  0
    1.8579   -3.2853   -2.7750 N   0  0  0  0  0  0  0  0  0  0  0  0
    2.2953   -3.3713   -3.6759 H   0  0  0  0  0  0  0  0  0  0  0  0
    1.7979   -4.0362   -2.1175 H   0  0  0  0  0  0  0  0  0  0  0  0
   -0.7011    1.2952    0.7149 C   0  0  0  0  0  0  0  0  0  0  0  0
   -0.8763    2.0934   -0.2039 O   0  0  0  0  0  0  0  0  0  0  0  0
   -0.6783    1.6721    1.9998 N   0  0  0  0  0  0  0  0  0  0  0  0
   -0.5547    0.9578    2.6994 H   0  0  0  0  0  0  0  0  0  0  0  0
   -0.8545    3.0528    2.4482 C   0  0  0  0  0  0  0  0  0  0  0  0
   -1.8050    3.4418    2.0748 H   0  0  0  0  0  0  0  0  0  0  0  0
   -0.8498    3.1027    3.5381 H   0  0  0  0  0  0  0  0  0  0  0  0
   -0.0488    3.6742    2.0536 H   0  0  0  0  0  0  0  0  0  0  0  0
  5  6  2  0  0  0  0
  5  7  1  0  0  0  0
  2  3  1  0  0  0  0
  2  4  1  0  0  0  0
  2  5  1  0  0  0  0
  1  2  1  0  0  0  0
 22 23  2  0  0  0  0
 22 24  1  0  0  0  0
 19 20  1  0  0  0  0
 19 21  1  0  0  0  0
 17 18  2  0  0  0  0
 17 19  1  0  0  0  0
 14 15  1  0  0  0  0
 14 16  1  0  0  0  0
 14 17  1  0  0  0  0
 11 12  1  0  0  0  0
 11 13  1  0  0  0  0
 11 14  1  0  0  0  0
  9 10  1  0  0  0  0
  9 11  1  0  0  0  0
  9 22  1  0  0  0  0
  7  8  1  0  0  0  0
  7  9  1  0  0  0  0
 26 27  1  0  0  0  0
 26 28  1  0  0  0  0
 26 29  1  0  0  0  0
 24 25  1  0  0  0  0
 24 26  1  0  0  0  0
M  END
$$$$
default_name
  -OEChem-01062215323D

 29 28  0     1  0  0  0  0  0999 V2000
   -3.3998   -3.6239    1.3678 H   0  0  0  0  0  0  0  0  0  0  0  0
   -3.3608   -2.6749    0.8348 C   0  0  0  0  0  0  0  0  0  0  0  0
   -4.0988   -1.9909    1.2498 H   0  0  0  0  0  0  0  0  0  0  0  0
   -3.5618   -2.8419   -0.2222 H   0  0  0  0  0  0  0  0  0  0  0  0
   -1.9818   -2.0809    0.9918 C   0  0  0  0  0  0  0  0  0  0  0  0
   -1.1288   -2.6669    1.6468 O   0  0  0  0  0  0  0  0  0  0  0  0
   -1.7648   -0.9089    0.3998 N   0  0  0  0  0  0  0  0  0  0  0  0
   -2.5238   -0.4719   -0.1032 H   0  0  0  0  0  0  0  0  0  0  0  0
   -0.4848   -0.1959    0.4138 C   0  0  1  0  0  0  0  0  0  0  0  0
    0.1386   -0.6144    1.2058 H   0  0  0  0  0  0  0  0  0  0  0  0
    0.2271   -0.4272   -0.9334 C   0  0  0  0  0  0  0  0  0  0  0  0
   -0.4587   -0.1489   -1.7363 H   0  0  0  0  0  0  0  0  0  0  0  0
    1.1013    0.2231   -0.9908 H   0  0  0  0  0  0  0  0  0  0  0  0
    0.6737   -1.8821   -1.1597 C   0  0  0  0  0  0  0  0  0  0  0  0
    1.3734   -2.1771   -0.3780 H   0  0  0  0  0  0  0  0  0  0  0  0
   -0.1997   -2.5322   -1.1087 H   0  0  0  0  0  0  0  0  0  0  0  0
    1.3560   -2.0986   -2.5104 C   0  0  0  0  0  0  0  0  0  0  0  0
    1.4654   -1.2268   -3.3521 O   0  0  0  0  0  0  0  0  0  0  0  0
    1.8579   -3.2853   -2.7750 N   0  0  0  0  0  0  0  0  0  0  0  0
    2.2953   -3.3713   -3.6759 H   0  0  0  0  0  0  0  0  0  0  0  0
    1.7979   -4.0362   -2.1175 H   0  0  0  0  0  0  0  0  0  0  0  0
   -0.7011    1.2952    0.7149 C   0  0  0  0  0  0  0  0  0  0  0  0
   -1.1446    2.0443   -0.1535 O   0  0  0  0  0  0  0  0  0  0  0  0
   -0.3784    1.7276    1.9406 N   0  0  0  0  0  0  0  0  0  0  0  0
   -0.0444    1.0504    2.6076 H   0  0  0  0  0  0  0  0  0  0  0  0
   -0.5130    3.1167    2.3774 C   0  0  0  0  0  0  0  0  0  0  0  0
   -1.5468    3.4451    2.2442 H   0  0  0  0  0  0  0  0  0  0  0  0
   -0.2385    3.2134    3.4289 H   0  0  0  0  0  0  0  0  0  0  0  0
    0.1326    3.7570    1.7740 H   0  0  0  0  0  0  0  0  0  0  0  0
  5  6  2  0  0  0  0
  5  7  1  0  0  0  0
  2  3  1  0  0  0  0
  2  4  1  0  0  0  0
  2  5  1  0  0  0  0
  1  2  1  0  0  0  0
 22 23  2  0  0  0  0
 22 24  1  0  0  0  0
 19 20  1  0  0  0  0
 19 21  1  0  0  0  0
 17 18  2  0  0  0  0
 17 19  1  0  0  0  0
 14 15  1  0  0  0  0
 14 16  1  0  0  0  0
 14 17  1  0  0  0  0
 11 12  1  0  0  0  0
 11 13  1  0  0  0  0
 11 14  1  0  0  0  0
  9 10  1  0  0  0  0
  9 11  1  0  0  0  0
  9 22  1  0  0  0  0
  7  8  1  0  0  0  0
  7  9  1  0  0  0  0
 26 27  1  0  0  0  0
 26 28  1  0  0  0  0
 26 29  1  0  0  0  0
 24 25  1  0  0  0  0
 24 26  1  0  0  0  0
M  END
$$$$
default_name
  -OEChem-01062215323D

 29 28  0     1  0  0  0  0  0999 V2000
   -3.3998   -3.6239    1.3678 H   0  0  0  0  0  0  0  0  0  0  0  0
   -3.3608   -2.6749    0.8348 C   0  0  0  0  0  0  0  0  0  0  0  0
   -4.0988   -1.9909    1.2498 H   0  0  0  0  0  0  0  0  0  0  0  0
   -3.5618   -2.8419   -0.2222 H   0  0  0  0  0  0  0  0  0  0  0  0
   -1.9818   -2.0809    0.9918 C   0  0  0  0  0  0  0  0  0  0  0  0
   -1.1288   -2.6669    1.6468 O   0  0  0  0  0  0  0  0  0  0  0  0
   -1.7648   -0.9089    0.3998 N   0  0  0  0  0  0  0  0  0  0  0  0
   -2.5238   -0.4719   -0.1032 H   0  0  0  0  0  0  0  0  0  0  0  0
   -0.4848   -0.1959    0.4138 C   0  0  1  0  0  0  0  0  0  0  0  0
    0.1386   -0.6144    1.2058 H   0  0  0  0  0  0  0  0  0  0  0  0
    0.2271   -0.4272   -0.9334 C   0  0  0  0  0  0  0  0  0  0  0  0
   -0.4587   -0.1489   -1.7363 H   0  0  0  0  0  0  0  0  0  0  0  0
    1.1013    0.2231   -0.9908 H   0  0  0  0  0  0  0  0  0  0  0  0
    0.6737   -1.8821   -1.1597 C   0  0  0  0  0  0  0  0  0  0  0  0
    1.3734   -2.1771   -0.3780 H   0  0  0  0  0  0  0  0  0  0  0  0
   -0.1997   -2.5322   -1.1087 H   0  0  0  0  0  0  0  0  0  0  0  0
    1.3560   -2.0986   -2.5104 C   0  0  0  0  0  0  0  0  0  0  0  0
    1.4654   -1.2268   -3.3521 O   0  0  0  0  0  0  0  0  0  0  0  0
    1.8579   -3.2853   -2.7750 N   0  0  0  0  0  0  0  0  0  0  0  0
    2.2953   -3.3713   -3.6759 H   0  0  0  0  0  0  0  0  0  0  0  0
    1.7979   -4.0362   -2.1175 H   0  0  0  0  0  0  0  0  0  0  0  0
   -0.7011    1.2952    0.7149 C   0  0  0  0  0  0  0  0  0  0  0  0
   -1.3886    1.9851   -0.0357 O   0  0  0  0  0  0  0  0  0  0  0  0
   -0.1064    1.7942    1.8061 N   0  0  0  0  0  0  0  0  0  0  0  0
    0.4209    1.1624    2.3874 H   0  0  0  0  0  0  0  0  0  0  0  0
   -0.2042    3.1931    2.2209 C   0  0  0  0  0  0  0  0  0  0  0  0
   -1.2549    3.4675    2.3428 H   0  0  0  0  0  0  0  0  0  0  0  0
    0.3189    3.3475    3.1658 H   0  0  0  0  0  0  0  0  0  0  0  0
    0.2334    3.8360    1.4553 H   0  0  0  0  0  0  0  0  0  0  0  0
  5  6  2  0  0  0  0
  5  7  1  0  0  0  0
  2  3  1  0  0  0  0
  2  4  1  0  0  0  0
  2  5  1  0  0  0  0
  1  2  1  0  0  0  0
 22 23  2  0  0  0  0
 22 24  1  0  0  0  0
 19 20  1  0  0  0  0
 19 21  1  0  0  0  0
 17 18  2  0  0  0  0
 17 19  1  0  0  0  0
 14 15  1  0  0  0  0
 14 16  1  0  0  0  0
 14 17  1  0  0  0  0
 11 12  1  0  0  0  0
 11 13  1  0  0  0  0
 11 14  1  0  0  0  0
  9 10  1  0  0  0  0
  9 11  1  0  0  0  0
  9 22  1  0  0  0  0
  7  8  1  0  0  0  0
  7  9  1  0  0  0  0
 26 27  1  0  0  0  0
 26 28  1  0  0  0  0
 26 29  1  0  0  0  0
 24 25  1  0  0  0  0
 24 26  1  0  0  0  0
M  END
$$$$
default_name
  -OEChem-01062215323D

 29 28  0     1  0  0  0  0  0999 V2000
   -3.3998   -3.6239    1.3678 H   0  0  0  0  0  0  0  0  0  0  0  0
   -3.3608   -2.6749    0.8348 C   0  0  0  0  0  0  0  0  0  0  0  0
   -4.0988   -1.9909    1.2498 H   0  0  0  0  0  0  0  0  0  0  0  0
   -3.5618   -2.8419   -0.2222 H   0  0  0  0  0  0  0  0  0  0  0  0
   -1.9818   -2.0809    0.9918 C   0  0  0  0  0  0  0  0  0  0  0  0
   -1.1288   -2.6669    1.6468 O   0  0  0  0  0  0  0  0  0  0  0  0
   -1.7648   -0.9089    0.3998 N   0  0  0  0  0  0  0  0  0  0  0  0
   -2.5238   -0.4719   -0.1032 H   0  0  0  0  0  0  0  0  0  0  0  0
   -0.4848   -0.1959    0.4138 C   0  0  1  0  0  0  0  0  0  0  0  0
    0.1386   -0.6144    1.2058 H   0  0  0  0  0  0  0  0  0  0  0  0
    0.2271   -0.4272   -0.9334 C   0  0  0  0  0  0  0  0  0  0  0  0
   -0.4587   -0.1489   -1.7363 H   0  0  0  0  0  0  0  0  0  0  0  0
    1.1013    0.2231   -0.9908 H   0  0  0  0  0  0  0  0  0  0  0  0
    0.6737   -1.8821   -1.1597 C   0  0  0  0  0  0  0  0  0  0  0  0
    1.3734   -2.1771   -0.3780 H   0  0  0  0  0  0  0  0  0  0  0  0
   -0.1997   -2.5322   -1.1087 H   0  0  0  0  0  0  0  0  0  0  0  0
    1.3560   -2.0986   -2.5104 C   0  0  0  0  0  0  0  0  0  0  0  0
    1.4654   -1.2268   -3.3521 O   0  0  0  0  0  0  0  0  0  0  0  0
    1.8579   -3.2853   -2.7750 N   0  0  0  0  0  0  0  0  0  0  0  0
    2.2953   -3.3713   -3.6759 H   0  0  0  0  0  0  0  0  0  0  0  0
    1.7979   -4.0362   -2.1175 H   0  0  0  0  0  0  0  0  0  0  0  0
   -0.7011    1.2952    0.7149 C   0  0  0  0  0  0  0  0  0  0  0  0
   -1.5917    1.9198    0.1415 O   0  0  0  0  0  0  0  0  0  0  0  0
    0.1191    1.8675    1.6055 N   0  0  0  0  0  0  0  0  0  0  0  0
    0.8092    1.2861    2.0537 H   0  0  0  0  0  0  0  0  0  0  0  0
    0.0509    3.2769    1.9894 C   0  0  0  0  0  0  0  0  0  0  0  0
   -0.9494    3.5076    2.3640 H   0  0  0  0  0  0  0  0  0  0  0  0
    0.7844    3.4956    2.7668 H   0  0  0  0  0  0  0  0  0  0  0  0
    0.2468    3.9058    1.1193 H   0  0  0  0  0  0  0  0  0  0  0  0
  5  6  2  0  0  0  0
  5  7  1  0  0  0  0
  2  3  1  0  0  0  0
  2  4  1  0  0  0  0
  2  5  1  0  0  0  0
  1  2  1  0  0  0  0
 22 23  2  0  0  0  0
 22 24  1  0  0  0  0
 19 20  1  0  0  0  0
 19 21  1  0  0  0  0
 17 18  2  0  0  0  0
 17 19  1  0  0  0  0
 14 15  1  0  0  0  0
 14 16  1  0  0  0  0
 14 17  1  0  0  0  0
 11 12  1  0  0  0  0
 11 13  1  0  0  0  0
 11 14  1  0  0  0  0
  9 10  1  0  0  0  0
  9 11  1  0  0  0  0
  9 22  1  0  0  0  0
  7  8  1  0  0  0  0
  7  9  1  0  0  0  0
 26 27  1  0  0  0  0
 26 28  1  0  0  0  0
 26 29  1  0  0  0  0
 24 25  1  0  0  0  0
 24 26  1  0  0  0  0
M  END
$$$$
default_name
  -OEChem-01062215323D

 29 28  0     1  0  0  0  0  0999 V2000
   -3.3998   -3.6239    1.3678 H   0  0  0  0  0  0  0  0  0  0  0  0
   -3.3608   -2.6749    0.8348 C   0  0  0  0  0  0  0  0  0  0  0  0
   -4.0988   -1.9909    1.2498 H   0  0  0  0  0  0  0  0  0  0  0  0
   -3.5618   -2.8419   -0.2222 H   0  0  0  0  0  0  0  0  0  0  0  0
   -1.9818   -2.0809    0.9918 C   0  0  0  0  0  0  0  0  0  0  0  0
   -1.1288   -2.6669    1.6468 O   0  0  0  0  0  0  0  0  0  0  0  0
   -1.7648   -0.9089    0.3998 N   0  0  0  0  0  0  0  0  0  0  0  0
   -2.5238   -0.4719   -0.1032 H   0  0  0  0  0  0  0  0  0  0  0  0
   -0.4848   -0.1959    0.4138 C   0  0  1  0  0  0  0  0  0  0  0  0
    0.1386   -0.6144    1.2058 H   0  0  0  0  0  0  0  0  0  0  0  0
    0.2271   -0.4272   -0.9334 C   0  0  0  0  0  0  0  0  0  0  0  0
   -0.4587   -0.1489   -1.7363 H   0  0  0  0  0  0  0  0  0  0  0  0
    1.1013    0.2231   -0.9908 H   0  0  0  0  0  0  0  0  0  0  0  0
    0.6737   -1.8821   -1.1597 C   0  0  0  0  0  0  0  0  0  0  0  0
    1.3734   -2.1771   -0.3780 H   0  0  0  0  0  0  0  0  0  0  0  0
   -0.1997   -2.5322   -1.1087 H   0  0  0  0  0  0  0  0  0  0  0  0
    1.3560   -2.0986   -2.5104 C   0  0  0  0  0  0  0  0  0  0  0  0
    1.4654   -1.2268   -3.3521 O   0  0  0  0  0  0  0  0  0  0  0  0
    1.8579   -3.2853   -2.7750 N   0  0  0  0  0  0  0  0  0  0  0  0
    2.2953   -3.3713   -3.6759 H   0  0  0  0  0  0  0  0  0  0  0  0
    1.7979   -4.0362   -2.1175 H   0  0  0  0  0  0  0  0  0  0  0  0
   -0.7011    1.2952    0.7149 C   0  0  0  0  0  0  0  0  0  0  0  0
   -1.7400    1.8529    0.3661 O   0  0  0  0  0  0  0  0  0  0  0  0
    0.2829    1.9424    1.3524 N   0  0  0  0  0  0  0  0  0  0  0  0
    1.0943    1.4132    1.6293 H   0  0  0  0  0  0  0  0  0  0  0  0
    0.2349    3.3623    1.6986 C   0  0  0  0  0  0  0  0  0  0  0  0
   -0.6510    3.5625    2.3063 H   0  0  0  0  0  0  0  0  0  0  0  0
    1.1264    3.6478    2.2591 H   0  0  0  0  0  0  0  0  0  0  0  0
    0.1717    3.9616    0.7888 H   0  0  0  0  0  0  0  0  0  0  0  0
  5  6  2  0  0  0  0
  5  7  1  0  0  0  0
  2  3  1  0  0  0  0
  2  4  1  0  0  0  0
  2  5  1  0  0  0  0
  1  2  1  0  0  0  0
 22 23  2  0  0  0  0
 22 24  1  0  0  0  0
 19 20  1  0  0  0  0
 19 21  1  0  0  0  0
 17 18  2  0  0  0  0
 17 19  1  0  0  0  0
 14 15  1  0  0  0  0
 14 16  1  0  0  0  0
 14 17  1  0  0  0  0
 11 12  1  0  0  0  0
 11 13  1  0  0  0  0
 11 14  1  0  0  0  0
  9 10  1  0  0  0  0
  9 11  1  0  0  0  0
  9 22  1  0  0  0  0
  7  8  1  0  0  0  0
  7  9  1  0  0  0  0
 26 27  1  0  0  0  0
 26 28  1  0  0  0  0
 26 29  1  0  0  0  0
 24 25  1  0  0  0  0
 24 26  1  0  0  0  0
M  END
$$$$
default_name
  -OEChem-01062215323D

 29 28  0     1  0  0  0  0  0999 V2000
   -3.3998   -3.6239    1.3678 H   0  0  0  0  0  0  0  0  0  0  0  0
   -3.3608   -2.6749    0.8348 C   0  0  0  0  0  0  0  0  0  0  0  0
   -4.0988   -1.9909    1.2498 H   0  0  0  0  0  0  0  0  0  0  0  0
   -3.5618   -2.8419   -0.2222 H   0  0  0  0  0  0  0  0  0  0  0  0
   -1.9818   -2.0809    0.9918 C   0  0  0  0  0  0  0  0  0  0  0  0
   -1.1288   -2.6669    1.6468 O   0  0  0  0  0  0  0  0  0  0  0  0
   -1.7648   -0.9089    0.3998 N   0  0  0  0  0  0  0  0  0  0  0  0
   -2.5238   -0.4719   -0.1032 H   0  0  0  0  0  0  0  0  0  0  0  0
   -0.4848   -0.1959    0.4138 C   0  0  1  0  0  0  0  0  0  0  0  0
    0.1386   -0.6144    1.2058 H   0  0  0  0  0  0  0  0  0  0  0  0
    0.2271   -0.4272   -0.9334 C   0  0  0  0  0  0  0  0  0  0  0  0
   -0.4587   -0.1489   -1.7363 H   0  0  0  0  0  0  0  0  0  0  0  0
    1.1013    0.2231   -0.9908 H   0  0  0  0  0  0  0  0  0  0  0  0
    0.6737   -1.8821   -1.1597 C   0  0  0  0  0  0  0  0  0  0  0  0
    1.3734   -2.1771   -0.3780 H   0  0  0  0  0  0  0  0  0  0  0  0
   -0.1997   -2.5322   -1.1087 H   0  0  0  0  0  0  0  0  0  0  0  0
    1.3560   -2.0986   -2.5104 C   0  0  0  0  0  0  0  0  0  0  0  0
    1.4654   -1.2268   -3.3521 O   0  0  0  0  0  0  0  0  0  0  0  0
    1.8579   -3.2853   -2.7750 N   0  0  0  0  0  0  0  0  0  0  0  0
    2.2953   -3.3713   -3.6759 H   0  0  0  0  0  0  0  0  0  0  0  0
    1.7979   -4.0362   -2.1175 H   0  0  0  0  0  0  0  0  0  0  0  0
   -0.7011    1.2952    0.7149 C   0  0  0  0  0  0  0  0  0  0  0  0
   -1.8235    1.7890    0.6227 O   0  0  0  0  0  0  0  0  0  0  0  0
    0.3737    2.0138    1.0640 N   0  0  0  0  0  0  0  0  0  0  0  0
    1.2566    1.5349    1.1432 H   0  0  0  0  0  0  0  0  0  0  0  0
    0.3353    3.4435    1.3685 C   0  0  0  0  0  0  0  0  0  0  0  0
   -0.3801    3.6287    2.1735 H   0  0  0  0  0  0  0  0  0  0  0  0
    1.3215    3.7936    1.6773 H   0  0  0  0  0  0  0  0  0  0  0  0
    0.0134    3.9997    0.4864 H   0  0  0  0  0  0  0  0  0  0  0  0
  5  6  2  0  0  0  0
  5  7  1  0  0  0  0
  2  3  1  0  0  0  0
  2  4  1  0  0  0  0
  2  5  1  0  0  0  0
  1  2  1  0  0  0  0
 22 23  2  0  0  0  0
 22 24  1  0  0  0  0
 19 20  1  0  0  0  0
 19 21  1  0  0  0  0
 17 18  2  0  0  0  0
 17 19  1  0  0  0  0
 14 15  1  0  0  0  0
 14 16  1  0  0  0  0
 14 17  1  0  0  0  0
 11 12  1  0  0  0  0
 11 13  1  0  0  0  0
 11 14  1  0  0  0  0
  9 10  1  0  0  0  0
  9 11  1  0  0  0  0
  9 22  1  0  0  0  0
  7  8  1  0  0  0  0
  7  9  1  0  0  0  0
 26 27  1  0  0  0  0
 26 28  1  0  0  0  0
 26 29  1  0  0  0  0
 24 25  1  0  0  0  0
 24 26  1  0  0  0  0
M  END
$$$$
default_name
  -OEChem-01062215323D

 29 28  0     1  0  0  0  0  0999 V2000
   -3.3998   -3.6239    1.3678 H   0  0  0  0  0  0  0  0  0  0  0  0
   -3.3608   -2.6749    0.8348 C   0  0  0  0  0  0  0  0  0  0  0  0
   -4.0988   -1.9909    1.2498 H   0  0  0  0  0  0  0  0  0  0  0  0
   -3.5618   -2.8419   -0.2222 H   0  0  0  0  0  0  0  0  0  0  0  0
   -1.9818   -2.0809    0.9918 C   0  0  0  0  0  0  0  0  0  0  0  0
   -1.1288   -2.6669    1.6468 O   0  0  0  0  0  0  0  0  0  0  0  0
   -1.7648   -0.9089    0.3998 N   0  0  0  0  0  0  0  0  0  0  0  0
   -2.5238   -0.4719   -0.1032 H   0  0  0  0  0  0  0  0  0  0  0  0
   -0.4848   -0.1959    0.4138 C   0  0  1  0  0  0  0  0  0  0  0  0
    0.2285   -0.7719    1.0058 H   0  0  0  0  0  0  0  0  0  0  0  0
    0.0485   -0.1047   -1.0293 C   0  0  0  0  0  0  0  0  0  0  0  0
   -0.7297    0.3361   -1.6557 H   0  0  0  0  0  0  0  0  0  0  0  0
    0.9163    0.5564   -1.0475 H   0  0  0  0  0  0  0  0  0  0  0  0
    0.4455   -1.4631   -1.6332 C   0  0  0  0  0  0  0  0  0  0  0  0
    1.2347   -1.9152   -1.0328 H   0  0  0  0  0  0  0  0  0  0  0  0
   -0.4222   -2.1226   -1.6212 H   0  0  0  0  0  0  0  0  0  0  0  0
    0.9492   -1.3572   -3.0725 C   0  0  0  0  0  0  0  0  0  0  0  0
    0.9619   -0.3161   -3.7021 O   0  0  0  0  0  0  0  0  0  0  0  0
    1.3994   -2.4448   -3.6597 N   0  0  0  0  0  0  0  0  0  0  0  0
    1.7185   -2.3176   -4.6044 H   0  0  0  0  0  0  0  0  0  0  0  0
    1.4138   -3.3257   -3.1870 H   0  0  0  0  0  0  0  0  0  0  0  0
   -0.6435    1.1847    1.0692 C   0  0  0  0  0  0  0  0  0  0  0  0
   -1.7418    1.5508    1.4837 O   0  0  0  0  0  0  0  0  0  0  0  0
    0.4493    1.9543    1.1532 N   0  0  0  0  0  0  0  0  0  0  0  0
    1.3200    1.5767    0.8147 H   0  0  0  0  0  0  0  0  0  0  0  0
    0.4598    3.2954    1.7360 C   0  0  0  0  0  0  0  0  0  0  0  0
    0.0861    3.2530    2.7620 H   0  0  0  0  0  0  0  0  0  0  0  0
    1.4727    3.7010    1.7395 H   0  0  0  0  0  0  0  0  0  0  0  0
   -0.1919    3.9533    1.1586 H   0  0  0  0  0  0  0  0  0  0  0  0
  5  6  2  0  0  0  0
  5  7  1  0  0  0  0
  2  3  1  0  0  0  0
  2  4  1  0  0  0  0
  2  5  1  0  0  0  0
  1  2  1  0  0  0  0
 22 23  2  0  0  0  0
 22 24  1  0  0  0  0
 19 20  1  0  0  0  0
 19 21  1  0  0  0  0
 17 18  2  0  0  0  0
 17 19  1  0  0  0  0
 14 15  1  0  0  0  0
 14 16  1  0  0  0  0
 14 17  1  0  0  0  0
 11 12  1  0  0  0  0
 11 13  1  0  0  0  0
 11 14  1  0  0  0  0
  9 10  1  0  0  0  0
  9 11  1  0  0  0  0
  9 22  1  0  0  0  0
  7  8  1  0  0  0  0
  7  9  1  0  0  0  0
 26 27  1  0  0  0  0
 26 28  1  0  0  0  0
 26 29  1  0  0  0  0
 24 25  1  0  0  0  0
 24 26  1  0  0  0  0
M  END
$$$$
default_name
  -OEChem-01062215323D

 29 28  0     1  0  0  0  0  0999 V2000
   -3.3998   -3.6239    1.3678 H   0  0  0  0  0  0  0  0  0  0  0  0
   -3.3608   -2.6749    0.8348 C   0  0  0  0  0  0  0  0  0  0  0  0
   -4.0988   -1.9909    1.2498 H   0  0  0  0  0  0  0  0  0  0  0  0
   -3.5618   -2.8419   -0.2222 H   0  0  0  0  0  0  0  0  0  0  0  0
   -1.9818   -2.0809    0.9918 C   0  0  0  0  0  0  0  0  0  0  0  0
   -1.1288   -2.6669    1.6468 O   0  0  0  0  0  0  0  0  0  0  0  0
   -1.7648   -0.9089    0.3998 N   0  0  0  0  0  0  0  0  0  0  0  0
   -2.5238   -0.4719   -0.1032 H   0  0  0  0  0  0  0  0  0  0  0  0
   -0.4848   -0.1959    0.4138 C   0  0  1  0  0  0  0  0  0  0  0  0
    0.2285   -0.7719    1.0058 H   0  0  0  0  0  0  0  0  0  0  0  0
    0.0485   -0.1047   -1.0293 C   0  0  0  0  0  0  0  0  0  0  0  0
   -0.7297    0.3361   -1.6557 H   0  0  0  0  0  0  0  0  0  0  0  0
    0.9163    0.5564   -1.0475 H   0  0  0  0  0  0  0  0  0  0  0  0
    0.4455   -1.4631   -1.6332 C   0  0  0  0  0  0  0  0  0  0  0  0
    1.2347   -1.9152   -1.0328 H   0  0  0  0  0  0  0  0  0  0  0  0
   -0.4222   -2.1226   -1.6212 H   0  0  0  0  0  0  0  0  0  0  0  0
    0.9492   -1.3572   -3.0725 C   0  0  0  0  0  0  0  0  0  0  0  0
    0.9619   -0.3161   -3.7021 O   0  0  0  0  0  0  0  0  0  0  0  0
    1.3994   -2.4448   -3.6597 N   0  0  0  0  0  0  0  0  0  0  0  0
    1.7185   -2.3176   -4.6044 H   0  0  0  0  0  0  0  0  0  0  0  0
    1.4138   -3.3257   -3.1870 H   0  0  0  0  0  0  0  0  0  0  0  0
   -0.6435    1.1847    1.0692 C   0  0  0  0  0  0  0  0  0  0  0  0
   -1.6506    1.4471    1.7242 O   0  0  0  0  0  0  0  0  0  0  0  0
    0.3444    2.0698    0.8845 N   0  0  0  0  0  0  0  0  0  0  0  0
    1.1504    1.7746    0.3569 H   0  0  0  0  0  0  0  0  0  0  0  0
    0.3370    3.4264    1.4303 C   0  0  0  0  0  0  0  0  0  0  0  0
    0.2178    3.3850    2.5158 H   0  0  0  0  0  0  0  0  0  0  0  0
    1.2704    3.9381    1.1911 H   0  0  0  0  0  0  0  0  0  0  0  0
   -0.5009    3.9871    1.0126 H   0  0  0  0  0  0  0  0  0  0  0  0
  5  6  2  0  0  0  0
  5  7  1  0  0  0  0
  2  3  1  0  0  0  0
  2  4  1  0  0  0  0
  2  5  1  0  0  0  0
  1  2  1  0  0  0  0
 22 23  2  0  0  0  0
 22 24  1  0  0  0  0
 19 20  1  0  0  0  0
 19 21  1  0  0  0  0
 17 18  2  0  0  0  0
 17 19  1  0  0  0  0
 14 15  1  0  0  0  0
 14 16  1  0  0  0  0
 14 17  1  0  0  0  0
 11 12  1  0  0  0  0
 11 13  1  0  0  0  0
 11 14  1  0  0  0  0
  9 10  1  0  0  0  0
  9 11  1  0  0  0  0
  9 22  1  0  0  0  0
  7  8  1  0  0  0  0
  7  9  1  0  0  0  0
 26 27  1  0  0  0  0
 26 28  1  0  0  0  0
 26 29  1  0  0  0  0
 24 25  1  0  0  0  0
 24 26  1  0  0  0  0
M  END
$$$$
default_name
  -OEChem-01062215323D

 29 28  0     1  0  0  0  0  0999 V2000
   -3.3998   -3.6239    1.3678 H   0  0  0  0  0  0  0  0  0  0  0  0
   -3.3608   -2.6749    0.8348 C   0  0  0  0  0  0  0  0  0  0  0  0
   -4.0988   -1.9909    1.2498 H   0  0  0  0  0  0  0  0  0  0  0  0
   -3.5618   -2.8419   -0.2222 H   0  0  0  0  0  0  0  0  0  0  0  0
   -1.9818   -2.0809    0.9918 C   0  0  0  0  0  0  0  0  0  0  0  0
   -1.1288   -2.6669    1.6468 O   0  0  0  0  0  0  0  0  0  0  0  0
   -1.7648   -0.9089    0.3998 N   0  0  0  0  0  0  0  0  0  0  0  0
   -2.5238   -0.4719   -0.1032 H   0  0  0  0  0  0  0  0  0  0  0  0
   -0.4848   -0.1959    0.4138 C   0  0  1  0  0  0  0  0  0  0  0  0
    0.2285   -0.7719    1.0058 H   0  0  0  0  0  0  0  0  0  0  0  0
    0.0485   -0.1047   -1.0293 C   0  0  0  0  0  0  0  0  0  0  0  0
   -0.7297    0.3361   -1.6557 H   0  0  0  0  0  0  0  0  0  0  0  0
    0.9163    0.5564   -1.0475 H   0  0  0  0  0  0  0  0  0  0  0  0
    0.4455   -1.4631   -1.6332 C   0  0  0  0  0  0  0  0  0  0  0  0
    1.2347   -1.9152   -1.0328 H   0  0  0  0  0  0  0  0  0  0  0  0
   -0.4222   -2.1226   -1.6212 H   0  0  0  0  0  0  0  0  0  0  0  0
    0.9492   -1.3572   -3.0725 C   0  0  0  0  0  0  0  0  0  0  0  0
    0.9619   -0.3161   -3.7021 O   0  0  0  0  0  0  0  0  0  0  0  0
    1.3994   -2.4448   -3.6597 N   0  0  0  0  0  0  0  0  0  0  0  0
    1.7185   -2.3176   -4.6044 H   0  0  0  0  0  0  0  0  0  0  0  0
    1.4138   -3.3257   -3.1870 H   0  0  0  0  0  0  0  0  0  0  0  0
   -0.6435    1.1847    1.0692 C   0  0  0  0  0  0  0  0  0  0  0  0
   -1.4951    1.3635    1.9381 O   0  0  0  0  0  0  0  0  0  0  0  0
    0.1679    2.1625    0.6463 N   0  0  0  0  0  0  0  0  0  0  0  0
    0.8584    1.9348   -0.0512 H   0  0  0  0  0  0  0  0  0  0  0  0
    0.1328    3.5312    1.1601 C   0  0  0  0  0  0  0  0  0  0  0  0
    0.2731    3.5205    2.2438 H   0  0  0  0  0  0  0  0  0  0  0  0
    0.9214    4.1301    0.7021 H   0  0  0  0  0  0  0  0  0  0  0  0
   -0.8371    3.9818    0.9424 H   0  0  0  0  0  0  0  0  0  0  0  0
  5  6  2  0  0  0  0
  5  7  1  0  0  0  0
  2  3  1  0  0  0  0
  2  4  1  0  0  0  0
  2  5  1  0  0  0  0
  1  2  1  0  0  0  0
 22 23  2  0  0  0  0
 22 24  1  0  0  0  0
 19 20  1  0  0  0  0
 19 21  1  0  0  0  0
 17 18  2  0  0  0  0
 17 19  1  0  0  0  0
 14 15  1  0  0  0  0
 14 16  1  0  0  0  0
 14 17  1  0  0  0  0
 11 12  1  0  0  0  0
 11 13  1  0  0  0  0
 11 14  1  0  0  0  0
  9 10  1  0  0  0  0
  9 11  1  0  0  0  0
  9 22  1  0  0  0  0
  7  8  1  0  0  0  0
  7  9  1  0  0  0  0
 26 27  1  0  0  0  0
 26 28  1  0  0  0  0
 26 29  1  0  0  0  0
 24 25  1  0  0  0  0
 24 26  1  0  0  0  0
M  END
$$$$
default_name
  -OEChem-01062215323D

 29 28  0     1  0  0  0  0  0999 V2000
   -3.3998   -3.6239    1.3678 H   0  0  0  0  0  0  0  0  0  0  0  0
   -3.3608   -2.6749    0.8348 C   0  0  0  0  0  0  0  0  0  0  0  0
   -4.0988   -1.9909    1.2498 H   0  0  0  0  0  0  0  0  0  0  0  0
   -3.5618   -2.8419   -0.2222 H   0  0  0  0  0  0  0  0  0  0  0  0
   -1.9818   -2.0809    0.9918 C   0  0  0  0  0  0  0  0  0  0  0  0
   -1.1288   -2.6669    1.6468 O   0  0  0  0  0  0  0  0  0  0  0  0
   -1.7648   -0.9089    0.3998 N   0  0  0  0  0  0  0  0  0  0  0  0
   -2.5238   -0.4719   -0.1032 H   0  0  0  0  0  0  0  0  0  0  0  0
   -0.4848   -0.1959    0.4138 C   0  0  1  0  0  0  0  0  0  0  0  0
    0.2285   -0.7719    1.0058 H   0  0  0  0  0  0  0  0  0  0  0  0
    0.0485   -0.1047   -1.0293 C   0  0  0  0  0  0  0  0  0  0  0  0
   -0.7297    0.3361   -1.6557 H   0  0  0  0  0  0  0  0  0  0  0  0
    0.9163    0.5564   -1.0475 H   0  0  0  0  0  0  0  0  0  0  0  0
    0.4455   -1.4631   -1.6332 C   0  0  0  0  0  0  0  0  0  0  0  0
    1.2347   -1.9152   -1.0328 H   0  0  0  0  0  0  0  0  0  0  0  0
   -0.4222   -2.1226   -1.6212 H   0  0  0  0  0  0  0  0  0  0  0  0
    0.9492   -1.3572   -3.0725 C   0  0  0  0  0  0  0  0  0  0  0  0
    0.9619   -0.3161   -3.7021 O   0  0  0  0  0  0  0  0  0  0  0  0
    1.3994   -2.4448   -3.6597 N   0  0  0  0  0  0  0  0  0  0  0  0
    1.7185   -2.3176   -4.6044 H   0  0  0  0  0  0  0  0  0  0  0  0
    1.4138   -3.3257   -3.1870 H   0  0  0  0  0  0  0  0  0  0  0  0
   -0.6435    1.1847    1.0692 C   0  0  0  0  0  0  0  0  0  0  0  0
   -1.2859    1.3055    2.1107 O   0  0  0  0  0  0  0  0  0  0  0  0
   -0.0682    2.2263    0.4548 N   0  0  0  0  0  0  0  0  0  0  0  0
    0.4637    2.0463   -0.3817 H   0  0  0  0  0  0  0  0  0  0  0  0
   -0.1389    3.6026    0.9438 C   0  0  0  0  0  0  0  0  0  0  0  0
    0.2483    3.6502    1.9646 H   0  0  0  0  0  0  0  0  0  0  0  0
    0.4493    4.2640    0.3058 H   0  0  0  0  0  0  0  0  0  0  0  0
   -1.1775    3.9376    0.9530 H   0  0  0  0  0  0  0  0  0  0  0  0
  5  6  2  0  0  0  0
  5  7  1  0  0  0  0
  2  3  1  0  0  0  0
  2  4  1  0  0  0  0
  2  5  1  0  0  0  0
  1  2  1  0  0  0  0
 22 23  2  0  0  0  0
 22 24  1  0  0  0  0
 19 20  1  0  0  0  0
 19 21  1  0  0  0  0
 17 18  2  0  0  0  0
 17 19  1  0  0  0  0
 14 15  1  0  0  0  0
 14 16  1  0  0  0  0
 14 17  1  0  0  0  0
 11 12  1  0  0  0  0
 11 13  1  0  0  0  0
 11 14  1  0  0  0  0
  9 10  1  0  0  0  0
  9 11  1  0  0  0  0
  9 22  1  0  0  0  0
  7  8  1  0  0  0  0
  7  9  1  0  0  0  0
 26 27  1  0  0  0  0
 26 28  1  0  0  0  0
 26 29  1  0  0  0  0
 24 25  1  0  0  0  0
 24 26  1  0  0  0  0
M  END
$$$$
default_name
  -OEChem-01062215323D

 29 28  0     1  0  0  0  0  0999 V2000
   -3.3998   -3.6239    1.3678 H   0  0  0  0  0  0  0  0  0  0  0  0
   -3.3608   -2.6749    0.8348 C   0  0  0  0  0  0  0  0  0  0  0  0
   -4.0988   -1.9909    1.2498 H   0  0  0  0  0  0  0  0  0  0  0  0
   -3.5618   -2.8419   -0.2222 H   0  0  0  0  0  0  0  0  0  0  0  0
   -1.9818   -2.0809    0.9918 C   0  0  0  0  0  0  0  0  0  0  0  0
   -1.1288   -2.6669    1.6468 O   0  0  0  0  0  0  0  0  0  0  0  0
   -1.7648   -0.9089    0.3998 N   0  0  0  0  0  0  0  0  0  0  0  0
   -2.5238   -0.4719   -0.1032 H   0  0  0  0  0  0  0  0  0  0  0  0
   -0.4848   -0.1959    0.4138 C   0  0  1  0  0  0  0  0  0  0  0  0
    0.2285   -0.7719    1.0058 H   0  0  0  0  0  0  0  0  0  0  0  0
    0.0485   -0.1047   -1.0293 C   0  0  0  0  0  0  0  0  0  0  0  0
   -0.7297    0.3361   -1.6557 H   0  0  0  0  0  0  0  0  0  0  0  0
    0.9163    0.5564   -1.0475 H   0  0  0  0  0  0  0  0  0  0  0  0
    0.4455   -1.4631   -1.6332 C   0  0  0  0  0  0  0  0  0  0  0  0
    1.2347   -1.9152   -1.0328 H   0  0  0  0  0  0  0  0  0  0  0  0
   -0.4222   -2.1226   -1.6212 H   0  0  0  0  0  0  0  0  0  0  0  0
    0.9492   -1.3572   -3.0725 C   0  0  0  0  0  0  0  0  0  0  0  0
    0.9619   -0.3161   -3.7021 O   0  0  0  0  0  0  0  0  0  0  0  0
    1.3994   -2.4448   -3.6597 N   0  0  0  0  0  0  0  0  0  0  0  0
    1.7185   -2.3176   -4.6044 H   0  0  0  0  0  0  0  0  0  0  0  0
    1.4138   -3.3257   -3.1870 H   0  0  0  0  0  0  0  0  0  0  0  0
   -0.6435    1.1847    1.0692 C   0  0  0  0  0  0  0  0  0  0  0  0
   -1.0374    1.2773    2.2304 O   0  0  0  0  0  0  0  0  0  0  0  0
   -0.3478    2.2567    0.3231 N   0  0  0  0  0  0  0  0  0  0  0  0
   -0.0067    2.1017   -0.6122 H   0  0  0  0  0  0  0  0  0  0  0  0
   -0.4595    3.6359    0.7961 C   0  0  0  0  0  0  0  0  0  0  0  0
    0.1451    3.7653    1.6972 H   0  0  0  0  0  0  0  0  0  0  0  0
   -0.1137    4.3306    0.0292 H   0  0  0  0  0  0  0  0  0  0  0  0
   -1.4990    3.8576    1.0436 H   0  0  0  0  0  0  0  0  0  0  0  0
  5  6  2  0  0  0  0
  5  7  1  0  0  0  0
  2  3  1  0  0  0  0
  2  4  1  0  0  0  0
  2  5  1  0  0  0  0
  1  2  1  0  0  0  0
 22 23  2  0  0  0  0
 22 24  1  0  0  0  0
 19 20  1  0  0  0  0
 19 21  1  0  0  0  0
 17 18  2  0  0  0  0
 17 19  1  0  0  0  0
 14 15  1  0  0  0  0
 14 16  1  0  0  0  0
 14 17  1  0  0  0  0
 11 12  1  0  0  0  0
 11 13  1  0  0  0  0
 11 14  1  0  0  0  0
  9 10  1  0  0  0  0
  9 11  1  0  0  0  0
  9 22  1  0  0  0  0
  7  8  1  0  0  0  0
  7  9  1  0  0  0  0
 26 27  1  0  0  0  0
 26 28  1  0  0  0  0
 26 29  1  0  0  0  0
 24 25  1  0  0  0  0
 24 26  1  0  0  0  0
M  END
$$$$
default_name
  -OEChem-01062215323D

 29 28  0     1  0  0  0  0  0999 V2000
   -3.3998   -3.6239    1.3678 H   0  0  0  0  0  0  0  0  0  0  0  0
   -3.3608   -2.6749    0.8348 C   0  0  0  0  0  0  0  0  0  0  0  0
   -4.0988   -1.9909    1.2498 H   0  0  0  0  0  0  0  0  0  0  0  0
   -3.5618   -2.8419   -0.2222 H   0  0  0  0  0  0  0  0  0  0  0  0
   -1.9818   -2.0809    0.9918 C   0  0  0  0  0  0  0  0  0  0  0  0
   -1.1288   -2.6669    1.6468 O   0  0  0  0  0  0  0  0  0  0  0  0
   -1.7648   -0.9089    0.3998 N   0  0  0  0  0  0  0  0  0  0  0  0
   -2.5238   -0.4719   -0.1032 H   0  0  0  0  0  0  0  0  0  0  0  0
   -0.4848   -0.1959    0.4138 C   0  0  1  0  0  0  0  0  0  0  0  0
    0.2285   -0.7719    1.0058 H   0  0  0  0  0  0  0  0  0  0  0  0
    0.0485   -0.1047   -1.0293 C   0  0  0  0  0  0  0  0  0  0  0  0
   -0.7297    0.3361   -1.6557 H   0  0  0  0  0  0  0  0  0  0  0  0
    0.9163    0.5564   -1.0475 H   0  0  0  0  0  0  0  0  0  0  0  0
    0.4455   -1.4631   -1.6332 C   0  0  0  0  0  0  0  0  0  0  0  0
    1.2347   -1.9152   -1.0328 H   0  0  0  0  0  0  0  0  0  0  0  0
   -0.4222   -2.1226   -1.6212 H   0  0  0  0  0  0  0  0  0  0  0  0
    0.9492   -1.3572   -3.0725 C   0  0  0  0  0  0  0  0  0  0  0  0
    0.9619   -0.3161   -3.7021 O   0  0  0  0  0  0  0  0  0  0  0  0
    1.3994   -2.4448   -3.6597 N   0  0  0  0  0  0  0  0  0  0  0  0
    1.7185   -2.3176   -4.6044 H   0  0  0  0  0  0  0  0  0  0  0  0
    1.4138   -3.3257   -3.1870 H   0  0  0  0  0  0  0  0  0  0  0  0
   -0.6435    1.1847    1.0692 C   0  0  0  0  0  0  0  0  0  0  0  0
   -0.7663    1.2806    2.2890 O   0  0  0  0  0  0  0  0  0  0  0  0
   -0.6520    2.2517    0.2600 N   0  0  0  0  0  0  0  0  0  0  0  0
   -0.5209    2.0970   -0.7269 H   0  0  0  0  0  0  0  0  0  0  0  0
   -0.8072    3.6287    0.7271 C   0  0  0  0  0  0  0  0  0  0  0  0
   -0.0295    3.8579    1.4598 H   0  0  0  0  0  0  0  0  0  0  0  0
   -0.7291    4.3254   -0.1088 H   0  0  0  0  0  0  0  0  0  0  0  0
   -1.7796    3.7473    1.2080 H   0  0  0  0  0  0  0  0  0  0  0  0
  5  6  2  0  0  0  0
  5  7  1  0  0  0  0
  2  3  1  0  0  0  0
  2  4  1  0  0  0  0
  2  5  1  0  0  0  0
  1  2  1  0  0  0  0
 22 23  2  0  0  0  0
 22 24  1  0  0  0  0
 19 20  1  0  0  0  0
 19 21  1  0  0  0  0
 17 18  2  0  0  0  0
 17 19  1  0  0  0  0
 14 15  1  0  0  0  0
 14 16  1  0  0  0  0
 14 17  1  0  0  0  0
 11 12  1  0  0  0  0
 11 13  1  0  0  0  0
 11 14  1  0  0  0  0
  9 10  1  0  0  0  0
  9 11  1  0  0  0  0
  9 22  1  0  0  0  0
  7  8  1  0  0  0  0
  7  9  1  0  0  0  0
 26 27  1  0  0  0  0
 26 28  1  0  0  0  0
 26 29  1  0  0  0  0
 24 25  1  0  0  0  0
 24 26  1  0  0  0  0
M  END
$$$$
default_name
  -OEChem-01062215323D

 29 28  0     1  0  0  0  0  0999 V2000
   -3.3998   -3.6239    1.3678 H   0  0  0  0  0  0  0  0  0  0  0  0
   -3.3608   -2.6749    0.8348 C   0  0  0  0  0  0  0  0  0  0  0  0
   -4.0988   -1.9909    1.2498 H   0  0  0  0  0  0  0  0  0  0  0  0
   -3.5618   -2.8419   -0.2222 H   0  0  0  0  0  0  0  0  0  0  0  0
   -1.9818   -2.0809    0.9918 C   0  0  0  0  0  0  0  0  0  0  0  0
   -1.1288   -2.6669    1.6468 O   0  0  0  0  0  0  0  0  0  0  0  0
   -1.7648   -0.9089    0.3998 N   0  0  0  0  0  0  0  0  0  0  0  0
   -2.5238   -0.4719   -0.1032 H   0  0  0  0  0  0  0  0  0  0  0  0
   -0.4848   -0.1959    0.4138 C   0  0  1  0  0  0  0  0  0  0  0  0
    0.2285   -0.7719    1.0058 H   0  0  0  0  0  0  0  0  0  0  0  0
    0.0485   -0.1047   -1.0293 C   0  0  0  0  0  0  0  0  0  0  0  0
   -0.7297    0.3361   -1.6557 H   0  0  0  0  0  0  0  0  0  0  0  0
    0.9163    0.5564   -1.0475 H   0  0  0  0  0  0  0  0  0  0  0  0
    0.4455   -1.4631   -1.6332 C   0  0  0  0  0  0  0  0  0  0  0  0
    1.2347   -1.9152   -1.0328 H   0  0  0  0  0  0  0  0  0  0  0  0
   -0.4222   -2.1226   -1.6212 H   0  0  0  0  0  0  0  0  0  0  0  0
    0.9492   -1.3572   -3.0725 C   0  0  0  0  0  0  0  0  0  0  0  0
    0.9619   -0.3161   -3.7021 O   0  0  0  0  0  0  0  0  0  0  0  0
    1.3994   -2.4448   -3.6597 N   0  0  0  0  0  0  0  0  0  0  0  0
    1.7185   -2.3176   -4.6044 H   0  0  0  0  0  0  0  0  0  0  0  0
    1.4138   -3.3257   -3.1870 H   0  0  0  0  0  0  0  0  0  0  0  0
   -0.6435    1.1847    1.0692 C   0  0  0  0  0  0  0  0  0  0  0  0
   -0.4912    1.3154    2.2824 O   0  0  0  0  0  0  0  0  0  0  0  0
   -0.9598    2.2116    0.2699 N   0  0  0  0  0  0  0  0  0  0  0  0
   -1.0436    2.0327   -0.7180 H   0  0  0  0  0  0  0  0  0  0  0  0
   -1.1583    3.5814    0.7416 C   0  0  0  0  0  0  0  0  0  0  0  0
   -0.2635    3.9218    1.2686 H   0  0  0  0  0  0  0  0  0  0  0  0
   -1.3551    4.2487   -0.0989 H   0  0  0  0  0  0  0  0  0  0  0  0
   -2.0003    3.6142    1.4350 H   0  0  0  0  0  0  0  0  0  0  0  0
  5  6  2  0  0  0  0
  5  7  1  0  0  0  0
  2  3  1  0  0  0  0
  2  4  1  0  0  0  0
  2  5  1  0  0  0  0
  1  2  1  0  0  0  0
 22 23  2  0  0  0  0
 22 24  1  0  0  0  0
 19 20  1  0  0  0  0
 19 21  1  0  0  0  0
 17 18  2  0  0  0  0
 17 19  1  0  0  0  0
 14 15  1  0  0  0  0
 14 16  1  0  0  0  0
 14 17  1  0  0  0  0
 11 12  1  0  0  0  0
 11 13  1  0  0  0  0
 11 14  1  0  0  0  0
  9 10  1  0  0  0  0
  9 11  1  0  0  0  0
  9 22  1  0  0  0  0
  7  8  1  0  0  0  0
  7  9  1  0  0  0  0
 26 27  1  0  0  0  0
 26 28  1  0  0  0  0
 26 29  1  0  0  0  0
 24 25  1  0  0  0  0
 24 26  1  0  0  0  0
M  END
$$$$
default_name
  -OEChem-01062215323D

 29 28  0     1  0  0  0  0  0999 V2000
   -3.3998   -3.6239    1.3678 H   0  0  0  0  0  0  0  0  0  0  0  0
   -3.3608   -2.6749    0.8348 C   0  0  0  0  0  0  0  0  0  0  0  0
   -4.0988   -1.9909    1.2498 H   0  0  0  0  0  0  0  0  0  0  0  0
   -3.5618   -2.8419   -0.2222 H   0  0  0  0  0  0  0  0  0  0  0  0
   -1.9818   -2.0809    0.9918 C   0  0  0  0  0  0  0  0  0  0  0  0
   -1.1288   -2.6669    1.6468 O   0  0  0  0  0  0  0  0  0  0  0  0
   -1.7648   -0.9089    0.3998 N   0  0  0  0  0  0  0  0  0  0  0  0
   -2.5238   -0.4719   -0.1032 H   0  0  0  0  0  0  0  0  0  0  0  0
   -0.4848   -0.1959    0.4138 C   0  0  1  0  0  0  0  0  0  0  0  0
    0.2285   -0.7719    1.0058 H   0  0  0  0  0  0  0  0  0  0  0  0
    0.0485   -0.1047   -1.0293 C   0  0  0  0  0  0  0  0  0  0  0  0
   -0.7297    0.3361   -1.6557 H   0  0  0  0  0  0  0  0  0  0  0  0
    0.9163    0.5564   -1.0475 H   0  0  0  0  0  0  0  0  0  0  0  0
    0.4455   -1.4631   -1.6332 C   0  0  0  0  0  0  0  0  0  0  0  0
    1.2347   -1.9152   -1.0328 H   0  0  0  0  0  0  0  0  0  0  0  0
   -0.4222   -2.1226   -1.6212 H   0  0  0  0  0  0  0  0  0  0  0  0
    0.9492   -1.3572   -3.0725 C   0  0  0  0  0  0  0  0  0  0  0  0
    0.9619   -0.3161   -3.7021 O   0  0  0  0  0  0  0  0  0  0  0  0
    1.3994   -2.4448   -3.6597 N   0  0  0  0  0  0  0  0  0  0  0  0
    1.7185   -2.3176   -4.6044 H   0  0  0  0  0  0  0  0  0  0  0  0
    1.4138   -3.3257   -3.1870 H   0  0  0  0  0  0  0  0  0  0  0  0
   -0.6435    1.1847    1.0692 C   0  0  0  0  0  0  0  0  0  0  0  0
   -0.2309    1.3791    2.2112 O   0  0  0  0  0  0  0  0  0  0  0  0
   -1.2505    2.1391    0.3522 N   0  0  0  0  0  0  0  0  0  0  0  0
   -1.5394    1.9131   -0.5862 H   0  0  0  0  0  0  0  0  0  0  0  0
   -1.4888    3.4975    0.8384 C   0  0  0  0  0  0  0  0  0  0  0  0
   -0.5411    3.9525    1.1367 H   0  0  0  0  0  0  0  0  0  0  0  0
   -1.9490    4.1058    0.0583 H   0  0  0  0  0  0  0  0  0  0  0  0
   -2.1460    3.4673    1.7092 H   0  0  0  0  0  0  0  0  0  0  0  0
  5  6  2  0  0  0  0
  5  7  1  0  0  0  0
  2  3  1  0  0  0  0
  2  4  1  0  0  0  0
  2  5  1  0  0  0  0
  1  2  1  0  0  0  0
 22 23  2  0  0  0  0
 22 24  1  0  0  0  0
 19 20  1  0  0  0  0
 19 21  1  0  0  0  0
 17 18  2  0  0  0  0
 17 19  1  0  0  0  0
 14 15  1  0  0  0  0
 14 16  1  0  0  0  0
 14 17  1  0  0  0  0
 11 12  1  0  0  0  0
 11 13  1  0  0  0  0
 11 14  1  0  0  0  0
  9 10  1  0  0  0  0
  9 11  1  0  0  0  0
  9 22  1  0  0  0  0
  7  8  1  0  0  0  0
  7  9  1  0  0  0  0
 26 27  1  0  0  0  0
 26 28  1  0  0  0  0
 26 29  1  0  0  0  0
 24 25  1  0  0  0  0
 24 26  1  0  0  0  0
M  END
$$$$
default_name
  -OEChem-01062215323D

 29 28  0     1  0  0  0  0  0999 V2000
   -3.3998   -3.6239    1.3678 H   0  0  0  0  0  0  0  0  0  0  0  0
   -3.3608   -2.6749    0.8348 C   0  0  0  0  0  0  0  0  0  0  0  0
   -4.0988   -1.9909    1.2498 H   0  0  0  0  0  0  0  0  0  0  0  0
   -3.5618   -2.8419   -0.2222 H   0  0  0  0  0  0  0  0  0  0  0  0
   -1.9818   -2.0809    0.9918 C   0  0  0  0  0  0  0  0  0  0  0  0
   -1.1288   -2.6669    1.6468 O   0  0  0  0  0  0  0  0  0  0  0  0
   -1.7648   -0.9089    0.3998 N   0  0  0  0  0  0  0  0  0  0  0  0
   -2.5238   -0.4719   -0.1032 H   0  0  0  0  0  0  0  0  0  0  0  0
   -0.4848   -0.1959    0.4138 C   0  0  1  0  0  0  0  0  0  0  0  0
    0.2285   -0.7719    1.0058 H   0  0  0  0  0  0  0  0  0  0  0  0
    0.0485   -0.1047   -1.0293 C   0  0  0  0  0  0  0  0  0  0  0  0
   -0.7297    0.3361   -1.6557 H   0  0  0  0  0  0  0  0  0  0  0  0
    0.9163    0.5564   -1.0475 H   0  0  0  0  0  0  0  0  0  0  0  0
    0.4455   -1.4631   -1.6332 C   0  0  0  0  0  0  0  0  0  0  0  0
    1.2347   -1.9152   -1.0328 H   0  0  0  0  0  0  0  0  0  0  0  0
   -0.4222   -2.1226   -1.6212 H   0  0  0  0  0  0  0  0  0  0  0  0
    0.9492   -1.3572   -3.0725 C   0  0  0  0  0  0  0  0  0  0  0  0
    0.9619   -0.3161   -3.7021 O   0  0  0  0  0  0  0  0  0  0  0  0
    1.3994   -2.4448   -3.6597 N   0  0  0  0  0  0  0  0  0  0  0  0
    1.7185   -2.3176   -4.6044 H   0  0  0  0  0  0  0  0  0  0  0  0
    1.4138   -3.3257   -3.1870 H   0  0  0  0  0  0  0  0  0  0  0  0
   -0.6435    1.1847    1.0692 C   0  0  0  0  0  0  0  0  0  0  0  0
   -0.0031    1.4675    2.0801 O   0  0  0  0  0  0  0  0  0  0  0  0
   -1.5041    2.0392    0.5012 N   0  0  0  0  0  0  0  0  0  0  0  0
   -1.9744    1.7463   -0.3403 H   0  0  0  0  0  0  0  0  0  0  0  0
   -1.7763    3.3824    1.0111 C   0  0  0  0  0  0  0  0  0  0  0  0
   -0.8433    3.9480    1.0730 H   0  0  0  0  0  0  0  0  0  0  0  0
   -2.4703    3.9064    0.3521 H   0  0  0  0  0  0  0  0  0  0  0  0
   -2.2067    3.3166    2.0118 H   0  0  0  0  0  0  0  0  0  0  0  0
  5  6  2  0  0  0  0
  5  7  1  0  0  0  0
  2  3  1  0  0  0  0
  2  4  1  0  0  0  0
  2  5  1  0  0  0  0
  1  2  1  0  0  0  0
 22 23  2  0  0  0  0
 22 24  1  0  0  0  0
 19 20  1  0  0  0  0
 19 21  1  0  0  0  0
 17 18  2  0  0  0  0
 17 19  1  0  0  0  0
 14 15  1  0  0  0  0
 14 16  1  0  0  0  0
 14 17  1  0  0  0  0
 11 12  1  0  0  0  0
 11 13  1  0  0  0  0
 11 14  1  0  0  0  0
  9 10  1  0  0  0  0
  9 11  1  0  0  0  0
  9 22  1  0  0  0  0
  7  8  1  0  0  0  0
  7  9  1  0  0  0  0
 26 27  1  0  0  0  0
 26 28  1  0  0  0  0
 26 29  1  0  0  0  0
 24 25  1  0  0  0  0
 24 26  1  0  0  0  0
M  END
$$$$
default_name
  -OEChem-01062215323D

 29 28  0     1  0  0  0  0  0999 V2000
   -3.3998   -3.6239    1.3678 H   0  0  0  0  0  0  0  0  0  0  0  0
   -3.3608   -2.6749    0.8348 C   0  0  0  0  0  0  0  0  0  0  0  0
   -4.0988   -1.9909    1.2498 H   0  0  0  0  0  0  0  0  0  0  0  0
   -3.5618   -2.8419   -0.2222 H   0  0  0  0  0  0  0  0  0  0  0  0
   -1.9818   -2.0809    0.9918 C   0  0  0  0  0  0  0  0  0  0  0  0
   -1.1288   -2.6669    1.6468 O   0  0  0  0  0  0  0  0  0  0  0  0
   -1.7648   -0.9089    0.3998 N   0  0  0  0  0  0  0  0  0  0  0  0
   -2.5238   -0.4719   -0.1032 H   0  0  0  0  0  0  0  0  0  0  0  0
   -0.4848   -0.1959    0.4138 C   0  0  1  0  0  0  0  0  0  0  0  0
    0.2285   -0.7719    1.0058 H   0  0  0  0  0  0  0  0  0  0  0  0
    0.0485   -0.1047   -1.0293 C   0  0  0  0  0  0  0  0  0  0  0  0
   -0.7297    0.3361   -1.6557 H   0  0  0  0  0  0  0  0  0  0  0  0
    0.9163    0.5564   -1.0475 H   0  0  0  0  0  0  0  0  0  0  0  0
    0.4455   -1.4631   -1.6332 C   0  0  0  0  0  0  0  0  0  0  0  0
    1.2347   -1.9152   -1.0328 H   0  0  0  0  0  0  0  0  0  0  0  0
   -0.4222   -2.1226   -1.6212 H   0  0  0  0  0  0  0  0  0  0  0  0
    0.9492   -1.3572   -3.0725 C   0  0  0  0  0  0  0  0  0  0  0  0
    0.9619   -0.3161   -3.7021 O   0  0  0  0  0  0  0  0  0  0  0  0
    1.3994   -2.4448   -3.6597 N   0  0  0  0  0  0  0  0  0  0  0  0
    1.7185   -2.3176   -4.6044 H   0  0  0  0  0  0  0  0  0  0  0  0
    1.4138   -3.3257   -3.1870 H   0  0  0  0  0  0  0  0  0  0  0  0
   -0.6435    1.1847    1.0692 C   0  0  0  0  0  0  0  0  0  0  0  0
    0.1768    1.5746    1.8982 O   0  0  0  0  0  0  0  0  0  0  0  0
   -1.7034    1.9187    0.7068 N   0  0  0  0  0  0  0  0  0  0  0  0
   -2.3190    1.5438    0.0028 H   0  0  0  0  0  0  0  0  0  0  0  0
   -2.0012    3.2442    1.2478 C   0  0  0  0  0  0  0  0  0  0  0  0
   -1.1495    3.9086    1.0819 H   0  0  0  0  0  0  0  0  0  0  0  0
   -2.8836    3.6640    0.7625 H   0  0  0  0  0  0  0  0  0  0  0  0
   -2.1783    3.1725    2.3223 H   0  0  0  0  0  0  0  0  0  0  0  0
  5  6  2  0  0  0  0
  5  7  1  0  0  0  0
  2  3  1  0  0  0  0
  2  4  1  0  0  0  0
  2  5  1  0  0  0  0
  1  2  1  0  0  0  0
 22 23  2  0  0  0  0
 22 24  1  0  0  0  0
 19 20  1  0  0  0  0
 19 21  1  0  0  0  0
 17 18  2  0  0  0  0
 17 19  1  0  0  0  0
 14 15  1  0  0  0  0
 14 16  1  0  0  0  0
 14 17  1  0  0  0  0
 11 12  1  0  0  0  0
 11 13  1  0  0  0  0
 11 14  1  0  0  0  0
  9 10  1  0  0  0  0
  9 11  1  0  0  0  0
  9 22  1  0  0  0  0
  7  8  1  0  0  0  0
  7  9  1  0  0  0  0
 26 27  1  0  0  0  0
 26 28  1  0  0  0  0
 26 29  1  0  0  0  0
 24 25  1  0  0  0  0
 24 26  1  0  0  0  0
M  END
$$$$
default_name
  -OEChem-01062215323D

 29 28  0     1  0  0  0  0  0999 V2000
   -3.3998   -3.6239    1.3678 H   0  0  0  0  0  0  0  0  0  0  0  0
   -3.3608   -2.6749    0.8348 C   0  0  0  0  0  0  0  0  0  0  0  0
   -4.0988   -1.9909    1.2498 H   0  0  0  0  0  0  0  0  0  0  0  0
   -3.5618   -2.8419   -0.2222 H   0  0  0  0  0  0  0  0  0  0  0  0
   -1.9818   -2.0809    0.9918 C   0  0  0  0  0  0  0  0  0  0  0  0
   -1.1288   -2.6669    1.6468 O   0  0  0  0  0  0  0  0  0  0  0  0
   -1.7648   -0.9089    0.3998 N   0  0  0  0  0  0  0  0  0  0  0  0
   -2.5238   -0.4719   -0.1032 H   0  0  0  0  0  0  0  0  0  0  0  0
   -0.4848   -0.1959    0.4138 C   0  0  1  0  0  0  0  0  0  0  0  0
    0.2285   -0.7719    1.0058 H   0  0  0  0  0  0  0  0  0  0  0  0
    0.0485   -0.1047   -1.0293 C   0  0  0  0  0  0  0  0  0  0  0  0
   -0.7297    0.3361   -1.6557 H   0  0  0  0  0  0  0  0  0  0  0  0
    0.9163    0.5564   -1.0475 H   0  0  0  0  0  0  0  0  0  0  0  0
    0.4455   -1.4631   -1.6332 C   0  0  0  0  0  0  0  0  0  0  0  0
    1.2347   -1.9152   -1.0328 H   0  0  0  0  0  0  0  0  0  0  0  0
   -0.4222   -2.1226   -1.6212 H   0  0  0  0  0  0  0  0  0  0  0  0
    0.9492   -1.3572   -3.0725 C   0  0  0  0  0  0  0  0  0  0  0  0
    0.9619   -0.3161   -3.7021 O   0  0  0  0  0  0  0  0  0  0  0  0
    1.3994   -2.4448   -3.6597 N   0  0  0  0  0  0  0  0  0  0  0  0
    1.7185   -2.3176   -4.6044 H   0  0  0  0  0  0  0  0  0  0  0  0
    1.4138   -3.3257   -3.1870 H   0  0  0  0  0  0  0  0  0  0  0  0
   -0.6435    1.1847    1.0692 C   0  0  0  0  0  0  0  0  0  0  0  0
    0.2964    1.6930    1.6777 O   0  0  0  0  0  0  0  0  0  0  0  0
   -1.8347    1.7858    0.9549 N   0  0  0  0  0  0  0  0  0  0  0  0
   -2.5497    1.3193    0.4198 H   0  0  0  0  0  0  0  0  0  0  0  0
   -2.1480    3.0922    1.5324 C   0  0  0  0  0  0  0  0  0  0  0  0
   -1.4389    3.8369    1.1627 H   0  0  0  0  0  0  0  0  0  0  0  0
   -3.1605    3.3953    1.2614 H   0  0  0  0  0  0  0  0  0  0  0  0
   -2.0628    3.0447    2.6194 H   0  0  0  0  0  0  0  0  0  0  0  0
  5  6  2  0  0  0  0
  5  7  1  0  0  0  0
  2  3  1  0  0  0  0
  2  4  1  0  0  0  0
  2  5  1  0  0  0  0
  1  2  1  0  0  0  0
 22 23  2  0  0  0  0
 22 24  1  0  0  0  0
 19 20  1  0  0  0  0
 19 21  1  0  0  0  0
 17 18  2  0  0  0  0
 17 19  1  0  0  0  0
 14 15  1  0  0  0  0
 14 16  1  0  0  0  0
 14 17  1  0  0  0  0
 11 12  1  0  0  0  0
 11 13  1  0  0  0  0
 11 14  1  0  0  0  0
  9 10  1  0  0  0  0
  9 11  1  0  0  0  0
  9 22  1  0  0  0  0
  7  8  1  0  0  0  0
  7  9  1  0  0  0  0
 26 27  1  0  0  0  0
 26 28  1  0  0  0  0
 26 29  1  0  0  0  0
 24 25  1  0  0  0  0
 24 26  1  0  0  0  0
M  END
$$$$
default_name
  -OEChem-01062215323D

 29 28  0     1  0  0  0  0  0999 V2000
   -3.3998   -3.6239    1.3678 H   0  0  0  0  0  0  0  0  0  0  0  0
   -3.3608   -2.6749    0.8348 C   0  0  0  0  0  0  0  0  0  0  0  0
   -4.0988   -1.9909    1.2498 H   0  0  0  0  0  0  0  0  0  0  0  0
   -3.5618   -2.8419   -0.2222 H   0  0  0  0  0  0  0  0  0  0  0  0
   -1.9818   -2.0809    0.9918 C   0  0  0  0  0  0  0  0  0  0  0  0
   -1.1288   -2.6669    1.6468 O   0  0  0  0  0  0  0  0  0  0  0  0
   -1.7648   -0.9089    0.3998 N   0  0  0  0  0  0  0  0  0  0  0  0
   -2.5238   -0.4719   -0.1032 H   0  0  0  0  0  0  0  0  0  0  0  0
   -0.4848   -0.1959    0.4138 C   0  0  1  0  0  0  0  0  0  0  0  0
    0.2285   -0.7719    1.0058 H   0  0  0  0  0  0  0  0  0  0  0  0
    0.0485   -0.1047   -1.0293 C   0  0  0  0  0  0  0  0  0  0  0  0
   -0.7297    0.3361   -1.6557 H   0  0  0  0  0  0  0  0  0  0  0  0
    0.9163    0.5564   -1.0475 H   0  0  0  0  0  0  0  0  0  0  0  0
    0.4455   -1.4631   -1.6332 C   0  0  0  0  0  0  0  0  0  0  0  0
    1.2347   -1.9152   -1.0328 H   0  0  0  0  0  0  0  0  0  0  0  0
   -0.4222   -2.1226   -1.6212 H   0  0  0  0  0  0  0  0  0  0  0  0
    0.9492   -1.3572   -3.0725 C   0  0  0  0  0  0  0  0  0  0  0  0
    0.9619   -0.3161   -3.7021 O   0  0  0  0  0  0  0  0  0  0  0  0
    1.3994   -2.4448   -3.6597 N   0  0  0  0  0  0  0  0  0  0  0  0
    1.7185   -2.3176   -4.6044 H   0  0  0  0  0  0  0  0  0  0  0  0
    1.4138   -3.3257   -3.1870 H   0  0  0  0  0  0  0  0  0  0  0  0
   -0.6435    1.1847    1.0692 C   0  0  0  0  0  0  0  0  0  0  0  0
    0.3476    1.8147    1.4338 O   0  0  0  0  0  0  0  0  0  0  0  0
   -1.8892    1.6495    1.2287 N   0  0  0  0  0  0  0  0  0  0  0  0
   -2.6508    1.0882    0.8823 H   0  0  0  0  0  0  0  0  0  0  0  0
   -2.2069    2.9367    1.8456 C   0  0  0  0  0  0  0  0  0  0  0  0
   -1.6917    3.7379    1.3100 H   0  0  0  0  0  0  0  0  0  0  0  0
   -3.2823    3.1185    1.8150 H   0  0  0  0  0  0  0  0  0  0  0  0
   -1.8681    2.9420    2.8830 H   0  0  0  0  0  0  0  0  0  0  0  0
  5  6  2  0  0  0  0
  5  7  1  0  0  0  0
  2  3  1  0  0  0  0
  2  4  1  0  0  0  0
  2  5  1  0  0  0  0
  1  2  1  0  0  0  0
 22 23  2  0  0  0  0
 22 24  1  0  0  0  0
 19 20  1  0  0  0  0
 19 21  1  0  0  0  0
 17 18  2  0  0  0  0
 17 19  1  0  0  0  0
 14 15  1  0  0  0  0
 14 16  1  0  0  0  0
 14 17  1  0  0  0  0
 11 12  1  0  0  0  0
 11 13  1  0  0  0  0
 11 14  1  0  0  0  0
  9 10  1  0  0  0  0
  9 11  1  0  0  0  0
  9 22  1  0  0  0  0
  7  8  1  0  0  0  0
  7  9  1  0  0  0  0
 26 27  1  0  0  0  0
 26 28  1  0  0  0  0
 26 29  1  0  0  0  0
 24 25  1  0  0  0  0
 24 26  1  0  0  0  0
M  END
$$$$
default_name
  -OEChem-01062215323D

 29 28  0     1  0  0  0  0  0999 V2000
   -3.3998   -3.6239    1.3678 H   0  0  0  0  0  0  0  0  0  0  0  0
   -3.3608   -2.6749    0.8348 C   0  0  0  0  0  0  0  0  0  0  0  0
   -4.0988   -1.9909    1.2498 H   0  0  0  0  0  0  0  0  0  0  0  0
   -3.5618   -2.8419   -0.2222 H   0  0  0  0  0  0  0  0  0  0  0  0
   -1.9818   -2.0809    0.9918 C   0  0  0  0  0  0  0  0  0  0  0  0
   -1.1288   -2.6669    1.6468 O   0  0  0  0  0  0  0  0  0  0  0  0
   -1.7648   -0.9089    0.3998 N   0  0  0  0  0  0  0  0  0  0  0  0
   -2.5238   -0.4719   -0.1032 H   0  0  0  0  0  0  0  0  0  0  0  0
   -0.4848   -0.1959    0.4138 C   0  0  1  0  0  0  0  0  0  0  0  0
    0.2285   -0.7719    1.0058 H   0  0  0  0  0  0  0  0  0  0  0  0
    0.0485   -0.1047   -1.0293 C   0  0  0  0  0  0  0  0  0  0  0  0
   -0.7297    0.3361   -1.6557 H   0  0  0  0  0  0  0  0  0  0  0  0
    0.9163    0.5564   -1.0475 H   0  0  0  0  0  0  0  0  0  0  0  0
    0.4455   -1.4631   -1.6332 C   0  0  0  0  0  0  0  0  0  0  0  0
    1.2347   -1.9152   -1.0328 H   0  0  0  0  0  0  0  0  0  0  0  0
   -0.4222   -2.1226   -1.6212 H   0  0  0  0  0  0  0  0  0  0  0  0
    0.9492   -1.3572   -3.0725 C   0  0  0  0  0  0  0  0  0  0  0  0
    0.9619   -0.3161   -3.7021 O   0  0  0  0  0  0  0  0  0  0  0  0
    1.3994   -2.4448   -3.6597 N   0  0  0  0  0  0  0  0  0  0  0  0
    1.7185   -2.3176   -4.6044 H   0  0  0  0  0  0  0  0  0  0  0  0
    1.4138   -3.3257   -3.1870 H   0  0  0  0  0  0  0  0  0  0  0  0
   -0.6435    1.1847    1.0692 C   0  0  0  0  0  0  0  0  0  0  0  0
    0.3269    1.9313    1.1831 O   0  0  0  0  0  0  0  0  0  0  0  0
   -1.8632    1.5192    1.5095 N   0  0  0  0  0  0  0  0  0  0  0  0
   -2.6154    0.8661    1.3586 H   0  0  0  0  0  0  0  0  0  0  0  0
   -2.1738    2.7885    2.1659 C   0  0  0  0  0  0  0  0  0  0  0  0
   -1.8907    3.6183    1.5137 H   0  0  0  0  0  0  0  0  0  0  0  0
   -3.2407    2.8525    2.3854 H   0  0  0  0  0  0  0  0  0  0  0  0
   -1.6073    2.8713    3.0950 H   0  0  0  0  0  0  0  0  0  0  0  0
  5  6  2  0  0  0  0
  5  7  1  0  0  0  0
  2  3  1  0  0  0  0
  2  4  1  0  0  0  0
  2  5  1  0  0  0  0
  1  2  1  0  0  0  0
 22 23  2  0  0  0  0
 22 24  1  0  0  0  0
 19 20  1  0  0  0  0
 19 21  1  0  0  0  0
 17 18  2  0  0  0  0
 17 19  1  0  0  0  0
 14 15  1  0  0  0  0
 14 16  1  0  0  0  0
 14 17  1  0  0  0  0
 11 12  1  0  0  0  0
 11 13  1  0  0  0  0
 11 14  1  0  0  0  0
  9 10  1  0  0  0  0
  9 11  1  0  0  0  0
  9 22  1  0  0  0  0
  7  8  1  0  0  0  0
  7  9  1  0  0  0  0
 26 27  1  0  0  0  0
 26 28  1  0  0  0  0
 26 29  1  0  0  0  0
 24 25  1  0  0  0  0
 24 26  1  0  0  0  0
M  END
$$$$
default_name
  -OEChem-01062215323D

 29 28  0     1  0  0  0  0  0999 V2000
   -3.3998   -3.6239    1.3678 H   0  0  0  0  0  0  0  0  0  0  0  0
   -3.3608   -2.6749    0.8348 C   0  0  0  0  0  0  0  0  0  0  0  0
   -4.0988   -1.9909    1.2498 H   0  0  0  0  0  0  0  0  0  0  0  0
   -3.5618   -2.8419   -0.2222 H   0  0  0  0  0  0  0  0  0  0  0  0
   -1.9818   -2.0809    0.9918 C   0  0  0  0  0  0  0  0  0  0  0  0
   -1.1288   -2.6669    1.6468 O   0  0  0  0  0  0  0  0  0  0  0  0
   -1.7648   -0.9089    0.3998 N   0  0  0  0  0  0  0  0  0  0  0  0
   -2.5238   -0.4719   -0.1032 H   0  0  0  0  0  0  0  0  0  0  0  0
   -0.4848   -0.1959    0.4138 C   0  0  1  0  0  0  0  0  0  0  0  0
    0.2285   -0.7719    1.0058 H   0  0  0  0  0  0  0  0  0  0  0  0
    0.0485   -0.1047   -1.0293 C   0  0  0  0  0  0  0  0  0  0  0  0
   -0.7297    0.3361   -1.6557 H   0  0  0  0  0  0  0  0  0  0  0  0
    0.9163    0.5564   -1.0475 H   0  0  0  0  0  0  0  0  0  0  0  0
    0.4455   -1.4631   -1.6332 C   0  0  0  0  0  0  0  0  0  0  0  0
    1.2347   -1.9152   -1.0328 H   0  0  0  0  0  0  0  0  0  0  0  0
   -0.4222   -2.1226   -1.6212 H   0  0  0  0  0  0  0  0  0  0  0  0
    0.9492   -1.3572   -3.0725 C   0  0  0  0  0  0  0  0  0  0  0  0
    0.9619   -0.3161   -3.7021 O   0  0  0  0  0  0  0  0  0  0  0  0
    1.3994   -2.4448   -3.6597 N   0  0  0  0  0  0  0  0  0  0  0  0
    1.7185   -2.3176   -4.6044 H   0  0  0  0  0  0  0  0  0  0  0  0
    1.4138   -3.3257   -3.1870 H   0  0  0  0  0  0  0  0  0  0  0  0
   -0.6435    1.1847    1.0692 C   0  0  0  0  0  0  0  0  0  0  0  0
    0.2357    2.0350    0.9426 O   0  0  0  0  0  0  0  0  0  0  0  0
   -1.7583    1.4038    1.7781 N   0  0  0  0  0  0  0  0  0  0  0  0
   -2.4458    0.6682    1.8164 H   0  0  0  0  0  0  0  0  0  0  0  0
   -2.0510    2.6575    2.4716 C   0  0  0  0  0  0  0  0  0  0  0  0
   -2.0223    3.4863    1.7600 H   0  0  0  0  0  0  0  0  0  0  0  0
   -3.0384    2.6154    2.9338 H   0  0  0  0  0  0  0  0  0  0  0  0
   -1.2983    2.8375    3.2411 H   0  0  0  0  0  0  0  0  0  0  0  0
  5  6  2  0  0  0  0
  5  7  1  0  0  0  0
  2  3  1  0  0  0  0
  2  4  1  0  0  0  0
  2  5  1  0  0  0  0
  1  2  1  0  0  0  0
 22 23  2  0  0  0  0
 22 24  1  0  0  0  0
 19 20  1  0  0  0  0
 19 21  1  0  0  0  0
 17 18  2  0  0  0  0
 17 19  1  0  0  0  0
 14 15  1  0  0  0  0
 14 16  1  0  0  0  0
 14 17  1  0  0  0  0
 11 12  1  0  0  0  0
 11 13  1  0  0  0  0
 11 14  1  0  0  0  0
  9 10  1  0  0  0  0
  9 11  1  0  0  0  0
  9 22  1  0  0  0  0
  7  8  1  0  0  0  0
  7  9  1  0  0  0  0
 26 27  1  0  0  0  0
 26 28  1  0  0  0  0
 26 29  1  0  0  0  0
 24 25  1  0  0  0  0
 24 26  1  0  0  0  0
M  END
$$$$
default_name
  -OEChem-01062215323D

 29 28  0     1  0  0  0  0  0999 V2000
   -3.3998   -3.6239    1.3678 H   0  0  0  0  0  0  0  0  0  0  0  0
   -3.3608   -2.6749    0.8348 C   0  0  0  0  0  0  0  0  0  0  0  0
   -4.0988   -1.9909    1.2498 H   0  0  0  0  0  0  0  0  0  0  0  0
   -3.5618   -2.8419   -0.2222 H   0  0  0  0  0  0  0  0  0  0  0  0
   -1.9818   -2.0809    0.9918 C   0  0  0  0  0  0  0  0  0  0  0  0
   -1.1288   -2.6669    1.6468 O   0  0  0  0  0  0  0  0  0  0  0  0
   -1.7648   -0.9089    0.3998 N   0  0  0  0  0  0  0  0  0  0  0  0
   -2.5238   -0.4719   -0.1032 H   0  0  0  0  0  0  0  0  0  0  0  0
   -0.4848   -0.1959    0.4138 C   0  0  1  0  0  0  0  0  0  0  0  0
    0.2285   -0.7719    1.0058 H   0  0  0  0  0  0  0  0  0  0  0  0
    0.0485   -0.1047   -1.0293 C   0  0  0  0  0  0  0  0  0  0  0  0
   -0.7297    0.3361   -1.6557 H   0  0  0  0  0  0  0  0  0  0  0  0
    0.9163    0.5564   -1.0475 H   0  0  0  0  0  0  0  0  0  0  0  0
    0.4455   -1.4631   -1.6332 C   0  0  0  0  0  0  0  0  0  0  0  0
    1.2347   -1.9152   -1.0328 H   0  0  0  0  0  0  0  0  0  0  0  0
   -0.4222   -2.1226   -1.6212 H   0  0  0  0  0  0  0  0  0  0  0  0
    0.9492   -1.3572   -3.0725 C   0  0  0  0  0  0  0  0  0  0  0  0
    0.9619   -0.3161   -3.7021 O   0  0  0  0  0  0  0  0  0  0  0  0
    1.3994   -2.4448   -3.6597 N   0  0  0  0  0  0  0  0  0  0  0  0
    1.7185   -2.3176   -4.6044 H   0  0  0  0  0  0  0  0  0  0  0  0
    1.4138   -3.3257   -3.1870 H   0  0  0  0  0  0  0  0  0  0  0  0
   -0.6435    1.1847    1.0692 C   0  0  0  0  0  0  0  0  0  0  0  0
    0.0802    2.1187    0.7287 O   0  0  0  0  0  0  0  0  0  0  0  0
   -1.5818    1.3110    2.0163 N   0  0  0  0  0  0  0  0  0  0  0  0
   -2.1538    0.5081    2.2245 H   0  0  0  0  0  0  0  0  0  0  0  0
   -1.8468    2.5527    2.7418 C   0  0  0  0  0  0  0  0  0  0  0  0
   -2.0776    3.3508    2.0320 H   0  0  0  0  0  0  0  0  0  0  0  0
   -2.6894    2.4234    3.4228 H   0  0  0  0  0  0  0  0  0  0  0  0
   -0.9621    2.8428    3.3112 H   0  0  0  0  0  0  0  0  0  0  0  0
  5  6  2  0  0  0  0
  5  7  1  0  0  0  0
  2  3  1  0  0  0  0
  2  4  1  0  0  0  0
  2  5  1  0  0  0  0
  1  2  1  0  0  0  0
 22 23  2  0  0  0  0
 22 24  1  0  0  0  0
 19 20  1  0  0  0  0
 19 21  1  0  0  0  0
 17 18  2  0  0  0  0
 17 19  1  0  0  0  0
 14 15  1  0  0  0  0
 14 16  1  0  0  0  0
 14 17  1  0  0  0  0
 11 12  1  0  0  0  0
 11 13  1  0  0  0  0
 11 14  1  0  0  0  0
  9 10  1  0  0  0  0
  9 11  1  0  0  0  0
  9 22  1  0  0  0  0
  7  8  1  0  0  0  0
  7  9  1  0  0  0  0
 26 27  1  0  0  0  0
 26 28  1  0  0  0  0
 26 29  1  0  0  0  0
 24 25  1  0  0  0  0
 24 26  1  0  0  0  0
M  END
$$$$
default_name
  -OEChem-01062215323D

 29 28  0     1  0  0  0  0  0999 V2000
   -3.3998   -3.6239    1.3678 H   0  0  0  0  0  0  0  0  0  0  0  0
   -3.3608   -2.6749    0.8348 C   0  0  0  0  0  0  0  0  0  0  0  0
   -4.0988   -1.9909    1.2498 H   0  0  0  0  0  0  0  0  0  0  0  0
   -3.5618   -2.8419   -0.2222 H   0  0  0  0  0  0  0  0  0  0  0  0
   -1.9818   -2.0809    0.9918 C   0  0  0  0  0  0  0  0  0  0  0  0
   -1.1288   -2.6669    1.6468 O   0  0  0  0  0  0  0  0  0  0  0  0
   -1.7648   -0.9089    0.3998 N   0  0  0  0  0  0  0  0  0  0  0  0
   -2.5238   -0.4719   -0.1032 H   0  0  0  0  0  0  0  0  0  0  0  0
   -0.4848   -0.1959    0.4138 C   0  0  1  0  0  0  0  0  0  0  0  0
    0.2285   -0.7719    1.0058 H   0  0  0  0  0  0  0  0  0  0  0  0
    0.0485   -0.1047   -1.0293 C   0  0  0  0  0  0  0  0  0  0  0  0
   -0.7297    0.3361   -1.6557 H   0  0  0  0  0  0  0  0  0  0  0  0
    0.9163    0.5564   -1.0475 H   0  0  0  0  0  0  0  0  0  0  0  0
    0.4455   -1.4631   -1.6332 C   0  0  0  0  0  0  0  0  0  0  0  0
    1.2347   -1.9152   -1.0328 H   0  0  0  0  0  0  0  0  0  0  0  0
   -0.4222   -2.1226   -1.6212 H   0  0  0  0  0  0  0  0  0  0  0  0
    0.9492   -1.3572   -3.0725 C   0  0  0  0  0  0  0  0  0  0  0  0
    0.9619   -0.3161   -3.7021 O   0  0  0  0  0  0  0  0  0  0  0  0
    1.3994   -2.4448   -3.6597 N   0  0  0  0  0  0  0  0  0  0  0  0
    1.7185   -2.3176   -4.6044 H   0  0  0  0  0  0  0  0  0  0  0  0
    1.4138   -3.3257   -3.1870 H   0  0  0  0  0  0  0  0  0  0  0  0
   -0.6435    1.1847    1.0692 C   0  0  0  0  0  0  0  0  0  0  0  0
   -0.1289    2.1766    0.5561 O   0  0  0  0  0  0  0  0  0  0  0  0
   -1.3457    1.2472    2.2078 N   0  0  0  0  0  0  0  0  0  0  0  0
   -1.7591    0.3965    2.5551 H   0  0  0  0  0  0  0  0  0  0  0  0
   -1.5751    2.4812    2.9581 C   0  0  0  0  0  0  0  0  0  0  0  0
   -2.0528    3.2211    2.3112 H   0  0  0  0  0  0  0  0  0  0  0  0
   -2.2173    2.2895    3.8191 H   0  0  0  0  0  0  0  0  0  0  0  0
   -0.6217    2.8870    3.3006 H   0  0  0  0  0  0  0  0  0  0  0  0
  5  6  2  0  0  0  0
  5  7  1  0  0  0  0
  2  3  1  0  0  0  0
  2  4  1  0  0  0  0
  2  5  1  0  0  0  0
  1  2  1  0  0  0  0
 22 23  2  0  0  0  0
 22 24  1  0  0  0  0
 19 20  1  0  0  0  0
 19 21  1  0  0  0  0
 17 18  2  0  0  0  0
 17 19  1  0  0  0  0
 14 15  1  0  0  0  0
 14 16  1  0  0  0  0
 14 17  1  0  0  0  0
 11 12  1  0  0  0  0
 11 13  1  0  0  0  0
 11 14  1  0  0  0  0
  9 10  1  0  0  0  0
  9 11  1  0  0  0  0
  9 22  1  0  0  0  0
  7  8  1  0  0  0  0
  7  9  1  0  0  0  0
 26 27  1  0  0  0  0
 26 28  1  0  0  0  0
 26 29  1  0  0  0  0
 24 25  1  0  0  0  0
 24 26  1  0  0  0  0
M  END
$$$$
default_name
  -OEChem-01062215323D

 29 28  0     1  0  0  0  0  0999 V2000
   -3.3998   -3.6239    1.3678 H   0  0  0  0  0  0  0  0  0  0  0  0
   -3.3608   -2.6749    0.8348 C   0  0  0  0  0  0  0  0  0  0  0  0
   -4.0988   -1.9909    1.2498 H   0  0  0  0  0  0  0  0  0  0  0  0
   -3.5618   -2.8419   -0.2222 H   0  0  0  0  0  0  0  0  0  0  0  0
   -1.9818   -2.0809    0.9918 C   0  0  0  0  0  0  0  0  0  0  0  0
   -1.1288   -2.6669    1.6468 O   0  0  0  0  0  0  0  0  0  0  0  0
   -1.7648   -0.9089    0.3998 N   0  0  0  0  0  0  0  0  0  0  0  0
   -2.5238   -0.4719   -0.1032 H   0  0  0  0  0  0  0  0  0  0  0  0
   -0.4848   -0.1959    0.4138 C   0  0  1  0  0  0  0  0  0  0  0  0
    0.2285   -0.7719    1.0058 H   0  0  0  0  0  0  0  0  0  0  0  0
    0.0485   -0.1047   -1.0293 C   0  0  0  0  0  0  0  0  0  0  0  0
   -0.7297    0.3361   -1.6557 H   0  0  0  0  0  0  0  0  0  0  0  0
    0.9163    0.5564   -1.0475 H   0  0  0  0  0  0  0  0  0  0  0  0
    0.4455   -1.4631   -1.6332 C   0  0  0  0  0  0  0  0  0  0  0  0
    1.2347   -1.9152   -1.0328 H   0  0  0  0  0  0  0  0  0  0  0  0
   -0.4222   -2.1226   -1.6212 H   0  0  0  0  0  0  0  0  0  0  0  0
    0.9492   -1.3572   -3.0725 C   0  0  0  0  0  0  0  0  0  0  0  0
    0.9619   -0.3161   -3.7021 O   0  0  0  0  0  0  0  0  0  0  0  0
    1.3994   -2.4448   -3.6597 N   0  0  0  0  0  0  0  0  0  0  0  0
    1.7185   -2.3176   -4.6044 H   0  0  0  0  0  0  0  0  0  0  0  0
    1.4138   -3.3257   -3.1870 H   0  0  0  0  0  0  0  0  0  0  0  0
   -0.6435    1.1847    1.0692 C   0  0  0  0  0  0  0  0  0  0  0  0
   -0.3775    2.2049    0.4364 O   0  0  0  0  0  0  0  0  0  0  0  0
   -1.0661    1.2168    2.3396 N   0  0  0  0  0  0  0  0  0  0  0  0
   -1.2887    0.3412    2.7856 H   0  0  0  0  0  0  0  0  0  0  0  0
   -1.2545    2.4480    3.1058 C   0  0  0  0  0  0  0  0  0  0  0  0
   -1.9496    3.1060    2.5786 H   0  0  0  0  0  0  0  0  0  0  0  0
   -1.6543    2.2229    4.0957 H   0  0  0  0  0  0  0  0  0  0  0  0
   -0.3002    2.9670    3.2100 H   0  0  0  0  0  0  0  0  0  0  0  0
  5  6  2  0  0  0  0
  5  7  1  0  0  0  0
  2  3  1  0  0  0  0
  2  4  1  0  0  0  0
  2  5  1  0  0  0  0
  1  2  1  0  0  0  0
 22 23  2  0  0  0  0
 22 24  1  0  0  0  0
 19 20  1  0  0  0  0
 19 21  1  0  0  0  0
 17 18  2  0  0  0  0
 17 19  1  0  0  0  0
 14 15  1  0  0  0  0
 14 16  1  0  0  0  0
 14 17  1  0  0  0  0
 11 12  1  0  0  0  0
 11 13  1  0  0  0  0
 11 14  1  0  0  0  0
  9 10  1  0  0  0  0
  9 11  1  0  0  0  0
  9 22  1  0  0  0  0
  7  8  1  0  0  0  0
  7  9  1  0  0  0  0
 26 27  1  0  0  0  0
 26 28  1  0  0  0  0
 26 29  1  0  0  0  0
 24 25  1  0  0  0  0
 24 26  1  0  0  0  0
M  END
$$$$
default_name
  -OEChem-01062215323D

 29 28  0     1  0  0  0  0  0999 V2000
   -3.3998   -3.6239    1.3678 H   0  0  0  0  0  0  0  0  0  0  0  0
   -3.3608   -2.6749    0.8348 C   0  0  0  0  0  0  0  0  0  0  0  0
   -4.0988   -1.9909    1.2498 H   0  0  0  0  0  0  0  0  0  0  0  0
   -3.5618   -2.8419   -0.2222 H   0  0  0  0  0  0  0  0  0  0  0  0
   -1.9818   -2.0809    0.9918 C   0  0  0  0  0  0  0  0  0  0  0  0
   -1.1288   -2.6669    1.6468 O   0  0  0  0  0  0  0  0  0  0  0  0
   -1.7648   -0.9089    0.3998 N   0  0  0  0  0  0  0  0  0  0  0  0
   -2.5238   -0.4719   -0.1032 H   0  0  0  0  0  0  0  0  0  0  0  0
   -0.4848   -0.1959    0.4138 C   0  0  1  0  0  0  0  0  0  0  0  0
    0.2285   -0.7719    1.0058 H   0  0  0  0  0  0  0  0  0  0  0  0
    0.0485   -0.1047   -1.0293 C   0  0  0  0  0  0  0  0  0  0  0  0
   -0.7297    0.3361   -1.6557 H   0  0  0  0  0  0  0  0  0  0  0  0
    0.9163    0.5564   -1.0475 H   0  0  0  0  0  0  0  0  0  0  0  0
    0.4455   -1.4631   -1.6332 C   0  0  0  0  0  0  0  0  0  0  0  0
    1.2347   -1.9152   -1.0328 H   0  0  0  0  0  0  0  0  0  0  0  0
   -0.4222   -2.1226   -1.6212 H   0  0  0  0  0  0  0  0  0  0  0  0
    0.9492   -1.3572   -3.0725 C   0  0  0  0  0  0  0  0  0  0  0  0
    0.9619   -0.3161   -3.7021 O   0  0  0  0  0  0  0  0  0  0  0  0
    1.3994   -2.4448   -3.6597 N   0  0  0  0  0  0  0  0  0  0  0  0
    1.7185   -2.3176   -4.6044 H   0  0  0  0  0  0  0  0  0  0  0  0
    1.4138   -3.3257   -3.1870 H   0  0  0  0  0  0  0  0  0  0  0  0
   -0.6435    1.1847    1.0692 C   0  0  0  0  0  0  0  0  0  0  0  0
   -0.6486    2.2015    0.3778 O   0  0  0  0  0  0  0  0  0  0  0  0
   -0.7619    1.2218    2.4027 N   0  0  0  0  0  0  0  0  0  0  0  0
   -0.7746    0.3458    2.9003 H   0  0  0  0  0  0  0  0  0  0  0  0
   -0.9068    2.4552    3.1748 C   0  0  0  0  0  0  0  0  0  0  0  0
   -1.7751    3.0134    2.8160 H   0  0  0  0  0  0  0  0  0  0  0  0
   -1.0389    2.2281    4.2337 H   0  0  0  0  0  0  0  0  0  0  0  0
   -0.0195    3.0773    3.0456 H   0  0  0  0  0  0  0  0  0  0  0  0
  5  6  2  0  0  0  0
  5  7  1  0  0  0  0
  2  3  1  0  0  0  0
  2  4  1  0  0  0  0
  2  5  1  0  0  0  0
  1  2  1  0  0  0  0
 22 23  2  0  0  0  0
 22 24  1  0  0  0  0
 19 20  1  0  0  0  0
 19 21  1  0  0  0  0
 17 18  2  0  0  0  0
 17 19  1  0  0  0  0
 14 15  1  0  0  0  0
 14 16  1  0  0  0  0
 14 17  1  0  0  0  0
 11 12  1  0  0  0  0
 11 13  1  0  0  0  0
 11 14  1  0  0  0  0
  9 10  1  0  0  0  0
  9 11  1  0  0  0  0
  9 22  1  0  0  0  0
  7  8  1  0  0  0  0
  7  9  1  0  0  0  0
 26 27  1  0  0  0  0
 26 28  1  0  0  0  0
 26 29  1  0  0  0  0
 24 25  1  0  0  0  0
 24 26  1  0  0  0  0
M  END
$$$$
default_name
  -OEChem-01062215323D

 29 28  0     1  0  0  0  0  0999 V2000
   -3.3998   -3.6239    1.3678 H   0  0  0  0  0  0  0  0  0  0  0  0
   -3.3608   -2.6749    0.8348 C   0  0  0  0  0  0  0  0  0  0  0  0
   -4.0988   -1.9909    1.2498 H   0  0  0  0  0  0  0  0  0  0  0  0
   -3.5618   -2.8419   -0.2222 H   0  0  0  0  0  0  0  0  0  0  0  0
   -1.9818   -2.0809    0.9918 C   0  0  0  0  0  0  0  0  0  0  0  0
   -1.1288   -2.6669    1.6468 O   0  0  0  0  0  0  0  0  0  0  0  0
   -1.7648   -0.9089    0.3998 N   0  0  0  0  0  0  0  0  0  0  0  0
   -2.5238   -0.4719   -0.1032 H   0  0  0  0  0  0  0  0  0  0  0  0
   -0.4848   -0.1959    0.4138 C   0  0  1  0  0  0  0  0  0  0  0  0
    0.2285   -0.7719    1.0058 H   0  0  0  0  0  0  0  0  0  0  0  0
    0.0485   -0.1047   -1.0293 C   0  0  0  0  0  0  0  0  0  0  0  0
   -0.7297    0.3361   -1.6557 H   0  0  0  0  0  0  0  0  0  0  0  0
    0.9163    0.5564   -1.0475 H   0  0  0  0  0  0  0  0  0  0  0  0
    0.4455   -1.4631   -1.6332 C   0  0  0  0  0  0  0  0  0  0  0  0
    1.2347   -1.9152   -1.0328 H   0  0  0  0  0  0  0  0  0  0  0  0
   -0.4222   -2.1226   -1.6212 H   0  0  0  0  0  0  0  0  0  0  0  0
    0.9492   -1.3572   -3.0725 C   0  0  0  0  0  0  0  0  0  0  0  0
    0.9619   -0.3161   -3.7021 O   0  0  0  0  0  0  0  0  0  0  0  0
    1.3994   -2.4448   -3.6597 N   0  0  0  0  0  0  0  0  0  0  0  0
    1.7185   -2.3176   -4.6044 H   0  0  0  0  0  0  0  0  0  0  0  0
    1.4138   -3.3257   -3.1870 H   0  0  0  0  0  0  0  0  0  0  0  0
   -0.6435    1.1847    1.0692 C   0  0  0  0  0  0  0  0  0  0  0  0
   -0.9236    2.1668    0.3844 O   0  0  0  0  0  0  0  0  0  0  0  0
   -0.4541    1.2619    2.3927 N   0  0  0  0  0  0  0  0  0  0  0  0
   -0.2518    0.4101    2.8914 H   0  0  0  0  0  0  0  0  0  0  0  0
   -0.5557    2.5024    3.1604 C   0  0  0  0  0  0  0  0  0  0  0  0
   -1.5410    2.9495    3.0071 H   0  0  0  0  0  0  0  0  0  0  0  0
   -0.4129    2.3048    4.2238 H   0  0  0  0  0  0  0  0  0  0  0  0
    0.2012    3.2104    2.8186 H   0  0  0  0  0  0  0  0  0  0  0  0
  5  6  2  0  0  0  0
  5  7  1  0  0  0  0
  2  3  1  0  0  0  0
  2  4  1  0  0  0  0
  2  5  1  0  0  0  0
  1  2  1  0  0  0  0
 22 23  2  0  0  0  0
 22 24  1  0  0  0  0
 19 20  1  0  0  0  0
 19 21  1  0  0  0  0
 17 18  2  0  0  0  0
 17 19  1  0  0  0  0
 14 15  1  0  0  0  0
 14 16  1  0  0  0  0
 14 17  1  0  0  0  0
 11 12  1  0  0  0  0
 11 13  1  0  0  0  0
 11 14  1  0  0  0  0
  9 10  1  0  0  0  0
  9 11  1  0  0  0  0
  9 22  1  0  0  0  0
  7  8  1  0  0  0  0
  7  9  1  0  0  0  0
 26 27  1  0  0  0  0
 26 28  1  0  0  0  0
 26 29  1  0  0  0  0
 24 25  1  0  0  0  0
 24 26  1  0  0  0  0
M  END
$$$$
default_name
  -OEChem-01062215323D

 29 28  0     1  0  0  0  0  0999 V2000
   -3.3998   -3.6239    1.3678 H   0  0  0  0  0  0  0  0  0  0  0  0
   -3.3608   -2.6749    0.8348 C   0  0  0  0  0  0  0  0  0  0  0  0
   -4.0988   -1.9909    1.2498 H   0  0  0  0  0  0  0  0  0  0  0  0
   -3.5618   -2.8419   -0.2222 H   0  0  0  0  0  0  0  0  0  0  0  0
   -1.9818   -2.0809    0.9918 C   0  0  0  0  0  0  0  0  0  0  0  0
   -1.1288   -2.6669    1.6468 O   0  0  0  0  0  0  0  0  0  0  0  0
   -1.7648   -0.9089    0.3998 N   0  0  0  0  0  0  0  0  0  0  0  0
   -2.5238   -0.4719   -0.1032 H   0  0  0  0  0  0  0  0  0  0  0  0
   -0.4848   -0.1959    0.4138 C   0  0  1  0  0  0  0  0  0  0  0  0
    0.2285   -0.7719    1.0058 H   0  0  0  0  0  0  0  0  0  0  0  0
    0.0485   -0.1047   -1.0293 C   0  0  0  0  0  0  0  0  0  0  0  0
   -0.7297    0.3361   -1.6557 H   0  0  0  0  0  0  0  0  0  0  0  0
    0.9163    0.5564   -1.0475 H   0  0  0  0  0  0  0  0  0  0  0  0
    0.4455   -1.4631   -1.6332 C   0  0  0  0  0  0  0  0  0  0  0  0
    1.2347   -1.9152   -1.0328 H   0  0  0  0  0  0  0  0  0  0  0  0
   -0.4222   -2.1226   -1.6212 H   0  0  0  0  0  0  0  0  0  0  0  0
    0.9492   -1.3572   -3.0725 C   0  0  0  0  0  0  0  0  0  0  0  0
    0.9619   -0.3161   -3.7021 O   0  0  0  0  0  0  0  0  0  0  0  0
    1.3994   -2.4448   -3.6597 N   0  0  0  0  0  0  0  0  0  0  0  0
    1.7185   -2.3176   -4.6044 H   0  0  0  0  0  0  0  0  0  0  0  0
    1.4138   -3.3257   -3.1870 H   0  0  0  0  0  0  0  0  0  0  0  0
   -0.6435    1.1847    1.0692 C   0  0  0  0  0  0  0  0  0  0  0  0
   -1.1840    2.1030    0.4556 O   0  0  0  0  0  0  0  0  0  0  0  0
   -0.1634    1.3344    2.3104 N   0  0  0  0  0  0  0  0  0  0  0  0
    0.2440    0.5298    2.7595 H   0  0  0  0  0  0  0  0  0  0  0  0
   -0.2252    2.5864    3.0635 C   0  0  0  0  0  0  0  0  0  0  0  0
   -1.2634    2.9188    3.1391 H   0  0  0  0  0  0  0  0  0  0  0  0
    0.1810    2.4477    4.0666 H   0  0  0  0  0  0  0  0  0  0  0  0
    0.3468    3.3573    2.5444 H   0  0  0  0  0  0  0  0  0  0  0  0
  5  6  2  0  0  0  0
  5  7  1  0  0  0  0
  2  3  1  0  0  0  0
  2  4  1  0  0  0  0
  2  5  1  0  0  0  0
  1  2  1  0  0  0  0
 22 23  2  0  0  0  0
 22 24  1  0  0  0  0
 19 20  1  0  0  0  0
 19 21  1  0  0  0  0
 17 18  2  0  0  0  0
 17 19  1  0  0  0  0
 14 15  1  0  0  0  0
 14 16  1  0  0  0  0
 14 17  1  0  0  0  0
 11 12  1  0  0  0  0
 11 13  1  0  0  0  0
 11 14  1  0  0  0  0
  9 10  1  0  0  0  0
  9 11  1  0  0  0  0
  9 22  1  0  0  0  0
  7  8  1  0  0  0  0
  7  9  1  0  0  0  0
 26 27  1  0  0  0  0
 26 28  1  0  0  0  0
 26 29  1  0  0  0  0
 24 25  1  0  0  0  0
 24 26  1  0  0  0  0
M  END
$$$$
default_name
  -OEChem-01062215323D

 29 28  0     1  0  0  0  0  0999 V2000
   -3.3998   -3.6239    1.3678 H   0  0  0  0  0  0  0  0  0  0  0  0
   -3.3608   -2.6749    0.8348 C   0  0  0  0  0  0  0  0  0  0  0  0
   -4.0988   -1.9909    1.2498 H   0  0  0  0  0  0  0  0  0  0  0  0
   -3.5618   -2.8419   -0.2222 H   0  0  0  0  0  0  0  0  0  0  0  0
   -1.9818   -2.0809    0.9918 C   0  0  0  0  0  0  0  0  0  0  0  0
   -1.1288   -2.6669    1.6468 O   0  0  0  0  0  0  0  0  0  0  0  0
   -1.7648   -0.9089    0.3998 N   0  0  0  0  0  0  0  0  0  0  0  0
   -2.5238   -0.4719   -0.1032 H   0  0  0  0  0  0  0  0  0  0  0  0
   -0.4848   -0.1959    0.4138 C   0  0  1  0  0  0  0  0  0  0  0  0
    0.2285   -0.7719    1.0058 H   0  0  0  0  0  0  0  0  0  0  0  0
    0.0485   -0.1047   -1.0293 C   0  0  0  0  0  0  0  0  0  0  0  0
   -0.7297    0.3361   -1.6557 H   0  0  0  0  0  0  0  0  0  0  0  0
    0.9163    0.5564   -1.0475 H   0  0  0  0  0  0  0  0  0  0  0  0
    0.4455   -1.4631   -1.6332 C   0  0  0  0  0  0  0  0  0  0  0  0
    1.2347   -1.9152   -1.0328 H   0  0  0  0  0  0  0  0  0  0  0  0
   -0.4222   -2.1226   -1.6212 H   0  0  0  0  0  0  0  0  0  0  0  0
    0.9492   -1.3572   -3.0725 C   0  0  0  0  0  0  0  0  0  0  0  0
    0.9619   -0.3161   -3.7021 O   0  0  0  0  0  0  0  0  0  0  0  0
    1.3994   -2.4448   -3.6597 N   0  0  0  0  0  0  0  0  0  0  0  0
    1.7185   -2.3176   -4.6044 H   0  0  0  0  0  0  0  0  0  0  0  0
    1.4138   -3.3257   -3.1870 H   0  0  0  0  0  0  0  0  0  0  0  0
   -0.6435    1.1847    1.0692 C   0  0  0  0  0  0  0  0  0  0  0  0
   -1.4118    2.0146    0.5866 O   0  0  0  0  0  0  0  0  0  0  0  0
    0.0902    1.4343    2.1614 N   0  0  0  0  0  0  0  0  0  0  0  0
    0.6790    0.6965    2.5136 H   0  0  0  0  0  0  0  0  0  0  0  0
    0.0623    2.7014    2.8908 C   0  0  0  0  0  0  0  0  0  0  0  0
   -0.9612    2.9233    3.2027 H   0  0  0  0  0  0  0  0  0  0  0  0
    0.7024    2.6471    3.7728 H   0  0  0  0  0  0  0  0  0  0  0  0
    0.4075    3.5080    2.2418 H   0  0  0  0  0  0  0  0  0  0  0  0
  5  6  2  0  0  0  0
  5  7  1  0  0  0  0
  2  3  1  0  0  0  0
  2  4  1  0  0  0  0
  2  5  1  0  0  0  0
  1  2  1  0  0  0  0
 22 23  2  0  0  0  0
 22 24  1  0  0  0  0
 19 20  1  0  0  0  0
 19 21  1  0  0  0  0
 17 18  2  0  0  0  0
 17 19  1  0  0  0  0
 14 15  1  0  0  0  0
 14 16  1  0  0  0  0
 14 17  1  0  0  0  0
 11 12  1  0  0  0  0
 11 13  1  0  0  0  0
 11 14  1  0  0  0  0
  9 10  1  0  0  0  0
  9 11  1  0  0  0  0
  9 22  1  0  0  0  0
  7  8  1  0  0  0  0
  7  9  1  0  0  0  0
 26 27  1  0  0  0  0
 26 28  1  0  0  0  0
 26 29  1  0  0  0  0
 24 25  1  0  0  0  0
 24 26  1  0  0  0  0
M  END
$$$$
default_name
  -OEChem-01062215323D

 29 28  0     1  0  0  0  0  0999 V2000
   -3.3998   -3.6239    1.3678 H   0  0  0  0  0  0  0  0  0  0  0  0
   -3.3608   -2.6749    0.8348 C   0  0  0  0  0  0  0  0  0  0  0  0
   -4.0988   -1.9909    1.2498 H   0  0  0  0  0  0  0  0  0  0  0  0
   -3.5618   -2.8419   -0.2222 H   0  0  0  0  0  0  0  0  0  0  0  0
   -1.9818   -2.0809    0.9918 C   0  0  0  0  0  0  0  0  0  0  0  0
   -1.1288   -2.6669    1.6468 O   0  0  0  0  0  0  0  0  0  0  0  0
   -1.7648   -0.9089    0.3998 N   0  0  0  0  0  0  0  0  0  0  0  0
   -2.5238   -0.4719   -0.1032 H   0  0  0  0  0  0  0  0  0  0  0  0
   -0.4848   -0.1959    0.4138 C   0  0  1  0  0  0  0  0  0  0  0  0
    0.2285   -0.7719    1.0058 H   0  0  0  0  0  0  0  0  0  0  0  0
    0.0485   -0.1047   -1.0293 C   0  0  0  0  0  0  0  0  0  0  0  0
   -0.7297    0.3361   -1.6557 H   0  0  0  0  0  0  0  0  0  0  0  0
    0.9163    0.5564   -1.0475 H   0  0  0  0  0  0  0  0  0  0  0  0
    0.4455   -1.4631   -1.6332 C   0  0  0  0  0  0  0  0  0  0  0  0
    1.2347   -1.9152   -1.0328 H   0  0  0  0  0  0  0  0  0  0  0  0
   -0.4222   -2.1226   -1.6212 H   0  0  0  0  0  0  0  0  0  0  0  0
    0.9492   -1.3572   -3.0725 C   0  0  0  0  0  0  0  0  0  0  0  0
    0.9619   -0.3161   -3.7021 O   0  0  0  0  0  0  0  0  0  0  0  0
    1.3994   -2.4448   -3.6597 N   0  0  0  0  0  0  0  0  0  0  0  0
    1.7185   -2.3176   -4.6044 H   0  0  0  0  0  0  0  0  0  0  0  0
    1.4138   -3.3257   -3.1870 H   0  0  0  0  0  0  0  0  0  0  0  0
   -0.6435    1.1847    1.0692 C   0  0  0  0  0  0  0  0  0  0  0  0
   -1.5917    1.9075    0.7686 O   0  0  0  0  0  0  0  0  0  0  0  0
    0.2895    1.5548    1.9559 N   0  0  0  0  0  0  0  0  0  0  0  0
    1.0236    0.8990    2.1705 H   0  0  0  0  0  0  0  0  0  0  0  0
    0.2872    2.8396    2.6541 C   0  0  0  0  0  0  0  0  0  0  0  0
   -0.6550    2.9627    3.1939 H   0  0  0  0  0  0  0  0  0  0  0  0
    1.1156    2.8895    3.3624 H   0  0  0  0  0  0  0  0  0  0  0  0
    0.3792    3.6521    1.9314 H   0  0  0  0  0  0  0  0  0  0  0  0
  5  6  2  0  0  0  0
  5  7  1  0  0  0  0
  2  3  1  0  0  0  0
  2  4  1  0  0  0  0
  2  5  1  0  0  0  0
  1  2  1  0  0  0  0
 22 23  2  0  0  0  0
 22 24  1  0  0  0  0
 19 20  1  0  0  0  0
 19 21  1  0  0  0  0
 17 18  2  0  0  0  0
 17 19  1  0  0  0  0
 14 15  1  0  0  0  0
 14 16  1  0  0  0  0
 14 17  1  0  0  0  0
 11 12  1  0  0  0  0
 11 13  1  0  0  0  0
 11 14  1  0  0  0  0
  9 10  1  0  0  0  0
  9 11  1  0  0  0  0
  9 22  1  0  0  0  0
  7  8  1  0  0  0  0
  7  9  1  0  0  0  0
 26 27  1  0  0  0  0
 26 28  1  0  0  0  0
 26 29  1  0  0  0  0
 24 25  1  0  0  0  0
 24 26  1  0  0  0  0
M  END
$$$$
default_name
  -OEChem-01062215323D

 29 28  0     1  0  0  0  0  0999 V2000
   -3.3998   -3.6239    1.3678 H   0  0  0  0  0  0  0  0  0  0  0  0
   -3.3608   -2.6749    0.8348 C   0  0  0  0  0  0  0  0  0  0  0  0
   -4.0988   -1.9909    1.2498 H   0  0  0  0  0  0  0  0  0  0  0  0
   -3.5618   -2.8419   -0.2222 H   0  0  0  0  0  0  0  0  0  0  0  0
   -1.9818   -2.0809    0.9918 C   0  0  0  0  0  0  0  0  0  0  0  0
   -1.1288   -2.6669    1.6468 O   0  0  0  0  0  0  0  0  0  0  0  0
   -1.7648   -0.9089    0.3998 N   0  0  0  0  0  0  0  0  0  0  0  0
   -2.5238   -0.4719   -0.1032 H   0  0  0  0  0  0  0  0  0  0  0  0
   -0.4848   -0.1959    0.4138 C   0  0  1  0  0  0  0  0  0  0  0  0
    0.2285   -0.7719    1.0058 H   0  0  0  0  0  0  0  0  0  0  0  0
    0.0485   -0.1047   -1.0293 C   0  0  0  0  0  0  0  0  0  0  0  0
   -0.7297    0.3361   -1.6557 H   0  0  0  0  0  0  0  0  0  0  0  0
    0.9163    0.5564   -1.0475 H   0  0  0  0  0  0  0  0  0  0  0  0
    0.4455   -1.4631   -1.6332 C   0  0  0  0  0  0  0  0  0  0  0  0
    1.2347   -1.9152   -1.0328 H   0  0  0  0  0  0  0  0  0  0  0  0
   -0.4222   -2.1226   -1.6212 H   0  0  0  0  0  0  0  0  0  0  0  0
    0.9492   -1.3572   -3.0725 C   0  0  0  0  0  0  0  0  0  0  0  0
    0.9619   -0.3161   -3.7021 O   0  0  0  0  0  0  0  0  0  0  0  0
    1.3994   -2.4448   -3.6597 N   0  0  0  0  0  0  0  0  0  0  0  0
    1.7185   -2.3176   -4.6044 H   0  0  0  0  0  0  0  0  0  0  0  0
    1.4138   -3.3257   -3.1870 H   0  0  0  0  0  0  0  0  0  0  0  0
   -0.6435    1.1847    1.0692 C   0  0  0  0  0  0  0  0  0  0  0  0
   -1.7113    1.7891    0.9890 O   0  0  0  0  0  0  0  0  0  0  0  0
    0.4208    1.6877    1.7077 N   0  0  0  0  0  0  0  0  0  0  0  0
    1.2543    1.1235    1.7535 H   0  0  0  0  0  0  0  0  0  0  0  0
    0.4340    2.9917    2.3695 C   0  0  0  0  0  0  0  0  0  0  0  0
   -0.3656    3.0344    3.1130 H   0  0  0  0  0  0  0  0  0  0  0  0
    1.3925    3.1582    2.8635 H   0  0  0  0  0  0  0  0  0  0  0  0
    0.2637    3.7799    1.6342 H   0  0  0  0  0  0  0  0  0  0  0  0
  5  6  2  0  0  0  0
  5  7  1  0  0  0  0
  2  3  1  0  0  0  0
  2  4  1  0  0  0  0
  2  5  1  0  0  0  0
  1  2  1  0  0  0  0
 22 23  2  0  0  0  0
 22 24  1  0  0  0  0
 19 20  1  0  0  0  0
 19 21  1  0  0  0  0
 17 18  2  0  0  0  0
 17 19  1  0  0  0  0
 14 15  1  0  0  0  0
 14 16  1  0  0  0  0
 14 17  1  0  0  0  0
 11 12  1  0  0  0  0
 11 13  1  0  0  0  0
 11 14  1  0  0  0  0
  9 10  1  0  0  0  0
  9 11  1  0  0  0  0
  9 22  1  0  0  0  0
  7  8  1  0  0  0  0
  7  9  1  0  0  0  0
 26 27  1  0  0  0  0
 26 28  1  0  0  0  0
 26 29  1  0  0  0  0
 24 25  1  0  0  0  0
 24 26  1  0  0  0  0
M  END
$$$$
default_name
  -OEChem-01062215323D

 29 28  0     1  0  0  0  0  0999 V2000
   -3.3998   -3.6239    1.3678 H   0  0  0  0  0  0  0  0  0  0  0  0
   -3.3608   -2.6749    0.8348 C   0  0  0  0  0  0  0  0  0  0  0  0
   -4.0988   -1.9909    1.2498 H   0  0  0  0  0  0  0  0  0  0  0  0
   -3.5618   -2.8419   -0.2222 H   0  0  0  0  0  0  0  0  0  0  0  0
   -1.9818   -2.0809    0.9918 C   0  0  0  0  0  0  0  0  0  0  0  0
   -1.1288   -2.6669    1.6468 O   0  0  0  0  0  0  0  0  0  0  0  0
   -1.7648   -0.9089    0.3998 N   0  0  0  0  0  0  0  0  0  0  0  0
   -2.5238   -0.4719   -0.1032 H   0  0  0  0  0  0  0  0  0  0  0  0
   -0.4848   -0.1959    0.4138 C   0  0  1  0  0  0  0  0  0  0  0  0
    0.2285   -0.7719    1.0058 H   0  0  0  0  0  0  0  0  0  0  0  0
    0.0485   -0.1047   -1.0293 C   0  0  0  0  0  0  0  0  0  0  0  0
   -0.7297    0.3361   -1.6557 H   0  0  0  0  0  0  0  0  0  0  0  0
    0.9163    0.5564   -1.0475 H   0  0  0  0  0  0  0  0  0  0  0  0
    0.4455   -1.4631   -1.6332 C   0  0  0  0  0  0  0  0  0  0  0  0
    1.2347   -1.9152   -1.0328 H   0  0  0  0  0  0  0  0  0  0  0  0
   -0.4222   -2.1226   -1.6212 H   0  0  0  0  0  0  0  0  0  0  0  0
    0.9492   -1.3572   -3.0725 C   0  0  0  0  0  0  0  0  0  0  0  0
    0.9619   -0.3161   -3.7021 O   0  0  0  0  0  0  0  0  0  0  0  0
    1.3994   -2.4448   -3.6597 N   0  0  0  0  0  0  0  0  0  0  0  0
    1.7185   -2.3176   -4.6044 H   0  0  0  0  0  0  0  0  0  0  0  0
    1.4138   -3.3257   -3.1870 H   0  0  0  0  0  0  0  0  0  0  0  0
   -0.6435    1.1847    1.0692 C   0  0  0  0  0  0  0  0  0  0  0  0
   -1.7625    1.6675    1.2329 O   0  0  0  0  0  0  0  0  0  0  0  0
    0.4753    1.8240    1.4339 N   0  0  0  0  0  0  0  0  0  0  0  0
    1.3554    1.3546    1.2911 H   0  0  0  0  0  0  0  0  0  0  0  0
    0.4929    3.1471    2.0563 C   0  0  0  0  0  0  0  0  0  0  0  0
   -0.1128    3.1334    2.9657 H   0  0  0  0  0  0  0  0  0  0  0  0
    1.5143    3.4350    2.3099 H   0  0  0  0  0  0  0  0  0  0  0  0
    0.0689    3.8826    1.3706 H   0  0  0  0  0  0  0  0  0  0  0  0
  5  6  2  0  0  0  0
  5  7  1  0  0  0  0
  2  3  1  0  0  0  0
  2  4  1  0  0  0  0
  2  5  1  0  0  0  0
  1  2  1  0  0  0  0
 22 23  2  0  0  0  0
 22 24  1  0  0  0  0
 19 20  1  0  0  0  0
 19 21  1  0  0  0  0
 17 18  2  0  0  0  0
 17 19  1  0  0  0  0
 14 15  1  0  0  0  0
 14 16  1  0  0  0  0
 14 17  1  0  0  0  0
 11 12  1  0  0  0  0
 11 13  1  0  0  0  0
 11 14  1  0  0  0  0
  9 10  1  0  0  0  0
  9 11  1  0  0  0  0
  9 22  1  0  0  0  0
  7  8  1  0  0  0  0
  7  9  1  0  0  0  0
 26 27  1  0  0  0  0
 26 28  1  0  0  0  0
 26 29  1  0  0  0  0
 24 25  1  0  0  0  0
 24 26  1  0  0  0  0
M  END
$$$$
default_name
  -OEChem-01062215323D

 29 28  0     1  0  0  0  0  0999 V2000
   -3.3998   -3.6239    1.3678 H   0  0  0  0  0  0  0  0  0  0  0  0
   -3.3608   -2.6749    0.8348 C   0  0  0  0  0  0  0  0  0  0  0  0
   -4.0988   -1.9909    1.2498 H   0  0  0  0  0  0  0  0  0  0  0  0
   -3.5618   -2.8419   -0.2222 H   0  0  0  0  0  0  0  0  0  0  0  0
   -1.9818   -2.0809    0.9918 C   0  0  0  0  0  0  0  0  0  0  0  0
   -1.1288   -2.6669    1.6468 O   0  0  0  0  0  0  0  0  0  0  0  0
   -1.7648   -0.9089    0.3998 N   0  0  0  0  0  0  0  0  0  0  0  0
   -2.5238   -0.4719   -0.1032 H   0  0  0  0  0  0  0  0  0  0  0  0
   -0.4848   -0.1959    0.4138 C   0  0  1  0  0  0  0  0  0  0  0  0
    0.2905   -0.8785    0.7657 H   0  0  0  0  0  0  0  0  0  0  0  0
   -0.1368    0.2280   -1.0265 C   0  0  0  0  0  0  0  0  0  0  0  0
   -0.9826    0.7857   -1.4340 H   0  0  0  0  0  0  0  0  0  0  0  0
    0.7295    0.8908   -1.0035 H   0  0  0  0  0  0  0  0  0  0  0  0
    0.1644   -0.9519   -1.9670 C   0  0  0  0  0  0  0  0  0  0  0  0
    1.0176   -1.5144   -1.5886 H   0  0  0  0  0  0  0  0  0  0  0  0
   -0.7027   -1.6117   -1.9957 H   0  0  0  0  0  0  0  0  0  0  0  0
    0.4836   -0.5150   -3.3967 C   0  0  0  0  0  0  0  0  0  0  0  0
    0.4292    0.6415   -3.7709 O   0  0  0  0  0  0  0  0  0  0  0  0
    0.8430   -1.4340   -4.2665 N   0  0  0  0  0  0  0  0  0  0  0  0
    1.0418   -1.0912   -5.1903 H   0  0  0  0  0  0  0  0  0  0  0  0
    0.9064   -2.3986   -4.0110 H   0  0  0  0  0  0  0  0  0  0  0  0
   -0.5429    0.9980    1.3792 C   0  0  0  0  0  0  0  0  0  0  0  0
   -1.5756    1.2423    2.0004 O   0  0  0  0  0  0  0  0  0  0  0  0
    0.5609    1.7471    1.4971 N   0  0  0  0  0  0  0  0  0  0  0  0
    1.3773    1.4706    0.9754 H   0  0  0  0  0  0  0  0  0  0  0  0
    0.6610    2.9219    2.3622 C   0  0  0  0  0  0  0  0  0  0  0  0
    0.4194    2.6424    3.3906 H   0  0  0  0  0  0  0  0  0  0  0  0
    1.6710    3.3333    2.3301 H   0  0  0  0  0  0  0  0  0  0  0  0
   -0.0504    3.6821    2.0352 H   0  0  0  0  0  0  0  0  0  0  0  0
  5  6  2  0  0  0  0
  5  7  1  0  0  0  0
  2  3  1  0  0  0  0
  2  4  1  0  0  0  0
  2  5  1  0  0  0  0
  1  2  1  0  0  0  0
 22 23  2  0  0  0  0
 22 24  1  0  0  0  0
 19 20  1  0  0  0  0
 19 21  1  0  0  0  0
 17 18  2  0  0  0  0
 17 19  1  0  0  0  0
 14 15  1  0  0  0  0
 14 16  1  0  0  0  0
 14 17  1  0  0  0  0
 11 12  1  0  0  0  0
 11 13  1  0  0  0  0
 11 14  1  0  0  0  0
  9 10  1  0  0  0  0
  9 11  1  0  0  0  0
  9 22  1  0  0  0  0
  7  8  1  0  0  0  0
  7  9  1  0  0  0  0
 26 27  1  0  0  0  0
 26 28  1  0  0  0  0
 26 29  1  0  0  0  0
 24 25  1  0  0  0  0
 24 26  1  0  0  0  0
M  END
$$$$
default_name
  -OEChem-01062215323D

 29 28  0     1  0  0  0  0  0999 V2000
   -3.3998   -3.6239    1.3678 H   0  0  0  0  0  0  0  0  0  0  0  0
   -3.3608   -2.6749    0.8348 C   0  0  0  0  0  0  0  0  0  0  0  0
   -4.0988   -1.9909    1.2498 H   0  0  0  0  0  0  0  0  0  0  0  0
   -3.5618   -2.8419   -0.2222 H   0  0  0  0  0  0  0  0  0  0  0  0
   -1.9818   -2.0809    0.9918 C   0  0  0  0  0  0  0  0  0  0  0  0
   -1.1288   -2.6669    1.6468 O   0  0  0  0  0  0  0  0  0  0  0  0
   -1.7648   -0.9089    0.3998 N   0  0  0  0  0  0  0  0  0  0  0  0
   -2.5238   -0.4719   -0.1032 H   0  0  0  0  0  0  0  0  0  0  0  0
   -0.4848   -0.1959    0.4138 C   0  0  1  0  0  0  0  0  0  0  0  0
    0.2905   -0.8785    0.7657 H   0  0  0  0  0  0  0  0  0  0  0  0
   -0.1368    0.2280   -1.0265 C   0  0  0  0  0  0  0  0  0  0  0  0
   -0.9826    0.7857   -1.4340 H   0  0  0  0  0  0  0  0  0  0  0  0
    0.7295    0.8908   -1.0035 H   0  0  0  0  0  0  0  0  0  0  0  0
    0.1644   -0.9519   -1.9670 C   0  0  0  0  0  0  0  0  0  0  0  0
    1.0176   -1.5144   -1.5886 H   0  0  0  0  0  0  0  0  0  0  0  0
   -0.7027   -1.6117   -1.9957 H   0  0  0  0  0  0  0  0  0  0  0  0
    0.4836   -0.5150   -3.3967 C   0  0  0  0  0  0  0  0  0  0  0  0
    0.4292    0.6415   -3.7709 O   0  0  0  0  0  0  0  0  0  0  0  0
    0.8430   -1.4340   -4.2665 N   0  0  0  0  0  0  0  0  0  0  0  0
    1.0418   -1.0912   -5.1903 H   0  0  0  0  0  0  0  0  0  0  0  0
    0.9064   -2.3986   -4.0110 H   0  0  0  0  0  0  0  0  0  0  0  0
   -0.5429    0.9980    1.3792 C   0  0  0  0  0  0  0  0  0  0  0  0
   -1.4560    1.0886    2.1978 O   0  0  0  0  0  0  0  0  0  0  0  0
    0.4244    1.9185    1.2769 N   0  0  0  0  0  0  0  0  0  0  0  0
    1.1537    1.7639    0.5992 H   0  0  0  0  0  0  0  0  0  0  0  0
    0.5022    3.1164    2.1120 C   0  0  0  0  0  0  0  0  0  0  0  0
    0.5205    2.8289    3.1661 H   0  0  0  0  0  0  0  0  0  0  0  0
    1.4040    3.6847    1.8794 H   0  0  0  0  0  0  0  0  0  0  0  0
   -0.3749    3.7428    1.9406 H   0  0  0  0  0  0  0  0  0  0  0  0
  5  6  2  0  0  0  0
  5  7  1  0  0  0  0
  2  3  1  0  0  0  0
  2  4  1  0  0  0  0
  2  5  1  0  0  0  0
  1  2  1  0  0  0  0
 22 23  2  0  0  0  0
 22 24  1  0  0  0  0
 19 20  1  0  0  0  0
 19 21  1  0  0  0  0
 17 18  2  0  0  0  0
 17 19  1  0  0  0  0
 14 15  1  0  0  0  0
 14 16  1  0  0  0  0
 14 17  1  0  0  0  0
 11 12  1  0  0  0  0
 11 13  1  0  0  0  0
 11 14  1  0  0  0  0
  9 10  1  0  0  0  0
  9 11  1  0  0  0  0
  9 22  1  0  0  0  0
  7  8  1  0  0  0  0
  7  9  1  0  0  0  0
 26 27  1  0  0  0  0
 26 28  1  0  0  0  0
 26 29  1  0  0  0  0
 24 25  1  0  0  0  0
 24 26  1  0  0  0  0
M  END
$$$$
default_name
  -OEChem-01062215323D

 29 28  0     1  0  0  0  0  0999 V2000
   -3.3998   -3.6239    1.3678 H   0  0  0  0  0  0  0  0  0  0  0  0
   -3.3608   -2.6749    0.8348 C   0  0  0  0  0  0  0  0  0  0  0  0
   -4.0988   -1.9909    1.2498 H   0  0  0  0  0  0  0  0  0  0  0  0
   -3.5618   -2.8419   -0.2222 H   0  0  0  0  0  0  0  0  0  0  0  0
   -1.9818   -2.0809    0.9918 C   0  0  0  0  0  0  0  0  0  0  0  0
   -1.1288   -2.6669    1.6468 O   0  0  0  0  0  0  0  0  0  0  0  0
   -1.7648   -0.9089    0.3998 N   0  0  0  0  0  0  0  0  0  0  0  0
   -2.5238   -0.4719   -0.1032 H   0  0  0  0  0  0  0  0  0  0  0  0
   -0.4848   -0.1959    0.4138 C   0  0  1  0  0  0  0  0  0  0  0  0
    0.2905   -0.8785    0.7657 H   0  0  0  0  0  0  0  0  0  0  0  0
   -0.1368    0.2280   -1.0265 C   0  0  0  0  0  0  0  0  0  0  0  0
   -0.9826    0.7857   -1.4340 H   0  0  0  0  0  0  0  0  0  0  0  0
    0.7295    0.8908   -1.0035 H   0  0  0  0  0  0  0  0  0  0  0  0
    0.1644   -0.9519   -1.9670 C   0  0  0  0  0  0  0  0  0  0  0  0
    1.0176   -1.5144   -1.5886 H   0  0  0  0  0  0  0  0  0  0  0  0
   -0.7027   -1.6117   -1.9957 H   0  0  0  0  0  0  0  0  0  0  0  0
    0.4836   -0.5150   -3.3967 C   0  0  0  0  0  0  0  0  0  0  0  0
    0.4292    0.6415   -3.7709 O   0  0  0  0  0  0  0  0  0  0  0  0
    0.8430   -1.4340   -4.2665 N   0  0  0  0  0  0  0  0  0  0  0  0
    1.0418   -1.0912   -5.1903 H   0  0  0  0  0  0  0  0  0  0  0  0
    0.9064   -2.3986   -4.0110 H   0  0  0  0  0  0  0  0  0  0  0  0
   -0.5429    0.9980    1.3792 C   0  0  0  0  0  0  0  0  0  0  0  0
   -1.2758    0.9614    2.3659 O   0  0  0  0  0  0  0  0  0  0  0  0
    0.2204    2.0597    1.0900 N   0  0  0  0  0  0  0  0  0  0  0  0
    0.8144    2.0072    0.2780 H   0  0  0  0  0  0  0  0  0  0  0  0
    0.2667    3.2761    1.9003 C   0  0  0  0  0  0  0  0  0  0  0  0
    0.5426    3.0232    2.9271 H   0  0  0  0  0  0  0  0  0  0  0  0
    0.9984    3.9763    1.4944 H   0  0  0  0  0  0  0  0  0  0  0  0
   -0.7173    3.7477    1.9139 H   0  0  0  0  0  0  0  0  0  0  0  0
  5  6  2  0  0  0  0
  5  7  1  0  0  0  0
  2  3  1  0  0  0  0
  2  4  1  0  0  0  0
  2  5  1  0  0  0  0
  1  2  1  0  0  0  0
 22 23  2  0  0  0  0
 22 24  1  0  0  0  0
 19 20  1  0  0  0  0
 19 21  1  0  0  0  0
 17 18  2  0  0  0  0
 17 19  1  0  0  0  0
 14 15  1  0  0  0  0
 14 16  1  0  0  0  0
 14 17  1  0  0  0  0
 11 12  1  0  0  0  0
 11 13  1  0  0  0  0
 11 14  1  0  0  0  0
  9 10  1  0  0  0  0
  9 11  1  0  0  0  0
  9 22  1  0  0  0  0
  7  8  1  0  0  0  0
  7  9  1  0  0  0  0
 26 27  1  0  0  0  0
 26 28  1  0  0  0  0
 26 29  1  0  0  0  0
 24 25  1  0  0  0  0
 24 26  1  0  0  0  0
M  END
$$$$
default_name
  -OEChem-01062215323D

 29 28  0     1  0  0  0  0  0999 V2000
   -3.3998   -3.6239    1.3678 H   0  0  0  0  0  0  0  0  0  0  0  0
   -3.3608   -2.6749    0.8348 C   0  0  0  0  0  0  0  0  0  0  0  0
   -4.0988   -1.9909    1.2498 H   0  0  0  0  0  0  0  0  0  0  0  0
   -3.5618   -2.8419   -0.2222 H   0  0  0  0  0  0  0  0  0  0  0  0
   -1.9818   -2.0809    0.9918 C   0  0  0  0  0  0  0  0  0  0  0  0
   -1.1288   -2.6669    1.6468 O   0  0  0  0  0  0  0  0  0  0  0  0
   -1.7648   -0.9089    0.3998 N   0  0  0  0  0  0  0  0  0  0  0  0
   -2.5238   -0.4719   -0.1032 H   0  0  0  0  0  0  0  0  0  0  0  0
   -0.4848   -0.1959    0.4138 C   0  0  1  0  0  0  0  0  0  0  0  0
    0.2905   -0.8785    0.7657 H   0  0  0  0  0  0  0  0  0  0  0  0
   -0.1368    0.2280   -1.0265 C   0  0  0  0  0  0  0  0  0  0  0  0
   -0.9826    0.7857   -1.4340 H   0  0  0  0  0  0  0  0  0  0  0  0
    0.7295    0.8908   -1.0035 H   0  0  0  0  0  0  0  0  0  0  0  0
    0.1644   -0.9519   -1.9670 C   0  0  0  0  0  0  0  0  0  0  0  0
    1.0176   -1.5144   -1.5886 H   0  0  0  0  0  0  0  0  0  0  0  0
   -0.7027   -1.6117   -1.9957 H   0  0  0  0  0  0  0  0  0  0  0  0
    0.4836   -0.5150   -3.3967 C   0  0  0  0  0  0  0  0  0  0  0  0
    0.4292    0.6415   -3.7709 O   0  0  0  0  0  0  0  0  0  0  0  0
    0.8430   -1.4340   -4.2665 N   0  0  0  0  0  0  0  0  0  0  0  0
    1.0418   -1.0912   -5.1903 H   0  0  0  0  0  0  0  0  0  0  0  0
    0.9064   -2.3986   -4.0110 H   0  0  0  0  0  0  0  0  0  0  0  0
   -0.5429    0.9980    1.3792 C   0  0  0  0  0  0  0  0  0  0  0  0
   -1.0472    0.8695    2.4933 O   0  0  0  0  0  0  0  0  0  0  0  0
   -0.0373    2.1611    0.9491 N   0  0  0  0  0  0  0  0  0  0  0  0
    0.3826    2.1838    0.0335 H   0  0  0  0  0  0  0  0  0  0  0  0
   -0.0292    3.3900    1.7417 C   0  0  0  0  0  0  0  0  0  0  0  0
    0.4843    3.2122    2.6898 H   0  0  0  0  0  0  0  0  0  0  0  0
    0.4817    4.1883    1.2012 H   0  0  0  0  0  0  0  0  0  0  0  0
   -1.0542    3.6965    1.9569 H   0  0  0  0  0  0  0  0  0  0  0  0
  5  6  2  0  0  0  0
  5  7  1  0  0  0  0
  2  3  1  0  0  0  0
  2  4  1  0  0  0  0
  2  5  1  0  0  0  0
  1  2  1  0  0  0  0
 22 23  2  0  0  0  0
 22 24  1  0  0  0  0
 19 20  1  0  0  0  0
 19 21  1  0  0  0  0
 17 18  2  0  0  0  0
 17 19  1  0  0  0  0
 14 15  1  0  0  0  0
 14 16  1  0  0  0  0
 14 17  1  0  0  0  0
 11 12  1  0  0  0  0
 11 13  1  0  0  0  0
 11 14  1  0  0  0  0
  9 10  1  0  0  0  0
  9 11  1  0  0  0  0
  9 22  1  0  0  0  0
  7  8  1  0  0  0  0
  7  9  1  0  0  0  0
 26 27  1  0  0  0  0
 26 28  1  0  0  0  0
 26 29  1  0  0  0  0
 24 25  1  0  0  0  0
 24 26  1  0  0  0  0
M  END
$$$$
default_name
  -OEChem-01062215323D

 29 28  0     1  0  0  0  0  0999 V2000
   -3.3998   -3.6239    1.3678 H   0  0  0  0  0  0  0  0  0  0  0  0
   -3.3608   -2.6749    0.8348 C   0  0  0  0  0  0  0  0  0  0  0  0
   -4.0988   -1.9909    1.2498 H   0  0  0  0  0  0  0  0  0  0  0  0
   -3.5618   -2.8419   -0.2222 H   0  0  0  0  0  0  0  0  0  0  0  0
   -1.9818   -2.0809    0.9918 C   0  0  0  0  0  0  0  0  0  0  0  0
   -1.1288   -2.6669    1.6468 O   0  0  0  0  0  0  0  0  0  0  0  0
   -1.7648   -0.9089    0.3998 N   0  0  0  0  0  0  0  0  0  0  0  0
   -2.5238   -0.4719   -0.1032 H   0  0  0  0  0  0  0  0  0  0  0  0
   -0.4848   -0.1959    0.4138 C   0  0  1  0  0  0  0  0  0  0  0  0
    0.2905   -0.8785    0.7657 H   0  0  0  0  0  0  0  0  0  0  0  0
   -0.1368    0.2280   -1.0265 C   0  0  0  0  0  0  0  0  0  0  0  0
   -0.9826    0.7857   -1.4340 H   0  0  0  0  0  0  0  0  0  0  0  0
    0.7295    0.8908   -1.0035 H   0  0  0  0  0  0  0  0  0  0  0  0
    0.1644   -0.9519   -1.9670 C   0  0  0  0  0  0  0  0  0  0  0  0
    1.0176   -1.5144   -1.5886 H   0  0  0  0  0  0  0  0  0  0  0  0
   -0.7027   -1.6117   -1.9957 H   0  0  0  0  0  0  0  0  0  0  0  0
    0.4836   -0.5150   -3.3967 C   0  0  0  0  0  0  0  0  0  0  0  0
    0.4292    0.6415   -3.7709 O   0  0  0  0  0  0  0  0  0  0  0  0
    0.8430   -1.4340   -4.2665 N   0  0  0  0  0  0  0  0  0  0  0  0
    1.0418   -1.0912   -5.1903 H   0  0  0  0  0  0  0  0  0  0  0  0
    0.9064   -2.3986   -4.0110 H   0  0  0  0  0  0  0  0  0  0  0  0
   -0.5429    0.9980    1.3792 C   0  0  0  0  0  0  0  0  0  0  0  0
   -0.7859    0.8192    2.5713 O   0  0  0  0  0  0  0  0  0  0  0  0
   -0.3309    2.2158    0.8639 N   0  0  0  0  0  0  0  0  0  0  0  0
   -0.1125    2.2818   -0.1175 H   0  0  0  0  0  0  0  0  0  0  0  0
   -0.3654    3.4503    1.6469 C   0  0  0  0  0  0  0  0  0  0  0  0
    0.3496    3.3830    2.4705 H   0  0  0  0  0  0  0  0  0  0  0  0
   -0.1109    4.3061    1.0198 H   0  0  0  0  0  0  0  0  0  0  0  0
   -1.3626    3.5927    2.0667 H   0  0  0  0  0  0  0  0  0  0  0  0
  5  6  2  0  0  0  0
  5  7  1  0  0  0  0
  2  3  1  0  0  0  0
  2  4  1  0  0  0  0
  2  5  1  0  0  0  0
  1  2  1  0  0  0  0
 22 23  2  0  0  0  0
 22 24  1  0  0  0  0
 19 20  1  0  0  0  0
 19 21  1  0  0  0  0
 17 18  2  0  0  0  0
 17 19  1  0  0  0  0
 14 15  1  0  0  0  0
 14 16  1  0  0  0  0
 14 17  1  0  0  0  0
 11 12  1  0  0  0  0
 11 13  1  0  0  0  0
 11 14  1  0  0  0  0
  9 10  1  0  0  0  0
  9 11  1  0  0  0  0
  9 22  1  0  0  0  0
  7  8  1  0  0  0  0
  7  9  1  0  0  0  0
 26 27  1  0  0  0  0
 26 28  1  0  0  0  0
 26 29  1  0  0  0  0
 24 25  1  0  0  0  0
 24 26  1  0  0  0  0
M  END
$$$$
default_name
  -OEChem-01062215323D

 29 28  0     1  0  0  0  0  0999 V2000
   -3.3998   -3.6239    1.3678 H   0  0  0  0  0  0  0  0  0  0  0  0
   -3.3608   -2.6749    0.8348 C   0  0  0  0  0  0  0  0  0  0  0  0
   -4.0988   -1.9909    1.2498 H   0  0  0  0  0  0  0  0  0  0  0  0
   -3.5618   -2.8419   -0.2222 H   0  0  0  0  0  0  0  0  0  0  0  0
   -1.9818   -2.0809    0.9918 C   0  0  0  0  0  0  0  0  0  0  0  0
   -1.1288   -2.6669    1.6468 O   0  0  0  0  0  0  0  0  0  0  0  0
   -1.7648   -0.9089    0.3998 N   0  0  0  0  0  0  0  0  0  0  0  0
   -2.5238   -0.4719   -0.1032 H   0  0  0  0  0  0  0  0  0  0  0  0
   -0.4848   -0.1959    0.4138 C   0  0  1  0  0  0  0  0  0  0  0  0
    0.2905   -0.8785    0.7657 H   0  0  0  0  0  0  0  0  0  0  0  0
   -0.1368    0.2280   -1.0265 C   0  0  0  0  0  0  0  0  0  0  0  0
   -0.9826    0.7857   -1.4340 H   0  0  0  0  0  0  0  0  0  0  0  0
    0.7295    0.8908   -1.0035 H   0  0  0  0  0  0  0  0  0  0  0  0
    0.1644   -0.9519   -1.9670 C   0  0  0  0  0  0  0  0  0  0  0  0
    1.0176   -1.5144   -1.5886 H   0  0  0  0  0  0  0  0  0  0  0  0
   -0.7027   -1.6117   -1.9957 H   0  0  0  0  0  0  0  0  0  0  0  0
    0.4836   -0.5150   -3.3967 C   0  0  0  0  0  0  0  0  0  0  0  0
    0.4292    0.6415   -3.7709 O   0  0  0  0  0  0  0  0  0  0  0  0
    0.8430   -1.4340   -4.2665 N   0  0  0  0  0  0  0  0  0  0  0  0
    1.0418   -1.0912   -5.1903 H   0  0  0  0  0  0  0  0  0  0  0  0
    0.9064   -2.3986   -4.0110 H   0  0  0  0  0  0  0  0  0  0  0  0
   -0.5429    0.9980    1.3792 C   0  0  0  0  0  0  0  0  0  0  0  0
   -0.5096    0.8138    2.5945 O   0  0  0  0  0  0  0  0  0  0  0  0
   -0.6406    2.2200    0.8400 N   0  0  0  0  0  0  0  0  0  0  0  0
   -0.6370    2.2945   -0.1647 H   0  0  0  0  0  0  0  0  0  0  0  0
   -0.7191    3.4529    1.6223 C   0  0  0  0  0  0  0  0  0  0  0  0
    0.1476    3.5239    2.2841 H   0  0  0  0  0  0  0  0  0  0  0  0
   -0.7388    4.3217    0.9626 H   0  0  0  0  0  0  0  0  0  0  0  0
   -1.6216    3.4434    2.2359 H   0  0  0  0  0  0  0  0  0  0  0  0
  5  6  2  0  0  0  0
  5  7  1  0  0  0  0
  2  3  1  0  0  0  0
  2  4  1  0  0  0  0
  2  5  1  0  0  0  0
  1  2  1  0  0  0  0
 22 23  2  0  0  0  0
 22 24  1  0  0  0  0
 19 20  1  0  0  0  0
 19 21  1  0  0  0  0
 17 18  2  0  0  0  0
 17 19  1  0  0  0  0
 14 15  1  0  0  0  0
 14 16  1  0  0  0  0
 14 17  1  0  0  0  0
 11 12  1  0  0  0  0
 11 13  1  0  0  0  0
 11 14  1  0  0  0  0
  9 10  1  0  0  0  0
  9 11  1  0  0  0  0
  9 22  1  0  0  0  0
  7  8  1  0  0  0  0
  7  9  1  0  0  0  0
 26 27  1  0  0  0  0
 26 28  1  0  0  0  0
 26 29  1  0  0  0  0
 24 25  1  0  0  0  0
 24 26  1  0  0  0  0
M  END
$$$$
default_name
  -OEChem-01062215323D

 29 28  0     1  0  0  0  0  0999 V2000
   -3.3998   -3.6239    1.3678 H   0  0  0  0  0  0  0  0  0  0  0  0
   -3.3608   -2.6749    0.8348 C   0  0  0  0  0  0  0  0  0  0  0  0
   -4.0988   -1.9909    1.2498 H   0  0  0  0  0  0  0  0  0  0  0  0
   -3.5618   -2.8419   -0.2222 H   0  0  0  0  0  0  0  0  0  0  0  0
   -1.9818   -2.0809    0.9918 C   0  0  0  0  0  0  0  0  0  0  0  0
   -1.1288   -2.6669    1.6468 O   0  0  0  0  0  0  0  0  0  0  0  0
   -1.7648   -0.9089    0.3998 N   0  0  0  0  0  0  0  0  0  0  0  0
   -2.5238   -0.4719   -0.1032 H   0  0  0  0  0  0  0  0  0  0  0  0
   -0.4848   -0.1959    0.4138 C   0  0  1  0  0  0  0  0  0  0  0  0
    0.2905   -0.8785    0.7657 H   0  0  0  0  0  0  0  0  0  0  0  0
   -0.1368    0.2280   -1.0265 C   0  0  0  0  0  0  0  0  0  0  0  0
   -0.9826    0.7857   -1.4340 H   0  0  0  0  0  0  0  0  0  0  0  0
    0.7295    0.8908   -1.0035 H   0  0  0  0  0  0  0  0  0  0  0  0
    0.1644   -0.9519   -1.9670 C   0  0  0  0  0  0  0  0  0  0  0  0
    1.0176   -1.5144   -1.5886 H   0  0  0  0  0  0  0  0  0  0  0  0
   -0.7027   -1.6117   -1.9957 H   0  0  0  0  0  0  0  0  0  0  0  0
    0.4836   -0.5150   -3.3967 C   0  0  0  0  0  0  0  0  0  0  0  0
    0.4292    0.6415   -3.7709 O   0  0  0  0  0  0  0  0  0  0  0  0
    0.8430   -1.4340   -4.2665 N   0  0  0  0  0  0  0  0  0  0  0  0
    1.0418   -1.0912   -5.1903 H   0  0  0  0  0  0  0  0  0  0  0  0
    0.9064   -2.3986   -4.0110 H   0  0  0  0  0  0  0  0  0  0  0  0
   -0.5429    0.9980    1.3792 C   0  0  0  0  0  0  0  0  0  0  0  0
   -0.2372    0.8538    2.5615 O   0  0  0  0  0  0  0  0  0  0  0  0
   -0.9452    2.1734    0.8793 N   0  0  0  0  0  0  0  0  0  0  0  0
   -1.1552    2.2210   -0.1050 H   0  0  0  0  0  0  0  0  0  0  0  0
   -1.0661    3.3977    1.6697 C   0  0  0  0  0  0  0  0  0  0  0  0
   -0.1079    3.6253    2.1434 H   0  0  0  0  0  0  0  0  0  0  0  0
   -1.3594    4.2342    1.0335 H   0  0  0  0  0  0  0  0  0  0  0  0
   -1.8134    3.2587    2.4527 H   0  0  0  0  0  0  0  0  0  0  0  0
  5  6  2  0  0  0  0
  5  7  1  0  0  0  0
  2  3  1  0  0  0  0
  2  4  1  0  0  0  0
  2  5  1  0  0  0  0
  1  2  1  0  0  0  0
 22 23  2  0  0  0  0
 22 24  1  0  0  0  0
 19 20  1  0  0  0  0
 19 21  1  0  0  0  0
 17 18  2  0  0  0  0
 17 19  1  0  0  0  0
 14 15  1  0  0  0  0
 14 16  1  0  0  0  0
 14 17  1  0  0  0  0
 11 12  1  0  0  0  0
 11 13  1  0  0  0  0
 11 14  1  0  0  0  0
  9 10  1  0  0  0  0
  9 11  1  0  0  0  0
  9 22  1  0  0  0  0
  7  8  1  0  0  0  0
  7  9  1  0  0  0  0
 26 27  1  0  0  0  0
 26 28  1  0  0  0  0
 26 29  1  0  0  0  0
 24 25  1  0  0  0  0
 24 26  1  0  0  0  0
M  END
$$$$
default_name
  -OEChem-01062215323D

 29 28  0     1  0  0  0  0  0999 V2000
   -3.3998   -3.6239    1.3678 H   0  0  0  0  0  0  0  0  0  0  0  0
   -3.3608   -2.6749    0.8348 C   0  0  0  0  0  0  0  0  0  0  0  0
   -4.0988   -1.9909    1.2498 H   0  0  0  0  0  0  0  0  0  0  0  0
   -3.5618   -2.8419   -0.2222 H   0  0  0  0  0  0  0  0  0  0  0  0
   -1.9818   -2.0809    0.9918 C   0  0  0  0  0  0  0  0  0  0  0  0
   -1.1288   -2.6669    1.6468 O   0  0  0  0  0  0  0  0  0  0  0  0
   -1.7648   -0.9089    0.3998 N   0  0  0  0  0  0  0  0  0  0  0  0
   -2.5238   -0.4719   -0.1032 H   0  0  0  0  0  0  0  0  0  0  0  0
   -0.4848   -0.1959    0.4138 C   0  0  1  0  0  0  0  0  0  0  0  0
    0.2905   -0.8785    0.7657 H   0  0  0  0  0  0  0  0  0  0  0  0
   -0.1368    0.2280   -1.0265 C   0  0  0  0  0  0  0  0  0  0  0  0
   -0.9826    0.7857   -1.4340 H   0  0  0  0  0  0  0  0  0  0  0  0
    0.7295    0.8908   -1.0035 H   0  0  0  0  0  0  0  0  0  0  0  0
    0.1644   -0.9519   -1.9670 C   0  0  0  0  0  0  0  0  0  0  0  0
    1.0176   -1.5144   -1.5886 H   0  0  0  0  0  0  0  0  0  0  0  0
   -0.7027   -1.6117   -1.9957 H   0  0  0  0  0  0  0  0  0  0  0  0
    0.4836   -0.5150   -3.3967 C   0  0  0  0  0  0  0  0  0  0  0  0
    0.4292    0.6415   -3.7709 O   0  0  0  0  0  0  0  0  0  0  0  0
    0.8430   -1.4340   -4.2665 N   0  0  0  0  0  0  0  0  0  0  0  0
    1.0418   -1.0912   -5.1903 H   0  0  0  0  0  0  0  0  0  0  0  0
    0.9064   -2.3986   -4.0110 H   0  0  0  0  0  0  0  0  0  0  0  0
   -0.5429    0.9980    1.3792 C   0  0  0  0  0  0  0  0  0  0  0  0
    0.0128    0.9364    2.4744 O   0  0  0  0  0  0  0  0  0  0  0  0
   -1.2240    2.0793    0.9789 N   0  0  0  0  0  0  0  0  0  0  0  0
   -1.6318    2.0663    0.0576 H   0  0  0  0  0  0  0  0  0  0  0  0
   -1.3828    3.2884    1.7858 C   0  0  0  0  0  0  0  0  0  0  0  0
   -0.3996    3.6803    2.0578 H   0  0  0  0  0  0  0  0  0  0  0  0
   -1.9304    4.0494    1.2277 H   0  0  0  0  0  0  0  0  0  0  0  0
   -1.9251    3.0512    2.7026 H   0  0  0  0  0  0  0  0  0  0  0  0
  5  6  2  0  0  0  0
  5  7  1  0  0  0  0
  2  3  1  0  0  0  0
  2  4  1  0  0  0  0
  2  5  1  0  0  0  0
  1  2  1  0  0  0  0
 22 23  2  0  0  0  0
 22 24  1  0  0  0  0
 19 20  1  0  0  0  0
 19 21  1  0  0  0  0
 17 18  2  0  0  0  0
 17 19  1  0  0  0  0
 14 15  1  0  0  0  0
 14 16  1  0  0  0  0
 14 17  1  0  0  0  0
 11 12  1  0  0  0  0
 11 13  1  0  0  0  0
 11 14  1  0  0  0  0
  9 10  1  0  0  0  0
  9 11  1  0  0  0  0
  9 22  1  0  0  0  0
  7  8  1  0  0  0  0
  7  9  1  0  0  0  0
 26 27  1  0  0  0  0
 26 28  1  0  0  0  0
 26 29  1  0  0  0  0
 24 25  1  0  0  0  0
 24 26  1  0  0  0  0
M  END
$$$$
default_name
  -OEChem-01062215323D

 29 28  0     1  0  0  0  0  0999 V2000
   -3.3998   -3.6239    1.3678 H   0  0  0  0  0  0  0  0  0  0  0  0
   -3.3608   -2.6749    0.8348 C   0  0  0  0  0  0  0  0  0  0  0  0
   -4.0988   -1.9909    1.2498 H   0  0  0  0  0  0  0  0  0  0  0  0
   -3.5618   -2.8419   -0.2222 H   0  0  0  0  0  0  0  0  0  0  0  0
   -1.9818   -2.0809    0.9918 C   0  0  0  0  0  0  0  0  0  0  0  0
   -1.1288   -2.6669    1.6468 O   0  0  0  0  0  0  0  0  0  0  0  0
   -1.7648   -0.9089    0.3998 N   0  0  0  0  0  0  0  0  0  0  0  0
   -2.5238   -0.4719   -0.1032 H   0  0  0  0  0  0  0  0  0  0  0  0
   -0.4848   -0.1959    0.4138 C   0  0  1  0  0  0  0  0  0  0  0  0
    0.2905   -0.8785    0.7657 H   0  0  0  0  0  0  0  0  0  0  0  0
   -0.1368    0.2280   -1.0265 C   0  0  0  0  0  0  0  0  0  0  0  0
   -0.9826    0.7857   -1.4340 H   0  0  0  0  0  0  0  0  0  0  0  0
    0.7295    0.8908   -1.0035 H   0  0  0  0  0  0  0  0  0  0  0  0
    0.1644   -0.9519   -1.9670 C   0  0  0  0  0  0  0  0  0  0  0  0
    1.0176   -1.5144   -1.5886 H   0  0  0  0  0  0  0  0  0  0  0  0
   -0.7027   -1.6117   -1.9957 H   0  0  0  0  0  0  0  0  0  0  0  0
    0.4836   -0.5150   -3.3967 C   0  0  0  0  0  0  0  0  0  0  0  0
    0.4292    0.6415   -3.7709 O   0  0  0  0  0  0  0  0  0  0  0  0
    0.8430   -1.4340   -4.2665 N   0  0  0  0  0  0  0  0  0  0  0  0
    1.0418   -1.0912   -5.1903 H   0  0  0  0  0  0  0  0  0  0  0  0
    0.9064   -2.3986   -4.0110 H   0  0  0  0  0  0  0  0  0  0  0  0
   -0.5429    0.9980    1.3792 C   0  0  0  0  0  0  0  0  0  0  0  0
    0.2234    1.0560    2.3392 O   0  0  0  0  0  0  0  0  0  0  0  0
   -1.4580    1.9440    1.1320 N   0  0  0  0  0  0  0  0  0  0  0  0
   -2.0342    1.8409    0.3121 H   0  0  0  0  0  0  0  0  0  0  0  0
   -1.6475    3.1325    1.9627 C   0  0  0  0  0  0  0  0  0  0  0  0
   -0.7074    3.6852    2.0332 H   0  0  0  0  0  0  0  0  0  0  0  0
   -2.4128    3.7799    1.5319 H   0  0  0  0  0  0  0  0  0  0  0  0
   -1.9489    2.8350    2.9685 H   0  0  0  0  0  0  0  0  0  0  0  0
  5  6  2  0  0  0  0
  5  7  1  0  0  0  0
  2  3  1  0  0  0  0
  2  4  1  0  0  0  0
  2  5  1  0  0  0  0
  1  2  1  0  0  0  0
 22 23  2  0  0  0  0
 22 24  1  0  0  0  0
 19 20  1  0  0  0  0
 19 21  1  0  0  0  0
 17 18  2  0  0  0  0
 17 19  1  0  0  0  0
 14 15  1  0  0  0  0
 14 16  1  0  0  0  0
 14 17  1  0  0  0  0
 11 12  1  0  0  0  0
 11 13  1  0  0  0  0
 11 14  1  0  0  0  0
  9 10  1  0  0  0  0
  9 11  1  0  0  0  0
  9 22  1  0  0  0  0
  7  8  1  0  0  0  0
  7  9  1  0  0  0  0
 26 27  1  0  0  0  0
 26 28  1  0  0  0  0
 26 29  1  0  0  0  0
 24 25  1  0  0  0  0
 24 26  1  0  0  0  0
M  END
$$$$
default_name
  -OEChem-01062215323D

 29 28  0     1  0  0  0  0  0999 V2000
   -3.3998   -3.6239    1.3678 H   0  0  0  0  0  0  0  0  0  0  0  0
   -3.3608   -2.6749    0.8348 C   0  0  0  0  0  0  0  0  0  0  0  0
   -4.0988   -1.9909    1.2498 H   0  0  0  0  0  0  0  0  0  0  0  0
   -3.5618   -2.8419   -0.2222 H   0  0  0  0  0  0  0  0  0  0  0  0
   -1.9818   -2.0809    0.9918 C   0  0  0  0  0  0  0  0  0  0  0  0
   -1.1288   -2.6669    1.6468 O   0  0  0  0  0  0  0  0  0  0  0  0
   -1.7648   -0.9089    0.3998 N   0  0  0  0  0  0  0  0  0  0  0  0
   -2.5238   -0.4719   -0.1032 H   0  0  0  0  0  0  0  0  0  0  0  0
   -0.4848   -0.1959    0.4138 C   0  0  1  0  0  0  0  0  0  0  0  0
    0.2905   -0.8785    0.7657 H   0  0  0  0  0  0  0  0  0  0  0  0
   -0.1368    0.2280   -1.0265 C   0  0  0  0  0  0  0  0  0  0  0  0
   -0.9826    0.7857   -1.4340 H   0  0  0  0  0  0  0  0  0  0  0  0
    0.7295    0.8908   -1.0035 H   0  0  0  0  0  0  0  0  0  0  0  0
    0.1644   -0.9519   -1.9670 C   0  0  0  0  0  0  0  0  0  0  0  0
    1.0176   -1.5144   -1.5886 H   0  0  0  0  0  0  0  0  0  0  0  0
   -0.7027   -1.6117   -1.9957 H   0  0  0  0  0  0  0  0  0  0  0  0
    0.4836   -0.5150   -3.3967 C   0  0  0  0  0  0  0  0  0  0  0  0
    0.4292    0.6415   -3.7709 O   0  0  0  0  0  0  0  0  0  0  0  0
    0.8430   -1.4340   -4.2665 N   0  0  0  0  0  0  0  0  0  0  0  0
    1.0418   -1.0912   -5.1903 H   0  0  0  0  0  0  0  0  0  0  0  0
    0.9064   -2.3986   -4.0110 H   0  0  0  0  0  0  0  0  0  0  0  0
   -0.5429    0.9980    1.3792 C   0  0  0  0  0  0  0  0  0  0  0  0
    0.3801    1.2044    2.1651 O   0  0  0  0  0  0  0  0  0  0  0  0
   -1.6311    1.7768    1.3284 N   0  0  0  0  0  0  0  0  0  0  0  0
   -2.3352    1.5603    0.6410 H   0  0  0  0  0  0  0  0  0  0  0  0
   -1.8423    2.9406    2.1883 C   0  0  0  0  0  0  0  0  0  0  0  0
   -1.0105    3.6396    2.0713 H   0  0  0  0  0  0  0  0  0  0  0  0
   -2.7738    3.4442    1.9254 H   0  0  0  0  0  0  0  0  0  0  0  0
   -1.8833    2.6250    3.2322 H   0  0  0  0  0  0  0  0  0  0  0  0
  5  6  2  0  0  0  0
  5  7  1  0  0  0  0
  2  3  1  0  0  0  0
  2  4  1  0  0  0  0
  2  5  1  0  0  0  0
  1  2  1  0  0  0  0
 22 23  2  0  0  0  0
 22 24  1  0  0  0  0
 19 20  1  0  0  0  0
 19 21  1  0  0  0  0
 17 18  2  0  0  0  0
 17 19  1  0  0  0  0
 14 15  1  0  0  0  0
 14 16  1  0  0  0  0
 14 17  1  0  0  0  0
 11 12  1  0  0  0  0
 11 13  1  0  0  0  0
 11 14  1  0  0  0  0
  9 10  1  0  0  0  0
  9 11  1  0  0  0  0
  9 22  1  0  0  0  0
  7  8  1  0  0  0  0
  7  9  1  0  0  0  0
 26 27  1  0  0  0  0
 26 28  1  0  0  0  0
 26 29  1  0  0  0  0
 24 25  1  0  0  0  0
 24 26  1  0  0  0  0
M  END
$$$$
default_name
  -OEChem-01062215323D

 29 28  0     1  0  0  0  0  0999 V2000
   -3.3998   -3.6239    1.3678 H   0  0  0  0  0  0  0  0  0  0  0  0
   -3.3608   -2.6749    0.8348 C   0  0  0  0  0  0  0  0  0  0  0  0
   -4.0988   -1.9909    1.2498 H   0  0  0  0  0  0  0  0  0  0  0  0
   -3.5618   -2.8419   -0.2222 H   0  0  0  0  0  0  0  0  0  0  0  0
   -1.9818   -2.0809    0.9918 C   0  0  0  0  0  0  0  0  0  0  0  0
   -1.1288   -2.6669    1.6468 O   0  0  0  0  0  0  0  0  0  0  0  0
   -1.7648   -0.9089    0.3998 N   0  0  0  0  0  0  0  0  0  0  0  0
   -2.5238   -0.4719   -0.1032 H   0  0  0  0  0  0  0  0  0  0  0  0
   -0.4848   -0.1959    0.4138 C   0  0  1  0  0  0  0  0  0  0  0  0
    0.2905   -0.8785    0.7657 H   0  0  0  0  0  0  0  0  0  0  0  0
   -0.1368    0.2280   -1.0265 C   0  0  0  0  0  0  0  0  0  0  0  0
   -0.9826    0.7857   -1.4340 H   0  0  0  0  0  0  0  0  0  0  0  0
    0.7295    0.8908   -1.0035 H   0  0  0  0  0  0  0  0  0  0  0  0
    0.1644   -0.9519   -1.9670 C   0  0  0  0  0  0  0  0  0  0  0  0
    1.0176   -1.5144   -1.5886 H   0  0  0  0  0  0  0  0  0  0  0  0
   -0.7027   -1.6117   -1.9957 H   0  0  0  0  0  0  0  0  0  0  0  0
    0.4836   -0.5150   -3.3967 C   0  0  0  0  0  0  0  0  0  0  0  0
    0.4292    0.6415   -3.7709 O   0  0  0  0  0  0  0  0  0  0  0  0
    0.8430   -1.4340   -4.2665 N   0  0  0  0  0  0  0  0  0  0  0  0
    1.0418   -1.0912   -5.1903 H   0  0  0  0  0  0  0  0  0  0  0  0
    0.9064   -2.3986   -4.0110 H   0  0  0  0  0  0  0  0  0  0  0  0
   -0.5429    0.9980    1.3792 C   0  0  0  0  0  0  0  0  0  0  0  0
    0.4723    1.3715    1.9639 O   0  0  0  0  0  0  0  0  0  0  0  0
   -1.7317    1.5891    1.5545 N   0  0  0  0  0  0  0  0  0  0  0  0
   -2.5141    1.2436    1.0219 H   0  0  0  0  0  0  0  0  0  0  0  0
   -1.9539    2.7257    2.4473 C   0  0  0  0  0  0  0  0  0  0  0  0
   -1.2882    3.5466    2.1696 H   0  0  0  0  0  0  0  0  0  0  0  0
   -2.9888    3.0650    2.3813 H   0  0  0  0  0  0  0  0  0  0  0  0
   -1.7328    2.4354    3.4758 H   0  0  0  0  0  0  0  0  0  0  0  0
  5  6  2  0  0  0  0
  5  7  1  0  0  0  0
  2  3  1  0  0  0  0
  2  4  1  0  0  0  0
  2  5  1  0  0  0  0
  1  2  1  0  0  0  0
 22 23  2  0  0  0  0
 22 24  1  0  0  0  0
 19 20  1  0  0  0  0
 19 21  1  0  0  0  0
 17 18  2  0  0  0  0
 17 19  1  0  0  0  0
 14 15  1  0  0  0  0
 14 16  1  0  0  0  0
 14 17  1  0  0  0  0
 11 12  1  0  0  0  0
 11 13  1  0  0  0  0
 11 14  1  0  0  0  0
  9 10  1  0  0  0  0
  9 11  1  0  0  0  0
  9 22  1  0  0  0  0
  7  8  1  0  0  0  0
  7  9  1  0  0  0  0
 26 27  1  0  0  0  0
 26 28  1  0  0  0  0
 26 29  1  0  0  0  0
 24 25  1  0  0  0  0
 24 26  1  0  0  0  0
M  END
$$$$
default_name
  -OEChem-01062215323D

 29 28  0     1  0  0  0  0  0999 V2000
   -3.3998   -3.6239    1.3678 H   0  0  0  0  0  0  0  0  0  0  0  0
   -3.3608   -2.6749    0.8348 C   0  0  0  0  0  0  0  0  0  0  0  0
   -4.0988   -1.9909    1.2498 H   0  0  0  0  0  0  0  0  0  0  0  0
   -3.5618   -2.8419   -0.2222 H   0  0  0  0  0  0  0  0  0  0  0  0
   -1.9818   -2.0809    0.9918 C   0  0  0  0  0  0  0  0  0  0  0  0
   -1.1288   -2.6669    1.6468 O   0  0  0  0  0  0  0  0  0  0  0  0
   -1.7648   -0.9089    0.3998 N   0  0  0  0  0  0  0  0  0  0  0  0
   -2.5238   -0.4719   -0.1032 H   0  0  0  0  0  0  0  0  0  0  0  0
   -0.4848   -0.1959    0.4138 C   0  0  1  0  0  0  0  0  0  0  0  0
    0.2905   -0.8785    0.7657 H   0  0  0  0  0  0  0  0  0  0  0  0
   -0.1368    0.2280   -1.0265 C   0  0  0  0  0  0  0  0  0  0  0  0
   -0.9826    0.7857   -1.4340 H   0  0  0  0  0  0  0  0  0  0  0  0
    0.7295    0.8908   -1.0035 H   0  0  0  0  0  0  0  0  0  0  0  0
    0.1644   -0.9519   -1.9670 C   0  0  0  0  0  0  0  0  0  0  0  0
    1.0176   -1.5144   -1.5886 H   0  0  0  0  0  0  0  0  0  0  0  0
   -0.7027   -1.6117   -1.9957 H   0  0  0  0  0  0  0  0  0  0  0  0
    0.4836   -0.5150   -3.3967 C   0  0  0  0  0  0  0  0  0  0  0  0
    0.4292    0.6415   -3.7709 O   0  0  0  0  0  0  0  0  0  0  0  0
    0.8430   -1.4340   -4.2665 N   0  0  0  0  0  0  0  0  0  0  0  0
    1.0418   -1.0912   -5.1903 H   0  0  0  0  0  0  0  0  0  0  0  0
    0.9064   -2.3986   -4.0110 H   0  0  0  0  0  0  0  0  0  0  0  0
   -0.5429    0.9980    1.3792 C   0  0  0  0  0  0  0  0  0  0  0  0
    0.4938    1.5460    1.7494 O   0  0  0  0  0  0  0  0  0  0  0  0
   -1.7529    1.3936    1.7950 N   0  0  0  0  0  0  0  0  0  0  0  0
   -2.5587    0.9122    1.4290 H   0  0  0  0  0  0  0  0  0  0  0  0
   -1.9747    2.5026    2.7220 C   0  0  0  0  0  0  0  0  0  0  0  0
   -1.5216    3.4127    2.3212 H   0  0  0  0  0  0  0  0  0  0  0  0
   -3.0430    2.6683    2.8687 H   0  0  0  0  0  0  0  0  0  0  0  0
   -1.5075    2.2790    3.6826 H   0  0  0  0  0  0  0  0  0  0  0  0
  5  6  2  0  0  0  0
  5  7  1  0  0  0  0
  2  3  1  0  0  0  0
  2  4  1  0  0  0  0
  2  5  1  0  0  0  0
  1  2  1  0  0  0  0
 22 23  2  0  0  0  0
 22 24  1  0  0  0  0
 19 20  1  0  0  0  0
 19 21  1  0  0  0  0
 17 18  2  0  0  0  0
 17 19  1  0  0  0  0
 14 15  1  0  0  0  0
 14 16  1  0  0  0  0
 14 17  1  0  0  0  0
 11 12  1  0  0  0  0
 11 13  1  0  0  0  0
 11 14  1  0  0  0  0
  9 10  1  0  0  0  0
  9 11  1  0  0  0  0
  9 22  1  0  0  0  0
  7  8  1  0  0  0  0
  7  9  1  0  0  0  0
 26 27  1  0  0  0  0
 26 28  1  0  0  0  0
 26 29  1  0  0  0  0
 24 25  1  0  0  0  0
 24 26  1  0  0  0  0
M  END
$$$$
default_name
  -OEChem-01062215323D

 29 28  0     1  0  0  0  0  0999 V2000
   -3.3998   -3.6239    1.3678 H   0  0  0  0  0  0  0  0  0  0  0  0
   -3.3608   -2.6749    0.8348 C   0  0  0  0  0  0  0  0  0  0  0  0
   -4.0988   -1.9909    1.2498 H   0  0  0  0  0  0  0  0  0  0  0  0
   -3.5618   -2.8419   -0.2222 H   0  0  0  0  0  0  0  0  0  0  0  0
   -1.9818   -2.0809    0.9918 C   0  0  0  0  0  0  0  0  0  0  0  0
   -1.1288   -2.6669    1.6468 O   0  0  0  0  0  0  0  0  0  0  0  0
   -1.7648   -0.9089    0.3998 N   0  0  0  0  0  0  0  0  0  0  0  0
   -2.5238   -0.4719   -0.1032 H   0  0  0  0  0  0  0  0  0  0  0  0
   -0.4848   -0.1959    0.4138 C   0  0  1  0  0  0  0  0  0  0  0  0
    0.2905   -0.8785    0.7657 H   0  0  0  0  0  0  0  0  0  0  0  0
   -0.1368    0.2280   -1.0265 C   0  0  0  0  0  0  0  0  0  0  0  0
   -0.9826    0.7857   -1.4340 H   0  0  0  0  0  0  0  0  0  0  0  0
    0.7295    0.8908   -1.0035 H   0  0  0  0  0  0  0  0  0  0  0  0
    0.1644   -0.9519   -1.9670 C   0  0  0  0  0  0  0  0  0  0  0  0
    1.0176   -1.5144   -1.5886 H   0  0  0  0  0  0  0  0  0  0  0  0
   -0.7027   -1.6117   -1.9957 H   0  0  0  0  0  0  0  0  0  0  0  0
    0.4836   -0.5150   -3.3967 C   0  0  0  0  0  0  0  0  0  0  0  0
    0.4292    0.6415   -3.7709 O   0  0  0  0  0  0  0  0  0  0  0  0
    0.8430   -1.4340   -4.2665 N   0  0  0  0  0  0  0  0  0  0  0  0
    1.0418   -1.0912   -5.1903 H   0  0  0  0  0  0  0  0  0  0  0  0
    0.9064   -2.3986   -4.0110 H   0  0  0  0  0  0  0  0  0  0  0  0
   -0.5429    0.9980    1.3792 C   0  0  0  0  0  0  0  0  0  0  0  0
    0.4430    1.7160    1.5362 O   0  0  0  0  0  0  0  0  0  0  0  0
   -1.6932    1.2037    2.0335 N   0  0  0  0  0  0  0  0  0  0  0  0
   -2.4661    0.5889    1.8344 H   0  0  0  0  0  0  0  0  0  0  0  0
   -1.9032    2.2863    2.9937 C   0  0  0  0  0  0  0  0  0  0  0  0
   -1.6947    3.2468    2.5159 H   0  0  0  0  0  0  0  0  0  0  0  0
   -2.9329    2.2810    3.3542 H   0  0  0  0  0  0  0  0  0  0  0  0
   -1.2229    2.1667    3.8387 H   0  0  0  0  0  0  0  0  0  0  0  0
  5  6  2  0  0  0  0
  5  7  1  0  0  0  0
  2  3  1  0  0  0  0
  2  4  1  0  0  0  0
  2  5  1  0  0  0  0
  1  2  1  0  0  0  0
 22 23  2  0  0  0  0
 22 24  1  0  0  0  0
 19 20  1  0  0  0  0
 19 21  1  0  0  0  0
 17 18  2  0  0  0  0
 17 19  1  0  0  0  0
 14 15  1  0  0  0  0
 14 16  1  0  0  0  0
 14 17  1  0  0  0  0
 11 12  1  0  0  0  0
 11 13  1  0  0  0  0
 11 14  1  0  0  0  0
  9 10  1  0  0  0  0
  9 11  1  0  0  0  0
  9 22  1  0  0  0  0
  7  8  1  0  0  0  0
  7  9  1  0  0  0  0
 26 27  1  0  0  0  0
 26 28  1  0  0  0  0
 26 29  1  0  0  0  0
 24 25  1  0  0  0  0
 24 26  1  0  0  0  0
M  END
$$$$
default_name
  -OEChem-01062215323D

 29 28  0     1  0  0  0  0  0999 V2000
   -3.3998   -3.6239    1.3678 H   0  0  0  0  0  0  0  0  0  0  0  0
   -3.3608   -2.6749    0.8348 C   0  0  0  0  0  0  0  0  0  0  0  0
   -4.0988   -1.9909    1.2498 H   0  0  0  0  0  0  0  0  0  0  0  0
   -3.5618   -2.8419   -0.2222 H   0  0  0  0  0  0  0  0  0  0  0  0
   -1.9818   -2.0809    0.9918 C   0  0  0  0  0  0  0  0  0  0  0  0
   -1.1288   -2.6669    1.6468 O   0  0  0  0  0  0  0  0  0  0  0  0
   -1.7648   -0.9089    0.3998 N   0  0  0  0  0  0  0  0  0  0  0  0
   -2.5238   -0.4719   -0.1032 H   0  0  0  0  0  0  0  0  0  0  0  0
   -0.4848   -0.1959    0.4138 C   0  0  1  0  0  0  0  0  0  0  0  0
    0.2905   -0.8785    0.7657 H   0  0  0  0  0  0  0  0  0  0  0  0
   -0.1368    0.2280   -1.0265 C   0  0  0  0  0  0  0  0  0  0  0  0
   -0.9826    0.7857   -1.4340 H   0  0  0  0  0  0  0  0  0  0  0  0
    0.7295    0.8908   -1.0035 H   0  0  0  0  0  0  0  0  0  0  0  0
    0.1644   -0.9519   -1.9670 C   0  0  0  0  0  0  0  0  0  0  0  0
    1.0176   -1.5144   -1.5886 H   0  0  0  0  0  0  0  0  0  0  0  0
   -0.7027   -1.6117   -1.9957 H   0  0  0  0  0  0  0  0  0  0  0  0
    0.4836   -0.5150   -3.3967 C   0  0  0  0  0  0  0  0  0  0  0  0
    0.4292    0.6415   -3.7709 O   0  0  0  0  0  0  0  0  0  0  0  0
    0.8430   -1.4340   -4.2665 N   0  0  0  0  0  0  0  0  0  0  0  0
    1.0418   -1.0912   -5.1903 H   0  0  0  0  0  0  0  0  0  0  0  0
    0.9064   -2.3986   -4.0110 H   0  0  0  0  0  0  0  0  0  0  0  0
   -0.5429    0.9980    1.3792 C   0  0  0  0  0  0  0  0  0  0  0  0
    0.3234    1.8697    1.3388 O   0  0  0  0  0  0  0  0  0  0  0  0
   -1.5566    1.0323    2.2536 N   0  0  0  0  0  0  0  0  0  0  0  0
   -2.2426    0.2956    2.2106 H   0  0  0  0  0  0  0  0  0  0  0  0
   -1.7443    2.0918    3.2439 C   0  0  0  0  0  0  0  0  0  0  0  0
   -1.7957    3.0603    2.7404 H   0  0  0  0  0  0  0  0  0  0  0  0
   -2.6659    1.9296    3.8049 H   0  0  0  0  0  0  0  0  0  0  0  0
   -0.8984    2.1060    3.9333 H   0  0  0  0  0  0  0  0  0  0  0  0
  5  6  2  0  0  0  0
  5  7  1  0  0  0  0
  2  3  1  0  0  0  0
  2  4  1  0  0  0  0
  2  5  1  0  0  0  0
  1  2  1  0  0  0  0
 22 23  2  0  0  0  0
 22 24  1  0  0  0  0
 19 20  1  0  0  0  0
 19 21  1  0  0  0  0
 17 18  2  0  0  0  0
 17 19  1  0  0  0  0
 14 15  1  0  0  0  0
 14 16  1  0  0  0  0
 14 17  1  0  0  0  0
 11 12  1  0  0  0  0
 11 13  1  0  0  0  0
 11 14  1  0  0  0  0
  9 10  1  0  0  0  0
  9 11  1  0  0  0  0
  9 22  1  0  0  0  0
  7  8  1  0  0  0  0
  7  9  1  0  0  0  0
 26 27  1  0  0  0  0
 26 28  1  0  0  0  0
 26 29  1  0  0  0  0
 24 25  1  0  0  0  0
 24 26  1  0  0  0  0
M  END
$$$$
default_name
  -OEChem-01062215323D

 29 28  0     1  0  0  0  0  0999 V2000
   -3.3998   -3.6239    1.3678 H   0  0  0  0  0  0  0  0  0  0  0  0
   -3.3608   -2.6749    0.8348 C   0  0  0  0  0  0  0  0  0  0  0  0
   -4.0988   -1.9909    1.2498 H   0  0  0  0  0  0  0  0  0  0  0  0
   -3.5618   -2.8419   -0.2222 H   0  0  0  0  0  0  0  0  0  0  0  0
   -1.9818   -2.0809    0.9918 C   0  0  0  0  0  0  0  0  0  0  0  0
   -1.1288   -2.6669    1.6468 O   0  0  0  0  0  0  0  0  0  0  0  0
   -1.7648   -0.9089    0.3998 N   0  0  0  0  0  0  0  0  0  0  0  0
   -2.5238   -0.4719   -0.1032 H   0  0  0  0  0  0  0  0  0  0  0  0
   -0.4848   -0.1959    0.4138 C   0  0  1  0  0  0  0  0  0  0  0  0
    0.2905   -0.8785    0.7657 H   0  0  0  0  0  0  0  0  0  0  0  0
   -0.1368    0.2280   -1.0265 C   0  0  0  0  0  0  0  0  0  0  0  0
   -0.9826    0.7857   -1.4340 H   0  0  0  0  0  0  0  0  0  0  0  0
    0.7295    0.8908   -1.0035 H   0  0  0  0  0  0  0  0  0  0  0  0
    0.1644   -0.9519   -1.9670 C   0  0  0  0  0  0  0  0  0  0  0  0
    1.0176   -1.5144   -1.5886 H   0  0  0  0  0  0  0  0  0  0  0  0
   -0.7027   -1.6117   -1.9957 H   0  0  0  0  0  0  0  0  0  0  0  0
    0.4836   -0.5150   -3.3967 C   0  0  0  0  0  0  0  0  0  0  0  0
    0.4292    0.6415   -3.7709 O   0  0  0  0  0  0  0  0  0  0  0  0
    0.8430   -1.4340   -4.2665 N   0  0  0  0  0  0  0  0  0  0  0  0
    1.0418   -1.0912   -5.1903 H   0  0  0  0  0  0  0  0  0  0  0  0
    0.9064   -2.3986   -4.0110 H   0  0  0  0  0  0  0  0  0  0  0  0
   -0.5429    0.9980    1.3792 C   0  0  0  0  0  0  0  0  0  0  0  0
    0.1432    1.9969    1.1707 O   0  0  0  0  0  0  0  0  0  0  0  0
   -1.3526    0.8911    2.4405 N   0  0  0  0  0  0  0  0  0  0  0  0
   -1.9033    0.0523    2.5319 H   0  0  0  0  0  0  0  0  0  0  0  0
   -1.5089    1.9321    3.4555 C   0  0  0  0  0  0  0  0  0  0  0  0
   -1.8179    2.8659    2.9795 H   0  0  0  0  0  0  0  0  0  0  0  0
   -2.2603    1.6380    4.1899 H   0  0  0  0  0  0  0  0  0  0  0  0
   -0.5560    2.1011    3.9600 H   0  0  0  0  0  0  0  0  0  0  0  0
  5  6  2  0  0  0  0
  5  7  1  0  0  0  0
  2  3  1  0  0  0  0
  2  4  1  0  0  0  0
  2  5  1  0  0  0  0
  1  2  1  0  0  0  0
 22 23  2  0  0  0  0
 22 24  1  0  0  0  0
 19 20  1  0  0  0  0
 19 21  1  0  0  0  0
 17 18  2  0  0  0  0
 17 19  1  0  0  0  0
 14 15  1  0  0  0  0
 14 16  1  0  0  0  0
 14 17  1  0  0  0  0
 11 12  1  0  0  0  0
 11 13  1  0  0  0  0
 11 14  1  0  0  0  0
  9 10  1  0  0  0  0
  9 11  1  0  0  0  0
  9 22  1  0  0  0  0
  7  8  1  0  0  0  0
  7  9  1  0  0  0  0
 26 27  1  0  0  0  0
 26 28  1  0  0  0  0
 26 29  1  0  0  0  0
 24 25  1  0  0  0  0
 24 26  1  0  0  0  0
M  END
$$$$
default_name
  -OEChem-01062215323D

 29 28  0     1  0  0  0  0  0999 V2000
   -3.3998   -3.6239    1.3678 H   0  0  0  0  0  0  0  0  0  0  0  0
   -3.3608   -2.6749    0.8348 C   0  0  0  0  0  0  0  0  0  0  0  0
   -4.0988   -1.9909    1.2498 H   0  0  0  0  0  0  0  0  0  0  0  0
   -3.5618   -2.8419   -0.2222 H   0  0  0  0  0  0  0  0  0  0  0  0
   -1.9818   -2.0809    0.9918 C   0  0  0  0  0  0  0  0  0  0  0  0
   -1.1288   -2.6669    1.6468 O   0  0  0  0  0  0  0  0  0  0  0  0
   -1.7648   -0.9089    0.3998 N   0  0  0  0  0  0  0  0  0  0  0  0
   -2.5238   -0.4719   -0.1032 H   0  0  0  0  0  0  0  0  0  0  0  0
   -0.4848   -0.1959    0.4138 C   0  0  1  0  0  0  0  0  0  0  0  0
    0.2905   -0.8785    0.7657 H   0  0  0  0  0  0  0  0  0  0  0  0
   -0.1368    0.2280   -1.0265 C   0  0  0  0  0  0  0  0  0  0  0  0
   -0.9826    0.7857   -1.4340 H   0  0  0  0  0  0  0  0  0  0  0  0
    0.7295    0.8908   -1.0035 H   0  0  0  0  0  0  0  0  0  0  0  0
    0.1644   -0.9519   -1.9670 C   0  0  0  0  0  0  0  0  0  0  0  0
    1.0176   -1.5144   -1.5886 H   0  0  0  0  0  0  0  0  0  0  0  0
   -0.7027   -1.6117   -1.9957 H   0  0  0  0  0  0  0  0  0  0  0  0
    0.4836   -0.5150   -3.3967 C   0  0  0  0  0  0  0  0  0  0  0  0
    0.4292    0.6415   -3.7709 O   0  0  0  0  0  0  0  0  0  0  0  0
    0.8430   -1.4340   -4.2665 N   0  0  0  0  0  0  0  0  0  0  0  0
    1.0418   -1.0912   -5.1903 H   0  0  0  0  0  0  0  0  0  0  0  0
    0.9064   -2.3986   -4.0110 H   0  0  0  0  0  0  0  0  0  0  0  0
   -0.5429    0.9980    1.3792 C   0  0  0  0  0  0  0  0  0  0  0  0
   -0.0854    2.0888    1.0433 O   0  0  0  0  0  0  0  0  0  0  0  0
   -1.0950    0.7897    2.5814 N   0  0  0  0  0  0  0  0  0  0  0  0
   -1.4714   -0.1243    2.7763 H   0  0  0  0  0  0  0  0  0  0  0  0
   -1.2130    1.8182    3.6142 C   0  0  0  0  0  0  0  0  0  0  0  0
   -1.7596    2.6769    3.2167 H   0  0  0  0  0  0  0  0  0  0  0  0
   -1.7436    1.4261    4.4831 H   0  0  0  0  0  0  0  0  0  0  0  0
   -0.2191    2.1523    3.9170 H   0  0  0  0  0  0  0  0  0  0  0  0
  5  6  2  0  0  0  0
  5  7  1  0  0  0  0
  2  3  1  0  0  0  0
  2  4  1  0  0  0  0
  2  5  1  0  0  0  0
  1  2  1  0  0  0  0
 22 23  2  0  0  0  0
 22 24  1  0  0  0  0
 19 20  1  0  0  0  0
 19 21  1  0  0  0  0
 17 18  2  0  0  0  0
 17 19  1  0  0  0  0
 14 15  1  0  0  0  0
 14 16  1  0  0  0  0
 14 17  1  0  0  0  0
 11 12  1  0  0  0  0
 11 13  1  0  0  0  0
 11 14  1  0  0  0  0
  9 10  1  0  0  0  0
  9 11  1  0  0  0  0
  9 22  1  0  0  0  0
  7  8  1  0  0  0  0
  7  9  1  0  0  0  0
 26 27  1  0  0  0  0
 26 28  1  0  0  0  0
 26 29  1  0  0  0  0
 24 25  1  0  0  0  0
 24 26  1  0  0  0  0
M  END
$$$$
default_name
  -OEChem-01062215323D

 29 28  0     1  0  0  0  0  0999 V2000
   -3.3998   -3.6239    1.3678 H   0  0  0  0  0  0  0  0  0  0  0  0
   -3.3608   -2.6749    0.8348 C   0  0  0  0  0  0  0  0  0  0  0  0
   -4.0988   -1.9909    1.2498 H   0  0  0  0  0  0  0  0  0  0  0  0
   -3.5618   -2.8419   -0.2222 H   0  0  0  0  0  0  0  0  0  0  0  0
   -1.9818   -2.0809    0.9918 C   0  0  0  0  0  0  0  0  0  0  0  0
   -1.1288   -2.6669    1.6468 O   0  0  0  0  0  0  0  0  0  0  0  0
   -1.7648   -0.9089    0.3998 N   0  0  0  0  0  0  0  0  0  0  0  0
   -2.5238   -0.4719   -0.1032 H   0  0  0  0  0  0  0  0  0  0  0  0
   -0.4848   -0.1959    0.4138 C   0  0  1  0  0  0  0  0  0  0  0  0
    0.2905   -0.8785    0.7657 H   0  0  0  0  0  0  0  0  0  0  0  0
   -0.1368    0.2280   -1.0265 C   0  0  0  0  0  0  0  0  0  0  0  0
   -0.9826    0.7857   -1.4340 H   0  0  0  0  0  0  0  0  0  0  0  0
    0.7295    0.8908   -1.0035 H   0  0  0  0  0  0  0  0  0  0  0  0
    0.1644   -0.9519   -1.9670 C   0  0  0  0  0  0  0  0  0  0  0  0
    1.0176   -1.5144   -1.5886 H   0  0  0  0  0  0  0  0  0  0  0  0
   -0.7027   -1.6117   -1.9957 H   0  0  0  0  0  0  0  0  0  0  0  0
    0.4836   -0.5150   -3.3967 C   0  0  0  0  0  0  0  0  0  0  0  0
    0.4292    0.6415   -3.7709 O   0  0  0  0  0  0  0  0  0  0  0  0
    0.8430   -1.4340   -4.2665 N   0  0  0  0  0  0  0  0  0  0  0  0
    1.0418   -1.0912   -5.1903 H   0  0  0  0  0  0  0  0  0  0  0  0
    0.9064   -2.3986   -4.0110 H   0  0  0  0  0  0  0  0  0  0  0  0
   -0.5429    0.9980    1.3792 C   0  0  0  0  0  0  0  0  0  0  0  0
   -0.3467    2.1391    0.9653 O   0  0  0  0  0  0  0  0  0  0  0  0
   -0.8013    0.7351    2.6667 N   0  0  0  0  0  0  0  0  0  0  0  0
   -0.9763   -0.2223    2.9273 H   0  0  0  0  0  0  0  0  0  0  0  0
   -0.8767    1.7579    3.7090 C   0  0  0  0  0  0  0  0  0  0  0  0
   -1.6249    2.5062    3.4360 H   0  0  0  0  0  0  0  0  0  0  0  0
   -1.1511    1.3083    4.6645 H   0  0  0  0  0  0  0  0  0  0  0  0
    0.0893    2.2561    3.8072 H   0  0  0  0  0  0  0  0  0  0  0  0
  5  6  2  0  0  0  0
  5  7  1  0  0  0  0
  2  3  1  0  0  0  0
  2  4  1  0  0  0  0
  2  5  1  0  0  0  0
  1  2  1  0  0  0  0
 22 23  2  0  0  0  0
 22 24  1  0  0  0  0
 19 20  1  0  0  0  0
 19 21  1  0  0  0  0
 17 18  2  0  0  0  0
 17 19  1  0  0  0  0
 14 15  1  0  0  0  0
 14 16  1  0  0  0  0
 14 17  1  0  0  0  0
 11 12  1  0  0  0  0
 11 13  1  0  0  0  0
 11 14  1  0  0  0  0
  9 10  1  0  0  0  0
  9 11  1  0  0  0  0
  9 22  1  0  0  0  0
  7  8  1  0  0  0  0
  7  9  1  0  0  0  0
 26 27  1  0  0  0  0
 26 28  1  0  0  0  0
 26 29  1  0  0  0  0
 24 25  1  0  0  0  0
 24 26  1  0  0  0  0
M  END
$$$$
default_name
  -OEChem-01062215323D

 29 28  0     1  0  0  0  0  0999 V2000
   -3.3998   -3.6239    1.3678 H   0  0  0  0  0  0  0  0  0  0  0  0
   -3.3608   -2.6749    0.8348 C   0  0  0  0  0  0  0  0  0  0  0  0
   -4.0988   -1.9909    1.2498 H   0  0  0  0  0  0  0  0  0  0  0  0
   -3.5618   -2.8419   -0.2222 H   0  0  0  0  0  0  0  0  0  0  0  0
   -1.9818   -2.0809    0.9918 C   0  0  0  0  0  0  0  0  0  0  0  0
   -1.1288   -2.6669    1.6468 O   0  0  0  0  0  0  0  0  0  0  0  0
   -1.7648   -0.9089    0.3998 N   0  0  0  0  0  0  0  0  0  0  0  0
   -2.5238   -0.4719   -0.1032 H   0  0  0  0  0  0  0  0  0  0  0  0
   -0.4848   -0.1959    0.4138 C   0  0  1  0  0  0  0  0  0  0  0  0
    0.2905   -0.8785    0.7657 H   0  0  0  0  0  0  0  0  0  0  0  0
   -0.1368    0.2280   -1.0265 C   0  0  0  0  0  0  0  0  0  0  0  0
   -0.9826    0.7857   -1.4340 H   0  0  0  0  0  0  0  0  0  0  0  0
    0.7295    0.8908   -1.0035 H   0  0  0  0  0  0  0  0  0  0  0  0
    0.1644   -0.9519   -1.9670 C   0  0  0  0  0  0  0  0  0  0  0  0
    1.0176   -1.5144   -1.5886 H   0  0  0  0  0  0  0  0  0  0  0  0
   -0.7027   -1.6117   -1.9957 H   0  0  0  0  0  0  0  0  0  0  0  0
    0.4836   -0.5150   -3.3967 C   0  0  0  0  0  0  0  0  0  0  0  0
    0.4292    0.6415   -3.7709 O   0  0  0  0  0  0  0  0  0  0  0  0
    0.8430   -1.4340   -4.2665 N   0  0  0  0  0  0  0  0  0  0  0  0
    1.0418   -1.0912   -5.1903 H   0  0  0  0  0  0  0  0  0  0  0  0
    0.9064   -2.3986   -4.0110 H   0  0  0  0  0  0  0  0  0  0  0  0
   -0.5429    0.9980    1.3792 C   0  0  0  0  0  0  0  0  0  0  0  0
   -0.6230    2.1445    0.9420 O   0  0  0  0  0  0  0  0  0  0  0  0
   -0.4916    0.7309    2.6905 N   0  0  0  0  0  0  0  0  0  0  0  0
   -0.4518   -0.2350    2.9745 H   0  0  0  0  0  0  0  0  0  0  0  0
   -0.5230    1.7553    3.7336 C   0  0  0  0  0  0  0  0  0  0  0  0
   -1.4229    2.3653    3.6224 H   0  0  0  0  0  0  0  0  0  0  0  0
   -0.5231    1.2926    4.7217 H   0  0  0  0  0  0  0  0  0  0  0  0
    0.3483    2.4054    3.6381 H   0  0  0  0  0  0  0  0  0  0  0  0
  5  6  2  0  0  0  0
  5  7  1  0  0  0  0
  2  3  1  0  0  0  0
  2  4  1  0  0  0  0
  2  5  1  0  0  0  0
  1  2  1  0  0  0  0
 22 23  2  0  0  0  0
 22 24  1  0  0  0  0
 19 20  1  0  0  0  0
 19 21  1  0  0  0  0
 17 18  2  0  0  0  0
 17 19  1  0  0  0  0
 14 15  1  0  0  0  0
 14 16  1  0  0  0  0
 14 17  1  0  0  0  0
 11 12  1  0  0  0  0
 11 13  1  0  0  0  0
 11 14  1  0  0  0  0
  9 10  1  0  0  0  0
  9 11  1  0  0  0  0
  9 22  1  0  0  0  0
  7  8  1  0  0  0  0
  7  9  1  0  0  0  0
 26 27  1  0  0  0  0
 26 28  1  0  0  0  0
 26 29  1  0  0  0  0
 24 25  1  0  0  0  0
 24 26  1  0  0  0  0
M  END
$$$$
default_name
  -OEChem-01062215323D

 29 28  0     1  0  0  0  0  0999 V2000
   -3.3998   -3.6239    1.3678 H   0  0  0  0  0  0  0  0  0  0  0  0
   -3.3608   -2.6749    0.8348 C   0  0  0  0  0  0  0  0  0  0  0  0
   -4.0988   -1.9909    1.2498 H   0  0  0  0  0  0  0  0  0  0  0  0
   -3.5618   -2.8419   -0.2222 H   0  0  0  0  0  0  0  0  0  0  0  0
   -1.9818   -2.0809    0.9918 C   0  0  0  0  0  0  0  0  0  0  0  0
   -1.1288   -2.6669    1.6468 O   0  0  0  0  0  0  0  0  0  0  0  0
   -1.7648   -0.9089    0.3998 N   0  0  0  0  0  0  0  0  0  0  0  0
   -2.5238   -0.4719   -0.1032 H   0  0  0  0  0  0  0  0  0  0  0  0
   -0.4848   -0.1959    0.4138 C   0  0  1  0  0  0  0  0  0  0  0  0
    0.2905   -0.8785    0.7657 H   0  0  0  0  0  0  0  0  0  0  0  0
   -0.1368    0.2280   -1.0265 C   0  0  0  0  0  0  0  0  0  0  0  0
   -0.9826    0.7857   -1.4340 H   0  0  0  0  0  0  0  0  0  0  0  0
    0.7295    0.8908   -1.0035 H   0  0  0  0  0  0  0  0  0  0  0  0
    0.1644   -0.9519   -1.9670 C   0  0  0  0  0  0  0  0  0  0  0  0
    1.0176   -1.5144   -1.5886 H   0  0  0  0  0  0  0  0  0  0  0  0
   -0.7027   -1.6117   -1.9957 H   0  0  0  0  0  0  0  0  0  0  0  0
    0.4836   -0.5150   -3.3967 C   0  0  0  0  0  0  0  0  0  0  0  0
    0.4292    0.6415   -3.7709 O   0  0  0  0  0  0  0  0  0  0  0  0
    0.8430   -1.4340   -4.2665 N   0  0  0  0  0  0  0  0  0  0  0  0
    1.0418   -1.0912   -5.1903 H   0  0  0  0  0  0  0  0  0  0  0  0
    0.9064   -2.3986   -4.0110 H   0  0  0  0  0  0  0  0  0  0  0  0
   -0.5429    0.9980    1.3792 C   0  0  0  0  0  0  0  0  0  0  0  0
   -0.8954    2.1045    0.9751 O   0  0  0  0  0  0  0  0  0  0  0  0
   -0.1870    0.7774    2.6513 N   0  0  0  0  0  0  0  0  0  0  0  0
    0.0663   -0.1614    2.9148 H   0  0  0  0  0  0  0  0  0  0  0  0
   -0.1760    1.8105    3.6862 C   0  0  0  0  0  0  0  0  0  0  0  0
   -1.1673    2.2639    3.7632 H   0  0  0  0  0  0  0  0  0  0  0  0
    0.0975    1.3802    4.6508 H   0  0  0  0  0  0  0  0  0  0  0  0
    0.5401    2.5902    3.4212 H   0  0  0  0  0  0  0  0  0  0  0  0
  5  6  2  0  0  0  0
  5  7  1  0  0  0  0
  2  3  1  0  0  0  0
  2  4  1  0  0  0  0
  2  5  1  0  0  0  0
  1  2  1  0  0  0  0
 22 23  2  0  0  0  0
 22 24  1  0  0  0  0
 19 20  1  0  0  0  0
 19 21  1  0  0  0  0
 17 18  2  0  0  0  0
 17 19  1  0  0  0  0
 14 15  1  0  0  0  0
 14 16  1  0  0  0  0
 14 17  1  0  0  0  0
 11 12  1  0  0  0  0
 11 13  1  0  0  0  0
 11 14  1  0  0  0  0
  9 10  1  0  0  0  0
  9 11  1  0  0  0  0
  9 22  1  0  0  0  0
  7  8  1  0  0  0  0
  7  9  1  0  0  0  0
 26 27  1  0  0  0  0
 26 28  1  0  0  0  0
 26 29  1  0  0  0  0
 24 25  1  0  0  0  0
 24 26  1  0  0  0  0
M  END
$$$$
default_name
  -OEChem-01062215323D

 29 28  0     1  0  0  0  0  0999 V2000
   -3.3998   -3.6239    1.3678 H   0  0  0  0  0  0  0  0  0  0  0  0
   -3.3608   -2.6749    0.8348 C   0  0  0  0  0  0  0  0  0  0  0  0
   -4.0988   -1.9909    1.2498 H   0  0  0  0  0  0  0  0  0  0  0  0
   -3.5618   -2.8419   -0.2222 H   0  0  0  0  0  0  0  0  0  0  0  0
   -1.9818   -2.0809    0.9918 C   0  0  0  0  0  0  0  0  0  0  0  0
   -1.1288   -2.6669    1.6468 O   0  0  0  0  0  0  0  0  0  0  0  0
   -1.7648   -0.9089    0.3998 N   0  0  0  0  0  0  0  0  0  0  0  0
   -2.5238   -0.4719   -0.1032 H   0  0  0  0  0  0  0  0  0  0  0  0
   -0.4848   -0.1959    0.4138 C   0  0  1  0  0  0  0  0  0  0  0  0
    0.2905   -0.8785    0.7657 H   0  0  0  0  0  0  0  0  0  0  0  0
   -0.1368    0.2280   -1.0265 C   0  0  0  0  0  0  0  0  0  0  0  0
   -0.9826    0.7857   -1.4340 H   0  0  0  0  0  0  0  0  0  0  0  0
    0.7295    0.8908   -1.0035 H   0  0  0  0  0  0  0  0  0  0  0  0
    0.1644   -0.9519   -1.9670 C   0  0  0  0  0  0  0  0  0  0  0  0
    1.0176   -1.5144   -1.5886 H   0  0  0  0  0  0  0  0  0  0  0  0
   -0.7027   -1.6117   -1.9957 H   0  0  0  0  0  0  0  0  0  0  0  0
    0.4836   -0.5150   -3.3967 C   0  0  0  0  0  0  0  0  0  0  0  0
    0.4292    0.6415   -3.7709 O   0  0  0  0  0  0  0  0  0  0  0  0
    0.8430   -1.4340   -4.2665 N   0  0  0  0  0  0  0  0  0  0  0  0
    1.0418   -1.0912   -5.1903 H   0  0  0  0  0  0  0  0  0  0  0  0
    0.9064   -2.3986   -4.0110 H   0  0  0  0  0  0  0  0  0  0  0  0
   -0.5429    0.9980    1.3792 C   0  0  0  0  0  0  0  0  0  0  0  0
   -1.1454    2.0219    1.0622 O   0  0  0  0  0  0  0  0  0  0  0  0
    0.0918    0.8715    2.5517 N   0  0  0  0  0  0  0  0  0  0  0  0
    0.5429   -0.0067    2.7522 H   0  0  0  0  0  0  0  0  0  0  0  0
    0.1406    1.9198    3.5701 C   0  0  0  0  0  0  0  0  0  0  0  0
   -0.8757    2.2089    3.8488 H   0  0  0  0  0  0  0  0  0  0  0  0
    0.6685    1.5650    4.4566 H   0  0  0  0  0  0  0  0  0  0  0  0
    0.6517    2.7976    3.1713 H   0  0  0  0  0  0  0  0  0  0  0  0
  5  6  2  0  0  0  0
  5  7  1  0  0  0  0
  2  3  1  0  0  0  0
  2  4  1  0  0  0  0
  2  5  1  0  0  0  0
  1  2  1  0  0  0  0
 22 23  2  0  0  0  0
 22 24  1  0  0  0  0
 19 20  1  0  0  0  0
 19 21  1  0  0  0  0
 17 18  2  0  0  0  0
 17 19  1  0  0  0  0
 14 15  1  0  0  0  0
 14 16  1  0  0  0  0
 14 17  1  0  0  0  0
 11 12  1  0  0  0  0
 11 13  1  0  0  0  0
 11 14  1  0  0  0  0
  9 10  1  0  0  0  0
  9 11  1  0  0  0  0
  9 22  1  0  0  0  0
  7  8  1  0  0  0  0
  7  9  1  0  0  0  0
 26 27  1  0  0  0  0
 26 28  1  0  0  0  0
 26 29  1  0  0  0  0
 24 25  1  0  0  0  0
 24 26  1  0  0  0  0
M  END
$$$$
default_name
  -OEChem-01062215323D

 29 28  0     1  0  0  0  0  0999 V2000
   -3.3998   -3.6239    1.3678 H   0  0  0  0  0  0  0  0  0  0  0  0
   -3.3608   -2.6749    0.8348 C   0  0  0  0  0  0  0  0  0  0  0  0
   -4.0988   -1.9909    1.2498 H   0  0  0  0  0  0  0  0  0  0  0  0
   -3.5618   -2.8419   -0.2222 H   0  0  0  0  0  0  0  0  0  0  0  0
   -1.9818   -2.0809    0.9918 C   0  0  0  0  0  0  0  0  0  0  0  0
   -1.1288   -2.6669    1.6468 O   0  0  0  0  0  0  0  0  0  0  0  0
   -1.7648   -0.9089    0.3998 N   0  0  0  0  0  0  0  0  0  0  0  0
   -2.5238   -0.4719   -0.1032 H   0  0  0  0  0  0  0  0  0  0  0  0
   -0.4848   -0.1959    0.4138 C   0  0  1  0  0  0  0  0  0  0  0  0
    0.2905   -0.8785    0.7657 H   0  0  0  0  0  0  0  0  0  0  0  0
   -0.1368    0.2280   -1.0265 C   0  0  0  0  0  0  0  0  0  0  0  0
   -0.9826    0.7857   -1.4340 H   0  0  0  0  0  0  0  0  0  0  0  0
    0.7295    0.8908   -1.0035 H   0  0  0  0  0  0  0  0  0  0  0  0
    0.1644   -0.9519   -1.9670 C   0  0  0  0  0  0  0  0  0  0  0  0
    1.0176   -1.5144   -1.5886 H   0  0  0  0  0  0  0  0  0  0  0  0
   -0.7027   -1.6117   -1.9957 H   0  0  0  0  0  0  0  0  0  0  0  0
    0.4836   -0.5150   -3.3967 C   0  0  0  0  0  0  0  0  0  0  0  0
    0.4292    0.6415   -3.7709 O   0  0  0  0  0  0  0  0  0  0  0  0
    0.8430   -1.4340   -4.2665 N   0  0  0  0  0  0  0  0  0  0  0  0
    1.0418   -1.0912   -5.1903 H   0  0  0  0  0  0  0  0  0  0  0  0
    0.9064   -2.3986   -4.0110 H   0  0  0  0  0  0  0  0  0  0  0  0
   -0.5429    0.9980    1.3792 C   0  0  0  0  0  0  0  0  0  0  0  0
   -1.3560    1.9023    1.1974 O   0  0  0  0  0  0  0  0  0  0  0  0
    0.3257    1.0068    2.3985 N   0  0  0  0  0  0  0  0  0  0  0  0
    0.9454    0.2186    2.4978 H   0  0  0  0  0  0  0  0  0  0  0  0
    0.4054    2.0757    3.3932 C   0  0  0  0  0  0  0  0  0  0  0  0
   -0.5679    2.2040    3.8733 H   0  0  0  0  0  0  0  0  0  0  0  0
    1.1509    1.8344    4.1524 H   0  0  0  0  0  0  0  0  0  0  0  0
    0.6756    3.0138    2.9054 H   0  0  0  0  0  0  0  0  0  0  0  0
  5  6  2  0  0  0  0
  5  7  1  0  0  0  0
  2  3  1  0  0  0  0
  2  4  1  0  0  0  0
  2  5  1  0  0  0  0
  1  2  1  0  0  0  0
 22 23  2  0  0  0  0
 22 24  1  0  0  0  0
 19 20  1  0  0  0  0
 19 21  1  0  0  0  0
 17 18  2  0  0  0  0
 17 19  1  0  0  0  0
 14 15  1  0  0  0  0
 14 16  1  0  0  0  0
 14 17  1  0  0  0  0
 11 12  1  0  0  0  0
 11 13  1  0  0  0  0
 11 14  1  0  0  0  0
  9 10  1  0  0  0  0
  9 11  1  0  0  0  0
  9 22  1  0  0  0  0
  7  8  1  0  0  0  0
  7  9  1  0  0  0  0
 26 27  1  0  0  0  0
 26 28  1  0  0  0  0
 26 29  1  0  0  0  0
 24 25  1  0  0  0  0
 24 26  1  0  0  0  0
M  END
$$$$
default_name
  -OEChem-01062215323D

 29 28  0     1  0  0  0  0  0999 V2000
   -3.3998   -3.6239    1.3678 H   0  0  0  0  0  0  0  0  0  0  0  0
   -3.3608   -2.6749    0.8348 C   0  0  0  0  0  0  0  0  0  0  0  0
   -4.0988   -1.9909    1.2498 H   0  0  0  0  0  0  0  0  0  0  0  0
   -3.5618   -2.8419   -0.2222 H   0  0  0  0  0  0  0  0  0  0  0  0
   -1.9818   -2.0809    0.9918 C   0  0  0  0  0  0  0  0  0  0  0  0
   -1.1288   -2.6669    1.6468 O   0  0  0  0  0  0  0  0  0  0  0  0
   -1.7648   -0.9089    0.3998 N   0  0  0  0  0  0  0  0  0  0  0  0
   -2.5238   -0.4719   -0.1032 H   0  0  0  0  0  0  0  0  0  0  0  0
   -0.4848   -0.1959    0.4138 C   0  0  1  0  0  0  0  0  0  0  0  0
    0.2905   -0.8785    0.7657 H   0  0  0  0  0  0  0  0  0  0  0  0
   -0.1368    0.2280   -1.0265 C   0  0  0  0  0  0  0  0  0  0  0  0
   -0.9826    0.7857   -1.4340 H   0  0  0  0  0  0  0  0  0  0  0  0
    0.7295    0.8908   -1.0035 H   0  0  0  0  0  0  0  0  0  0  0  0
    0.1644   -0.9519   -1.9670 C   0  0  0  0  0  0  0  0  0  0  0  0
    1.0176   -1.5144   -1.5886 H   0  0  0  0  0  0  0  0  0  0  0  0
   -0.7027   -1.6117   -1.9957 H   0  0  0  0  0  0  0  0  0  0  0  0
    0.4836   -0.5150   -3.3967 C   0  0  0  0  0  0  0  0  0  0  0  0
    0.4292    0.6415   -3.7709 O   0  0  0  0  0  0  0  0  0  0  0  0
    0.8430   -1.4340   -4.2665 N   0  0  0  0  0  0  0  0  0  0  0  0
    1.0418   -1.0912   -5.1903 H   0  0  0  0  0  0  0  0  0  0  0  0
    0.9064   -2.3986   -4.0110 H   0  0  0  0  0  0  0  0  0  0  0  0
   -0.5429    0.9980    1.3792 C   0  0  0  0  0  0  0  0  0  0  0  0
   -1.5127    1.7539    1.3715 O   0  0  0  0  0  0  0  0  0  0  0  0
    0.4989    1.1740    2.2022 N   0  0  0  0  0  0  0  0  0  0  0  0
    1.2463    0.4992    2.1689 H   0  0  0  0  0  0  0  0  0  0  0  0
    0.6002    2.2676    3.1676 C   0  0  0  0  0  0  0  0  0  0  0  0
   -0.2648    2.2496    3.8352 H   0  0  0  0  0  0  0  0  0  0  0  0
    1.5119    2.1702    3.7589 H   0  0  0  0  0  0  0  0  0  0  0  0
    0.6100    3.2238    2.6417 H   0  0  0  0  0  0  0  0  0  0  0  0
  5  6  2  0  0  0  0
  5  7  1  0  0  0  0
  2  3  1  0  0  0  0
  2  4  1  0  0  0  0
  2  5  1  0  0  0  0
  1  2  1  0  0  0  0
 22 23  2  0  0  0  0
 22 24  1  0  0  0  0
 19 20  1  0  0  0  0
 19 21  1  0  0  0  0
 17 18  2  0  0  0  0
 17 19  1  0  0  0  0
 14 15  1  0  0  0  0
 14 16  1  0  0  0  0
 14 17  1  0  0  0  0
 11 12  1  0  0  0  0
 11 13  1  0  0  0  0
 11 14  1  0  0  0  0
  9 10  1  0  0  0  0
  9 11  1  0  0  0  0
  9 22  1  0  0  0  0
  7  8  1  0  0  0  0
  7  9  1  0  0  0  0
 26 27  1  0  0  0  0
 26 28  1  0  0  0  0
 26 29  1  0  0  0  0
 24 25  1  0  0  0  0
 24 26  1  0  0  0  0
M  END
$$$$
default_name
  -OEChem-01062215323D

 29 28  0     1  0  0  0  0  0999 V2000
   -3.3998   -3.6239    1.3678 H   0  0  0  0  0  0  0  0  0  0  0  0
   -3.3608   -2.6749    0.8348 C   0  0  0  0  0  0  0  0  0  0  0  0
   -4.0988   -1.9909    1.2498 H   0  0  0  0  0  0  0  0  0  0  0  0
   -3.5618   -2.8419   -0.2222 H   0  0  0  0  0  0  0  0  0  0  0  0
   -1.9818   -2.0809    0.9918 C   0  0  0  0  0  0  0  0  0  0  0  0
   -1.1288   -2.6669    1.6468 O   0  0  0  0  0  0  0  0  0  0  0  0
   -1.7648   -0.9089    0.3998 N   0  0  0  0  0  0  0  0  0  0  0  0
   -2.5238   -0.4719   -0.1032 H   0  0  0  0  0  0  0  0  0  0  0  0
   -0.4848   -0.1959    0.4138 C   0  0  1  0  0  0  0  0  0  0  0  0
    0.2905   -0.8785    0.7657 H   0  0  0  0  0  0  0  0  0  0  0  0
   -0.1368    0.2280   -1.0265 C   0  0  0  0  0  0  0  0  0  0  0  0
   -0.9826    0.7857   -1.4340 H   0  0  0  0  0  0  0  0  0  0  0  0
    0.7295    0.8908   -1.0035 H   0  0  0  0  0  0  0  0  0  0  0  0
    0.1644   -0.9519   -1.9670 C   0  0  0  0  0  0  0  0  0  0  0  0
    1.0176   -1.5144   -1.5886 H   0  0  0  0  0  0  0  0  0  0  0  0
   -0.7027   -1.6117   -1.9957 H   0  0  0  0  0  0  0  0  0  0  0  0
    0.4836   -0.5150   -3.3967 C   0  0  0  0  0  0  0  0  0  0  0  0
    0.4292    0.6415   -3.7709 O   0  0  0  0  0  0  0  0  0  0  0  0
    0.8430   -1.4340   -4.2665 N   0  0  0  0  0  0  0  0  0  0  0  0
    1.0418   -1.0912   -5.1903 H   0  0  0  0  0  0  0  0  0  0  0  0
    0.9064   -2.3986   -4.0110 H   0  0  0  0  0  0  0  0  0  0  0  0
   -0.5429    0.9980    1.3792 C   0  0  0  0  0  0  0  0  0  0  0  0
   -1.6049    1.5868    1.5727 O   0  0  0  0  0  0  0  0  0  0  0  0
    0.5995    1.3617    1.9760 N   0  0  0  0  0  0  0  0  0  0  0  0
    1.4252    0.8160    1.7879 H   0  0  0  0  0  0  0  0  0  0  0  0
    0.7118    2.4825    2.9086 C   0  0  0  0  0  0  0  0  0  0  0  0
    0.0129    2.3425    3.7370 H   0  0  0  0  0  0  0  0  0  0  0  0
    1.7269    2.5493    3.3030 H   0  0  0  0  0  0  0  0  0  0  0  0
    0.4594    3.4135    2.3981 H   0  0  0  0  0  0  0  0  0  0  0  0
  5  6  2  0  0  0  0
  5  7  1  0  0  0  0
  2  3  1  0  0  0  0
  2  4  1  0  0  0  0
  2  5  1  0  0  0  0
  1  2  1  0  0  0  0
 22 23  2  0  0  0  0
 22 24  1  0  0  0  0
 19 20  1  0  0  0  0
 19 21  1  0  0  0  0
 17 18  2  0  0  0  0
 17 19  1  0  0  0  0
 14 15  1  0  0  0  0
 14 16  1  0  0  0  0
 14 17  1  0  0  0  0
 11 12  1  0  0  0  0
 11 13  1  0  0  0  0
 11 14  1  0  0  0  0
  9 10  1  0  0  0  0
  9 11  1  0  0  0  0
  9 22  1  0  0  0  0
  7  8  1  0  0  0  0
  7  9  1  0  0  0  0
 26 27  1  0  0  0  0
 26 28  1  0  0  0  0
 26 29  1  0  0  0  0
 24 25  1  0  0  0  0
 24 26  1  0  0  0  0
M  END
$$$$
default_name
  -OEChem-01062215323D

 29 28  0     1  0  0  0  0  0999 V2000
   -3.3998   -3.6239    1.3678 H   0  0  0  0  0  0  0  0  0  0  0  0
   -3.3608   -2.6749    0.8348 C   0  0  0  0  0  0  0  0  0  0  0  0
   -4.0988   -1.9909    1.2498 H   0  0  0  0  0  0  0  0  0  0  0  0
   -3.5618   -2.8419   -0.2222 H   0  0  0  0  0  0  0  0  0  0  0  0
   -1.9818   -2.0809    0.9918 C   0  0  0  0  0  0  0  0  0  0  0  0
   -1.1288   -2.6669    1.6468 O   0  0  0  0  0  0  0  0  0  0  0  0
   -1.7648   -0.9089    0.3998 N   0  0  0  0  0  0  0  0  0  0  0  0
   -2.5238   -0.4719   -0.1032 H   0  0  0  0  0  0  0  0  0  0  0  0
   -0.4848   -0.1959    0.4138 C   0  0  1  0  0  0  0  0  0  0  0  0
    0.2905   -0.8785    0.7657 H   0  0  0  0  0  0  0  0  0  0  0  0
   -0.1368    0.2280   -1.0265 C   0  0  0  0  0  0  0  0  0  0  0  0
   -0.9826    0.7857   -1.4340 H   0  0  0  0  0  0  0  0  0  0  0  0
    0.7295    0.8908   -1.0035 H   0  0  0  0  0  0  0  0  0  0  0  0
    0.1644   -0.9519   -1.9670 C   0  0  0  0  0  0  0  0  0  0  0  0
    1.0176   -1.5144   -1.5886 H   0  0  0  0  0  0  0  0  0  0  0  0
   -0.7027   -1.6117   -1.9957 H   0  0  0  0  0  0  0  0  0  0  0  0
    0.4836   -0.5150   -3.3967 C   0  0  0  0  0  0  0  0  0  0  0  0
    0.4292    0.6415   -3.7709 O   0  0  0  0  0  0  0  0  0  0  0  0
    0.8430   -1.4340   -4.2665 N   0  0  0  0  0  0  0  0  0  0  0  0
    1.0418   -1.0912   -5.1903 H   0  0  0  0  0  0  0  0  0  0  0  0
    0.9064   -2.3986   -4.0110 H   0  0  0  0  0  0  0  0  0  0  0  0
   -0.5429    0.9980    1.3792 C   0  0  0  0  0  0  0  0  0  0  0  0
   -1.6264    1.4123    1.7872 O   0  0  0  0  0  0  0  0  0  0  0  0
    0.6206    1.5572    1.7356 N   0  0  0  0  0  0  0  0  0  0  0  0
    1.4699    1.1473    1.3808 H   0  0  0  0  0  0  0  0  0  0  0  0
    0.7325    2.7056    2.6339 C   0  0  0  0  0  0  0  0  0  0  0  0
    0.2463    2.4765    3.5853 H   0  0  0  0  0  0  0  0  0  0  0  0
    1.7811    2.9460    2.8156 H   0  0  0  0  0  0  0  0  0  0  0  0
    0.2342    3.5698    2.1913 H   0  0  0  0  0  0  0  0  0  0  0  0
  5  6  2  0  0  0  0
  5  7  1  0  0  0  0
  2  3  1  0  0  0  0
  2  4  1  0  0  0  0
  2  5  1  0  0  0  0
  1  2  1  0  0  0  0
 22 23  2  0  0  0  0
 22 24  1  0  0  0  0
 19 20  1  0  0  0  0
 19 21  1  0  0  0  0
 17 18  2  0  0  0  0
 17 19  1  0  0  0  0
 14 15  1  0  0  0  0
 14 16  1  0  0  0  0
 14 17  1  0  0  0  0
 11 12  1  0  0  0  0
 11 13  1  0  0  0  0
 11 14  1  0  0  0  0
  9 10  1  0  0  0  0
  9 11  1  0  0  0  0
  9 22  1  0  0  0  0
  7  8  1  0  0  0  0
  7  9  1  0  0  0  0
 26 27  1  0  0  0  0
 26 28  1  0  0  0  0
 26 29  1  0  0  0  0
 24 25  1  0  0  0  0
 24 26  1  0  0  0  0
M  END
$$$$
default_name
  -OEChem-01062215323D

 29 28  0     1  0  0  0  0  0999 V2000
   -3.3998   -3.6239    1.3678 H   0  0  0  0  0  0  0  0  0  0  0  0
   -3.3608   -2.6749    0.8348 C   0  0  0  0  0  0  0  0  0  0  0  0
   -4.0988   -1.9909    1.2498 H   0  0  0  0  0  0  0  0  0  0  0  0
   -3.5618   -2.8419   -0.2222 H   0  0  0  0  0  0  0  0  0  0  0  0
   -1.9818   -2.0809    0.9918 C   0  0  0  0  0  0  0  0  0  0  0  0
   -1.1288   -2.6669    1.6468 O   0  0  0  0  0  0  0  0  0  0  0  0
   -1.7648   -0.9089    0.3998 N   0  0  0  0  0  0  0  0  0  0  0  0
   -2.5238   -0.4719   -0.1032 H   0  0  0  0  0  0  0  0  0  0  0  0
   -0.4848   -0.1959    0.4138 C   0  0  1  0  0  0  0  0  0  0  0  0
    0.3205   -0.9271    0.5018 H   0  0  0  0  0  0  0  0  0  0  0  0
   -0.3163    0.5483   -0.9252 C   0  0  0  0  0  0  0  0  0  0  0  0
   -1.2000    1.1693   -1.0864 H   0  0  0  0  0  0  0  0  0  0  0  0
    0.5539    1.2033   -0.8620 H   0  0  0  0  0  0  0  0  0  0  0  0
   -0.1505   -0.3833   -2.1385 C   0  0  0  0  0  0  0  0  0  0  0  0
    0.7368   -1.0023   -2.0074 H   0  0  0  0  0  0  0  0  0  0  0  0
   -1.0221   -1.0342   -2.2065 H   0  0  0  0  0  0  0  0  0  0  0  0
   -0.0091    0.3706   -3.4607 C   0  0  0  0  0  0  0  0  0  0  0  0
   -0.0963    1.5807   -3.5537 O   0  0  0  0  0  0  0  0  0  0  0  0
    0.2267   -0.3218   -4.5540 N   0  0  0  0  0  0  0  0  0  0  0  0
    0.3114    0.2241   -5.3938 H   0  0  0  0  0  0  0  0  0  0  0  0
    0.3102   -1.3180   -4.5334 H   0  0  0  0  0  0  0  0  0  0  0  0
   -0.4062    0.7478    1.6238 C   0  0  0  0  0  0  0  0  0  0  0  0
   -1.3492    0.8280    2.4088 O   0  0  0  0  0  0  0  0  0  0  0  0
    0.7126    1.4696    1.7684 N   0  0  0  0  0  0  0  0  0  0  0  0
    1.4532    1.3320    1.0993 H   0  0  0  0  0  0  0  0  0  0  0  0
    0.9352    2.4200    2.8572 C   0  0  0  0  0  0  0  0  0  0  0  0
    0.8219    1.9113    3.8178 H   0  0  0  0  0  0  0  0  0  0  0  0
    1.9379    2.8451    2.7924 H   0  0  0  0  0  0  0  0  0  0  0  0
    0.1974    3.2223    2.8028 H   0  0  0  0  0  0  0  0  0  0  0  0
  5  6  2  0  0  0  0
  5  7  1  0  0  0  0
  2  3  1  0  0  0  0
  2  4  1  0  0  0  0
  2  5  1  0  0  0  0
  1  2  1  0  0  0  0
 22 23  2  0  0  0  0
 22 24  1  0  0  0  0
 19 20  1  0  0  0  0
 19 21  1  0  0  0  0
 17 18  2  0  0  0  0
 17 19  1  0  0  0  0
 14 15  1  0  0  0  0
 14 16  1  0  0  0  0
 14 17  1  0  0  0  0
 11 12  1  0  0  0  0
 11 13  1  0  0  0  0
 11 14  1  0  0  0  0
  9 10  1  0  0  0  0
  9 11  1  0  0  0  0
  9 22  1  0  0  0  0
  7  8  1  0  0  0  0
  7  9  1  0  0  0  0
 26 27  1  0  0  0  0
 26 28  1  0  0  0  0
 26 29  1  0  0  0  0
 24 25  1  0  0  0  0
 24 26  1  0  0  0  0
M  END
$$$$
default_name
  -OEChem-01062215323D

 29 28  0     1  0  0  0  0  0999 V2000
   -3.3998   -3.6239    1.3678 H   0  0  0  0  0  0  0  0  0  0  0  0
   -3.3608   -2.6749    0.8348 C   0  0  0  0  0  0  0  0  0  0  0  0
   -4.0988   -1.9909    1.2498 H   0  0  0  0  0  0  0  0  0  0  0  0
   -3.5618   -2.8419   -0.2222 H   0  0  0  0  0  0  0  0  0  0  0  0
   -1.9818   -2.0809    0.9918 C   0  0  0  0  0  0  0  0  0  0  0  0
   -1.1288   -2.6669    1.6468 O   0  0  0  0  0  0  0  0  0  0  0  0
   -1.7648   -0.9089    0.3998 N   0  0  0  0  0  0  0  0  0  0  0  0
   -2.5238   -0.4719   -0.1032 H   0  0  0  0  0  0  0  0  0  0  0  0
   -0.4848   -0.1959    0.4138 C   0  0  1  0  0  0  0  0  0  0  0  0
    0.3205   -0.9271    0.5018 H   0  0  0  0  0  0  0  0  0  0  0  0
   -0.3163    0.5483   -0.9252 C   0  0  0  0  0  0  0  0  0  0  0  0
   -1.2000    1.1693   -1.0864 H   0  0  0  0  0  0  0  0  0  0  0  0
    0.5539    1.2033   -0.8620 H   0  0  0  0  0  0  0  0  0  0  0  0
   -0.1505   -0.3833   -2.1385 C   0  0  0  0  0  0  0  0  0  0  0  0
    0.7368   -1.0023   -2.0074 H   0  0  0  0  0  0  0  0  0  0  0  0
   -1.0221   -1.0342   -2.2065 H   0  0  0  0  0  0  0  0  0  0  0  0
   -0.0091    0.3706   -3.4607 C   0  0  0  0  0  0  0  0  0  0  0  0
   -0.0963    1.5807   -3.5537 O   0  0  0  0  0  0  0  0  0  0  0  0
    0.2267   -0.3218   -4.5540 N   0  0  0  0  0  0  0  0  0  0  0  0
    0.3114    0.2241   -5.3938 H   0  0  0  0  0  0  0  0  0  0  0  0
    0.3102   -1.3180   -4.5334 H   0  0  0  0  0  0  0  0  0  0  0  0
   -0.4062    0.7478    1.6238 C   0  0  0  0  0  0  0  0  0  0  0  0
   -1.2076    0.6356    2.5497 O   0  0  0  0  0  0  0  0  0  0  0  0
    0.5514    1.6840    1.6117 N   0  0  0  0  0  0  0  0  0  0  0  0
    1.1875    1.6988    0.8304 H   0  0  0  0  0  0  0  0  0  0  0  0
    0.7483    2.6633    2.6795 C   0  0  0  0  0  0  0  0  0  0  0  0
    0.8961    2.1454    3.6304 H   0  0  0  0  0  0  0  0  0  0  0  0
    1.6204    3.2847    2.4702 H   0  0  0  0  0  0  0  0  0  0  0  0
   -0.1358    3.2973    2.7660 H   0  0  0  0  0  0  0  0  0  0  0  0
  5  6  2  0  0  0  0
  5  7  1  0  0  0  0
  2  3  1  0  0  0  0
  2  4  1  0  0  0  0
  2  5  1  0  0  0  0
  1  2  1  0  0  0  0
 22 23  2  0  0  0  0
 22 24  1  0  0  0  0
 19 20  1  0  0  0  0
 19 21  1  0  0  0  0
 17 18  2  0  0  0  0
 17 19  1  0  0  0  0
 14 15  1  0  0  0  0
 14 16  1  0  0  0  0
 14 17  1  0  0  0  0
 11 12  1  0  0  0  0
 11 13  1  0  0  0  0
 11 14  1  0  0  0  0
  9 10  1  0  0  0  0
  9 11  1  0  0  0  0
  9 22  1  0  0  0  0
  7  8  1  0  0  0  0
  7  9  1  0  0  0  0
 26 27  1  0  0  0  0
 26 28  1  0  0  0  0
 26 29  1  0  0  0  0
 24 25  1  0  0  0  0
 24 26  1  0  0  0  0
M  END
$$$$
default_name
  -OEChem-01062215323D

 29 28  0     1  0  0  0  0  0999 V2000
   -3.3998   -3.6239    1.3678 H   0  0  0  0  0  0  0  0  0  0  0  0
   -3.3608   -2.6749    0.8348 C   0  0  0  0  0  0  0  0  0  0  0  0
   -4.0988   -1.9909    1.2498 H   0  0  0  0  0  0  0  0  0  0  0  0
   -3.5618   -2.8419   -0.2222 H   0  0  0  0  0  0  0  0  0  0  0  0
   -1.9818   -2.0809    0.9918 C   0  0  0  0  0  0  0  0  0  0  0  0
   -1.1288   -2.6669    1.6468 O   0  0  0  0  0  0  0  0  0  0  0  0
   -1.7648   -0.9089    0.3998 N   0  0  0  0  0  0  0  0  0  0  0  0
   -2.5238   -0.4719   -0.1032 H   0  0  0  0  0  0  0  0  0  0  0  0
   -0.4848   -0.1959    0.4138 C   0  0  1  0  0  0  0  0  0  0  0  0
    0.3205   -0.9271    0.5018 H   0  0  0  0  0  0  0  0  0  0  0  0
   -0.3163    0.5483   -0.9252 C   0  0  0  0  0  0  0  0  0  0  0  0
   -1.2000    1.1693   -1.0864 H   0  0  0  0  0  0  0  0  0  0  0  0
    0.5539    1.2033   -0.8620 H   0  0  0  0  0  0  0  0  0  0  0  0
   -0.1505   -0.3833   -2.1385 C   0  0  0  0  0  0  0  0  0  0  0  0
    0.7368   -1.0023   -2.0074 H   0  0  0  0  0  0  0  0  0  0  0  0
   -1.0221   -1.0342   -2.2065 H   0  0  0  0  0  0  0  0  0  0  0  0
   -0.0091    0.3706   -3.4607 C   0  0  0  0  0  0  0  0  0  0  0  0
   -0.0963    1.5807   -3.5537 O   0  0  0  0  0  0  0  0  0  0  0  0
    0.2267   -0.3218   -4.5540 N   0  0  0  0  0  0  0  0  0  0  0  0
    0.3114    0.2241   -5.3938 H   0  0  0  0  0  0  0  0  0  0  0  0
    0.3102   -1.3180   -4.5334 H   0  0  0  0  0  0  0  0  0  0  0  0
   -0.4062    0.7478    1.6238 C   0  0  0  0  0  0  0  0  0  0  0  0
   -1.0091    0.4768    2.6606 O   0  0  0  0  0  0  0  0  0  0  0  0
    0.3271    1.8602    1.4887 N   0  0  0  0  0  0  0  0  0  0  0  0
    0.8133    2.0026    0.6178 H   0  0  0  0  0  0  0  0  0  0  0  0
    0.4900    2.8627    2.5408 C   0  0  0  0  0  0  0  0  0  0  0  0
    0.8902    2.3891    3.4407 H   0  0  0  0  0  0  0  0  0  0  0  0
    1.1729    3.6488    2.2152 H   0  0  0  0  0  0  0  0  0  0  0  0
   -0.4787    3.3023    2.7843 H   0  0  0  0  0  0  0  0  0  0  0  0
  5  6  2  0  0  0  0
  5  7  1  0  0  0  0
  2  3  1  0  0  0  0
  2  4  1  0  0  0  0
  2  5  1  0  0  0  0
  1  2  1  0  0  0  0
 22 23  2  0  0  0  0
 22 24  1  0  0  0  0
 19 20  1  0  0  0  0
 19 21  1  0  0  0  0
 17 18  2  0  0  0  0
 17 19  1  0  0  0  0
 14 15  1  0  0  0  0
 14 16  1  0  0  0  0
 14 17  1  0  0  0  0
 11 12  1  0  0  0  0
 11 13  1  0  0  0  0
 11 14  1  0  0  0  0
  9 10  1  0  0  0  0
  9 11  1  0  0  0  0
  9 22  1  0  0  0  0
  7  8  1  0  0  0  0
  7  9  1  0  0  0  0
 26 27  1  0  0  0  0
 26 28  1  0  0  0  0
 26 29  1  0  0  0  0
 24 25  1  0  0  0  0
 24 26  1  0  0  0  0
M  END
$$$$
default_name
  -OEChem-01062215323D

 29 28  0     1  0  0  0  0  0999 V2000
   -3.3998   -3.6239    1.3678 H   0  0  0  0  0  0  0  0  0  0  0  0
   -3.3608   -2.6749    0.8348 C   0  0  0  0  0  0  0  0  0  0  0  0
   -4.0988   -1.9909    1.2498 H   0  0  0  0  0  0  0  0  0  0  0  0
   -3.5618   -2.8419   -0.2222 H   0  0  0  0  0  0  0  0  0  0  0  0
   -1.9818   -2.0809    0.9918 C   0  0  0  0  0  0  0  0  0  0  0  0
   -1.1288   -2.6669    1.6468 O   0  0  0  0  0  0  0  0  0  0  0  0
   -1.7648   -0.9089    0.3998 N   0  0  0  0  0  0  0  0  0  0  0  0
   -2.5238   -0.4719   -0.1032 H   0  0  0  0  0  0  0  0  0  0  0  0
   -0.4848   -0.1959    0.4138 C   0  0  1  0  0  0  0  0  0  0  0  0
    0.3205   -0.9271    0.5018 H   0  0  0  0  0  0  0  0  0  0  0  0
   -0.3163    0.5483   -0.9252 C   0  0  0  0  0  0  0  0  0  0  0  0
   -1.2000    1.1693   -1.0864 H   0  0  0  0  0  0  0  0  0  0  0  0
    0.5539    1.2033   -0.8620 H   0  0  0  0  0  0  0  0  0  0  0  0
   -0.1505   -0.3833   -2.1385 C   0  0  0  0  0  0  0  0  0  0  0  0
    0.7368   -1.0023   -2.0074 H   0  0  0  0  0  0  0  0  0  0  0  0
   -1.0221   -1.0342   -2.2065 H   0  0  0  0  0  0  0  0  0  0  0  0
   -0.0091    0.3706   -3.4607 C   0  0  0  0  0  0  0  0  0  0  0  0
   -0.0963    1.5807   -3.5537 O   0  0  0  0  0  0  0  0  0  0  0  0
    0.2267   -0.3218   -4.5540 N   0  0  0  0  0  0  0  0  0  0  0  0
    0.3114    0.2241   -5.3938 H   0  0  0  0  0  0  0  0  0  0  0  0
    0.3102   -1.3180   -4.5334 H   0  0  0  0  0  0  0  0  0  0  0  0
   -0.4062    0.7478    1.6238 C   0  0  0  0  0  0  0  0  0  0  0  0
   -0.7674    0.3624    2.7342 O   0  0  0  0  0  0  0  0  0  0  0  0
    0.0550    1.9865    1.4080 N   0  0  0  0  0  0  0  0  0  0  0  0
    0.3561    2.2226    0.4759 H   0  0  0  0  0  0  0  0  0  0  0  0
    0.1778    3.0044    2.4505 C   0  0  0  0  0  0  0  0  0  0  0  0
    0.8048    2.6258    3.2616 H   0  0  0  0  0  0  0  0  0  0  0  0
    0.6259    3.9127    2.0449 H   0  0  0  0  0  0  0  0  0  0  0  0
   -0.8081    3.2370    2.8566 H   0  0  0  0  0  0  0  0  0  0  0  0
  5  6  2  0  0  0  0
  5  7  1  0  0  0  0
  2  3  1  0  0  0  0
  2  4  1  0  0  0  0
  2  5  1  0  0  0  0
  1  2  1  0  0  0  0
 22 23  2  0  0  0  0
 22 24  1  0  0  0  0
 19 20  1  0  0  0  0
 19 21  1  0  0  0  0
 17 18  2  0  0  0  0
 17 19  1  0  0  0  0
 14 15  1  0  0  0  0
 14 16  1  0  0  0  0
 14 17  1  0  0  0  0
 11 12  1  0  0  0  0
 11 13  1  0  0  0  0
 11 14  1  0  0  0  0
  9 10  1  0  0  0  0
  9 11  1  0  0  0  0
  9 22  1  0  0  0  0
  7  8  1  0  0  0  0
  7  9  1  0  0  0  0
 26 27  1  0  0  0  0
 26 28  1  0  0  0  0
 26 29  1  0  0  0  0
 24 25  1  0  0  0  0
 24 26  1  0  0  0  0
M  END
$$$$
default_name
  -OEChem-01062215323D

 29 28  0     1  0  0  0  0  0999 V2000
   -3.3998   -3.6239    1.3678 H   0  0  0  0  0  0  0  0  0  0  0  0
   -3.3608   -2.6749    0.8348 C   0  0  0  0  0  0  0  0  0  0  0  0
   -4.0988   -1.9909    1.2498 H   0  0  0  0  0  0  0  0  0  0  0  0
   -3.5618   -2.8419   -0.2222 H   0  0  0  0  0  0  0  0  0  0  0  0
   -1.9818   -2.0809    0.9918 C   0  0  0  0  0  0  0  0  0  0  0  0
   -1.1288   -2.6669    1.6468 O   0  0  0  0  0  0  0  0  0  0  0  0
   -1.7648   -0.9089    0.3998 N   0  0  0  0  0  0  0  0  0  0  0  0
   -2.5238   -0.4719   -0.1032 H   0  0  0  0  0  0  0  0  0  0  0  0
   -0.4848   -0.1959    0.4138 C   0  0  1  0  0  0  0  0  0  0  0  0
    0.3205   -0.9271    0.5018 H   0  0  0  0  0  0  0  0  0  0  0  0
   -0.3163    0.5483   -0.9252 C   0  0  0  0  0  0  0  0  0  0  0  0
   -1.2000    1.1693   -1.0864 H   0  0  0  0  0  0  0  0  0  0  0  0
    0.5539    1.2033   -0.8620 H   0  0  0  0  0  0  0  0  0  0  0  0
   -0.1505   -0.3833   -2.1385 C   0  0  0  0  0  0  0  0  0  0  0  0
    0.7368   -1.0023   -2.0074 H   0  0  0  0  0  0  0  0  0  0  0  0
   -1.0221   -1.0342   -2.2065 H   0  0  0  0  0  0  0  0  0  0  0  0
   -0.0091    0.3706   -3.4607 C   0  0  0  0  0  0  0  0  0  0  0  0
   -0.0963    1.5807   -3.5537 O   0  0  0  0  0  0  0  0  0  0  0  0
    0.2267   -0.3218   -4.5540 N   0  0  0  0  0  0  0  0  0  0  0  0
    0.3114    0.2241   -5.3938 H   0  0  0  0  0  0  0  0  0  0  0  0
    0.3102   -1.3180   -4.5334 H   0  0  0  0  0  0  0  0  0  0  0  0
   -0.4062    0.7478    1.6238 C   0  0  0  0  0  0  0  0  0  0  0  0
   -0.4990    0.3002    2.7653 O   0  0  0  0  0  0  0  0  0  0  0  0
   -0.2464    2.0540    1.3749 N   0  0  0  0  0  0  0  0  0  0  0  0
   -0.1528    2.3437    0.4144 H   0  0  0  0  0  0  0  0  0  0  0  0
   -0.1669    3.0789    2.4148 C   0  0  0  0  0  0  0  0  0  0  0  0
    0.6455    2.8394    3.1054 H   0  0  0  0  0  0  0  0  0  0  0  0
    0.0167    4.0584    1.9708 H   0  0  0  0  0  0  0  0  0  0  0  0
   -1.1014    3.1059    2.9779 H   0  0  0  0  0  0  0  0  0  0  0  0
  5  6  2  0  0  0  0
  5  7  1  0  0  0  0
  2  3  1  0  0  0  0
  2  4  1  0  0  0  0
  2  5  1  0  0  0  0
  1  2  1  0  0  0  0
 22 23  2  0  0  0  0
 22 24  1  0  0  0  0
 19 20  1  0  0  0  0
 19 21  1  0  0  0  0
 17 18  2  0  0  0  0
 17 19  1  0  0  0  0
 14 15  1  0  0  0  0
 14 16  1  0  0  0  0
 14 17  1  0  0  0  0
 11 12  1  0  0  0  0
 11 13  1  0  0  0  0
 11 14  1  0  0  0  0
  9 10  1  0  0  0  0
  9 11  1  0  0  0  0
  9 22  1  0  0  0  0
  7  8  1  0  0  0  0
  7  9  1  0  0  0  0
 26 27  1  0  0  0  0
 26 28  1  0  0  0  0
 26 29  1  0  0  0  0
 24 25  1  0  0  0  0
 24 26  1  0  0  0  0
M  END
$$$$
default_name
  -OEChem-01062215323D

 29 28  0     1  0  0  0  0  0999 V2000
   -3.3998   -3.6239    1.3678 H   0  0  0  0  0  0  0  0  0  0  0  0
   -3.3608   -2.6749    0.8348 C   0  0  0  0  0  0  0  0  0  0  0  0
   -4.0988   -1.9909    1.2498 H   0  0  0  0  0  0  0  0  0  0  0  0
   -3.5618   -2.8419   -0.2222 H   0  0  0  0  0  0  0  0  0  0  0  0
   -1.9818   -2.0809    0.9918 C   0  0  0  0  0  0  0  0  0  0  0  0
   -1.1288   -2.6669    1.6468 O   0  0  0  0  0  0  0  0  0  0  0  0
   -1.7648   -0.9089    0.3998 N   0  0  0  0  0  0  0  0  0  0  0  0
   -2.5238   -0.4719   -0.1032 H   0  0  0  0  0  0  0  0  0  0  0  0
   -0.4848   -0.1959    0.4138 C   0  0  1  0  0  0  0  0  0  0  0  0
    0.3205   -0.9271    0.5018 H   0  0  0  0  0  0  0  0  0  0  0  0
   -0.3163    0.5483   -0.9252 C   0  0  0  0  0  0  0  0  0  0  0  0
   -1.2000    1.1693   -1.0864 H   0  0  0  0  0  0  0  0  0  0  0  0
    0.5539    1.2033   -0.8620 H   0  0  0  0  0  0  0  0  0  0  0  0
   -0.1505   -0.3833   -2.1385 C   0  0  0  0  0  0  0  0  0  0  0  0
    0.7368   -1.0023   -2.0074 H   0  0  0  0  0  0  0  0  0  0  0  0
   -1.0221   -1.0342   -2.2065 H   0  0  0  0  0  0  0  0  0  0  0  0
   -0.0091    0.3706   -3.4607 C   0  0  0  0  0  0  0  0  0  0  0  0
   -0.0963    1.5807   -3.5537 O   0  0  0  0  0  0  0  0  0  0  0  0
    0.2267   -0.3218   -4.5540 N   0  0  0  0  0  0  0  0  0  0  0  0
    0.3114    0.2241   -5.3938 H   0  0  0  0  0  0  0  0  0  0  0  0
    0.3102   -1.3180   -4.5334 H   0  0  0  0  0  0  0  0  0  0  0  0
   -0.4062    0.7478    1.6238 C   0  0  0  0  0  0  0  0  0  0  0  0
   -0.2220    0.2944    2.7518 O   0  0  0  0  0  0  0  0  0  0  0  0
   -0.5565    2.0582    1.3917 N   0  0  0  0  0  0  0  0  0  0  0  0
   -0.6789    2.3579    0.4376 H   0  0  0  0  0  0  0  0  0  0  0  0
   -0.5208    3.0810    2.4362 C   0  0  0  0  0  0  0  0  0  0  0  0
    0.4233    3.0153    2.9826 H   0  0  0  0  0  0  0  0  0  0  0  0
   -0.6132    4.0759    1.9980 H   0  0  0  0  0  0  0  0  0  0  0  0
   -1.3387    2.9178    3.1400 H   0  0  0  0  0  0  0  0  0  0  0  0
  5  6  2  0  0  0  0
  5  7  1  0  0  0  0
  2  3  1  0  0  0  0
  2  4  1  0  0  0  0
  2  5  1  0  0  0  0
  1  2  1  0  0  0  0
 22 23  2  0  0  0  0
 22 24  1  0  0  0  0
 19 20  1  0  0  0  0
 19 21  1  0  0  0  0
 17 18  2  0  0  0  0
 17 19  1  0  0  0  0
 14 15  1  0  0  0  0
 14 16  1  0  0  0  0
 14 17  1  0  0  0  0
 11 12  1  0  0  0  0
 11 13  1  0  0  0  0
 11 14  1  0  0  0  0
  9 10  1  0  0  0  0
  9 11  1  0  0  0  0
  9 22  1  0  0  0  0
  7  8  1  0  0  0  0
  7  9  1  0  0  0  0
 26 27  1  0  0  0  0
 26 28  1  0  0  0  0
 26 29  1  0  0  0  0
 24 25  1  0  0  0  0
 24 26  1  0  0  0  0
M  END
$$$$
default_name
  -OEChem-01062215323D

 29 28  0     1  0  0  0  0  0999 V2000
   -3.3998   -3.6239    1.3678 H   0  0  0  0  0  0  0  0  0  0  0  0
   -3.3608   -2.6749    0.8348 C   0  0  0  0  0  0  0  0  0  0  0  0
   -4.0988   -1.9909    1.2498 H   0  0  0  0  0  0  0  0  0  0  0  0
   -3.5618   -2.8419   -0.2222 H   0  0  0  0  0  0  0  0  0  0  0  0
   -1.9818   -2.0809    0.9918 C   0  0  0  0  0  0  0  0  0  0  0  0
   -1.1288   -2.6669    1.6468 O   0  0  0  0  0  0  0  0  0  0  0  0
   -1.7648   -0.9089    0.3998 N   0  0  0  0  0  0  0  0  0  0  0  0
   -2.5238   -0.4719   -0.1032 H   0  0  0  0  0  0  0  0  0  0  0  0
   -0.4848   -0.1959    0.4138 C   0  0  1  0  0  0  0  0  0  0  0  0
    0.3205   -0.9271    0.5018 H   0  0  0  0  0  0  0  0  0  0  0  0
   -0.3163    0.5483   -0.9252 C   0  0  0  0  0  0  0  0  0  0  0  0
   -1.2000    1.1693   -1.0864 H   0  0  0  0  0  0  0  0  0  0  0  0
    0.5539    1.2033   -0.8620 H   0  0  0  0  0  0  0  0  0  0  0  0
   -0.1505   -0.3833   -2.1385 C   0  0  0  0  0  0  0  0  0  0  0  0
    0.7368   -1.0023   -2.0074 H   0  0  0  0  0  0  0  0  0  0  0  0
   -1.0221   -1.0342   -2.2065 H   0  0  0  0  0  0  0  0  0  0  0  0
   -0.0091    0.3706   -3.4607 C   0  0  0  0  0  0  0  0  0  0  0  0
   -0.0963    1.5807   -3.5537 O   0  0  0  0  0  0  0  0  0  0  0  0
    0.2267   -0.3218   -4.5540 N   0  0  0  0  0  0  0  0  0  0  0  0
    0.3114    0.2241   -5.3938 H   0  0  0  0  0  0  0  0  0  0  0  0
    0.3102   -1.3180   -4.5334 H   0  0  0  0  0  0  0  0  0  0  0  0
   -0.4062    0.7478    1.6238 C   0  0  0  0  0  0  0  0  0  0  0  0
    0.0445    0.3454    2.6947 O   0  0  0  0  0  0  0  0  0  0  0  0
   -0.8543    1.9988    1.4573 N   0  0  0  0  0  0  0  0  0  0  0  0
   -1.1862    2.2640    0.5438 H   0  0  0  0  0  0  0  0  0  0  0  0
   -0.8597    3.0107    2.5130 C   0  0  0  0  0  0  0  0  0  0  0  0
    0.1532    3.1415    2.9016 H   0  0  0  0  0  0  0  0  0  0  0  0
   -1.2209    3.9641    2.1247 H   0  0  0  0  0  0  0  0  0  0  0  0
   -1.5038    2.6856    3.3318 H   0  0  0  0  0  0  0  0  0  0  0  0
  5  6  2  0  0  0  0
  5  7  1  0  0  0  0
  2  3  1  0  0  0  0
  2  4  1  0  0  0  0
  2  5  1  0  0  0  0
  1  2  1  0  0  0  0
 22 23  2  0  0  0  0
 22 24  1  0  0  0  0
 19 20  1  0  0  0  0
 19 21  1  0  0  0  0
 17 18  2  0  0  0  0
 17 19  1  0  0  0  0
 14 15  1  0  0  0  0
 14 16  1  0  0  0  0
 14 17  1  0  0  0  0
 11 12  1  0  0  0  0
 11 13  1  0  0  0  0
 11 14  1  0  0  0  0
  9 10  1  0  0  0  0
  9 11  1  0  0  0  0
  9 22  1  0  0  0  0
  7  8  1  0  0  0  0
  7  9  1  0  0  0  0
 26 27  1  0  0  0  0
 26 28  1  0  0  0  0
 26 29  1  0  0  0  0
 24 25  1  0  0  0  0
 24 26  1  0  0  0  0
M  END
$$$$
default_name
  -OEChem-01062215323D

 29 28  0     1  0  0  0  0  0999 V2000
   -3.3998   -3.6239    1.3678 H   0  0  0  0  0  0  0  0  0  0  0  0
   -3.3608   -2.6749    0.8348 C   0  0  0  0  0  0  0  0  0  0  0  0
   -4.0988   -1.9909    1.2498 H   0  0  0  0  0  0  0  0  0  0  0  0
   -3.5618   -2.8419   -0.2222 H   0  0  0  0  0  0  0  0  0  0  0  0
   -1.9818   -2.0809    0.9918 C   0  0  0  0  0  0  0  0  0  0  0  0
   -1.1288   -2.6669    1.6468 O   0  0  0  0  0  0  0  0  0  0  0  0
   -1.7648   -0.9089    0.3998 N   0  0  0  0  0  0  0  0  0  0  0  0
   -2.5238   -0.4719   -0.1032 H   0  0  0  0  0  0  0  0  0  0  0  0
   -0.4848   -0.1959    0.4138 C   0  0  1  0  0  0  0  0  0  0  0  0
    0.3205   -0.9271    0.5018 H   0  0  0  0  0  0  0  0  0  0  0  0
   -0.3163    0.5483   -0.9252 C   0  0  0  0  0  0  0  0  0  0  0  0
   -1.2000    1.1693   -1.0864 H   0  0  0  0  0  0  0  0  0  0  0  0
    0.5539    1.2033   -0.8620 H   0  0  0  0  0  0  0  0  0  0  0  0
   -0.1505   -0.3833   -2.1385 C   0  0  0  0  0  0  0  0  0  0  0  0
    0.7368   -1.0023   -2.0074 H   0  0  0  0  0  0  0  0  0  0  0  0
   -1.0221   -1.0342   -2.2065 H   0  0  0  0  0  0  0  0  0  0  0  0
   -0.0091    0.3706   -3.4607 C   0  0  0  0  0  0  0  0  0  0  0  0
   -0.0963    1.5807   -3.5537 O   0  0  0  0  0  0  0  0  0  0  0  0
    0.2267   -0.3218   -4.5540 N   0  0  0  0  0  0  0  0  0  0  0  0
    0.3114    0.2241   -5.3938 H   0  0  0  0  0  0  0  0  0  0  0  0
    0.3102   -1.3180   -4.5334 H   0  0  0  0  0  0  0  0  0  0  0  0
   -0.4062    0.7478    1.6238 C   0  0  0  0  0  0  0  0  0  0  0  0
    0.2825    0.4498    2.5979 O   0  0  0  0  0  0  0  0  0  0  0  0
   -1.1194    1.8799    1.5673 N   0  0  0  0  0  0  0  0  0  0  0  0
   -1.6403    2.0685    0.7257 H   0  0  0  0  0  0  0  0  0  0  0  0
   -1.1605    2.8726    2.6402 C   0  0  0  0  0  0  0  0  0  0  0  0
   -0.1462    3.2095    2.8681 H   0  0  0  0  0  0  0  0  0  0  0  0
   -1.7650    3.7306    2.3422 H   0  0  0  0  0  0  0  0  0  0  0  0
   -1.5855    2.4252    3.5403 H   0  0  0  0  0  0  0  0  0  0  0  0
  5  6  2  0  0  0  0
  5  7  1  0  0  0  0
  2  3  1  0  0  0  0
  2  4  1  0  0  0  0
  2  5  1  0  0  0  0
  1  2  1  0  0  0  0
 22 23  2  0  0  0  0
 22 24  1  0  0  0  0
 19 20  1  0  0  0  0
 19 21  1  0  0  0  0
 17 18  2  0  0  0  0
 17 19  1  0  0  0  0
 14 15  1  0  0  0  0
 14 16  1  0  0  0  0
 14 17  1  0  0  0  0
 11 12  1  0  0  0  0
 11 13  1  0  0  0  0
 11 14  1  0  0  0  0
  9 10  1  0  0  0  0
  9 11  1  0  0  0  0
  9 22  1  0  0  0  0
  7  8  1  0  0  0  0
  7  9  1  0  0  0  0
 26 27  1  0  0  0  0
 26 28  1  0  0  0  0
 26 29  1  0  0  0  0
 24 25  1  0  0  0  0
 24 26  1  0  0  0  0
M  END
$$$$
default_name
  -OEChem-01062215323D

 29 28  0     1  0  0  0  0  0999 V2000
   -3.3998   -3.6239    1.3678 H   0  0  0  0  0  0  0  0  0  0  0  0
   -3.3608   -2.6749    0.8348 C   0  0  0  0  0  0  0  0  0  0  0  0
   -4.0988   -1.9909    1.2498 H   0  0  0  0  0  0  0  0  0  0  0  0
   -3.5618   -2.8419   -0.2222 H   0  0  0  0  0  0  0  0  0  0  0  0
   -1.9818   -2.0809    0.9918 C   0  0  0  0  0  0  0  0  0  0  0  0
   -1.1288   -2.6669    1.6468 O   0  0  0  0  0  0  0  0  0  0  0  0
   -1.7648   -0.9089    0.3998 N   0  0  0  0  0  0  0  0  0  0  0  0
   -2.5238   -0.4719   -0.1032 H   0  0  0  0  0  0  0  0  0  0  0  0
   -0.4848   -0.1959    0.4138 C   0  0  1  0  0  0  0  0  0  0  0  0
    0.3205   -0.9271    0.5018 H   0  0  0  0  0  0  0  0  0  0  0  0
   -0.3163    0.5483   -0.9252 C   0  0  0  0  0  0  0  0  0  0  0  0
   -1.2000    1.1693   -1.0864 H   0  0  0  0  0  0  0  0  0  0  0  0
    0.5539    1.2033   -0.8620 H   0  0  0  0  0  0  0  0  0  0  0  0
   -0.1505   -0.3833   -2.1385 C   0  0  0  0  0  0  0  0  0  0  0  0
    0.7368   -1.0023   -2.0074 H   0  0  0  0  0  0  0  0  0  0  0  0
   -1.0221   -1.0342   -2.2065 H   0  0  0  0  0  0  0  0  0  0  0  0
   -0.0091    0.3706   -3.4607 C   0  0  0  0  0  0  0  0  0  0  0  0
   -0.0963    1.5807   -3.5537 O   0  0  0  0  0  0  0  0  0  0  0  0
    0.2267   -0.3218   -4.5540 N   0  0  0  0  0  0  0  0  0  0  0  0
    0.3114    0.2241   -5.3938 H   0  0  0  0  0  0  0  0  0  0  0  0
    0.3102   -1.3180   -4.5334 H   0  0  0  0  0  0  0  0  0  0  0  0
   -0.4062    0.7478    1.6238 C   0  0  0  0  0  0  0  0  0  0  0  0
    0.4757    0.6004    2.4678 O   0  0  0  0  0  0  0  0  0  0  0  0
   -1.3337    1.7096    1.7140 N   0  0  0  0  0  0  0  0  0  0  0  0
   -2.0101    1.7847    0.9711 H   0  0  0  0  0  0  0  0  0  0  0  0
   -1.4027    2.6763    2.8091 C   0  0  0  0  0  0  0  0  0  0  0  0
   -0.4546    3.2146    2.8841 H   0  0  0  0  0  0  0  0  0  0  0  0
   -2.2084    3.3912    2.6356 H   0  0  0  0  0  0  0  0  0  0  0  0
   -1.5782    2.1542    3.7512 H   0  0  0  0  0  0  0  0  0  0  0  0
  5  6  2  0  0  0  0
  5  7  1  0  0  0  0
  2  3  1  0  0  0  0
  2  4  1  0  0  0  0
  2  5  1  0  0  0  0
  1  2  1  0  0  0  0
 22 23  2  0  0  0  0
 22 24  1  0  0  0  0
 19 20  1  0  0  0  0
 19 21  1  0  0  0  0
 17 18  2  0  0  0  0
 17 19  1  0  0  0  0
 14 15  1  0  0  0  0
 14 16  1  0  0  0  0
 14 17  1  0  0  0  0
 11 12  1  0  0  0  0
 11 13  1  0  0  0  0
 11 14  1  0  0  0  0
  9 10  1  0  0  0  0
  9 11  1  0  0  0  0
  9 22  1  0  0  0  0
  7  8  1  0  0  0  0
  7  9  1  0  0  0  0
 26 27  1  0  0  0  0
 26 28  1  0  0  0  0
 26 29  1  0  0  0  0
 24 25  1  0  0  0  0
 24 26  1  0  0  0  0
M  END
$$$$
default_name
  -OEChem-01062215323D

 29 28  0     1  0  0  0  0  0999 V2000
   -3.3998   -3.6239    1.3678 H   0  0  0  0  0  0  0  0  0  0  0  0
   -3.3608   -2.6749    0.8348 C   0  0  0  0  0  0  0  0  0  0  0  0
   -4.0988   -1.9909    1.2498 H   0  0  0  0  0  0  0  0  0  0  0  0
   -3.5618   -2.8419   -0.2222 H   0  0  0  0  0  0  0  0  0  0  0  0
   -1.9818   -2.0809    0.9918 C   0  0  0  0  0  0  0  0  0  0  0  0
   -1.1288   -2.6669    1.6468 O   0  0  0  0  0  0  0  0  0  0  0  0
   -1.7648   -0.9089    0.3998 N   0  0  0  0  0  0  0  0  0  0  0  0
   -2.5238   -0.4719   -0.1032 H   0  0  0  0  0  0  0  0  0  0  0  0
   -0.4848   -0.1959    0.4138 C   0  0  1  0  0  0  0  0  0  0  0  0
    0.3205   -0.9271    0.5018 H   0  0  0  0  0  0  0  0  0  0  0  0
   -0.3163    0.5483   -0.9252 C   0  0  0  0  0  0  0  0  0  0  0  0
   -1.2000    1.1693   -1.0864 H   0  0  0  0  0  0  0  0  0  0  0  0
    0.5539    1.2033   -0.8620 H   0  0  0  0  0  0  0  0  0  0  0  0
   -0.1505   -0.3833   -2.1385 C   0  0  0  0  0  0  0  0  0  0  0  0
    0.7368   -1.0023   -2.0074 H   0  0  0  0  0  0  0  0  0  0  0  0
   -1.0221   -1.0342   -2.2065 H   0  0  0  0  0  0  0  0  0  0  0  0
   -0.0091    0.3706   -3.4607 C   0  0  0  0  0  0  0  0  0  0  0  0
   -0.0963    1.5807   -3.5537 O   0  0  0  0  0  0  0  0  0  0  0  0
    0.2267   -0.3218   -4.5540 N   0  0  0  0  0  0  0  0  0  0  0  0
    0.3114    0.2241   -5.3938 H   0  0  0  0  0  0  0  0  0  0  0  0
    0.3102   -1.3180   -4.5334 H   0  0  0  0  0  0  0  0  0  0  0  0
   -0.4062    0.7478    1.6238 C   0  0  0  0  0  0  0  0  0  0  0  0
    0.6110    0.7870    2.3135 O   0  0  0  0  0  0  0  0  0  0  0  0
   -1.4827    1.4995    1.8876 N   0  0  0  0  0  0  0  0  0  0  0  0
   -2.2705    1.4319    1.2631 H   0  0  0  0  0  0  0  0  0  0  0  0
   -1.5697    2.4351    3.0081 C   0  0  0  0  0  0  0  0  0  0  0  0
   -0.7510    3.1564    2.9487 H   0  0  0  0  0  0  0  0  0  0  0  0
   -2.5208    2.9692    2.9851 H   0  0  0  0  0  0  0  0  0  0  0  0
   -1.4824    1.8911    3.9501 H   0  0  0  0  0  0  0  0  0  0  0  0
  5  6  2  0  0  0  0
  5  7  1  0  0  0  0
  2  3  1  0  0  0  0
  2  4  1  0  0  0  0
  2  5  1  0  0  0  0
  1  2  1  0  0  0  0
 22 23  2  0  0  0  0
 22 24  1  0  0  0  0
 19 20  1  0  0  0  0
 19 21  1  0  0  0  0
 17 18  2  0  0  0  0
 17 19  1  0  0  0  0
 14 15  1  0  0  0  0
 14 16  1  0  0  0  0
 14 17  1  0  0  0  0
 11 12  1  0  0  0  0
 11 13  1  0  0  0  0
 11 14  1  0  0  0  0
  9 10  1  0  0  0  0
  9 11  1  0  0  0  0
  9 22  1  0  0  0  0
  7  8  1  0  0  0  0
  7  9  1  0  0  0  0
 26 27  1  0  0  0  0
 26 28  1  0  0  0  0
 26 29  1  0  0  0  0
 24 25  1  0  0  0  0
 24 26  1  0  0  0  0
M  END
$$$$
default_name
  -OEChem-01062215323D

 29 28  0     1  0  0  0  0  0999 V2000
   -3.3998   -3.6239    1.3678 H   0  0  0  0  0  0  0  0  0  0  0  0
   -3.3608   -2.6749    0.8348 C   0  0  0  0  0  0  0  0  0  0  0  0
   -4.0988   -1.9909    1.2498 H   0  0  0  0  0  0  0  0  0  0  0  0
   -3.5618   -2.8419   -0.2222 H   0  0  0  0  0  0  0  0  0  0  0  0
   -1.9818   -2.0809    0.9918 C   0  0  0  0  0  0  0  0  0  0  0  0
   -1.1288   -2.6669    1.6468 O   0  0  0  0  0  0  0  0  0  0  0  0
   -1.7648   -0.9089    0.3998 N   0  0  0  0  0  0  0  0  0  0  0  0
   -2.5238   -0.4719   -0.1032 H   0  0  0  0  0  0  0  0  0  0  0  0
   -0.4848   -0.1959    0.4138 C   0  0  1  0  0  0  0  0  0  0  0  0
    0.3205   -0.9271    0.5018 H   0  0  0  0  0  0  0  0  0  0  0  0
   -0.3163    0.5483   -0.9252 C   0  0  0  0  0  0  0  0  0  0  0  0
   -1.2000    1.1693   -1.0864 H   0  0  0  0  0  0  0  0  0  0  0  0
    0.5539    1.2033   -0.8620 H   0  0  0  0  0  0  0  0  0  0  0  0
   -0.1505   -0.3833   -2.1385 C   0  0  0  0  0  0  0  0  0  0  0  0
    0.7368   -1.0023   -2.0074 H   0  0  0  0  0  0  0  0  0  0  0  0
   -1.0221   -1.0342   -2.2065 H   0  0  0  0  0  0  0  0  0  0  0  0
   -0.0091    0.3706   -3.4607 C   0  0  0  0  0  0  0  0  0  0  0  0
   -0.0963    1.5807   -3.5537 O   0  0  0  0  0  0  0  0  0  0  0  0
    0.2267   -0.3218   -4.5540 N   0  0  0  0  0  0  0  0  0  0  0  0
    0.3114    0.2241   -5.3938 H   0  0  0  0  0  0  0  0  0  0  0  0
    0.3102   -1.3180   -4.5334 H   0  0  0  0  0  0  0  0  0  0  0  0
   -0.4062    0.7478    1.6238 C   0  0  0  0  0  0  0  0  0  0  0  0
    0.6791    0.9968    2.1455 O   0  0  0  0  0  0  0  0  0  0  0  0
   -1.5562    1.2638    2.0762 N   0  0  0  0  0  0  0  0  0  0  0  0
   -2.4036    1.0343    1.5819 H   0  0  0  0  0  0  0  0  0  0  0  0
   -1.6503    2.1654    3.2237 C   0  0  0  0  0  0  0  0  0  0  0  0
   -1.0151    3.0390    3.0575 H   0  0  0  0  0  0  0  0  0  0  0  0
   -2.6810    2.4932    3.3667 H   0  0  0  0  0  0  0  0  0  0  0  0
   -1.3046    1.6539    4.1236 H   0  0  0  0  0  0  0  0  0  0  0  0
  5  6  2  0  0  0  0
  5  7  1  0  0  0  0
  2  3  1  0  0  0  0
  2  4  1  0  0  0  0
  2  5  1  0  0  0  0
  1  2  1  0  0  0  0
 22 23  2  0  0  0  0
 22 24  1  0  0  0  0
 19 20  1  0  0  0  0
 19 21  1  0  0  0  0
 17 18  2  0  0  0  0
 17 19  1  0  0  0  0
 14 15  1  0  0  0  0
 14 16  1  0  0  0  0
 14 17  1  0  0  0  0
 11 12  1  0  0  0  0
 11 13  1  0  0  0  0
 11 14  1  0  0  0  0
  9 10  1  0  0  0  0
  9 11  1  0  0  0  0
  9 22  1  0  0  0  0
  7  8  1  0  0  0  0
  7  9  1  0  0  0  0
 26 27  1  0  0  0  0
 26 28  1  0  0  0  0
 26 29  1  0  0  0  0
 24 25  1  0  0  0  0
 24 26  1  0  0  0  0
M  END
$$$$
default_name
  -OEChem-01062215323D

 29 28  0     1  0  0  0  0  0999 V2000
   -3.3998   -3.6239    1.3678 H   0  0  0  0  0  0  0  0  0  0  0  0
   -3.3608   -2.6749    0.8348 C   0  0  0  0  0  0  0  0  0  0  0  0
   -4.0988   -1.9909    1.2498 H   0  0  0  0  0  0  0  0  0  0  0  0
   -3.5618   -2.8419   -0.2222 H   0  0  0  0  0  0  0  0  0  0  0  0
   -1.9818   -2.0809    0.9918 C   0  0  0  0  0  0  0  0  0  0  0  0
   -1.1288   -2.6669    1.6468 O   0  0  0  0  0  0  0  0  0  0  0  0
   -1.7648   -0.9089    0.3998 N   0  0  0  0  0  0  0  0  0  0  0  0
   -2.5238   -0.4719   -0.1032 H   0  0  0  0  0  0  0  0  0  0  0  0
   -0.4848   -0.1959    0.4138 C   0  0  1  0  0  0  0  0  0  0  0  0
    0.3205   -0.9271    0.5018 H   0  0  0  0  0  0  0  0  0  0  0  0
   -0.3163    0.5483   -0.9252 C   0  0  0  0  0  0  0  0  0  0  0  0
   -1.2000    1.1693   -1.0864 H   0  0  0  0  0  0  0  0  0  0  0  0
    0.5539    1.2033   -0.8620 H   0  0  0  0  0  0  0  0  0  0  0  0
   -0.1505   -0.3833   -2.1385 C   0  0  0  0  0  0  0  0  0  0  0  0
    0.7368   -1.0023   -2.0074 H   0  0  0  0  0  0  0  0  0  0  0  0
   -1.0221   -1.0342   -2.2065 H   0  0  0  0  0  0  0  0  0  0  0  0
   -0.0091    0.3706   -3.4607 C   0  0  0  0  0  0  0  0  0  0  0  0
   -0.0963    1.5807   -3.5537 O   0  0  0  0  0  0  0  0  0  0  0  0
    0.2267   -0.3218   -4.5540 N   0  0  0  0  0  0  0  0  0  0  0  0
    0.3114    0.2241   -5.3938 H   0  0  0  0  0  0  0  0  0  0  0  0
    0.3102   -1.3180   -4.5334 H   0  0  0  0  0  0  0  0  0  0  0  0
   -0.4062    0.7478    1.6238 C   0  0  0  0  0  0  0  0  0  0  0  0
    0.6754    1.2156    1.9751 O   0  0  0  0  0  0  0  0  0  0  0  0
   -1.5492    1.0187    2.2669 N   0  0  0  0  0  0  0  0  0  0  0  0
   -2.4005    0.6189    1.9058 H   0  0  0  0  0  0  0  0  0  0  0  0
   -1.6389    1.8856    3.4411 C   0  0  0  0  0  0  0  0  0  0  0  0
   -1.2291    2.8703    3.2030 H   0  0  0  0  0  0  0  0  0  0  0  0
   -2.6781    1.9958    3.7546 H   0  0  0  0  0  0  0  0  0  0  0  0
   -1.0569    1.4588    4.2598 H   0  0  0  0  0  0  0  0  0  0  0  0
  5  6  2  0  0  0  0
  5  7  1  0  0  0  0
  2  3  1  0  0  0  0
  2  4  1  0  0  0  0
  2  5  1  0  0  0  0
  1  2  1  0  0  0  0
 22 23  2  0  0  0  0
 22 24  1  0  0  0  0
 19 20  1  0  0  0  0
 19 21  1  0  0  0  0
 17 18  2  0  0  0  0
 17 19  1  0  0  0  0
 14 15  1  0  0  0  0
 14 16  1  0  0  0  0
 14 17  1  0  0  0  0
 11 12  1  0  0  0  0
 11 13  1  0  0  0  0
 11 14  1  0  0  0  0
  9 10  1  0  0  0  0
  9 11  1  0  0  0  0
  9 22  1  0  0  0  0
  7  8  1  0  0  0  0
  7  9  1  0  0  0  0
 26 27  1  0  0  0  0
 26 28  1  0  0  0  0
 26 29  1  0  0  0  0
 24 25  1  0  0  0  0
 24 26  1  0  0  0  0
M  END
$$$$
default_name
  -OEChem-01062215323D

 29 28  0     1  0  0  0  0  0999 V2000
   -3.3998   -3.6239    1.3678 H   0  0  0  0  0  0  0  0  0  0  0  0
   -3.3608   -2.6749    0.8348 C   0  0  0  0  0  0  0  0  0  0  0  0
   -4.0988   -1.9909    1.2498 H   0  0  0  0  0  0  0  0  0  0  0  0
   -3.5618   -2.8419   -0.2222 H   0  0  0  0  0  0  0  0  0  0  0  0
   -1.9818   -2.0809    0.9918 C   0  0  0  0  0  0  0  0  0  0  0  0
   -1.1288   -2.6669    1.6468 O   0  0  0  0  0  0  0  0  0  0  0  0
   -1.7648   -0.9089    0.3998 N   0  0  0  0  0  0  0  0  0  0  0  0
   -2.5238   -0.4719   -0.1032 H   0  0  0  0  0  0  0  0  0  0  0  0
   -0.4848   -0.1959    0.4138 C   0  0  1  0  0  0  0  0  0  0  0  0
    0.3205   -0.9271    0.5018 H   0  0  0  0  0  0  0  0  0  0  0  0
   -0.3163    0.5483   -0.9252 C   0  0  0  0  0  0  0  0  0  0  0  0
   -1.2000    1.1693   -1.0864 H   0  0  0  0  0  0  0  0  0  0  0  0
    0.5539    1.2033   -0.8620 H   0  0  0  0  0  0  0  0  0  0  0  0
   -0.1505   -0.3833   -2.1385 C   0  0  0  0  0  0  0  0  0  0  0  0
    0.7368   -1.0023   -2.0074 H   0  0  0  0  0  0  0  0  0  0  0  0
   -1.0221   -1.0342   -2.2065 H   0  0  0  0  0  0  0  0  0  0  0  0
   -0.0091    0.3706   -3.4607 C   0  0  0  0  0  0  0  0  0  0  0  0
   -0.0963    1.5807   -3.5537 O   0  0  0  0  0  0  0  0  0  0  0  0
    0.2267   -0.3218   -4.5540 N   0  0  0  0  0  0  0  0  0  0  0  0
    0.3114    0.2241   -5.3938 H   0  0  0  0  0  0  0  0  0  0  0  0
    0.3102   -1.3180   -4.5334 H   0  0  0  0  0  0  0  0  0  0  0  0
   -0.4062    0.7478    1.6238 C   0  0  0  0  0  0  0  0  0  0  0  0
    0.6001    1.4284    1.8140 O   0  0  0  0  0  0  0  0  0  0  0  0
   -1.4621    0.7809    2.4468 N   0  0  0  0  0  0  0  0  0  0  0  0
   -2.2614    0.2139    2.2126 H   0  0  0  0  0  0  0  0  0  0  0  0
   -1.5362    1.6148    3.6457 C   0  0  0  0  0  0  0  0  0  0  0  0
   -1.3782    2.6618    3.3753 H   0  0  0  0  0  0  0  0  0  0  0  0
   -2.5123    1.5108    4.1221 H   0  0  0  0  0  0  0  0  0  0  0  0
   -0.7563    1.3189    4.3493 H   0  0  0  0  0  0  0  0  0  0  0  0
  5  6  2  0  0  0  0
  5  7  1  0  0  0  0
  2  3  1  0  0  0  0
  2  4  1  0  0  0  0
  2  5  1  0  0  0  0
  1  2  1  0  0  0  0
 22 23  2  0  0  0  0
 22 24  1  0  0  0  0
 19 20  1  0  0  0  0
 19 21  1  0  0  0  0
 17 18  2  0  0  0  0
 17 19  1  0  0  0  0
 14 15  1  0  0  0  0
 14 16  1  0  0  0  0
 14 17  1  0  0  0  0
 11 12  1  0  0  0  0
 11 13  1  0  0  0  0
 11 14  1  0  0  0  0
  9 10  1  0  0  0  0
  9 11  1  0  0  0  0
  9 22  1  0  0  0  0
  7  8  1  0  0  0  0
  7  9  1  0  0  0  0
 26 27  1  0  0  0  0
 26 28  1  0  0  0  0
 26 29  1  0  0  0  0
 24 25  1  0  0  0  0
 24 26  1  0  0  0  0
M  END
$$$$
default_name
  -OEChem-01062215323D

 29 28  0     1  0  0  0  0  0999 V2000
   -3.3998   -3.6239    1.3678 H   0  0  0  0  0  0  0  0  0  0  0  0
   -3.3608   -2.6749    0.8348 C   0  0  0  0  0  0  0  0  0  0  0  0
   -4.0988   -1.9909    1.2498 H   0  0  0  0  0  0  0  0  0  0  0  0
   -3.5618   -2.8419   -0.2222 H   0  0  0  0  0  0  0  0  0  0  0  0
   -1.9818   -2.0809    0.9918 C   0  0  0  0  0  0  0  0  0  0  0  0
   -1.1288   -2.6669    1.6468 O   0  0  0  0  0  0  0  0  0  0  0  0
   -1.7648   -0.9089    0.3998 N   0  0  0  0  0  0  0  0  0  0  0  0
   -2.5238   -0.4719   -0.1032 H   0  0  0  0  0  0  0  0  0  0  0  0
   -0.4848   -0.1959    0.4138 C   0  0  1  0  0  0  0  0  0  0  0  0
    0.3205   -0.9271    0.5018 H   0  0  0  0  0  0  0  0  0  0  0  0
   -0.3163    0.5483   -0.9252 C   0  0  0  0  0  0  0  0  0  0  0  0
   -1.2000    1.1693   -1.0864 H   0  0  0  0  0  0  0  0  0  0  0  0
    0.5539    1.2033   -0.8620 H   0  0  0  0  0  0  0  0  0  0  0  0
   -0.1505   -0.3833   -2.1385 C   0  0  0  0  0  0  0  0  0  0  0  0
    0.7368   -1.0023   -2.0074 H   0  0  0  0  0  0  0  0  0  0  0  0
   -1.0221   -1.0342   -2.2065 H   0  0  0  0  0  0  0  0  0  0  0  0
   -0.0091    0.3706   -3.4607 C   0  0  0  0  0  0  0  0  0  0  0  0
   -0.0963    1.5807   -3.5537 O   0  0  0  0  0  0  0  0  0  0  0  0
    0.2267   -0.3218   -4.5540 N   0  0  0  0  0  0  0  0  0  0  0  0
    0.3114    0.2241   -5.3938 H   0  0  0  0  0  0  0  0  0  0  0  0
    0.3102   -1.3180   -4.5334 H   0  0  0  0  0  0  0  0  0  0  0  0
   -0.4062    0.7478    1.6238 C   0  0  0  0  0  0  0  0  0  0  0  0
    0.4585    1.6207    1.6731 O   0  0  0  0  0  0  0  0  0  0  0  0
   -1.3010    0.5665    2.6035 N   0  0  0  0  0  0  0  0  0  0  0  0
   -1.9957   -0.1530    2.4815 H   0  0  0  0  0  0  0  0  0  0  0  0
   -1.3494    1.3715    3.8234 C   0  0  0  0  0  0  0  0  0  0  0  0
   -1.4524    2.4277    3.5626 H   0  0  0  0  0  0  0  0  0  0  0  0
   -2.1948    1.0712    4.4444 H   0  0  0  0  0  0  0  0  0  0  0  0
   -0.4232    1.2440    4.3862 H   0  0  0  0  0  0  0  0  0  0  0  0
  5  6  2  0  0  0  0
  5  7  1  0  0  0  0
  2  3  1  0  0  0  0
  2  4  1  0  0  0  0
  2  5  1  0  0  0  0
  1  2  1  0  0  0  0
 22 23  2  0  0  0  0
 22 24  1  0  0  0  0
 19 20  1  0  0  0  0
 19 21  1  0  0  0  0
 17 18  2  0  0  0  0
 17 19  1  0  0  0  0
 14 15  1  0  0  0  0
 14 16  1  0  0  0  0
 14 17  1  0  0  0  0
 11 12  1  0  0  0  0
 11 13  1  0  0  0  0
 11 14  1  0  0  0  0
  9 10  1  0  0  0  0
  9 11  1  0  0  0  0
  9 22  1  0  0  0  0
  7  8  1  0  0  0  0
  7  9  1  0  0  0  0
 26 27  1  0  0  0  0
 26 28  1  0  0  0  0
 26 29  1  0  0  0  0
 24 25  1  0  0  0  0
 24 26  1  0  0  0  0
M  END
$$$$
default_name
  -OEChem-01062215323D

 29 28  0     1  0  0  0  0  0999 V2000
   -3.3998   -3.6239    1.3678 H   0  0  0  0  0  0  0  0  0  0  0  0
   -3.3608   -2.6749    0.8348 C   0  0  0  0  0  0  0  0  0  0  0  0
   -4.0988   -1.9909    1.2498 H   0  0  0  0  0  0  0  0  0  0  0  0
   -3.5618   -2.8419   -0.2222 H   0  0  0  0  0  0  0  0  0  0  0  0
   -1.9818   -2.0809    0.9918 C   0  0  0  0  0  0  0  0  0  0  0  0
   -1.1288   -2.6669    1.6468 O   0  0  0  0  0  0  0  0  0  0  0  0
   -1.7648   -0.9089    0.3998 N   0  0  0  0  0  0  0  0  0  0  0  0
   -2.5238   -0.4719   -0.1032 H   0  0  0  0  0  0  0  0  0  0  0  0
   -0.4848   -0.1959    0.4138 C   0  0  1  0  0  0  0  0  0  0  0  0
    0.3205   -0.9271    0.5018 H   0  0  0  0  0  0  0  0  0  0  0  0
   -0.3163    0.5483   -0.9252 C   0  0  0  0  0  0  0  0  0  0  0  0
   -1.2000    1.1693   -1.0864 H   0  0  0  0  0  0  0  0  0  0  0  0
    0.5539    1.2033   -0.8620 H   0  0  0  0  0  0  0  0  0  0  0  0
   -0.1505   -0.3833   -2.1385 C   0  0  0  0  0  0  0  0  0  0  0  0
    0.7368   -1.0023   -2.0074 H   0  0  0  0  0  0  0  0  0  0  0  0
   -1.0221   -1.0342   -2.2065 H   0  0  0  0  0  0  0  0  0  0  0  0
   -0.0091    0.3706   -3.4607 C   0  0  0  0  0  0  0  0  0  0  0  0
   -0.0963    1.5807   -3.5537 O   0  0  0  0  0  0  0  0  0  0  0  0
    0.2267   -0.3218   -4.5540 N   0  0  0  0  0  0  0  0  0  0  0  0
    0.3114    0.2241   -5.3938 H   0  0  0  0  0  0  0  0  0  0  0  0
    0.3102   -1.3180   -4.5334 H   0  0  0  0  0  0  0  0  0  0  0  0
   -0.4062    0.7478    1.6238 C   0  0  0  0  0  0  0  0  0  0  0  0
    0.2600    1.7795    1.5621 O   0  0  0  0  0  0  0  0  0  0  0  0
   -1.0767    0.3902    2.7265 N   0  0  0  0  0  0  0  0  0  0  0  0
   -1.6215   -0.4567    2.6941 H   0  0  0  0  0  0  0  0  0  0  0  0
   -1.0911    1.1721    3.9621 C   0  0  0  0  0  0  0  0  0  0  0  0
   -1.4465    2.1840    3.7523 H   0  0  0  0  0  0  0  0  0  0  0  0
   -1.7473    0.7070    4.6993 H   0  0  0  0  0  0  0  0  0  0  0  0
   -0.0802    1.2389    4.3678 H   0  0  0  0  0  0  0  0  0  0  0  0
  5  6  2  0  0  0  0
  5  7  1  0  0  0  0
  2  3  1  0  0  0  0
  2  4  1  0  0  0  0
  2  5  1  0  0  0  0
  1  2  1  0  0  0  0
 22 23  2  0  0  0  0
 22 24  1  0  0  0  0
 19 20  1  0  0  0  0
 19 21  1  0  0  0  0
 17 18  2  0  0  0  0
 17 19  1  0  0  0  0
 14 15  1  0  0  0  0
 14 16  1  0  0  0  0
 14 17  1  0  0  0  0
 11 12  1  0  0  0  0
 11 13  1  0  0  0  0
 11 14  1  0  0  0  0
  9 10  1  0  0  0  0
  9 11  1  0  0  0  0
  9 22  1  0  0  0  0
  7  8  1  0  0  0  0
  7  9  1  0  0  0  0
 26 27  1  0  0  0  0
 26 28  1  0  0  0  0
 26 29  1  0  0  0  0
 24 25  1  0  0  0  0
 24 26  1  0  0  0  0
M  END
$$$$
default_name
  -OEChem-01062215323D

 29 28  0     1  0  0  0  0  0999 V2000
   -3.3998   -3.6239    1.3678 H   0  0  0  0  0  0  0  0  0  0  0  0
   -3.3608   -2.6749    0.8348 C   0  0  0  0  0  0  0  0  0  0  0  0
   -4.0988   -1.9909    1.2498 H   0  0  0  0  0  0  0  0  0  0  0  0
   -3.5618   -2.8419   -0.2222 H   0  0  0  0  0  0  0  0  0  0  0  0
   -1.9818   -2.0809    0.9918 C   0  0  0  0  0  0  0  0  0  0  0  0
   -1.1288   -2.6669    1.6468 O   0  0  0  0  0  0  0  0  0  0  0  0
   -1.7648   -0.9089    0.3998 N   0  0  0  0  0  0  0  0  0  0  0  0
   -2.5238   -0.4719   -0.1032 H   0  0  0  0  0  0  0  0  0  0  0  0
   -0.4848   -0.1959    0.4138 C   0  0  1  0  0  0  0  0  0  0  0  0
    0.3205   -0.9271    0.5018 H   0  0  0  0  0  0  0  0  0  0  0  0
   -0.3163    0.5483   -0.9252 C   0  0  0  0  0  0  0  0  0  0  0  0
   -1.2000    1.1693   -1.0864 H   0  0  0  0  0  0  0  0  0  0  0  0
    0.5539    1.2033   -0.8620 H   0  0  0  0  0  0  0  0  0  0  0  0
   -0.1505   -0.3833   -2.1385 C   0  0  0  0  0  0  0  0  0  0  0  0
    0.7368   -1.0023   -2.0074 H   0  0  0  0  0  0  0  0  0  0  0  0
   -1.0221   -1.0342   -2.2065 H   0  0  0  0  0  0  0  0  0  0  0  0
   -0.0091    0.3706   -3.4607 C   0  0  0  0  0  0  0  0  0  0  0  0
   -0.0963    1.5807   -3.5537 O   0  0  0  0  0  0  0  0  0  0  0  0
    0.2267   -0.3218   -4.5540 N   0  0  0  0  0  0  0  0  0  0  0  0
    0.3114    0.2241   -5.3938 H   0  0  0  0  0  0  0  0  0  0  0  0
    0.3102   -1.3180   -4.5334 H   0  0  0  0  0  0  0  0  0  0  0  0
   -0.4062    0.7478    1.6238 C   0  0  0  0  0  0  0  0  0  0  0  0
    0.0183    1.8939    1.4886 O   0  0  0  0  0  0  0  0  0  0  0  0
   -0.8046    0.2640    2.8073 N   0  0  0  0  0  0  0  0  0  0  0  0
   -1.1644   -0.6767    2.8360 H   0  0  0  0  0  0  0  0  0  0  0  0
   -0.7789    1.0304    4.0524 C   0  0  0  0  0  0  0  0  0  0  0  0
   -1.3610    1.9473    3.9314 H   0  0  0  0  0  0  0  0  0  0  0  0
   -1.2003    0.4431    4.8697 H   0  0  0  0  0  0  0  0  0  0  0  0
    0.2491    1.3042    4.2955 H   0  0  0  0  0  0  0  0  0  0  0  0
  5  6  2  0  0  0  0
  5  7  1  0  0  0  0
  2  3  1  0  0  0  0
  2  4  1  0  0  0  0
  2  5  1  0  0  0  0
  1  2  1  0  0  0  0
 22 23  2  0  0  0  0
 22 24  1  0  0  0  0
 19 20  1  0  0  0  0
 19 21  1  0  0  0  0
 17 18  2  0  0  0  0
 17 19  1  0  0  0  0
 14 15  1  0  0  0  0
 14 16  1  0  0  0  0
 14 17  1  0  0  0  0
 11 12  1  0  0  0  0
 11 13  1  0  0  0  0
 11 14  1  0  0  0  0
  9 10  1  0  0  0  0
  9 11  1  0  0  0  0
  9 22  1  0  0  0  0
  7  8  1  0  0  0  0
  7  9  1  0  0  0  0
 26 27  1  0  0  0  0
 26 28  1  0  0  0  0
 26 29  1  0  0  0  0
 24 25  1  0  0  0  0
 24 26  1  0  0  0  0
M  END
$$$$
default_name
  -OEChem-01062215323D

 29 28  0     1  0  0  0  0  0999 V2000
   -3.3998   -3.6239    1.3678 H   0  0  0  0  0  0  0  0  0  0  0  0
   -3.3608   -2.6749    0.8348 C   0  0  0  0  0  0  0  0  0  0  0  0
   -4.0988   -1.9909    1.2498 H   0  0  0  0  0  0  0  0  0  0  0  0
   -3.5618   -2.8419   -0.2222 H   0  0  0  0  0  0  0  0  0  0  0  0
   -1.9818   -2.0809    0.9918 C   0  0  0  0  0  0  0  0  0  0  0  0
   -1.1288   -2.6669    1.6468 O   0  0  0  0  0  0  0  0  0  0  0  0
   -1.7648   -0.9089    0.3998 N   0  0  0  0  0  0  0  0  0  0  0  0
   -2.5238   -0.4719   -0.1032 H   0  0  0  0  0  0  0  0  0  0  0  0
   -0.4848   -0.1959    0.4138 C   0  0  1  0  0  0  0  0  0  0  0  0
    0.3205   -0.9271    0.5018 H   0  0  0  0  0  0  0  0  0  0  0  0
   -0.3163    0.5483   -0.9252 C   0  0  0  0  0  0  0  0  0  0  0  0
   -1.2000    1.1693   -1.0864 H   0  0  0  0  0  0  0  0  0  0  0  0
    0.5539    1.2033   -0.8620 H   0  0  0  0  0  0  0  0  0  0  0  0
   -0.1505   -0.3833   -2.1385 C   0  0  0  0  0  0  0  0  0  0  0  0
    0.7368   -1.0023   -2.0074 H   0  0  0  0  0  0  0  0  0  0  0  0
   -1.0221   -1.0342   -2.2065 H   0  0  0  0  0  0  0  0  0  0  0  0
   -0.0091    0.3706   -3.4607 C   0  0  0  0  0  0  0  0  0  0  0  0
   -0.0963    1.5807   -3.5537 O   0  0  0  0  0  0  0  0  0  0  0  0
    0.2267   -0.3218   -4.5540 N   0  0  0  0  0  0  0  0  0  0  0  0
    0.3114    0.2241   -5.3938 H   0  0  0  0  0  0  0  0  0  0  0  0
    0.3102   -1.3180   -4.5334 H   0  0  0  0  0  0  0  0  0  0  0  0
   -0.4062    0.7478    1.6238 C   0  0  0  0  0  0  0  0  0  0  0  0
   -0.2501    1.9562    1.4575 O   0  0  0  0  0  0  0  0  0  0  0  0
   -0.5032    0.1965    2.8403 N   0  0  0  0  0  0  0  0  0  0  0  0
   -0.6554   -0.7978    2.8975 H   0  0  0  0  0  0  0  0  0  0  0  0
   -0.4341    0.9559    4.0881 C   0  0  0  0  0  0  0  0  0  0  0  0
   -1.2018    1.7337    4.0877 H   0  0  0  0  0  0  0  0  0  0  0  0
   -0.5911    0.2975    4.9437 H   0  0  0  0  0  0  0  0  0  0  0  0
    0.5424    1.4354    4.1742 H   0  0  0  0  0  0  0  0  0  0  0  0
  5  6  2  0  0  0  0
  5  7  1  0  0  0  0
  2  3  1  0  0  0  0
  2  4  1  0  0  0  0
  2  5  1  0  0  0  0
  1  2  1  0  0  0  0
 22 23  2  0  0  0  0
 22 24  1  0  0  0  0
 19 20  1  0  0  0  0
 19 21  1  0  0  0  0
 17 18  2  0  0  0  0
 17 19  1  0  0  0  0
 14 15  1  0  0  0  0
 14 16  1  0  0  0  0
 14 17  1  0  0  0  0
 11 12  1  0  0  0  0
 11 13  1  0  0  0  0
 11 14  1  0  0  0  0
  9 10  1  0  0  0  0
  9 11  1  0  0  0  0
  9 22  1  0  0  0  0
  7  8  1  0  0  0  0
  7  9  1  0  0  0  0
 26 27  1  0  0  0  0
 26 28  1  0  0  0  0
 26 29  1  0  0  0  0
 24 25  1  0  0  0  0
 24 26  1  0  0  0  0
M  END
$$$$
default_name
  -OEChem-01062215323D

 29 28  0     1  0  0  0  0  0999 V2000
   -3.3998   -3.6239    1.3678 H   0  0  0  0  0  0  0  0  0  0  0  0
   -3.3608   -2.6749    0.8348 C   0  0  0  0  0  0  0  0  0  0  0  0
   -4.0988   -1.9909    1.2498 H   0  0  0  0  0  0  0  0  0  0  0  0
   -3.5618   -2.8419   -0.2222 H   0  0  0  0  0  0  0  0  0  0  0  0
   -1.9818   -2.0809    0.9918 C   0  0  0  0  0  0  0  0  0  0  0  0
   -1.1288   -2.6669    1.6468 O   0  0  0  0  0  0  0  0  0  0  0  0
   -1.7648   -0.9089    0.3998 N   0  0  0  0  0  0  0  0  0  0  0  0
   -2.5238   -0.4719   -0.1032 H   0  0  0  0  0  0  0  0  0  0  0  0
   -0.4848   -0.1959    0.4138 C   0  0  1  0  0  0  0  0  0  0  0  0
    0.3205   -0.9271    0.5018 H   0  0  0  0  0  0  0  0  0  0  0  0
   -0.3163    0.5483   -0.9252 C   0  0  0  0  0  0  0  0  0  0  0  0
   -1.2000    1.1693   -1.0864 H   0  0  0  0  0  0  0  0  0  0  0  0
    0.5539    1.2033   -0.8620 H   0  0  0  0  0  0  0  0  0  0  0  0
   -0.1505   -0.3833   -2.1385 C   0  0  0  0  0  0  0  0  0  0  0  0
    0.7368   -1.0023   -2.0074 H   0  0  0  0  0  0  0  0  0  0  0  0
   -1.0221   -1.0342   -2.2065 H   0  0  0  0  0  0  0  0  0  0  0  0
   -0.0091    0.3706   -3.4607 C   0  0  0  0  0  0  0  0  0  0  0  0
   -0.0963    1.5807   -3.5537 O   0  0  0  0  0  0  0  0  0  0  0  0
    0.2267   -0.3218   -4.5540 N   0  0  0  0  0  0  0  0  0  0  0  0
    0.3114    0.2241   -5.3938 H   0  0  0  0  0  0  0  0  0  0  0  0
    0.3102   -1.3180   -4.5334 H   0  0  0  0  0  0  0  0  0  0  0  0
   -0.4062    0.7478    1.6238 C   0  0  0  0  0  0  0  0  0  0  0  0
   -0.5271    1.9619    1.4709 O   0  0  0  0  0  0  0  0  0  0  0  0
   -0.1931    0.1923    2.8235 N   0  0  0  0  0  0  0  0  0  0  0  0
   -0.1293   -0.8120    2.8743 H   0  0  0  0  0  0  0  0  0  0  0  0
   -0.0802    0.9538    4.0667 C   0  0  0  0  0  0  0  0  0  0  0  0
   -0.9795    1.5578    4.2104 H   0  0  0  0  0  0  0  0  0  0  0  0
    0.0389    0.2799    4.9165 H   0  0  0  0  0  0  0  0  0  0  0  0
    0.7798    1.6234    4.0121 H   0  0  0  0  0  0  0  0  0  0  0  0
  5  6  2  0  0  0  0
  5  7  1  0  0  0  0
  2  3  1  0  0  0  0
  2  4  1  0  0  0  0
  2  5  1  0  0  0  0
  1  2  1  0  0  0  0
 22 23  2  0  0  0  0
 22 24  1  0  0  0  0
 19 20  1  0  0  0  0
 19 21  1  0  0  0  0
 17 18  2  0  0  0  0
 17 19  1  0  0  0  0
 14 15  1  0  0  0  0
 14 16  1  0  0  0  0
 14 17  1  0  0  0  0
 11 12  1  0  0  0  0
 11 13  1  0  0  0  0
 11 14  1  0  0  0  0
  9 10  1  0  0  0  0
  9 11  1  0  0  0  0
  9 22  1  0  0  0  0
  7  8  1  0  0  0  0
  7  9  1  0  0  0  0
 26 27  1  0  0  0  0
 26 28  1  0  0  0  0
 26 29  1  0  0  0  0
 24 25  1  0  0  0  0
 24 26  1  0  0  0  0
M  END
$$$$
default_name
  -OEChem-01062215323D

 29 28  0     1  0  0  0  0  0999 V2000
   -3.3998   -3.6239    1.3678 H   0  0  0  0  0  0  0  0  0  0  0  0
   -3.3608   -2.6749    0.8348 C   0  0  0  0  0  0  0  0  0  0  0  0
   -4.0988   -1.9909    1.2498 H   0  0  0  0  0  0  0  0  0  0  0  0
   -3.5618   -2.8419   -0.2222 H   0  0  0  0  0  0  0  0  0  0  0  0
   -1.9818   -2.0809    0.9918 C   0  0  0  0  0  0  0  0  0  0  0  0
   -1.1288   -2.6669    1.6468 O   0  0  0  0  0  0  0  0  0  0  0  0
   -1.7648   -0.9089    0.3998 N   0  0  0  0  0  0  0  0  0  0  0  0
   -2.5238   -0.4719   -0.1032 H   0  0  0  0  0  0  0  0  0  0  0  0
   -0.4848   -0.1959    0.4138 C   0  0  1  0  0  0  0  0  0  0  0  0
    0.3205   -0.9271    0.5018 H   0  0  0  0  0  0  0  0  0  0  0  0
   -0.3163    0.5483   -0.9252 C   0  0  0  0  0  0  0  0  0  0  0  0
   -1.2000    1.1693   -1.0864 H   0  0  0  0  0  0  0  0  0  0  0  0
    0.5539    1.2033   -0.8620 H   0  0  0  0  0  0  0  0  0  0  0  0
   -0.1505   -0.3833   -2.1385 C   0  0  0  0  0  0  0  0  0  0  0  0
    0.7368   -1.0023   -2.0074 H   0  0  0  0  0  0  0  0  0  0  0  0
   -1.0221   -1.0342   -2.2065 H   0  0  0  0  0  0  0  0  0  0  0  0
   -0.0091    0.3706   -3.4607 C   0  0  0  0  0  0  0  0  0  0  0  0
   -0.0963    1.5807   -3.5537 O   0  0  0  0  0  0  0  0  0  0  0  0
    0.2267   -0.3218   -4.5540 N   0  0  0  0  0  0  0  0  0  0  0  0
    0.3114    0.2241   -5.3938 H   0  0  0  0  0  0  0  0  0  0  0  0
    0.3102   -1.3180   -4.5334 H   0  0  0  0  0  0  0  0  0  0  0  0
   -0.4062    0.7478    1.6238 C   0  0  0  0  0  0  0  0  0  0  0  0
   -0.7936    1.9109    1.5281 O   0  0  0  0  0  0  0  0  0  0  0  0
    0.1047    0.2516    2.7579 N   0  0  0  0  0  0  0  0  0  0  0  0
    0.3780   -0.7181    2.7682 H   0  0  0  0  0  0  0  0  0  0  0  0
    0.2586    1.0242    3.9899 C   0  0  0  0  0  0  0  0  0  0  0  0
   -0.7095    1.4316    4.2914 H   0  0  0  0  0  0  0  0  0  0  0  0
    0.6466    0.3918    4.7898 H   0  0  0  0  0  0  0  0  0  0  0  0
    0.9449    1.8556    3.8203 H   0  0  0  0  0  0  0  0  0  0  0  0
  5  6  2  0  0  0  0
  5  7  1  0  0  0  0
  2  3  1  0  0  0  0
  2  4  1  0  0  0  0
  2  5  1  0  0  0  0
  1  2  1  0  0  0  0
 22 23  2  0  0  0  0
 22 24  1  0  0  0  0
 19 20  1  0  0  0  0
 19 21  1  0  0  0  0
 17 18  2  0  0  0  0
 17 19  1  0  0  0  0
 14 15  1  0  0  0  0
 14 16  1  0  0  0  0
 14 17  1  0  0  0  0
 11 12  1  0  0  0  0
 11 13  1  0  0  0  0
 11 14  1  0  0  0  0
  9 10  1  0  0  0  0
  9 11  1  0  0  0  0
  9 22  1  0  0  0  0
  7  8  1  0  0  0  0
  7  9  1  0  0  0  0
 26 27  1  0  0  0  0
 26 28  1  0  0  0  0
 26 29  1  0  0  0  0
 24 25  1  0  0  0  0
 24 26  1  0  0  0  0
M  END
$$$$
default_name
  -OEChem-01062215323D

 29 28  0     1  0  0  0  0  0999 V2000
   -3.3998   -3.6239    1.3678 H   0  0  0  0  0  0  0  0  0  0  0  0
   -3.3608   -2.6749    0.8348 C   0  0  0  0  0  0  0  0  0  0  0  0
   -4.0988   -1.9909    1.2498 H   0  0  0  0  0  0  0  0  0  0  0  0
   -3.5618   -2.8419   -0.2222 H   0  0  0  0  0  0  0  0  0  0  0  0
   -1.9818   -2.0809    0.9918 C   0  0  0  0  0  0  0  0  0  0  0  0
   -1.1288   -2.6669    1.6468 O   0  0  0  0  0  0  0  0  0  0  0  0
   -1.7648   -0.9089    0.3998 N   0  0  0  0  0  0  0  0  0  0  0  0
   -2.5238   -0.4719   -0.1032 H   0  0  0  0  0  0  0  0  0  0  0  0
   -0.4848   -0.1959    0.4138 C   0  0  1  0  0  0  0  0  0  0  0  0
    0.3205   -0.9271    0.5018 H   0  0  0  0  0  0  0  0  0  0  0  0
   -0.3163    0.5483   -0.9252 C   0  0  0  0  0  0  0  0  0  0  0  0
   -1.2000    1.1693   -1.0864 H   0  0  0  0  0  0  0  0  0  0  0  0
    0.5539    1.2033   -0.8620 H   0  0  0  0  0  0  0  0  0  0  0  0
   -0.1505   -0.3833   -2.1385 C   0  0  0  0  0  0  0  0  0  0  0  0
    0.7368   -1.0023   -2.0074 H   0  0  0  0  0  0  0  0  0  0  0  0
   -1.0221   -1.0342   -2.2065 H   0  0  0  0  0  0  0  0  0  0  0  0
   -0.0091    0.3706   -3.4607 C   0  0  0  0  0  0  0  0  0  0  0  0
   -0.0963    1.5807   -3.5537 O   0  0  0  0  0  0  0  0  0  0  0  0
    0.2267   -0.3218   -4.5540 N   0  0  0  0  0  0  0  0  0  0  0  0
    0.3114    0.2241   -5.3938 H   0  0  0  0  0  0  0  0  0  0  0  0
    0.3102   -1.3180   -4.5334 H   0  0  0  0  0  0  0  0  0  0  0  0
   -0.4062    0.7478    1.6238 C   0  0  0  0  0  0  0  0  0  0  0  0
   -1.0316    1.8066    1.6249 O   0  0  0  0  0  0  0  0  0  0  0  0
    0.3698    0.3705    2.6479 N   0  0  0  0  0  0  0  0  0  0  0  0
    0.8321   -0.5226    2.5862 H   0  0  0  0  0  0  0  0  0  0  0  0
    0.5594    1.1622    3.8627 C   0  0  0  0  0  0  0  0  0  0  0  0
   -0.4101    1.3636    4.3250 H   0  0  0  0  0  0  0  0  0  0  0  0
    1.1907    0.6253    4.5724 H   0  0  0  0  0  0  0  0  0  0  0  0
    1.0266    2.1160    3.6118 H   0  0  0  0  0  0  0  0  0  0  0  0
  5  6  2  0  0  0  0
  5  7  1  0  0  0  0
  2  3  1  0  0  0  0
  2  4  1  0  0  0  0
  2  5  1  0  0  0  0
  1  2  1  0  0  0  0
 22 23  2  0  0  0  0
 22 24  1  0  0  0  0
 19 20  1  0  0  0  0
 19 21  1  0  0  0  0
 17 18  2  0  0  0  0
 17 19  1  0  0  0  0
 14 15  1  0  0  0  0
 14 16  1  0  0  0  0
 14 17  1  0  0  0  0
 11 12  1  0  0  0  0
 11 13  1  0  0  0  0
 11 14  1  0  0  0  0
  9 10  1  0  0  0  0
  9 11  1  0  0  0  0
  9 22  1  0  0  0  0
  7  8  1  0  0  0  0
  7  9  1  0  0  0  0
 26 27  1  0  0  0  0
 26 28  1  0  0  0  0
 26 29  1  0  0  0  0
 24 25  1  0  0  0  0
 24 26  1  0  0  0  0
M  END
$$$$
default_name
  -OEChem-01062215323D

 29 28  0     1  0  0  0  0  0999 V2000
   -3.3998   -3.6239    1.3678 H   0  0  0  0  0  0  0  0  0  0  0  0
   -3.3608   -2.6749    0.8348 C   0  0  0  0  0  0  0  0  0  0  0  0
   -4.0988   -1.9909    1.2498 H   0  0  0  0  0  0  0  0  0  0  0  0
   -3.5618   -2.8419   -0.2222 H   0  0  0  0  0  0  0  0  0  0  0  0
   -1.9818   -2.0809    0.9918 C   0  0  0  0  0  0  0  0  0  0  0  0
   -1.1288   -2.6669    1.6468 O   0  0  0  0  0  0  0  0  0  0  0  0
   -1.7648   -0.9089    0.3998 N   0  0  0  0  0  0  0  0  0  0  0  0
   -2.5238   -0.4719   -0.1032 H   0  0  0  0  0  0  0  0  0  0  0  0
   -0.4848   -0.1959    0.4138 C   0  0  1  0  0  0  0  0  0  0  0  0
    0.3205   -0.9271    0.5018 H   0  0  0  0  0  0  0  0  0  0  0  0
   -0.3163    0.5483   -0.9252 C   0  0  0  0  0  0  0  0  0  0  0  0
   -1.2000    1.1693   -1.0864 H   0  0  0  0  0  0  0  0  0  0  0  0
    0.5539    1.2033   -0.8620 H   0  0  0  0  0  0  0  0  0  0  0  0
   -0.1505   -0.3833   -2.1385 C   0  0  0  0  0  0  0  0  0  0  0  0
    0.7368   -1.0023   -2.0074 H   0  0  0  0  0  0  0  0  0  0  0  0
   -1.0221   -1.0342   -2.2065 H   0  0  0  0  0  0  0  0  0  0  0  0
   -0.0091    0.3706   -3.4607 C   0  0  0  0  0  0  0  0  0  0  0  0
   -0.0963    1.5807   -3.5537 O   0  0  0  0  0  0  0  0  0  0  0  0
    0.2267   -0.3218   -4.5540 N   0  0  0  0  0  0  0  0  0  0  0  0
    0.3114    0.2241   -5.3938 H   0  0  0  0  0  0  0  0  0  0  0  0
    0.3102   -1.3180   -4.5334 H   0  0  0  0  0  0  0  0  0  0  0  0
   -0.4062    0.7478    1.6238 C   0  0  0  0  0  0  0  0  0  0  0  0
   -1.2248    1.6560    1.7549 O   0  0  0  0  0  0  0  0  0  0  0  0
    0.5841    0.5408    2.5012 N   0  0  0  0  0  0  0  0  0  0  0  0
    1.2019   -0.2388    2.3408 H   0  0  0  0  0  0  0  0  0  0  0  0
    0.8016    1.3585    3.6938 C   0  0  0  0  0  0  0  0  0  0  0  0
   -0.1017    1.3585    4.3089 H   0  0  0  0  0  0  0  0  0  0  0  0
    1.6340    0.9647    4.2789 H   0  0  0  0  0  0  0  0  0  0  0  0
    1.0193    2.3870    3.4009 H   0  0  0  0  0  0  0  0  0  0  0  0
  5  6  2  0  0  0  0
  5  7  1  0  0  0  0
  2  3  1  0  0  0  0
  2  4  1  0  0  0  0
  2  5  1  0  0  0  0
  1  2  1  0  0  0  0
 22 23  2  0  0  0  0
 22 24  1  0  0  0  0
 19 20  1  0  0  0  0
 19 21  1  0  0  0  0
 17 18  2  0  0  0  0
 17 19  1  0  0  0  0
 14 15  1  0  0  0  0
 14 16  1  0  0  0  0
 14 17  1  0  0  0  0
 11 12  1  0  0  0  0
 11 13  1  0  0  0  0
 11 14  1  0  0  0  0
  9 10  1  0  0  0  0
  9 11  1  0  0  0  0
  9 22  1  0  0  0  0
  7  8  1  0  0  0  0
  7  9  1  0  0  0  0
 26 27  1  0  0  0  0
 26 28  1  0  0  0  0
 26 29  1  0  0  0  0
 24 25  1  0  0  0  0
 24 26  1  0  0  0  0
M  END
$$$$
default_name
  -OEChem-01062215323D

 29 28  0     1  0  0  0  0  0999 V2000
   -3.3998   -3.6239    1.3678 H   0  0  0  0  0  0  0  0  0  0  0  0
   -3.3608   -2.6749    0.8348 C   0  0  0  0  0  0  0  0  0  0  0  0
   -4.0988   -1.9909    1.2498 H   0  0  0  0  0  0  0  0  0  0  0  0
   -3.5618   -2.8419   -0.2222 H   0  0  0  0  0  0  0  0  0  0  0  0
   -1.9818   -2.0809    0.9918 C   0  0  0  0  0  0  0  0  0  0  0  0
   -1.1288   -2.6669    1.6468 O   0  0  0  0  0  0  0  0  0  0  0  0
   -1.7648   -0.9089    0.3998 N   0  0  0  0  0  0  0  0  0  0  0  0
   -2.5238   -0.4719   -0.1032 H   0  0  0  0  0  0  0  0  0  0  0  0
   -0.4848   -0.1959    0.4138 C   0  0  1  0  0  0  0  0  0  0  0  0
    0.3205   -0.9271    0.5018 H   0  0  0  0  0  0  0  0  0  0  0  0
   -0.3163    0.5483   -0.9252 C   0  0  0  0  0  0  0  0  0  0  0  0
   -1.2000    1.1693   -1.0864 H   0  0  0  0  0  0  0  0  0  0  0  0
    0.5539    1.2033   -0.8620 H   0  0  0  0  0  0  0  0  0  0  0  0
   -0.1505   -0.3833   -2.1385 C   0  0  0  0  0  0  0  0  0  0  0  0
    0.7368   -1.0023   -2.0074 H   0  0  0  0  0  0  0  0  0  0  0  0
   -1.0221   -1.0342   -2.2065 H   0  0  0  0  0  0  0  0  0  0  0  0
   -0.0091    0.3706   -3.4607 C   0  0  0  0  0  0  0  0  0  0  0  0
   -0.0963    1.5807   -3.5537 O   0  0  0  0  0  0  0  0  0  0  0  0
    0.2267   -0.3218   -4.5540 N   0  0  0  0  0  0  0  0  0  0  0  0
    0.3114    0.2241   -5.3938 H   0  0  0  0  0  0  0  0  0  0  0  0
    0.3102   -1.3180   -4.5334 H   0  0  0  0  0  0  0  0  0  0  0  0
   -0.4062    0.7478    1.6238 C   0  0  0  0  0  0  0  0  0  0  0  0
   -1.3601    1.4694    1.9092 O   0  0  0  0  0  0  0  0  0  0  0  0
    0.7331    0.7510    2.3276 N   0  0  0  0  0  0  0  0  0  0  0  0
    1.4622    0.1139    2.0488 H   0  0  0  0  0  0  0  0  0  0  0  0
    0.9686    1.5998    3.4948 C   0  0  0  0  0  0  0  0  0  0  0  0
    0.1947    1.4167    4.2443 H   0  0  0  0  0  0  0  0  0  0  0  0
    1.9465    1.3867    3.9294 H   0  0  0  0  0  0  0  0  0  0  0  0
    0.9234    2.6501    3.2020 H   0  0  0  0  0  0  0  0  0  0  0  0
  5  6  2  0  0  0  0
  5  7  1  0  0  0  0
  2  3  1  0  0  0  0
  2  4  1  0  0  0  0
  2  5  1  0  0  0  0
  1  2  1  0  0  0  0
 22 23  2  0  0  0  0
 22 24  1  0  0  0  0
 19 20  1  0  0  0  0
 19 21  1  0  0  0  0
 17 18  2  0  0  0  0
 17 19  1  0  0  0  0
 14 15  1  0  0  0  0
 14 16  1  0  0  0  0
 14 17  1  0  0  0  0
 11 12  1  0  0  0  0
 11 13  1  0  0  0  0
 11 14  1  0  0  0  0
  9 10  1  0  0  0  0
  9 11  1  0  0  0  0
  9 22  1  0  0  0  0
  7  8  1  0  0  0  0
  7  9  1  0  0  0  0
 26 27  1  0  0  0  0
 26 28  1  0  0  0  0
 26 29  1  0  0  0  0
 24 25  1  0  0  0  0
 24 26  1  0  0  0  0
M  END
$$$$
default_name
  -OEChem-01062215323D

 29 28  0     1  0  0  0  0  0999 V2000
   -3.3998   -3.6239    1.3678 H   0  0  0  0  0  0  0  0  0  0  0  0
   -3.3608   -2.6749    0.8348 C   0  0  0  0  0  0  0  0  0  0  0  0
   -4.0988   -1.9909    1.2498 H   0  0  0  0  0  0  0  0  0  0  0  0
   -3.5618   -2.8419   -0.2222 H   0  0  0  0  0  0  0  0  0  0  0  0
   -1.9818   -2.0809    0.9918 C   0  0  0  0  0  0  0  0  0  0  0  0
   -1.1288   -2.6669    1.6468 O   0  0  0  0  0  0  0  0  0  0  0  0
   -1.7648   -0.9089    0.3998 N   0  0  0  0  0  0  0  0  0  0  0  0
   -2.5238   -0.4719   -0.1032 H   0  0  0  0  0  0  0  0  0  0  0  0
   -0.4848   -0.1959    0.4138 C   0  0  1  0  0  0  0  0  0  0  0  0
    0.3205   -0.9271    0.5018 H   0  0  0  0  0  0  0  0  0  0  0  0
   -0.3163    0.5483   -0.9252 C   0  0  0  0  0  0  0  0  0  0  0  0
   -1.2000    1.1693   -1.0864 H   0  0  0  0  0  0  0  0  0  0  0  0
    0.5539    1.2033   -0.8620 H   0  0  0  0  0  0  0  0  0  0  0  0
   -0.1505   -0.3833   -2.1385 C   0  0  0  0  0  0  0  0  0  0  0  0
    0.7368   -1.0023   -2.0074 H   0  0  0  0  0  0  0  0  0  0  0  0
   -1.0221   -1.0342   -2.2065 H   0  0  0  0  0  0  0  0  0  0  0  0
   -0.0091    0.3706   -3.4607 C   0  0  0  0  0  0  0  0  0  0  0  0
   -0.0963    1.5807   -3.5537 O   0  0  0  0  0  0  0  0  0  0  0  0
    0.2267   -0.3218   -4.5540 N   0  0  0  0  0  0  0  0  0  0  0  0
    0.3114    0.2241   -5.3938 H   0  0  0  0  0  0  0  0  0  0  0  0
    0.3102   -1.3180   -4.5334 H   0  0  0  0  0  0  0  0  0  0  0  0
   -0.4062    0.7478    1.6238 C   0  0  0  0  0  0  0  0  0  0  0  0
   -1.4282    1.2596    2.0773 O   0  0  0  0  0  0  0  0  0  0  0  0
    0.8066    0.9866    2.1390 N   0  0  0  0  0  0  0  0  0  0  0  0
    1.5954    0.5116    1.7300 H   0  0  0  0  0  0  0  0  0  0  0  0
    1.0492    1.8694    3.2792 C   0  0  0  0  0  0  0  0  0  0  0  0
    0.4589    1.5341    4.1356 H   0  0  0  0  0  0  0  0  0  0  0  0
    2.1067    1.8627    3.5478 H   0  0  0  0  0  0  0  0  0  0  0  0
    0.7457    2.8873    3.0285 H   0  0  0  0  0  0  0  0  0  0  0  0
  5  6  2  0  0  0  0
  5  7  1  0  0  0  0
  2  3  1  0  0  0  0
  2  4  1  0  0  0  0
  2  5  1  0  0  0  0
  1  2  1  0  0  0  0
 22 23  2  0  0  0  0
 22 24  1  0  0  0  0
 19 20  1  0  0  0  0
 19 21  1  0  0  0  0
 17 18  2  0  0  0  0
 17 19  1  0  0  0  0
 14 15  1  0  0  0  0
 14 16  1  0  0  0  0
 14 17  1  0  0  0  0
 11 12  1  0  0  0  0
 11 13  1  0  0  0  0
 11 14  1  0  0  0  0
  9 10  1  0  0  0  0
  9 11  1  0  0  0  0
  9 22  1  0  0  0  0
  7  8  1  0  0  0  0
  7  9  1  0  0  0  0
 26 27  1  0  0  0  0
 26 28  1  0  0  0  0
 26 29  1  0  0  0  0
 24 25  1  0  0  0  0
 24 26  1  0  0  0  0
M  END
$$$$
default_name
  -OEChem-01062215323D

 29 28  0     1  0  0  0  0  0999 V2000
   -3.3998   -3.6239    1.3678 H   0  0  0  0  0  0  0  0  0  0  0  0
   -3.3608   -2.6749    0.8348 C   0  0  0  0  0  0  0  0  0  0  0  0
   -4.0988   -1.9909    1.2498 H   0  0  0  0  0  0  0  0  0  0  0  0
   -3.5618   -2.8419   -0.2222 H   0  0  0  0  0  0  0  0  0  0  0  0
   -1.9818   -2.0809    0.9918 C   0  0  0  0  0  0  0  0  0  0  0  0
   -1.1288   -2.6669    1.6468 O   0  0  0  0  0  0  0  0  0  0  0  0
   -1.7648   -0.9089    0.3998 N   0  0  0  0  0  0  0  0  0  0  0  0
   -2.5238   -0.4719   -0.1032 H   0  0  0  0  0  0  0  0  0  0  0  0
   -0.4848   -0.1959    0.4138 C   0  0  1  0  0  0  0  0  0  0  0  0
    0.3205   -0.9271    0.5018 H   0  0  0  0  0  0  0  0  0  0  0  0
   -0.3163    0.5483   -0.9252 C   0  0  0  0  0  0  0  0  0  0  0  0
   -1.2000    1.1693   -1.0864 H   0  0  0  0  0  0  0  0  0  0  0  0
    0.5539    1.2033   -0.8620 H   0  0  0  0  0  0  0  0  0  0  0  0
   -0.1505   -0.3833   -2.1385 C   0  0  0  0  0  0  0  0  0  0  0  0
    0.7368   -1.0023   -2.0074 H   0  0  0  0  0  0  0  0  0  0  0  0
   -1.0221   -1.0342   -2.2065 H   0  0  0  0  0  0  0  0  0  0  0  0
   -0.0091    0.3706   -3.4607 C   0  0  0  0  0  0  0  0  0  0  0  0
   -0.0963    1.5807   -3.5537 O   0  0  0  0  0  0  0  0  0  0  0  0
    0.2267   -0.3218   -4.5540 N   0  0  0  0  0  0  0  0  0  0  0  0
    0.3114    0.2241   -5.3938 H   0  0  0  0  0  0  0  0  0  0  0  0
    0.3102   -1.3180   -4.5334 H   0  0  0  0  0  0  0  0  0  0  0  0
   -0.4062    0.7478    1.6238 C   0  0  0  0  0  0  0  0  0  0  0  0
   -1.4245    1.0408    2.2477 O   0  0  0  0  0  0  0  0  0  0  0  0
    0.7996    1.2317    1.9483 N   0  0  0  0  0  0  0  0  0  0  0  0
    1.5923    0.9270    1.4062 H   0  0  0  0  0  0  0  0  0  0  0  0
    1.0378    2.1492    3.0618 C   0  0  0  0  0  0  0  0  0  0  0  0
    0.6728    1.7028    3.9901 H   0  0  0  0  0  0  0  0  0  0  0  0
    2.1038    2.3601    3.1600 H   0  0  0  0  0  0  0  0  0  0  0  0
    0.4980    3.0824    2.8924 H   0  0  0  0  0  0  0  0  0  0  0  0
  5  6  2  0  0  0  0
  5  7  1  0  0  0  0
  2  3  1  0  0  0  0
  2  4  1  0  0  0  0
  2  5  1  0  0  0  0
  1  2  1  0  0  0  0
 22 23  2  0  0  0  0
 22 24  1  0  0  0  0
 19 20  1  0  0  0  0
 19 21  1  0  0  0  0
 17 18  2  0  0  0  0
 17 19  1  0  0  0  0
 14 15  1  0  0  0  0
 14 16  1  0  0  0  0
 14 17  1  0  0  0  0
 11 12  1  0  0  0  0
 11 13  1  0  0  0  0
 11 14  1  0  0  0  0
  9 10  1  0  0  0  0
  9 11  1  0  0  0  0
  9 22  1  0  0  0  0
  7  8  1  0  0  0  0
  7  9  1  0  0  0  0
 26 27  1  0  0  0  0
 26 28  1  0  0  0  0
 26 29  1  0  0  0  0
 24 25  1  0  0  0  0
 24 26  1  0  0  0  0
M  END
$$$$
default_name
  -OEChem-01062215323D

 29 28  0     1  0  0  0  0  0999 V2000
   -3.3998   -3.6239    1.3678 H   0  0  0  0  0  0  0  0  0  0  0  0
   -3.3608   -2.6749    0.8348 C   0  0  0  0  0  0  0  0  0  0  0  0
   -4.0988   -1.9909    1.2498 H   0  0  0  0  0  0  0  0  0  0  0  0
   -3.5618   -2.8419   -0.2222 H   0  0  0  0  0  0  0  0  0  0  0  0
   -1.9818   -2.0809    0.9918 C   0  0  0  0  0  0  0  0  0  0  0  0
   -1.1288   -2.6669    1.6468 O   0  0  0  0  0  0  0  0  0  0  0  0
   -1.7648   -0.9089    0.3998 N   0  0  0  0  0  0  0  0  0  0  0  0
   -2.5238   -0.4719   -0.1032 H   0  0  0  0  0  0  0  0  0  0  0  0
   -0.4848   -0.1959    0.4138 C   0  0  1  0  0  0  0  0  0  0  0  0
    0.3163   -0.9144    0.2322 H   0  0  0  0  0  0  0  0  0  0  0  0
   -0.4778    0.8343   -0.7324 C   0  0  0  0  0  0  0  0  0  0  0  0
   -1.3672    1.4606   -0.6365 H   0  0  0  0  0  0  0  0  0  0  0  0
    0.4013    1.4728   -0.6324 H   0  0  0  0  0  0  0  0  0  0  0  0
   -0.4776    0.2039   -2.1359 C   0  0  0  0  0  0  0  0  0  0  0  0
    0.4117   -0.4135   -2.2609 H   0  0  0  0  0  0  0  0  0  0  0  0
   -1.3586   -0.4294   -2.2394 H   0  0  0  0  0  0  0  0  0  0  0  0
   -0.4952    1.2393   -3.2603 C   0  0  0  0  0  0  0  0  0  0  0  0
   -0.5789    2.4375   -3.0653 O   0  0  0  0  0  0  0  0  0  0  0  0
   -0.4077    0.8159   -4.5026 N   0  0  0  0  0  0  0  0  0  0  0  0
   -0.4231    1.5388   -5.2009 H   0  0  0  0  0  0  0  0  0  0  0  0
   -0.3342   -0.1575   -4.7186 H   0  0  0  0  0  0  0  0  0  0  0  0
   -0.2428    0.4512    1.7862 C   0  0  0  0  0  0  0  0  0  0  0  0
   -1.0781    0.3359    2.6811 O   0  0  0  0  0  0  0  0  0  0  0  0
    0.8939    1.1405    1.9486 N   0  0  0  0  0  0  0  0  0  0  0  0
    1.5424    1.1702    1.1782 H   0  0  0  0  0  0  0  0  0  0  0  0
    1.2636    1.8240    3.1874 C   0  0  0  0  0  0  0  0  0  0  0  0
    1.2664    1.1096    4.0144 H   0  0  0  0  0  0  0  0  0  0  0  0
    2.2551    2.2697    3.0950 H   0  0  0  0  0  0  0  0  0  0  0  0
    0.5345    2.6052    3.4091 H   0  0  0  0  0  0  0  0  0  0  0  0
  5  6  2  0  0  0  0
  5  7  1  0  0  0  0
  2  3  1  0  0  0  0
  2  4  1  0  0  0  0
  2  5  1  0  0  0  0
  1  2  1  0  0  0  0
 22 23  2  0  0  0  0
 22 24  1  0  0  0  0
 19 20  1  0  0  0  0
 19 21  1  0  0  0  0
 17 18  2  0  0  0  0
 17 19  1  0  0  0  0
 14 15  1  0  0  0  0
 14 16  1  0  0  0  0
 14 17  1  0  0  0  0
 11 12  1  0  0  0  0
 11 13  1  0  0  0  0
 11 14  1  0  0  0  0
  9 10  1  0  0  0  0
  9 11  1  0  0  0  0
  9 22  1  0  0  0  0
  7  8  1  0  0  0  0
  7  9  1  0  0  0  0
 26 27  1  0  0  0  0
 26 28  1  0  0  0  0
 26 29  1  0  0  0  0
 24 25  1  0  0  0  0
 24 26  1  0  0  0  0
M  END
$$$$
default_name
  -OEChem-01062215323D

 29 28  0     1  0  0  0  0  0999 V2000
   -3.3998   -3.6239    1.3678 H   0  0  0  0  0  0  0  0  0  0  0  0
   -3.3608   -2.6749    0.8348 C   0  0  0  0  0  0  0  0  0  0  0  0
   -4.0988   -1.9909    1.2498 H   0  0  0  0  0  0  0  0  0  0  0  0
   -3.5618   -2.8419   -0.2222 H   0  0  0  0  0  0  0  0  0  0  0  0
   -1.9818   -2.0809    0.9918 C   0  0  0  0  0  0  0  0  0  0  0  0
   -1.1288   -2.6669    1.6468 O   0  0  0  0  0  0  0  0  0  0  0  0
   -1.7648   -0.9089    0.3998 N   0  0  0  0  0  0  0  0  0  0  0  0
   -2.5238   -0.4719   -0.1032 H   0  0  0  0  0  0  0  0  0  0  0  0
   -0.4848   -0.1959    0.4138 C   0  0  1  0  0  0  0  0  0  0  0  0
    0.3163   -0.9144    0.2322 H   0  0  0  0  0  0  0  0  0  0  0  0
   -0.4778    0.8343   -0.7324 C   0  0  0  0  0  0  0  0  0  0  0  0
   -1.3672    1.4606   -0.6365 H   0  0  0  0  0  0  0  0  0  0  0  0
    0.4013    1.4728   -0.6324 H   0  0  0  0  0  0  0  0  0  0  0  0
   -0.4776    0.2039   -2.1359 C   0  0  0  0  0  0  0  0  0  0  0  0
    0.4117   -0.4135   -2.2609 H   0  0  0  0  0  0  0  0  0  0  0  0
   -1.3586   -0.4294   -2.2394 H   0  0  0  0  0  0  0  0  0  0  0  0
   -0.4952    1.2393   -3.2603 C   0  0  0  0  0  0  0  0  0  0  0  0
   -0.5789    2.4375   -3.0653 O   0  0  0  0  0  0  0  0  0  0  0  0
   -0.4077    0.8159   -4.5026 N   0  0  0  0  0  0  0  0  0  0  0  0
   -0.4231    1.5388   -5.2009 H   0  0  0  0  0  0  0  0  0  0  0  0
   -0.3342   -0.1575   -4.7186 H   0  0  0  0  0  0  0  0  0  0  0  0
   -0.2428    0.4512    1.7862 C   0  0  0  0  0  0  0  0  0  0  0  0
   -0.9221    0.1192    2.7559 O   0  0  0  0  0  0  0  0  0  0  0  0
    0.7168    1.3820    1.8660 N   0  0  0  0  0  0  0  0  0  0  0  0
    1.2493    1.5838    1.0348 H   0  0  0  0  0  0  0  0  0  0  0  0
    1.0587    2.0980    3.0943 C   0  0  0  0  0  0  0  0  0  0  0  0
    1.3191    1.3812    3.8770 H   0  0  0  0  0  0  0  0  0  0  0  0
    1.9048    2.7653    2.9231 H   0  0  0  0  0  0  0  0  0  0  0  0
    0.2003    2.6809    3.4323 H   0  0  0  0  0  0  0  0  0  0  0  0
  5  6  2  0  0  0  0
  5  7  1  0  0  0  0
  2  3  1  0  0  0  0
  2  4  1  0  0  0  0
  2  5  1  0  0  0  0
  1  2  1  0  0  0  0
 22 23  2  0  0  0  0
 22 24  1  0  0  0  0
 19 20  1  0  0  0  0
 19 21  1  0  0  0  0
 17 18  2  0  0  0  0
 17 19  1  0  0  0  0
 14 15  1  0  0  0  0
 14 16  1  0  0  0  0
 14 17  1  0  0  0  0
 11 12  1  0  0  0  0
 11 13  1  0  0  0  0
 11 14  1  0  0  0  0
  9 10  1  0  0  0  0
  9 11  1  0  0  0  0
  9 22  1  0  0  0  0
  7  8  1  0  0  0  0
  7  9  1  0  0  0  0
 26 27  1  0  0  0  0
 26 28  1  0  0  0  0
 26 29  1  0  0  0  0
 24 25  1  0  0  0  0
 24 26  1  0  0  0  0
M  END
$$$$
default_name
  -OEChem-01062215323D

 29 28  0     1  0  0  0  0  0999 V2000
   -3.3998   -3.6239    1.3678 H   0  0  0  0  0  0  0  0  0  0  0  0
   -3.3608   -2.6749    0.8348 C   0  0  0  0  0  0  0  0  0  0  0  0
   -4.0988   -1.9909    1.2498 H   0  0  0  0  0  0  0  0  0  0  0  0
   -3.5618   -2.8419   -0.2222 H   0  0  0  0  0  0  0  0  0  0  0  0
   -1.9818   -2.0809    0.9918 C   0  0  0  0  0  0  0  0  0  0  0  0
   -1.1288   -2.6669    1.6468 O   0  0  0  0  0  0  0  0  0  0  0  0
   -1.7648   -0.9089    0.3998 N   0  0  0  0  0  0  0  0  0  0  0  0
   -2.5238   -0.4719   -0.1032 H   0  0  0  0  0  0  0  0  0  0  0  0
   -0.4848   -0.1959    0.4138 C   0  0  1  0  0  0  0  0  0  0  0  0
    0.3163   -0.9144    0.2322 H   0  0  0  0  0  0  0  0  0  0  0  0
   -0.4778    0.8343   -0.7324 C   0  0  0  0  0  0  0  0  0  0  0  0
   -1.3672    1.4606   -0.6365 H   0  0  0  0  0  0  0  0  0  0  0  0
    0.4013    1.4728   -0.6324 H   0  0  0  0  0  0  0  0  0  0  0  0
   -0.4776    0.2039   -2.1359 C   0  0  0  0  0  0  0  0  0  0  0  0
    0.4117   -0.4135   -2.2609 H   0  0  0  0  0  0  0  0  0  0  0  0
   -1.3586   -0.4294   -2.2394 H   0  0  0  0  0  0  0  0  0  0  0  0
   -0.4952    1.2393   -3.2603 C   0  0  0  0  0  0  0  0  0  0  0  0
   -0.5789    2.4375   -3.0653 O   0  0  0  0  0  0  0  0  0  0  0  0
   -0.4077    0.8159   -4.5026 N   0  0  0  0  0  0  0  0  0  0  0  0
   -0.4231    1.5388   -5.2009 H   0  0  0  0  0  0  0  0  0  0  0  0
   -0.3342   -0.1575   -4.7186 H   0  0  0  0  0  0  0  0  0  0  0  0
   -0.2428    0.4512    1.7862 C   0  0  0  0  0  0  0  0  0  0  0  0
   -0.7132   -0.0572    2.8022 O   0  0  0  0  0  0  0  0  0  0  0  0
    0.4810    1.5777    1.8153 N   0  0  0  0  0  0  0  0  0  0  0  0
    0.8550    1.9213    0.9452 H   0  0  0  0  0  0  0  0  0  0  0  0
    0.7874    2.3191    3.0379 C   0  0  0  0  0  0  0  0  0  0  0  0
    1.2923    1.6613    3.7497 H   0  0  0  0  0  0  0  0  0  0  0  0
    1.4331    3.1699    2.8154 H   0  0  0  0  0  0  0  0  0  0  0  0
   -0.1375    2.6758    3.4943 H   0  0  0  0  0  0  0  0  0  0  0  0
  5  6  2  0  0  0  0
  5  7  1  0  0  0  0
  2  3  1  0  0  0  0
  2  4  1  0  0  0  0
  2  5  1  0  0  0  0
  1  2  1  0  0  0  0
 22 23  2  0  0  0  0
 22 24  1  0  0  0  0
 19 20  1  0  0  0  0
 19 21  1  0  0  0  0
 17 18  2  0  0  0  0
 17 19  1  0  0  0  0
 14 15  1  0  0  0  0
 14 16  1  0  0  0  0
 14 17  1  0  0  0  0
 11 12  1  0  0  0  0
 11 13  1  0  0  0  0
 11 14  1  0  0  0  0
  9 10  1  0  0  0  0
  9 11  1  0  0  0  0
  9 22  1  0  0  0  0
  7  8  1  0  0  0  0
  7  9  1  0  0  0  0
 26 27  1  0  0  0  0
 26 28  1  0  0  0  0
 26 29  1  0  0  0  0
 24 25  1  0  0  0  0
 24 26  1  0  0  0  0
M  END
$$$$
default_name
  -OEChem-01062215323D

 29 28  0     1  0  0  0  0  0999 V2000
   -3.3998   -3.6239    1.3678 H   0  0  0  0  0  0  0  0  0  0  0  0
   -3.3608   -2.6749    0.8348 C   0  0  0  0  0  0  0  0  0  0  0  0
   -4.0988   -1.9909    1.2498 H   0  0  0  0  0  0  0  0  0  0  0  0
   -3.5618   -2.8419   -0.2222 H   0  0  0  0  0  0  0  0  0  0  0  0
   -1.9818   -2.0809    0.9918 C   0  0  0  0  0  0  0  0  0  0  0  0
   -1.1288   -2.6669    1.6468 O   0  0  0  0  0  0  0  0  0  0  0  0
   -1.7648   -0.9089    0.3998 N   0  0  0  0  0  0  0  0  0  0  0  0
   -2.5238   -0.4719   -0.1032 H   0  0  0  0  0  0  0  0  0  0  0  0
   -0.4848   -0.1959    0.4138 C   0  0  1  0  0  0  0  0  0  0  0  0
    0.3163   -0.9144    0.2322 H   0  0  0  0  0  0  0  0  0  0  0  0
   -0.4778    0.8343   -0.7324 C   0  0  0  0  0  0  0  0  0  0  0  0
   -1.3672    1.4606   -0.6365 H   0  0  0  0  0  0  0  0  0  0  0  0
    0.4013    1.4728   -0.6324 H   0  0  0  0  0  0  0  0  0  0  0  0
   -0.4776    0.2039   -2.1359 C   0  0  0  0  0  0  0  0  0  0  0  0
    0.4117   -0.4135   -2.2609 H   0  0  0  0  0  0  0  0  0  0  0  0
   -1.3586   -0.4294   -2.2394 H   0  0  0  0  0  0  0  0  0  0  0  0
   -0.4952    1.2393   -3.2603 C   0  0  0  0  0  0  0  0  0  0  0  0
   -0.5789    2.4375   -3.0653 O   0  0  0  0  0  0  0  0  0  0  0  0
   -0.4077    0.8159   -4.5026 N   0  0  0  0  0  0  0  0  0  0  0  0
   -0.4231    1.5388   -5.2009 H   0  0  0  0  0  0  0  0  0  0  0  0
   -0.3342   -0.1575   -4.7186 H   0  0  0  0  0  0  0  0  0  0  0  0
   -0.2428    0.4512    1.7862 C   0  0  0  0  0  0  0  0  0  0  0  0
   -0.4655   -0.1812    2.8170 O   0  0  0  0  0  0  0  0  0  0  0  0
    0.2024    1.7142    1.8000 N   0  0  0  0  0  0  0  0  0  0  0  0
    0.3862    2.1599    0.9153 H   0  0  0  0  0  0  0  0  0  0  0  0
    0.4680    2.4722    3.0220 C   0  0  0  0  0  0  0  0  0  0  0  0
    1.1877    1.9308    3.6410 H   0  0  0  0  0  0  0  0  0  0  0  0
    0.8722    3.4562    2.7793 H   0  0  0  0  0  0  0  0  0  0  0  0
   -0.4559    2.5903    3.5907 H   0  0  0  0  0  0  0  0  0  0  0  0
  5  6  2  0  0  0  0
  5  7  1  0  0  0  0
  2  3  1  0  0  0  0
  2  4  1  0  0  0  0
  2  5  1  0  0  0  0
  1  2  1  0  0  0  0
 22 23  2  0  0  0  0
 22 24  1  0  0  0  0
 19 20  1  0  0  0  0
 19 21  1  0  0  0  0
 17 18  2  0  0  0  0
 17 19  1  0  0  0  0
 14 15  1  0  0  0  0
 14 16  1  0  0  0  0
 14 17  1  0  0  0  0
 11 12  1  0  0  0  0
 11 13  1  0  0  0  0
 11 14  1  0  0  0  0
  9 10  1  0  0  0  0
  9 11  1  0  0  0  0
  9 22  1  0  0  0  0
  7  8  1  0  0  0  0
  7  9  1  0  0  0  0
 26 27  1  0  0  0  0
 26 28  1  0  0  0  0
 26 29  1  0  0  0  0
 24 25  1  0  0  0  0
 24 26  1  0  0  0  0
M  END
$$$$
default_name
  -OEChem-01062215323D

 29 28  0     1  0  0  0  0  0999 V2000
   -3.3998   -3.6239    1.3678 H   0  0  0  0  0  0  0  0  0  0  0  0
   -3.3608   -2.6749    0.8348 C   0  0  0  0  0  0  0  0  0  0  0  0
   -4.0988   -1.9909    1.2498 H   0  0  0  0  0  0  0  0  0  0  0  0
   -3.5618   -2.8419   -0.2222 H   0  0  0  0  0  0  0  0  0  0  0  0
   -1.9818   -2.0809    0.9918 C   0  0  0  0  0  0  0  0  0  0  0  0
   -1.1288   -2.6669    1.6468 O   0  0  0  0  0  0  0  0  0  0  0  0
   -1.7648   -0.9089    0.3998 N   0  0  0  0  0  0  0  0  0  0  0  0
   -2.5238   -0.4719   -0.1032 H   0  0  0  0  0  0  0  0  0  0  0  0
   -0.4848   -0.1959    0.4138 C   0  0  1  0  0  0  0  0  0  0  0  0
    0.3163   -0.9144    0.2322 H   0  0  0  0  0  0  0  0  0  0  0  0
   -0.4778    0.8343   -0.7324 C   0  0  0  0  0  0  0  0  0  0  0  0
   -1.3672    1.4606   -0.6365 H   0  0  0  0  0  0  0  0  0  0  0  0
    0.4013    1.4728   -0.6324 H   0  0  0  0  0  0  0  0  0  0  0  0
   -0.4776    0.2039   -2.1359 C   0  0  0  0  0  0  0  0  0  0  0  0
    0.4117   -0.4135   -2.2609 H   0  0  0  0  0  0  0  0  0  0  0  0
   -1.3586   -0.4294   -2.2394 H   0  0  0  0  0  0  0  0  0  0  0  0
   -0.4952    1.2393   -3.2603 C   0  0  0  0  0  0  0  0  0  0  0  0
   -0.5789    2.4375   -3.0653 O   0  0  0  0  0  0  0  0  0  0  0  0
   -0.4077    0.8159   -4.5026 N   0  0  0  0  0  0  0  0  0  0  0  0
   -0.4231    1.5388   -5.2009 H   0  0  0  0  0  0  0  0  0  0  0  0
   -0.3342   -0.1575   -4.7186 H   0  0  0  0  0  0  0  0  0  0  0  0
   -0.2428    0.4512    1.7862 C   0  0  0  0  0  0  0  0  0  0  0  0
   -0.1961   -0.2442    2.7992 O   0  0  0  0  0  0  0  0  0  0  0  0
   -0.1000    1.7824    1.8212 N   0  0  0  0  0  0  0  0  0  0  0  0
   -0.1249    2.2832    0.9473 H   0  0  0  0  0  0  0  0  0  0  0  0
    0.1224    2.5470    3.0477 C   0  0  0  0  0  0  0  0  0  0  0  0
    1.0126    2.1715    3.5584 H   0  0  0  0  0  0  0  0  0  0  0  0
    0.2603    3.6045    2.8173 H   0  0  0  0  0  0  0  0  0  0  0  0
   -0.7331    2.4302    3.7151 H   0  0  0  0  0  0  0  0  0  0  0  0
  5  6  2  0  0  0  0
  5  7  1  0  0  0  0
  2  3  1  0  0  0  0
  2  4  1  0  0  0  0
  2  5  1  0  0  0  0
  1  2  1  0  0  0  0
 22 23  2  0  0  0  0
 22 24  1  0  0  0  0
 19 20  1  0  0  0  0
 19 21  1  0  0  0  0
 17 18  2  0  0  0  0
 17 19  1  0  0  0  0
 14 15  1  0  0  0  0
 14 16  1  0  0  0  0
 14 17  1  0  0  0  0
 11 12  1  0  0  0  0
 11 13  1  0  0  0  0
 11 14  1  0  0  0  0
  9 10  1  0  0  0  0
  9 11  1  0  0  0  0
  9 22  1  0  0  0  0
  7  8  1  0  0  0  0
  7  9  1  0  0  0  0
 26 27  1  0  0  0  0
 26 28  1  0  0  0  0
 26 29  1  0  0  0  0
 24 25  1  0  0  0  0
 24 26  1  0  0  0  0
M  END
$$$$
default_name
  -OEChem-01062215323D

 29 28  0     1  0  0  0  0  0999 V2000
   -3.3998   -3.6239    1.3678 H   0  0  0  0  0  0  0  0  0  0  0  0
   -3.3608   -2.6749    0.8348 C   0  0  0  0  0  0  0  0  0  0  0  0
   -4.0988   -1.9909    1.2498 H   0  0  0  0  0  0  0  0  0  0  0  0
   -3.5618   -2.8419   -0.2222 H   0  0  0  0  0  0  0  0  0  0  0  0
   -1.9818   -2.0809    0.9918 C   0  0  0  0  0  0  0  0  0  0  0  0
   -1.1288   -2.6669    1.6468 O   0  0  0  0  0  0  0  0  0  0  0  0
   -1.7648   -0.9089    0.3998 N   0  0  0  0  0  0  0  0  0  0  0  0
   -2.5238   -0.4719   -0.1032 H   0  0  0  0  0  0  0  0  0  0  0  0
   -0.4848   -0.1959    0.4138 C   0  0  1  0  0  0  0  0  0  0  0  0
    0.3163   -0.9144    0.2322 H   0  0  0  0  0  0  0  0  0  0  0  0
   -0.4778    0.8343   -0.7324 C   0  0  0  0  0  0  0  0  0  0  0  0
   -1.3672    1.4606   -0.6365 H   0  0  0  0  0  0  0  0  0  0  0  0
    0.4013    1.4728   -0.6324 H   0  0  0  0  0  0  0  0  0  0  0  0
   -0.4776    0.2039   -2.1359 C   0  0  0  0  0  0  0  0  0  0  0  0
    0.4117   -0.4135   -2.2609 H   0  0  0  0  0  0  0  0  0  0  0  0
   -1.3586   -0.4294   -2.2394 H   0  0  0  0  0  0  0  0  0  0  0  0
   -0.4952    1.2393   -3.2603 C   0  0  0  0  0  0  0  0  0  0  0  0
   -0.5789    2.4375   -3.0653 O   0  0  0  0  0  0  0  0  0  0  0  0
   -0.4077    0.8159   -4.5026 N   0  0  0  0  0  0  0  0  0  0  0  0
   -0.4231    1.5388   -5.2009 H   0  0  0  0  0  0  0  0  0  0  0  0
   -0.3342   -0.1575   -4.7186 H   0  0  0  0  0  0  0  0  0  0  0  0
   -0.2428    0.4512    1.7862 C   0  0  0  0  0  0  0  0  0  0  0  0
    0.0769   -0.2421    2.7501 O   0  0  0  0  0  0  0  0  0  0  0  0
   -0.4054    1.7774    1.8774 N   0  0  0  0  0  0  0  0  0  0  0  0
   -0.6436    2.2828    1.0390 H   0  0  0  0  0  0  0  0  0  0  0  0
   -0.2259    2.5382    3.1132 C   0  0  0  0  0  0  0  0  0  0  0  0
    0.7787    2.3668    3.5075 H   0  0  0  0  0  0  0  0  0  0  0  0
   -0.3609    3.6047    2.9267 H   0  0  0  0  0  0  0  0  0  0  0  0
   -0.9503    2.2064    3.8589 H   0  0  0  0  0  0  0  0  0  0  0  0
  5  6  2  0  0  0  0
  5  7  1  0  0  0  0
  2  3  1  0  0  0  0
  2  4  1  0  0  0  0
  2  5  1  0  0  0  0
  1  2  1  0  0  0  0
 22 23  2  0  0  0  0
 22 24  1  0  0  0  0
 19 20  1  0  0  0  0
 19 21  1  0  0  0  0
 17 18  2  0  0  0  0
 17 19  1  0  0  0  0
 14 15  1  0  0  0  0
 14 16  1  0  0  0  0
 14 17  1  0  0  0  0
 11 12  1  0  0  0  0
 11 13  1  0  0  0  0
 11 14  1  0  0  0  0
  9 10  1  0  0  0  0
  9 11  1  0  0  0  0
  9 22  1  0  0  0  0
  7  8  1  0  0  0  0
  7  9  1  0  0  0  0
 26 27  1  0  0  0  0
 26 28  1  0  0  0  0
 26 29  1  0  0  0  0
 24 25  1  0  0  0  0
 24 26  1  0  0  0  0
M  END
$$$$
default_name
  -OEChem-01062215323D

 29 28  0     1  0  0  0  0  0999 V2000
   -3.3998   -3.6239    1.3678 H   0  0  0  0  0  0  0  0  0  0  0  0
   -3.3608   -2.6749    0.8348 C   0  0  0  0  0  0  0  0  0  0  0  0
   -4.0988   -1.9909    1.2498 H   0  0  0  0  0  0  0  0  0  0  0  0
   -3.5618   -2.8419   -0.2222 H   0  0  0  0  0  0  0  0  0  0  0  0
   -1.9818   -2.0809    0.9918 C   0  0  0  0  0  0  0  0  0  0  0  0
   -1.1288   -2.6669    1.6468 O   0  0  0  0  0  0  0  0  0  0  0  0
   -1.7648   -0.9089    0.3998 N   0  0  0  0  0  0  0  0  0  0  0  0
   -2.5238   -0.4719   -0.1032 H   0  0  0  0  0  0  0  0  0  0  0  0
   -0.4848   -0.1959    0.4138 C   0  0  1  0  0  0  0  0  0  0  0  0
    0.3163   -0.9144    0.2322 H   0  0  0  0  0  0  0  0  0  0  0  0
   -0.4778    0.8343   -0.7324 C   0  0  0  0  0  0  0  0  0  0  0  0
   -1.3672    1.4606   -0.6365 H   0  0  0  0  0  0  0  0  0  0  0  0
    0.4013    1.4728   -0.6324 H   0  0  0  0  0  0  0  0  0  0  0  0
   -0.4776    0.2039   -2.1359 C   0  0  0  0  0  0  0  0  0  0  0  0
    0.4117   -0.4135   -2.2609 H   0  0  0  0  0  0  0  0  0  0  0  0
   -1.3586   -0.4294   -2.2394 H   0  0  0  0  0  0  0  0  0  0  0  0
   -0.4952    1.2393   -3.2603 C   0  0  0  0  0  0  0  0  0  0  0  0
   -0.5789    2.4375   -3.0653 O   0  0  0  0  0  0  0  0  0  0  0  0
   -0.4077    0.8159   -4.5026 N   0  0  0  0  0  0  0  0  0  0  0  0
   -0.4231    1.5388   -5.2009 H   0  0  0  0  0  0  0  0  0  0  0  0
   -0.3342   -0.1575   -4.7186 H   0  0  0  0  0  0  0  0  0  0  0  0
   -0.2428    0.4512    1.7862 C   0  0  0  0  0  0  0  0  0  0  0  0
    0.3347   -0.1750    2.6730 O   0  0  0  0  0  0  0  0  0  0  0  0
   -0.6932    1.6997    1.9648 N   0  0  0  0  0  0  0  0  0  0  0  0
   -1.1346    2.1587    1.1840 H   0  0  0  0  0  0  0  0  0  0  0  0
   -0.5532    2.4466    3.2141 C   0  0  0  0  0  0  0  0  0  0  0  0
    0.5022    2.5034    3.4918 H   0  0  0  0  0  0  0  0  0  0  0  0
   -0.9491    3.4569    3.1001 H   0  0  0  0  0  0  0  0  0  0  0  0
   -1.0926    1.9341    4.0124 H   0  0  0  0  0  0  0  0  0  0  0  0
  5  6  2  0  0  0  0
  5  7  1  0  0  0  0
  2  3  1  0  0  0  0
  2  4  1  0  0  0  0
  2  5  1  0  0  0  0
  1  2  1  0  0  0  0
 22 23  2  0  0  0  0
 22 24  1  0  0  0  0
 19 20  1  0  0  0  0
 19 21  1  0  0  0  0
 17 18  2  0  0  0  0
 17 19  1  0  0  0  0
 14 15  1  0  0  0  0
 14 16  1  0  0  0  0
 14 17  1  0  0  0  0
 11 12  1  0  0  0  0
 11 13  1  0  0  0  0
 11 14  1  0  0  0  0
  9 10  1  0  0  0  0
  9 11  1  0  0  0  0
  9 22  1  0  0  0  0
  7  8  1  0  0  0  0
  7  9  1  0  0  0  0
 26 27  1  0  0  0  0
 26 28  1  0  0  0  0
 26 29  1  0  0  0  0
 24 25  1  0  0  0  0
 24 26  1  0  0  0  0
M  END
$$$$
default_name
  -OEChem-01062215323D

 29 28  0     1  0  0  0  0  0999 V2000
   -3.3998   -3.6239    1.3678 H   0  0  0  0  0  0  0  0  0  0  0  0
   -3.3608   -2.6749    0.8348 C   0  0  0  0  0  0  0  0  0  0  0  0
   -4.0988   -1.9909    1.2498 H   0  0  0  0  0  0  0  0  0  0  0  0
   -3.5618   -2.8419   -0.2222 H   0  0  0  0  0  0  0  0  0  0  0  0
   -1.9818   -2.0809    0.9918 C   0  0  0  0  0  0  0  0  0  0  0  0
   -1.1288   -2.6669    1.6468 O   0  0  0  0  0  0  0  0  0  0  0  0
   -1.7648   -0.9089    0.3998 N   0  0  0  0  0  0  0  0  0  0  0  0
   -2.5238   -0.4719   -0.1032 H   0  0  0  0  0  0  0  0  0  0  0  0
   -0.4848   -0.1959    0.4138 C   0  0  1  0  0  0  0  0  0  0  0  0
    0.3163   -0.9144    0.2322 H   0  0  0  0  0  0  0  0  0  0  0  0
   -0.4778    0.8343   -0.7324 C   0  0  0  0  0  0  0  0  0  0  0  0
   -1.3672    1.4606   -0.6365 H   0  0  0  0  0  0  0  0  0  0  0  0
    0.4013    1.4728   -0.6324 H   0  0  0  0  0  0  0  0  0  0  0  0
   -0.4776    0.2039   -2.1359 C   0  0  0  0  0  0  0  0  0  0  0  0
    0.4117   -0.4135   -2.2609 H   0  0  0  0  0  0  0  0  0  0  0  0
   -1.3586   -0.4294   -2.2394 H   0  0  0  0  0  0  0  0  0  0  0  0
   -0.4952    1.2393   -3.2603 C   0  0  0  0  0  0  0  0  0  0  0  0
   -0.5789    2.4375   -3.0653 O   0  0  0  0  0  0  0  0  0  0  0  0
   -0.4077    0.8159   -4.5026 N   0  0  0  0  0  0  0  0  0  0  0  0
   -0.4231    1.5388   -5.2009 H   0  0  0  0  0  0  0  0  0  0  0  0
   -0.3342   -0.1575   -4.7186 H   0  0  0  0  0  0  0  0  0  0  0  0
   -0.2428    0.4512    1.7862 C   0  0  0  0  0  0  0  0  0  0  0  0
    0.5598   -0.0475    2.5731 O   0  0  0  0  0  0  0  0  0  0  0  0
   -0.9437    1.5546    2.0774 N   0  0  0  0  0  0  0  0  0  0  0  0
   -1.5644    1.9195    1.3726 H   0  0  0  0  0  0  0  0  0  0  0  0
   -0.8371    2.2783    3.3436 C   0  0  0  0  0  0  0  0  0  0  0  0
    0.2018    2.5722    3.5124 H   0  0  0  0  0  0  0  0  0  0  0  0
   -1.4641    3.1711    3.3257 H   0  0  0  0  0  0  0  0  0  0  0  0
   -1.1505    1.6319    4.1651 H   0  0  0  0  0  0  0  0  0  0  0  0
  5  6  2  0  0  0  0
  5  7  1  0  0  0  0
  2  3  1  0  0  0  0
  2  4  1  0  0  0  0
  2  5  1  0  0  0  0
  1  2  1  0  0  0  0
 22 23  2  0  0  0  0
 22 24  1  0  0  0  0
 19 20  1  0  0  0  0
 19 21  1  0  0  0  0
 17 18  2  0  0  0  0
 17 19  1  0  0  0  0
 14 15  1  0  0  0  0
 14 16  1  0  0  0  0
 14 17  1  0  0  0  0
 11 12  1  0  0  0  0
 11 13  1  0  0  0  0
 11 14  1  0  0  0  0
  9 10  1  0  0  0  0
  9 11  1  0  0  0  0
  9 22  1  0  0  0  0
  7  8  1  0  0  0  0
  7  9  1  0  0  0  0
 26 27  1  0  0  0  0
 26 28  1  0  0  0  0
 26 29  1  0  0  0  0
 24 25  1  0  0  0  0
 24 26  1  0  0  0  0
M  END
$$$$
default_name
  -OEChem-01062215323D

 29 28  0     1  0  0  0  0  0999 V2000
   -3.3998   -3.6239    1.3678 H   0  0  0  0  0  0  0  0  0  0  0  0
   -3.3608   -2.6749    0.8348 C   0  0  0  0  0  0  0  0  0  0  0  0
   -4.0988   -1.9909    1.2498 H   0  0  0  0  0  0  0  0  0  0  0  0
   -3.5618   -2.8419   -0.2222 H   0  0  0  0  0  0  0  0  0  0  0  0
   -1.9818   -2.0809    0.9918 C   0  0  0  0  0  0  0  0  0  0  0  0
   -1.1288   -2.6669    1.6468 O   0  0  0  0  0  0  0  0  0  0  0  0
   -1.7648   -0.9089    0.3998 N   0  0  0  0  0  0  0  0  0  0  0  0
   -2.5238   -0.4719   -0.1032 H   0  0  0  0  0  0  0  0  0  0  0  0
   -0.4848   -0.1959    0.4138 C   0  0  1  0  0  0  0  0  0  0  0  0
    0.3163   -0.9144    0.2322 H   0  0  0  0  0  0  0  0  0  0  0  0
   -0.4778    0.8343   -0.7324 C   0  0  0  0  0  0  0  0  0  0  0  0
   -1.3672    1.4606   -0.6365 H   0  0  0  0  0  0  0  0  0  0  0  0
    0.4013    1.4728   -0.6324 H   0  0  0  0  0  0  0  0  0  0  0  0
   -0.4776    0.2039   -2.1359 C   0  0  0  0  0  0  0  0  0  0  0  0
    0.4117   -0.4135   -2.2609 H   0  0  0  0  0  0  0  0  0  0  0  0
   -1.3586   -0.4294   -2.2394 H   0  0  0  0  0  0  0  0  0  0  0  0
   -0.4952    1.2393   -3.2603 C   0  0  0  0  0  0  0  0  0  0  0  0
   -0.5789    2.4375   -3.0653 O   0  0  0  0  0  0  0  0  0  0  0  0
   -0.4077    0.8159   -4.5026 N   0  0  0  0  0  0  0  0  0  0  0  0
   -0.4231    1.5388   -5.2009 H   0  0  0  0  0  0  0  0  0  0  0  0
   -0.3342   -0.1575   -4.7186 H   0  0  0  0  0  0  0  0  0  0  0  0
   -0.2428    0.4512    1.7862 C   0  0  0  0  0  0  0  0  0  0  0  0
    0.7368    0.1319    2.4573 O   0  0  0  0  0  0  0  0  0  0  0  0
   -1.1399    1.3519    2.2076 N   0  0  0  0  0  0  0  0  0  0  0  0
   -1.9037    1.5814    1.5919 H   0  0  0  0  0  0  0  0  0  0  0  0
   -1.0584    2.0449    3.4927 C   0  0  0  0  0  0  0  0  0  0  0  0
   -0.1021    2.5683    3.5678 H   0  0  0  0  0  0  0  0  0  0  0  0
   -1.8709    2.7667    3.5881 H   0  0  0  0  0  0  0  0  0  0  0  0
   -1.1199    1.3205    4.3066 H   0  0  0  0  0  0  0  0  0  0  0  0
  5  6  2  0  0  0  0
  5  7  1  0  0  0  0
  2  3  1  0  0  0  0
  2  4  1  0  0  0  0
  2  5  1  0  0  0  0
  1  2  1  0  0  0  0
 22 23  2  0  0  0  0
 22 24  1  0  0  0  0
 19 20  1  0  0  0  0
 19 21  1  0  0  0  0
 17 18  2  0  0  0  0
 17 19  1  0  0  0  0
 14 15  1  0  0  0  0
 14 16  1  0  0  0  0
 14 17  1  0  0  0  0
 11 12  1  0  0  0  0
 11 13  1  0  0  0  0
 11 14  1  0  0  0  0
  9 10  1  0  0  0  0
  9 11  1  0  0  0  0
  9 22  1  0  0  0  0
  7  8  1  0  0  0  0
  7  9  1  0  0  0  0
 26 27  1  0  0  0  0
 26 28  1  0  0  0  0
 26 29  1  0  0  0  0
 24 25  1  0  0  0  0
 24 26  1  0  0  0  0
M  END
$$$$
default_name
  -OEChem-01062215323D

 29 28  0     1  0  0  0  0  0999 V2000
   -3.3998   -3.6239    1.3678 H   0  0  0  0  0  0  0  0  0  0  0  0
   -3.3608   -2.6749    0.8348 C   0  0  0  0  0  0  0  0  0  0  0  0
   -4.0988   -1.9909    1.2498 H   0  0  0  0  0  0  0  0  0  0  0  0
   -3.5618   -2.8419   -0.2222 H   0  0  0  0  0  0  0  0  0  0  0  0
   -1.9818   -2.0809    0.9918 C   0  0  0  0  0  0  0  0  0  0  0  0
   -1.1288   -2.6669    1.6468 O   0  0  0  0  0  0  0  0  0  0  0  0
   -1.7648   -0.9089    0.3998 N   0  0  0  0  0  0  0  0  0  0  0  0
   -2.5238   -0.4719   -0.1032 H   0  0  0  0  0  0  0  0  0  0  0  0
   -0.4848   -0.1959    0.4138 C   0  0  1  0  0  0  0  0  0  0  0  0
    0.3163   -0.9144    0.2322 H   0  0  0  0  0  0  0  0  0  0  0  0
   -0.4778    0.8343   -0.7324 C   0  0  0  0  0  0  0  0  0  0  0  0
   -1.3672    1.4606   -0.6365 H   0  0  0  0  0  0  0  0  0  0  0  0
    0.4013    1.4728   -0.6324 H   0  0  0  0  0  0  0  0  0  0  0  0
   -0.4776    0.2039   -2.1359 C   0  0  0  0  0  0  0  0  0  0  0  0
    0.4117   -0.4135   -2.2609 H   0  0  0  0  0  0  0  0  0  0  0  0
   -1.3586   -0.4294   -2.2394 H   0  0  0  0  0  0  0  0  0  0  0  0
   -0.4952    1.2393   -3.2603 C   0  0  0  0  0  0  0  0  0  0  0  0
   -0.5789    2.4375   -3.0653 O   0  0  0  0  0  0  0  0  0  0  0  0
   -0.4077    0.8159   -4.5026 N   0  0  0  0  0  0  0  0  0  0  0  0
   -0.4231    1.5388   -5.2009 H   0  0  0  0  0  0  0  0  0  0  0  0
   -0.3342   -0.1575   -4.7186 H   0  0  0  0  0  0  0  0  0  0  0  0
   -0.2428    0.4512    1.7862 C   0  0  0  0  0  0  0  0  0  0  0  0
    0.8538    0.3508    2.3335 O   0  0  0  0  0  0  0  0  0  0  0  0
   -1.2683    1.1054    2.3464 N   0  0  0  0  0  0  0  0  0  0  0  0
   -2.1293    1.1674    1.8269 H   0  0  0  0  0  0  0  0  0  0  0  0
   -1.2019    1.7621    3.6513 C   0  0  0  0  0  0  0  0  0  0  0  0
   -0.3886    2.4920    3.6543 H   0  0  0  0  0  0  0  0  0  0  0  0
   -2.1418    2.2714    3.8695 H   0  0  0  0  0  0  0  0  0  0  0  0
   -1.0029    1.0209    4.4272 H   0  0  0  0  0  0  0  0  0  0  0  0
  5  6  2  0  0  0  0
  5  7  1  0  0  0  0
  2  3  1  0  0  0  0
  2  4  1  0  0  0  0
  2  5  1  0  0  0  0
  1  2  1  0  0  0  0
 22 23  2  0  0  0  0
 22 24  1  0  0  0  0
 19 20  1  0  0  0  0
 19 21  1  0  0  0  0
 17 18  2  0  0  0  0
 17 19  1  0  0  0  0
 14 15  1  0  0  0  0
 14 16  1  0  0  0  0
 14 17  1  0  0  0  0
 11 12  1  0  0  0  0
 11 13  1  0  0  0  0
 11 14  1  0  0  0  0
  9 10  1  0  0  0  0
  9 11  1  0  0  0  0
  9 22  1  0  0  0  0
  7  8  1  0  0  0  0
  7  9  1  0  0  0  0
 26 27  1  0  0  0  0
 26 28  1  0  0  0  0
 26 29  1  0  0  0  0
 24 25  1  0  0  0  0
 24 26  1  0  0  0  0
M  END
$$$$
default_name
  -OEChem-01062215323D

 29 28  0     1  0  0  0  0  0999 V2000
   -3.3998   -3.6239    1.3678 H   0  0  0  0  0  0  0  0  0  0  0  0
   -3.3608   -2.6749    0.8348 C   0  0  0  0  0  0  0  0  0  0  0  0
   -4.0988   -1.9909    1.2498 H   0  0  0  0  0  0  0  0  0  0  0  0
   -3.5618   -2.8419   -0.2222 H   0  0  0  0  0  0  0  0  0  0  0  0
   -1.9818   -2.0809    0.9918 C   0  0  0  0  0  0  0  0  0  0  0  0
   -1.1288   -2.6669    1.6468 O   0  0  0  0  0  0  0  0  0  0  0  0
   -1.7648   -0.9089    0.3998 N   0  0  0  0  0  0  0  0  0  0  0  0
   -2.5238   -0.4719   -0.1032 H   0  0  0  0  0  0  0  0  0  0  0  0
   -0.4848   -0.1959    0.4138 C   0  0  1  0  0  0  0  0  0  0  0  0
    0.3163   -0.9144    0.2322 H   0  0  0  0  0  0  0  0  0  0  0  0
   -0.4778    0.8343   -0.7324 C   0  0  0  0  0  0  0  0  0  0  0  0
   -1.3672    1.4606   -0.6365 H   0  0  0  0  0  0  0  0  0  0  0  0
    0.4013    1.4728   -0.6324 H   0  0  0  0  0  0  0  0  0  0  0  0
   -0.4776    0.2039   -2.1359 C   0  0  0  0  0  0  0  0  0  0  0  0
    0.4117   -0.4135   -2.2609 H   0  0  0  0  0  0  0  0  0  0  0  0
   -1.3586   -0.4294   -2.2394 H   0  0  0  0  0  0  0  0  0  0  0  0
   -0.4952    1.2393   -3.2603 C   0  0  0  0  0  0  0  0  0  0  0  0
   -0.5789    2.4375   -3.0653 O   0  0  0  0  0  0  0  0  0  0  0  0
   -0.4077    0.8159   -4.5026 N   0  0  0  0  0  0  0  0  0  0  0  0
   -0.4231    1.5388   -5.2009 H   0  0  0  0  0  0  0  0  0  0  0  0
   -0.3342   -0.1575   -4.7186 H   0  0  0  0  0  0  0  0  0  0  0  0
   -0.2428    0.4512    1.7862 C   0  0  0  0  0  0  0  0  0  0  0  0
    0.9026    0.5942    2.2101 O   0  0  0  0  0  0  0  0  0  0  0  0
   -1.3202    0.8321    2.4845 N   0  0  0  0  0  0  0  0  0  0  0  0
   -2.2259    0.7059    2.0616 H   0  0  0  0  0  0  0  0  0  0  0  0
   -1.2578    1.4494    3.8086 C   0  0  0  0  0  0  0  0  0  0  0  0
   -0.6383    2.3486    3.7660 H   0  0  0  0  0  0  0  0  0  0  0  0
   -2.2583    1.7189    4.1505 H   0  0  0  0  0  0  0  0  0  0  0  0
   -0.8075    0.7538    4.5188 H   0  0  0  0  0  0  0  0  0  0  0  0
  5  6  2  0  0  0  0
  5  7  1  0  0  0  0
  2  3  1  0  0  0  0
  2  4  1  0  0  0  0
  2  5  1  0  0  0  0
  1  2  1  0  0  0  0
 22 23  2  0  0  0  0
 22 24  1  0  0  0  0
 19 20  1  0  0  0  0
 19 21  1  0  0  0  0
 17 18  2  0  0  0  0
 17 19  1  0  0  0  0
 14 15  1  0  0  0  0
 14 16  1  0  0  0  0
 14 17  1  0  0  0  0
 11 12  1  0  0  0  0
 11 13  1  0  0  0  0
 11 14  1  0  0  0  0
  9 10  1  0  0  0  0
  9 11  1  0  0  0  0
  9 22  1  0  0  0  0
  7  8  1  0  0  0  0
  7  9  1  0  0  0  0
 26 27  1  0  0  0  0
 26 28  1  0  0  0  0
 26 29  1  0  0  0  0
 24 25  1  0  0  0  0
 24 26  1  0  0  0  0
M  END
$$$$
default_name
  -OEChem-01062215323D

 29 28  0     1  0  0  0  0  0999 V2000
   -3.3998   -3.6239    1.3678 H   0  0  0  0  0  0  0  0  0  0  0  0
   -3.3608   -2.6749    0.8348 C   0  0  0  0  0  0  0  0  0  0  0  0
   -4.0988   -1.9909    1.2498 H   0  0  0  0  0  0  0  0  0  0  0  0
   -3.5618   -2.8419   -0.2222 H   0  0  0  0  0  0  0  0  0  0  0  0
   -1.9818   -2.0809    0.9918 C   0  0  0  0  0  0  0  0  0  0  0  0
   -1.1288   -2.6669    1.6468 O   0  0  0  0  0  0  0  0  0  0  0  0
   -1.7648   -0.9089    0.3998 N   0  0  0  0  0  0  0  0  0  0  0  0
   -2.5238   -0.4719   -0.1032 H   0  0  0  0  0  0  0  0  0  0  0  0
   -0.4848   -0.1959    0.4138 C   0  0  1  0  0  0  0  0  0  0  0  0
    0.3163   -0.9144    0.2322 H   0  0  0  0  0  0  0  0  0  0  0  0
   -0.4778    0.8343   -0.7324 C   0  0  0  0  0  0  0  0  0  0  0  0
   -1.3672    1.4606   -0.6365 H   0  0  0  0  0  0  0  0  0  0  0  0
    0.4013    1.4728   -0.6324 H   0  0  0  0  0  0  0  0  0  0  0  0
   -0.4776    0.2039   -2.1359 C   0  0  0  0  0  0  0  0  0  0  0  0
    0.4117   -0.4135   -2.2609 H   0  0  0  0  0  0  0  0  0  0  0  0
   -1.3586   -0.4294   -2.2394 H   0  0  0  0  0  0  0  0  0  0  0  0
   -0.4952    1.2393   -3.2603 C   0  0  0  0  0  0  0  0  0  0  0  0
   -0.5789    2.4375   -3.0653 O   0  0  0  0  0  0  0  0  0  0  0  0
   -0.4077    0.8159   -4.5026 N   0  0  0  0  0  0  0  0  0  0  0  0
   -0.4231    1.5388   -5.2009 H   0  0  0  0  0  0  0  0  0  0  0  0
   -0.3342   -0.1575   -4.7186 H   0  0  0  0  0  0  0  0  0  0  0  0
   -0.2428    0.4512    1.7862 C   0  0  0  0  0  0  0  0  0  0  0  0
    0.8801    0.8458    2.0954 O   0  0  0  0  0  0  0  0  0  0  0  0
   -1.2921    0.5504    2.6124 N   0  0  0  0  0  0  0  0  0  0  0  0
   -2.1870    0.2281    2.2800 H   0  0  0  0  0  0  0  0  0  0  0  0
   -1.2224    1.1279    3.9540 C   0  0  0  0  0  0  0  0  0  0  0  0
   -0.8342    2.1477    3.8952 H   0  0  0  0  0  0  0  0  0  0  0  0
   -2.2124    1.1468    4.4122 H   0  0  0  0  0  0  0  0  0  0  0  0
   -0.5470    0.5371    4.5750 H   0  0  0  0  0  0  0  0  0  0  0  0
  5  6  2  0  0  0  0
  5  7  1  0  0  0  0
  2  3  1  0  0  0  0
  2  4  1  0  0  0  0
  2  5  1  0  0  0  0
  1  2  1  0  0  0  0
 22 23  2  0  0  0  0
 22 24  1  0  0  0  0
 19 20  1  0  0  0  0
 19 21  1  0  0  0  0
 17 18  2  0  0  0  0
 17 19  1  0  0  0  0
 14 15  1  0  0  0  0
 14 16  1  0  0  0  0
 14 17  1  0  0  0  0
 11 12  1  0  0  0  0
 11 13  1  0  0  0  0
 11 14  1  0  0  0  0
  9 10  1  0  0  0  0
  9 11  1  0  0  0  0
  9 22  1  0  0  0  0
  7  8  1  0  0  0  0
  7  9  1  0  0  0  0
 26 27  1  0  0  0  0
 26 28  1  0  0  0  0
 26 29  1  0  0  0  0
 24 25  1  0  0  0  0
 24 26  1  0  0  0  0
M  END
$$$$
default_name
  -OEChem-01062215323D

 29 28  0     1  0  0  0  0  0999 V2000
   -3.3998   -3.6239    1.3678 H   0  0  0  0  0  0  0  0  0  0  0  0
   -3.3608   -2.6749    0.8348 C   0  0  0  0  0  0  0  0  0  0  0  0
   -4.0988   -1.9909    1.2498 H   0  0  0  0  0  0  0  0  0  0  0  0
   -3.5618   -2.8419   -0.2222 H   0  0  0  0  0  0  0  0  0  0  0  0
   -1.9818   -2.0809    0.9918 C   0  0  0  0  0  0  0  0  0  0  0  0
   -1.1288   -2.6669    1.6468 O   0  0  0  0  0  0  0  0  0  0  0  0
   -1.7648   -0.9089    0.3998 N   0  0  0  0  0  0  0  0  0  0  0  0
   -2.5238   -0.4719   -0.1032 H   0  0  0  0  0  0  0  0  0  0  0  0
   -0.4848   -0.1959    0.4138 C   0  0  1  0  0  0  0  0  0  0  0  0
    0.3163   -0.9144    0.2322 H   0  0  0  0  0  0  0  0  0  0  0  0
   -0.4778    0.8343   -0.7324 C   0  0  0  0  0  0  0  0  0  0  0  0
   -1.3672    1.4606   -0.6365 H   0  0  0  0  0  0  0  0  0  0  0  0
    0.4013    1.4728   -0.6324 H   0  0  0  0  0  0  0  0  0  0  0  0
   -0.4776    0.2039   -2.1359 C   0  0  0  0  0  0  0  0  0  0  0  0
    0.4117   -0.4135   -2.2609 H   0  0  0  0  0  0  0  0  0  0  0  0
   -1.3586   -0.4294   -2.2394 H   0  0  0  0  0  0  0  0  0  0  0  0
   -0.4952    1.2393   -3.2603 C   0  0  0  0  0  0  0  0  0  0  0  0
   -0.5789    2.4375   -3.0653 O   0  0  0  0  0  0  0  0  0  0  0  0
   -0.4077    0.8159   -4.5026 N   0  0  0  0  0  0  0  0  0  0  0  0
   -0.4231    1.5388   -5.2009 H   0  0  0  0  0  0  0  0  0  0  0  0
   -0.3342   -0.1575   -4.7186 H   0  0  0  0  0  0  0  0  0  0  0  0
   -0.2428    0.4512    1.7862 C   0  0  0  0  0  0  0  0  0  0  0  0
    0.7876    1.0882    1.9974 O   0  0  0  0  0  0  0  0  0  0  0  0
   -1.1859    0.2796    2.7213 N   0  0  0  0  0  0  0  0  0  0  0  0
   -2.0151   -0.2333    2.4673 H   0  0  0  0  0  0  0  0  0  0  0  0
   -1.0981    0.8197    4.0774 C   0  0  0  0  0  0  0  0  0  0  0  0
   -0.9629    1.9032    4.0332 H   0  0  0  0  0  0  0  0  0  0  0  0
   -2.0073    0.5941    4.6367 H   0  0  0  0  0  0  0  0  0  0  0  0
   -0.2391    0.3858    4.5921 H   0  0  0  0  0  0  0  0  0  0  0  0
  5  6  2  0  0  0  0
  5  7  1  0  0  0  0
  2  3  1  0  0  0  0
  2  4  1  0  0  0  0
  2  5  1  0  0  0  0
  1  2  1  0  0  0  0
 22 23  2  0  0  0  0
 22 24  1  0  0  0  0
 19 20  1  0  0  0  0
 19 21  1  0  0  0  0
 17 18  2  0  0  0  0
 17 19  1  0  0  0  0
 14 15  1  0  0  0  0
 14 16  1  0  0  0  0
 14 17  1  0  0  0  0
 11 12  1  0  0  0  0
 11 13  1  0  0  0  0
 11 14  1  0  0  0  0
  9 10  1  0  0  0  0
  9 11  1  0  0  0  0
  9 22  1  0  0  0  0
  7  8  1  0  0  0  0
  7  9  1  0  0  0  0
 26 27  1  0  0  0  0
 26 28  1  0  0  0  0
 26 29  1  0  0  0  0
 24 25  1  0  0  0  0
 24 26  1  0  0  0  0
M  END
$$$$
default_name
  -OEChem-01062215323D

 29 28  0     1  0  0  0  0  0999 V2000
   -3.3998   -3.6239    1.3678 H   0  0  0  0  0  0  0  0  0  0  0  0
   -3.3608   -2.6749    0.8348 C   0  0  0  0  0  0  0  0  0  0  0  0
   -4.0988   -1.9909    1.2498 H   0  0  0  0  0  0  0  0  0  0  0  0
   -3.5618   -2.8419   -0.2222 H   0  0  0  0  0  0  0  0  0  0  0  0
   -1.9818   -2.0809    0.9918 C   0  0  0  0  0  0  0  0  0  0  0  0
   -1.1288   -2.6669    1.6468 O   0  0  0  0  0  0  0  0  0  0  0  0
   -1.7648   -0.9089    0.3998 N   0  0  0  0  0  0  0  0  0  0  0  0
   -2.5238   -0.4719   -0.1032 H   0  0  0  0  0  0  0  0  0  0  0  0
   -0.4848   -0.1959    0.4138 C   0  0  1  0  0  0  0  0  0  0  0  0
    0.3163   -0.9144    0.2322 H   0  0  0  0  0  0  0  0  0  0  0  0
   -0.4778    0.8343   -0.7324 C   0  0  0  0  0  0  0  0  0  0  0  0
   -1.3672    1.4606   -0.6365 H   0  0  0  0  0  0  0  0  0  0  0  0
    0.4013    1.4728   -0.6324 H   0  0  0  0  0  0  0  0  0  0  0  0
   -0.4776    0.2039   -2.1359 C   0  0  0  0  0  0  0  0  0  0  0  0
    0.4117   -0.4135   -2.2609 H   0  0  0  0  0  0  0  0  0  0  0  0
   -1.3586   -0.4294   -2.2394 H   0  0  0  0  0  0  0  0  0  0  0  0
   -0.4952    1.2393   -3.2603 C   0  0  0  0  0  0  0  0  0  0  0  0
   -0.5789    2.4375   -3.0653 O   0  0  0  0  0  0  0  0  0  0  0  0
   -0.4077    0.8159   -4.5026 N   0  0  0  0  0  0  0  0  0  0  0  0
   -0.4231    1.5388   -5.2009 H   0  0  0  0  0  0  0  0  0  0  0  0
   -0.3342   -0.1575   -4.7186 H   0  0  0  0  0  0  0  0  0  0  0  0
   -0.2428    0.4512    1.7862 C   0  0  0  0  0  0  0  0  0  0  0  0
    0.6316    1.3050    1.9227 O   0  0  0  0  0  0  0  0  0  0  0  0
   -1.0088    0.0381    2.8040 N   0  0  0  0  0  0  0  0  0  0  0  0
   -1.7220   -0.6469    2.6106 H   0  0  0  0  0  0  0  0  0  0  0  0
   -0.8932    0.5457    4.1705 C   0  0  0  0  0  0  0  0  0  0  0  0
   -1.0156    1.6316    4.1706 H   0  0  0  0  0  0  0  0  0  0  0  0
   -1.6570    0.0986    4.8086 H   0  0  0  0  0  0  0  0  0  0  0  0
    0.0951    0.3100    4.5689 H   0  0  0  0  0  0  0  0  0  0  0  0
  5  6  2  0  0  0  0
  5  7  1  0  0  0  0
  2  3  1  0  0  0  0
  2  4  1  0  0  0  0
  2  5  1  0  0  0  0
  1  2  1  0  0  0  0
 22 23  2  0  0  0  0
 22 24  1  0  0  0  0
 19 20  1  0  0  0  0
 19 21  1  0  0  0  0
 17 18  2  0  0  0  0
 17 19  1  0  0  0  0
 14 15  1  0  0  0  0
 14 16  1  0  0  0  0
 14 17  1  0  0  0  0
 11 12  1  0  0  0  0
 11 13  1  0  0  0  0
 11 14  1  0  0  0  0
  9 10  1  0  0  0  0
  9 11  1  0  0  0  0
  9 22  1  0  0  0  0
  7  8  1  0  0  0  0
  7  9  1  0  0  0  0
 26 27  1  0  0  0  0
 26 28  1  0  0  0  0
 26 29  1  0  0  0  0
 24 25  1  0  0  0  0
 24 26  1  0  0  0  0
M  END
$$$$
default_name
  -OEChem-01062215323D

 29 28  0     1  0  0  0  0  0999 V2000
   -3.3998   -3.6239    1.3678 H   0  0  0  0  0  0  0  0  0  0  0  0
   -3.3608   -2.6749    0.8348 C   0  0  0  0  0  0  0  0  0  0  0  0
   -4.0988   -1.9909    1.2498 H   0  0  0  0  0  0  0  0  0  0  0  0
   -3.5618   -2.8419   -0.2222 H   0  0  0  0  0  0  0  0  0  0  0  0
   -1.9818   -2.0809    0.9918 C   0  0  0  0  0  0  0  0  0  0  0  0
   -1.1288   -2.6669    1.6468 O   0  0  0  0  0  0  0  0  0  0  0  0
   -1.7648   -0.9089    0.3998 N   0  0  0  0  0  0  0  0  0  0  0  0
   -2.5238   -0.4719   -0.1032 H   0  0  0  0  0  0  0  0  0  0  0  0
   -0.4848   -0.1959    0.4138 C   0  0  1  0  0  0  0  0  0  0  0  0
    0.3163   -0.9144    0.2322 H   0  0  0  0  0  0  0  0  0  0  0  0
   -0.4778    0.8343   -0.7324 C   0  0  0  0  0  0  0  0  0  0  0  0
   -1.3672    1.4606   -0.6365 H   0  0  0  0  0  0  0  0  0  0  0  0
    0.4013    1.4728   -0.6324 H   0  0  0  0  0  0  0  0  0  0  0  0
   -0.4776    0.2039   -2.1359 C   0  0  0  0  0  0  0  0  0  0  0  0
    0.4117   -0.4135   -2.2609 H   0  0  0  0  0  0  0  0  0  0  0  0
   -1.3586   -0.4294   -2.2394 H   0  0  0  0  0  0  0  0  0  0  0  0
   -0.4952    1.2393   -3.2603 C   0  0  0  0  0  0  0  0  0  0  0  0
   -0.5789    2.4375   -3.0653 O   0  0  0  0  0  0  0  0  0  0  0  0
   -0.4077    0.8159   -4.5026 N   0  0  0  0  0  0  0  0  0  0  0  0
   -0.4231    1.5388   -5.2009 H   0  0  0  0  0  0  0  0  0  0  0  0
   -0.3342   -0.1575   -4.7186 H   0  0  0  0  0  0  0  0  0  0  0  0
   -0.2428    0.4512    1.7862 C   0  0  0  0  0  0  0  0  0  0  0  0
    0.4227    1.4813    1.8764 O   0  0  0  0  0  0  0  0  0  0  0  0
   -0.7730   -0.1576    2.8547 N   0  0  0  0  0  0  0  0  0  0  0  0
   -1.3276   -0.9844    2.7003 H   0  0  0  0  0  0  0  0  0  0  0  0
   -0.6219    0.3246    4.2269 C   0  0  0  0  0  0  0  0  0  0  0  0
   -0.9887    1.3515    4.2979 H   0  0  0  0  0  0  0  0  0  0  0  0
   -1.1853   -0.3061    4.9163 H   0  0  0  0  0  0  0  0  0  0  0  0
    0.4329    0.3151    4.5069 H   0  0  0  0  0  0  0  0  0  0  0  0
  5  6  2  0  0  0  0
  5  7  1  0  0  0  0
  2  3  1  0  0  0  0
  2  4  1  0  0  0  0
  2  5  1  0  0  0  0
  1  2  1  0  0  0  0
 22 23  2  0  0  0  0
 22 24  1  0  0  0  0
 19 20  1  0  0  0  0
 19 21  1  0  0  0  0
 17 18  2  0  0  0  0
 17 19  1  0  0  0  0
 14 15  1  0  0  0  0
 14 16  1  0  0  0  0
 14 17  1  0  0  0  0
 11 12  1  0  0  0  0
 11 13  1  0  0  0  0
 11 14  1  0  0  0  0
  9 10  1  0  0  0  0
  9 11  1  0  0  0  0
  9 22  1  0  0  0  0
  7  8  1  0  0  0  0
  7  9  1  0  0  0  0
 26 27  1  0  0  0  0
 26 28  1  0  0  0  0
 26 29  1  0  0  0  0
 24 25  1  0  0  0  0
 24 26  1  0  0  0  0
M  END
$$$$
default_name
  -OEChem-01062215323D

 29 28  0     1  0  0  0  0  0999 V2000
   -3.3998   -3.6239    1.3678 H   0  0  0  0  0  0  0  0  0  0  0  0
   -3.3608   -2.6749    0.8348 C   0  0  0  0  0  0  0  0  0  0  0  0
   -4.0988   -1.9909    1.2498 H   0  0  0  0  0  0  0  0  0  0  0  0
   -3.5618   -2.8419   -0.2222 H   0  0  0  0  0  0  0  0  0  0  0  0
   -1.9818   -2.0809    0.9918 C   0  0  0  0  0  0  0  0  0  0  0  0
   -1.1288   -2.6669    1.6468 O   0  0  0  0  0  0  0  0  0  0  0  0
   -1.7648   -0.9089    0.3998 N   0  0  0  0  0  0  0  0  0  0  0  0
   -2.5238   -0.4719   -0.1032 H   0  0  0  0  0  0  0  0  0  0  0  0
   -0.4848   -0.1959    0.4138 C   0  0  1  0  0  0  0  0  0  0  0  0
    0.3163   -0.9144    0.2322 H   0  0  0  0  0  0  0  0  0  0  0  0
   -0.4778    0.8343   -0.7324 C   0  0  0  0  0  0  0  0  0  0  0  0
   -1.3672    1.4606   -0.6365 H   0  0  0  0  0  0  0  0  0  0  0  0
    0.4013    1.4728   -0.6324 H   0  0  0  0  0  0  0  0  0  0  0  0
   -0.4776    0.2039   -2.1359 C   0  0  0  0  0  0  0  0  0  0  0  0
    0.4117   -0.4135   -2.2609 H   0  0  0  0  0  0  0  0  0  0  0  0
   -1.3586   -0.4294   -2.2394 H   0  0  0  0  0  0  0  0  0  0  0  0
   -0.4952    1.2393   -3.2603 C   0  0  0  0  0  0  0  0  0  0  0  0
   -0.5789    2.4375   -3.0653 O   0  0  0  0  0  0  0  0  0  0  0  0
   -0.4077    0.8159   -4.5026 N   0  0  0  0  0  0  0  0  0  0  0  0
   -0.4231    1.5388   -5.2009 H   0  0  0  0  0  0  0  0  0  0  0  0
   -0.3342   -0.1575   -4.7186 H   0  0  0  0  0  0  0  0  0  0  0  0
   -0.2428    0.4512    1.7862 C   0  0  0  0  0  0  0  0  0  0  0  0
    0.1750    1.6053    1.8616 O   0  0  0  0  0  0  0  0  0  0  0  0
   -0.4944   -0.2942    2.8700 N   0  0  0  0  0  0  0  0  0  0  0  0
   -0.8589   -1.2230    2.7301 H   0  0  0  0  0  0  0  0  0  0  0  0
   -0.3025    0.1714    4.2428 C   0  0  0  0  0  0  0  0  0  0  0  0
   -0.8842    1.0820    4.4066 H   0  0  0  0  0  0  0  0  0  0  0  0
   -0.6244   -0.5924    4.9523 H   0  0  0  0  0  0  0  0  0  0  0  0
    0.7512    0.4006    4.4105 H   0  0  0  0  0  0  0  0  0  0  0  0
  5  6  2  0  0  0  0
  5  7  1  0  0  0  0
  2  3  1  0  0  0  0
  2  4  1  0  0  0  0
  2  5  1  0  0  0  0
  1  2  1  0  0  0  0
 22 23  2  0  0  0  0
 22 24  1  0  0  0  0
 19 20  1  0  0  0  0
 19 21  1  0  0  0  0
 17 18  2  0  0  0  0
 17 19  1  0  0  0  0
 14 15  1  0  0  0  0
 14 16  1  0  0  0  0
 14 17  1  0  0  0  0
 11 12  1  0  0  0  0
 11 13  1  0  0  0  0
 11 14  1  0  0  0  0
  9 10  1  0  0  0  0
  9 11  1  0  0  0  0
  9 22  1  0  0  0  0
  7  8  1  0  0  0  0
  7  9  1  0  0  0  0
 26 27  1  0  0  0  0
 26 28  1  0  0  0  0
 26 29  1  0  0  0  0
 24 25  1  0  0  0  0
 24 26  1  0  0  0  0
M  END
$$$$
default_name
  -OEChem-01062215323D

 29 28  0     1  0  0  0  0  0999 V2000
   -3.3998   -3.6239    1.3678 H   0  0  0  0  0  0  0  0  0  0  0  0
   -3.3608   -2.6749    0.8348 C   0  0  0  0  0  0  0  0  0  0  0  0
   -4.0988   -1.9909    1.2498 H   0  0  0  0  0  0  0  0  0  0  0  0
   -3.5618   -2.8419   -0.2222 H   0  0  0  0  0  0  0  0  0  0  0  0
   -1.9818   -2.0809    0.9918 C   0  0  0  0  0  0  0  0  0  0  0  0
   -1.1288   -2.6669    1.6468 O   0  0  0  0  0  0  0  0  0  0  0  0
   -1.7648   -0.9089    0.3998 N   0  0  0  0  0  0  0  0  0  0  0  0
   -2.5238   -0.4719   -0.1032 H   0  0  0  0  0  0  0  0  0  0  0  0
   -0.4848   -0.1959    0.4138 C   0  0  1  0  0  0  0  0  0  0  0  0
    0.3163   -0.9144    0.2322 H   0  0  0  0  0  0  0  0  0  0  0  0
   -0.4778    0.8343   -0.7324 C   0  0  0  0  0  0  0  0  0  0  0  0
   -1.3672    1.4606   -0.6365 H   0  0  0  0  0  0  0  0  0  0  0  0
    0.4013    1.4728   -0.6324 H   0  0  0  0  0  0  0  0  0  0  0  0
   -0.4776    0.2039   -2.1359 C   0  0  0  0  0  0  0  0  0  0  0  0
    0.4117   -0.4135   -2.2609 H   0  0  0  0  0  0  0  0  0  0  0  0
   -1.3586   -0.4294   -2.2394 H   0  0  0  0  0  0  0  0  0  0  0  0
   -0.4952    1.2393   -3.2603 C   0  0  0  0  0  0  0  0  0  0  0  0
   -0.5789    2.4375   -3.0653 O   0  0  0  0  0  0  0  0  0  0  0  0
   -0.4077    0.8159   -4.5026 N   0  0  0  0  0  0  0  0  0  0  0  0
   -0.4231    1.5388   -5.2009 H   0  0  0  0  0  0  0  0  0  0  0  0
   -0.3342   -0.1575   -4.7186 H   0  0  0  0  0  0  0  0  0  0  0  0
   -0.2428    0.4512    1.7862 C   0  0  0  0  0  0  0  0  0  0  0  0
   -0.0944    1.6684    1.8794 O   0  0  0  0  0  0  0  0  0  0  0  0
   -0.1920   -0.3623    2.8488 N   0  0  0  0  0  0  0  0  0  0  0  0
   -0.3478   -1.3462    2.6981 H   0  0  0  0  0  0  0  0  0  0  0  0
    0.0431    0.0967    4.2171 C   0  0  0  0  0  0  0  0  0  0  0  0
   -0.7090    0.8413    4.4892 H   0  0  0  0  0  0  0  0  0  0  0  0
   -0.0125   -0.7406    4.9144 H   0  0  0  0  0  0  0  0  0  0  0  0
    1.0284    0.5607    4.2861 H   0  0  0  0  0  0  0  0  0  0  0  0
  5  6  2  0  0  0  0
  5  7  1  0  0  0  0
  2  3  1  0  0  0  0
  2  4  1  0  0  0  0
  2  5  1  0  0  0  0
  1  2  1  0  0  0  0
 22 23  2  0  0  0  0
 22 24  1  0  0  0  0
 19 20  1  0  0  0  0
 19 21  1  0  0  0  0
 17 18  2  0  0  0  0
 17 19  1  0  0  0  0
 14 15  1  0  0  0  0
 14 16  1  0  0  0  0
 14 17  1  0  0  0  0
 11 12  1  0  0  0  0
 11 13  1  0  0  0  0
 11 14  1  0  0  0  0
  9 10  1  0  0  0  0
  9 11  1  0  0  0  0
  9 22  1  0  0  0  0
  7  8  1  0  0  0  0
  7  9  1  0  0  0  0
 26 27  1  0  0  0  0
 26 28  1  0  0  0  0
 26 29  1  0  0  0  0
 24 25  1  0  0  0  0
 24 26  1  0  0  0  0
M  END
$$$$
default_name
  -OEChem-01062215323D

 29 28  0     1  0  0  0  0  0999 V2000
   -3.3998   -3.6239    1.3678 H   0  0  0  0  0  0  0  0  0  0  0  0
   -3.3608   -2.6749    0.8348 C   0  0  0  0  0  0  0  0  0  0  0  0
   -4.0988   -1.9909    1.2498 H   0  0  0  0  0  0  0  0  0  0  0  0
   -3.5618   -2.8419   -0.2222 H   0  0  0  0  0  0  0  0  0  0  0  0
   -1.9818   -2.0809    0.9918 C   0  0  0  0  0  0  0  0  0  0  0  0
   -1.1288   -2.6669    1.6468 O   0  0  0  0  0  0  0  0  0  0  0  0
   -1.7648   -0.9089    0.3998 N   0  0  0  0  0  0  0  0  0  0  0  0
   -2.5238   -0.4719   -0.1032 H   0  0  0  0  0  0  0  0  0  0  0  0
   -0.4848   -0.1959    0.4138 C   0  0  1  0  0  0  0  0  0  0  0  0
    0.3163   -0.9144    0.2322 H   0  0  0  0  0  0  0  0  0  0  0  0
   -0.4778    0.8343   -0.7324 C   0  0  0  0  0  0  0  0  0  0  0  0
   -1.3672    1.4606   -0.6365 H   0  0  0  0  0  0  0  0  0  0  0  0
    0.4013    1.4728   -0.6324 H   0  0  0  0  0  0  0  0  0  0  0  0
   -0.4776    0.2039   -2.1359 C   0  0  0  0  0  0  0  0  0  0  0  0
    0.4117   -0.4135   -2.2609 H   0  0  0  0  0  0  0  0  0  0  0  0
   -1.3586   -0.4294   -2.2394 H   0  0  0  0  0  0  0  0  0  0  0  0
   -0.4952    1.2393   -3.2603 C   0  0  0  0  0  0  0  0  0  0  0  0
   -0.5789    2.4375   -3.0653 O   0  0  0  0  0  0  0  0  0  0  0  0
   -0.4077    0.8159   -4.5026 N   0  0  0  0  0  0  0  0  0  0  0  0
   -0.4231    1.5388   -5.2009 H   0  0  0  0  0  0  0  0  0  0  0  0
   -0.3342   -0.1575   -4.7186 H   0  0  0  0  0  0  0  0  0  0  0  0
   -0.2428    0.4512    1.7862 C   0  0  0  0  0  0  0  0  0  0  0  0
   -0.3674    1.6663    1.9285 O   0  0  0  0  0  0  0  0  0  0  0  0
    0.1134   -0.3573    2.7926 N   0  0  0  0  0  0  0  0  0  0  0  0
    0.1710   -1.3458    2.6065 H   0  0  0  0  0  0  0  0  0  0  0  0
    0.3914    0.1054    4.1516 C   0  0  0  0  0  0  0  0  0  0  0  0
   -0.4752    0.6460    4.5401 H   0  0  0  0  0  0  0  0  0  0  0  0
    0.6087   -0.7409    4.8050 H   0  0  0  0  0  0  0  0  0  0  0  0
    1.2456    0.7846    4.1422 H   0  0  0  0  0  0  0  0  0  0  0  0
  5  6  2  0  0  0  0
  5  7  1  0  0  0  0
  2  3  1  0  0  0  0
  2  4  1  0  0  0  0
  2  5  1  0  0  0  0
  1  2  1  0  0  0  0
 22 23  2  0  0  0  0
 22 24  1  0  0  0  0
 19 20  1  0  0  0  0
 19 21  1  0  0  0  0
 17 18  2  0  0  0  0
 17 19  1  0  0  0  0
 14 15  1  0  0  0  0
 14 16  1  0  0  0  0
 14 17  1  0  0  0  0
 11 12  1  0  0  0  0
 11 13  1  0  0  0  0
 11 14  1  0  0  0  0
  9 10  1  0  0  0  0
  9 11  1  0  0  0  0
  9 22  1  0  0  0  0
  7  8  1  0  0  0  0
  7  9  1  0  0  0  0
 26 27  1  0  0  0  0
 26 28  1  0  0  0  0
 26 29  1  0  0  0  0
 24 25  1  0  0  0  0
 24 26  1  0  0  0  0
M  END
$$$$
default_name
  -OEChem-01062215323D

 29 28  0     1  0  0  0  0  0999 V2000
   -3.3998   -3.6239    1.3678 H   0  0  0  0  0  0  0  0  0  0  0  0
   -3.3608   -2.6749    0.8348 C   0  0  0  0  0  0  0  0  0  0  0  0
   -4.0988   -1.9909    1.2498 H   0  0  0  0  0  0  0  0  0  0  0  0
   -3.5618   -2.8419   -0.2222 H   0  0  0  0  0  0  0  0  0  0  0  0
   -1.9818   -2.0809    0.9918 C   0  0  0  0  0  0  0  0  0  0  0  0
   -1.1288   -2.6669    1.6468 O   0  0  0  0  0  0  0  0  0  0  0  0
   -1.7648   -0.9089    0.3998 N   0  0  0  0  0  0  0  0  0  0  0  0
   -2.5238   -0.4719   -0.1032 H   0  0  0  0  0  0  0  0  0  0  0  0
   -0.4848   -0.1959    0.4138 C   0  0  1  0  0  0  0  0  0  0  0  0
    0.3163   -0.9144    0.2322 H   0  0  0  0  0  0  0  0  0  0  0  0
   -0.4778    0.8343   -0.7324 C   0  0  0  0  0  0  0  0  0  0  0  0
   -1.3672    1.4606   -0.6365 H   0  0  0  0  0  0  0  0  0  0  0  0
    0.4013    1.4728   -0.6324 H   0  0  0  0  0  0  0  0  0  0  0  0
   -0.4776    0.2039   -2.1359 C   0  0  0  0  0  0  0  0  0  0  0  0
    0.4117   -0.4135   -2.2609 H   0  0  0  0  0  0  0  0  0  0  0  0
   -1.3586   -0.4294   -2.2394 H   0  0  0  0  0  0  0  0  0  0  0  0
   -0.4952    1.2393   -3.2603 C   0  0  0  0  0  0  0  0  0  0  0  0
   -0.5789    2.4375   -3.0653 O   0  0  0  0  0  0  0  0  0  0  0  0
   -0.4077    0.8159   -4.5026 N   0  0  0  0  0  0  0  0  0  0  0  0
   -0.4231    1.5388   -5.2009 H   0  0  0  0  0  0  0  0  0  0  0  0
   -0.3342   -0.1575   -4.7186 H   0  0  0  0  0  0  0  0  0  0  0  0
   -0.2428    0.4512    1.7862 C   0  0  0  0  0  0  0  0  0  0  0  0
   -0.6252    1.5991    2.0056 O   0  0  0  0  0  0  0  0  0  0  0  0
    0.4012   -0.2796    2.7052 N   0  0  0  0  0  0  0  0  0  0  0  0
    0.6620   -1.2218    2.4614 H   0  0  0  0  0  0  0  0  0  0  0  0
    0.7187    0.1971    4.0507 C   0  0  0  0  0  0  0  0  0  0  0  0
   -0.1987    0.5094    4.5557 H   0  0  0  0  0  0  0  0  0  0  0  0
    1.1969   -0.5931    4.6315 H   0  0  0  0  0  0  0  0  0  0  0  0
    1.3880    1.0568    3.9887 H   0  0  0  0  0  0  0  0  0  0  0  0
  5  6  2  0  0  0  0
  5  7  1  0  0  0  0
  2  3  1  0  0  0  0
  2  4  1  0  0  0  0
  2  5  1  0  0  0  0
  1  2  1  0  0  0  0
 22 23  2  0  0  0  0
 22 24  1  0  0  0  0
 19 20  1  0  0  0  0
 19 21  1  0  0  0  0
 17 18  2  0  0  0  0
 17 19  1  0  0  0  0
 14 15  1  0  0  0  0
 14 16  1  0  0  0  0
 14 17  1  0  0  0  0
 11 12  1  0  0  0  0
 11 13  1  0  0  0  0
 11 14  1  0  0  0  0
  9 10  1  0  0  0  0
  9 11  1  0  0  0  0
  9 22  1  0  0  0  0
  7  8  1  0  0  0  0
  7  9  1  0  0  0  0
 26 27  1  0  0  0  0
 26 28  1  0  0  0  0
 26 29  1  0  0  0  0
 24 25  1  0  0  0  0
 24 26  1  0  0  0  0
M  END
$$$$
default_name
  -OEChem-01062215323D

 29 28  0     1  0  0  0  0  0999 V2000
   -3.3998   -3.6239    1.3678 H   0  0  0  0  0  0  0  0  0  0  0  0
   -3.3608   -2.6749    0.8348 C   0  0  0  0  0  0  0  0  0  0  0  0
   -4.0988   -1.9909    1.2498 H   0  0  0  0  0  0  0  0  0  0  0  0
   -3.5618   -2.8419   -0.2222 H   0  0  0  0  0  0  0  0  0  0  0  0
   -1.9818   -2.0809    0.9918 C   0  0  0  0  0  0  0  0  0  0  0  0
   -1.1288   -2.6669    1.6468 O   0  0  0  0  0  0  0  0  0  0  0  0
   -1.7648   -0.9089    0.3998 N   0  0  0  0  0  0  0  0  0  0  0  0
   -2.5238   -0.4719   -0.1032 H   0  0  0  0  0  0  0  0  0  0  0  0
   -0.4848   -0.1959    0.4138 C   0  0  1  0  0  0  0  0  0  0  0  0
    0.3163   -0.9144    0.2322 H   0  0  0  0  0  0  0  0  0  0  0  0
   -0.4778    0.8343   -0.7324 C   0  0  0  0  0  0  0  0  0  0  0  0
   -1.3672    1.4606   -0.6365 H   0  0  0  0  0  0  0  0  0  0  0  0
    0.4013    1.4728   -0.6324 H   0  0  0  0  0  0  0  0  0  0  0  0
   -0.4776    0.2039   -2.1359 C   0  0  0  0  0  0  0  0  0  0  0  0
    0.4117   -0.4135   -2.2609 H   0  0  0  0  0  0  0  0  0  0  0  0
   -1.3586   -0.4294   -2.2394 H   0  0  0  0  0  0  0  0  0  0  0  0
   -0.4952    1.2393   -3.2603 C   0  0  0  0  0  0  0  0  0  0  0  0
   -0.5789    2.4375   -3.0653 O   0  0  0  0  0  0  0  0  0  0  0  0
   -0.4077    0.8159   -4.5026 N   0  0  0  0  0  0  0  0  0  0  0  0
   -0.4231    1.5388   -5.2009 H   0  0  0  0  0  0  0  0  0  0  0  0
   -0.3342   -0.1575   -4.7186 H   0  0  0  0  0  0  0  0  0  0  0  0
   -0.2428    0.4512    1.7862 C   0  0  0  0  0  0  0  0  0  0  0  0
   -0.8503    1.4716    2.1054 O   0  0  0  0  0  0  0  0  0  0  0  0
    0.6517   -0.1345    2.5926 N   0  0  0  0  0  0  0  0  0  0  0  0
    1.0917   -0.9826    2.2728 H   0  0  0  0  0  0  0  0  0  0  0  0
    1.0026    0.3654    3.9212 C   0  0  0  0  0  0  0  0  0  0  0  0
    0.1017    0.4406    4.5352 H   0  0  0  0  0  0  0  0  0  0  0  0
    1.7119   -0.3072    4.4059 H   0  0  0  0  0  0  0  0  0  0  0  0
    1.4458    1.3590    3.8361 H   0  0  0  0  0  0  0  0  0  0  0  0
  5  6  2  0  0  0  0
  5  7  1  0  0  0  0
  2  3  1  0  0  0  0
  2  4  1  0  0  0  0
  2  5  1  0  0  0  0
  1  2  1  0  0  0  0
 22 23  2  0  0  0  0
 22 24  1  0  0  0  0
 19 20  1  0  0  0  0
 19 21  1  0  0  0  0
 17 18  2  0  0  0  0
 17 19  1  0  0  0  0
 14 15  1  0  0  0  0
 14 16  1  0  0  0  0
 14 17  1  0  0  0  0
 11 12  1  0  0  0  0
 11 13  1  0  0  0  0
 11 14  1  0  0  0  0
  9 10  1  0  0  0  0
  9 11  1  0  0  0  0
  9 22  1  0  0  0  0
  7  8  1  0  0  0  0
  7  9  1  0  0  0  0
 26 27  1  0  0  0  0
 26 28  1  0  0  0  0
 26 29  1  0  0  0  0
 24 25  1  0  0  0  0
 24 26  1  0  0  0  0
M  END
$$$$
default_name
  -OEChem-01062215323D

 29 28  0     1  0  0  0  0  0999 V2000
   -3.3998   -3.6239    1.3678 H   0  0  0  0  0  0  0  0  0  0  0  0
   -3.3608   -2.6749    0.8348 C   0  0  0  0  0  0  0  0  0  0  0  0
   -4.0988   -1.9909    1.2498 H   0  0  0  0  0  0  0  0  0  0  0  0
   -3.5618   -2.8419   -0.2222 H   0  0  0  0  0  0  0  0  0  0  0  0
   -1.9818   -2.0809    0.9918 C   0  0  0  0  0  0  0  0  0  0  0  0
   -1.1288   -2.6669    1.6468 O   0  0  0  0  0  0  0  0  0  0  0  0
   -1.7648   -0.9089    0.3998 N   0  0  0  0  0  0  0  0  0  0  0  0
   -2.5238   -0.4719   -0.1032 H   0  0  0  0  0  0  0  0  0  0  0  0
   -0.4848   -0.1959    0.4138 C   0  0  1  0  0  0  0  0  0  0  0  0
    0.3163   -0.9144    0.2322 H   0  0  0  0  0  0  0  0  0  0  0  0
   -0.4778    0.8343   -0.7324 C   0  0  0  0  0  0  0  0  0  0  0  0
   -1.3672    1.4606   -0.6365 H   0  0  0  0  0  0  0  0  0  0  0  0
    0.4013    1.4728   -0.6324 H   0  0  0  0  0  0  0  0  0  0  0  0
   -0.4776    0.2039   -2.1359 C   0  0  0  0  0  0  0  0  0  0  0  0
    0.4117   -0.4135   -2.2609 H   0  0  0  0  0  0  0  0  0  0  0  0
   -1.3586   -0.4294   -2.2394 H   0  0  0  0  0  0  0  0  0  0  0  0
   -0.4952    1.2393   -3.2603 C   0  0  0  0  0  0  0  0  0  0  0  0
   -0.5789    2.4375   -3.0653 O   0  0  0  0  0  0  0  0  0  0  0  0
   -0.4077    0.8159   -4.5026 N   0  0  0  0  0  0  0  0  0  0  0  0
   -0.4231    1.5388   -5.2009 H   0  0  0  0  0  0  0  0  0  0  0  0
   -0.3342   -0.1575   -4.7186 H   0  0  0  0  0  0  0  0  0  0  0  0
   -0.2428    0.4512    1.7862 C   0  0  0  0  0  0  0  0  0  0  0  0
   -1.0273    1.2922    2.2212 O   0  0  0  0  0  0  0  0  0  0  0  0
    0.8479    0.0682    2.4624 N   0  0  0  0  0  0  0  0  0  0  0  0
    1.4310   -0.6445    2.0536 H   0  0  0  0  0  0  0  0  0  0  0  0
    1.2239    0.5988    3.7721 C   0  0  0  0  0  0  0  0  0  0  0  0
    0.4056    0.4445    4.4798 H   0  0  0  0  0  0  0  0  0  0  0  0
    2.1187    0.0971    4.1435 H   0  0  0  0  0  0  0  0  0  0  0  0
    1.4152    1.6704    3.6946 H   0  0  0  0  0  0  0  0  0  0  0  0
  5  6  2  0  0  0  0
  5  7  1  0  0  0  0
  2  3  1  0  0  0  0
  2  4  1  0  0  0  0
  2  5  1  0  0  0  0
  1  2  1  0  0  0  0
 22 23  2  0  0  0  0
 22 24  1  0  0  0  0
 19 20  1  0  0  0  0
 19 21  1  0  0  0  0
 17 18  2  0  0  0  0
 17 19  1  0  0  0  0
 14 15  1  0  0  0  0
 14 16  1  0  0  0  0
 14 17  1  0  0  0  0
 11 12  1  0  0  0  0
 11 13  1  0  0  0  0
 11 14  1  0  0  0  0
  9 10  1  0  0  0  0
  9 11  1  0  0  0  0
  9 22  1  0  0  0  0
  7  8  1  0  0  0  0
  7  9  1  0  0  0  0
 26 27  1  0  0  0  0
 26 28  1  0  0  0  0
 26 29  1  0  0  0  0
 24 25  1  0  0  0  0
 24 26  1  0  0  0  0
M  END
$$$$
default_name
  -OEChem-01062215323D

 29 28  0     1  0  0  0  0  0999 V2000
   -3.3998   -3.6239    1.3678 H   0  0  0  0  0  0  0  0  0  0  0  0
   -3.3608   -2.6749    0.8348 C   0  0  0  0  0  0  0  0  0  0  0  0
   -4.0988   -1.9909    1.2498 H   0  0  0  0  0  0  0  0  0  0  0  0
   -3.5618   -2.8419   -0.2222 H   0  0  0  0  0  0  0  0  0  0  0  0
   -1.9818   -2.0809    0.9918 C   0  0  0  0  0  0  0  0  0  0  0  0
   -1.1288   -2.6669    1.6468 O   0  0  0  0  0  0  0  0  0  0  0  0
   -1.7648   -0.9089    0.3998 N   0  0  0  0  0  0  0  0  0  0  0  0
   -2.5238   -0.4719   -0.1032 H   0  0  0  0  0  0  0  0  0  0  0  0
   -0.4848   -0.1959    0.4138 C   0  0  1  0  0  0  0  0  0  0  0  0
    0.3163   -0.9144    0.2322 H   0  0  0  0  0  0  0  0  0  0  0  0
   -0.4778    0.8343   -0.7324 C   0  0  0  0  0  0  0  0  0  0  0  0
   -1.3672    1.4606   -0.6365 H   0  0  0  0  0  0  0  0  0  0  0  0
    0.4013    1.4728   -0.6324 H   0  0  0  0  0  0  0  0  0  0  0  0
   -0.4776    0.2039   -2.1359 C   0  0  0  0  0  0  0  0  0  0  0  0
    0.4117   -0.4135   -2.2609 H   0  0  0  0  0  0  0  0  0  0  0  0
   -1.3586   -0.4294   -2.2394 H   0  0  0  0  0  0  0  0  0  0  0  0
   -0.4952    1.2393   -3.2603 C   0  0  0  0  0  0  0  0  0  0  0  0
   -0.5789    2.4375   -3.0653 O   0  0  0  0  0  0  0  0  0  0  0  0
   -0.4077    0.8159   -4.5026 N   0  0  0  0  0  0  0  0  0  0  0  0
   -0.4231    1.5388   -5.2009 H   0  0  0  0  0  0  0  0  0  0  0  0
   -0.3342   -0.1575   -4.7186 H   0  0  0  0  0  0  0  0  0  0  0  0
   -0.2428    0.4512    1.7862 C   0  0  0  0  0  0  0  0  0  0  0  0
   -1.1443    1.0734    2.3451 O   0  0  0  0  0  0  0  0  0  0  0  0
    0.9763    0.3146    2.3236 N   0  0  0  0  0  0  0  0  0  0  0  0
    1.6566   -0.2305    1.8186 H   0  0  0  0  0  0  0  0  0  0  0  0
    1.3674    0.8816    3.6135 C   0  0  0  0  0  0  0  0  0  0  0  0
    0.6921    0.5208    4.3933 H   0  0  0  0  0  0  0  0  0  0  0  0
    2.3896    0.5924    3.8622 H   0  0  0  0  0  0  0  0  0  0  0  0
    1.2982    1.9700    3.5740 H   0  0  0  0  0  0  0  0  0  0  0  0
  5  6  2  0  0  0  0
  5  7  1  0  0  0  0
  2  3  1  0  0  0  0
  2  4  1  0  0  0  0
  2  5  1  0  0  0  0
  1  2  1  0  0  0  0
 22 23  2  0  0  0  0
 22 24  1  0  0  0  0
 19 20  1  0  0  0  0
 19 21  1  0  0  0  0
 17 18  2  0  0  0  0
 17 19  1  0  0  0  0
 14 15  1  0  0  0  0
 14 16  1  0  0  0  0
 14 17  1  0  0  0  0
 11 12  1  0  0  0  0
 11 13  1  0  0  0  0
 11 14  1  0  0  0  0
  9 10  1  0  0  0  0
  9 11  1  0  0  0  0
  9 22  1  0  0  0  0
  7  8  1  0  0  0  0
  7  9  1  0  0  0  0
 26 27  1  0  0  0  0
 26 28  1  0  0  0  0
 26 29  1  0  0  0  0
 24 25  1  0  0  0  0
 24 26  1  0  0  0  0
M  END
$$$$
default_name
  -OEChem-01062215323D

 29 28  0     1  0  0  0  0  0999 V2000
   -3.3998   -3.6239    1.3678 H   0  0  0  0  0  0  0  0  0  0  0  0
   -3.3608   -2.6749    0.8348 C   0  0  0  0  0  0  0  0  0  0  0  0
   -4.0988   -1.9909    1.2498 H   0  0  0  0  0  0  0  0  0  0  0  0
   -3.5618   -2.8419   -0.2222 H   0  0  0  0  0  0  0  0  0  0  0  0
   -1.9818   -2.0809    0.9918 C   0  0  0  0  0  0  0  0  0  0  0  0
   -1.1288   -2.6669    1.6468 O   0  0  0  0  0  0  0  0  0  0  0  0
   -1.7648   -0.9089    0.3998 N   0  0  0  0  0  0  0  0  0  0  0  0
   -2.5238   -0.4719   -0.1032 H   0  0  0  0  0  0  0  0  0  0  0  0
   -0.4848   -0.1959    0.4138 C   0  0  1  0  0  0  0  0  0  0  0  0
    0.3163   -0.9144    0.2322 H   0  0  0  0  0  0  0  0  0  0  0  0
   -0.4778    0.8343   -0.7324 C   0  0  0  0  0  0  0  0  0  0  0  0
   -1.3672    1.4606   -0.6365 H   0  0  0  0  0  0  0  0  0  0  0  0
    0.4013    1.4728   -0.6324 H   0  0  0  0  0  0  0  0  0  0  0  0
   -0.4776    0.2039   -2.1359 C   0  0  0  0  0  0  0  0  0  0  0  0
    0.4117   -0.4135   -2.2609 H   0  0  0  0  0  0  0  0  0  0  0  0
   -1.3586   -0.4294   -2.2394 H   0  0  0  0  0  0  0  0  0  0  0  0
   -0.4952    1.2393   -3.2603 C   0  0  0  0  0  0  0  0  0  0  0  0
   -0.5789    2.4375   -3.0653 O   0  0  0  0  0  0  0  0  0  0  0  0
   -0.4077    0.8159   -4.5026 N   0  0  0  0  0  0  0  0  0  0  0  0
   -0.4231    1.5388   -5.2009 H   0  0  0  0  0  0  0  0  0  0  0  0
   -0.3342   -0.1575   -4.7186 H   0  0  0  0  0  0  0  0  0  0  0  0
   -0.2428    0.4512    1.7862 C   0  0  0  0  0  0  0  0  0  0  0  0
   -1.1931    0.8299    2.4685 O   0  0  0  0  0  0  0  0  0  0  0  0
    1.0282    0.5880    2.1855 N   0  0  0  0  0  0  0  0  0  0  0  0
    1.7533    0.2311    1.5839 H   0  0  0  0  0  0  0  0  0  0  0  0
    1.4233    1.1943    3.4562 C   0  0  0  0  0  0  0  0  0  0  0  0
    0.9418    0.6642    4.2816 H   0  0  0  0  0  0  0  0  0  0  0  0
    2.5061    1.1450    3.5811 H   0  0  0  0  0  0  0  0  0  0  0  0
    1.1028    2.2372    3.4824 H   0  0  0  0  0  0  0  0  0  0  0  0
  5  6  2  0  0  0  0
  5  7  1  0  0  0  0
  2  3  1  0  0  0  0
  2  4  1  0  0  0  0
  2  5  1  0  0  0  0
  1  2  1  0  0  0  0
 22 23  2  0  0  0  0
 22 24  1  0  0  0  0
 19 20  1  0  0  0  0
 19 21  1  0  0  0  0
 17 18  2  0  0  0  0
 17 19  1  0  0  0  0
 14 15  1  0  0  0  0
 14 16  1  0  0  0  0
 14 17  1  0  0  0  0
 11 12  1  0  0  0  0
 11 13  1  0  0  0  0
 11 14  1  0  0  0  0
  9 10  1  0  0  0  0
  9 11  1  0  0  0  0
  9 22  1  0  0  0  0
  7  8  1  0  0  0  0
  7  9  1  0  0  0  0
 26 27  1  0  0  0  0
 26 28  1  0  0  0  0
 26 29  1  0  0  0  0
 24 25  1  0  0  0  0
 24 26  1  0  0  0  0
M  END
$$$$
default_name
  -OEChem-01062215323D

 29 28  0     1  0  0  0  0  0999 V2000
   -3.3998   -3.6239    1.3678 H   0  0  0  0  0  0  0  0  0  0  0  0
   -3.3608   -2.6749    0.8348 C   0  0  0  0  0  0  0  0  0  0  0  0
   -4.0988   -1.9909    1.2498 H   0  0  0  0  0  0  0  0  0  0  0  0
   -3.5618   -2.8419   -0.2222 H   0  0  0  0  0  0  0  0  0  0  0  0
   -1.9818   -2.0809    0.9918 C   0  0  0  0  0  0  0  0  0  0  0  0
   -1.1288   -2.6669    1.6468 O   0  0  0  0  0  0  0  0  0  0  0  0
   -1.7648   -0.9089    0.3998 N   0  0  0  0  0  0  0  0  0  0  0  0
   -2.5238   -0.4719   -0.1032 H   0  0  0  0  0  0  0  0  0  0  0  0
   -0.4848   -0.1959    0.4138 C   0  0  1  0  0  0  0  0  0  0  0  0
    0.3163   -0.9144    0.2322 H   0  0  0  0  0  0  0  0  0  0  0  0
   -0.4778    0.8343   -0.7324 C   0  0  0  0  0  0  0  0  0  0  0  0
   -1.3672    1.4606   -0.6365 H   0  0  0  0  0  0  0  0  0  0  0  0
    0.4013    1.4728   -0.6324 H   0  0  0  0  0  0  0  0  0  0  0  0
   -0.4776    0.2039   -2.1359 C   0  0  0  0  0  0  0  0  0  0  0  0
    0.4117   -0.4135   -2.2609 H   0  0  0  0  0  0  0  0  0  0  0  0
   -1.3586   -0.4294   -2.2394 H   0  0  0  0  0  0  0  0  0  0  0  0
   -0.4952    1.2393   -3.2603 C   0  0  0  0  0  0  0  0  0  0  0  0
   -0.5789    2.4375   -3.0653 O   0  0  0  0  0  0  0  0  0  0  0  0
   -0.4077    0.8159   -4.5026 N   0  0  0  0  0  0  0  0  0  0  0  0
   -0.4231    1.5388   -5.2009 H   0  0  0  0  0  0  0  0  0  0  0  0
   -0.3342   -0.1575   -4.7186 H   0  0  0  0  0  0  0  0  0  0  0  0
   -0.2428    0.4512    1.7862 C   0  0  0  0  0  0  0  0  0  0  0  0
   -1.1706    0.5783    2.5831 O   0  0  0  0  0  0  0  0  0  0  0  0
    1.0001    0.8697    2.0576 N   0  0  0  0  0  0  0  0  0  0  0  0
    1.7143    0.7088    1.3654 H   0  0  0  0  0  0  0  0  0  0  0  0
    1.3879    1.5158    3.3108 C   0  0  0  0  0  0  0  0  0  0  0  0
    1.1377    0.8651    4.1524 H   0  0  0  0  0  0  0  0  0  0  0  0
    2.4602    1.7171    3.3194 H   0  0  0  0  0  0  0  0  0  0  0  0
    0.8423    2.4538    3.4262 H   0  0  0  0  0  0  0  0  0  0  0  0
  5  6  2  0  0  0  0
  5  7  1  0  0  0  0
  2  3  1  0  0  0  0
  2  4  1  0  0  0  0
  2  5  1  0  0  0  0
  1  2  1  0  0  0  0
 22 23  2  0  0  0  0
 22 24  1  0  0  0  0
 19 20  1  0  0  0  0
 19 21  1  0  0  0  0
 17 18  2  0  0  0  0
 17 19  1  0  0  0  0
 14 15  1  0  0  0  0
 14 16  1  0  0  0  0
 14 17  1  0  0  0  0
 11 12  1  0  0  0  0
 11 13  1  0  0  0  0
 11 14  1  0  0  0  0
  9 10  1  0  0  0  0
  9 11  1  0  0  0  0
  9 22  1  0  0  0  0
  7  8  1  0  0  0  0
  7  9  1  0  0  0  0
 26 27  1  0  0  0  0
 26 28  1  0  0  0  0
 26 29  1  0  0  0  0
 24 25  1  0  0  0  0
 24 26  1  0  0  0  0
M  END
$$$$
default_name
  -OEChem-01062215323D

 29 28  0     1  0  0  0  0  0999 V2000
   -3.3998   -3.6239    1.3678 H   0  0  0  0  0  0  0  0  0  0  0  0
   -3.3608   -2.6749    0.8348 C   0  0  0  0  0  0  0  0  0  0  0  0
   -4.0988   -1.9909    1.2498 H   0  0  0  0  0  0  0  0  0  0  0  0
   -3.5618   -2.8419   -0.2222 H   0  0  0  0  0  0  0  0  0  0  0  0
   -1.9818   -2.0809    0.9918 C   0  0  0  0  0  0  0  0  0  0  0  0
   -1.1288   -2.6669    1.6468 O   0  0  0  0  0  0  0  0  0  0  0  0
   -1.7648   -0.9089    0.3998 N   0  0  0  0  0  0  0  0  0  0  0  0
   -2.5238   -0.4719   -0.1032 H   0  0  0  0  0  0  0  0  0  0  0  0
   -0.4848   -0.1959    0.4138 C   0  0  1  0  0  0  0  0  0  0  0  0
    0.2783   -0.8411   -0.0248 H   0  0  0  0  0  0  0  0  0  0  0  0
   -0.6101    1.0666   -0.4611 C   0  0  0  0  0  0  0  0  0  0  0  0
   -1.4728    1.6398   -0.1151 H   0  0  0  0  0  0  0  0  0  0  0  0
    0.2821    1.6808   -0.3306 H   0  0  0  0  0  0  0  0  0  0  0  0
   -0.7947    0.7697   -1.9595 C   0  0  0  0  0  0  0  0  0  0  0  0
    0.0642    0.2116   -2.3316 H   0  0  0  0  0  0  0  0  0  0  0  0
   -1.6893    0.1613   -2.0920 H   0  0  0  0  0  0  0  0  0  0  0  0
   -0.9416    2.0320   -2.8091 C   0  0  0  0  0  0  0  0  0  0  0  0
   -0.9857    3.1535   -2.3391 O   0  0  0  0  0  0  0  0  0  0  0  0
   -1.0167    1.9017   -4.1158 N   0  0  0  0  0  0  0  0  0  0  0  0
   -1.1115    2.7633   -4.6248 H   0  0  0  0  0  0  0  0  0  0  0  0
   -0.9828    1.0036   -4.5540 H   0  0  0  0  0  0  0  0  0  0  0  0
   -0.0637    0.1284    1.8555 C   0  0  0  0  0  0  0  0  0  0  0  0
   -0.7808   -0.2002    2.7988 O   0  0  0  0  0  0  0  0  0  0  0  0
    1.0925    0.7824    2.0255 N   0  0  0  0  0  0  0  0  0  0  0  0
    1.6389    0.9964    1.2065 H   0  0  0  0  0  0  0  0  0  0  0  0
    1.6238    1.1744    3.3302 C   0  0  0  0  0  0  0  0  0  0  0  0
    1.7224    0.2918    3.9670 H   0  0  0  0  0  0  0  0  0  0  0  0
    2.6011    1.6463    3.2172 H   0  0  0  0  0  0  0  0  0  0  0  0
    0.9380    1.8729    3.8127 H   0  0  0  0  0  0  0  0  0  0  0  0
  5  6  2  0  0  0  0
  5  7  1  0  0  0  0
  2  3  1  0  0  0  0
  2  4  1  0  0  0  0
  2  5  1  0  0  0  0
  1  2  1  0  0  0  0
 22 23  2  0  0  0  0
 22 24  1  0  0  0  0
 19 20  1  0  0  0  0
 19 21  1  0  0  0  0
 17 18  2  0  0  0  0
 17 19  1  0  0  0  0
 14 15  1  0  0  0  0
 14 16  1  0  0  0  0
 14 17  1  0  0  0  0
 11 12  1  0  0  0  0
 11 13  1  0  0  0  0
 11 14  1  0  0  0  0
  9 10  1  0  0  0  0
  9 11  1  0  0  0  0
  9 22  1  0  0  0  0
  7  8  1  0  0  0  0
  7  9  1  0  0  0  0
 26 27  1  0  0  0  0
 26 28  1  0  0  0  0
 26 29  1  0  0  0  0
 24 25  1  0  0  0  0
 24 26  1  0  0  0  0
M  END
$$$$
default_name
  -OEChem-01062215323D

 29 28  0     1  0  0  0  0  0999 V2000
   -3.3998   -3.6239    1.3678 H   0  0  0  0  0  0  0  0  0  0  0  0
   -3.3608   -2.6749    0.8348 C   0  0  0  0  0  0  0  0  0  0  0  0
   -4.0988   -1.9909    1.2498 H   0  0  0  0  0  0  0  0  0  0  0  0
   -3.5618   -2.8419   -0.2222 H   0  0  0  0  0  0  0  0  0  0  0  0
   -1.9818   -2.0809    0.9918 C   0  0  0  0  0  0  0  0  0  0  0  0
   -1.1288   -2.6669    1.6468 O   0  0  0  0  0  0  0  0  0  0  0  0
   -1.7648   -0.9089    0.3998 N   0  0  0  0  0  0  0  0  0  0  0  0
   -2.5238   -0.4719   -0.1032 H   0  0  0  0  0  0  0  0  0  0  0  0
   -0.4848   -0.1959    0.4138 C   0  0  1  0  0  0  0  0  0  0  0  0
    0.2783   -0.8411   -0.0248 H   0  0  0  0  0  0  0  0  0  0  0  0
   -0.6101    1.0666   -0.4611 C   0  0  0  0  0  0  0  0  0  0  0  0
   -1.4728    1.6398   -0.1151 H   0  0  0  0  0  0  0  0  0  0  0  0
    0.2821    1.6808   -0.3306 H   0  0  0  0  0  0  0  0  0  0  0  0
   -0.7947    0.7697   -1.9595 C   0  0  0  0  0  0  0  0  0  0  0  0
    0.0642    0.2116   -2.3316 H   0  0  0  0  0  0  0  0  0  0  0  0
   -1.6893    0.1613   -2.0920 H   0  0  0  0  0  0  0  0  0  0  0  0
   -0.9416    2.0320   -2.8091 C   0  0  0  0  0  0  0  0  0  0  0  0
   -0.9857    3.1535   -2.3391 O   0  0  0  0  0  0  0  0  0  0  0  0
   -1.0167    1.9017   -4.1158 N   0  0  0  0  0  0  0  0  0  0  0  0
   -1.1115    2.7633   -4.6248 H   0  0  0  0  0  0  0  0  0  0  0  0
   -0.9828    1.0036   -4.5540 H   0  0  0  0  0  0  0  0  0  0  0  0
   -0.0637    0.1284    1.8555 C   0  0  0  0  0  0  0  0  0  0  0  0
   -0.6192   -0.4256    2.8023 O   0  0  0  0  0  0  0  0  0  0  0  0
    0.9094    1.0332    2.0225 N   0  0  0  0  0  0  0  0  0  0  0  0
    1.3351    1.4266    1.1984 H   0  0  0  0  0  0  0  0  0  0  0  0
    1.4122    1.4589    3.3280 C   0  0  0  0  0  0  0  0  0  0  0  0
    1.7606    0.5883    3.8892 H   0  0  0  0  0  0  0  0  0  0  0  0
    2.2378    2.1618    3.2073 H   0  0  0  0  0  0  0  0  0  0  0  0
    0.6103    1.9357    3.8943 H   0  0  0  0  0  0  0  0  0  0  0  0
  5  6  2  0  0  0  0
  5  7  1  0  0  0  0
  2  3  1  0  0  0  0
  2  4  1  0  0  0  0
  2  5  1  0  0  0  0
  1  2  1  0  0  0  0
 22 23  2  0  0  0  0
 22 24  1  0  0  0  0
 19 20  1  0  0  0  0
 19 21  1  0  0  0  0
 17 18  2  0  0  0  0
 17 19  1  0  0  0  0
 14 15  1  0  0  0  0
 14 16  1  0  0  0  0
 14 17  1  0  0  0  0
 11 12  1  0  0  0  0
 11 13  1  0  0  0  0
 11 14  1  0  0  0  0
  9 10  1  0  0  0  0
  9 11  1  0  0  0  0
  9 22  1  0  0  0  0
  7  8  1  0  0  0  0
  7  9  1  0  0  0  0
 26 27  1  0  0  0  0
 26 28  1  0  0  0  0
 26 29  1  0  0  0  0
 24 25  1  0  0  0  0
 24 26  1  0  0  0  0
M  END
$$$$
default_name
  -OEChem-01062215323D

 29 28  0     1  0  0  0  0  0999 V2000
   -3.3998   -3.6239    1.3678 H   0  0  0  0  0  0  0  0  0  0  0  0
   -3.3608   -2.6749    0.8348 C   0  0  0  0  0  0  0  0  0  0  0  0
   -4.0988   -1.9909    1.2498 H   0  0  0  0  0  0  0  0  0  0  0  0
   -3.5618   -2.8419   -0.2222 H   0  0  0  0  0  0  0  0  0  0  0  0
   -1.9818   -2.0809    0.9918 C   0  0  0  0  0  0  0  0  0  0  0  0
   -1.1288   -2.6669    1.6468 O   0  0  0  0  0  0  0  0  0  0  0  0
   -1.7648   -0.9089    0.3998 N   0  0  0  0  0  0  0  0  0  0  0  0
   -2.5238   -0.4719   -0.1032 H   0  0  0  0  0  0  0  0  0  0  0  0
   -0.4848   -0.1959    0.4138 C   0  0  1  0  0  0  0  0  0  0  0  0
    0.2783   -0.8411   -0.0248 H   0  0  0  0  0  0  0  0  0  0  0  0
   -0.6101    1.0666   -0.4611 C   0  0  0  0  0  0  0  0  0  0  0  0
   -1.4728    1.6398   -0.1151 H   0  0  0  0  0  0  0  0  0  0  0  0
    0.2821    1.6808   -0.3306 H   0  0  0  0  0  0  0  0  0  0  0  0
   -0.7947    0.7697   -1.9595 C   0  0  0  0  0  0  0  0  0  0  0  0
    0.0642    0.2116   -2.3316 H   0  0  0  0  0  0  0  0  0  0  0  0
   -1.6893    0.1613   -2.0920 H   0  0  0  0  0  0  0  0  0  0  0  0
   -0.9416    2.0320   -2.8091 C   0  0  0  0  0  0  0  0  0  0  0  0
   -0.9857    3.1535   -2.3391 O   0  0  0  0  0  0  0  0  0  0  0  0
   -1.0167    1.9017   -4.1158 N   0  0  0  0  0  0  0  0  0  0  0  0
   -1.1115    2.7633   -4.6248 H   0  0  0  0  0  0  0  0  0  0  0  0
   -0.9828    1.0036   -4.5540 H   0  0  0  0  0  0  0  0  0  0  0  0
   -0.0637    0.1284    1.8555 C   0  0  0  0  0  0  0  0  0  0  0  0
   -0.4082   -0.6043    2.7809 O   0  0  0  0  0  0  0  0  0  0  0  0
    0.6714    1.2313    2.0475 N   0  0  0  0  0  0  0  0  0  0  0  0
    0.9366    1.7689    1.2378 H   0  0  0  0  0  0  0  0  0  0  0  0
    1.1386    1.6824    3.3577 C   0  0  0  0  0  0  0  0  0  0  0  0
    1.7213    0.8894    3.8329 H   0  0  0  0  0  0  0  0  0  0  0  0
    1.7612    2.5723    3.2541 H   0  0  0  0  0  0  0  0  0  0  0  0
    0.2830    1.9110    3.9954 H   0  0  0  0  0  0  0  0  0  0  0  0
  5  6  2  0  0  0  0
  5  7  1  0  0  0  0
  2  3  1  0  0  0  0
  2  4  1  0  0  0  0
  2  5  1  0  0  0  0
  1  2  1  0  0  0  0
 22 23  2  0  0  0  0
 22 24  1  0  0  0  0
 19 20  1  0  0  0  0
 19 21  1  0  0  0  0
 17 18  2  0  0  0  0
 17 19  1  0  0  0  0
 14 15  1  0  0  0  0
 14 16  1  0  0  0  0
 14 17  1  0  0  0  0
 11 12  1  0  0  0  0
 11 13  1  0  0  0  0
 11 14  1  0  0  0  0
  9 10  1  0  0  0  0
  9 11  1  0  0  0  0
  9 22  1  0  0  0  0
  7  8  1  0  0  0  0
  7  9  1  0  0  0  0
 26 27  1  0  0  0  0
 26 28  1  0  0  0  0
 26 29  1  0  0  0  0
 24 25  1  0  0  0  0
 24 26  1  0  0  0  0
M  END
$$$$
default_name
  -OEChem-01062215323D

 29 28  0     1  0  0  0  0  0999 V2000
   -3.3998   -3.6239    1.3678 H   0  0  0  0  0  0  0  0  0  0  0  0
   -3.3608   -2.6749    0.8348 C   0  0  0  0  0  0  0  0  0  0  0  0
   -4.0988   -1.9909    1.2498 H   0  0  0  0  0  0  0  0  0  0  0  0
   -3.5618   -2.8419   -0.2222 H   0  0  0  0  0  0  0  0  0  0  0  0
   -1.9818   -2.0809    0.9918 C   0  0  0  0  0  0  0  0  0  0  0  0
   -1.1288   -2.6669    1.6468 O   0  0  0  0  0  0  0  0  0  0  0  0
   -1.7648   -0.9089    0.3998 N   0  0  0  0  0  0  0  0  0  0  0  0
   -2.5238   -0.4719   -0.1032 H   0  0  0  0  0  0  0  0  0  0  0  0
   -0.4848   -0.1959    0.4138 C   0  0  1  0  0  0  0  0  0  0  0  0
    0.2783   -0.8411   -0.0248 H   0  0  0  0  0  0  0  0  0  0  0  0
   -0.6101    1.0666   -0.4611 C   0  0  0  0  0  0  0  0  0  0  0  0
   -1.4728    1.6398   -0.1151 H   0  0  0  0  0  0  0  0  0  0  0  0
    0.2821    1.6808   -0.3306 H   0  0  0  0  0  0  0  0  0  0  0  0
   -0.7947    0.7697   -1.9595 C   0  0  0  0  0  0  0  0  0  0  0  0
    0.0642    0.2116   -2.3316 H   0  0  0  0  0  0  0  0  0  0  0  0
   -1.6893    0.1613   -2.0920 H   0  0  0  0  0  0  0  0  0  0  0  0
   -0.9416    2.0320   -2.8091 C   0  0  0  0  0  0  0  0  0  0  0  0
   -0.9857    3.1535   -2.3391 O   0  0  0  0  0  0  0  0  0  0  0  0
   -1.0167    1.9017   -4.1158 N   0  0  0  0  0  0  0  0  0  0  0  0
   -1.1115    2.7633   -4.6248 H   0  0  0  0  0  0  0  0  0  0  0  0
   -0.9828    1.0036   -4.5540 H   0  0  0  0  0  0  0  0  0  0  0  0
   -0.0637    0.1284    1.8555 C   0  0  0  0  0  0  0  0  0  0  0  0
   -0.1622   -0.7242    2.7360 O   0  0  0  0  0  0  0  0  0  0  0  0
    0.3947    1.3630    2.0986 N   0  0  0  0  0  0  0  0  0  0  0  0
    0.4708    2.0001    1.3218 H   0  0  0  0  0  0  0  0  0  0  0  0
    0.8216    1.8297    3.4171 C   0  0  0  0  0  0  0  0  0  0  0  0
    1.6071    1.1748    3.8021 H   0  0  0  0  0  0  0  0  0  0  0  0
    1.2037    2.8498    3.3545 H   0  0  0  0  0  0  0  0  0  0  0  0
   -0.0216    1.8006    4.1093 H   0  0  0  0  0  0  0  0  0  0  0  0
  5  6  2  0  0  0  0
  5  7  1  0  0  0  0
  2  3  1  0  0  0  0
  2  4  1  0  0  0  0
  2  5  1  0  0  0  0
  1  2  1  0  0  0  0
 22 23  2  0  0  0  0
 22 24  1  0  0  0  0
 19 20  1  0  0  0  0
 19 21  1  0  0  0  0
 17 18  2  0  0  0  0
 17 19  1  0  0  0  0
 14 15  1  0  0  0  0
 14 16  1  0  0  0  0
 14 17  1  0  0  0  0
 11 12  1  0  0  0  0
 11 13  1  0  0  0  0
 11 14  1  0  0  0  0
  9 10  1  0  0  0  0
  9 11  1  0  0  0  0
  9 22  1  0  0  0  0
  7  8  1  0  0  0  0
  7  9  1  0  0  0  0
 26 27  1  0  0  0  0
 26 28  1  0  0  0  0
 26 29  1  0  0  0  0
 24 25  1  0  0  0  0
 24 26  1  0  0  0  0
M  END
$$$$
default_name
  -OEChem-01062215323D

 29 28  0     1  0  0  0  0  0999 V2000
   -3.3998   -3.6239    1.3678 H   0  0  0  0  0  0  0  0  0  0  0  0
   -3.3608   -2.6749    0.8348 C   0  0  0  0  0  0  0  0  0  0  0  0
   -4.0988   -1.9909    1.2498 H   0  0  0  0  0  0  0  0  0  0  0  0
   -3.5618   -2.8419   -0.2222 H   0  0  0  0  0  0  0  0  0  0  0  0
   -1.9818   -2.0809    0.9918 C   0  0  0  0  0  0  0  0  0  0  0  0
   -1.1288   -2.6669    1.6468 O   0  0  0  0  0  0  0  0  0  0  0  0
   -1.7648   -0.9089    0.3998 N   0  0  0  0  0  0  0  0  0  0  0  0
   -2.5238   -0.4719   -0.1032 H   0  0  0  0  0  0  0  0  0  0  0  0
   -0.4848   -0.1959    0.4138 C   0  0  1  0  0  0  0  0  0  0  0  0
    0.2783   -0.8411   -0.0248 H   0  0  0  0  0  0  0  0  0  0  0  0
   -0.6101    1.0666   -0.4611 C   0  0  0  0  0  0  0  0  0  0  0  0
   -1.4728    1.6398   -0.1151 H   0  0  0  0  0  0  0  0  0  0  0  0
    0.2821    1.6808   -0.3306 H   0  0  0  0  0  0  0  0  0  0  0  0
   -0.7947    0.7697   -1.9595 C   0  0  0  0  0  0  0  0  0  0  0  0
    0.0642    0.2116   -2.3316 H   0  0  0  0  0  0  0  0  0  0  0  0
   -1.6893    0.1613   -2.0920 H   0  0  0  0  0  0  0  0  0  0  0  0
   -0.9416    2.0320   -2.8091 C   0  0  0  0  0  0  0  0  0  0  0  0
   -0.9857    3.1535   -2.3391 O   0  0  0  0  0  0  0  0  0  0  0  0
   -1.0167    1.9017   -4.1158 N   0  0  0  0  0  0  0  0  0  0  0  0
   -1.1115    2.7633   -4.6248 H   0  0  0  0  0  0  0  0  0  0  0  0
   -0.9828    1.0036   -4.5540 H   0  0  0  0  0  0  0  0  0  0  0  0
   -0.0637    0.1284    1.8555 C   0  0  0  0  0  0  0  0  0  0  0  0
    0.1021   -0.7770    2.6707 O   0  0  0  0  0  0  0  0  0  0  0  0
    0.0983    1.4194    2.1725 N   0  0  0  0  0  0  0  0  0  0  0  0
   -0.0307    2.1042    1.4448 H   0  0  0  0  0  0  0  0  0  0  0  0
    0.4829    1.8909    3.5022 C   0  0  0  0  0  0  0  0  0  0  0  0
    1.4258    1.4248    3.7987 H   0  0  0  0  0  0  0  0  0  0  0  0
    0.6033    2.9753    3.5016 H   0  0  0  0  0  0  0  0  0  0  0  0
   -0.2828    1.6118    4.2280 H   0  0  0  0  0  0  0  0  0  0  0  0
  5  6  2  0  0  0  0
  5  7  1  0  0  0  0
  2  3  1  0  0  0  0
  2  4  1  0  0  0  0
  2  5  1  0  0  0  0
  1  2  1  0  0  0  0
 22 23  2  0  0  0  0
 22 24  1  0  0  0  0
 19 20  1  0  0  0  0
 19 21  1  0  0  0  0
 17 18  2  0  0  0  0
 17 19  1  0  0  0  0
 14 15  1  0  0  0  0
 14 16  1  0  0  0  0
 14 17  1  0  0  0  0
 11 12  1  0  0  0  0
 11 13  1  0  0  0  0
 11 14  1  0  0  0  0
  9 10  1  0  0  0  0
  9 11  1  0  0  0  0
  9 22  1  0  0  0  0
  7  8  1  0  0  0  0
  7  9  1  0  0  0  0
 26 27  1  0  0  0  0
 26 28  1  0  0  0  0
 26 29  1  0  0  0  0
 24 25  1  0  0  0  0
 24 26  1  0  0  0  0
M  END
$$$$
default_name
  -OEChem-01062215323D

 29 28  0     1  0  0  0  0  0999 V2000
   -3.3998   -3.6239    1.3678 H   0  0  0  0  0  0  0  0  0  0  0  0
   -3.3608   -2.6749    0.8348 C   0  0  0  0  0  0  0  0  0  0  0  0
   -4.0988   -1.9909    1.2498 H   0  0  0  0  0  0  0  0  0  0  0  0
   -3.5618   -2.8419   -0.2222 H   0  0  0  0  0  0  0  0  0  0  0  0
   -1.9818   -2.0809    0.9918 C   0  0  0  0  0  0  0  0  0  0  0  0
   -1.1288   -2.6669    1.6468 O   0  0  0  0  0  0  0  0  0  0  0  0
   -1.7648   -0.9089    0.3998 N   0  0  0  0  0  0  0  0  0  0  0  0
   -2.5238   -0.4719   -0.1032 H   0  0  0  0  0  0  0  0  0  0  0  0
   -0.4848   -0.1959    0.4138 C   0  0  1  0  0  0  0  0  0  0  0  0
    0.2783   -0.8411   -0.0248 H   0  0  0  0  0  0  0  0  0  0  0  0
   -0.6101    1.0666   -0.4611 C   0  0  0  0  0  0  0  0  0  0  0  0
   -1.4728    1.6398   -0.1151 H   0  0  0  0  0  0  0  0  0  0  0  0
    0.2821    1.6808   -0.3306 H   0  0  0  0  0  0  0  0  0  0  0  0
   -0.7947    0.7697   -1.9595 C   0  0  0  0  0  0  0  0  0  0  0  0
    0.0642    0.2116   -2.3316 H   0  0  0  0  0  0  0  0  0  0  0  0
   -1.6893    0.1613   -2.0920 H   0  0  0  0  0  0  0  0  0  0  0  0
   -0.9416    2.0320   -2.8091 C   0  0  0  0  0  0  0  0  0  0  0  0
   -0.9857    3.1535   -2.3391 O   0  0  0  0  0  0  0  0  0  0  0  0
   -1.0167    1.9017   -4.1158 N   0  0  0  0  0  0  0  0  0  0  0  0
   -1.1115    2.7633   -4.6248 H   0  0  0  0  0  0  0  0  0  0  0  0
   -0.9828    1.0036   -4.5540 H   0  0  0  0  0  0  0  0  0  0  0  0
   -0.0637    0.1284    1.8555 C   0  0  0  0  0  0  0  0  0  0  0  0
    0.3667   -0.7593    2.5895 O   0  0  0  0  0  0  0  0  0  0  0  0
   -0.1976    1.3967    2.2641 N   0  0  0  0  0  0  0  0  0  0  0  0
   -0.5337    2.0744    1.5985 H   0  0  0  0  0  0  0  0  0  0  0  0
    0.1456    1.8616    3.6073 C   0  0  0  0  0  0  0  0  0  0  0  0
    1.1898    1.6226    3.8232 H   0  0  0  0  0  0  0  0  0  0  0  0
    0.0009    2.9402    3.6854 H   0  0  0  0  0  0  0  0  0  0  0  0
   -0.4828    1.3576    4.3436 H   0  0  0  0  0  0  0  0  0  0  0  0
  5  6  2  0  0  0  0
  5  7  1  0  0  0  0
  2  3  1  0  0  0  0
  2  4  1  0  0  0  0
  2  5  1  0  0  0  0
  1  2  1  0  0  0  0
 22 23  2  0  0  0  0
 22 24  1  0  0  0  0
 19 20  1  0  0  0  0
 19 21  1  0  0  0  0
 17 18  2  0  0  0  0
 17 19  1  0  0  0  0
 14 15  1  0  0  0  0
 14 16  1  0  0  0  0
 14 17  1  0  0  0  0
 11 12  1  0  0  0  0
 11 13  1  0  0  0  0
 11 14  1  0  0  0  0
  9 10  1  0  0  0  0
  9 11  1  0  0  0  0
  9 22  1  0  0  0  0
  7  8  1  0  0  0  0
  7  9  1  0  0  0  0
 26 27  1  0  0  0  0
 26 28  1  0  0  0  0
 26 29  1  0  0  0  0
 24 25  1  0  0  0  0
 24 26  1  0  0  0  0
M  END
$$$$
default_name
  -OEChem-01062215323D

 29 28  0     1  0  0  0  0  0999 V2000
   -3.3998   -3.6239    1.3678 H   0  0  0  0  0  0  0  0  0  0  0  0
   -3.3608   -2.6749    0.8348 C   0  0  0  0  0  0  0  0  0  0  0  0
   -4.0988   -1.9909    1.2498 H   0  0  0  0  0  0  0  0  0  0  0  0
   -3.5618   -2.8419   -0.2222 H   0  0  0  0  0  0  0  0  0  0  0  0
   -1.9818   -2.0809    0.9918 C   0  0  0  0  0  0  0  0  0  0  0  0
   -1.1288   -2.6669    1.6468 O   0  0  0  0  0  0  0  0  0  0  0  0
   -1.7648   -0.9089    0.3998 N   0  0  0  0  0  0  0  0  0  0  0  0
   -2.5238   -0.4719   -0.1032 H   0  0  0  0  0  0  0  0  0  0  0  0
   -0.4848   -0.1959    0.4138 C   0  0  1  0  0  0  0  0  0  0  0  0
    0.2783   -0.8411   -0.0248 H   0  0  0  0  0  0  0  0  0  0  0  0
   -0.6101    1.0666   -0.4611 C   0  0  0  0  0  0  0  0  0  0  0  0
   -1.4728    1.6398   -0.1151 H   0  0  0  0  0  0  0  0  0  0  0  0
    0.2821    1.6808   -0.3306 H   0  0  0  0  0  0  0  0  0  0  0  0
   -0.7947    0.7697   -1.9595 C   0  0  0  0  0  0  0  0  0  0  0  0
    0.0642    0.2116   -2.3316 H   0  0  0  0  0  0  0  0  0  0  0  0
   -1.6893    0.1613   -2.0920 H   0  0  0  0  0  0  0  0  0  0  0  0
   -0.9416    2.0320   -2.8091 C   0  0  0  0  0  0  0  0  0  0  0  0
   -0.9857    3.1535   -2.3391 O   0  0  0  0  0  0  0  0  0  0  0  0
   -1.0167    1.9017   -4.1158 N   0  0  0  0  0  0  0  0  0  0  0  0
   -1.1115    2.7633   -4.6248 H   0  0  0  0  0  0  0  0  0  0  0  0
   -0.9828    1.0036   -4.5540 H   0  0  0  0  0  0  0  0  0  0  0  0
   -0.0637    0.1284    1.8555 C   0  0  0  0  0  0  0  0  0  0  0  0
    0.6135   -0.6721    2.4978 O   0  0  0  0  0  0  0  0  0  0  0  0
   -0.4730    1.2964    2.3670 N   0  0  0  0  0  0  0  0  0  0  0  0
   -1.0039    1.9125    1.7722 H   0  0  0  0  0  0  0  0  0  0  0  0
   -0.1674    1.7440    3.7252 C   0  0  0  0  0  0  0  0  0  0  0  0
    0.9152    1.7545    3.8737 H   0  0  0  0  0  0  0  0  0  0  0  0
   -0.5624    2.7471    3.8934 H   0  0  0  0  0  0  0  0  0  0  0  0
   -0.6079    1.0553    4.4482 H   0  0  0  0  0  0  0  0  0  0  0  0
  5  6  2  0  0  0  0
  5  7  1  0  0  0  0
  2  3  1  0  0  0  0
  2  4  1  0  0  0  0
  2  5  1  0  0  0  0
  1  2  1  0  0  0  0
 22 23  2  0  0  0  0
 22 24  1  0  0  0  0
 19 20  1  0  0  0  0
 19 21  1  0  0  0  0
 17 18  2  0  0  0  0
 17 19  1  0  0  0  0
 14 15  1  0  0  0  0
 14 16  1  0  0  0  0
 14 17  1  0  0  0  0
 11 12  1  0  0  0  0
 11 13  1  0  0  0  0
 11 14  1  0  0  0  0
  9 10  1  0  0  0  0
  9 11  1  0  0  0  0
  9 22  1  0  0  0  0
  7  8  1  0  0  0  0
  7  9  1  0  0  0  0
 26 27  1  0  0  0  0
 26 28  1  0  0  0  0
 26 29  1  0  0  0  0
 24 25  1  0  0  0  0
 24 26  1  0  0  0  0
M  END
$$$$
default_name
  -OEChem-01062215323D

 29 28  0     1  0  0  0  0  0999 V2000
   -3.3998   -3.6239    1.3678 H   0  0  0  0  0  0  0  0  0  0  0  0
   -3.3608   -2.6749    0.8348 C   0  0  0  0  0  0  0  0  0  0  0  0
   -4.0988   -1.9909    1.2498 H   0  0  0  0  0  0  0  0  0  0  0  0
   -3.5618   -2.8419   -0.2222 H   0  0  0  0  0  0  0  0  0  0  0  0
   -1.9818   -2.0809    0.9918 C   0  0  0  0  0  0  0  0  0  0  0  0
   -1.1288   -2.6669    1.6468 O   0  0  0  0  0  0  0  0  0  0  0  0
   -1.7648   -0.9089    0.3998 N   0  0  0  0  0  0  0  0  0  0  0  0
   -2.5238   -0.4719   -0.1032 H   0  0  0  0  0  0  0  0  0  0  0  0
   -0.4848   -0.1959    0.4138 C   0  0  1  0  0  0  0  0  0  0  0  0
    0.2783   -0.8411   -0.0248 H   0  0  0  0  0  0  0  0  0  0  0  0
   -0.6101    1.0666   -0.4611 C   0  0  0  0  0  0  0  0  0  0  0  0
   -1.4728    1.6398   -0.1151 H   0  0  0  0  0  0  0  0  0  0  0  0
    0.2821    1.6808   -0.3306 H   0  0  0  0  0  0  0  0  0  0  0  0
   -0.7947    0.7697   -1.9595 C   0  0  0  0  0  0  0  0  0  0  0  0
    0.0642    0.2116   -2.3316 H   0  0  0  0  0  0  0  0  0  0  0  0
   -1.6893    0.1613   -2.0920 H   0  0  0  0  0  0  0  0  0  0  0  0
   -0.9416    2.0320   -2.8091 C   0  0  0  0  0  0  0  0  0  0  0  0
   -0.9857    3.1535   -2.3391 O   0  0  0  0  0  0  0  0  0  0  0  0
   -1.0167    1.9017   -4.1158 N   0  0  0  0  0  0  0  0  0  0  0  0
   -1.1115    2.7633   -4.6248 H   0  0  0  0  0  0  0  0  0  0  0  0
   -0.9828    1.0036   -4.5540 H   0  0  0  0  0  0  0  0  0  0  0  0
   -0.0637    0.1284    1.8555 C   0  0  0  0  0  0  0  0  0  0  0  0
    0.8257   -0.5215    2.4019 O   0  0  0  0  0  0  0  0  0  0  0  0
   -0.7090    1.1254    2.4745 N   0  0  0  0  0  0  0  0  0  0  0  0
   -1.4092    1.6296    1.9542 H   0  0  0  0  0  0  0  0  0  0  0  0
   -0.4348    1.5461    3.8478 C   0  0  0  0  0  0  0  0  0  0  0  0
    0.6206    1.8117    3.9468 H   0  0  0  0  0  0  0  0  0  0  0  0
   -1.0482    2.4090    4.1114 H   0  0  0  0  0  0  0  0  0  0  0  0
   -0.6496    0.7256    4.5345 H   0  0  0  0  0  0  0  0  0  0  0  0
  5  6  2  0  0  0  0
  5  7  1  0  0  0  0
  2  3  1  0  0  0  0
  2  4  1  0  0  0  0
  2  5  1  0  0  0  0
  1  2  1  0  0  0  0
 22 23  2  0  0  0  0
 22 24  1  0  0  0  0
 19 20  1  0  0  0  0
 19 21  1  0  0  0  0
 17 18  2  0  0  0  0
 17 19  1  0  0  0  0
 14 15  1  0  0  0  0
 14 16  1  0  0  0  0
 14 17  1  0  0  0  0
 11 12  1  0  0  0  0
 11 13  1  0  0  0  0
 11 14  1  0  0  0  0
  9 10  1  0  0  0  0
  9 11  1  0  0  0  0
  9 22  1  0  0  0  0
  7  8  1  0  0  0  0
  7  9  1  0  0  0  0
 26 27  1  0  0  0  0
 26 28  1  0  0  0  0
 26 29  1  0  0  0  0
 24 25  1  0  0  0  0
 24 26  1  0  0  0  0
M  END
$$$$
default_name
  -OEChem-01062215323D

 29 28  0     1  0  0  0  0  0999 V2000
   -3.3998   -3.6239    1.3678 H   0  0  0  0  0  0  0  0  0  0  0  0
   -3.3608   -2.6749    0.8348 C   0  0  0  0  0  0  0  0  0  0  0  0
   -4.0988   -1.9909    1.2498 H   0  0  0  0  0  0  0  0  0  0  0  0
   -3.5618   -2.8419   -0.2222 H   0  0  0  0  0  0  0  0  0  0  0  0
   -1.9818   -2.0809    0.9918 C   0  0  0  0  0  0  0  0  0  0  0  0
   -1.1288   -2.6669    1.6468 O   0  0  0  0  0  0  0  0  0  0  0  0
   -1.7648   -0.9089    0.3998 N   0  0  0  0  0  0  0  0  0  0  0  0
   -2.5238   -0.4719   -0.1032 H   0  0  0  0  0  0  0  0  0  0  0  0
   -0.4848   -0.1959    0.4138 C   0  0  1  0  0  0  0  0  0  0  0  0
    0.2783   -0.8411   -0.0248 H   0  0  0  0  0  0  0  0  0  0  0  0
   -0.6101    1.0666   -0.4611 C   0  0  0  0  0  0  0  0  0  0  0  0
   -1.4728    1.6398   -0.1151 H   0  0  0  0  0  0  0  0  0  0  0  0
    0.2821    1.6808   -0.3306 H   0  0  0  0  0  0  0  0  0  0  0  0
   -0.7947    0.7697   -1.9595 C   0  0  0  0  0  0  0  0  0  0  0  0
    0.0642    0.2116   -2.3316 H   0  0  0  0  0  0  0  0  0  0  0  0
   -1.6893    0.1613   -2.0920 H   0  0  0  0  0  0  0  0  0  0  0  0
   -0.9416    2.0320   -2.8091 C   0  0  0  0  0  0  0  0  0  0  0  0
   -0.9857    3.1535   -2.3391 O   0  0  0  0  0  0  0  0  0  0  0  0
   -1.0167    1.9017   -4.1158 N   0  0  0  0  0  0  0  0  0  0  0  0
   -1.1115    2.7633   -4.6248 H   0  0  0  0  0  0  0  0  0  0  0  0
   -0.9828    1.0036   -4.5540 H   0  0  0  0  0  0  0  0  0  0  0  0
   -0.0637    0.1284    1.8555 C   0  0  0  0  0  0  0  0  0  0  0  0
    0.9889   -0.3176    2.3084 O   0  0  0  0  0  0  0  0  0  0  0  0
   -0.8896    0.8952    2.5790 N   0  0  0  0  0  0  0  0  0  0  0  0
   -1.7221    1.2449    2.1322 H   0  0  0  0  0  0  0  0  0  0  0  0
   -0.6382    1.2812    3.9668 C   0  0  0  0  0  0  0  0  0  0  0  0
    0.3262    1.7903    4.0377 H   0  0  0  0  0  0  0  0  0  0  0  0
   -1.4235    1.9490    4.3245 H   0  0  0  0  0  0  0  0  0  0  0  0
   -0.6052    0.3907    4.5969 H   0  0  0  0  0  0  0  0  0  0  0  0
  5  6  2  0  0  0  0
  5  7  1  0  0  0  0
  2  3  1  0  0  0  0
  2  4  1  0  0  0  0
  2  5  1  0  0  0  0
  1  2  1  0  0  0  0
 22 23  2  0  0  0  0
 22 24  1  0  0  0  0
 19 20  1  0  0  0  0
 19 21  1  0  0  0  0
 17 18  2  0  0  0  0
 17 19  1  0  0  0  0
 14 15  1  0  0  0  0
 14 16  1  0  0  0  0
 14 17  1  0  0  0  0
 11 12  1  0  0  0  0
 11 13  1  0  0  0  0
 11 14  1  0  0  0  0
  9 10  1  0  0  0  0
  9 11  1  0  0  0  0
  9 22  1  0  0  0  0
  7  8  1  0  0  0  0
  7  9  1  0  0  0  0
 26 27  1  0  0  0  0
 26 28  1  0  0  0  0
 26 29  1  0  0  0  0
 24 25  1  0  0  0  0
 24 26  1  0  0  0  0
M  END
$$$$
default_name
  -OEChem-01062215323D

 29 28  0     1  0  0  0  0  0999 V2000
   -3.3998   -3.6239    1.3678 H   0  0  0  0  0  0  0  0  0  0  0  0
   -3.3608   -2.6749    0.8348 C   0  0  0  0  0  0  0  0  0  0  0  0
   -4.0988   -1.9909    1.2498 H   0  0  0  0  0  0  0  0  0  0  0  0
   -3.5618   -2.8419   -0.2222 H   0  0  0  0  0  0  0  0  0  0  0  0
   -1.9818   -2.0809    0.9918 C   0  0  0  0  0  0  0  0  0  0  0  0
   -1.1288   -2.6669    1.6468 O   0  0  0  0  0  0  0  0  0  0  0  0
   -1.7648   -0.9089    0.3998 N   0  0  0  0  0  0  0  0  0  0  0  0
   -2.5238   -0.4719   -0.1032 H   0  0  0  0  0  0  0  0  0  0  0  0
   -0.4848   -0.1959    0.4138 C   0  0  1  0  0  0  0  0  0  0  0  0
    0.2783   -0.8411   -0.0248 H   0  0  0  0  0  0  0  0  0  0  0  0
   -0.6101    1.0666   -0.4611 C   0  0  0  0  0  0  0  0  0  0  0  0
   -1.4728    1.6398   -0.1151 H   0  0  0  0  0  0  0  0  0  0  0  0
    0.2821    1.6808   -0.3306 H   0  0  0  0  0  0  0  0  0  0  0  0
   -0.7947    0.7697   -1.9595 C   0  0  0  0  0  0  0  0  0  0  0  0
    0.0642    0.2116   -2.3316 H   0  0  0  0  0  0  0  0  0  0  0  0
   -1.6893    0.1613   -2.0920 H   0  0  0  0  0  0  0  0  0  0  0  0
   -0.9416    2.0320   -2.8091 C   0  0  0  0  0  0  0  0  0  0  0  0
   -0.9857    3.1535   -2.3391 O   0  0  0  0  0  0  0  0  0  0  0  0
   -1.0167    1.9017   -4.1158 N   0  0  0  0  0  0  0  0  0  0  0  0
   -1.1115    2.7633   -4.6248 H   0  0  0  0  0  0  0  0  0  0  0  0
   -0.9828    1.0036   -4.5540 H   0  0  0  0  0  0  0  0  0  0  0  0
   -0.0637    0.1284    1.8555 C   0  0  0  0  0  0  0  0  0  0  0  0
    1.0918   -0.0745    2.2236 O   0  0  0  0  0  0  0  0  0  0  0  0
   -1.0024    0.6217    2.6735 N   0  0  0  0  0  0  0  0  0  0  0  0
   -1.9213    0.7848    2.2938 H   0  0  0  0  0  0  0  0  0  0  0  0
   -0.7639    0.9676    4.0741 C   0  0  0  0  0  0  0  0  0  0  0  0
    0.0520    1.6916    4.1400 H   0  0  0  0  0  0  0  0  0  0  0  0
   -1.6626    1.3984    4.5182 H   0  0  0  0  0  0  0  0  0  0  0  0
   -0.4775    0.0737    4.6309 H   0  0  0  0  0  0  0  0  0  0  0  0
  5  6  2  0  0  0  0
  5  7  1  0  0  0  0
  2  3  1  0  0  0  0
  2  4  1  0  0  0  0
  2  5  1  0  0  0  0
  1  2  1  0  0  0  0
 22 23  2  0  0  0  0
 22 24  1  0  0  0  0
 19 20  1  0  0  0  0
 19 21  1  0  0  0  0
 17 18  2  0  0  0  0
 17 19  1  0  0  0  0
 14 15  1  0  0  0  0
 14 16  1  0  0  0  0
 14 17  1  0  0  0  0
 11 12  1  0  0  0  0
 11 13  1  0  0  0  0
 11 14  1  0  0  0  0
  9 10  1  0  0  0  0
  9 11  1  0  0  0  0
  9 22  1  0  0  0  0
  7  8  1  0  0  0  0
  7  9  1  0  0  0  0
 26 27  1  0  0  0  0
 26 28  1  0  0  0  0
 26 29  1  0  0  0  0
 24 25  1  0  0  0  0
 24 26  1  0  0  0  0
M  END
$$$$
default_name
  -OEChem-01062215323D

 29 28  0     1  0  0  0  0  0999 V2000
   -3.3998   -3.6239    1.3678 H   0  0  0  0  0  0  0  0  0  0  0  0
   -3.3608   -2.6749    0.8348 C   0  0  0  0  0  0  0  0  0  0  0  0
   -4.0988   -1.9909    1.2498 H   0  0  0  0  0  0  0  0  0  0  0  0
   -3.5618   -2.8419   -0.2222 H   0  0  0  0  0  0  0  0  0  0  0  0
   -1.9818   -2.0809    0.9918 C   0  0  0  0  0  0  0  0  0  0  0  0
   -1.1288   -2.6669    1.6468 O   0  0  0  0  0  0  0  0  0  0  0  0
   -1.7648   -0.9089    0.3998 N   0  0  0  0  0  0  0  0  0  0  0  0
   -2.5238   -0.4719   -0.1032 H   0  0  0  0  0  0  0  0  0  0  0  0
   -0.4848   -0.1959    0.4138 C   0  0  1  0  0  0  0  0  0  0  0  0
    0.2783   -0.8411   -0.0248 H   0  0  0  0  0  0  0  0  0  0  0  0
   -0.6101    1.0666   -0.4611 C   0  0  0  0  0  0  0  0  0  0  0  0
   -1.4728    1.6398   -0.1151 H   0  0  0  0  0  0  0  0  0  0  0  0
    0.2821    1.6808   -0.3306 H   0  0  0  0  0  0  0  0  0  0  0  0
   -0.7947    0.7697   -1.9595 C   0  0  0  0  0  0  0  0  0  0  0  0
    0.0642    0.2116   -2.3316 H   0  0  0  0  0  0  0  0  0  0  0  0
   -1.6893    0.1613   -2.0920 H   0  0  0  0  0  0  0  0  0  0  0  0
   -0.9416    2.0320   -2.8091 C   0  0  0  0  0  0  0  0  0  0  0  0
   -0.9857    3.1535   -2.3391 O   0  0  0  0  0  0  0  0  0  0  0  0
   -1.0167    1.9017   -4.1158 N   0  0  0  0  0  0  0  0  0  0  0  0
   -1.1115    2.7633   -4.6248 H   0  0  0  0  0  0  0  0  0  0  0  0
   -0.9828    1.0036   -4.5540 H   0  0  0  0  0  0  0  0  0  0  0  0
   -0.0637    0.1284    1.8555 C   0  0  0  0  0  0  0  0  0  0  0  0
    1.1276    0.1914    2.1533 O   0  0  0  0  0  0  0  0  0  0  0  0
   -1.0397    0.3233    2.7515 N   0  0  0  0  0  0  0  0  0  0  0  0
   -1.9930    0.2806    2.4283 H   0  0  0  0  0  0  0  0  0  0  0  0
   -0.8033    0.6264    4.1624 C   0  0  0  0  0  0  0  0  0  0  0  0
   -0.1834    1.5224    4.2467 H   0  0  0  0  0  0  0  0  0  0  0  0
   -1.7493    0.7947    4.6793 H   0  0  0  0  0  0  0  0  0  0  0  0
   -0.2753   -0.2039    4.6343 H   0  0  0  0  0  0  0  0  0  0  0  0
  5  6  2  0  0  0  0
  5  7  1  0  0  0  0
  2  3  1  0  0  0  0
  2  4  1  0  0  0  0
  2  5  1  0  0  0  0
  1  2  1  0  0  0  0
 22 23  2  0  0  0  0
 22 24  1  0  0  0  0
 19 20  1  0  0  0  0
 19 21  1  0  0  0  0
 17 18  2  0  0  0  0
 17 19  1  0  0  0  0
 14 15  1  0  0  0  0
 14 16  1  0  0  0  0
 14 17  1  0  0  0  0
 11 12  1  0  0  0  0
 11 13  1  0  0  0  0
 11 14  1  0  0  0  0
  9 10  1  0  0  0  0
  9 11  1  0  0  0  0
  9 22  1  0  0  0  0
  7  8  1  0  0  0  0
  7  9  1  0  0  0  0
 26 27  1  0  0  0  0
 26 28  1  0  0  0  0
 26 29  1  0  0  0  0
 24 25  1  0  0  0  0
 24 26  1  0  0  0  0
M  END
$$$$
default_name
  -OEChem-01062215323D

 29 28  0     1  0  0  0  0  0999 V2000
   -3.3998   -3.6239    1.3678 H   0  0  0  0  0  0  0  0  0  0  0  0
   -3.3608   -2.6749    0.8348 C   0  0  0  0  0  0  0  0  0  0  0  0
   -4.0988   -1.9909    1.2498 H   0  0  0  0  0  0  0  0  0  0  0  0
   -3.5618   -2.8419   -0.2222 H   0  0  0  0  0  0  0  0  0  0  0  0
   -1.9818   -2.0809    0.9918 C   0  0  0  0  0  0  0  0  0  0  0  0
   -1.1288   -2.6669    1.6468 O   0  0  0  0  0  0  0  0  0  0  0  0
   -1.7648   -0.9089    0.3998 N   0  0  0  0  0  0  0  0  0  0  0  0
   -2.5238   -0.4719   -0.1032 H   0  0  0  0  0  0  0  0  0  0  0  0
   -0.4848   -0.1959    0.4138 C   0  0  1  0  0  0  0  0  0  0  0  0
    0.2783   -0.8411   -0.0248 H   0  0  0  0  0  0  0  0  0  0  0  0
   -0.6101    1.0666   -0.4611 C   0  0  0  0  0  0  0  0  0  0  0  0
   -1.4728    1.6398   -0.1151 H   0  0  0  0  0  0  0  0  0  0  0  0
    0.2821    1.6808   -0.3306 H   0  0  0  0  0  0  0  0  0  0  0  0
   -0.7947    0.7697   -1.9595 C   0  0  0  0  0  0  0  0  0  0  0  0
    0.0642    0.2116   -2.3316 H   0  0  0  0  0  0  0  0  0  0  0  0
   -1.6893    0.1613   -2.0920 H   0  0  0  0  0  0  0  0  0  0  0  0
   -0.9416    2.0320   -2.8091 C   0  0  0  0  0  0  0  0  0  0  0  0
   -0.9857    3.1535   -2.3391 O   0  0  0  0  0  0  0  0  0  0  0  0
   -1.0167    1.9017   -4.1158 N   0  0  0  0  0  0  0  0  0  0  0  0
   -1.1115    2.7633   -4.6248 H   0  0  0  0  0  0  0  0  0  0  0  0
   -0.9828    1.0036   -4.5540 H   0  0  0  0  0  0  0  0  0  0  0  0
   -0.0637    0.1284    1.8555 C   0  0  0  0  0  0  0  0  0  0  0  0
    1.0938    0.4619    2.1023 O   0  0  0  0  0  0  0  0  0  0  0  0
   -0.9991    0.0205    2.8078 N   0  0  0  0  0  0  0  0  0  0  0  0
   -1.9326   -0.2335    2.5263 H   0  0  0  0  0  0  0  0  0  0  0  0
   -0.7537    0.2811    4.2256 C   0  0  0  0  0  0  0  0  0  0  0  0
   -0.3638    1.2943    4.3508 H   0  0  0  0  0  0  0  0  0  0  0  0
   -1.6776    0.1792    4.7969 H   0  0  0  0  0  0  0  0  0  0  0  0
   -0.0124   -0.4232    4.6069 H   0  0  0  0  0  0  0  0  0  0  0  0
  5  6  2  0  0  0  0
  5  7  1  0  0  0  0
  2  3  1  0  0  0  0
  2  4  1  0  0  0  0
  2  5  1  0  0  0  0
  1  2  1  0  0  0  0
 22 23  2  0  0  0  0
 22 24  1  0  0  0  0
 19 20  1  0  0  0  0
 19 21  1  0  0  0  0
 17 18  2  0  0  0  0
 17 19  1  0  0  0  0
 14 15  1  0  0  0  0
 14 16  1  0  0  0  0
 14 17  1  0  0  0  0
 11 12  1  0  0  0  0
 11 13  1  0  0  0  0
 11 14  1  0  0  0  0
  9 10  1  0  0  0  0
  9 11  1  0  0  0  0
  9 22  1  0  0  0  0
  7  8  1  0  0  0  0
  7  9  1  0  0  0  0
 26 27  1  0  0  0  0
 26 28  1  0  0  0  0
 26 29  1  0  0  0  0
 24 25  1  0  0  0  0
 24 26  1  0  0  0  0
M  END
$$$$
default_name
  -OEChem-01062215323D

 29 28  0     1  0  0  0  0  0999 V2000
   -3.3998   -3.6239    1.3678 H   0  0  0  0  0  0  0  0  0  0  0  0
   -3.3608   -2.6749    0.8348 C   0  0  0  0  0  0  0  0  0  0  0  0
   -4.0988   -1.9909    1.2498 H   0  0  0  0  0  0  0  0  0  0  0  0
   -3.5618   -2.8419   -0.2222 H   0  0  0  0  0  0  0  0  0  0  0  0
   -1.9818   -2.0809    0.9918 C   0  0  0  0  0  0  0  0  0  0  0  0
   -1.1288   -2.6669    1.6468 O   0  0  0  0  0  0  0  0  0  0  0  0
   -1.7648   -0.9089    0.3998 N   0  0  0  0  0  0  0  0  0  0  0  0
   -2.5238   -0.4719   -0.1032 H   0  0  0  0  0  0  0  0  0  0  0  0
   -0.4848   -0.1959    0.4138 C   0  0  1  0  0  0  0  0  0  0  0  0
    0.2783   -0.8411   -0.0248 H   0  0  0  0  0  0  0  0  0  0  0  0
   -0.6101    1.0666   -0.4611 C   0  0  0  0  0  0  0  0  0  0  0  0
   -1.4728    1.6398   -0.1151 H   0  0  0  0  0  0  0  0  0  0  0  0
    0.2821    1.6808   -0.3306 H   0  0  0  0  0  0  0  0  0  0  0  0
   -0.7947    0.7697   -1.9595 C   0  0  0  0  0  0  0  0  0  0  0  0
    0.0642    0.2116   -2.3316 H   0  0  0  0  0  0  0  0  0  0  0  0
   -1.6893    0.1613   -2.0920 H   0  0  0  0  0  0  0  0  0  0  0  0
   -0.9416    2.0320   -2.8091 C   0  0  0  0  0  0  0  0  0  0  0  0
   -0.9857    3.1535   -2.3391 O   0  0  0  0  0  0  0  0  0  0  0  0
   -1.0167    1.9017   -4.1158 N   0  0  0  0  0  0  0  0  0  0  0  0
   -1.1115    2.7633   -4.6248 H   0  0  0  0  0  0  0  0  0  0  0  0
   -0.9828    1.0036   -4.5540 H   0  0  0  0  0  0  0  0  0  0  0  0
   -0.0637    0.1284    1.8555 C   0  0  0  0  0  0  0  0  0  0  0  0
    0.9927    0.7186    2.0741 O   0  0  0  0  0  0  0  0  0  0  0  0
   -0.8833   -0.2661    2.8384 N   0  0  0  0  0  0  0  0  0  0  0  0
   -1.7440   -0.7222    2.5812 H   0  0  0  0  0  0  0  0  0  0  0  0
   -0.6185   -0.0449    4.2594 C   0  0  0  0  0  0  0  0  0  0  0  0
   -0.4769    1.0227    4.4449 H   0  0  0  0  0  0  0  0  0  0  0  0
   -1.4525   -0.4063    4.8629 H   0  0  0  0  0  0  0  0  0  0  0  0
    0.2933   -0.5692    4.5505 H   0  0  0  0  0  0  0  0  0  0  0  0
  5  6  2  0  0  0  0
  5  7  1  0  0  0  0
  2  3  1  0  0  0  0
  2  4  1  0  0  0  0
  2  5  1  0  0  0  0
  1  2  1  0  0  0  0
 22 23  2  0  0  0  0
 22 24  1  0  0  0  0
 19 20  1  0  0  0  0
 19 21  1  0  0  0  0
 17 18  2  0  0  0  0
 17 19  1  0  0  0  0
 14 15  1  0  0  0  0
 14 16  1  0  0  0  0
 14 17  1  0  0  0  0
 11 12  1  0  0  0  0
 11 13  1  0  0  0  0
 11 14  1  0  0  0  0
  9 10  1  0  0  0  0
  9 11  1  0  0  0  0
  9 22  1  0  0  0  0
  7  8  1  0  0  0  0
  7  9  1  0  0  0  0
 26 27  1  0  0  0  0
 26 28  1  0  0  0  0
 26 29  1  0  0  0  0
 24 25  1  0  0  0  0
 24 26  1  0  0  0  0
M  END
$$$$
default_name
  -OEChem-01062215323D

 29 28  0     1  0  0  0  0  0999 V2000
   -3.3998   -3.6239    1.3678 H   0  0  0  0  0  0  0  0  0  0  0  0
   -3.3608   -2.6749    0.8348 C   0  0  0  0  0  0  0  0  0  0  0  0
   -4.0988   -1.9909    1.2498 H   0  0  0  0  0  0  0  0  0  0  0  0
   -3.5618   -2.8419   -0.2222 H   0  0  0  0  0  0  0  0  0  0  0  0
   -1.9818   -2.0809    0.9918 C   0  0  0  0  0  0  0  0  0  0  0  0
   -1.1288   -2.6669    1.6468 O   0  0  0  0  0  0  0  0  0  0  0  0
   -1.7648   -0.9089    0.3998 N   0  0  0  0  0  0  0  0  0  0  0  0
   -2.5238   -0.4719   -0.1032 H   0  0  0  0  0  0  0  0  0  0  0  0
   -0.4848   -0.1959    0.4138 C   0  0  1  0  0  0  0  0  0  0  0  0
    0.2783   -0.8411   -0.0248 H   0  0  0  0  0  0  0  0  0  0  0  0
   -0.6101    1.0666   -0.4611 C   0  0  0  0  0  0  0  0  0  0  0  0
   -1.4728    1.6398   -0.1151 H   0  0  0  0  0  0  0  0  0  0  0  0
    0.2821    1.6808   -0.3306 H   0  0  0  0  0  0  0  0  0  0  0  0
   -0.7947    0.7697   -1.9595 C   0  0  0  0  0  0  0  0  0  0  0  0
    0.0642    0.2116   -2.3316 H   0  0  0  0  0  0  0  0  0  0  0  0
   -1.6893    0.1613   -2.0920 H   0  0  0  0  0  0  0  0  0  0  0  0
   -0.9416    2.0320   -2.8091 C   0  0  0  0  0  0  0  0  0  0  0  0
   -0.9857    3.1535   -2.3391 O   0  0  0  0  0  0  0  0  0  0  0  0
   -1.0167    1.9017   -4.1158 N   0  0  0  0  0  0  0  0  0  0  0  0
   -1.1115    2.7633   -4.6248 H   0  0  0  0  0  0  0  0  0  0  0  0
   -0.9828    1.0036   -4.5540 H   0  0  0  0  0  0  0  0  0  0  0  0
   -0.0637    0.1284    1.8555 C   0  0  0  0  0  0  0  0  0  0  0  0
    0.8311    0.9439    2.0706 O   0  0  0  0  0  0  0  0  0  0  0  0
   -0.7001   -0.5169    2.8414 N   0  0  0  0  0  0  0  0  0  0  0  0
   -1.4401   -1.1525    2.5892 H   0  0  0  0  0  0  0  0  0  0  0  0
   -0.4068   -0.3293    4.2616 C   0  0  0  0  0  0  0  0  0  0  0  0
   -0.5151    0.7263    4.5228 H   0  0  0  0  0  0  0  0  0  0  0  0
   -1.0892   -0.9219    4.8728 H   0  0  0  0  0  0  0  0  0  0  0  0
    0.6209   -0.6321    4.4689 H   0  0  0  0  0  0  0  0  0  0  0  0
  5  6  2  0  0  0  0
  5  7  1  0  0  0  0
  2  3  1  0  0  0  0
  2  4  1  0  0  0  0
  2  5  1  0  0  0  0
  1  2  1  0  0  0  0
 22 23  2  0  0  0  0
 22 24  1  0  0  0  0
 19 20  1  0  0  0  0
 19 21  1  0  0  0  0
 17 18  2  0  0  0  0
 17 19  1  0  0  0  0
 14 15  1  0  0  0  0
 14 16  1  0  0  0  0
 14 17  1  0  0  0  0
 11 12  1  0  0  0  0
 11 13  1  0  0  0  0
 11 14  1  0  0  0  0
  9 10  1  0  0  0  0
  9 11  1  0  0  0  0
  9 22  1  0  0  0  0
  7  8  1  0  0  0  0
  7  9  1  0  0  0  0
 26 27  1  0  0  0  0
 26 28  1  0  0  0  0
 26 29  1  0  0  0  0
 24 25  1  0  0  0  0
 24 26  1  0  0  0  0
M  END
$$$$
default_name
  -OEChem-01062215323D

 29 28  0     1  0  0  0  0  0999 V2000
   -3.3998   -3.6239    1.3678 H   0  0  0  0  0  0  0  0  0  0  0  0
   -3.3608   -2.6749    0.8348 C   0  0  0  0  0  0  0  0  0  0  0  0
   -4.0988   -1.9909    1.2498 H   0  0  0  0  0  0  0  0  0  0  0  0
   -3.5618   -2.8419   -0.2222 H   0  0  0  0  0  0  0  0  0  0  0  0
   -1.9818   -2.0809    0.9918 C   0  0  0  0  0  0  0  0  0  0  0  0
   -1.1288   -2.6669    1.6468 O   0  0  0  0  0  0  0  0  0  0  0  0
   -1.7648   -0.9089    0.3998 N   0  0  0  0  0  0  0  0  0  0  0  0
   -2.5238   -0.4719   -0.1032 H   0  0  0  0  0  0  0  0  0  0  0  0
   -0.4848   -0.1959    0.4138 C   0  0  1  0  0  0  0  0  0  0  0  0
    0.2783   -0.8411   -0.0248 H   0  0  0  0  0  0  0  0  0  0  0  0
   -0.6101    1.0666   -0.4611 C   0  0  0  0  0  0  0  0  0  0  0  0
   -1.4728    1.6398   -0.1151 H   0  0  0  0  0  0  0  0  0  0  0  0
    0.2821    1.6808   -0.3306 H   0  0  0  0  0  0  0  0  0  0  0  0
   -0.7947    0.7697   -1.9595 C   0  0  0  0  0  0  0  0  0  0  0  0
    0.0642    0.2116   -2.3316 H   0  0  0  0  0  0  0  0  0  0  0  0
   -1.6893    0.1613   -2.0920 H   0  0  0  0  0  0  0  0  0  0  0  0
   -0.9416    2.0320   -2.8091 C   0  0  0  0  0  0  0  0  0  0  0  0
   -0.9857    3.1535   -2.3391 O   0  0  0  0  0  0  0  0  0  0  0  0
   -1.0167    1.9017   -4.1158 N   0  0  0  0  0  0  0  0  0  0  0  0
   -1.1115    2.7633   -4.6248 H   0  0  0  0  0  0  0  0  0  0  0  0
   -0.9828    1.0036   -4.5540 H   0  0  0  0  0  0  0  0  0  0  0  0
   -0.0637    0.1284    1.8555 C   0  0  0  0  0  0  0  0  0  0  0  0
    0.6201    1.1226    2.0920 O   0  0  0  0  0  0  0  0  0  0  0  0
   -0.4621   -0.7150    2.8164 N   0  0  0  0  0  0  0  0  0  0  0  0
   -1.0417   -1.4948    2.5499 H   0  0  0  0  0  0  0  0  0  0  0  0
   -0.1332   -0.5528    4.2320 C   0  0  0  0  0  0  0  0  0  0  0  0
   -0.4758    0.4252    4.5790 H   0  0  0  0  0  0  0  0  0  0  0  0
   -0.6126   -1.3324    4.8260 H   0  0  0  0  0  0  0  0  0  0  0  0
    0.9482   -0.6074    4.3678 H   0  0  0  0  0  0  0  0  0  0  0  0
  5  6  2  0  0  0  0
  5  7  1  0  0  0  0
  2  3  1  0  0  0  0
  2  4  1  0  0  0  0
  2  5  1  0  0  0  0
  1  2  1  0  0  0  0
 22 23  2  0  0  0  0
 22 24  1  0  0  0  0
 19 20  1  0  0  0  0
 19 21  1  0  0  0  0
 17 18  2  0  0  0  0
 17 19  1  0  0  0  0
 14 15  1  0  0  0  0
 14 16  1  0  0  0  0
 14 17  1  0  0  0  0
 11 12  1  0  0  0  0
 11 13  1  0  0  0  0
 11 14  1  0  0  0  0
  9 10  1  0  0  0  0
  9 11  1  0  0  0  0
  9 22  1  0  0  0  0
  7  8  1  0  0  0  0
  7  9  1  0  0  0  0
 26 27  1  0  0  0  0
 26 28  1  0  0  0  0
 26 29  1  0  0  0  0
 24 25  1  0  0  0  0
 24 26  1  0  0  0  0
M  END
$$$$
default_name
  -OEChem-01062215323D

 29 28  0     1  0  0  0  0  0999 V2000
   -3.3998   -3.6239    1.3678 H   0  0  0  0  0  0  0  0  0  0  0  0
   -3.3608   -2.6749    0.8348 C   0  0  0  0  0  0  0  0  0  0  0  0
   -4.0988   -1.9909    1.2498 H   0  0  0  0  0  0  0  0  0  0  0  0
   -3.5618   -2.8419   -0.2222 H   0  0  0  0  0  0  0  0  0  0  0  0
   -1.9818   -2.0809    0.9918 C   0  0  0  0  0  0  0  0  0  0  0  0
   -1.1288   -2.6669    1.6468 O   0  0  0  0  0  0  0  0  0  0  0  0
   -1.7648   -0.9089    0.3998 N   0  0  0  0  0  0  0  0  0  0  0  0
   -2.5238   -0.4719   -0.1032 H   0  0  0  0  0  0  0  0  0  0  0  0
   -0.4848   -0.1959    0.4138 C   0  0  1  0  0  0  0  0  0  0  0  0
    0.2783   -0.8411   -0.0248 H   0  0  0  0  0  0  0  0  0  0  0  0
   -0.6101    1.0666   -0.4611 C   0  0  0  0  0  0  0  0  0  0  0  0
   -1.4728    1.6398   -0.1151 H   0  0  0  0  0  0  0  0  0  0  0  0
    0.2821    1.6808   -0.3306 H   0  0  0  0  0  0  0  0  0  0  0  0
   -0.7947    0.7697   -1.9595 C   0  0  0  0  0  0  0  0  0  0  0  0
    0.0642    0.2116   -2.3316 H   0  0  0  0  0  0  0  0  0  0  0  0
   -1.6893    0.1613   -2.0920 H   0  0  0  0  0  0  0  0  0  0  0  0
   -0.9416    2.0320   -2.8091 C   0  0  0  0  0  0  0  0  0  0  0  0
   -0.9857    3.1535   -2.3391 O   0  0  0  0  0  0  0  0  0  0  0  0
   -1.0167    1.9017   -4.1158 N   0  0  0  0  0  0  0  0  0  0  0  0
   -1.1115    2.7633   -4.6248 H   0  0  0  0  0  0  0  0  0  0  0  0
   -0.9828    1.0036   -4.5540 H   0  0  0  0  0  0  0  0  0  0  0  0
   -0.0637    0.1284    1.8555 C   0  0  0  0  0  0  0  0  0  0  0  0
    0.3741    1.2425    2.1369 O   0  0  0  0  0  0  0  0  0  0  0  0
   -0.1854   -0.8467    2.7653 N   0  0  0  0  0  0  0  0  0  0  0  0
   -0.5758   -1.7259    2.4658 H   0  0  0  0  0  0  0  0  0  0  0  0
    0.1837   -0.7001    4.1726 C   0  0  0  0  0  0  0  0  0  0  0  0
   -0.3616    0.1398    4.6099 H   0  0  0  0  0  0  0  0  0  0  0  0
   -0.0551   -1.6098    4.7256 H   0  0  0  0  0  0  0  0  0  0  0  0
    1.2529   -0.4969    4.2540 H   0  0  0  0  0  0  0  0  0  0  0  0
  5  6  2  0  0  0  0
  5  7  1  0  0  0  0
  2  3  1  0  0  0  0
  2  4  1  0  0  0  0
  2  5  1  0  0  0  0
  1  2  1  0  0  0  0
 22 23  2  0  0  0  0
 22 24  1  0  0  0  0
 19 20  1  0  0  0  0
 19 21  1  0  0  0  0
 17 18  2  0  0  0  0
 17 19  1  0  0  0  0
 14 15  1  0  0  0  0
 14 16  1  0  0  0  0
 14 17  1  0  0  0  0
 11 12  1  0  0  0  0
 11 13  1  0  0  0  0
 11 14  1  0  0  0  0
  9 10  1  0  0  0  0
  9 11  1  0  0  0  0
  9 22  1  0  0  0  0
  7  8  1  0  0  0  0
  7  9  1  0  0  0  0
 26 27  1  0  0  0  0
 26 28  1  0  0  0  0
 26 29  1  0  0  0  0
 24 25  1  0  0  0  0
 24 26  1  0  0  0  0
M  END
$$$$
default_name
  -OEChem-01062215323D

 29 28  0     1  0  0  0  0  0999 V2000
   -3.3998   -3.6239    1.3678 H   0  0  0  0  0  0  0  0  0  0  0  0
   -3.3608   -2.6749    0.8348 C   0  0  0  0  0  0  0  0  0  0  0  0
   -4.0988   -1.9909    1.2498 H   0  0  0  0  0  0  0  0  0  0  0  0
   -3.5618   -2.8419   -0.2222 H   0  0  0  0  0  0  0  0  0  0  0  0
   -1.9818   -2.0809    0.9918 C   0  0  0  0  0  0  0  0  0  0  0  0
   -1.1288   -2.6669    1.6468 O   0  0  0  0  0  0  0  0  0  0  0  0
   -1.7648   -0.9089    0.3998 N   0  0  0  0  0  0  0  0  0  0  0  0
   -2.5238   -0.4719   -0.1032 H   0  0  0  0  0  0  0  0  0  0  0  0
   -0.4848   -0.1959    0.4138 C   0  0  1  0  0  0  0  0  0  0  0  0
    0.2783   -0.8411   -0.0248 H   0  0  0  0  0  0  0  0  0  0  0  0
   -0.6101    1.0666   -0.4611 C   0  0  0  0  0  0  0  0  0  0  0  0
   -1.4728    1.6398   -0.1151 H   0  0  0  0  0  0  0  0  0  0  0  0
    0.2821    1.6808   -0.3306 H   0  0  0  0  0  0  0  0  0  0  0  0
   -0.7947    0.7697   -1.9595 C   0  0  0  0  0  0  0  0  0  0  0  0
    0.0642    0.2116   -2.3316 H   0  0  0  0  0  0  0  0  0  0  0  0
   -1.6893    0.1613   -2.0920 H   0  0  0  0  0  0  0  0  0  0  0  0
   -0.9416    2.0320   -2.8091 C   0  0  0  0  0  0  0  0  0  0  0  0
   -0.9857    3.1535   -2.3391 O   0  0  0  0  0  0  0  0  0  0  0  0
   -1.0167    1.9017   -4.1158 N   0  0  0  0  0  0  0  0  0  0  0  0
   -1.1115    2.7633   -4.6248 H   0  0  0  0  0  0  0  0  0  0  0  0
   -0.9828    1.0036   -4.5540 H   0  0  0  0  0  0  0  0  0  0  0  0
   -0.0637    0.1284    1.8555 C   0  0  0  0  0  0  0  0  0  0  0  0
    0.1098    1.2954    2.2022 O   0  0  0  0  0  0  0  0  0  0  0  0
    0.1110   -0.9032    2.6914 N   0  0  0  0  0  0  0  0  0  0  0  0
   -0.0743   -1.8301    2.3428 H   0  0  0  0  0  0  0  0  0  0  0  0
    0.5224   -0.7613    4.0874 C   0  0  0  0  0  0  0  0  0  0  0  0
   -0.1803   -0.1102    4.6132 H   0  0  0  0  0  0  0  0  0  0  0  0
    0.5453   -1.7353    4.5785 H   0  0  0  0  0  0  0  0  0  0  0  0
    1.5141   -0.3082    4.1352 H   0  0  0  0  0  0  0  0  0  0  0  0
  5  6  2  0  0  0  0
  5  7  1  0  0  0  0
  2  3  1  0  0  0  0
  2  4  1  0  0  0  0
  2  5  1  0  0  0  0
  1  2  1  0  0  0  0
 22 23  2  0  0  0  0
 22 24  1  0  0  0  0
 19 20  1  0  0  0  0
 19 21  1  0  0  0  0
 17 18  2  0  0  0  0
 17 19  1  0  0  0  0
 14 15  1  0  0  0  0
 14 16  1  0  0  0  0
 14 17  1  0  0  0  0
 11 12  1  0  0  0  0
 11 13  1  0  0  0  0
 11 14  1  0  0  0  0
  9 10  1  0  0  0  0
  9 11  1  0  0  0  0
  9 22  1  0  0  0  0
  7  8  1  0  0  0  0
  7  9  1  0  0  0  0
 26 27  1  0  0  0  0
 26 28  1  0  0  0  0
 26 29  1  0  0  0  0
 24 25  1  0  0  0  0
 24 26  1  0  0  0  0
M  END
$$$$
default_name
  -OEChem-01062215323D

 29 28  0     1  0  0  0  0  0999 V2000
   -3.3998   -3.6239    1.3678 H   0  0  0  0  0  0  0  0  0  0  0  0
   -3.3608   -2.6749    0.8348 C   0  0  0  0  0  0  0  0  0  0  0  0
   -4.0988   -1.9909    1.2498 H   0  0  0  0  0  0  0  0  0  0  0  0
   -3.5618   -2.8419   -0.2222 H   0  0  0  0  0  0  0  0  0  0  0  0
   -1.9818   -2.0809    0.9918 C   0  0  0  0  0  0  0  0  0  0  0  0
   -1.1288   -2.6669    1.6468 O   0  0  0  0  0  0  0  0  0  0  0  0
   -1.7648   -0.9089    0.3998 N   0  0  0  0  0  0  0  0  0  0  0  0
   -2.5238   -0.4719   -0.1032 H   0  0  0  0  0  0  0  0  0  0  0  0
   -0.4848   -0.1959    0.4138 C   0  0  1  0  0  0  0  0  0  0  0  0
    0.2783   -0.8411   -0.0248 H   0  0  0  0  0  0  0  0  0  0  0  0
   -0.6101    1.0666   -0.4611 C   0  0  0  0  0  0  0  0  0  0  0  0
   -1.4728    1.6398   -0.1151 H   0  0  0  0  0  0  0  0  0  0  0  0
    0.2821    1.6808   -0.3306 H   0  0  0  0  0  0  0  0  0  0  0  0
   -0.7947    0.7697   -1.9595 C   0  0  0  0  0  0  0  0  0  0  0  0
    0.0642    0.2116   -2.3316 H   0  0  0  0  0  0  0  0  0  0  0  0
   -1.6893    0.1613   -2.0920 H   0  0  0  0  0  0  0  0  0  0  0  0
   -0.9416    2.0320   -2.8091 C   0  0  0  0  0  0  0  0  0  0  0  0
   -0.9857    3.1535   -2.3391 O   0  0  0  0  0  0  0  0  0  0  0  0
   -1.0167    1.9017   -4.1158 N   0  0  0  0  0  0  0  0  0  0  0  0
   -1.1115    2.7633   -4.6248 H   0  0  0  0  0  0  0  0  0  0  0  0
   -0.9828    1.0036   -4.5540 H   0  0  0  0  0  0  0  0  0  0  0  0
   -0.0637    0.1284    1.8555 C   0  0  0  0  0  0  0  0  0  0  0  0
   -0.1548    1.2776    2.2835 O   0  0  0  0  0  0  0  0  0  0  0  0
    0.4069   -0.8804    2.5998 N   0  0  0  0  0  0  0  0  0  0  0  0
    0.4286   -1.8002    2.1892 H   0  0  0  0  0  0  0  0  0  0  0  0
    0.8598   -0.7321    3.9823 C   0  0  0  0  0  0  0  0  0  0  0  0
    0.0557   -0.3080    4.5888 H   0  0  0  0  0  0  0  0  0  0  0  0
    1.1476   -1.7003    4.3947 H   0  0  0  0  0  0  0  0  0  0  0  0
    1.7141   -0.0540    4.0196 H   0  0  0  0  0  0  0  0  0  0  0  0
  5  6  2  0  0  0  0
  5  7  1  0  0  0  0
  2  3  1  0  0  0  0
  2  4  1  0  0  0  0
  2  5  1  0  0  0  0
  1  2  1  0  0  0  0
 22 23  2  0  0  0  0
 22 24  1  0  0  0  0
 19 20  1  0  0  0  0
 19 21  1  0  0  0  0
 17 18  2  0  0  0  0
 17 19  1  0  0  0  0
 14 15  1  0  0  0  0
 14 16  1  0  0  0  0
 14 17  1  0  0  0  0
 11 12  1  0  0  0  0
 11 13  1  0  0  0  0
 11 14  1  0  0  0  0
  9 10  1  0  0  0  0
  9 11  1  0  0  0  0
  9 22  1  0  0  0  0
  7  8  1  0  0  0  0
  7  9  1  0  0  0  0
 26 27  1  0  0  0  0
 26 28  1  0  0  0  0
 26 29  1  0  0  0  0
 24 25  1  0  0  0  0
 24 26  1  0  0  0  0
M  END
$$$$
default_name
  -OEChem-01062215323D

 29 28  0     1  0  0  0  0  0999 V2000
   -3.3998   -3.6239    1.3678 H   0  0  0  0  0  0  0  0  0  0  0  0
   -3.3608   -2.6749    0.8348 C   0  0  0  0  0  0  0  0  0  0  0  0
   -4.0988   -1.9909    1.2498 H   0  0  0  0  0  0  0  0  0  0  0  0
   -3.5618   -2.8419   -0.2222 H   0  0  0  0  0  0  0  0  0  0  0  0
   -1.9818   -2.0809    0.9918 C   0  0  0  0  0  0  0  0  0  0  0  0
   -1.1288   -2.6669    1.6468 O   0  0  0  0  0  0  0  0  0  0  0  0
   -1.7648   -0.9089    0.3998 N   0  0  0  0  0  0  0  0  0  0  0  0
   -2.5238   -0.4719   -0.1032 H   0  0  0  0  0  0  0  0  0  0  0  0
   -0.4848   -0.1959    0.4138 C   0  0  1  0  0  0  0  0  0  0  0  0
    0.2783   -0.8411   -0.0248 H   0  0  0  0  0  0  0  0  0  0  0  0
   -0.6101    1.0666   -0.4611 C   0  0  0  0  0  0  0  0  0  0  0  0
   -1.4728    1.6398   -0.1151 H   0  0  0  0  0  0  0  0  0  0  0  0
    0.2821    1.6808   -0.3306 H   0  0  0  0  0  0  0  0  0  0  0  0
   -0.7947    0.7697   -1.9595 C   0  0  0  0  0  0  0  0  0  0  0  0
    0.0642    0.2116   -2.3316 H   0  0  0  0  0  0  0  0  0  0  0  0
   -1.6893    0.1613   -2.0920 H   0  0  0  0  0  0  0  0  0  0  0  0
   -0.9416    2.0320   -2.8091 C   0  0  0  0  0  0  0  0  0  0  0  0
   -0.9857    3.1535   -2.3391 O   0  0  0  0  0  0  0  0  0  0  0  0
   -1.0167    1.9017   -4.1158 N   0  0  0  0  0  0  0  0  0  0  0  0
   -1.1115    2.7633   -4.6248 H   0  0  0  0  0  0  0  0  0  0  0  0
   -0.9828    1.0036   -4.5540 H   0  0  0  0  0  0  0  0  0  0  0  0
   -0.0637    0.1284    1.8555 C   0  0  0  0  0  0  0  0  0  0  0  0
   -0.4016    1.1904    2.3751 O   0  0  0  0  0  0  0  0  0  0  0  0
    0.6823   -0.7802    2.4969 N   0  0  0  0  0  0  0  0  0  0  0  0
    0.8988   -1.6383    2.0154 H   0  0  0  0  0  0  0  0  0  0  0  0
    1.1728   -0.6145    3.8645 C   0  0  0  0  0  0  0  0  0  0  0  0
    0.3303   -0.4400    4.5383 H   0  0  0  0  0  0  0  0  0  0  0  0
    1.7109   -1.5072    4.1867 H   0  0  0  0  0  0  0  0  0  0  0  0
    1.8392    0.2483    3.9151 H   0  0  0  0  0  0  0  0  0  0  0  0
  5  6  2  0  0  0  0
  5  7  1  0  0  0  0
  2  3  1  0  0  0  0
  2  4  1  0  0  0  0
  2  5  1  0  0  0  0
  1  2  1  0  0  0  0
 22 23  2  0  0  0  0
 22 24  1  0  0  0  0
 19 20  1  0  0  0  0
 19 21  1  0  0  0  0
 17 18  2  0  0  0  0
 17 19  1  0  0  0  0
 14 15  1  0  0  0  0
 14 16  1  0  0  0  0
 14 17  1  0  0  0  0
 11 12  1  0  0  0  0
 11 13  1  0  0  0  0
 11 14  1  0  0  0  0
  9 10  1  0  0  0  0
  9 11  1  0  0  0  0
  9 22  1  0  0  0  0
  7  8  1  0  0  0  0
  7  9  1  0  0  0  0
 26 27  1  0  0  0  0
 26 28  1  0  0  0  0
 26 29  1  0  0  0  0
 24 25  1  0  0  0  0
 24 26  1  0  0  0  0
M  END
$$$$
default_name
  -OEChem-01062215323D

 29 28  0     1  0  0  0  0  0999 V2000
   -3.3998   -3.6239    1.3678 H   0  0  0  0  0  0  0  0  0  0  0  0
   -3.3608   -2.6749    0.8348 C   0  0  0  0  0  0  0  0  0  0  0  0
   -4.0988   -1.9909    1.2498 H   0  0  0  0  0  0  0  0  0  0  0  0
   -3.5618   -2.8419   -0.2222 H   0  0  0  0  0  0  0  0  0  0  0  0
   -1.9818   -2.0809    0.9918 C   0  0  0  0  0  0  0  0  0  0  0  0
   -1.1288   -2.6669    1.6468 O   0  0  0  0  0  0  0  0  0  0  0  0
   -1.7648   -0.9089    0.3998 N   0  0  0  0  0  0  0  0  0  0  0  0
   -2.5238   -0.4719   -0.1032 H   0  0  0  0  0  0  0  0  0  0  0  0
   -0.4848   -0.1959    0.4138 C   0  0  1  0  0  0  0  0  0  0  0  0
    0.2783   -0.8411   -0.0248 H   0  0  0  0  0  0  0  0  0  0  0  0
   -0.6101    1.0666   -0.4611 C   0  0  0  0  0  0  0  0  0  0  0  0
   -1.4728    1.6398   -0.1151 H   0  0  0  0  0  0  0  0  0  0  0  0
    0.2821    1.6808   -0.3306 H   0  0  0  0  0  0  0  0  0  0  0  0
   -0.7947    0.7697   -1.9595 C   0  0  0  0  0  0  0  0  0  0  0  0
    0.0642    0.2116   -2.3316 H   0  0  0  0  0  0  0  0  0  0  0  0
   -1.6893    0.1613   -2.0920 H   0  0  0  0  0  0  0  0  0  0  0  0
   -0.9416    2.0320   -2.8091 C   0  0  0  0  0  0  0  0  0  0  0  0
   -0.9857    3.1535   -2.3391 O   0  0  0  0  0  0  0  0  0  0  0  0
   -1.0167    1.9017   -4.1158 N   0  0  0  0  0  0  0  0  0  0  0  0
   -1.1115    2.7633   -4.6248 H   0  0  0  0  0  0  0  0  0  0  0  0
   -0.9828    1.0036   -4.5540 H   0  0  0  0  0  0  0  0  0  0  0  0
   -0.0637    0.1284    1.8555 C   0  0  0  0  0  0  0  0  0  0  0  0
   -0.6138    1.0398    2.4710 O   0  0  0  0  0  0  0  0  0  0  0  0
    0.9183   -0.6091    2.3894 N   0  0  0  0  0  0  0  0  0  0  0  0
    1.3042   -1.3554    1.8334 H   0  0  0  0  0  0  0  0  0  0  0  0
    1.4401   -0.4165    3.7418 C   0  0  0  0  0  0  0  0  0  0  0  0
    0.6249   -0.4971    4.4651 H   0  0  0  0  0  0  0  0  0  0  0  0
    2.1968   -1.1691    3.9687 H   0  0  0  0  0  0  0  0  0  0  0  0
    1.8809    0.5781    3.8287 H   0  0  0  0  0  0  0  0  0  0  0  0
  5  6  2  0  0  0  0
  5  7  1  0  0  0  0
  2  3  1  0  0  0  0
  2  4  1  0  0  0  0
  2  5  1  0  0  0  0
  1  2  1  0  0  0  0
 22 23  2  0  0  0  0
 22 24  1  0  0  0  0
 19 20  1  0  0  0  0
 19 21  1  0  0  0  0
 17 18  2  0  0  0  0
 17 19  1  0  0  0  0
 14 15  1  0  0  0  0
 14 16  1  0  0  0  0
 14 17  1  0  0  0  0
 11 12  1  0  0  0  0
 11 13  1  0  0  0  0
 11 14  1  0  0  0  0
  9 10  1  0  0  0  0
  9 11  1  0  0  0  0
  9 22  1  0  0  0  0
  7  8  1  0  0  0  0
  7  9  1  0  0  0  0
 26 27  1  0  0  0  0
 26 28  1  0  0  0  0
 26 29  1  0  0  0  0
 24 25  1  0  0  0  0
 24 26  1  0  0  0  0
M  END
$$$$
default_name
  -OEChem-01062215323D

 29 28  0     1  0  0  0  0  0999 V2000
   -3.3998   -3.6239    1.3678 H   0  0  0  0  0  0  0  0  0  0  0  0
   -3.3608   -2.6749    0.8348 C   0  0  0  0  0  0  0  0  0  0  0  0
   -4.0988   -1.9909    1.2498 H   0  0  0  0  0  0  0  0  0  0  0  0
   -3.5618   -2.8419   -0.2222 H   0  0  0  0  0  0  0  0  0  0  0  0
   -1.9818   -2.0809    0.9918 C   0  0  0  0  0  0  0  0  0  0  0  0
   -1.1288   -2.6669    1.6468 O   0  0  0  0  0  0  0  0  0  0  0  0
   -1.7648   -0.9089    0.3998 N   0  0  0  0  0  0  0  0  0  0  0  0
   -2.5238   -0.4719   -0.1032 H   0  0  0  0  0  0  0  0  0  0  0  0
   -0.4848   -0.1959    0.4138 C   0  0  1  0  0  0  0  0  0  0  0  0
    0.2783   -0.8411   -0.0248 H   0  0  0  0  0  0  0  0  0  0  0  0
   -0.6101    1.0666   -0.4611 C   0  0  0  0  0  0  0  0  0  0  0  0
   -1.4728    1.6398   -0.1151 H   0  0  0  0  0  0  0  0  0  0  0  0
    0.2821    1.6808   -0.3306 H   0  0  0  0  0  0  0  0  0  0  0  0
   -0.7947    0.7697   -1.9595 C   0  0  0  0  0  0  0  0  0  0  0  0
    0.0642    0.2116   -2.3316 H   0  0  0  0  0  0  0  0  0  0  0  0
   -1.6893    0.1613   -2.0920 H   0  0  0  0  0  0  0  0  0  0  0  0
   -0.9416    2.0320   -2.8091 C   0  0  0  0  0  0  0  0  0  0  0  0
   -0.9857    3.1535   -2.3391 O   0  0  0  0  0  0  0  0  0  0  0  0
   -1.0167    1.9017   -4.1158 N   0  0  0  0  0  0  0  0  0  0  0  0
   -1.1115    2.7633   -4.6248 H   0  0  0  0  0  0  0  0  0  0  0  0
   -0.9828    1.0036   -4.5540 H   0  0  0  0  0  0  0  0  0  0  0  0
   -0.0637    0.1284    1.8555 C   0  0  0  0  0  0  0  0  0  0  0  0
   -0.7769    0.8360    2.5645 O   0  0  0  0  0  0  0  0  0  0  0  0
    1.0989   -0.3789    2.2849 N   0  0  0  0  0  0  0  0  0  0  0  0
    1.6171   -0.9708    1.6555 H   0  0  0  0  0  0  0  0  0  0  0  0
    1.6436   -0.1516    3.6228 C   0  0  0  0  0  0  0  0  0  0  0  0
    0.9193   -0.4757    4.3743 H   0  0  0  0  0  0  0  0  0  0  0  0
    2.5720   -0.7090    3.7556 H   0  0  0  0  0  0  0  0  0  0  0  0
    1.8364    0.9129    3.7663 H   0  0  0  0  0  0  0  0  0  0  0  0
  5  6  2  0  0  0  0
  5  7  1  0  0  0  0
  2  3  1  0  0  0  0
  2  4  1  0  0  0  0
  2  5  1  0  0  0  0
  1  2  1  0  0  0  0
 22 23  2  0  0  0  0
 22 24  1  0  0  0  0
 19 20  1  0  0  0  0
 19 21  1  0  0  0  0
 17 18  2  0  0  0  0
 17 19  1  0  0  0  0
 14 15  1  0  0  0  0
 14 16  1  0  0  0  0
 14 17  1  0  0  0  0
 11 12  1  0  0  0  0
 11 13  1  0  0  0  0
 11 14  1  0  0  0  0
  9 10  1  0  0  0  0
  9 11  1  0  0  0  0
  9 22  1  0  0  0  0
  7  8  1  0  0  0  0
  7  9  1  0  0  0  0
 26 27  1  0  0  0  0
 26 28  1  0  0  0  0
 26 29  1  0  0  0  0
 24 25  1  0  0  0  0
 24 26  1  0  0  0  0
M  END
$$$$
default_name
  -OEChem-01062215323D

 29 28  0     1  0  0  0  0  0999 V2000
   -3.3998   -3.6239    1.3678 H   0  0  0  0  0  0  0  0  0  0  0  0
   -3.3608   -2.6749    0.8348 C   0  0  0  0  0  0  0  0  0  0  0  0
   -4.0988   -1.9909    1.2498 H   0  0  0  0  0  0  0  0  0  0  0  0
   -3.5618   -2.8419   -0.2222 H   0  0  0  0  0  0  0  0  0  0  0  0
   -1.9818   -2.0809    0.9918 C   0  0  0  0  0  0  0  0  0  0  0  0
   -1.1288   -2.6669    1.6468 O   0  0  0  0  0  0  0  0  0  0  0  0
   -1.7648   -0.9089    0.3998 N   0  0  0  0  0  0  0  0  0  0  0  0
   -2.5238   -0.4719   -0.1032 H   0  0  0  0  0  0  0  0  0  0  0  0
   -0.4848   -0.1959    0.4138 C   0  0  1  0  0  0  0  0  0  0  0  0
    0.2783   -0.8411   -0.0248 H   0  0  0  0  0  0  0  0  0  0  0  0
   -0.6101    1.0666   -0.4611 C   0  0  0  0  0  0  0  0  0  0  0  0
   -1.4728    1.6398   -0.1151 H   0  0  0  0  0  0  0  0  0  0  0  0
    0.2821    1.6808   -0.3306 H   0  0  0  0  0  0  0  0  0  0  0  0
   -0.7947    0.7697   -1.9595 C   0  0  0  0  0  0  0  0  0  0  0  0
    0.0642    0.2116   -2.3316 H   0  0  0  0  0  0  0  0  0  0  0  0
   -1.6893    0.1613   -2.0920 H   0  0  0  0  0  0  0  0  0  0  0  0
   -0.9416    2.0320   -2.8091 C   0  0  0  0  0  0  0  0  0  0  0  0
   -0.9857    3.1535   -2.3391 O   0  0  0  0  0  0  0  0  0  0  0  0
   -1.0167    1.9017   -4.1158 N   0  0  0  0  0  0  0  0  0  0  0  0
   -1.1115    2.7633   -4.6248 H   0  0  0  0  0  0  0  0  0  0  0  0
   -0.9828    1.0036   -4.5540 H   0  0  0  0  0  0  0  0  0  0  0  0
   -0.0637    0.1284    1.8555 C   0  0  0  0  0  0  0  0  0  0  0  0
   -0.8799    0.5928    2.6493 O   0  0  0  0  0  0  0  0  0  0  0  0
    1.2117   -0.1054    2.1904 N   0  0  0  0  0  0  0  0  0  0  0  0
    1.8162   -0.5107    1.4938 H   0  0  0  0  0  0  0  0  0  0  0  0
    1.7693    0.1620    3.5155 C   0  0  0  0  0  0  0  0  0  0  0  0
    1.1935   -0.3770    4.2720 H   0  0  0  0  0  0  0  0  0  0  0  0
    2.8112   -0.1584    3.5619 H   0  0  0  0  0  0  0  0  0  0  0  0
    1.7087    1.2299    3.7323 H   0  0  0  0  0  0  0  0  0  0  0  0
  5  6  2  0  0  0  0
  5  7  1  0  0  0  0
  2  3  1  0  0  0  0
  2  4  1  0  0  0  0
  2  5  1  0  0  0  0
  1  2  1  0  0  0  0
 22 23  2  0  0  0  0
 22 24  1  0  0  0  0
 19 20  1  0  0  0  0
 19 21  1  0  0  0  0
 17 18  2  0  0  0  0
 17 19  1  0  0  0  0
 14 15  1  0  0  0  0
 14 16  1  0  0  0  0
 14 17  1  0  0  0  0
 11 12  1  0  0  0  0
 11 13  1  0  0  0  0
 11 14  1  0  0  0  0
  9 10  1  0  0  0  0
  9 11  1  0  0  0  0
  9 22  1  0  0  0  0
  7  8  1  0  0  0  0
  7  9  1  0  0  0  0
 26 27  1  0  0  0  0
 26 28  1  0  0  0  0
 26 29  1  0  0  0  0
 24 25  1  0  0  0  0
 24 26  1  0  0  0  0
M  END
$$$$
default_name
  -OEChem-01062215323D

 29 28  0     1  0  0  0  0  0999 V2000
   -3.3998   -3.6239    1.3678 H   0  0  0  0  0  0  0  0  0  0  0  0
   -3.3608   -2.6749    0.8348 C   0  0  0  0  0  0  0  0  0  0  0  0
   -4.0988   -1.9909    1.2498 H   0  0  0  0  0  0  0  0  0  0  0  0
   -3.5618   -2.8419   -0.2222 H   0  0  0  0  0  0  0  0  0  0  0  0
   -1.9818   -2.0809    0.9918 C   0  0  0  0  0  0  0  0  0  0  0  0
   -1.1288   -2.6669    1.6468 O   0  0  0  0  0  0  0  0  0  0  0  0
   -1.7648   -0.9089    0.3998 N   0  0  0  0  0  0  0  0  0  0  0  0
   -2.5238   -0.4719   -0.1032 H   0  0  0  0  0  0  0  0  0  0  0  0
   -0.4848   -0.1959    0.4138 C   0  0  1  0  0  0  0  0  0  0  0  0
    0.2783   -0.8411   -0.0248 H   0  0  0  0  0  0  0  0  0  0  0  0
   -0.6101    1.0666   -0.4611 C   0  0  0  0  0  0  0  0  0  0  0  0
   -1.4728    1.6398   -0.1151 H   0  0  0  0  0  0  0  0  0  0  0  0
    0.2821    1.6808   -0.3306 H   0  0  0  0  0  0  0  0  0  0  0  0
   -0.7947    0.7697   -1.9595 C   0  0  0  0  0  0  0  0  0  0  0  0
    0.0642    0.2116   -2.3316 H   0  0  0  0  0  0  0  0  0  0  0  0
   -1.6893    0.1613   -2.0920 H   0  0  0  0  0  0  0  0  0  0  0  0
   -0.9416    2.0320   -2.8091 C   0  0  0  0  0  0  0  0  0  0  0  0
   -0.9857    3.1535   -2.3391 O   0  0  0  0  0  0  0  0  0  0  0  0
   -1.0167    1.9017   -4.1158 N   0  0  0  0  0  0  0  0  0  0  0  0
   -1.1115    2.7633   -4.6248 H   0  0  0  0  0  0  0  0  0  0  0  0
   -0.9828    1.0036   -4.5540 H   0  0  0  0  0  0  0  0  0  0  0  0
   -0.0637    0.1284    1.8555 C   0  0  0  0  0  0  0  0  0  0  0  0
   -0.9157    0.3269    2.7196 O   0  0  0  0  0  0  0  0  0  0  0  0
    1.2490    0.1930    2.1124 N   0  0  0  0  0  0  0  0  0  0  0  0
    1.8880   -0.0064    1.3594 H   0  0  0  0  0  0  0  0  0  0  0  0
    1.8087    0.5031    3.4273 C   0  0  0  0  0  0  0  0  0  0  0  0
    1.4289   -0.2078    4.1652 H   0  0  0  0  0  0  0  0  0  0  0  0
    2.8978    0.4452    3.4008 H   0  0  0  0  0  0  0  0  0  0  0  0
    1.5066    1.5075    3.7289 H   0  0  0  0  0  0  0  0  0  0  0  0
  5  6  2  0  0  0  0
  5  7  1  0  0  0  0
  2  3  1  0  0  0  0
  2  4  1  0  0  0  0
  2  5  1  0  0  0  0
  1  2  1  0  0  0  0
 22 23  2  0  0  0  0
 22 24  1  0  0  0  0
 19 20  1  0  0  0  0
 19 21  1  0  0  0  0
 17 18  2  0  0  0  0
 17 19  1  0  0  0  0
 14 15  1  0  0  0  0
 14 16  1  0  0  0  0
 14 17  1  0  0  0  0
 11 12  1  0  0  0  0
 11 13  1  0  0  0  0
 11 14  1  0  0  0  0
  9 10  1  0  0  0  0
  9 11  1  0  0  0  0
  9 22  1  0  0  0  0
  7  8  1  0  0  0  0
  7  9  1  0  0  0  0
 26 27  1  0  0  0  0
 26 28  1  0  0  0  0
 26 29  1  0  0  0  0
 24 25  1  0  0  0  0
 24 26  1  0  0  0  0
M  END
$$$$
default_name
  -OEChem-01062215323D

 29 28  0     1  0  0  0  0  0999 V2000
   -3.3998   -3.6239    1.3678 H   0  0  0  0  0  0  0  0  0  0  0  0
   -3.3608   -2.6749    0.8348 C   0  0  0  0  0  0  0  0  0  0  0  0
   -4.0988   -1.9909    1.2498 H   0  0  0  0  0  0  0  0  0  0  0  0
   -3.5618   -2.8419   -0.2222 H   0  0  0  0  0  0  0  0  0  0  0  0
   -1.9818   -2.0809    0.9918 C   0  0  0  0  0  0  0  0  0  0  0  0
   -1.1288   -2.6669    1.6468 O   0  0  0  0  0  0  0  0  0  0  0  0
   -1.7648   -0.9089    0.3998 N   0  0  0  0  0  0  0  0  0  0  0  0
   -2.5238   -0.4719   -0.1032 H   0  0  0  0  0  0  0  0  0  0  0  0
   -0.4848   -0.1959    0.4138 C   0  0  1  0  0  0  0  0  0  0  0  0
    0.2783   -0.8411   -0.0248 H   0  0  0  0  0  0  0  0  0  0  0  0
   -0.6101    1.0666   -0.4611 C   0  0  0  0  0  0  0  0  0  0  0  0
   -1.4728    1.6398   -0.1151 H   0  0  0  0  0  0  0  0  0  0  0  0
    0.2821    1.6808   -0.3306 H   0  0  0  0  0  0  0  0  0  0  0  0
   -0.7947    0.7697   -1.9595 C   0  0  0  0  0  0  0  0  0  0  0  0
    0.0642    0.2116   -2.3316 H   0  0  0  0  0  0  0  0  0  0  0  0
   -1.6893    0.1613   -2.0920 H   0  0  0  0  0  0  0  0  0  0  0  0
   -0.9416    2.0320   -2.8091 C   0  0  0  0  0  0  0  0  0  0  0  0
   -0.9857    3.1535   -2.3391 O   0  0  0  0  0  0  0  0  0  0  0  0
   -1.0167    1.9017   -4.1158 N   0  0  0  0  0  0  0  0  0  0  0  0
   -1.1115    2.7633   -4.6248 H   0  0  0  0  0  0  0  0  0  0  0  0
   -0.9828    1.0036   -4.5540 H   0  0  0  0  0  0  0  0  0  0  0  0
   -0.0637    0.1284    1.8555 C   0  0  0  0  0  0  0  0  0  0  0  0
   -0.8819    0.0564    2.7706 O   0  0  0  0  0  0  0  0  0  0  0  0
    1.2084    0.4958    2.0561 N   0  0  0  0  0  0  0  0  0  0  0  0
    1.8275    0.5076    1.2614 H   0  0  0  0  0  0  0  0  0  0  0  0
    1.7590    0.8485    3.3641 C   0  0  0  0  0  0  0  0  0  0  0  0
    1.6092    0.0203    4.0612 H   0  0  0  0  0  0  0  0  0  0  0  0
    2.8262    1.0607    3.2832 H   0  0  0  0  0  0  0  0  0  0  0  0
    1.2437    1.7268    3.7563 H   0  0  0  0  0  0  0  0  0  0  0  0
  5  6  2  0  0  0  0
  5  7  1  0  0  0  0
  2  3  1  0  0  0  0
  2  4  1  0  0  0  0
  2  5  1  0  0  0  0
  1  2  1  0  0  0  0
 22 23  2  0  0  0  0
 22 24  1  0  0  0  0
 19 20  1  0  0  0  0
 19 21  1  0  0  0  0
 17 18  2  0  0  0  0
 17 19  1  0  0  0  0
 14 15  1  0  0  0  0
 14 16  1  0  0  0  0
 14 17  1  0  0  0  0
 11 12  1  0  0  0  0
 11 13  1  0  0  0  0
 11 14  1  0  0  0  0
  9 10  1  0  0  0  0
  9 11  1  0  0  0  0
  9 22  1  0  0  0  0
  7  8  1  0  0  0  0
  7  9  1  0  0  0  0
 26 27  1  0  0  0  0
 26 28  1  0  0  0  0
 26 29  1  0  0  0  0
 24 25  1  0  0  0  0
 24 26  1  0  0  0  0
M  END
$$$$
default_name
  -OEChem-01062215323D

 29 28  0     1  0  0  0  0  0999 V2000
   -3.3998   -3.6239    1.3678 H   0  0  0  0  0  0  0  0  0  0  0  0
   -3.3608   -2.6749    0.8348 C   0  0  0  0  0  0  0  0  0  0  0  0
   -4.0988   -1.9909    1.2498 H   0  0  0  0  0  0  0  0  0  0  0  0
   -3.5618   -2.8419   -0.2222 H   0  0  0  0  0  0  0  0  0  0  0  0
   -1.9818   -2.0809    0.9918 C   0  0  0  0  0  0  0  0  0  0  0  0
   -1.1288   -2.6669    1.6468 O   0  0  0  0  0  0  0  0  0  0  0  0
   -1.7648   -0.9089    0.3998 N   0  0  0  0  0  0  0  0  0  0  0  0
   -2.5238   -0.4719   -0.1032 H   0  0  0  0  0  0  0  0  0  0  0  0
   -0.4848   -0.1959    0.4138 C   0  0  1  0  0  0  0  0  0  0  0  0
    0.2090   -0.7122   -0.2517 H   0  0  0  0  0  0  0  0  0  0  0  0
   -0.7044    1.2293   -0.1299 C   0  0  0  0  0  0  0  0  0  0  0  0
   -1.5095    1.6948    0.4425 H   0  0  0  0  0  0  0  0  0  0  0  0
    0.2045    1.8132    0.0231 H   0  0  0  0  0  0  0  0  0  0  0  0
   -1.0802    1.2756   -1.6212 C   0  0  0  0  0  0  0  0  0  0  0  0
   -0.2819    0.8306   -2.2149 H   0  0  0  0  0  0  0  0  0  0  0  0
   -1.9915    0.6977   -1.7745 H   0  0  0  0  0  0  0  0  0  0  0  0
   -1.3180    2.6944   -2.1378 C   0  0  0  0  0  0  0  0  0  0  0  0
   -1.2889    3.6799   -1.4246 O   0  0  0  0  0  0  0  0  0  0  0  0
   -1.5590    2.8616   -3.4201 N   0  0  0  0  0  0  0  0  0  0  0  0
   -1.7069    3.8142   -3.7049 H   0  0  0  0  0  0  0  0  0  0  0  0
   -1.5915    2.0864   -4.0508 H   0  0  0  0  0  0  0  0  0  0  0  0
    0.1188   -0.1986    1.8268 C   0  0  0  0  0  0  0  0  0  0  0  0
   -0.4774   -0.7440    2.7537 O   0  0  0  0  0  0  0  0  0  0  0  0
    1.2950    0.4195    1.9937 N   0  0  0  0  0  0  0  0  0  0  0  0
    1.7362    0.8223    1.1824 H   0  0  0  0  0  0  0  0  0  0  0  0
    1.9914    0.5156    3.2760 C   0  0  0  0  0  0  0  0  0  0  0  0
    2.1590   -0.4862    3.6790 H   0  0  0  0  0  0  0  0  0  0  0  0
    2.9521    1.0173    3.1507 H   0  0  0  0  0  0  0  0  0  0  0  0
    1.3804    1.0752    3.9862 H   0  0  0  0  0  0  0  0  0  0  0  0
  5  6  2  0  0  0  0
  5  7  1  0  0  0  0
  2  3  1  0  0  0  0
  2  4  1  0  0  0  0
  2  5  1  0  0  0  0
  1  2  1  0  0  0  0
 22 23  2  0  0  0  0
 22 24  1  0  0  0  0
 19 20  1  0  0  0  0
 19 21  1  0  0  0  0
 17 18  2  0  0  0  0
 17 19  1  0  0  0  0
 14 15  1  0  0  0  0
 14 16  1  0  0  0  0
 14 17  1  0  0  0  0
 11 12  1  0  0  0  0
 11 13  1  0  0  0  0
 11 14  1  0  0  0  0
  9 10  1  0  0  0  0
  9 11  1  0  0  0  0
  9 22  1  0  0  0  0
  7  8  1  0  0  0  0
  7  9  1  0  0  0  0
 26 27  1  0  0  0  0
 26 28  1  0  0  0  0
 26 29  1  0  0  0  0
 24 25  1  0  0  0  0
 24 26  1  0  0  0  0
M  END
$$$$
default_name
  -OEChem-01062215323D

 29 28  0     1  0  0  0  0  0999 V2000
   -3.3998   -3.6239    1.3678 H   0  0  0  0  0  0  0  0  0  0  0  0
   -3.3608   -2.6749    0.8348 C   0  0  0  0  0  0  0  0  0  0  0  0
   -4.0988   -1.9909    1.2498 H   0  0  0  0  0  0  0  0  0  0  0  0
   -3.5618   -2.8419   -0.2222 H   0  0  0  0  0  0  0  0  0  0  0  0
   -1.9818   -2.0809    0.9918 C   0  0  0  0  0  0  0  0  0  0  0  0
   -1.1288   -2.6669    1.6468 O   0  0  0  0  0  0  0  0  0  0  0  0
   -1.7648   -0.9089    0.3998 N   0  0  0  0  0  0  0  0  0  0  0  0
   -2.5238   -0.4719   -0.1032 H   0  0  0  0  0  0  0  0  0  0  0  0
   -0.4848   -0.1959    0.4138 C   0  0  1  0  0  0  0  0  0  0  0  0
    0.2090   -0.7122   -0.2517 H   0  0  0  0  0  0  0  0  0  0  0  0
   -0.7044    1.2293   -0.1299 C   0  0  0  0  0  0  0  0  0  0  0  0
   -1.5095    1.6948    0.4425 H   0  0  0  0  0  0  0  0  0  0  0  0
    0.2045    1.8132    0.0231 H   0  0  0  0  0  0  0  0  0  0  0  0
   -1.0802    1.2756   -1.6212 C   0  0  0  0  0  0  0  0  0  0  0  0
   -0.2819    0.8306   -2.2149 H   0  0  0  0  0  0  0  0  0  0  0  0
   -1.9915    0.6977   -1.7745 H   0  0  0  0  0  0  0  0  0  0  0  0
   -1.3180    2.6944   -2.1378 C   0  0  0  0  0  0  0  0  0  0  0  0
   -1.2889    3.6799   -1.4246 O   0  0  0  0  0  0  0  0  0  0  0  0
   -1.5590    2.8616   -3.4201 N   0  0  0  0  0  0  0  0  0  0  0  0
   -1.7069    3.8142   -3.7049 H   0  0  0  0  0  0  0  0  0  0  0  0
   -1.5915    2.0864   -4.0508 H   0  0  0  0  0  0  0  0  0  0  0  0
    0.1188   -0.1986    1.8268 C   0  0  0  0  0  0  0  0  0  0  0  0
   -0.3194   -0.9616    2.6859 O   0  0  0  0  0  0  0  0  0  0  0  0
    1.1160    0.6614    2.0706 N   0  0  0  0  0  0  0  0  0  0  0  0
    1.4389    1.2380    1.3101 H   0  0  0  0  0  0  0  0  0  0  0  0
    1.7846    0.7896    3.3648 C   0  0  0  0  0  0  0  0  0  0  0  0
    2.1906   -0.1793    3.6660 H   0  0  0  0  0  0  0  0  0  0  0  0
    2.5968    1.5155    3.3035 H   0  0  0  0  0  0  0  0  0  0  0  0
    1.0664    1.1125    4.1204 H   0  0  0  0  0  0  0  0  0  0  0  0
  5  6  2  0  0  0  0
  5  7  1  0  0  0  0
  2  3  1  0  0  0  0
  2  4  1  0  0  0  0
  2  5  1  0  0  0  0
  1  2  1  0  0  0  0
 22 23  2  0  0  0  0
 22 24  1  0  0  0  0
 19 20  1  0  0  0  0
 19 21  1  0  0  0  0
 17 18  2  0  0  0  0
 17 19  1  0  0  0  0
 14 15  1  0  0  0  0
 14 16  1  0  0  0  0
 14 17  1  0  0  0  0
 11 12  1  0  0  0  0
 11 13  1  0  0  0  0
 11 14  1  0  0  0  0
  9 10  1  0  0  0  0
  9 11  1  0  0  0  0
  9 22  1  0  0  0  0
  7  8  1  0  0  0  0
  7  9  1  0  0  0  0
 26 27  1  0  0  0  0
 26 28  1  0  0  0  0
 26 29  1  0  0  0  0
 24 25  1  0  0  0  0
 24 26  1  0  0  0  0
M  END
$$$$
default_name
  -OEChem-01062215323D

 29 28  0     1  0  0  0  0  0999 V2000
   -3.3998   -3.6239    1.3678 H   0  0  0  0  0  0  0  0  0  0  0  0
   -3.3608   -2.6749    0.8348 C   0  0  0  0  0  0  0  0  0  0  0  0
   -4.0988   -1.9909    1.2498 H   0  0  0  0  0  0  0  0  0  0  0  0
   -3.5618   -2.8419   -0.2222 H   0  0  0  0  0  0  0  0  0  0  0  0
   -1.9818   -2.0809    0.9918 C   0  0  0  0  0  0  0  0  0  0  0  0
   -1.1288   -2.6669    1.6468 O   0  0  0  0  0  0  0  0  0  0  0  0
   -1.7648   -0.9089    0.3998 N   0  0  0  0  0  0  0  0  0  0  0  0
   -2.5238   -0.4719   -0.1032 H   0  0  0  0  0  0  0  0  0  0  0  0
   -0.4848   -0.1959    0.4138 C   0  0  1  0  0  0  0  0  0  0  0  0
    0.2090   -0.7122   -0.2517 H   0  0  0  0  0  0  0  0  0  0  0  0
   -0.7044    1.2293   -0.1299 C   0  0  0  0  0  0  0  0  0  0  0  0
   -1.5095    1.6948    0.4425 H   0  0  0  0  0  0  0  0  0  0  0  0
    0.2045    1.8132    0.0231 H   0  0  0  0  0  0  0  0  0  0  0  0
   -1.0802    1.2756   -1.6212 C   0  0  0  0  0  0  0  0  0  0  0  0
   -0.2819    0.8306   -2.2149 H   0  0  0  0  0  0  0  0  0  0  0  0
   -1.9915    0.6977   -1.7745 H   0  0  0  0  0  0  0  0  0  0  0  0
   -1.3180    2.6944   -2.1378 C   0  0  0  0  0  0  0  0  0  0  0  0
   -1.2889    3.6799   -1.4246 O   0  0  0  0  0  0  0  0  0  0  0  0
   -1.5590    2.8616   -3.4201 N   0  0  0  0  0  0  0  0  0  0  0  0
   -1.7069    3.8142   -3.7049 H   0  0  0  0  0  0  0  0  0  0  0  0
   -1.5915    2.0864   -4.0508 H   0  0  0  0  0  0  0  0  0  0  0  0
    0.1188   -0.1986    1.8268 C   0  0  0  0  0  0  0  0  0  0  0  0
   -0.1149   -1.1272    2.5982 O   0  0  0  0  0  0  0  0  0  0  0  0
    0.8854    0.8446    2.1695 N   0  0  0  0  0  0  0  0  0  0  0  0
    1.0528    1.5558    1.4756 H   0  0  0  0  0  0  0  0  0  0  0  0
    1.5196    0.9959    3.4784 C   0  0  0  0  0  0  0  0  0  0  0  0
    2.1481    0.1261    3.6848 H   0  0  0  0  0  0  0  0  0  0  0  0
    2.1348    1.8967    3.5015 H   0  0  0  0  0  0  0  0  0  0  0  0
    0.7542    1.0600    4.2536 H   0  0  0  0  0  0  0  0  0  0  0  0
  5  6  2  0  0  0  0
  5  7  1  0  0  0  0
  2  3  1  0  0  0  0
  2  4  1  0  0  0  0
  2  5  1  0  0  0  0
  1  2  1  0  0  0  0
 22 23  2  0  0  0  0
 22 24  1  0  0  0  0
 19 20  1  0  0  0  0
 19 21  1  0  0  0  0
 17 18  2  0  0  0  0
 17 19  1  0  0  0  0
 14 15  1  0  0  0  0
 14 16  1  0  0  0  0
 14 17  1  0  0  0  0
 11 12  1  0  0  0  0
 11 13  1  0  0  0  0
 11 14  1  0  0  0  0
  9 10  1  0  0  0  0
  9 11  1  0  0  0  0
  9 22  1  0  0  0  0
  7  8  1  0  0  0  0
  7  9  1  0  0  0  0
 26 27  1  0  0  0  0
 26 28  1  0  0  0  0
 26 29  1  0  0  0  0
 24 25  1  0  0  0  0
 24 26  1  0  0  0  0
M  END
$$$$
default_name
  -OEChem-01062215323D

 29 28  0     1  0  0  0  0  0999 V2000
   -3.3998   -3.6239    1.3678 H   0  0  0  0  0  0  0  0  0  0  0  0
   -3.3608   -2.6749    0.8348 C   0  0  0  0  0  0  0  0  0  0  0  0
   -4.0988   -1.9909    1.2498 H   0  0  0  0  0  0  0  0  0  0  0  0
   -3.5618   -2.8419   -0.2222 H   0  0  0  0  0  0  0  0  0  0  0  0
   -1.9818   -2.0809    0.9918 C   0  0  0  0  0  0  0  0  0  0  0  0
   -1.1288   -2.6669    1.6468 O   0  0  0  0  0  0  0  0  0  0  0  0
   -1.7648   -0.9089    0.3998 N   0  0  0  0  0  0  0  0  0  0  0  0
   -2.5238   -0.4719   -0.1032 H   0  0  0  0  0  0  0  0  0  0  0  0
   -0.4848   -0.1959    0.4138 C   0  0  1  0  0  0  0  0  0  0  0  0
    0.2090   -0.7122   -0.2517 H   0  0  0  0  0  0  0  0  0  0  0  0
   -0.7044    1.2293   -0.1299 C   0  0  0  0  0  0  0  0  0  0  0  0
   -1.5095    1.6948    0.4425 H   0  0  0  0  0  0  0  0  0  0  0  0
    0.2045    1.8132    0.0231 H   0  0  0  0  0  0  0  0  0  0  0  0
   -1.0802    1.2756   -1.6212 C   0  0  0  0  0  0  0  0  0  0  0  0
   -0.2819    0.8306   -2.2149 H   0  0  0  0  0  0  0  0  0  0  0  0
   -1.9915    0.6977   -1.7745 H   0  0  0  0  0  0  0  0  0  0  0  0
   -1.3180    2.6944   -2.1378 C   0  0  0  0  0  0  0  0  0  0  0  0
   -1.2889    3.6799   -1.4246 O   0  0  0  0  0  0  0  0  0  0  0  0
   -1.5590    2.8616   -3.4201 N   0  0  0  0  0  0  0  0  0  0  0  0
   -1.7069    3.8142   -3.7049 H   0  0  0  0  0  0  0  0  0  0  0  0
   -1.5915    2.0864   -4.0508 H   0  0  0  0  0  0  0  0  0  0  0  0
    0.1188   -0.1986    1.8268 C   0  0  0  0  0  0  0  0  0  0  0  0
    0.1220   -1.2297    2.4968 O   0  0  0  0  0  0  0  0  0  0  0  0
    0.6190    0.9567    2.2834 N   0  0  0  0  0  0  0  0  0  0  0  0
    0.6041    1.7540    1.6677 H   0  0  0  0  0  0  0  0  0  0  0  0
    1.2145    1.1206    3.6089 C   0  0  0  0  0  0  0  0  0  0  0  0
    2.0344    0.4090    3.7339 H   0  0  0  0  0  0  0  0  0  0  0  0
    1.5979    2.1348    3.7313 H   0  0  0  0  0  0  0  0  0  0  0  0
    0.4651    0.9215    4.3769 H   0  0  0  0  0  0  0  0  0  0  0  0
  5  6  2  0  0  0  0
  5  7  1  0  0  0  0
  2  3  1  0  0  0  0
  2  4  1  0  0  0  0
  2  5  1  0  0  0  0
  1  2  1  0  0  0  0
 22 23  2  0  0  0  0
 22 24  1  0  0  0  0
 19 20  1  0  0  0  0
 19 21  1  0  0  0  0
 17 18  2  0  0  0  0
 17 19  1  0  0  0  0
 14 15  1  0  0  0  0
 14 16  1  0  0  0  0
 14 17  1  0  0  0  0
 11 12  1  0  0  0  0
 11 13  1  0  0  0  0
 11 14  1  0  0  0  0
  9 10  1  0  0  0  0
  9 11  1  0  0  0  0
  9 22  1  0  0  0  0
  7  8  1  0  0  0  0
  7  9  1  0  0  0  0
 26 27  1  0  0  0  0
 26 28  1  0  0  0  0
 26 29  1  0  0  0  0
 24 25  1  0  0  0  0
 24 26  1  0  0  0  0
M  END
$$$$
default_name
  -OEChem-01062215323D

 29 28  0     1  0  0  0  0  0999 V2000
   -3.3998   -3.6239    1.3678 H   0  0  0  0  0  0  0  0  0  0  0  0
   -3.3608   -2.6749    0.8348 C   0  0  0  0  0  0  0  0  0  0  0  0
   -4.0988   -1.9909    1.2498 H   0  0  0  0  0  0  0  0  0  0  0  0
   -3.5618   -2.8419   -0.2222 H   0  0  0  0  0  0  0  0  0  0  0  0
   -1.9818   -2.0809    0.9918 C   0  0  0  0  0  0  0  0  0  0  0  0
   -1.1288   -2.6669    1.6468 O   0  0  0  0  0  0  0  0  0  0  0  0
   -1.7648   -0.9089    0.3998 N   0  0  0  0  0  0  0  0  0  0  0  0
   -2.5238   -0.4719   -0.1032 H   0  0  0  0  0  0  0  0  0  0  0  0
   -0.4848   -0.1959    0.4138 C   0  0  1  0  0  0  0  0  0  0  0  0
    0.2090   -0.7122   -0.2517 H   0  0  0  0  0  0  0  0  0  0  0  0
   -0.7044    1.2293   -0.1299 C   0  0  0  0  0  0  0  0  0  0  0  0
   -1.5095    1.6948    0.4425 H   0  0  0  0  0  0  0  0  0  0  0  0
    0.2045    1.8132    0.0231 H   0  0  0  0  0  0  0  0  0  0  0  0
   -1.0802    1.2756   -1.6212 C   0  0  0  0  0  0  0  0  0  0  0  0
   -0.2819    0.8306   -2.2149 H   0  0  0  0  0  0  0  0  0  0  0  0
   -1.9915    0.6977   -1.7745 H   0  0  0  0  0  0  0  0  0  0  0  0
   -1.3180    2.6944   -2.1378 C   0  0  0  0  0  0  0  0  0  0  0  0
   -1.2889    3.6799   -1.4246 O   0  0  0  0  0  0  0  0  0  0  0  0
   -1.5590    2.8616   -3.4201 N   0  0  0  0  0  0  0  0  0  0  0  0
   -1.7069    3.8142   -3.7049 H   0  0  0  0  0  0  0  0  0  0  0  0
   -1.5915    2.0864   -4.0508 H   0  0  0  0  0  0  0  0  0  0  0  0
    0.1188   -0.1986    1.8268 C   0  0  0  0  0  0  0  0  0  0  0  0
    0.3753   -1.2619    2.3886 O   0  0  0  0  0  0  0  0  0  0  0  0
    0.3350    0.9900    2.4048 N   0  0  0  0  0  0  0  0  0  0  0  0
    0.1234    1.8192    1.8731 H   0  0  0  0  0  0  0  0  0  0  0  0
    0.8900    1.1552    3.7476 C   0  0  0  0  0  0  0  0  0  0  0  0
    1.8572    0.6503    3.8100 H   0  0  0  0  0  0  0  0  0  0  0  0
    1.0224    2.2136    3.9772 H   0  0  0  0  0  0  0  0  0  0  0  0
    0.2187    0.7064    4.4817 H   0  0  0  0  0  0  0  0  0  0  0  0
  5  6  2  0  0  0  0
  5  7  1  0  0  0  0
  2  3  1  0  0  0  0
  2  4  1  0  0  0  0
  2  5  1  0  0  0  0
  1  2  1  0  0  0  0
 22 23  2  0  0  0  0
 22 24  1  0  0  0  0
 19 20  1  0  0  0  0
 19 21  1  0  0  0  0
 17 18  2  0  0  0  0
 17 19  1  0  0  0  0
 14 15  1  0  0  0  0
 14 16  1  0  0  0  0
 14 17  1  0  0  0  0
 11 12  1  0  0  0  0
 11 13  1  0  0  0  0
 11 14  1  0  0  0  0
  9 10  1  0  0  0  0
  9 11  1  0  0  0  0
  9 22  1  0  0  0  0
  7  8  1  0  0  0  0
  7  9  1  0  0  0  0
 26 27  1  0  0  0  0
 26 28  1  0  0  0  0
 26 29  1  0  0  0  0
 24 25  1  0  0  0  0
 24 26  1  0  0  0  0
M  END
$$$$
default_name
  -OEChem-01062215323D

 29 28  0     1  0  0  0  0  0999 V2000
   -3.3998   -3.6239    1.3678 H   0  0  0  0  0  0  0  0  0  0  0  0
   -3.3608   -2.6749    0.8348 C   0  0  0  0  0  0  0  0  0  0  0  0
   -4.0988   -1.9909    1.2498 H   0  0  0  0  0  0  0  0  0  0  0  0
   -3.5618   -2.8419   -0.2222 H   0  0  0  0  0  0  0  0  0  0  0  0
   -1.9818   -2.0809    0.9918 C   0  0  0  0  0  0  0  0  0  0  0  0
   -1.1288   -2.6669    1.6468 O   0  0  0  0  0  0  0  0  0  0  0  0
   -1.7648   -0.9089    0.3998 N   0  0  0  0  0  0  0  0  0  0  0  0
   -2.5238   -0.4719   -0.1032 H   0  0  0  0  0  0  0  0  0  0  0  0
   -0.4848   -0.1959    0.4138 C   0  0  1  0  0  0  0  0  0  0  0  0
    0.2090   -0.7122   -0.2517 H   0  0  0  0  0  0  0  0  0  0  0  0
   -0.7044    1.2293   -0.1299 C   0  0  0  0  0  0  0  0  0  0  0  0
   -1.5095    1.6948    0.4425 H   0  0  0  0  0  0  0  0  0  0  0  0
    0.2045    1.8132    0.0231 H   0  0  0  0  0  0  0  0  0  0  0  0
   -1.0802    1.2756   -1.6212 C   0  0  0  0  0  0  0  0  0  0  0  0
   -0.2819    0.8306   -2.2149 H   0  0  0  0  0  0  0  0  0  0  0  0
   -1.9915    0.6977   -1.7745 H   0  0  0  0  0  0  0  0  0  0  0  0
   -1.3180    2.6944   -2.1378 C   0  0  0  0  0  0  0  0  0  0  0  0
   -1.2889    3.6799   -1.4246 O   0  0  0  0  0  0  0  0  0  0  0  0
   -1.5590    2.8616   -3.4201 N   0  0  0  0  0  0  0  0  0  0  0  0
   -1.7069    3.8142   -3.7049 H   0  0  0  0  0  0  0  0  0  0  0  0
   -1.5915    2.0864   -4.0508 H   0  0  0  0  0  0  0  0  0  0  0  0
    0.1188   -0.1986    1.8268 C   0  0  0  0  0  0  0  0  0  0  0  0
    0.6277   -1.2218    2.2809 O   0  0  0  0  0  0  0  0  0  0  0  0
    0.0527    0.9421    2.5253 N   0  0  0  0  0  0  0  0  0  0  0  0
   -0.3565    1.7468    2.0779 H   0  0  0  0  0  0  0  0  0  0  0  0
    0.5683    1.0973    3.8849 C   0  0  0  0  0  0  0  0  0  0  0  0
    1.6285    0.8334    3.9080 H   0  0  0  0  0  0  0  0  0  0  0  0
    0.4477    2.1277    4.2225 H   0  0  0  0  0  0  0  0  0  0  0  0
    0.0319    0.4294    4.5610 H   0  0  0  0  0  0  0  0  0  0  0  0
  5  6  2  0  0  0  0
  5  7  1  0  0  0  0
  2  3  1  0  0  0  0
  2  4  1  0  0  0  0
  2  5  1  0  0  0  0
  1  2  1  0  0  0  0
 22 23  2  0  0  0  0
 22 24  1  0  0  0  0
 19 20  1  0  0  0  0
 19 21  1  0  0  0  0
 17 18  2  0  0  0  0
 17 19  1  0  0  0  0
 14 15  1  0  0  0  0
 14 16  1  0  0  0  0
 14 17  1  0  0  0  0
 11 12  1  0  0  0  0
 11 13  1  0  0  0  0
 11 14  1  0  0  0  0
  9 10  1  0  0  0  0
  9 11  1  0  0  0  0
  9 22  1  0  0  0  0
  7  8  1  0  0  0  0
  7  9  1  0  0  0  0
 26 27  1  0  0  0  0
 26 28  1  0  0  0  0
 26 29  1  0  0  0  0
 24 25  1  0  0  0  0
 24 26  1  0  0  0  0
M  END
$$$$
default_name
  -OEChem-01062215323D

 29 28  0     1  0  0  0  0  0999 V2000
   -3.3998   -3.6239    1.3678 H   0  0  0  0  0  0  0  0  0  0  0  0
   -3.3608   -2.6749    0.8348 C   0  0  0  0  0  0  0  0  0  0  0  0
   -4.0988   -1.9909    1.2498 H   0  0  0  0  0  0  0  0  0  0  0  0
   -3.5618   -2.8419   -0.2222 H   0  0  0  0  0  0  0  0  0  0  0  0
   -1.9818   -2.0809    0.9918 C   0  0  0  0  0  0  0  0  0  0  0  0
   -1.1288   -2.6669    1.6468 O   0  0  0  0  0  0  0  0  0  0  0  0
   -1.7648   -0.9089    0.3998 N   0  0  0  0  0  0  0  0  0  0  0  0
   -2.5238   -0.4719   -0.1032 H   0  0  0  0  0  0  0  0  0  0  0  0
   -0.4848   -0.1959    0.4138 C   0  0  1  0  0  0  0  0  0  0  0  0
    0.2090   -0.7122   -0.2517 H   0  0  0  0  0  0  0  0  0  0  0  0
   -0.7044    1.2293   -0.1299 C   0  0  0  0  0  0  0  0  0  0  0  0
   -1.5095    1.6948    0.4425 H   0  0  0  0  0  0  0  0  0  0  0  0
    0.2045    1.8132    0.0231 H   0  0  0  0  0  0  0  0  0  0  0  0
   -1.0802    1.2756   -1.6212 C   0  0  0  0  0  0  0  0  0  0  0  0
   -0.2819    0.8306   -2.2149 H   0  0  0  0  0  0  0  0  0  0  0  0
   -1.9915    0.6977   -1.7745 H   0  0  0  0  0  0  0  0  0  0  0  0
   -1.3180    2.6944   -2.1378 C   0  0  0  0  0  0  0  0  0  0  0  0
   -1.2889    3.6799   -1.4246 O   0  0  0  0  0  0  0  0  0  0  0  0
   -1.5590    2.8616   -3.4201 N   0  0  0  0  0  0  0  0  0  0  0  0
   -1.7069    3.8142   -3.7049 H   0  0  0  0  0  0  0  0  0  0  0  0
   -1.5915    2.0864   -4.0508 H   0  0  0  0  0  0  0  0  0  0  0  0
    0.1188   -0.1986    1.8268 C   0  0  0  0  0  0  0  0  0  0  0  0
    0.8620   -1.1120    2.1810 O   0  0  0  0  0  0  0  0  0  0  0  0
   -0.2086    0.8165    2.6367 N   0  0  0  0  0  0  0  0  0  0  0  0
   -0.8029    1.5419    2.2682 H   0  0  0  0  0  0  0  0  0  0  0  0
    0.2713    0.9508    4.0114 C   0  0  0  0  0  0  0  0  0  0  0  0
    1.3641    0.9458    4.0212 H   0  0  0  0  0  0  0  0  0  0  0  0
   -0.0872    1.8831    4.4505 H   0  0  0  0  0  0  0  0  0  0  0  0
   -0.0826    0.1092    4.6093 H   0  0  0  0  0  0  0  0  0  0  0  0
  5  6  2  0  0  0  0
  5  7  1  0  0  0  0
  2  3  1  0  0  0  0
  2  4  1  0  0  0  0
  2  5  1  0  0  0  0
  1  2  1  0  0  0  0
 22 23  2  0  0  0  0
 22 24  1  0  0  0  0
 19 20  1  0  0  0  0
 19 21  1  0  0  0  0
 17 18  2  0  0  0  0
 17 19  1  0  0  0  0
 14 15  1  0  0  0  0
 14 16  1  0  0  0  0
 14 17  1  0  0  0  0
 11 12  1  0  0  0  0
 11 13  1  0  0  0  0
 11 14  1  0  0  0  0
  9 10  1  0  0  0  0
  9 11  1  0  0  0  0
  9 22  1  0  0  0  0
  7  8  1  0  0  0  0
  7  9  1  0  0  0  0
 26 27  1  0  0  0  0
 26 28  1  0  0  0  0
 26 29  1  0  0  0  0
 24 25  1  0  0  0  0
 24 26  1  0  0  0  0
M  END
$$$$
default_name
  -OEChem-01062215323D

 29 28  0     1  0  0  0  0  0999 V2000
   -3.3998   -3.6239    1.3678 H   0  0  0  0  0  0  0  0  0  0  0  0
   -3.3608   -2.6749    0.8348 C   0  0  0  0  0  0  0  0  0  0  0  0
   -4.0988   -1.9909    1.2498 H   0  0  0  0  0  0  0  0  0  0  0  0
   -3.5618   -2.8419   -0.2222 H   0  0  0  0  0  0  0  0  0  0  0  0
   -1.9818   -2.0809    0.9918 C   0  0  0  0  0  0  0  0  0  0  0  0
   -1.1288   -2.6669    1.6468 O   0  0  0  0  0  0  0  0  0  0  0  0
   -1.7648   -0.9089    0.3998 N   0  0  0  0  0  0  0  0  0  0  0  0
   -2.5238   -0.4719   -0.1032 H   0  0  0  0  0  0  0  0  0  0  0  0
   -0.4848   -0.1959    0.4138 C   0  0  1  0  0  0  0  0  0  0  0  0
    0.2090   -0.7122   -0.2517 H   0  0  0  0  0  0  0  0  0  0  0  0
   -0.7044    1.2293   -0.1299 C   0  0  0  0  0  0  0  0  0  0  0  0
   -1.5095    1.6948    0.4425 H   0  0  0  0  0  0  0  0  0  0  0  0
    0.2045    1.8132    0.0231 H   0  0  0  0  0  0  0  0  0  0  0  0
   -1.0802    1.2756   -1.6212 C   0  0  0  0  0  0  0  0  0  0  0  0
   -0.2819    0.8306   -2.2149 H   0  0  0  0  0  0  0  0  0  0  0  0
   -1.9915    0.6977   -1.7745 H   0  0  0  0  0  0  0  0  0  0  0  0
   -1.3180    2.6944   -2.1378 C   0  0  0  0  0  0  0  0  0  0  0  0
   -1.2889    3.6799   -1.4246 O   0  0  0  0  0  0  0  0  0  0  0  0
   -1.5590    2.8616   -3.4201 N   0  0  0  0  0  0  0  0  0  0  0  0
   -1.7069    3.8142   -3.7049 H   0  0  0  0  0  0  0  0  0  0  0  0
   -1.5915    2.0864   -4.0508 H   0  0  0  0  0  0  0  0  0  0  0  0
    0.1188   -0.1986    1.8268 C   0  0  0  0  0  0  0  0  0  0  0  0
    1.0622   -0.9400    2.0958 O   0  0  0  0  0  0  0  0  0  0  0  0
   -0.4312    0.6216    2.7314 N   0  0  0  0  0  0  0  0  0  0  0  0
   -1.1854    1.2184    2.4310 H   0  0  0  0  0  0  0  0  0  0  0  0
    0.0192    0.7257    4.1187 C   0  0  0  0  0  0  0  0  0  0  0  0
    1.0818    0.9800    4.1418 H   0  0  0  0  0  0  0  0  0  0  0  0
   -0.5456    1.4963    4.6456 H   0  0  0  0  0  0  0  0  0  0  0  0
   -0.1171   -0.2322    4.6234 H   0  0  0  0  0  0  0  0  0  0  0  0
  5  6  2  0  0  0  0
  5  7  1  0  0  0  0
  2  3  1  0  0  0  0
  2  4  1  0  0  0  0
  2  5  1  0  0  0  0
  1  2  1  0  0  0  0
 22 23  2  0  0  0  0
 22 24  1  0  0  0  0
 19 20  1  0  0  0  0
 19 21  1  0  0  0  0
 17 18  2  0  0  0  0
 17 19  1  0  0  0  0
 14 15  1  0  0  0  0
 14 16  1  0  0  0  0
 14 17  1  0  0  0  0
 11 12  1  0  0  0  0
 11 13  1  0  0  0  0
 11 14  1  0  0  0  0
  9 10  1  0  0  0  0
  9 11  1  0  0  0  0
  9 22  1  0  0  0  0
  7  8  1  0  0  0  0
  7  9  1  0  0  0  0
 26 27  1  0  0  0  0
 26 28  1  0  0  0  0
 26 29  1  0  0  0  0
 24 25  1  0  0  0  0
 24 26  1  0  0  0  0
M  END
$$$$
default_name
  -OEChem-01062215323D

 29 28  0     1  0  0  0  0  0999 V2000
   -3.3998   -3.6239    1.3678 H   0  0  0  0  0  0  0  0  0  0  0  0
   -3.3608   -2.6749    0.8348 C   0  0  0  0  0  0  0  0  0  0  0  0
   -4.0988   -1.9909    1.2498 H   0  0  0  0  0  0  0  0  0  0  0  0
   -3.5618   -2.8419   -0.2222 H   0  0  0  0  0  0  0  0  0  0  0  0
   -1.9818   -2.0809    0.9918 C   0  0  0  0  0  0  0  0  0  0  0  0
   -1.1288   -2.6669    1.6468 O   0  0  0  0  0  0  0  0  0  0  0  0
   -1.7648   -0.9089    0.3998 N   0  0  0  0  0  0  0  0  0  0  0  0
   -2.5238   -0.4719   -0.1032 H   0  0  0  0  0  0  0  0  0  0  0  0
   -0.4848   -0.1959    0.4138 C   0  0  1  0  0  0  0  0  0  0  0  0
    0.2090   -0.7122   -0.2517 H   0  0  0  0  0  0  0  0  0  0  0  0
   -0.7044    1.2293   -0.1299 C   0  0  0  0  0  0  0  0  0  0  0  0
   -1.5095    1.6948    0.4425 H   0  0  0  0  0  0  0  0  0  0  0  0
    0.2045    1.8132    0.0231 H   0  0  0  0  0  0  0  0  0  0  0  0
   -1.0802    1.2756   -1.6212 C   0  0  0  0  0  0  0  0  0  0  0  0
   -0.2819    0.8306   -2.2149 H   0  0  0  0  0  0  0  0  0  0  0  0
   -1.9915    0.6977   -1.7745 H   0  0  0  0  0  0  0  0  0  0  0  0
   -1.3180    2.6944   -2.1378 C   0  0  0  0  0  0  0  0  0  0  0  0
   -1.2889    3.6799   -1.4246 O   0  0  0  0  0  0  0  0  0  0  0  0
   -1.5590    2.8616   -3.4201 N   0  0  0  0  0  0  0  0  0  0  0  0
   -1.7069    3.8142   -3.7049 H   0  0  0  0  0  0  0  0  0  0  0  0
   -1.5915    2.0864   -4.0508 H   0  0  0  0  0  0  0  0  0  0  0  0
    0.1188   -0.1986    1.8268 C   0  0  0  0  0  0  0  0  0  0  0  0
    1.2146   -0.7176    2.0311 O   0  0  0  0  0  0  0  0  0  0  0  0
   -0.5999    0.3708    2.8029 N   0  0  0  0  0  0  0  0  0  0  0  0
   -1.4779    0.7982    2.5551 H   0  0  0  0  0  0  0  0  0  0  0  0
   -0.1707    0.4374    4.1993 C   0  0  0  0  0  0  0  0  0  0  0  0
    0.8009    0.9336    4.2617 H   0  0  0  0  0  0  0  0  0  0  0  0
   -0.8965    0.9937    4.7945 H   0  0  0  0  0  0  0  0  0  0  0  0
   -0.0691   -0.5717    4.6022 H   0  0  0  0  0  0  0  0  0  0  0  0
  5  6  2  0  0  0  0
  5  7  1  0  0  0  0
  2  3  1  0  0  0  0
  2  4  1  0  0  0  0
  2  5  1  0  0  0  0
  1  2  1  0  0  0  0
 22 23  2  0  0  0  0
 22 24  1  0  0  0  0
 19 20  1  0  0  0  0
 19 21  1  0  0  0  0
 17 18  2  0  0  0  0
 17 19  1  0  0  0  0
 14 15  1  0  0  0  0
 14 16  1  0  0  0  0
 14 17  1  0  0  0  0
 11 12  1  0  0  0  0
 11 13  1  0  0  0  0
 11 14  1  0  0  0  0
  9 10  1  0  0  0  0
  9 11  1  0  0  0  0
  9 22  1  0  0  0  0
  7  8  1  0  0  0  0
  7  9  1  0  0  0  0
 26 27  1  0  0  0  0
 26 28  1  0  0  0  0
 26 29  1  0  0  0  0
 24 25  1  0  0  0  0
 24 26  1  0  0  0  0
M  END
$$$$
default_name
  -OEChem-01062215323D

 29 28  0     1  0  0  0  0  0999 V2000
   -3.3998   -3.6239    1.3678 H   0  0  0  0  0  0  0  0  0  0  0  0
   -3.3608   -2.6749    0.8348 C   0  0  0  0  0  0  0  0  0  0  0  0
   -4.0988   -1.9909    1.2498 H   0  0  0  0  0  0  0  0  0  0  0  0
   -3.5618   -2.8419   -0.2222 H   0  0  0  0  0  0  0  0  0  0  0  0
   -1.9818   -2.0809    0.9918 C   0  0  0  0  0  0  0  0  0  0  0  0
   -1.1288   -2.6669    1.6468 O   0  0  0  0  0  0  0  0  0  0  0  0
   -1.7648   -0.9089    0.3998 N   0  0  0  0  0  0  0  0  0  0  0  0
   -2.5238   -0.4719   -0.1032 H   0  0  0  0  0  0  0  0  0  0  0  0
   -0.4848   -0.1959    0.4138 C   0  0  1  0  0  0  0  0  0  0  0  0
    0.2090   -0.7122   -0.2517 H   0  0  0  0  0  0  0  0  0  0  0  0
   -0.7044    1.2293   -0.1299 C   0  0  0  0  0  0  0  0  0  0  0  0
   -1.5095    1.6948    0.4425 H   0  0  0  0  0  0  0  0  0  0  0  0
    0.2045    1.8132    0.0231 H   0  0  0  0  0  0  0  0  0  0  0  0
   -1.0802    1.2756   -1.6212 C   0  0  0  0  0  0  0  0  0  0  0  0
   -0.2819    0.8306   -2.2149 H   0  0  0  0  0  0  0  0  0  0  0  0
   -1.9915    0.6977   -1.7745 H   0  0  0  0  0  0  0  0  0  0  0  0
   -1.3180    2.6944   -2.1378 C   0  0  0  0  0  0  0  0  0  0  0  0
   -1.2889    3.6799   -1.4246 O   0  0  0  0  0  0  0  0  0  0  0  0
   -1.5590    2.8616   -3.4201 N   0  0  0  0  0  0  0  0  0  0  0  0
   -1.7069    3.8142   -3.7049 H   0  0  0  0  0  0  0  0  0  0  0  0
   -1.5915    2.0864   -4.0508 H   0  0  0  0  0  0  0  0  0  0  0  0
    0.1188   -0.1986    1.8268 C   0  0  0  0  0  0  0  0  0  0  0  0
    1.3090   -0.4598    1.9913 O   0  0  0  0  0  0  0  0  0  0  0  0
   -0.7031    0.0811    2.8465 N   0  0  0  0  0  0  0  0  0  0  0  0
   -1.6606    0.3102    2.6322 H   0  0  0  0  0  0  0  0  0  0  0  0
   -0.2857    0.1056    4.2477 C   0  0  0  0  0  0  0  0  0  0  0  0
    0.5406    0.8097    4.3726 H   0  0  0  0  0  0  0  0  0  0  0  0
   -1.1158    0.4096    4.8871 H   0  0  0  0  0  0  0  0  0  0  0  0
    0.0580   -0.8860    4.5473 H   0  0  0  0  0  0  0  0  0  0  0  0
  5  6  2  0  0  0  0
  5  7  1  0  0  0  0
  2  3  1  0  0  0  0
  2  4  1  0  0  0  0
  2  5  1  0  0  0  0
  1  2  1  0  0  0  0
 22 23  2  0  0  0  0
 22 24  1  0  0  0  0
 19 20  1  0  0  0  0
 19 21  1  0  0  0  0
 17 18  2  0  0  0  0
 17 19  1  0  0  0  0
 14 15  1  0  0  0  0
 14 16  1  0  0  0  0
 14 17  1  0  0  0  0
 11 12  1  0  0  0  0
 11 13  1  0  0  0  0
 11 14  1  0  0  0  0
  9 10  1  0  0  0  0
  9 11  1  0  0  0  0
  9 22  1  0  0  0  0
  7  8  1  0  0  0  0
  7  9  1  0  0  0  0
 26 27  1  0  0  0  0
 26 28  1  0  0  0  0
 26 29  1  0  0  0  0
 24 25  1  0  0  0  0
 24 26  1  0  0  0  0
M  END
$$$$
default_name
  -OEChem-01062215323D

 29 28  0     1  0  0  0  0  0999 V2000
   -3.3998   -3.6239    1.3678 H   0  0  0  0  0  0  0  0  0  0  0  0
   -3.3608   -2.6749    0.8348 C   0  0  0  0  0  0  0  0  0  0  0  0
   -4.0988   -1.9909    1.2498 H   0  0  0  0  0  0  0  0  0  0  0  0
   -3.5618   -2.8419   -0.2222 H   0  0  0  0  0  0  0  0  0  0  0  0
   -1.9818   -2.0809    0.9918 C   0  0  0  0  0  0  0  0  0  0  0  0
   -1.1288   -2.6669    1.6468 O   0  0  0  0  0  0  0  0  0  0  0  0
   -1.7648   -0.9089    0.3998 N   0  0  0  0  0  0  0  0  0  0  0  0
   -2.5238   -0.4719   -0.1032 H   0  0  0  0  0  0  0  0  0  0  0  0
   -0.4848   -0.1959    0.4138 C   0  0  1  0  0  0  0  0  0  0  0  0
    0.2090   -0.7122   -0.2517 H   0  0  0  0  0  0  0  0  0  0  0  0
   -0.7044    1.2293   -0.1299 C   0  0  0  0  0  0  0  0  0  0  0  0
   -1.5095    1.6948    0.4425 H   0  0  0  0  0  0  0  0  0  0  0  0
    0.2045    1.8132    0.0231 H   0  0  0  0  0  0  0  0  0  0  0  0
   -1.0802    1.2756   -1.6212 C   0  0  0  0  0  0  0  0  0  0  0  0
   -0.2819    0.8306   -2.2149 H   0  0  0  0  0  0  0  0  0  0  0  0
   -1.9915    0.6977   -1.7745 H   0  0  0  0  0  0  0  0  0  0  0  0
   -1.3180    2.6944   -2.1378 C   0  0  0  0  0  0  0  0  0  0  0  0
   -1.2889    3.6799   -1.4246 O   0  0  0  0  0  0  0  0  0  0  0  0
   -1.5590    2.8616   -3.4201 N   0  0  0  0  0  0  0  0  0  0  0  0
   -1.7069    3.8142   -3.7049 H   0  0  0  0  0  0  0  0  0  0  0  0
   -1.5915    2.0864   -4.0508 H   0  0  0  0  0  0  0  0  0  0  0  0
    0.1188   -0.1986    1.8268 C   0  0  0  0  0  0  0  0  0  0  0  0
    1.3389   -0.1844    1.9791 O   0  0  0  0  0  0  0  0  0  0  0  0
   -0.7339   -0.2278    2.8591 N   0  0  0  0  0  0  0  0  0  0  0  0
   -1.7209   -0.2125    2.6570 H   0  0  0  0  0  0  0  0  0  0  0  0
   -0.3177   -0.2473    4.2607 C   0  0  0  0  0  0  0  0  0  0  0  0
    0.3187    0.6168    4.4671 H   0  0  0  0  0  0  0  0  0  0  0  0
   -1.1887   -0.2162    4.9170 H   0  0  0  0  0  0  0  0  0  0  0  0
    0.2557   -1.1537    4.4624 H   0  0  0  0  0  0  0  0  0  0  0  0
  5  6  2  0  0  0  0
  5  7  1  0  0  0  0
  2  3  1  0  0  0  0
  2  4  1  0  0  0  0
  2  5  1  0  0  0  0
  1  2  1  0  0  0  0
 22 23  2  0  0  0  0
 22 24  1  0  0  0  0
 19 20  1  0  0  0  0
 19 21  1  0  0  0  0
 17 18  2  0  0  0  0
 17 19  1  0  0  0  0
 14 15  1  0  0  0  0
 14 16  1  0  0  0  0
 14 17  1  0  0  0  0
 11 12  1  0  0  0  0
 11 13  1  0  0  0  0
 11 14  1  0  0  0  0
  9 10  1  0  0  0  0
  9 11  1  0  0  0  0
  9 22  1  0  0  0  0
  7  8  1  0  0  0  0
  7  9  1  0  0  0  0
 26 27  1  0  0  0  0
 26 28  1  0  0  0  0
 26 29  1  0  0  0  0
 24 25  1  0  0  0  0
 24 26  1  0  0  0  0
M  END
$$$$
default_name
  -OEChem-01062215323D

 29 28  0     1  0  0  0  0  0999 V2000
   -3.3998   -3.6239    1.3678 H   0  0  0  0  0  0  0  0  0  0  0  0
   -3.3608   -2.6749    0.8348 C   0  0  0  0  0  0  0  0  0  0  0  0
   -4.0988   -1.9909    1.2498 H   0  0  0  0  0  0  0  0  0  0  0  0
   -3.5618   -2.8419   -0.2222 H   0  0  0  0  0  0  0  0  0  0  0  0
   -1.9818   -2.0809    0.9918 C   0  0  0  0  0  0  0  0  0  0  0  0
   -1.1288   -2.6669    1.6468 O   0  0  0  0  0  0  0  0  0  0  0  0
   -1.7648   -0.9089    0.3998 N   0  0  0  0  0  0  0  0  0  0  0  0
   -2.5238   -0.4719   -0.1032 H   0  0  0  0  0  0  0  0  0  0  0  0
   -0.4848   -0.1959    0.4138 C   0  0  1  0  0  0  0  0  0  0  0  0
    0.2090   -0.7122   -0.2517 H   0  0  0  0  0  0  0  0  0  0  0  0
   -0.7044    1.2293   -0.1299 C   0  0  0  0  0  0  0  0  0  0  0  0
   -1.5095    1.6948    0.4425 H   0  0  0  0  0  0  0  0  0  0  0  0
    0.2045    1.8132    0.0231 H   0  0  0  0  0  0  0  0  0  0  0  0
   -1.0802    1.2756   -1.6212 C   0  0  0  0  0  0  0  0  0  0  0  0
   -0.2819    0.8306   -2.2149 H   0  0  0  0  0  0  0  0  0  0  0  0
   -1.9915    0.6977   -1.7745 H   0  0  0  0  0  0  0  0  0  0  0  0
   -1.3180    2.6944   -2.1378 C   0  0  0  0  0  0  0  0  0  0  0  0
   -1.2889    3.6799   -1.4246 O   0  0  0  0  0  0  0  0  0  0  0  0
   -1.5590    2.8616   -3.4201 N   0  0  0  0  0  0  0  0  0  0  0  0
   -1.7069    3.8142   -3.7049 H   0  0  0  0  0  0  0  0  0  0  0  0
   -1.5915    2.0864   -4.0508 H   0  0  0  0  0  0  0  0  0  0  0  0
    0.1188   -0.1986    1.8268 C   0  0  0  0  0  0  0  0  0  0  0  0
    1.3021    0.0900    1.9953 O   0  0  0  0  0  0  0  0  0  0  0  0
   -0.6902   -0.5347    2.8398 N   0  0  0  0  0  0  0  0  0  0  0  0
   -1.6547   -0.7343    2.6277 H   0  0  0  0  0  0  0  0  0  0  0  0
   -0.2646   -0.5971    4.2374 C   0  0  0  0  0  0  0  0  0  0  0  0
    0.1501    0.3681    4.5386 H   0  0  0  0  0  0  0  0  0  0  0  0
   -1.1102   -0.8411    4.8823 H   0  0  0  0  0  0  0  0  0  0  0  0
    0.5103   -1.3567    4.3533 H   0  0  0  0  0  0  0  0  0  0  0  0
  5  6  2  0  0  0  0
  5  7  1  0  0  0  0
  2  3  1  0  0  0  0
  2  4  1  0  0  0  0
  2  5  1  0  0  0  0
  1  2  1  0  0  0  0
 22 23  2  0  0  0  0
 22 24  1  0  0  0  0
 19 20  1  0  0  0  0
 19 21  1  0  0  0  0
 17 18  2  0  0  0  0
 17 19  1  0  0  0  0
 14 15  1  0  0  0  0
 14 16  1  0  0  0  0
 14 17  1  0  0  0  0
 11 12  1  0  0  0  0
 11 13  1  0  0  0  0
 11 14  1  0  0  0  0
  9 10  1  0  0  0  0
  9 11  1  0  0  0  0
  9 22  1  0  0  0  0
  7  8  1  0  0  0  0
  7  9  1  0  0  0  0
 26 27  1  0  0  0  0
 26 28  1  0  0  0  0
 26 29  1  0  0  0  0
 24 25  1  0  0  0  0
 24 26  1  0  0  0  0
M  END
$$$$
default_name
  -OEChem-01062215323D

 29 28  0     1  0  0  0  0  0999 V2000
   -3.3998   -3.6239    1.3678 H   0  0  0  0  0  0  0  0  0  0  0  0
   -3.3608   -2.6749    0.8348 C   0  0  0  0  0  0  0  0  0  0  0  0
   -4.0988   -1.9909    1.2498 H   0  0  0  0  0  0  0  0  0  0  0  0
   -3.5618   -2.8419   -0.2222 H   0  0  0  0  0  0  0  0  0  0  0  0
   -1.9818   -2.0809    0.9918 C   0  0  0  0  0  0  0  0  0  0  0  0
   -1.1288   -2.6669    1.6468 O   0  0  0  0  0  0  0  0  0  0  0  0
   -1.7648   -0.9089    0.3998 N   0  0  0  0  0  0  0  0  0  0  0  0
   -2.5238   -0.4719   -0.1032 H   0  0  0  0  0  0  0  0  0  0  0  0
   -0.4848   -0.1959    0.4138 C   0  0  1  0  0  0  0  0  0  0  0  0
    0.2090   -0.7122   -0.2517 H   0  0  0  0  0  0  0  0  0  0  0  0
   -0.7044    1.2293   -0.1299 C   0  0  0  0  0  0  0  0  0  0  0  0
   -1.5095    1.6948    0.4425 H   0  0  0  0  0  0  0  0  0  0  0  0
    0.2045    1.8132    0.0231 H   0  0  0  0  0  0  0  0  0  0  0  0
   -1.0802    1.2756   -1.6212 C   0  0  0  0  0  0  0  0  0  0  0  0
   -0.2819    0.8306   -2.2149 H   0  0  0  0  0  0  0  0  0  0  0  0
   -1.9915    0.6977   -1.7745 H   0  0  0  0  0  0  0  0  0  0  0  0
   -1.3180    2.6944   -2.1378 C   0  0  0  0  0  0  0  0  0  0  0  0
   -1.2889    3.6799   -1.4246 O   0  0  0  0  0  0  0  0  0  0  0  0
   -1.5590    2.8616   -3.4201 N   0  0  0  0  0  0  0  0  0  0  0  0
   -1.7069    3.8142   -3.7049 H   0  0  0  0  0  0  0  0  0  0  0  0
   -1.5915    2.0864   -4.0508 H   0  0  0  0  0  0  0  0  0  0  0  0
    0.1188   -0.1986    1.8268 C   0  0  0  0  0  0  0  0  0  0  0  0
    1.2013    0.3447    2.0388 O   0  0  0  0  0  0  0  0  0  0  0  0
   -0.5748   -0.8188    2.7900 N   0  0  0  0  0  0  0  0  0  0  0  0
   -1.4666   -1.2196    2.5465 H   0  0  0  0  0  0  0  0  0  0  0  0
   -0.1301   -0.9199    4.1794 C   0  0  0  0  0  0  0  0  0  0  0  0
    0.0465    0.0804    4.5823 H   0  0  0  0  0  0  0  0  0  0  0  0
   -0.8856   -1.4225    4.7853 H   0  0  0  0  0  0  0  0  0  0  0  0
    0.8047   -1.4810    4.2273 H   0  0  0  0  0  0  0  0  0  0  0  0
  5  6  2  0  0  0  0
  5  7  1  0  0  0  0
  2  3  1  0  0  0  0
  2  4  1  0  0  0  0
  2  5  1  0  0  0  0
  1  2  1  0  0  0  0
 22 23  2  0  0  0  0
 22 24  1  0  0  0  0
 19 20  1  0  0  0  0
 19 21  1  0  0  0  0
 17 18  2  0  0  0  0
 17 19  1  0  0  0  0
 14 15  1  0  0  0  0
 14 16  1  0  0  0  0
 14 17  1  0  0  0  0
 11 12  1  0  0  0  0
 11 13  1  0  0  0  0
 11 14  1  0  0  0  0
  9 10  1  0  0  0  0
  9 11  1  0  0  0  0
  9 22  1  0  0  0  0
  7  8  1  0  0  0  0
  7  9  1  0  0  0  0
 26 27  1  0  0  0  0
 26 28  1  0  0  0  0
 26 29  1  0  0  0  0
 24 25  1  0  0  0  0
 24 26  1  0  0  0  0
M  END
$$$$
default_name
  -OEChem-01062215323D

 29 28  0     1  0  0  0  0  0999 V2000
   -3.3998   -3.6239    1.3678 H   0  0  0  0  0  0  0  0  0  0  0  0
   -3.3608   -2.6749    0.8348 C   0  0  0  0  0  0  0  0  0  0  0  0
   -4.0988   -1.9909    1.2498 H   0  0  0  0  0  0  0  0  0  0  0  0
   -3.5618   -2.8419   -0.2222 H   0  0  0  0  0  0  0  0  0  0  0  0
   -1.9818   -2.0809    0.9918 C   0  0  0  0  0  0  0  0  0  0  0  0
   -1.1288   -2.6669    1.6468 O   0  0  0  0  0  0  0  0  0  0  0  0
   -1.7648   -0.9089    0.3998 N   0  0  0  0  0  0  0  0  0  0  0  0
   -2.5238   -0.4719   -0.1032 H   0  0  0  0  0  0  0  0  0  0  0  0
   -0.4848   -0.1959    0.4138 C   0  0  1  0  0  0  0  0  0  0  0  0
    0.2090   -0.7122   -0.2517 H   0  0  0  0  0  0  0  0  0  0  0  0
   -0.7044    1.2293   -0.1299 C   0  0  0  0  0  0  0  0  0  0  0  0
   -1.5095    1.6948    0.4425 H   0  0  0  0  0  0  0  0  0  0  0  0
    0.2045    1.8132    0.0231 H   0  0  0  0  0  0  0  0  0  0  0  0
   -1.0802    1.2756   -1.6212 C   0  0  0  0  0  0  0  0  0  0  0  0
   -0.2819    0.8306   -2.2149 H   0  0  0  0  0  0  0  0  0  0  0  0
   -1.9915    0.6977   -1.7745 H   0  0  0  0  0  0  0  0  0  0  0  0
   -1.3180    2.6944   -2.1378 C   0  0  0  0  0  0  0  0  0  0  0  0
   -1.2889    3.6799   -1.4246 O   0  0  0  0  0  0  0  0  0  0  0  0
   -1.5590    2.8616   -3.4201 N   0  0  0  0  0  0  0  0  0  0  0  0
   -1.7069    3.8142   -3.7049 H   0  0  0  0  0  0  0  0  0  0  0  0
   -1.5915    2.0864   -4.0508 H   0  0  0  0  0  0  0  0  0  0  0  0
    0.1188   -0.1986    1.8268 C   0  0  0  0  0  0  0  0  0  0  0  0
    1.0433    0.5623    2.1067 O   0  0  0  0  0  0  0  0  0  0  0  0
   -0.3958   -1.0607    2.7131 N   0  0  0  0  0  0  0  0  0  0  0  0
   -1.1693   -1.6353    2.4187 H   0  0  0  0  0  0  0  0  0  0  0  0
    0.0766   -1.1939    4.0906 C   0  0  0  0  0  0  0  0  0  0  0  0
    0.0149   -0.2266    4.5952 H   0  0  0  0  0  0  0  0  0  0  0  0
   -0.5302   -1.9207    4.6326 H   0  0  0  0  0  0  0  0  0  0  0  0
    1.1187   -1.5182    4.0931 H   0  0  0  0  0  0  0  0  0  0  0  0
  5  6  2  0  0  0  0
  5  7  1  0  0  0  0
  2  3  1  0  0  0  0
  2  4  1  0  0  0  0
  2  5  1  0  0  0  0
  1  2  1  0  0  0  0
 22 23  2  0  0  0  0
 22 24  1  0  0  0  0
 19 20  1  0  0  0  0
 19 21  1  0  0  0  0
 17 18  2  0  0  0  0
 17 19  1  0  0  0  0
 14 15  1  0  0  0  0
 14 16  1  0  0  0  0
 14 17  1  0  0  0  0
 11 12  1  0  0  0  0
 11 13  1  0  0  0  0
 11 14  1  0  0  0  0
  9 10  1  0  0  0  0
  9 11  1  0  0  0  0
  9 22  1  0  0  0  0
  7  8  1  0  0  0  0
  7  9  1  0  0  0  0
 26 27  1  0  0  0  0
 26 28  1  0  0  0  0
 26 29  1  0  0  0  0
 24 25  1  0  0  0  0
 24 26  1  0  0  0  0
M  END
$$$$
default_name
  -OEChem-01062215323D

 29 28  0     1  0  0  0  0  0999 V2000
   -3.3998   -3.6239    1.3678 H   0  0  0  0  0  0  0  0  0  0  0  0
   -3.3608   -2.6749    0.8348 C   0  0  0  0  0  0  0  0  0  0  0  0
   -4.0988   -1.9909    1.2498 H   0  0  0  0  0  0  0  0  0  0  0  0
   -3.5618   -2.8419   -0.2222 H   0  0  0  0  0  0  0  0  0  0  0  0
   -1.9818   -2.0809    0.9918 C   0  0  0  0  0  0  0  0  0  0  0  0
   -1.1288   -2.6669    1.6468 O   0  0  0  0  0  0  0  0  0  0  0  0
   -1.7648   -0.9089    0.3998 N   0  0  0  0  0  0  0  0  0  0  0  0
   -2.5238   -0.4719   -0.1032 H   0  0  0  0  0  0  0  0  0  0  0  0
   -0.4848   -0.1959    0.4138 C   0  0  1  0  0  0  0  0  0  0  0  0
    0.2090   -0.7122   -0.2517 H   0  0  0  0  0  0  0  0  0  0  0  0
   -0.7044    1.2293   -0.1299 C   0  0  0  0  0  0  0  0  0  0  0  0
   -1.5095    1.6948    0.4425 H   0  0  0  0  0  0  0  0  0  0  0  0
    0.2045    1.8132    0.0231 H   0  0  0  0  0  0  0  0  0  0  0  0
   -1.0802    1.2756   -1.6212 C   0  0  0  0  0  0  0  0  0  0  0  0
   -0.2819    0.8306   -2.2149 H   0  0  0  0  0  0  0  0  0  0  0  0
   -1.9915    0.6977   -1.7745 H   0  0  0  0  0  0  0  0  0  0  0  0
   -1.3180    2.6944   -2.1378 C   0  0  0  0  0  0  0  0  0  0  0  0
   -1.2889    3.6799   -1.4246 O   0  0  0  0  0  0  0  0  0  0  0  0
   -1.5590    2.8616   -3.4201 N   0  0  0  0  0  0  0  0  0  0  0  0
   -1.7069    3.8142   -3.7049 H   0  0  0  0  0  0  0  0  0  0  0  0
   -1.5915    2.0864   -4.0508 H   0  0  0  0  0  0  0  0  0  0  0  0
    0.1188   -0.1986    1.8268 C   0  0  0  0  0  0  0  0  0  0  0  0
    0.8389    0.7279    2.1943 O   0  0  0  0  0  0  0  0  0  0  0  0
   -0.1652   -1.2439    2.6143 N   0  0  0  0  0  0  0  0  0  0  0  0
   -0.7832   -1.9531    2.2532 H   0  0  0  0  0  0  0  0  0  0  0  0
    0.3416   -1.4002    3.9770 C   0  0  0  0  0  0  0  0  0  0  0  0
    0.0573   -0.5319    4.5765 H   0  0  0  0  0  0  0  0  0  0  0  0
   -0.0683   -2.3019    4.4346 H   0  0  0  0  0  0  0  0  0  0  0  0
    1.4308   -1.4658    3.9599 H   0  0  0  0  0  0  0  0  0  0  0  0
  5  6  2  0  0  0  0
  5  7  1  0  0  0  0
  2  3  1  0  0  0  0
  2  4  1  0  0  0  0
  2  5  1  0  0  0  0
  1  2  1  0  0  0  0
 22 23  2  0  0  0  0
 22 24  1  0  0  0  0
 19 20  1  0  0  0  0
 19 21  1  0  0  0  0
 17 18  2  0  0  0  0
 17 19  1  0  0  0  0
 14 15  1  0  0  0  0
 14 16  1  0  0  0  0
 14 17  1  0  0  0  0
 11 12  1  0  0  0  0
 11 13  1  0  0  0  0
 11 14  1  0  0  0  0
  9 10  1  0  0  0  0
  9 11  1  0  0  0  0
  9 22  1  0  0  0  0
  7  8  1  0  0  0  0
  7  9  1  0  0  0  0
 26 27  1  0  0  0  0
 26 28  1  0  0  0  0
 26 29  1  0  0  0  0
 24 25  1  0  0  0  0
 24 26  1  0  0  0  0
M  END
$$$$
default_name
  -OEChem-01062215323D

 29 28  0     1  0  0  0  0  0999 V2000
   -3.3998   -3.6239    1.3678 H   0  0  0  0  0  0  0  0  0  0  0  0
   -3.3608   -2.6749    0.8348 C   0  0  0  0  0  0  0  0  0  0  0  0
   -4.0988   -1.9909    1.2498 H   0  0  0  0  0  0  0  0  0  0  0  0
   -3.5618   -2.8419   -0.2222 H   0  0  0  0  0  0  0  0  0  0  0  0
   -1.9818   -2.0809    0.9918 C   0  0  0  0  0  0  0  0  0  0  0  0
   -1.1288   -2.6669    1.6468 O   0  0  0  0  0  0  0  0  0  0  0  0
   -1.7648   -0.9089    0.3998 N   0  0  0  0  0  0  0  0  0  0  0  0
   -2.5238   -0.4719   -0.1032 H   0  0  0  0  0  0  0  0  0  0  0  0
   -0.4848   -0.1959    0.4138 C   0  0  1  0  0  0  0  0  0  0  0  0
    0.2090   -0.7122   -0.2517 H   0  0  0  0  0  0  0  0  0  0  0  0
   -0.7044    1.2293   -0.1299 C   0  0  0  0  0  0  0  0  0  0  0  0
   -1.5095    1.6948    0.4425 H   0  0  0  0  0  0  0  0  0  0  0  0
    0.2045    1.8132    0.0231 H   0  0  0  0  0  0  0  0  0  0  0  0
   -1.0802    1.2756   -1.6212 C   0  0  0  0  0  0  0  0  0  0  0  0
   -0.2819    0.8306   -2.2149 H   0  0  0  0  0  0  0  0  0  0  0  0
   -1.9915    0.6977   -1.7745 H   0  0  0  0  0  0  0  0  0  0  0  0
   -1.3180    2.6944   -2.1378 C   0  0  0  0  0  0  0  0  0  0  0  0
   -1.2889    3.6799   -1.4246 O   0  0  0  0  0  0  0  0  0  0  0  0
   -1.5590    2.8616   -3.4201 N   0  0  0  0  0  0  0  0  0  0  0  0
   -1.7069    3.8142   -3.7049 H   0  0  0  0  0  0  0  0  0  0  0  0
   -1.5915    2.0864   -4.0508 H   0  0  0  0  0  0  0  0  0  0  0  0
    0.1188   -0.1986    1.8268 C   0  0  0  0  0  0  0  0  0  0  0  0
    0.6019    0.8304    2.2957 O   0  0  0  0  0  0  0  0  0  0  0  0
    0.1011   -1.3560    2.5003 N   0  0  0  0  0  0  0  0  0  0  0  0
   -0.3345   -2.1513    2.0612 H   0  0  0  0  0  0  0  0  0  0  0  0
    0.6467   -1.5249    3.8464 C   0  0  0  0  0  0  0  0  0  0  0  0
    0.1711   -0.8149    4.5274 H   0  0  0  0  0  0  0  0  0  0  0  0
    0.4687   -2.5400    4.2048 H   0  0  0  0  0  0  0  0  0  0  0  0
    1.7200   -1.3273    3.8367 H   0  0  0  0  0  0  0  0  0  0  0  0
  5  6  2  0  0  0  0
  5  7  1  0  0  0  0
  2  3  1  0  0  0  0
  2  4  1  0  0  0  0
  2  5  1  0  0  0  0
  1  2  1  0  0  0  0
 22 23  2  0  0  0  0
 22 24  1  0  0  0  0
 19 20  1  0  0  0  0
 19 21  1  0  0  0  0
 17 18  2  0  0  0  0
 17 19  1  0  0  0  0
 14 15  1  0  0  0  0
 14 16  1  0  0  0  0
 14 17  1  0  0  0  0
 11 12  1  0  0  0  0
 11 13  1  0  0  0  0
 11 14  1  0  0  0  0
  9 10  1  0  0  0  0
  9 11  1  0  0  0  0
  9 22  1  0  0  0  0
  7  8  1  0  0  0  0
  7  9  1  0  0  0  0
 26 27  1  0  0  0  0
 26 28  1  0  0  0  0
 26 29  1  0  0  0  0
 24 25  1  0  0  0  0
 24 26  1  0  0  0  0
M  END
$$$$
default_name
  -OEChem-01062215323D

 29 28  0     1  0  0  0  0  0999 V2000
   -3.3998   -3.6239    1.3678 H   0  0  0  0  0  0  0  0  0  0  0  0
   -3.3608   -2.6749    0.8348 C   0  0  0  0  0  0  0  0  0  0  0  0
   -4.0988   -1.9909    1.2498 H   0  0  0  0  0  0  0  0  0  0  0  0
   -3.5618   -2.8419   -0.2222 H   0  0  0  0  0  0  0  0  0  0  0  0
   -1.9818   -2.0809    0.9918 C   0  0  0  0  0  0  0  0  0  0  0  0
   -1.1288   -2.6669    1.6468 O   0  0  0  0  0  0  0  0  0  0  0  0
   -1.7648   -0.9089    0.3998 N   0  0  0  0  0  0  0  0  0  0  0  0
   -2.5238   -0.4719   -0.1032 H   0  0  0  0  0  0  0  0  0  0  0  0
   -0.4848   -0.1959    0.4138 C   0  0  1  0  0  0  0  0  0  0  0  0
    0.2090   -0.7122   -0.2517 H   0  0  0  0  0  0  0  0  0  0  0  0
   -0.7044    1.2293   -0.1299 C   0  0  0  0  0  0  0  0  0  0  0  0
   -1.5095    1.6948    0.4425 H   0  0  0  0  0  0  0  0  0  0  0  0
    0.2045    1.8132    0.0231 H   0  0  0  0  0  0  0  0  0  0  0  0
   -1.0802    1.2756   -1.6212 C   0  0  0  0  0  0  0  0  0  0  0  0
   -0.2819    0.8306   -2.2149 H   0  0  0  0  0  0  0  0  0  0  0  0
   -1.9915    0.6977   -1.7745 H   0  0  0  0  0  0  0  0  0  0  0  0
   -1.3180    2.6944   -2.1378 C   0  0  0  0  0  0  0  0  0  0  0  0
   -1.2889    3.6799   -1.4246 O   0  0  0  0  0  0  0  0  0  0  0  0
   -1.5590    2.8616   -3.4201 N   0  0  0  0  0  0  0  0  0  0  0  0
   -1.7069    3.8142   -3.7049 H   0  0  0  0  0  0  0  0  0  0  0  0
   -1.5915    2.0864   -4.0508 H   0  0  0  0  0  0  0  0  0  0  0  0
    0.1188   -0.1986    1.8268 C   0  0  0  0  0  0  0  0  0  0  0  0
    0.3486    0.8626    2.4040 O   0  0  0  0  0  0  0  0  0  0  0  0
    0.3851   -1.3893    2.3789 N   0  0  0  0  0  0  0  0  0  0  0  0
    0.1462   -2.2165    1.8558 H   0  0  0  0  0  0  0  0  0  0  0  0
    0.9712   -1.5595    3.7078 C   0  0  0  0  0  0  0  0  0  0  0  0
    0.3483   -1.0561    4.4513 H   0  0  0  0  0  0  0  0  0  0  0  0
    1.0442   -2.6188    3.9588 H   0  0  0  0  0  0  0  0  0  0  0  0
    1.9663   -1.1122    3.7318 H   0  0  0  0  0  0  0  0  0  0  0  0
  5  6  2  0  0  0  0
  5  7  1  0  0  0  0
  2  3  1  0  0  0  0
  2  4  1  0  0  0  0
  2  5  1  0  0  0  0
  1  2  1  0  0  0  0
 22 23  2  0  0  0  0
 22 24  1  0  0  0  0
 19 20  1  0  0  0  0
 19 21  1  0  0  0  0
 17 18  2  0  0  0  0
 17 19  1  0  0  0  0
 14 15  1  0  0  0  0
 14 16  1  0  0  0  0
 14 17  1  0  0  0  0
 11 12  1  0  0  0  0
 11 13  1  0  0  0  0
 11 14  1  0  0  0  0
  9 10  1  0  0  0  0
  9 11  1  0  0  0  0
  9 22  1  0  0  0  0
  7  8  1  0  0  0  0
  7  9  1  0  0  0  0
 26 27  1  0  0  0  0
 26 28  1  0  0  0  0
 26 29  1  0  0  0  0
 24 25  1  0  0  0  0
 24 26  1  0  0  0  0
M  END
$$$$
default_name
  -OEChem-01062215323D

 29 28  0     1  0  0  0  0  0999 V2000
   -3.3998   -3.6239    1.3678 H   0  0  0  0  0  0  0  0  0  0  0  0
   -3.3608   -2.6749    0.8348 C   0  0  0  0  0  0  0  0  0  0  0  0
   -4.0988   -1.9909    1.2498 H   0  0  0  0  0  0  0  0  0  0  0  0
   -3.5618   -2.8419   -0.2222 H   0  0  0  0  0  0  0  0  0  0  0  0
   -1.9818   -2.0809    0.9918 C   0  0  0  0  0  0  0  0  0  0  0  0
   -1.1288   -2.6669    1.6468 O   0  0  0  0  0  0  0  0  0  0  0  0
   -1.7648   -0.9089    0.3998 N   0  0  0  0  0  0  0  0  0  0  0  0
   -2.5238   -0.4719   -0.1032 H   0  0  0  0  0  0  0  0  0  0  0  0
   -0.4848   -0.1959    0.4138 C   0  0  1  0  0  0  0  0  0  0  0  0
    0.2090   -0.7122   -0.2517 H   0  0  0  0  0  0  0  0  0  0  0  0
   -0.7044    1.2293   -0.1299 C   0  0  0  0  0  0  0  0  0  0  0  0
   -1.5095    1.6948    0.4425 H   0  0  0  0  0  0  0  0  0  0  0  0
    0.2045    1.8132    0.0231 H   0  0  0  0  0  0  0  0  0  0  0  0
   -1.0802    1.2756   -1.6212 C   0  0  0  0  0  0  0  0  0  0  0  0
   -0.2819    0.8306   -2.2149 H   0  0  0  0  0  0  0  0  0  0  0  0
   -1.9915    0.6977   -1.7745 H   0  0  0  0  0  0  0  0  0  0  0  0
   -1.3180    2.6944   -2.1378 C   0  0  0  0  0  0  0  0  0  0  0  0
   -1.2889    3.6799   -1.4246 O   0  0  0  0  0  0  0  0  0  0  0  0
   -1.5590    2.8616   -3.4201 N   0  0  0  0  0  0  0  0  0  0  0  0
   -1.7069    3.8142   -3.7049 H   0  0  0  0  0  0  0  0  0  0  0  0
   -1.5915    2.0864   -4.0508 H   0  0  0  0  0  0  0  0  0  0  0  0
    0.1188   -0.1986    1.8268 C   0  0  0  0  0  0  0  0  0  0  0  0
    0.0963    0.8224    2.5117 O   0  0  0  0  0  0  0  0  0  0  0  0
    0.6674   -1.3414    2.2584 N   0  0  0  0  0  0  0  0  0  0  0  0
    0.6261   -2.1441    1.6509 H   0  0  0  0  0  0  0  0  0  0  0  0
    1.2929   -1.5016    3.5705 C   0  0  0  0  0  0  0  0  0  0  0  0
    0.5769   -1.2392    4.3533 H   0  0  0  0  0  0  0  0  0  0  0  0
    1.6189   -2.5329    3.7135 H   0  0  0  0  0  0  0  0  0  0  0  0
    2.1532   -0.8351    3.6526 H   0  0  0  0  0  0  0  0  0  0  0  0
  5  6  2  0  0  0  0
  5  7  1  0  0  0  0
  2  3  1  0  0  0  0
  2  4  1  0  0  0  0
  2  5  1  0  0  0  0
  1  2  1  0  0  0  0
 22 23  2  0  0  0  0
 22 24  1  0  0  0  0
 19 20  1  0  0  0  0
 19 21  1  0  0  0  0
 17 18  2  0  0  0  0
 17 19  1  0  0  0  0
 14 15  1  0  0  0  0
 14 16  1  0  0  0  0
 14 17  1  0  0  0  0
 11 12  1  0  0  0  0
 11 13  1  0  0  0  0
 11 14  1  0  0  0  0
  9 10  1  0  0  0  0
  9 11  1  0  0  0  0
  9 22  1  0  0  0  0
  7  8  1  0  0  0  0
  7  9  1  0  0  0  0
 26 27  1  0  0  0  0
 26 28  1  0  0  0  0
 26 29  1  0  0  0  0
 24 25  1  0  0  0  0
 24 26  1  0  0  0  0
M  END
$$$$
default_name
  -OEChem-01062215323D

 29 28  0     1  0  0  0  0  0999 V2000
   -3.3998   -3.6239    1.3678 H   0  0  0  0  0  0  0  0  0  0  0  0
   -3.3608   -2.6749    0.8348 C   0  0  0  0  0  0  0  0  0  0  0  0
   -4.0988   -1.9909    1.2498 H   0  0  0  0  0  0  0  0  0  0  0  0
   -3.5618   -2.8419   -0.2222 H   0  0  0  0  0  0  0  0  0  0  0  0
   -1.9818   -2.0809    0.9918 C   0  0  0  0  0  0  0  0  0  0  0  0
   -1.1288   -2.6669    1.6468 O   0  0  0  0  0  0  0  0  0  0  0  0
   -1.7648   -0.9089    0.3998 N   0  0  0  0  0  0  0  0  0  0  0  0
   -2.5238   -0.4719   -0.1032 H   0  0  0  0  0  0  0  0  0  0  0  0
   -0.4848   -0.1959    0.4138 C   0  0  1  0  0  0  0  0  0  0  0  0
    0.2090   -0.7122   -0.2517 H   0  0  0  0  0  0  0  0  0  0  0  0
   -0.7044    1.2293   -0.1299 C   0  0  0  0  0  0  0  0  0  0  0  0
   -1.5095    1.6948    0.4425 H   0  0  0  0  0  0  0  0  0  0  0  0
    0.2045    1.8132    0.0231 H   0  0  0  0  0  0  0  0  0  0  0  0
   -1.0802    1.2756   -1.6212 C   0  0  0  0  0  0  0  0  0  0  0  0
   -0.2819    0.8306   -2.2149 H   0  0  0  0  0  0  0  0  0  0  0  0
   -1.9915    0.6977   -1.7745 H   0  0  0  0  0  0  0  0  0  0  0  0
   -1.3180    2.6944   -2.1378 C   0  0  0  0  0  0  0  0  0  0  0  0
   -1.2889    3.6799   -1.4246 O   0  0  0  0  0  0  0  0  0  0  0  0
   -1.5590    2.8616   -3.4201 N   0  0  0  0  0  0  0  0  0  0  0  0
   -1.7069    3.8142   -3.7049 H   0  0  0  0  0  0  0  0  0  0  0  0
   -1.5915    2.0864   -4.0508 H   0  0  0  0  0  0  0  0  0  0  0  0
    0.1188   -0.1986    1.8268 C   0  0  0  0  0  0  0  0  0  0  0  0
   -0.1380    0.7126    2.6115 O   0  0  0  0  0  0  0  0  0  0  0  0
    0.9288   -1.2158    2.1471 N   0  0  0  0  0  0  0  0  0  0  0  0
    1.0725   -1.9392    1.4607 H   0  0  0  0  0  0  0  0  0  0  0  0
    1.5899   -1.3551    3.4439 C   0  0  0  0  0  0  0  0  0  0  0  0
    0.8414   -1.3517    4.2401 H   0  0  0  0  0  0  0  0  0  0  0  0
    2.1537   -2.2883    3.4856 H   0  0  0  0  0  0  0  0  0  0  0  0
    2.2677   -0.5149    3.6043 H   0  0  0  0  0  0  0  0  0  0  0  0
  5  6  2  0  0  0  0
  5  7  1  0  0  0  0
  2  3  1  0  0  0  0
  2  4  1  0  0  0  0
  2  5  1  0  0  0  0
  1  2  1  0  0  0  0
 22 23  2  0  0  0  0
 22 24  1  0  0  0  0
 19 20  1  0  0  0  0
 19 21  1  0  0  0  0
 17 18  2  0  0  0  0
 17 19  1  0  0  0  0
 14 15  1  0  0  0  0
 14 16  1  0  0  0  0
 14 17  1  0  0  0  0
 11 12  1  0  0  0  0
 11 13  1  0  0  0  0
 11 14  1  0  0  0  0
  9 10  1  0  0  0  0
  9 11  1  0  0  0  0
  9 22  1  0  0  0  0
  7  8  1  0  0  0  0
  7  9  1  0  0  0  0
 26 27  1  0  0  0  0
 26 28  1  0  0  0  0
 26 29  1  0  0  0  0
 24 25  1  0  0  0  0
 24 26  1  0  0  0  0
M  END
$$$$
default_name
  -OEChem-01062215323D

 29 28  0     1  0  0  0  0  0999 V2000
   -3.3998   -3.6239    1.3678 H   0  0  0  0  0  0  0  0  0  0  0  0
   -3.3608   -2.6749    0.8348 C   0  0  0  0  0  0  0  0  0  0  0  0
   -4.0988   -1.9909    1.2498 H   0  0  0  0  0  0  0  0  0  0  0  0
   -3.5618   -2.8419   -0.2222 H   0  0  0  0  0  0  0  0  0  0  0  0
   -1.9818   -2.0809    0.9918 C   0  0  0  0  0  0  0  0  0  0  0  0
   -1.1288   -2.6669    1.6468 O   0  0  0  0  0  0  0  0  0  0  0  0
   -1.7648   -0.9089    0.3998 N   0  0  0  0  0  0  0  0  0  0  0  0
   -2.5238   -0.4719   -0.1032 H   0  0  0  0  0  0  0  0  0  0  0  0
   -0.4848   -0.1959    0.4138 C   0  0  1  0  0  0  0  0  0  0  0  0
    0.2090   -0.7122   -0.2517 H   0  0  0  0  0  0  0  0  0  0  0  0
   -0.7044    1.2293   -0.1299 C   0  0  0  0  0  0  0  0  0  0  0  0
   -1.5095    1.6948    0.4425 H   0  0  0  0  0  0  0  0  0  0  0  0
    0.2045    1.8132    0.0231 H   0  0  0  0  0  0  0  0  0  0  0  0
   -1.0802    1.2756   -1.6212 C   0  0  0  0  0  0  0  0  0  0  0  0
   -0.2819    0.8306   -2.2149 H   0  0  0  0  0  0  0  0  0  0  0  0
   -1.9915    0.6977   -1.7745 H   0  0  0  0  0  0  0  0  0  0  0  0
   -1.3180    2.6944   -2.1378 C   0  0  0  0  0  0  0  0  0  0  0  0
   -1.2889    3.6799   -1.4246 O   0  0  0  0  0  0  0  0  0  0  0  0
   -1.5590    2.8616   -3.4201 N   0  0  0  0  0  0  0  0  0  0  0  0
   -1.7069    3.8142   -3.7049 H   0  0  0  0  0  0  0  0  0  0  0  0
   -1.5915    2.0864   -4.0508 H   0  0  0  0  0  0  0  0  0  0  0  0
    0.1188   -0.1986    1.8268 C   0  0  0  0  0  0  0  0  0  0  0  0
   -0.3382    0.5407    2.6967 O   0  0  0  0  0  0  0  0  0  0  0  0
    1.1514   -1.0209    2.0523 N   0  0  0  0  0  0  0  0  0  0  0  0
    1.4550   -1.6157    1.2979 H   0  0  0  0  0  0  0  0  0  0  0  0
    1.8420   -1.1300    3.3367 C   0  0  0  0  0  0  0  0  0  0  0  0
    1.1237   -1.3858    4.1195 H   0  0  0  0  0  0  0  0  0  0  0  0
    2.6122   -1.9015    3.2905 H   0  0  0  0  0  0  0  0  0  0  0  0
    2.3022   -0.1735    3.5902 H   0  0  0  0  0  0  0  0  0  0  0  0
  5  6  2  0  0  0  0
  5  7  1  0  0  0  0
  2  3  1  0  0  0  0
  2  4  1  0  0  0  0
  2  5  1  0  0  0  0
  1  2  1  0  0  0  0
 22 23  2  0  0  0  0
 22 24  1  0  0  0  0
 19 20  1  0  0  0  0
 19 21  1  0  0  0  0
 17 18  2  0  0  0  0
 17 19  1  0  0  0  0
 14 15  1  0  0  0  0
 14 16  1  0  0  0  0
 14 17  1  0  0  0  0
 11 12  1  0  0  0  0
 11 13  1  0  0  0  0
 11 14  1  0  0  0  0
  9 10  1  0  0  0  0
  9 11  1  0  0  0  0
  9 22  1  0  0  0  0
  7  8  1  0  0  0  0
  7  9  1  0  0  0  0
 26 27  1  0  0  0  0
 26 28  1  0  0  0  0
 26 29  1  0  0  0  0
 24 25  1  0  0  0  0
 24 26  1  0  0  0  0
M  END
$$$$
default_name
  -OEChem-01062215323D

 29 28  0     1  0  0  0  0  0999 V2000
   -3.3998   -3.6239    1.3678 H   0  0  0  0  0  0  0  0  0  0  0  0
   -3.3608   -2.6749    0.8348 C   0  0  0  0  0  0  0  0  0  0  0  0
   -4.0988   -1.9909    1.2498 H   0  0  0  0  0  0  0  0  0  0  0  0
   -3.5618   -2.8419   -0.2222 H   0  0  0  0  0  0  0  0  0  0  0  0
   -1.9818   -2.0809    0.9918 C   0  0  0  0  0  0  0  0  0  0  0  0
   -1.1288   -2.6669    1.6468 O   0  0  0  0  0  0  0  0  0  0  0  0
   -1.7648   -0.9089    0.3998 N   0  0  0  0  0  0  0  0  0  0  0  0
   -2.5238   -0.4719   -0.1032 H   0  0  0  0  0  0  0  0  0  0  0  0
   -0.4848   -0.1959    0.4138 C   0  0  1  0  0  0  0  0  0  0  0  0
    0.2090   -0.7122   -0.2517 H   0  0  0  0  0  0  0  0  0  0  0  0
   -0.7044    1.2293   -0.1299 C   0  0  0  0  0  0  0  0  0  0  0  0
   -1.5095    1.6948    0.4425 H   0  0  0  0  0  0  0  0  0  0  0  0
    0.2045    1.8132    0.0231 H   0  0  0  0  0  0  0  0  0  0  0  0
   -1.0802    1.2756   -1.6212 C   0  0  0  0  0  0  0  0  0  0  0  0
   -0.2819    0.8306   -2.2149 H   0  0  0  0  0  0  0  0  0  0  0  0
   -1.9915    0.6977   -1.7745 H   0  0  0  0  0  0  0  0  0  0  0  0
   -1.3180    2.6944   -2.1378 C   0  0  0  0  0  0  0  0  0  0  0  0
   -1.2889    3.6799   -1.4246 O   0  0  0  0  0  0  0  0  0  0  0  0
   -1.5590    2.8616   -3.4201 N   0  0  0  0  0  0  0  0  0  0  0  0
   -1.7069    3.8142   -3.7049 H   0  0  0  0  0  0  0  0  0  0  0  0
   -1.5915    2.0864   -4.0508 H   0  0  0  0  0  0  0  0  0  0  0  0
    0.1188   -0.1986    1.8268 C   0  0  0  0  0  0  0  0  0  0  0  0
   -0.4907    0.3182    2.7614 O   0  0  0  0  0  0  0  0  0  0  0  0
    1.3201   -0.7701    1.9808 N   0  0  0  0  0  0  0  0  0  0  0  0
    1.7476   -1.1956    1.1737 H   0  0  0  0  0  0  0  0  0  0  0  0
    2.0320   -0.8417    3.2561 C   0  0  0  0  0  0  0  0  0  0  0  0
    1.4045   -1.3394    3.9996 H   0  0  0  0  0  0  0  0  0  0  0  0
    2.9630   -1.3989    3.1416 H   0  0  0  0  0  0  0  0  0  0  0  0
    2.2542    0.1659    3.6113 H   0  0  0  0  0  0  0  0  0  0  0  0
  5  6  2  0  0  0  0
  5  7  1  0  0  0  0
  2  3  1  0  0  0  0
  2  4  1  0  0  0  0
  2  5  1  0  0  0  0
  1  2  1  0  0  0  0
 22 23  2  0  0  0  0
 22 24  1  0  0  0  0
 19 20  1  0  0  0  0
 19 21  1  0  0  0  0
 17 18  2  0  0  0  0
 17 19  1  0  0  0  0
 14 15  1  0  0  0  0
 14 16  1  0  0  0  0
 14 17  1  0  0  0  0
 11 12  1  0  0  0  0
 11 13  1  0  0  0  0
 11 14  1  0  0  0  0
  9 10  1  0  0  0  0
  9 11  1  0  0  0  0
  9 22  1  0  0  0  0
  7  8  1  0  0  0  0
  7  9  1  0  0  0  0
 26 27  1  0  0  0  0
 26 28  1  0  0  0  0
 26 29  1  0  0  0  0
 24 25  1  0  0  0  0
 24 26  1  0  0  0  0
M  END
$$$$
default_name
  -OEChem-01062215323D

 29 28  0     1  0  0  0  0  0999 V2000
   -3.3998   -3.6239    1.3678 H   0  0  0  0  0  0  0  0  0  0  0  0
   -3.3608   -2.6749    0.8348 C   0  0  0  0  0  0  0  0  0  0  0  0
   -4.0988   -1.9909    1.2498 H   0  0  0  0  0  0  0  0  0  0  0  0
   -3.5618   -2.8419   -0.2222 H   0  0  0  0  0  0  0  0  0  0  0  0
   -1.9818   -2.0809    0.9918 C   0  0  0  0  0  0  0  0  0  0  0  0
   -1.1288   -2.6669    1.6468 O   0  0  0  0  0  0  0  0  0  0  0  0
   -1.7648   -0.9089    0.3998 N   0  0  0  0  0  0  0  0  0  0  0  0
   -2.5238   -0.4719   -0.1032 H   0  0  0  0  0  0  0  0  0  0  0  0
   -0.4848   -0.1959    0.4138 C   0  0  1  0  0  0  0  0  0  0  0  0
    0.2090   -0.7122   -0.2517 H   0  0  0  0  0  0  0  0  0  0  0  0
   -0.7044    1.2293   -0.1299 C   0  0  0  0  0  0  0  0  0  0  0  0
   -1.5095    1.6948    0.4425 H   0  0  0  0  0  0  0  0  0  0  0  0
    0.2045    1.8132    0.0231 H   0  0  0  0  0  0  0  0  0  0  0  0
   -1.0802    1.2756   -1.6212 C   0  0  0  0  0  0  0  0  0  0  0  0
   -0.2819    0.8306   -2.2149 H   0  0  0  0  0  0  0  0  0  0  0  0
   -1.9915    0.6977   -1.7745 H   0  0  0  0  0  0  0  0  0  0  0  0
   -1.3180    2.6944   -2.1378 C   0  0  0  0  0  0  0  0  0  0  0  0
   -1.2889    3.6799   -1.4246 O   0  0  0  0  0  0  0  0  0  0  0  0
   -1.5590    2.8616   -3.4201 N   0  0  0  0  0  0  0  0  0  0  0  0
   -1.7069    3.8142   -3.7049 H   0  0  0  0  0  0  0  0  0  0  0  0
   -1.5915    2.0864   -4.0508 H   0  0  0  0  0  0  0  0  0  0  0  0
    0.1188   -0.1986    1.8268 C   0  0  0  0  0  0  0  0  0  0  0  0
   -0.5851    0.0605    2.8013 O   0  0  0  0  0  0  0  0  0  0  0  0
    1.4233   -0.4804    1.9372 N   0  0  0  0  0  0  0  0  0  0  0  0
    1.9302   -0.7075    1.0966 H   0  0  0  0  0  0  0  0  0  0  0  0
    2.1469   -0.5099    3.2076 C   0  0  0  0  0  0  0  0  0  0  0  0
    1.6648   -1.2155    3.8887 H   0  0  0  0  0  0  0  0  0  0  0  0
    3.1824   -0.8148    3.0490 H   0  0  0  0  0  0  0  0  0  0  0  0
    2.1270    0.4802    3.6662 H   0  0  0  0  0  0  0  0  0  0  0  0
  5  6  2  0  0  0  0
  5  7  1  0  0  0  0
  2  3  1  0  0  0  0
  2  4  1  0  0  0  0
  2  5  1  0  0  0  0
  1  2  1  0  0  0  0
 22 23  2  0  0  0  0
 22 24  1  0  0  0  0
 19 20  1  0  0  0  0
 19 21  1  0  0  0  0
 17 18  2  0  0  0  0
 17 19  1  0  0  0  0
 14 15  1  0  0  0  0
 14 16  1  0  0  0  0
 14 17  1  0  0  0  0
 11 12  1  0  0  0  0
 11 13  1  0  0  0  0
 11 14  1  0  0  0  0
  9 10  1  0  0  0  0
  9 11  1  0  0  0  0
  9 22  1  0  0  0  0
  7  8  1  0  0  0  0
  7  9  1  0  0  0  0
 26 27  1  0  0  0  0
 26 28  1  0  0  0  0
 26 29  1  0  0  0  0
 24 25  1  0  0  0  0
 24 26  1  0  0  0  0
M  END
$$$$
default_name
  -OEChem-01062215323D

 29 28  0     1  0  0  0  0  0999 V2000
   -3.3998   -3.6239    1.3678 H   0  0  0  0  0  0  0  0  0  0  0  0
   -3.3608   -2.6749    0.8348 C   0  0  0  0  0  0  0  0  0  0  0  0
   -4.0988   -1.9909    1.2498 H   0  0  0  0  0  0  0  0  0  0  0  0
   -3.5618   -2.8419   -0.2222 H   0  0  0  0  0  0  0  0  0  0  0  0
   -1.9818   -2.0809    0.9918 C   0  0  0  0  0  0  0  0  0  0  0  0
   -1.1288   -2.6669    1.6468 O   0  0  0  0  0  0  0  0  0  0  0  0
   -1.7648   -0.9089    0.3998 N   0  0  0  0  0  0  0  0  0  0  0  0
   -2.5238   -0.4719   -0.1032 H   0  0  0  0  0  0  0  0  0  0  0  0
   -0.4848   -0.1959    0.4138 C   0  0  1  0  0  0  0  0  0  0  0  0
    0.2090   -0.7122   -0.2517 H   0  0  0  0  0  0  0  0  0  0  0  0
   -0.7044    1.2293   -0.1299 C   0  0  0  0  0  0  0  0  0  0  0  0
   -1.5095    1.6948    0.4425 H   0  0  0  0  0  0  0  0  0  0  0  0
    0.2045    1.8132    0.0231 H   0  0  0  0  0  0  0  0  0  0  0  0
   -1.0802    1.2756   -1.6212 C   0  0  0  0  0  0  0  0  0  0  0  0
   -0.2819    0.8306   -2.2149 H   0  0  0  0  0  0  0  0  0  0  0  0
   -1.9915    0.6977   -1.7745 H   0  0  0  0  0  0  0  0  0  0  0  0
   -1.3180    2.6944   -2.1378 C   0  0  0  0  0  0  0  0  0  0  0  0
   -1.2889    3.6799   -1.4246 O   0  0  0  0  0  0  0  0  0  0  0  0
   -1.5590    2.8616   -3.4201 N   0  0  0  0  0  0  0  0  0  0  0  0
   -1.7069    3.8142   -3.7049 H   0  0  0  0  0  0  0  0  0  0  0  0
   -1.5915    2.0864   -4.0508 H   0  0  0  0  0  0  0  0  0  0  0  0
    0.1188   -0.1986    1.8268 C   0  0  0  0  0  0  0  0  0  0  0  0
   -0.6149   -0.2149    2.8135 O   0  0  0  0  0  0  0  0  0  0  0  0
    1.4541   -0.1715    1.9247 N   0  0  0  0  0  0  0  0  0  0  0  0
    1.9905   -0.1848    1.0719 H   0  0  0  0  0  0  0  0  0  0  0  0
    2.1789   -0.1570    3.1946 C   0  0  0  0  0  0  0  0  0  0  0  0
    1.8868   -1.0226    3.7942 H   0  0  0  0  0  0  0  0  0  0  0  0
    3.2553   -0.1890    3.0190 H   0  0  0  0  0  0  0  0  0  0  0  0
    1.9294    0.7480    3.7511 H   0  0  0  0  0  0  0  0  0  0  0  0
  5  6  2  0  0  0  0
  5  7  1  0  0  0  0
  2  3  1  0  0  0  0
  2  4  1  0  0  0  0
  2  5  1  0  0  0  0
  1  2  1  0  0  0  0
 22 23  2  0  0  0  0
 22 24  1  0  0  0  0
 19 20  1  0  0  0  0
 19 21  1  0  0  0  0
 17 18  2  0  0  0  0
 17 19  1  0  0  0  0
 14 15  1  0  0  0  0
 14 16  1  0  0  0  0
 14 17  1  0  0  0  0
 11 12  1  0  0  0  0
 11 13  1  0  0  0  0
 11 14  1  0  0  0  0
  9 10  1  0  0  0  0
  9 11  1  0  0  0  0
  9 22  1  0  0  0  0
  7  8  1  0  0  0  0
  7  9  1  0  0  0  0
 26 27  1  0  0  0  0
 26 28  1  0  0  0  0
 26 29  1  0  0  0  0
 24 25  1  0  0  0  0
 24 26  1  0  0  0  0
M  END
$$$$
default_name
  -OEChem-01062215323D

 29 28  0     1  0  0  0  0  0999 V2000
   -3.3998   -3.6239    1.3678 H   0  0  0  0  0  0  0  0  0  0  0  0
   -3.3608   -2.6749    0.8348 C   0  0  0  0  0  0  0  0  0  0  0  0
   -4.0988   -1.9909    1.2498 H   0  0  0  0  0  0  0  0  0  0  0  0
   -3.5618   -2.8419   -0.2222 H   0  0  0  0  0  0  0  0  0  0  0  0
   -1.9818   -2.0809    0.9918 C   0  0  0  0  0  0  0  0  0  0  0  0
   -1.1288   -2.6669    1.6468 O   0  0  0  0  0  0  0  0  0  0  0  0
   -1.7648   -0.9089    0.3998 N   0  0  0  0  0  0  0  0  0  0  0  0
   -2.5238   -0.4719   -0.1032 H   0  0  0  0  0  0  0  0  0  0  0  0
   -0.4848   -0.1959    0.4138 C   0  0  1  0  0  0  0  0  0  0  0  0
    0.2090   -0.7122   -0.2517 H   0  0  0  0  0  0  0  0  0  0  0  0
   -0.7044    1.2293   -0.1299 C   0  0  0  0  0  0  0  0  0  0  0  0
   -1.5095    1.6948    0.4425 H   0  0  0  0  0  0  0  0  0  0  0  0
    0.2045    1.8132    0.0231 H   0  0  0  0  0  0  0  0  0  0  0  0
   -1.0802    1.2756   -1.6212 C   0  0  0  0  0  0  0  0  0  0  0  0
   -0.2819    0.8306   -2.2149 H   0  0  0  0  0  0  0  0  0  0  0  0
   -1.9915    0.6977   -1.7745 H   0  0  0  0  0  0  0  0  0  0  0  0
   -1.3180    2.6944   -2.1378 C   0  0  0  0  0  0  0  0  0  0  0  0
   -1.2889    3.6799   -1.4246 O   0  0  0  0  0  0  0  0  0  0  0  0
   -1.5590    2.8616   -3.4201 N   0  0  0  0  0  0  0  0  0  0  0  0
   -1.7069    3.8142   -3.7049 H   0  0  0  0  0  0  0  0  0  0  0  0
   -1.5915    2.0864   -4.0508 H   0  0  0  0  0  0  0  0  0  0  0  0
    0.1188   -0.1986    1.8268 C   0  0  0  0  0  0  0  0  0  0  0  0
   -0.5782   -0.4893    2.7973 O   0  0  0  0  0  0  0  0  0  0  0  0
    1.4103    0.1354    1.9439 N   0  0  0  0  0  0  0  0  0  0  0  0
    1.9243    0.3370    1.1011 H   0  0  0  0  0  0  0  0  0  0  0  0
    2.1259    0.1928    3.2179 C   0  0  0  0  0  0  0  0  0  0  0  0
    2.0553   -0.7739    3.7227 H   0  0  0  0  0  0  0  0  0  0  0  0
    3.1767    0.4359    3.0537 H   0  0  0  0  0  0  0  0  0  0  0  0
    1.6747    0.9509    3.8603 H   0  0  0  0  0  0  0  0  0  0  0  0
  5  6  2  0  0  0  0
  5  7  1  0  0  0  0
  2  3  1  0  0  0  0
  2  4  1  0  0  0  0
  2  5  1  0  0  0  0
  1  2  1  0  0  0  0
 22 23  2  0  0  0  0
 22 24  1  0  0  0  0
 19 20  1  0  0  0  0
 19 21  1  0  0  0  0
 17 18  2  0  0  0  0
 17 19  1  0  0  0  0
 14 15  1  0  0  0  0
 14 16  1  0  0  0  0
 14 17  1  0  0  0  0
 11 12  1  0  0  0  0
 11 13  1  0  0  0  0
 11 14  1  0  0  0  0
  9 10  1  0  0  0  0
  9 11  1  0  0  0  0
  9 22  1  0  0  0  0
  7  8  1  0  0  0  0
  7  9  1  0  0  0  0
 26 27  1  0  0  0  0
 26 28  1  0  0  0  0
 26 29  1  0  0  0  0
 24 25  1  0  0  0  0
 24 26  1  0  0  0  0
M  END
$$$$
default_name
  -OEChem-01062215323D

 29 28  0     1  0  0  0  0  0999 V2000
   -3.3998   -3.6239    1.3678 H   0  0  0  0  0  0  0  0  0  0  0  0
   -3.3608   -2.6749    0.8348 C   0  0  0  0  0  0  0  0  0  0  0  0
   -4.0988   -1.9909    1.2498 H   0  0  0  0  0  0  0  0  0  0  0  0
   -3.5618   -2.8419   -0.2222 H   0  0  0  0  0  0  0  0  0  0  0  0
   -1.9818   -2.0809    0.9918 C   0  0  0  0  0  0  0  0  0  0  0  0
   -1.1288   -2.6669    1.6468 O   0  0  0  0  0  0  0  0  0  0  0  0
   -1.7648   -0.9089    0.3998 N   0  0  0  0  0  0  0  0  0  0  0  0
   -2.5238   -0.4719   -0.1032 H   0  0  0  0  0  0  0  0  0  0  0  0
   -0.4848   -0.1959    0.4138 C   0  0  1  0  0  0  0  0  0  0  0  0
    0.1132   -0.5367   -0.4331 H   0  0  0  0  0  0  0  0  0  0  0  0
   -0.7541    1.3114    0.2387 C   0  0  0  0  0  0  0  0  0  0  0  0
   -1.4749    1.6218    0.9980 H   0  0  0  0  0  0  0  0  0  0  0  0
    0.1738    1.8609    0.4043 H   0  0  0  0  0  0  0  0  0  0  0  0
   -1.3146    1.6870   -1.1441 C   0  0  0  0  0  0  0  0  0  0  0  0
   -0.6030    1.4013   -1.9185 H   0  0  0  0  0  0  0  0  0  0  0  0
   -2.2449    1.1433   -1.3084 H   0  0  0  0  0  0  0  0  0  0  0  0
   -1.5986    3.1816   -1.2922 C   0  0  0  0  0  0  0  0  0  0  0  0
   -1.4679    3.9808   -0.3840 O   0  0  0  0  0  0  0  0  0  0  0  0
   -1.9975    3.6300   -2.4627 N   0  0  0  0  0  0  0  0  0  0  0  0
   -2.1687    4.6197   -2.5037 H   0  0  0  0  0  0  0  0  0  0  0  0
   -2.1187    3.0170   -3.2432 H   0  0  0  0  0  0  0  0  0  0  0  0
    0.2922   -0.5075    1.7022 C   0  0  0  0  0  0  0  0  0  0  0  0
   -0.1887   -1.2583    2.5491 O   0  0  0  0  0  0  0  0  0  0  0  0
    1.4875    0.0767    1.8555 N   0  0  0  0  0  0  0  0  0  0  0  0
    1.8275    0.6598    1.1075 H   0  0  0  0  0  0  0  0  0  0  0  0
    2.3412   -0.1076    3.0283 C   0  0  0  0  0  0  0  0  0  0  0  0
    2.5463   -1.1716    3.1699 H   0  0  0  0  0  0  0  0  0  0  0  0
    3.2845    0.4256    2.9001 H   0  0  0  0  0  0  0  0  0  0  0  0
    1.8315    0.2667    3.9177 H   0  0  0  0  0  0  0  0  0  0  0  0
  5  6  2  0  0  0  0
  5  7  1  0  0  0  0
  2  3  1  0  0  0  0
  2  4  1  0  0  0  0
  2  5  1  0  0  0  0
  1  2  1  0  0  0  0
 22 23  2  0  0  0  0
 22 24  1  0  0  0  0
 19 20  1  0  0  0  0
 19 21  1  0  0  0  0
 17 18  2  0  0  0  0
 17 19  1  0  0  0  0
 14 15  1  0  0  0  0
 14 16  1  0  0  0  0
 14 17  1  0  0  0  0
 11 12  1  0  0  0  0
 11 13  1  0  0  0  0
 11 14  1  0  0  0  0
  9 10  1  0  0  0  0
  9 11  1  0  0  0  0
  9 22  1  0  0  0  0
  7  8  1  0  0  0  0
  7  9  1  0  0  0  0
 26 27  1  0  0  0  0
 26 28  1  0  0  0  0
 26 29  1  0  0  0  0
 24 25  1  0  0  0  0
 24 26  1  0  0  0  0
M  END
$$$$
default_name
  -OEChem-01062215323D

 29 28  0     1  0  0  0  0  0999 V2000
   -3.3998   -3.6239    1.3678 H   0  0  0  0  0  0  0  0  0  0  0  0
   -3.3608   -2.6749    0.8348 C   0  0  0  0  0  0  0  0  0  0  0  0
   -4.0988   -1.9909    1.2498 H   0  0  0  0  0  0  0  0  0  0  0  0
   -3.5618   -2.8419   -0.2222 H   0  0  0  0  0  0  0  0  0  0  0  0
   -1.9818   -2.0809    0.9918 C   0  0  0  0  0  0  0  0  0  0  0  0
   -1.1288   -2.6669    1.6468 O   0  0  0  0  0  0  0  0  0  0  0  0
   -1.7648   -0.9089    0.3998 N   0  0  0  0  0  0  0  0  0  0  0  0
   -2.5238   -0.4719   -0.1032 H   0  0  0  0  0  0  0  0  0  0  0  0
   -0.4848   -0.1959    0.4138 C   0  0  1  0  0  0  0  0  0  0  0  0
    0.1132   -0.5367   -0.4331 H   0  0  0  0  0  0  0  0  0  0  0  0
   -0.7541    1.3114    0.2387 C   0  0  0  0  0  0  0  0  0  0  0  0
   -1.4749    1.6218    0.9980 H   0  0  0  0  0  0  0  0  0  0  0  0
    0.1738    1.8609    0.4043 H   0  0  0  0  0  0  0  0  0  0  0  0
   -1.3146    1.6870   -1.1441 C   0  0  0  0  0  0  0  0  0  0  0  0
   -0.6030    1.4013   -1.9185 H   0  0  0  0  0  0  0  0  0  0  0  0
   -2.2449    1.1433   -1.3084 H   0  0  0  0  0  0  0  0  0  0  0  0
   -1.5986    3.1816   -1.2922 C   0  0  0  0  0  0  0  0  0  0  0  0
   -1.4679    3.9808   -0.3840 O   0  0  0  0  0  0  0  0  0  0  0  0
   -1.9975    3.6300   -2.4627 N   0  0  0  0  0  0  0  0  0  0  0  0
   -2.1687    4.6197   -2.5037 H   0  0  0  0  0  0  0  0  0  0  0  0
   -2.1187    3.0170   -3.2432 H   0  0  0  0  0  0  0  0  0  0  0  0
    0.2922   -0.5075    1.7022 C   0  0  0  0  0  0  0  0  0  0  0  0
   -0.0431   -1.4522    2.4144 O   0  0  0  0  0  0  0  0  0  0  0  0
    1.3225    0.2919    2.0070 N   0  0  0  0  0  0  0  0  0  0  0  0
    1.5538    1.0308    1.3623 H   0  0  0  0  0  0  0  0  0  0  0  0
    2.1506    0.1357    3.2021 C   0  0  0  0  0  0  0  0  0  0  0  0
    2.5797   -0.8691    3.2228 H   0  0  0  0  0  0  0  0  0  0  0  0
    2.9572    0.8704    3.2050 H   0  0  0  0  0  0  0  0  0  0  0  0
    1.5375    0.2673    4.0952 H   0  0  0  0  0  0  0  0  0  0  0  0
  5  6  2  0  0  0  0
  5  7  1  0  0  0  0
  2  3  1  0  0  0  0
  2  4  1  0  0  0  0
  2  5  1  0  0  0  0
  1  2  1  0  0  0  0
 22 23  2  0  0  0  0
 22 24  1  0  0  0  0
 19 20  1  0  0  0  0
 19 21  1  0  0  0  0
 17 18  2  0  0  0  0
 17 19  1  0  0  0  0
 14 15  1  0  0  0  0
 14 16  1  0  0  0  0
 14 17  1  0  0  0  0
 11 12  1  0  0  0  0
 11 13  1  0  0  0  0
 11 14  1  0  0  0  0
  9 10  1  0  0  0  0
  9 11  1  0  0  0  0
  9 22  1  0  0  0  0
  7  8  1  0  0  0  0
  7  9  1  0  0  0  0
 26 27  1  0  0  0  0
 26 28  1  0  0  0  0
 26 29  1  0  0  0  0
 24 25  1  0  0  0  0
 24 26  1  0  0  0  0
M  END
$$$$
default_name
  -OEChem-01062215323D

 29 28  0     1  0  0  0  0  0999 V2000
   -3.3998   -3.6239    1.3678 H   0  0  0  0  0  0  0  0  0  0  0  0
   -3.3608   -2.6749    0.8348 C   0  0  0  0  0  0  0  0  0  0  0  0
   -4.0988   -1.9909    1.2498 H   0  0  0  0  0  0  0  0  0  0  0  0
   -3.5618   -2.8419   -0.2222 H   0  0  0  0  0  0  0  0  0  0  0  0
   -1.9818   -2.0809    0.9918 C   0  0  0  0  0  0  0  0  0  0  0  0
   -1.1288   -2.6669    1.6468 O   0  0  0  0  0  0  0  0  0  0  0  0
   -1.7648   -0.9089    0.3998 N   0  0  0  0  0  0  0  0  0  0  0  0
   -2.5238   -0.4719   -0.1032 H   0  0  0  0  0  0  0  0  0  0  0  0
   -0.4848   -0.1959    0.4138 C   0  0  1  0  0  0  0  0  0  0  0  0
    0.1132   -0.5367   -0.4331 H   0  0  0  0  0  0  0  0  0  0  0  0
   -0.7541    1.3114    0.2387 C   0  0  0  0  0  0  0  0  0  0  0  0
   -1.4749    1.6218    0.9980 H   0  0  0  0  0  0  0  0  0  0  0  0
    0.1738    1.8609    0.4043 H   0  0  0  0  0  0  0  0  0  0  0  0
   -1.3146    1.6870   -1.1441 C   0  0  0  0  0  0  0  0  0  0  0  0
   -0.6030    1.4013   -1.9185 H   0  0  0  0  0  0  0  0  0  0  0  0
   -2.2449    1.1433   -1.3084 H   0  0  0  0  0  0  0  0  0  0  0  0
   -1.5986    3.1816   -1.2922 C   0  0  0  0  0  0  0  0  0  0  0  0
   -1.4679    3.9808   -0.3840 O   0  0  0  0  0  0  0  0  0  0  0  0
   -1.9975    3.6300   -2.4627 N   0  0  0  0  0  0  0  0  0  0  0  0
   -2.1687    4.6197   -2.5037 H   0  0  0  0  0  0  0  0  0  0  0  0
   -2.1187    3.0170   -3.2432 H   0  0  0  0  0  0  0  0  0  0  0  0
    0.2922   -0.5075    1.7022 C   0  0  0  0  0  0  0  0  0  0  0  0
    0.1466   -1.5903    2.2666 O   0  0  0  0  0  0  0  0  0  0  0  0
    1.1084    0.4441    2.1729 N   0  0  0  0  0  0  0  0  0  0  0  0
    1.1955    1.2964    1.6426 H   0  0  0  0  0  0  0  0  0  0  0  0
    1.9046    0.3065    3.3917 C   0  0  0  0  0  0  0  0  0  0  0  0
    2.5436   -0.5767    3.3153 H   0  0  0  0  0  0  0  0  0  0  0  0
    2.5286    1.1891    3.5406 H   0  0  0  0  0  0  0  0  0  0  0  0
    1.2440    0.1808    4.2513 H   0  0  0  0  0  0  0  0  0  0  0  0
  5  6  2  0  0  0  0
  5  7  1  0  0  0  0
  2  3  1  0  0  0  0
  2  4  1  0  0  0  0
  2  5  1  0  0  0  0
  1  2  1  0  0  0  0
 22 23  2  0  0  0  0
 22 24  1  0  0  0  0
 19 20  1  0  0  0  0
 19 21  1  0  0  0  0
 17 18  2  0  0  0  0
 17 19  1  0  0  0  0
 14 15  1  0  0  0  0
 14 16  1  0  0  0  0
 14 17  1  0  0  0  0
 11 12  1  0  0  0  0
 11 13  1  0  0  0  0
 11 14  1  0  0  0  0
  9 10  1  0  0  0  0
  9 11  1  0  0  0  0
  9 22  1  0  0  0  0
  7  8  1  0  0  0  0
  7  9  1  0  0  0  0
 26 27  1  0  0  0  0
 26 28  1  0  0  0  0
 26 29  1  0  0  0  0
 24 25  1  0  0  0  0
 24 26  1  0  0  0  0
M  END
$$$$
default_name
  -OEChem-01062215323D

 29 28  0     1  0  0  0  0  0999 V2000
   -3.3998   -3.6239    1.3678 H   0  0  0  0  0  0  0  0  0  0  0  0
   -3.3608   -2.6749    0.8348 C   0  0  0  0  0  0  0  0  0  0  0  0
   -4.0988   -1.9909    1.2498 H   0  0  0  0  0  0  0  0  0  0  0  0
   -3.5618   -2.8419   -0.2222 H   0  0  0  0  0  0  0  0  0  0  0  0
   -1.9818   -2.0809    0.9918 C   0  0  0  0  0  0  0  0  0  0  0  0
   -1.1288   -2.6669    1.6468 O   0  0  0  0  0  0  0  0  0  0  0  0
   -1.7648   -0.9089    0.3998 N   0  0  0  0  0  0  0  0  0  0  0  0
   -2.5238   -0.4719   -0.1032 H   0  0  0  0  0  0  0  0  0  0  0  0
   -0.4848   -0.1959    0.4138 C   0  0  1  0  0  0  0  0  0  0  0  0
    0.1132   -0.5367   -0.4331 H   0  0  0  0  0  0  0  0  0  0  0  0
   -0.7541    1.3114    0.2387 C   0  0  0  0  0  0  0  0  0  0  0  0
   -1.4749    1.6218    0.9980 H   0  0  0  0  0  0  0  0  0  0  0  0
    0.1738    1.8609    0.4043 H   0  0  0  0  0  0  0  0  0  0  0  0
   -1.3146    1.6870   -1.1441 C   0  0  0  0  0  0  0  0  0  0  0  0
   -0.6030    1.4013   -1.9185 H   0  0  0  0  0  0  0  0  0  0  0  0
   -2.2449    1.1433   -1.3084 H   0  0  0  0  0  0  0  0  0  0  0  0
   -1.5986    3.1816   -1.2922 C   0  0  0  0  0  0  0  0  0  0  0  0
   -1.4679    3.9808   -0.3840 O   0  0  0  0  0  0  0  0  0  0  0  0
   -1.9975    3.6300   -2.4627 N   0  0  0  0  0  0  0  0  0  0  0  0
   -2.1687    4.6197   -2.5037 H   0  0  0  0  0  0  0  0  0  0  0  0
   -2.1187    3.0170   -3.2432 H   0  0  0  0  0  0  0  0  0  0  0  0
    0.2922   -0.5075    1.7022 C   0  0  0  0  0  0  0  0  0  0  0  0
    0.3676   -1.6631    2.1157 O   0  0  0  0  0  0  0  0  0  0  0  0
    0.8600    0.5230    2.3418 N   0  0  0  0  0  0  0  0  0  0  0  0
    0.7770    1.4385    1.9293 H   0  0  0  0  0  0  0  0  0  0  0  0
    1.6199    0.3933    3.5844 C   0  0  0  0  0  0  0  0  0  0  0  0
    2.4404   -0.3141    3.4411 H   0  0  0  0  0  0  0  0  0  0  0  0
    2.0278    1.3599    3.8839 H   0  0  0  0  0  0  0  0  0  0  0  0
    0.9711    0.0132    4.3753 H   0  0  0  0  0  0  0  0  0  0  0  0
  5  6  2  0  0  0  0
  5  7  1  0  0  0  0
  2  3  1  0  0  0  0
  2  4  1  0  0  0  0
  2  5  1  0  0  0  0
  1  2  1  0  0  0  0
 22 23  2  0  0  0  0
 22 24  1  0  0  0  0
 19 20  1  0  0  0  0
 19 21  1  0  0  0  0
 17 18  2  0  0  0  0
 17 19  1  0  0  0  0
 14 15  1  0  0  0  0
 14 16  1  0  0  0  0
 14 17  1  0  0  0  0
 11 12  1  0  0  0  0
 11 13  1  0  0  0  0
 11 14  1  0  0  0  0
  9 10  1  0  0  0  0
  9 11  1  0  0  0  0
  9 22  1  0  0  0  0
  7  8  1  0  0  0  0
  7  9  1  0  0  0  0
 26 27  1  0  0  0  0
 26 28  1  0  0  0  0
 26 29  1  0  0  0  0
 24 25  1  0  0  0  0
 24 26  1  0  0  0  0
M  END
$$$$
default_name
  -OEChem-01062215323D

 29 28  0     1  0  0  0  0  0999 V2000
   -3.3998   -3.6239    1.3678 H   0  0  0  0  0  0  0  0  0  0  0  0
   -3.3608   -2.6749    0.8348 C   0  0  0  0  0  0  0  0  0  0  0  0
   -4.0988   -1.9909    1.2498 H   0  0  0  0  0  0  0  0  0  0  0  0
   -3.5618   -2.8419   -0.2222 H   0  0  0  0  0  0  0  0  0  0  0  0
   -1.9818   -2.0809    0.9918 C   0  0  0  0  0  0  0  0  0  0  0  0
   -1.1288   -2.6669    1.6468 O   0  0  0  0  0  0  0  0  0  0  0  0
   -1.7648   -0.9089    0.3998 N   0  0  0  0  0  0  0  0  0  0  0  0
   -2.5238   -0.4719   -0.1032 H   0  0  0  0  0  0  0  0  0  0  0  0
   -0.4848   -0.1959    0.4138 C   0  0  1  0  0  0  0  0  0  0  0  0
    0.1132   -0.5367   -0.4331 H   0  0  0  0  0  0  0  0  0  0  0  0
   -0.7541    1.3114    0.2387 C   0  0  0  0  0  0  0  0  0  0  0  0
   -1.4749    1.6218    0.9980 H   0  0  0  0  0  0  0  0  0  0  0  0
    0.1738    1.8609    0.4043 H   0  0  0  0  0  0  0  0  0  0  0  0
   -1.3146    1.6870   -1.1441 C   0  0  0  0  0  0  0  0  0  0  0  0
   -0.6030    1.4013   -1.9185 H   0  0  0  0  0  0  0  0  0  0  0  0
   -2.2449    1.1433   -1.3084 H   0  0  0  0  0  0  0  0  0  0  0  0
   -1.5986    3.1816   -1.2922 C   0  0  0  0  0  0  0  0  0  0  0  0
   -1.4679    3.9808   -0.3840 O   0  0  0  0  0  0  0  0  0  0  0  0
   -1.9975    3.6300   -2.4627 N   0  0  0  0  0  0  0  0  0  0  0  0
   -2.1687    4.6197   -2.5037 H   0  0  0  0  0  0  0  0  0  0  0  0
   -2.1187    3.0170   -3.2432 H   0  0  0  0  0  0  0  0  0  0  0  0
    0.2922   -0.5075    1.7022 C   0  0  0  0  0  0  0  0  0  0  0  0
    0.6048   -1.6658    1.9721 O   0  0  0  0  0  0  0  0  0  0  0  0
    0.5940    0.5232    2.5023 N   0  0  0  0  0  0  0  0  0  0  0  0
    0.3269    1.4474    2.2029 H   0  0  0  0  0  0  0  0  0  0  0  0
    1.3160    0.3902    3.7669 C   0  0  0  0  0  0  0  0  0  0  0  0
    2.2771   -0.0994    3.5915 H   0  0  0  0  0  0  0  0  0  0  0  0
    1.4890    1.3714    4.2116 H   0  0  0  0  0  0  0  0  0  0  0  0
    0.7374   -0.2242    4.4589 H   0  0  0  0  0  0  0  0  0  0  0  0
  5  6  2  0  0  0  0
  5  7  1  0  0  0  0
  2  3  1  0  0  0  0
  2  4  1  0  0  0  0
  2  5  1  0  0  0  0
  1  2  1  0  0  0  0
 22 23  2  0  0  0  0
 22 24  1  0  0  0  0
 19 20  1  0  0  0  0
 19 21  1  0  0  0  0
 17 18  2  0  0  0  0
 17 19  1  0  0  0  0
 14 15  1  0  0  0  0
 14 16  1  0  0  0  0
 14 17  1  0  0  0  0
 11 12  1  0  0  0  0
 11 13  1  0  0  0  0
 11 14  1  0  0  0  0
  9 10  1  0  0  0  0
  9 11  1  0  0  0  0
  9 22  1  0  0  0  0
  7  8  1  0  0  0  0
  7  9  1  0  0  0  0
 26 27  1  0  0  0  0
 26 28  1  0  0  0  0
 26 29  1  0  0  0  0
 24 25  1  0  0  0  0
 24 26  1  0  0  0  0
M  END
$$$$
default_name
  -OEChem-01062215323D

 29 28  0     1  0  0  0  0  0999 V2000
   -3.3998   -3.6239    1.3678 H   0  0  0  0  0  0  0  0  0  0  0  0
   -3.3608   -2.6749    0.8348 C   0  0  0  0  0  0  0  0  0  0  0  0
   -4.0988   -1.9909    1.2498 H   0  0  0  0  0  0  0  0  0  0  0  0
   -3.5618   -2.8419   -0.2222 H   0  0  0  0  0  0  0  0  0  0  0  0
   -1.9818   -2.0809    0.9918 C   0  0  0  0  0  0  0  0  0  0  0  0
   -1.1288   -2.6669    1.6468 O   0  0  0  0  0  0  0  0  0  0  0  0
   -1.7648   -0.9089    0.3998 N   0  0  0  0  0  0  0  0  0  0  0  0
   -2.5238   -0.4719   -0.1032 H   0  0  0  0  0  0  0  0  0  0  0  0
   -0.4848   -0.1959    0.4138 C   0  0  1  0  0  0  0  0  0  0  0  0
    0.1132   -0.5367   -0.4331 H   0  0  0  0  0  0  0  0  0  0  0  0
   -0.7541    1.3114    0.2387 C   0  0  0  0  0  0  0  0  0  0  0  0
   -1.4749    1.6218    0.9980 H   0  0  0  0  0  0  0  0  0  0  0  0
    0.1738    1.8609    0.4043 H   0  0  0  0  0  0  0  0  0  0  0  0
   -1.3146    1.6870   -1.1441 C   0  0  0  0  0  0  0  0  0  0  0  0
   -0.6030    1.4013   -1.9185 H   0  0  0  0  0  0  0  0  0  0  0  0
   -2.2449    1.1433   -1.3084 H   0  0  0  0  0  0  0  0  0  0  0  0
   -1.5986    3.1816   -1.2922 C   0  0  0  0  0  0  0  0  0  0  0  0
   -1.4679    3.9808   -0.3840 O   0  0  0  0  0  0  0  0  0  0  0  0
   -1.9975    3.6300   -2.4627 N   0  0  0  0  0  0  0  0  0  0  0  0
   -2.1687    4.6197   -2.5037 H   0  0  0  0  0  0  0  0  0  0  0  0
   -2.1187    3.0170   -3.2432 H   0  0  0  0  0  0  0  0  0  0  0  0
    0.2922   -0.5075    1.7022 C   0  0  0  0  0  0  0  0  0  0  0  0
    0.8421   -1.5981    1.8454 O   0  0  0  0  0  0  0  0  0  0  0  0
    0.3286    0.4446    2.6433 N   0  0  0  0  0  0  0  0  0  0  0  0
   -0.1241    1.3225    2.4447 H   0  0  0  0  0  0  0  0  0  0  0  0
    1.0135    0.2973    3.9269 C   0  0  0  0  0  0  0  0  0  0  0  0
    2.0649    0.0530    3.7563 H   0  0  0  0  0  0  0  0  0  0  0  0
    0.9488    1.2226    4.5013 H   0  0  0  0  0  0  0  0  0  0  0  0
    0.5587   -0.5151    4.4962 H   0  0  0  0  0  0  0  0  0  0  0  0
  5  6  2  0  0  0  0
  5  7  1  0  0  0  0
  2  3  1  0  0  0  0
  2  4  1  0  0  0  0
  2  5  1  0  0  0  0
  1  2  1  0  0  0  0
 22 23  2  0  0  0  0
 22 24  1  0  0  0  0
 19 20  1  0  0  0  0
 19 21  1  0  0  0  0
 17 18  2  0  0  0  0
 17 19  1  0  0  0  0
 14 15  1  0  0  0  0
 14 16  1  0  0  0  0
 14 17  1  0  0  0  0
 11 12  1  0  0  0  0
 11 13  1  0  0  0  0
 11 14  1  0  0  0  0
  9 10  1  0  0  0  0
  9 11  1  0  0  0  0
  9 22  1  0  0  0  0
  7  8  1  0  0  0  0
  7  9  1  0  0  0  0
 26 27  1  0  0  0  0
 26 28  1  0  0  0  0
 26 29  1  0  0  0  0
 24 25  1  0  0  0  0
 24 26  1  0  0  0  0
M  END
$$$$
default_name
  -OEChem-01062215323D

 29 28  0     1  0  0  0  0  0999 V2000
   -3.3998   -3.6239    1.3678 H   0  0  0  0  0  0  0  0  0  0  0  0
   -3.3608   -2.6749    0.8348 C   0  0  0  0  0  0  0  0  0  0  0  0
   -4.0988   -1.9909    1.2498 H   0  0  0  0  0  0  0  0  0  0  0  0
   -3.5618   -2.8419   -0.2222 H   0  0  0  0  0  0  0  0  0  0  0  0
   -1.9818   -2.0809    0.9918 C   0  0  0  0  0  0  0  0  0  0  0  0
   -1.1288   -2.6669    1.6468 O   0  0  0  0  0  0  0  0  0  0  0  0
   -1.7648   -0.9089    0.3998 N   0  0  0  0  0  0  0  0  0  0  0  0
   -2.5238   -0.4719   -0.1032 H   0  0  0  0  0  0  0  0  0  0  0  0
   -0.4848   -0.1959    0.4138 C   0  0  1  0  0  0  0  0  0  0  0  0
    0.1132   -0.5367   -0.4331 H   0  0  0  0  0  0  0  0  0  0  0  0
   -0.7541    1.3114    0.2387 C   0  0  0  0  0  0  0  0  0  0  0  0
   -1.4749    1.6218    0.9980 H   0  0  0  0  0  0  0  0  0  0  0  0
    0.1738    1.8609    0.4043 H   0  0  0  0  0  0  0  0  0  0  0  0
   -1.3146    1.6870   -1.1441 C   0  0  0  0  0  0  0  0  0  0  0  0
   -0.6030    1.4013   -1.9185 H   0  0  0  0  0  0  0  0  0  0  0  0
   -2.2449    1.1433   -1.3084 H   0  0  0  0  0  0  0  0  0  0  0  0
   -1.5986    3.1816   -1.2922 C   0  0  0  0  0  0  0  0  0  0  0  0
   -1.4679    3.9808   -0.3840 O   0  0  0  0  0  0  0  0  0  0  0  0
   -1.9975    3.6300   -2.4627 N   0  0  0  0  0  0  0  0  0  0  0  0
   -2.1687    4.6197   -2.5037 H   0  0  0  0  0  0  0  0  0  0  0  0
   -2.1187    3.0170   -3.2432 H   0  0  0  0  0  0  0  0  0  0  0  0
    0.2922   -0.5075    1.7022 C   0  0  0  0  0  0  0  0  0  0  0  0
    1.0632   -1.4646    1.7443 O   0  0  0  0  0  0  0  0  0  0  0  0
    0.0819    0.2926    2.7553 N   0  0  0  0  0  0  0  0  0  0  0  0
   -0.5454    1.0723    2.6382 H   0  0  0  0  0  0  0  0  0  0  0  0
    0.7331    0.1209    4.0533 C   0  0  0  0  0  0  0  0  0  0  0  0
    1.8182    0.1324    3.9243 H   0  0  0  0  0  0  0  0  0  0  0  0
    0.4441    0.9237    4.7334 H   0  0  0  0  0  0  0  0  0  0  0  0
    0.4474   -0.8398    4.4848 H   0  0  0  0  0  0  0  0  0  0  0  0
  5  6  2  0  0  0  0
  5  7  1  0  0  0  0
  2  3  1  0  0  0  0
  2  4  1  0  0  0  0
  2  5  1  0  0  0  0
  1  2  1  0  0  0  0
 22 23  2  0  0  0  0
 22 24  1  0  0  0  0
 19 20  1  0  0  0  0
 19 21  1  0  0  0  0
 17 18  2  0  0  0  0
 17 19  1  0  0  0  0
 14 15  1  0  0  0  0
 14 16  1  0  0  0  0
 14 17  1  0  0  0  0
 11 12  1  0  0  0  0
 11 13  1  0  0  0  0
 11 14  1  0  0  0  0
  9 10  1  0  0  0  0
  9 11  1  0  0  0  0
  9 22  1  0  0  0  0
  7  8  1  0  0  0  0
  7  9  1  0  0  0  0
 26 27  1  0  0  0  0
 26 28  1  0  0  0  0
 26 29  1  0  0  0  0
 24 25  1  0  0  0  0
 24 26  1  0  0  0  0
M  END
$$$$
default_name
  -OEChem-01062215323D

 29 28  0     1  0  0  0  0  0999 V2000
   -3.3998   -3.6239    1.3678 H   0  0  0  0  0  0  0  0  0  0  0  0
   -3.3608   -2.6749    0.8348 C   0  0  0  0  0  0  0  0  0  0  0  0
   -4.0988   -1.9909    1.2498 H   0  0  0  0  0  0  0  0  0  0  0  0
   -3.5618   -2.8419   -0.2222 H   0  0  0  0  0  0  0  0  0  0  0  0
   -1.9818   -2.0809    0.9918 C   0  0  0  0  0  0  0  0  0  0  0  0
   -1.1288   -2.6669    1.6468 O   0  0  0  0  0  0  0  0  0  0  0  0
   -1.7648   -0.9089    0.3998 N   0  0  0  0  0  0  0  0  0  0  0  0
   -2.5238   -0.4719   -0.1032 H   0  0  0  0  0  0  0  0  0  0  0  0
   -0.4848   -0.1959    0.4138 C   0  0  1  0  0  0  0  0  0  0  0  0
    0.1132   -0.5367   -0.4331 H   0  0  0  0  0  0  0  0  0  0  0  0
   -0.7541    1.3114    0.2387 C   0  0  0  0  0  0  0  0  0  0  0  0
   -1.4749    1.6218    0.9980 H   0  0  0  0  0  0  0  0  0  0  0  0
    0.1738    1.8609    0.4043 H   0  0  0  0  0  0  0  0  0  0  0  0
   -1.3146    1.6870   -1.1441 C   0  0  0  0  0  0  0  0  0  0  0  0
   -0.6030    1.4013   -1.9185 H   0  0  0  0  0  0  0  0  0  0  0  0
   -2.2449    1.1433   -1.3084 H   0  0  0  0  0  0  0  0  0  0  0  0
   -1.5986    3.1816   -1.2922 C   0  0  0  0  0  0  0  0  0  0  0  0
   -1.4679    3.9808   -0.3840 O   0  0  0  0  0  0  0  0  0  0  0  0
   -1.9975    3.6300   -2.4627 N   0  0  0  0  0  0  0  0  0  0  0  0
   -2.1687    4.6197   -2.5037 H   0  0  0  0  0  0  0  0  0  0  0  0
   -2.1187    3.0170   -3.2432 H   0  0  0  0  0  0  0  0  0  0  0  0
    0.2922   -0.5075    1.7022 C   0  0  0  0  0  0  0  0  0  0  0  0
    1.2531   -1.2744    1.6758 O   0  0  0  0  0  0  0  0  0  0  0  0
   -0.1293    0.0777    2.8307 N   0  0  0  0  0  0  0  0  0  0  0  0
   -0.9081    0.7139    2.7703 H   0  0  0  0  0  0  0  0  0  0  0  0
    0.4939   -0.1268    4.1376 C   0  0  0  0  0  0  0  0  0  0  0  0
    1.5538    0.1337    4.0840 H   0  0  0  0  0  0  0  0  0  0  0  0
    0.0094    0.4951    4.8919 H   0  0  0  0  0  0  0  0  0  0  0  0
    0.4109   -1.1762    4.4255 H   0  0  0  0  0  0  0  0  0  0  0  0
  5  6  2  0  0  0  0
  5  7  1  0  0  0  0
  2  3  1  0  0  0  0
  2  4  1  0  0  0  0
  2  5  1  0  0  0  0
  1  2  1  0  0  0  0
 22 23  2  0  0  0  0
 22 24  1  0  0  0  0
 19 20  1  0  0  0  0
 19 21  1  0  0  0  0
 17 18  2  0  0  0  0
 17 19  1  0  0  0  0
 14 15  1  0  0  0  0
 14 16  1  0  0  0  0
 14 17  1  0  0  0  0
 11 12  1  0  0  0  0
 11 13  1  0  0  0  0
 11 14  1  0  0  0  0
  9 10  1  0  0  0  0
  9 11  1  0  0  0  0
  9 22  1  0  0  0  0
  7  8  1  0  0  0  0
  7  9  1  0  0  0  0
 26 27  1  0  0  0  0
 26 28  1  0  0  0  0
 26 29  1  0  0  0  0
 24 25  1  0  0  0  0
 24 26  1  0  0  0  0
M  END
$$$$
default_name
  -OEChem-01062215323D

 29 28  0     1  0  0  0  0  0999 V2000
   -3.3998   -3.6239    1.3678 H   0  0  0  0  0  0  0  0  0  0  0  0
   -3.3608   -2.6749    0.8348 C   0  0  0  0  0  0  0  0  0  0  0  0
   -4.0988   -1.9909    1.2498 H   0  0  0  0  0  0  0  0  0  0  0  0
   -3.5618   -2.8419   -0.2222 H   0  0  0  0  0  0  0  0  0  0  0  0
   -1.9818   -2.0809    0.9918 C   0  0  0  0  0  0  0  0  0  0  0  0
   -1.1288   -2.6669    1.6468 O   0  0  0  0  0  0  0  0  0  0  0  0
   -1.7648   -0.9089    0.3998 N   0  0  0  0  0  0  0  0  0  0  0  0
   -2.5238   -0.4719   -0.1032 H   0  0  0  0  0  0  0  0  0  0  0  0
   -0.4848   -0.1959    0.4138 C   0  0  1  0  0  0  0  0  0  0  0  0
    0.1132   -0.5367   -0.4331 H   0  0  0  0  0  0  0  0  0  0  0  0
   -0.7541    1.3114    0.2387 C   0  0  0  0  0  0  0  0  0  0  0  0
   -1.4749    1.6218    0.9980 H   0  0  0  0  0  0  0  0  0  0  0  0
    0.1738    1.8609    0.4043 H   0  0  0  0  0  0  0  0  0  0  0  0
   -1.3146    1.6870   -1.1441 C   0  0  0  0  0  0  0  0  0  0  0  0
   -0.6030    1.4013   -1.9185 H   0  0  0  0  0  0  0  0  0  0  0  0
   -2.2449    1.1433   -1.3084 H   0  0  0  0  0  0  0  0  0  0  0  0
   -1.5986    3.1816   -1.2922 C   0  0  0  0  0  0  0  0  0  0  0  0
   -1.4679    3.9808   -0.3840 O   0  0  0  0  0  0  0  0  0  0  0  0
   -1.9975    3.6300   -2.4627 N   0  0  0  0  0  0  0  0  0  0  0  0
   -2.1687    4.6197   -2.5037 H   0  0  0  0  0  0  0  0  0  0  0  0
   -2.1187    3.0170   -3.2432 H   0  0  0  0  0  0  0  0  0  0  0  0
    0.2922   -0.5075    1.7022 C   0  0  0  0  0  0  0  0  0  0  0  0
    1.3988   -1.0406    1.6445 O   0  0  0  0  0  0  0  0  0  0  0  0
   -0.2906   -0.1857    2.8642 N   0  0  0  0  0  0  0  0  0  0  0  0
   -1.1877    0.2717    2.8319 H   0  0  0  0  0  0  0  0  0  0  0  0
    0.3122   -0.4290    4.1741 C   0  0  0  0  0  0  0  0  0  0  0  0
    1.2898    0.0566    4.2246 H   0  0  0  0  0  0  0  0  0  0  0  0
   -0.3259   -0.0340    4.9661 H   0  0  0  0  0  0  0  0  0  0  0  0
    0.4517   -1.5012    4.3223 H   0  0  0  0  0  0  0  0  0  0  0  0
  5  6  2  0  0  0  0
  5  7  1  0  0  0  0
  2  3  1  0  0  0  0
  2  4  1  0  0  0  0
  2  5  1  0  0  0  0
  1  2  1  0  0  0  0
 22 23  2  0  0  0  0
 22 24  1  0  0  0  0
 19 20  1  0  0  0  0
 19 21  1  0  0  0  0
 17 18  2  0  0  0  0
 17 19  1  0  0  0  0
 14 15  1  0  0  0  0
 14 16  1  0  0  0  0
 14 17  1  0  0  0  0
 11 12  1  0  0  0  0
 11 13  1  0  0  0  0
 11 14  1  0  0  0  0
  9 10  1  0  0  0  0
  9 11  1  0  0  0  0
  9 22  1  0  0  0  0
  7  8  1  0  0  0  0
  7  9  1  0  0  0  0
 26 27  1  0  0  0  0
 26 28  1  0  0  0  0
 26 29  1  0  0  0  0
 24 25  1  0  0  0  0
 24 26  1  0  0  0  0
M  END
$$$$
default_name
  -OEChem-01062215323D

 29 28  0     1  0  0  0  0  0999 V2000
   -3.3998   -3.6239    1.3678 H   0  0  0  0  0  0  0  0  0  0  0  0
   -3.3608   -2.6749    0.8348 C   0  0  0  0  0  0  0  0  0  0  0  0
   -4.0988   -1.9909    1.2498 H   0  0  0  0  0  0  0  0  0  0  0  0
   -3.5618   -2.8419   -0.2222 H   0  0  0  0  0  0  0  0  0  0  0  0
   -1.9818   -2.0809    0.9918 C   0  0  0  0  0  0  0  0  0  0  0  0
   -1.1288   -2.6669    1.6468 O   0  0  0  0  0  0  0  0  0  0  0  0
   -1.7648   -0.9089    0.3998 N   0  0  0  0  0  0  0  0  0  0  0  0
   -2.5238   -0.4719   -0.1032 H   0  0  0  0  0  0  0  0  0  0  0  0
   -0.4848   -0.1959    0.4138 C   0  0  1  0  0  0  0  0  0  0  0  0
    0.1132   -0.5367   -0.4331 H   0  0  0  0  0  0  0  0  0  0  0  0
   -0.7541    1.3114    0.2387 C   0  0  0  0  0  0  0  0  0  0  0  0
   -1.4749    1.6218    0.9980 H   0  0  0  0  0  0  0  0  0  0  0  0
    0.1738    1.8609    0.4043 H   0  0  0  0  0  0  0  0  0  0  0  0
   -1.3146    1.6870   -1.1441 C   0  0  0  0  0  0  0  0  0  0  0  0
   -0.6030    1.4013   -1.9185 H   0  0  0  0  0  0  0  0  0  0  0  0
   -2.2449    1.1433   -1.3084 H   0  0  0  0  0  0  0  0  0  0  0  0
   -1.5986    3.1816   -1.2922 C   0  0  0  0  0  0  0  0  0  0  0  0
   -1.4679    3.9808   -0.3840 O   0  0  0  0  0  0  0  0  0  0  0  0
   -1.9975    3.6300   -2.4627 N   0  0  0  0  0  0  0  0  0  0  0  0
   -2.1687    4.6197   -2.5037 H   0  0  0  0  0  0  0  0  0  0  0  0
   -2.1187    3.0170   -3.2432 H   0  0  0  0  0  0  0  0  0  0  0  0
    0.2922   -0.5075    1.7022 C   0  0  0  0  0  0  0  0  0  0  0  0
    1.4905   -0.7790    1.6524 O   0  0  0  0  0  0  0  0  0  0  0  0
   -0.3910   -0.4795    2.8537 N   0  0  0  0  0  0  0  0  0  0  0  0
   -1.3650   -0.2241    2.8189 H   0  0  0  0  0  0  0  0  0  0  0  0
    0.2003   -0.7651    4.1603 C   0  0  0  0  0  0  0  0  0  0  0  0
    1.0442   -0.0935    4.3364 H   0  0  0  0  0  0  0  0  0  0  0  0
   -0.5388   -0.6275    4.9510 H   0  0  0  0  0  0  0  0  0  0  0  0
    0.5671   -1.7927    4.1822 H   0  0  0  0  0  0  0  0  0  0  0  0
  5  6  2  0  0  0  0
  5  7  1  0  0  0  0
  2  3  1  0  0  0  0
  2  4  1  0  0  0  0
  2  5  1  0  0  0  0
  1  2  1  0  0  0  0
 22 23  2  0  0  0  0
 22 24  1  0  0  0  0
 19 20  1  0  0  0  0
 19 21  1  0  0  0  0
 17 18  2  0  0  0  0
 17 19  1  0  0  0  0
 14 15  1  0  0  0  0
 14 16  1  0  0  0  0
 14 17  1  0  0  0  0
 11 12  1  0  0  0  0
 11 13  1  0  0  0  0
 11 14  1  0  0  0  0
  9 10  1  0  0  0  0
  9 11  1  0  0  0  0
  9 22  1  0  0  0  0
  7  8  1  0  0  0  0
  7  9  1  0  0  0  0
 26 27  1  0  0  0  0
 26 28  1  0  0  0  0
 26 29  1  0  0  0  0
 24 25  1  0  0  0  0
 24 26  1  0  0  0  0
M  END
$$$$
default_name
  -OEChem-01062215323D

 29 28  0     1  0  0  0  0  0999 V2000
   -3.3998   -3.6239    1.3678 H   0  0  0  0  0  0  0  0  0  0  0  0
   -3.3608   -2.6749    0.8348 C   0  0  0  0  0  0  0  0  0  0  0  0
   -4.0988   -1.9909    1.2498 H   0  0  0  0  0  0  0  0  0  0  0  0
   -3.5618   -2.8419   -0.2222 H   0  0  0  0  0  0  0  0  0  0  0  0
   -1.9818   -2.0809    0.9918 C   0  0  0  0  0  0  0  0  0  0  0  0
   -1.1288   -2.6669    1.6468 O   0  0  0  0  0  0  0  0  0  0  0  0
   -1.7648   -0.9089    0.3998 N   0  0  0  0  0  0  0  0  0  0  0  0
   -2.5238   -0.4719   -0.1032 H   0  0  0  0  0  0  0  0  0  0  0  0
   -0.4848   -0.1959    0.4138 C   0  0  1  0  0  0  0  0  0  0  0  0
    0.1132   -0.5367   -0.4331 H   0  0  0  0  0  0  0  0  0  0  0  0
   -0.7541    1.3114    0.2387 C   0  0  0  0  0  0  0  0  0  0  0  0
   -1.4749    1.6218    0.9980 H   0  0  0  0  0  0  0  0  0  0  0  0
    0.1738    1.8609    0.4043 H   0  0  0  0  0  0  0  0  0  0  0  0
   -1.3146    1.6870   -1.1441 C   0  0  0  0  0  0  0  0  0  0  0  0
   -0.6030    1.4013   -1.9185 H   0  0  0  0  0  0  0  0  0  0  0  0
   -2.2449    1.1433   -1.3084 H   0  0  0  0  0  0  0  0  0  0  0  0
   -1.5986    3.1816   -1.2922 C   0  0  0  0  0  0  0  0  0  0  0  0
   -1.4679    3.9808   -0.3840 O   0  0  0  0  0  0  0  0  0  0  0  0
   -1.9975    3.6300   -2.4627 N   0  0  0  0  0  0  0  0  0  0  0  0
   -2.1687    4.6197   -2.5037 H   0  0  0  0  0  0  0  0  0  0  0  0
   -2.1187    3.0170   -3.2432 H   0  0  0  0  0  0  0  0  0  0  0  0
    0.2922   -0.5075    1.7022 C   0  0  0  0  0  0  0  0  0  0  0  0
    1.5219   -0.5074    1.6992 O   0  0  0  0  0  0  0  0  0  0  0  0
   -0.4236   -0.7837    2.7999 N   0  0  0  0  0  0  0  0  0  0  0  0
   -1.4279   -0.7399    2.7321 H   0  0  0  0  0  0  0  0  0  0  0  0
    0.1659   -1.1123    4.0971 C   0  0  0  0  0  0  0  0  0  0  0  0
    0.8336   -0.3065    4.4119 H   0  0  0  0  0  0  0  0  0  0  0  0
   -0.6149   -1.2451    4.8475 H   0  0  0  0  0  0  0  0  0  0  0  0
    0.7492   -2.0310    4.0147 H   0  0  0  0  0  0  0  0  0  0  0  0
  5  6  2  0  0  0  0
  5  7  1  0  0  0  0
  2  3  1  0  0  0  0
  2  4  1  0  0  0  0
  2  5  1  0  0  0  0
  1  2  1  0  0  0  0
 22 23  2  0  0  0  0
 22 24  1  0  0  0  0
 19 20  1  0  0  0  0
 19 21  1  0  0  0  0
 17 18  2  0  0  0  0
 17 19  1  0  0  0  0
 14 15  1  0  0  0  0
 14 16  1  0  0  0  0
 14 17  1  0  0  0  0
 11 12  1  0  0  0  0
 11 13  1  0  0  0  0
 11 14  1  0  0  0  0
  9 10  1  0  0  0  0
  9 11  1  0  0  0  0
  9 22  1  0  0  0  0
  7  8  1  0  0  0  0
  7  9  1  0  0  0  0
 26 27  1  0  0  0  0
 26 28  1  0  0  0  0
 26 29  1  0  0  0  0
 24 25  1  0  0  0  0
 24 26  1  0  0  0  0
M  END
$$$$
default_name
  -OEChem-01062215323D

 29 28  0     1  0  0  0  0  0999 V2000
   -3.3998   -3.6239    1.3678 H   0  0  0  0  0  0  0  0  0  0  0  0
   -3.3608   -2.6749    0.8348 C   0  0  0  0  0  0  0  0  0  0  0  0
   -4.0988   -1.9909    1.2498 H   0  0  0  0  0  0  0  0  0  0  0  0
   -3.5618   -2.8419   -0.2222 H   0  0  0  0  0  0  0  0  0  0  0  0
   -1.9818   -2.0809    0.9918 C   0  0  0  0  0  0  0  0  0  0  0  0
   -1.1288   -2.6669    1.6468 O   0  0  0  0  0  0  0  0  0  0  0  0
   -1.7648   -0.9089    0.3998 N   0  0  0  0  0  0  0  0  0  0  0  0
   -2.5238   -0.4719   -0.1032 H   0  0  0  0  0  0  0  0  0  0  0  0
   -0.4848   -0.1959    0.4138 C   0  0  1  0  0  0  0  0  0  0  0  0
    0.1132   -0.5367   -0.4331 H   0  0  0  0  0  0  0  0  0  0  0  0
   -0.7541    1.3114    0.2387 C   0  0  0  0  0  0  0  0  0  0  0  0
   -1.4749    1.6218    0.9980 H   0  0  0  0  0  0  0  0  0  0  0  0
    0.1738    1.8609    0.4043 H   0  0  0  0  0  0  0  0  0  0  0  0
   -1.3146    1.6870   -1.1441 C   0  0  0  0  0  0  0  0  0  0  0  0
   -0.6030    1.4013   -1.9185 H   0  0  0  0  0  0  0  0  0  0  0  0
   -2.2449    1.1433   -1.3084 H   0  0  0  0  0  0  0  0  0  0  0  0
   -1.5986    3.1816   -1.2922 C   0  0  0  0  0  0  0  0  0  0  0  0
   -1.4679    3.9808   -0.3840 O   0  0  0  0  0  0  0  0  0  0  0  0
   -1.9975    3.6300   -2.4627 N   0  0  0  0  0  0  0  0  0  0  0  0
   -2.1687    4.6197   -2.5037 H   0  0  0  0  0  0  0  0  0  0  0  0
   -2.1187    3.0170   -3.2432 H   0  0  0  0  0  0  0  0  0  0  0  0
    0.2922   -0.5075    1.7022 C   0  0  0  0  0  0  0  0  0  0  0  0
    1.4908   -0.2444    1.7816 O   0  0  0  0  0  0  0  0  0  0  0  0
   -0.3864   -1.0775    2.7063 N   0  0  0  0  0  0  0  0  0  0  0  0
   -1.3723   -1.2404    2.5775 H   0  0  0  0  0  0  0  0  0  0  0  0
    0.2114   -1.4468    3.9887 C   0  0  0  0  0  0  0  0  0  0  0  0
    0.6724   -0.5678    4.4459 H   0  0  0  0  0  0  0  0  0  0  0  0
   -0.5489   -1.8446    4.6627 H   0  0  0  0  0  0  0  0  0  0  0  0
    0.9856   -2.1997    3.8314 H   0  0  0  0  0  0  0  0  0  0  0  0
  5  6  2  0  0  0  0
  5  7  1  0  0  0  0
  2  3  1  0  0  0  0
  2  4  1  0  0  0  0
  2  5  1  0  0  0  0
  1  2  1  0  0  0  0
 22 23  2  0  0  0  0
 22 24  1  0  0  0  0
 19 20  1  0  0  0  0
 19 21  1  0  0  0  0
 17 18  2  0  0  0  0
 17 19  1  0  0  0  0
 14 15  1  0  0  0  0
 14 16  1  0  0  0  0
 14 17  1  0  0  0  0
 11 12  1  0  0  0  0
 11 13  1  0  0  0  0
 11 14  1  0  0  0  0
  9 10  1  0  0  0  0
  9 11  1  0  0  0  0
  9 22  1  0  0  0  0
  7  8  1  0  0  0  0
  7  9  1  0  0  0  0
 26 27  1  0  0  0  0
 26 28  1  0  0  0  0
 26 29  1  0  0  0  0
 24 25  1  0  0  0  0
 24 26  1  0  0  0  0
M  END
$$$$
default_name
  -OEChem-01062215323D

 29 28  0     1  0  0  0  0  0999 V2000
   -3.3998   -3.6239    1.3678 H   0  0  0  0  0  0  0  0  0  0  0  0
   -3.3608   -2.6749    0.8348 C   0  0  0  0  0  0  0  0  0  0  0  0
   -4.0988   -1.9909    1.2498 H   0  0  0  0  0  0  0  0  0  0  0  0
   -3.5618   -2.8419   -0.2222 H   0  0  0  0  0  0  0  0  0  0  0  0
   -1.9818   -2.0809    0.9918 C   0  0  0  0  0  0  0  0  0  0  0  0
   -1.1288   -2.6669    1.6468 O   0  0  0  0  0  0  0  0  0  0  0  0
   -1.7648   -0.9089    0.3998 N   0  0  0  0  0  0  0  0  0  0  0  0
   -2.5238   -0.4719   -0.1032 H   0  0  0  0  0  0  0  0  0  0  0  0
   -0.4848   -0.1959    0.4138 C   0  0  1  0  0  0  0  0  0  0  0  0
    0.1132   -0.5367   -0.4331 H   0  0  0  0  0  0  0  0  0  0  0  0
   -0.7541    1.3114    0.2387 C   0  0  0  0  0  0  0  0  0  0  0  0
   -1.4749    1.6218    0.9980 H   0  0  0  0  0  0  0  0  0  0  0  0
    0.1738    1.8609    0.4043 H   0  0  0  0  0  0  0  0  0  0  0  0
   -1.3146    1.6870   -1.1441 C   0  0  0  0  0  0  0  0  0  0  0  0
   -0.6030    1.4013   -1.9185 H   0  0  0  0  0  0  0  0  0  0  0  0
   -2.2449    1.1433   -1.3084 H   0  0  0  0  0  0  0  0  0  0  0  0
   -1.5986    3.1816   -1.2922 C   0  0  0  0  0  0  0  0  0  0  0  0
   -1.4679    3.9808   -0.3840 O   0  0  0  0  0  0  0  0  0  0  0  0
   -1.9975    3.6300   -2.4627 N   0  0  0  0  0  0  0  0  0  0  0  0
   -2.1687    4.6197   -2.5037 H   0  0  0  0  0  0  0  0  0  0  0  0
   -2.1187    3.0170   -3.2432 H   0  0  0  0  0  0  0  0  0  0  0  0
    0.2922   -0.5075    1.7022 C   0  0  0  0  0  0  0  0  0  0  0  0
    1.3993   -0.0079    1.8939 O   0  0  0  0  0  0  0  0  0  0  0  0
   -0.2816   -1.3410    2.5794 N   0  0  0  0  0  0  0  0  0  0  0  0
   -1.2017   -1.6915    2.3656 H   0  0  0  0  0  0  0  0  0  0  0  0
    0.3336   -1.7459    3.8427 C   0  0  0  0  0  0  0  0  0  0  0  0
    0.5717   -0.8596    4.4360 H   0  0  0  0  0  0  0  0  0  0  0  0
   -0.3453   -2.3851    4.4092 H   0  0  0  0  0  0  0  0  0  0  0  0
    1.2602   -2.2873    3.6446 H   0  0  0  0  0  0  0  0  0  0  0  0
  5  6  2  0  0  0  0
  5  7  1  0  0  0  0
  2  3  1  0  0  0  0
  2  4  1  0  0  0  0
  2  5  1  0  0  0  0
  1  2  1  0  0  0  0
 22 23  2  0  0  0  0
 22 24  1  0  0  0  0
 19 20  1  0  0  0  0
 19 21  1  0  0  0  0
 17 18  2  0  0  0  0
 17 19  1  0  0  0  0
 14 15  1  0  0  0  0
 14 16  1  0  0  0  0
 14 17  1  0  0  0  0
 11 12  1  0  0  0  0
 11 13  1  0  0  0  0
 11 14  1  0  0  0  0
  9 10  1  0  0  0  0
  9 11  1  0  0  0  0
  9 22  1  0  0  0  0
  7  8  1  0  0  0  0
  7  9  1  0  0  0  0
 26 27  1  0  0  0  0
 26 28  1  0  0  0  0
 26 29  1  0  0  0  0
 24 25  1  0  0  0  0
 24 26  1  0  0  0  0
M  END
$$$$
default_name
  -OEChem-01062215323D

 29 28  0     1  0  0  0  0  0999 V2000
   -3.3998   -3.6239    1.3678 H   0  0  0  0  0  0  0  0  0  0  0  0
   -3.3608   -2.6749    0.8348 C   0  0  0  0  0  0  0  0  0  0  0  0
   -4.0988   -1.9909    1.2498 H   0  0  0  0  0  0  0  0  0  0  0  0
   -3.5618   -2.8419   -0.2222 H   0  0  0  0  0  0  0  0  0  0  0  0
   -1.9818   -2.0809    0.9918 C   0  0  0  0  0  0  0  0  0  0  0  0
   -1.1288   -2.6669    1.6468 O   0  0  0  0  0  0  0  0  0  0  0  0
   -1.7648   -0.9089    0.3998 N   0  0  0  0  0  0  0  0  0  0  0  0
   -2.5238   -0.4719   -0.1032 H   0  0  0  0  0  0  0  0  0  0  0  0
   -0.4848   -0.1959    0.4138 C   0  0  1  0  0  0  0  0  0  0  0  0
    0.1132   -0.5367   -0.4331 H   0  0  0  0  0  0  0  0  0  0  0  0
   -0.7541    1.3114    0.2387 C   0  0  0  0  0  0  0  0  0  0  0  0
   -1.4749    1.6218    0.9980 H   0  0  0  0  0  0  0  0  0  0  0  0
    0.1738    1.8609    0.4043 H   0  0  0  0  0  0  0  0  0  0  0  0
   -1.3146    1.6870   -1.1441 C   0  0  0  0  0  0  0  0  0  0  0  0
   -0.6030    1.4013   -1.9185 H   0  0  0  0  0  0  0  0  0  0  0  0
   -2.2449    1.1433   -1.3084 H   0  0  0  0  0  0  0  0  0  0  0  0
   -1.5986    3.1816   -1.2922 C   0  0  0  0  0  0  0  0  0  0  0  0
   -1.4679    3.9808   -0.3840 O   0  0  0  0  0  0  0  0  0  0  0  0
   -1.9975    3.6300   -2.4627 N   0  0  0  0  0  0  0  0  0  0  0  0
   -2.1687    4.6197   -2.5037 H   0  0  0  0  0  0  0  0  0  0  0  0
   -2.1187    3.0170   -3.2432 H   0  0  0  0  0  0  0  0  0  0  0  0
    0.2922   -0.5075    1.7022 C   0  0  0  0  0  0  0  0  0  0  0  0
    1.2538    0.1860    2.0286 O   0  0  0  0  0  0  0  0  0  0  0  0
   -0.1167   -1.5562    2.4279 N   0  0  0  0  0  0  0  0  0  0  0  0
   -0.9280   -2.0625    2.1108 H   0  0  0  0  0  0  0  0  0  0  0  0
    0.5242   -1.9891    3.6689 C   0  0  0  0  0  0  0  0  0  0  0  0
    0.5383   -1.1621    4.3831 H   0  0  0  0  0  0  0  0  0  0  0  0
   -0.0181   -2.8298    4.1043 H   0  0  0  0  0  0  0  0  0  0  0  0
    1.5543   -2.2879    3.4671 H   0  0  0  0  0  0  0  0  0  0  0  0
  5  6  2  0  0  0  0
  5  7  1  0  0  0  0
  2  3  1  0  0  0  0
  2  4  1  0  0  0  0
  2  5  1  0  0  0  0
  1  2  1  0  0  0  0
 22 23  2  0  0  0  0
 22 24  1  0  0  0  0
 19 20  1  0  0  0  0
 19 21  1  0  0  0  0
 17 18  2  0  0  0  0
 17 19  1  0  0  0  0
 14 15  1  0  0  0  0
 14 16  1  0  0  0  0
 14 17  1  0  0  0  0
 11 12  1  0  0  0  0
 11 13  1  0  0  0  0
 11 14  1  0  0  0  0
  9 10  1  0  0  0  0
  9 11  1  0  0  0  0
  9 22  1  0  0  0  0
  7  8  1  0  0  0  0
  7  9  1  0  0  0  0
 26 27  1  0  0  0  0
 26 28  1  0  0  0  0
 26 29  1  0  0  0  0
 24 25  1  0  0  0  0
 24 26  1  0  0  0  0
M  END
$$$$
default_name
  -OEChem-01062215323D

 29 28  0     1  0  0  0  0  0999 V2000
   -3.3998   -3.6239    1.3678 H   0  0  0  0  0  0  0  0  0  0  0  0
   -3.3608   -2.6749    0.8348 C   0  0  0  0  0  0  0  0  0  0  0  0
   -4.0988   -1.9909    1.2498 H   0  0  0  0  0  0  0  0  0  0  0  0
   -3.5618   -2.8419   -0.2222 H   0  0  0  0  0  0  0  0  0  0  0  0
   -1.9818   -2.0809    0.9918 C   0  0  0  0  0  0  0  0  0  0  0  0
   -1.1288   -2.6669    1.6468 O   0  0  0  0  0  0  0  0  0  0  0  0
   -1.7648   -0.9089    0.3998 N   0  0  0  0  0  0  0  0  0  0  0  0
   -2.5238   -0.4719   -0.1032 H   0  0  0  0  0  0  0  0  0  0  0  0
   -0.4848   -0.1959    0.4138 C   0  0  1  0  0  0  0  0  0  0  0  0
    0.1132   -0.5367   -0.4331 H   0  0  0  0  0  0  0  0  0  0  0  0
   -0.7541    1.3114    0.2387 C   0  0  0  0  0  0  0  0  0  0  0  0
   -1.4749    1.6218    0.9980 H   0  0  0  0  0  0  0  0  0  0  0  0
    0.1738    1.8609    0.4043 H   0  0  0  0  0  0  0  0  0  0  0  0
   -1.3146    1.6870   -1.1441 C   0  0  0  0  0  0  0  0  0  0  0  0
   -0.6030    1.4013   -1.9185 H   0  0  0  0  0  0  0  0  0  0  0  0
   -2.2449    1.1433   -1.3084 H   0  0  0  0  0  0  0  0  0  0  0  0
   -1.5986    3.1816   -1.2922 C   0  0  0  0  0  0  0  0  0  0  0  0
   -1.4679    3.9808   -0.3840 O   0  0  0  0  0  0  0  0  0  0  0  0
   -1.9975    3.6300   -2.4627 N   0  0  0  0  0  0  0  0  0  0  0  0
   -2.1687    4.6197   -2.5037 H   0  0  0  0  0  0  0  0  0  0  0  0
   -2.1187    3.0170   -3.2432 H   0  0  0  0  0  0  0  0  0  0  0  0
    0.2922   -0.5075    1.7022 C   0  0  0  0  0  0  0  0  0  0  0  0
    1.0640    0.3240    2.1764 O   0  0  0  0  0  0  0  0  0  0  0  0
    0.0974   -1.7084    2.2620 N   0  0  0  0  0  0  0  0  0  0  0  0
   -0.5697   -2.3280    1.8305 H   0  0  0  0  0  0  0  0  0  0  0  0
    0.7703   -2.1600    3.4793 C   0  0  0  0  0  0  0  0  0  0  0  0
    0.5744   -1.4545    4.2905 H   0  0  0  0  0  0  0  0  0  0  0  0
    0.4106   -3.1485    3.7688 H   0  0  0  0  0  0  0  0  0  0  0  0
    1.8477   -2.2015    3.3111 H   0  0  0  0  0  0  0  0  0  0  0  0
  5  6  2  0  0  0  0
  5  7  1  0  0  0  0
  2  3  1  0  0  0  0
  2  4  1  0  0  0  0
  2  5  1  0  0  0  0
  1  2  1  0  0  0  0
 22 23  2  0  0  0  0
 22 24  1  0  0  0  0
 19 20  1  0  0  0  0
 19 21  1  0  0  0  0
 17 18  2  0  0  0  0
 17 19  1  0  0  0  0
 14 15  1  0  0  0  0
 14 16  1  0  0  0  0
 14 17  1  0  0  0  0
 11 12  1  0  0  0  0
 11 13  1  0  0  0  0
 11 14  1  0  0  0  0
  9 10  1  0  0  0  0
  9 11  1  0  0  0  0
  9 22  1  0  0  0  0
  7  8  1  0  0  0  0
  7  9  1  0  0  0  0
 26 27  1  0  0  0  0
 26 28  1  0  0  0  0
 26 29  1  0  0  0  0
 24 25  1  0  0  0  0
 24 26  1  0  0  0  0
M  END
$$$$
default_name
  -OEChem-01062215323D

 29 28  0     1  0  0  0  0  0999 V2000
   -3.3998   -3.6239    1.3678 H   0  0  0  0  0  0  0  0  0  0  0  0
   -3.3608   -2.6749    0.8348 C   0  0  0  0  0  0  0  0  0  0  0  0
   -4.0988   -1.9909    1.2498 H   0  0  0  0  0  0  0  0  0  0  0  0
   -3.5618   -2.8419   -0.2222 H   0  0  0  0  0  0  0  0  0  0  0  0
   -1.9818   -2.0809    0.9918 C   0  0  0  0  0  0  0  0  0  0  0  0
   -1.1288   -2.6669    1.6468 O   0  0  0  0  0  0  0  0  0  0  0  0
   -1.7648   -0.9089    0.3998 N   0  0  0  0  0  0  0  0  0  0  0  0
   -2.5238   -0.4719   -0.1032 H   0  0  0  0  0  0  0  0  0  0  0  0
   -0.4848   -0.1959    0.4138 C   0  0  1  0  0  0  0  0  0  0  0  0
    0.1132   -0.5367   -0.4331 H   0  0  0  0  0  0  0  0  0  0  0  0
   -0.7541    1.3114    0.2387 C   0  0  0  0  0  0  0  0  0  0  0  0
   -1.4749    1.6218    0.9980 H   0  0  0  0  0  0  0  0  0  0  0  0
    0.1738    1.8609    0.4043 H   0  0  0  0  0  0  0  0  0  0  0  0
   -1.3146    1.6870   -1.1441 C   0  0  0  0  0  0  0  0  0  0  0  0
   -0.6030    1.4013   -1.9185 H   0  0  0  0  0  0  0  0  0  0  0  0
   -2.2449    1.1433   -1.3084 H   0  0  0  0  0  0  0  0  0  0  0  0
   -1.5986    3.1816   -1.2922 C   0  0  0  0  0  0  0  0  0  0  0  0
   -1.4679    3.9808   -0.3840 O   0  0  0  0  0  0  0  0  0  0  0  0
   -1.9975    3.6300   -2.4627 N   0  0  0  0  0  0  0  0  0  0  0  0
   -2.1687    4.6197   -2.5037 H   0  0  0  0  0  0  0  0  0  0  0  0
   -2.1187    3.0170   -3.2432 H   0  0  0  0  0  0  0  0  0  0  0  0
    0.2922   -0.5075    1.7022 C   0  0  0  0  0  0  0  0  0  0  0  0
    0.8430    0.3969    2.3273 O   0  0  0  0  0  0  0  0  0  0  0  0
    0.3458   -1.7873    2.0931 N   0  0  0  0  0  0  0  0  0  0  0  0
   -0.1512   -2.4701    1.5438 H   0  0  0  0  0  0  0  0  0  0  0  0
    1.0549   -2.2468    3.2866 C   0  0  0  0  0  0  0  0  0  0  0  0
    0.6776   -1.7171    4.1648 H   0  0  0  0  0  0  0  0  0  0  0  0
    0.9114   -3.3194    3.4254 H   0  0  0  0  0  0  0  0  0  0  0  0
    2.1206   -2.0338    3.1870 H   0  0  0  0  0  0  0  0  0  0  0  0
  5  6  2  0  0  0  0
  5  7  1  0  0  0  0
  2  3  1  0  0  0  0
  2  4  1  0  0  0  0
  2  5  1  0  0  0  0
  1  2  1  0  0  0  0
 22 23  2  0  0  0  0
 22 24  1  0  0  0  0
 19 20  1  0  0  0  0
 19 21  1  0  0  0  0
 17 18  2  0  0  0  0
 17 19  1  0  0  0  0
 14 15  1  0  0  0  0
 14 16  1  0  0  0  0
 14 17  1  0  0  0  0
 11 12  1  0  0  0  0
 11 13  1  0  0  0  0
 11 14  1  0  0  0  0
  9 10  1  0  0  0  0
  9 11  1  0  0  0  0
  9 22  1  0  0  0  0
  7  8  1  0  0  0  0
  7  9  1  0  0  0  0
 26 27  1  0  0  0  0
 26 28  1  0  0  0  0
 26 29  1  0  0  0  0
 24 25  1  0  0  0  0
 24 26  1  0  0  0  0
M  END
$$$$
default_name
  -OEChem-01062215323D

 29 28  0     1  0  0  0  0  0999 V2000
   -3.3998   -3.6239    1.3678 H   0  0  0  0  0  0  0  0  0  0  0  0
   -3.3608   -2.6749    0.8348 C   0  0  0  0  0  0  0  0  0  0  0  0
   -4.0988   -1.9909    1.2498 H   0  0  0  0  0  0  0  0  0  0  0  0
   -3.5618   -2.8419   -0.2222 H   0  0  0  0  0  0  0  0  0  0  0  0
   -1.9818   -2.0809    0.9918 C   0  0  0  0  0  0  0  0  0  0  0  0
   -1.1288   -2.6669    1.6468 O   0  0  0  0  0  0  0  0  0  0  0  0
   -1.7648   -0.9089    0.3998 N   0  0  0  0  0  0  0  0  0  0  0  0
   -2.5238   -0.4719   -0.1032 H   0  0  0  0  0  0  0  0  0  0  0  0
   -0.4848   -0.1959    0.4138 C   0  0  1  0  0  0  0  0  0  0  0  0
    0.1132   -0.5367   -0.4331 H   0  0  0  0  0  0  0  0  0  0  0  0
   -0.7541    1.3114    0.2387 C   0  0  0  0  0  0  0  0  0  0  0  0
   -1.4749    1.6218    0.9980 H   0  0  0  0  0  0  0  0  0  0  0  0
    0.1738    1.8609    0.4043 H   0  0  0  0  0  0  0  0  0  0  0  0
   -1.3146    1.6870   -1.1441 C   0  0  0  0  0  0  0  0  0  0  0  0
   -0.6030    1.4013   -1.9185 H   0  0  0  0  0  0  0  0  0  0  0  0
   -2.2449    1.1433   -1.3084 H   0  0  0  0  0  0  0  0  0  0  0  0
   -1.5986    3.1816   -1.2922 C   0  0  0  0  0  0  0  0  0  0  0  0
   -1.4679    3.9808   -0.3840 O   0  0  0  0  0  0  0  0  0  0  0  0
   -1.9975    3.6300   -2.4627 N   0  0  0  0  0  0  0  0  0  0  0  0
   -2.1687    4.6197   -2.5037 H   0  0  0  0  0  0  0  0  0  0  0  0
   -2.1187    3.0170   -3.2432 H   0  0  0  0  0  0  0  0  0  0  0  0
    0.2922   -0.5075    1.7022 C   0  0  0  0  0  0  0  0  0  0  0  0
    0.6058    0.3995    2.4709 O   0  0  0  0  0  0  0  0  0  0  0  0
    0.6118   -1.7875    1.9327 N   0  0  0  0  0  0  0  0  0  0  0  0
    0.2989   -2.4790    1.2702 H   0  0  0  0  0  0  0  0  0  0  0  0
    1.3589   -2.2436    3.1041 C   0  0  0  0  0  0  0  0  0  0  0  0
    0.8409   -1.9318    4.0144 H   0  0  0  0  0  0  0  0  0  0  0  0
    1.4502   -3.3308    3.0977 H   0  0  0  0  0  0  0  0  0  0  0  0
    2.3544   -1.7965    3.1035 H   0  0  0  0  0  0  0  0  0  0  0  0
  5  6  2  0  0  0  0
  5  7  1  0  0  0  0
  2  3  1  0  0  0  0
  2  4  1  0  0  0  0
  2  5  1  0  0  0  0
  1  2  1  0  0  0  0
 22 23  2  0  0  0  0
 22 24  1  0  0  0  0
 19 20  1  0  0  0  0
 19 21  1  0  0  0  0
 17 18  2  0  0  0  0
 17 19  1  0  0  0  0
 14 15  1  0  0  0  0
 14 16  1  0  0  0  0
 14 17  1  0  0  0  0
 11 12  1  0  0  0  0
 11 13  1  0  0  0  0
 11 14  1  0  0  0  0
  9 10  1  0  0  0  0
  9 11  1  0  0  0  0
  9 22  1  0  0  0  0
  7  8  1  0  0  0  0
  7  9  1  0  0  0  0
 26 27  1  0  0  0  0
 26 28  1  0  0  0  0
 26 29  1  0  0  0  0
 24 25  1  0  0  0  0
 24 26  1  0  0  0  0
M  END
$$$$
default_name
  -OEChem-01062215323D

 29 28  0     1  0  0  0  0  0999 V2000
   -3.3998   -3.6239    1.3678 H   0  0  0  0  0  0  0  0  0  0  0  0
   -3.3608   -2.6749    0.8348 C   0  0  0  0  0  0  0  0  0  0  0  0
   -4.0988   -1.9909    1.2498 H   0  0  0  0  0  0  0  0  0  0  0  0
   -3.5618   -2.8419   -0.2222 H   0  0  0  0  0  0  0  0  0  0  0  0
   -1.9818   -2.0809    0.9918 C   0  0  0  0  0  0  0  0  0  0  0  0
   -1.1288   -2.6669    1.6468 O   0  0  0  0  0  0  0  0  0  0  0  0
   -1.7648   -0.9089    0.3998 N   0  0  0  0  0  0  0  0  0  0  0  0
   -2.5238   -0.4719   -0.1032 H   0  0  0  0  0  0  0  0  0  0  0  0
   -0.4848   -0.1959    0.4138 C   0  0  1  0  0  0  0  0  0  0  0  0
    0.1132   -0.5367   -0.4331 H   0  0  0  0  0  0  0  0  0  0  0  0
   -0.7541    1.3114    0.2387 C   0  0  0  0  0  0  0  0  0  0  0  0
   -1.4749    1.6218    0.9980 H   0  0  0  0  0  0  0  0  0  0  0  0
    0.1738    1.8609    0.4043 H   0  0  0  0  0  0  0  0  0  0  0  0
   -1.3146    1.6870   -1.1441 C   0  0  0  0  0  0  0  0  0  0  0  0
   -0.6030    1.4013   -1.9185 H   0  0  0  0  0  0  0  0  0  0  0  0
   -2.2449    1.1433   -1.3084 H   0  0  0  0  0  0  0  0  0  0  0  0
   -1.5986    3.1816   -1.2922 C   0  0  0  0  0  0  0  0  0  0  0  0
   -1.4679    3.9808   -0.3840 O   0  0  0  0  0  0  0  0  0  0  0  0
   -1.9975    3.6300   -2.4627 N   0  0  0  0  0  0  0  0  0  0  0  0
   -2.1687    4.6197   -2.5037 H   0  0  0  0  0  0  0  0  0  0  0  0
   -2.1187    3.0170   -3.2432 H   0  0  0  0  0  0  0  0  0  0  0  0
    0.2922   -0.5075    1.7022 C   0  0  0  0  0  0  0  0  0  0  0  0
    0.3686    0.3318    2.5976 O   0  0  0  0  0  0  0  0  0  0  0  0
    0.8772   -1.7089    1.7916 N   0  0  0  0  0  0  0  0  0  0  0  0
    0.7499   -2.3542    1.0284 H   0  0  0  0  0  0  0  0  0  0  0  0
    1.6613   -2.1507    2.9442 C   0  0  0  0  0  0  0  0  0  0  0  0
    1.0531   -2.0841    3.8496 H   0  0  0  0  0  0  0  0  0  0  0  0
    1.9903   -3.1820    2.8080 H   0  0  0  0  0  0  0  0  0  0  0  0
    2.5330   -1.5055    3.0661 H   0  0  0  0  0  0  0  0  0  0  0  0
  5  6  2  0  0  0  0
  5  7  1  0  0  0  0
  2  3  1  0  0  0  0
  2  4  1  0  0  0  0
  2  5  1  0  0  0  0
  1  2  1  0  0  0  0
 22 23  2  0  0  0  0
 22 24  1  0  0  0  0
 19 20  1  0  0  0  0
 19 21  1  0  0  0  0
 17 18  2  0  0  0  0
 17 19  1  0  0  0  0
 14 15  1  0  0  0  0
 14 16  1  0  0  0  0
 14 17  1  0  0  0  0
 11 12  1  0  0  0  0
 11 13  1  0  0  0  0
 11 14  1  0  0  0  0
  9 10  1  0  0  0  0
  9 11  1  0  0  0  0
  9 22  1  0  0  0  0
  7  8  1  0  0  0  0
  7  9  1  0  0  0  0
 26 27  1  0  0  0  0
 26 28  1  0  0  0  0
 26 29  1  0  0  0  0
 24 25  1  0  0  0  0
 24 26  1  0  0  0  0
M  END
$$$$
default_name
  -OEChem-01062215323D

 29 28  0     1  0  0  0  0  0999 V2000
   -3.3998   -3.6239    1.3678 H   0  0  0  0  0  0  0  0  0  0  0  0
   -3.3608   -2.6749    0.8348 C   0  0  0  0  0  0  0  0  0  0  0  0
   -4.0988   -1.9909    1.2498 H   0  0  0  0  0  0  0  0  0  0  0  0
   -3.5618   -2.8419   -0.2222 H   0  0  0  0  0  0  0  0  0  0  0  0
   -1.9818   -2.0809    0.9918 C   0  0  0  0  0  0  0  0  0  0  0  0
   -1.1288   -2.6669    1.6468 O   0  0  0  0  0  0  0  0  0  0  0  0
   -1.7648   -0.9089    0.3998 N   0  0  0  0  0  0  0  0  0  0  0  0
   -2.5238   -0.4719   -0.1032 H   0  0  0  0  0  0  0  0  0  0  0  0
   -0.4848   -0.1959    0.4138 C   0  0  1  0  0  0  0  0  0  0  0  0
    0.1132   -0.5367   -0.4331 H   0  0  0  0  0  0  0  0  0  0  0  0
   -0.7541    1.3114    0.2387 C   0  0  0  0  0  0  0  0  0  0  0  0
   -1.4749    1.6218    0.9980 H   0  0  0  0  0  0  0  0  0  0  0  0
    0.1738    1.8609    0.4043 H   0  0  0  0  0  0  0  0  0  0  0  0
   -1.3146    1.6870   -1.1441 C   0  0  0  0  0  0  0  0  0  0  0  0
   -0.6030    1.4013   -1.9185 H   0  0  0  0  0  0  0  0  0  0  0  0
   -2.2449    1.1433   -1.3084 H   0  0  0  0  0  0  0  0  0  0  0  0
   -1.5986    3.1816   -1.2922 C   0  0  0  0  0  0  0  0  0  0  0  0
   -1.4679    3.9808   -0.3840 O   0  0  0  0  0  0  0  0  0  0  0  0
   -1.9975    3.6300   -2.4627 N   0  0  0  0  0  0  0  0  0  0  0  0
   -2.1687    4.6197   -2.5037 H   0  0  0  0  0  0  0  0  0  0  0  0
   -2.1187    3.0170   -3.2432 H   0  0  0  0  0  0  0  0  0  0  0  0
    0.2922   -0.5075    1.7022 C   0  0  0  0  0  0  0  0  0  0  0  0
    0.1475    0.1983    2.6987 O   0  0  0  0  0  0  0  0  0  0  0  0
    1.1239   -1.5569    1.6796 N   0  0  0  0  0  0  0  0  0  0  0  0
    1.1712   -2.1040    0.8349 H   0  0  0  0  0  0  0  0  0  0  0  0
    1.9417   -1.9744    2.8177 C   0  0  0  0  0  0  0  0  0  0  0  0
    1.2998   -2.1636    3.6816 H   0  0  0  0  0  0  0  0  0  0  0  0
    2.4950   -2.8831    2.5760 H   0  0  0  0  0  0  0  0  0  0  0  0
    2.6444   -1.1808    3.0775 H   0  0  0  0  0  0  0  0  0  0  0  0
  5  6  2  0  0  0  0
  5  7  1  0  0  0  0
  2  3  1  0  0  0  0
  2  4  1  0  0  0  0
  2  5  1  0  0  0  0
  1  2  1  0  0  0  0
 22 23  2  0  0  0  0
 22 24  1  0  0  0  0
 19 20  1  0  0  0  0
 19 21  1  0  0  0  0
 17 18  2  0  0  0  0
 17 19  1  0  0  0  0
 14 15  1  0  0  0  0
 14 16  1  0  0  0  0
 14 17  1  0  0  0  0
 11 12  1  0  0  0  0
 11 13  1  0  0  0  0
 11 14  1  0  0  0  0
  9 10  1  0  0  0  0
  9 11  1  0  0  0  0
  9 22  1  0  0  0  0
  7  8  1  0  0  0  0
  7  9  1  0  0  0  0
 26 27  1  0  0  0  0
 26 28  1  0  0  0  0
 26 29  1  0  0  0  0
 24 25  1  0  0  0  0
 24 26  1  0  0  0  0
M  END
$$$$
default_name
  -OEChem-01062215323D

 29 28  0     1  0  0  0  0  0999 V2000
   -3.3998   -3.6239    1.3678 H   0  0  0  0  0  0  0  0  0  0  0  0
   -3.3608   -2.6749    0.8348 C   0  0  0  0  0  0  0  0  0  0  0  0
   -4.0988   -1.9909    1.2498 H   0  0  0  0  0  0  0  0  0  0  0  0
   -3.5618   -2.8419   -0.2222 H   0  0  0  0  0  0  0  0  0  0  0  0
   -1.9818   -2.0809    0.9918 C   0  0  0  0  0  0  0  0  0  0  0  0
   -1.1288   -2.6669    1.6468 O   0  0  0  0  0  0  0  0  0  0  0  0
   -1.7648   -0.9089    0.3998 N   0  0  0  0  0  0  0  0  0  0  0  0
   -2.5238   -0.4719   -0.1032 H   0  0  0  0  0  0  0  0  0  0  0  0
   -0.4848   -0.1959    0.4138 C   0  0  1  0  0  0  0  0  0  0  0  0
    0.1132   -0.5367   -0.4331 H   0  0  0  0  0  0  0  0  0  0  0  0
   -0.7541    1.3114    0.2387 C   0  0  0  0  0  0  0  0  0  0  0  0
   -1.4749    1.6218    0.9980 H   0  0  0  0  0  0  0  0  0  0  0  0
    0.1738    1.8609    0.4043 H   0  0  0  0  0  0  0  0  0  0  0  0
   -1.3146    1.6870   -1.1441 C   0  0  0  0  0  0  0  0  0  0  0  0
   -0.6030    1.4013   -1.9185 H   0  0  0  0  0  0  0  0  0  0  0  0
   -2.2449    1.1433   -1.3084 H   0  0  0  0  0  0  0  0  0  0  0  0
   -1.5986    3.1816   -1.2922 C   0  0  0  0  0  0  0  0  0  0  0  0
   -1.4679    3.9808   -0.3840 O   0  0  0  0  0  0  0  0  0  0  0  0
   -1.9975    3.6300   -2.4627 N   0  0  0  0  0  0  0  0  0  0  0  0
   -2.1687    4.6197   -2.5037 H   0  0  0  0  0  0  0  0  0  0  0  0
   -2.1187    3.0170   -3.2432 H   0  0  0  0  0  0  0  0  0  0  0  0
    0.2922   -0.5075    1.7022 C   0  0  0  0  0  0  0  0  0  0  0  0
   -0.0424    0.0082    2.7672 O   0  0  0  0  0  0  0  0  0  0  0  0
    1.3351   -1.3419    1.6043 N   0  0  0  0  0  0  0  0  0  0  0  0
    1.5339   -1.7456    0.7028 H   0  0  0  0  0  0  0  0  0  0  0  0
    2.1810   -1.7267    2.7334 C   0  0  0  0  0  0  0  0  0  0  0  0
    1.5642   -2.1649    3.5219 H   0  0  0  0  0  0  0  0  0  0  0  0
    2.9298   -2.4546    2.4174 H   0  0  0  0  0  0  0  0  0  0  0  0
    2.6809   -0.8445    3.1368 H   0  0  0  0  0  0  0  0  0  0  0  0
  5  6  2  0  0  0  0
  5  7  1  0  0  0  0
  2  3  1  0  0  0  0
  2  4  1  0  0  0  0
  2  5  1  0  0  0  0
  1  2  1  0  0  0  0
 22 23  2  0  0  0  0
 22 24  1  0  0  0  0
 19 20  1  0  0  0  0
 19 21  1  0  0  0  0
 17 18  2  0  0  0  0
 17 19  1  0  0  0  0
 14 15  1  0  0  0  0
 14 16  1  0  0  0  0
 14 17  1  0  0  0  0
 11 12  1  0  0  0  0
 11 13  1  0  0  0  0
 11 14  1  0  0  0  0
  9 10  1  0  0  0  0
  9 11  1  0  0  0  0
  9 22  1  0  0  0  0
  7  8  1  0  0  0  0
  7  9  1  0  0  0  0
 26 27  1  0  0  0  0
 26 28  1  0  0  0  0
 26 29  1  0  0  0  0
 24 25  1  0  0  0  0
 24 26  1  0  0  0  0
M  END
$$$$
default_name
  -OEChem-01062215323D

 29 28  0     1  0  0  0  0  0999 V2000
   -3.3998   -3.6239    1.3678 H   0  0  0  0  0  0  0  0  0  0  0  0
   -3.3608   -2.6749    0.8348 C   0  0  0  0  0  0  0  0  0  0  0  0
   -4.0988   -1.9909    1.2498 H   0  0  0  0  0  0  0  0  0  0  0  0
   -3.5618   -2.8419   -0.2222 H   0  0  0  0  0  0  0  0  0  0  0  0
   -1.9818   -2.0809    0.9918 C   0  0  0  0  0  0  0  0  0  0  0  0
   -1.1288   -2.6669    1.6468 O   0  0  0  0  0  0  0  0  0  0  0  0
   -1.7648   -0.9089    0.3998 N   0  0  0  0  0  0  0  0  0  0  0  0
   -2.5238   -0.4719   -0.1032 H   0  0  0  0  0  0  0  0  0  0  0  0
   -0.4848   -0.1959    0.4138 C   0  0  1  0  0  0  0  0  0  0  0  0
    0.1132   -0.5367   -0.4331 H   0  0  0  0  0  0  0  0  0  0  0  0
   -0.7541    1.3114    0.2387 C   0  0  0  0  0  0  0  0  0  0  0  0
   -1.4749    1.6218    0.9980 H   0  0  0  0  0  0  0  0  0  0  0  0
    0.1738    1.8609    0.4043 H   0  0  0  0  0  0  0  0  0  0  0  0
   -1.3146    1.6870   -1.1441 C   0  0  0  0  0  0  0  0  0  0  0  0
   -0.6030    1.4013   -1.9185 H   0  0  0  0  0  0  0  0  0  0  0  0
   -2.2449    1.1433   -1.3084 H   0  0  0  0  0  0  0  0  0  0  0  0
   -1.5986    3.1816   -1.2922 C   0  0  0  0  0  0  0  0  0  0  0  0
   -1.4679    3.9808   -0.3840 O   0  0  0  0  0  0  0  0  0  0  0  0
   -1.9975    3.6300   -2.4627 N   0  0  0  0  0  0  0  0  0  0  0  0
   -2.1687    4.6197   -2.5037 H   0  0  0  0  0  0  0  0  0  0  0  0
   -2.1187    3.0170   -3.2432 H   0  0  0  0  0  0  0  0  0  0  0  0
    0.2922   -0.5075    1.7022 C   0  0  0  0  0  0  0  0  0  0  0  0
   -0.1881   -0.2257    2.7985 O   0  0  0  0  0  0  0  0  0  0  0  0
    1.4964   -1.0786    1.5707 N   0  0  0  0  0  0  0  0  0  0  0  0
    1.8135   -1.3034    0.6412 H   0  0  0  0  0  0  0  0  0  0  0  0
    2.3627   -1.4245    2.6969 C   0  0  0  0  0  0  0  0  0  0  0  0
    1.8282   -2.0878    3.3813 H   0  0  0  0  0  0  0  0  0  0  0  0
    3.2651   -1.9255    2.3432 H   0  0  0  0  0  0  0  0  0  0  0  0
    2.6400   -0.5195    3.2401 H   0  0  0  0  0  0  0  0  0  0  0  0
  5  6  2  0  0  0  0
  5  7  1  0  0  0  0
  2  3  1  0  0  0  0
  2  4  1  0  0  0  0
  2  5  1  0  0  0  0
  1  2  1  0  0  0  0
 22 23  2  0  0  0  0
 22 24  1  0  0  0  0
 19 20  1  0  0  0  0
 19 21  1  0  0  0  0
 17 18  2  0  0  0  0
 17 19  1  0  0  0  0
 14 15  1  0  0  0  0
 14 16  1  0  0  0  0
 14 17  1  0  0  0  0
 11 12  1  0  0  0  0
 11 13  1  0  0  0  0
 11 14  1  0  0  0  0
  9 10  1  0  0  0  0
  9 11  1  0  0  0  0
  9 22  1  0  0  0  0
  7  8  1  0  0  0  0
  7  9  1  0  0  0  0
 26 27  1  0  0  0  0
 26 28  1  0  0  0  0
 26 29  1  0  0  0  0
 24 25  1  0  0  0  0
 24 26  1  0  0  0  0
M  END
$$$$
default_name
  -OEChem-01062215323D

 29 28  0     1  0  0  0  0  0999 V2000
   -3.3998   -3.6239    1.3678 H   0  0  0  0  0  0  0  0  0  0  0  0
   -3.3608   -2.6749    0.8348 C   0  0  0  0  0  0  0  0  0  0  0  0
   -4.0988   -1.9909    1.2498 H   0  0  0  0  0  0  0  0  0  0  0  0
   -3.5618   -2.8419   -0.2222 H   0  0  0  0  0  0  0  0  0  0  0  0
   -1.9818   -2.0809    0.9918 C   0  0  0  0  0  0  0  0  0  0  0  0
   -1.1288   -2.6669    1.6468 O   0  0  0  0  0  0  0  0  0  0  0  0
   -1.7648   -0.9089    0.3998 N   0  0  0  0  0  0  0  0  0  0  0  0
   -2.5238   -0.4719   -0.1032 H   0  0  0  0  0  0  0  0  0  0  0  0
   -0.4848   -0.1959    0.4138 C   0  0  1  0  0  0  0  0  0  0  0  0
    0.1132   -0.5367   -0.4331 H   0  0  0  0  0  0  0  0  0  0  0  0
   -0.7541    1.3114    0.2387 C   0  0  0  0  0  0  0  0  0  0  0  0
   -1.4749    1.6218    0.9980 H   0  0  0  0  0  0  0  0  0  0  0  0
    0.1738    1.8609    0.4043 H   0  0  0  0  0  0  0  0  0  0  0  0
   -1.3146    1.6870   -1.1441 C   0  0  0  0  0  0  0  0  0  0  0  0
   -0.6030    1.4013   -1.9185 H   0  0  0  0  0  0  0  0  0  0  0  0
   -2.2449    1.1433   -1.3084 H   0  0  0  0  0  0  0  0  0  0  0  0
   -1.5986    3.1816   -1.2922 C   0  0  0  0  0  0  0  0  0  0  0  0
   -1.4679    3.9808   -0.3840 O   0  0  0  0  0  0  0  0  0  0  0  0
   -1.9975    3.6300   -2.4627 N   0  0  0  0  0  0  0  0  0  0  0  0
   -2.1687    4.6197   -2.5037 H   0  0  0  0  0  0  0  0  0  0  0  0
   -2.1187    3.0170   -3.2432 H   0  0  0  0  0  0  0  0  0  0  0  0
    0.2922   -0.5075    1.7022 C   0  0  0  0  0  0  0  0  0  0  0  0
   -0.2798   -0.4873    2.7905 O   0  0  0  0  0  0  0  0  0  0  0  0
    1.5968   -0.7848    1.5812 N   0  0  0  0  0  0  0  0  0  0  0  0
    1.9908   -0.8075    0.6542 H   0  0  0  0  0  0  0  0  0  0  0  0
    2.4745   -1.0883    2.7107 C   0  0  0  0  0  0  0  0  0  0  0  0
    2.0738   -1.9377    3.2695 H   0  0  0  0  0  0  0  0  0  0  0  0
    3.4780   -1.3319    2.3584 H   0  0  0  0  0  0  0  0  0  0  0  0
    2.5246   -0.2279    3.3802 H   0  0  0  0  0  0  0  0  0  0  0  0
  5  6  2  0  0  0  0
  5  7  1  0  0  0  0
  2  3  1  0  0  0  0
  2  4  1  0  0  0  0
  2  5  1  0  0  0  0
  1  2  1  0  0  0  0
 22 23  2  0  0  0  0
 22 24  1  0  0  0  0
 19 20  1  0  0  0  0
 19 21  1  0  0  0  0
 17 18  2  0  0  0  0
 17 19  1  0  0  0  0
 14 15  1  0  0  0  0
 14 16  1  0  0  0  0
 14 17  1  0  0  0  0
 11 12  1  0  0  0  0
 11 13  1  0  0  0  0
 11 14  1  0  0  0  0
  9 10  1  0  0  0  0
  9 11  1  0  0  0  0
  9 22  1  0  0  0  0
  7  8  1  0  0  0  0
  7  9  1  0  0  0  0
 26 27  1  0  0  0  0
 26 28  1  0  0  0  0
 26 29  1  0  0  0  0
 24 25  1  0  0  0  0
 24 26  1  0  0  0  0
M  END
$$$$
default_name
  -OEChem-01062215323D

 29 28  0     1  0  0  0  0  0999 V2000
   -3.3998   -3.6239    1.3678 H   0  0  0  0  0  0  0  0  0  0  0  0
   -3.3608   -2.6749    0.8348 C   0  0  0  0  0  0  0  0  0  0  0  0
   -4.0988   -1.9909    1.2498 H   0  0  0  0  0  0  0  0  0  0  0  0
   -3.5618   -2.8419   -0.2222 H   0  0  0  0  0  0  0  0  0  0  0  0
   -1.9818   -2.0809    0.9918 C   0  0  0  0  0  0  0  0  0  0  0  0
   -1.1288   -2.6669    1.6468 O   0  0  0  0  0  0  0  0  0  0  0  0
   -1.7648   -0.9089    0.3998 N   0  0  0  0  0  0  0  0  0  0  0  0
   -2.5238   -0.4719   -0.1032 H   0  0  0  0  0  0  0  0  0  0  0  0
   -0.4848   -0.1959    0.4138 C   0  0  1  0  0  0  0  0  0  0  0  0
    0.1132   -0.5367   -0.4331 H   0  0  0  0  0  0  0  0  0  0  0  0
   -0.7541    1.3114    0.2387 C   0  0  0  0  0  0  0  0  0  0  0  0
   -1.4749    1.6218    0.9980 H   0  0  0  0  0  0  0  0  0  0  0  0
    0.1738    1.8609    0.4043 H   0  0  0  0  0  0  0  0  0  0  0  0
   -1.3146    1.6870   -1.1441 C   0  0  0  0  0  0  0  0  0  0  0  0
   -0.6030    1.4013   -1.9185 H   0  0  0  0  0  0  0  0  0  0  0  0
   -2.2449    1.1433   -1.3084 H   0  0  0  0  0  0  0  0  0  0  0  0
   -1.5986    3.1816   -1.2922 C   0  0  0  0  0  0  0  0  0  0  0  0
   -1.4679    3.9808   -0.3840 O   0  0  0  0  0  0  0  0  0  0  0  0
   -1.9975    3.6300   -2.4627 N   0  0  0  0  0  0  0  0  0  0  0  0
   -2.1687    4.6197   -2.5037 H   0  0  0  0  0  0  0  0  0  0  0  0
   -2.1187    3.0170   -3.2432 H   0  0  0  0  0  0  0  0  0  0  0  0
    0.2922   -0.5075    1.7022 C   0  0  0  0  0  0  0  0  0  0  0  0
   -0.3112   -0.7588    2.7438 O   0  0  0  0  0  0  0  0  0  0  0  0
    1.6295   -0.4806    1.6351 N   0  0  0  0  0  0  0  0  0  0  0  0
    2.0537   -0.2918    0.7409 H   0  0  0  0  0  0  0  0  0  0  0  0
    2.5089   -0.7411    2.7739 C   0  0  0  0  0  0  0  0  0  0  0  0
    2.2844   -1.7247    3.1940 H   0  0  0  0  0  0  0  0  0  0  0  0
    3.5540   -0.7144    2.4619 H   0  0  0  0  0  0  0  0  0  0  0  0
    2.3425    0.0103    3.5476 H   0  0  0  0  0  0  0  0  0  0  0  0
  5  6  2  0  0  0  0
  5  7  1  0  0  0  0
  2  3  1  0  0  0  0
  2  4  1  0  0  0  0
  2  5  1  0  0  0  0
  1  2  1  0  0  0  0
 22 23  2  0  0  0  0
 22 24  1  0  0  0  0
 19 20  1  0  0  0  0
 19 21  1  0  0  0  0
 17 18  2  0  0  0  0
 17 19  1  0  0  0  0
 14 15  1  0  0  0  0
 14 16  1  0  0  0  0
 14 17  1  0  0  0  0
 11 12  1  0  0  0  0
 11 13  1  0  0  0  0
 11 14  1  0  0  0  0
  9 10  1  0  0  0  0
  9 11  1  0  0  0  0
  9 22  1  0  0  0  0
  7  8  1  0  0  0  0
  7  9  1  0  0  0  0
 26 27  1  0  0  0  0
 26 28  1  0  0  0  0
 26 29  1  0  0  0  0
 24 25  1  0  0  0  0
 24 26  1  0  0  0  0
M  END
$$$$
default_name
  -OEChem-01062215323D

 29 28  0     1  0  0  0  0  0999 V2000
   -3.3998   -3.6239    1.3678 H   0  0  0  0  0  0  0  0  0  0  0  0
   -3.3608   -2.6749    0.8348 C   0  0  0  0  0  0  0  0  0  0  0  0
   -4.0988   -1.9909    1.2498 H   0  0  0  0  0  0  0  0  0  0  0  0
   -3.5618   -2.8419   -0.2222 H   0  0  0  0  0  0  0  0  0  0  0  0
   -1.9818   -2.0809    0.9918 C   0  0  0  0  0  0  0  0  0  0  0  0
   -1.1288   -2.6669    1.6468 O   0  0  0  0  0  0  0  0  0  0  0  0
   -1.7648   -0.9089    0.3998 N   0  0  0  0  0  0  0  0  0  0  0  0
   -2.5238   -0.4719   -0.1032 H   0  0  0  0  0  0  0  0  0  0  0  0
   -0.4848   -0.1959    0.4138 C   0  0  1  0  0  0  0  0  0  0  0  0
    0.1132   -0.5367   -0.4331 H   0  0  0  0  0  0  0  0  0  0  0  0
   -0.7541    1.3114    0.2387 C   0  0  0  0  0  0  0  0  0  0  0  0
   -1.4749    1.6218    0.9980 H   0  0  0  0  0  0  0  0  0  0  0  0
    0.1738    1.8609    0.4043 H   0  0  0  0  0  0  0  0  0  0  0  0
   -1.3146    1.6870   -1.1441 C   0  0  0  0  0  0  0  0  0  0  0  0
   -0.6030    1.4013   -1.9185 H   0  0  0  0  0  0  0  0  0  0  0  0
   -2.2449    1.1433   -1.3084 H   0  0  0  0  0  0  0  0  0  0  0  0
   -1.5986    3.1816   -1.2922 C   0  0  0  0  0  0  0  0  0  0  0  0
   -1.4679    3.9808   -0.3840 O   0  0  0  0  0  0  0  0  0  0  0  0
   -1.9975    3.6300   -2.4627 N   0  0  0  0  0  0  0  0  0  0  0  0
   -2.1687    4.6197   -2.5037 H   0  0  0  0  0  0  0  0  0  0  0  0
   -2.1187    3.0170   -3.2432 H   0  0  0  0  0  0  0  0  0  0  0  0
    0.2922   -0.5075    1.7022 C   0  0  0  0  0  0  0  0  0  0  0  0
   -0.2801   -1.0218    2.6614 O   0  0  0  0  0  0  0  0  0  0  0  0
    1.5922   -0.1868    1.7286 N   0  0  0  0  0  0  0  0  0  0  0  0
    1.9980    0.2087    0.8956 H   0  0  0  0  0  0  0  0  0  0  0  0
    2.4634   -0.4066    2.8823 C   0  0  0  0  0  0  0  0  0  0  0  0
    2.4456   -1.4634    3.1600 H   0  0  0  0  0  0  0  0  0  0  0  0
    3.4880   -0.1149    2.6466 H   0  0  0  0  0  0  0  0  0  0  0  0
    2.1061    0.1790    3.7310 H   0  0  0  0  0  0  0  0  0  0  0  0
  5  6  2  0  0  0  0
  5  7  1  0  0  0  0
  2  3  1  0  0  0  0
  2  4  1  0  0  0  0
  2  5  1  0  0  0  0
  1  2  1  0  0  0  0
 22 23  2  0  0  0  0
 22 24  1  0  0  0  0
 19 20  1  0  0  0  0
 19 21  1  0  0  0  0
 17 18  2  0  0  0  0
 17 19  1  0  0  0  0
 14 15  1  0  0  0  0
 14 16  1  0  0  0  0
 14 17  1  0  0  0  0
 11 12  1  0  0  0  0
 11 13  1  0  0  0  0
 11 14  1  0  0  0  0
  9 10  1  0  0  0  0
  9 11  1  0  0  0  0
  9 22  1  0  0  0  0
  7  8  1  0  0  0  0
  7  9  1  0  0  0  0
 26 27  1  0  0  0  0
 26 28  1  0  0  0  0
 26 29  1  0  0  0  0
 24 25  1  0  0  0  0
 24 26  1  0  0  0  0
M  END
$$$$
default_name
  -OEChem-01062215323D

 29 28  0     1  0  0  0  0  0999 V2000
   -3.3998   -3.6239    1.3678 H   0  0  0  0  0  0  0  0  0  0  0  0
   -3.3608   -2.6749    0.8348 C   0  0  0  0  0  0  0  0  0  0  0  0
   -4.0988   -1.9909    1.2498 H   0  0  0  0  0  0  0  0  0  0  0  0
   -3.5618   -2.8419   -0.2222 H   0  0  0  0  0  0  0  0  0  0  0  0
   -1.9818   -2.0809    0.9918 C   0  0  0  0  0  0  0  0  0  0  0  0
   -1.1288   -2.6669    1.6468 O   0  0  0  0  0  0  0  0  0  0  0  0
   -1.7648   -0.9089    0.3998 N   0  0  0  0  0  0  0  0  0  0  0  0
   -2.5238   -0.4719   -0.1032 H   0  0  0  0  0  0  0  0  0  0  0  0
   -0.4848   -0.1959    0.4138 C   0  0  1  0  0  0  0  0  0  0  0  0
   -0.0026   -0.3263   -0.5564 H   0  0  0  0  0  0  0  0  0  0  0  0
   -0.7560    1.3072    0.6196 C   0  0  0  0  0  0  0  0  0  0  0  0
   -1.3713    1.4257    1.5138 H   0  0  0  0  0  0  0  0  0  0  0  0
    0.1920    1.8207    0.7873 H   0  0  0  0  0  0  0  0  0  0  0  0
   -1.4819    1.9759   -0.5607 C   0  0  0  0  0  0  0  0  0  0  0  0
   -0.8773    1.8847   -1.4628 H   0  0  0  0  0  0  0  0  0  0  0  0
   -2.4319    1.4678   -0.7255 H   0  0  0  0  0  0  0  0  0  0  0  0
   -1.7644    3.4604   -0.3299 C   0  0  0  0  0  0  0  0  0  0  0  0
   -1.5105    4.0358    0.7117 O   0  0  0  0  0  0  0  0  0  0  0  0
   -2.3024    4.1548   -1.3089 N   0  0  0  0  0  0  0  0  0  0  0  0
   -2.4656    5.1251   -1.1031 H   0  0  0  0  0  0  0  0  0  0  0  0
   -2.5285    3.7320   -2.1863 H   0  0  0  0  0  0  0  0  0  0  0  0
    0.4448   -0.7774    1.4902 C   0  0  0  0  0  0  0  0  0  0  0  0
    0.0657   -1.7081    2.1988 O   0  0  0  0  0  0  0  0  0  0  0  0
    1.6568   -0.2227    1.6202 N   0  0  0  0  0  0  0  0  0  0  0  0
    1.9067    0.5200    0.9869 H   0  0  0  0  0  0  0  0  0  0  0  0
    2.6495   -0.6527    2.6041 C   0  0  0  0  0  0  0  0  0  0  0  0
    2.8580   -1.7175    2.4743 H   0  0  0  0  0  0  0  0  0  0  0  0
    3.5753   -0.0884    2.4824 H   0  0  0  0  0  0  0  0  0  0  0  0
    2.2607   -0.4978    3.6120 H   0  0  0  0  0  0  0  0  0  0  0  0
  5  6  2  0  0  0  0
  5  7  1  0  0  0  0
  2  3  1  0  0  0  0
  2  4  1  0  0  0  0
  2  5  1  0  0  0  0
  1  2  1  0  0  0  0
 22 23  2  0  0  0  0
 22 24  1  0  0  0  0
 19 20  1  0  0  0  0
 19 21  1  0  0  0  0
 17 18  2  0  0  0  0
 17 19  1  0  0  0  0
 14 15  1  0  0  0  0
 14 16  1  0  0  0  0
 14 17  1  0  0  0  0
 11 12  1  0  0  0  0
 11 13  1  0  0  0  0
 11 14  1  0  0  0  0
  9 10  1  0  0  0  0
  9 11  1  0  0  0  0
  9 22  1  0  0  0  0
  7  8  1  0  0  0  0
  7  9  1  0  0  0  0
 26 27  1  0  0  0  0
 26 28  1  0  0  0  0
 26 29  1  0  0  0  0
 24 25  1  0  0  0  0
 24 26  1  0  0  0  0
M  END
$$$$
default_name
  -OEChem-01062215323D

 29 28  0     1  0  0  0  0  0999 V2000
   -3.3998   -3.6239    1.3678 H   0  0  0  0  0  0  0  0  0  0  0  0
   -3.3608   -2.6749    0.8348 C   0  0  0  0  0  0  0  0  0  0  0  0
   -4.0988   -1.9909    1.2498 H   0  0  0  0  0  0  0  0  0  0  0  0
   -3.5618   -2.8419   -0.2222 H   0  0  0  0  0  0  0  0  0  0  0  0
   -1.9818   -2.0809    0.9918 C   0  0  0  0  0  0  0  0  0  0  0  0
   -1.1288   -2.6669    1.6468 O   0  0  0  0  0  0  0  0  0  0  0  0
   -1.7648   -0.9089    0.3998 N   0  0  0  0  0  0  0  0  0  0  0  0
   -2.5238   -0.4719   -0.1032 H   0  0  0  0  0  0  0  0  0  0  0  0
   -0.4848   -0.1959    0.4138 C   0  0  1  0  0  0  0  0  0  0  0  0
   -0.0026   -0.3263   -0.5564 H   0  0  0  0  0  0  0  0  0  0  0  0
   -0.7560    1.3072    0.6196 C   0  0  0  0  0  0  0  0  0  0  0  0
   -1.3713    1.4257    1.5138 H   0  0  0  0  0  0  0  0  0  0  0  0
    0.1920    1.8207    0.7873 H   0  0  0  0  0  0  0  0  0  0  0  0
   -1.4819    1.9759   -0.5607 C   0  0  0  0  0  0  0  0  0  0  0  0
   -0.8773    1.8847   -1.4628 H   0  0  0  0  0  0  0  0  0  0  0  0
   -2.4319    1.4678   -0.7255 H   0  0  0  0  0  0  0  0  0  0  0  0
   -1.7644    3.4604   -0.3299 C   0  0  0  0  0  0  0  0  0  0  0  0
   -1.5105    4.0358    0.7117 O   0  0  0  0  0  0  0  0  0  0  0  0
   -2.3024    4.1548   -1.3089 N   0  0  0  0  0  0  0  0  0  0  0  0
   -2.4656    5.1251   -1.1031 H   0  0  0  0  0  0  0  0  0  0  0  0
   -2.5285    3.7320   -2.1863 H   0  0  0  0  0  0  0  0  0  0  0  0
    0.4448   -0.7774    1.4902 C   0  0  0  0  0  0  0  0  0  0  0  0
    0.1908   -1.8641    2.0065 O   0  0  0  0  0  0  0  0  0  0  0  0
    1.5149   -0.0501    1.8360 N   0  0  0  0  0  0  0  0  0  0  0  0
    1.6718    0.8192    1.3514 H   0  0  0  0  0  0  0  0  0  0  0  0
    2.4853   -0.4582    2.8509 C   0  0  0  0  0  0  0  0  0  0  0  0
    2.9015   -1.4343    2.5897 H   0  0  0  0  0  0  0  0  0  0  0  0
    3.2946    0.2704    2.9187 H   0  0  0  0  0  0  0  0  0  0  0  0
    1.9914   -0.5423    3.8205 H   0  0  0  0  0  0  0  0  0  0  0  0
  5  6  2  0  0  0  0
  5  7  1  0  0  0  0
  2  3  1  0  0  0  0
  2  4  1  0  0  0  0
  2  5  1  0  0  0  0
  1  2  1  0  0  0  0
 22 23  2  0  0  0  0
 22 24  1  0  0  0  0
 19 20  1  0  0  0  0
 19 21  1  0  0  0  0
 17 18  2  0  0  0  0
 17 19  1  0  0  0  0
 14 15  1  0  0  0  0
 14 16  1  0  0  0  0
 14 17  1  0  0  0  0
 11 12  1  0  0  0  0
 11 13  1  0  0  0  0
 11 14  1  0  0  0  0
  9 10  1  0  0  0  0
  9 11  1  0  0  0  0
  9 22  1  0  0  0  0
  7  8  1  0  0  0  0
  7  9  1  0  0  0  0
 26 27  1  0  0  0  0
 26 28  1  0  0  0  0
 26 29  1  0  0  0  0
 24 25  1  0  0  0  0
 24 26  1  0  0  0  0
M  END
$$$$
default_name
  -OEChem-01062215323D

 29 28  0     1  0  0  0  0  0999 V2000
   -3.3998   -3.6239    1.3678 H   0  0  0  0  0  0  0  0  0  0  0  0
   -3.3608   -2.6749    0.8348 C   0  0  0  0  0  0  0  0  0  0  0  0
   -4.0988   -1.9909    1.2498 H   0  0  0  0  0  0  0  0  0  0  0  0
   -3.5618   -2.8419   -0.2222 H   0  0  0  0  0  0  0  0  0  0  0  0
   -1.9818   -2.0809    0.9918 C   0  0  0  0  0  0  0  0  0  0  0  0
   -1.1288   -2.6669    1.6468 O   0  0  0  0  0  0  0  0  0  0  0  0
   -1.7648   -0.9089    0.3998 N   0  0  0  0  0  0  0  0  0  0  0  0
   -2.5238   -0.4719   -0.1032 H   0  0  0  0  0  0  0  0  0  0  0  0
   -0.4848   -0.1959    0.4138 C   0  0  1  0  0  0  0  0  0  0  0  0
   -0.0026   -0.3263   -0.5564 H   0  0  0  0  0  0  0  0  0  0  0  0
   -0.7560    1.3072    0.6196 C   0  0  0  0  0  0  0  0  0  0  0  0
   -1.3713    1.4257    1.5138 H   0  0  0  0  0  0  0  0  0  0  0  0
    0.1920    1.8207    0.7873 H   0  0  0  0  0  0  0  0  0  0  0  0
   -1.4819    1.9759   -0.5607 C   0  0  0  0  0  0  0  0  0  0  0  0
   -0.8773    1.8847   -1.4628 H   0  0  0  0  0  0  0  0  0  0  0  0
   -2.4319    1.4678   -0.7255 H   0  0  0  0  0  0  0  0  0  0  0  0
   -1.7644    3.4604   -0.3299 C   0  0  0  0  0  0  0  0  0  0  0  0
   -1.5105    4.0358    0.7117 O   0  0  0  0  0  0  0  0  0  0  0  0
   -2.3024    4.1548   -1.3089 N   0  0  0  0  0  0  0  0  0  0  0  0
   -2.4656    5.1251   -1.1031 H   0  0  0  0  0  0  0  0  0  0  0  0
   -2.5285    3.7320   -2.1863 H   0  0  0  0  0  0  0  0  0  0  0  0
    0.4448   -0.7774    1.4902 C   0  0  0  0  0  0  0  0  0  0  0  0
    0.3587   -1.9619    1.8087 O   0  0  0  0  0  0  0  0  0  0  0  0
    1.3253    0.0571    2.0576 N   0  0  0  0  0  0  0  0  0  0  0  0
    1.3549    1.0084    1.7272 H   0  0  0  0  0  0  0  0  0  0  0  0
    2.2672   -0.3389    3.1037 C   0  0  0  0  0  0  0  0  0  0  0  0
    2.8809   -1.1710    2.7498 H   0  0  0  0  0  0  0  0  0  0  0  0
    2.9156    0.4977    3.3687 H   0  0  0  0  0  0  0  0  0  0  0  0
    1.7190   -0.6667    3.9885 H   0  0  0  0  0  0  0  0  0  0  0  0
  5  6  2  0  0  0  0
  5  7  1  0  0  0  0
  2  3  1  0  0  0  0
  2  4  1  0  0  0  0
  2  5  1  0  0  0  0
  1  2  1  0  0  0  0
 22 23  2  0  0  0  0
 22 24  1  0  0  0  0
 19 20  1  0  0  0  0
 19 21  1  0  0  0  0
 17 18  2  0  0  0  0
 17 19  1  0  0  0  0
 14 15  1  0  0  0  0
 14 16  1  0  0  0  0
 14 17  1  0  0  0  0
 11 12  1  0  0  0  0
 11 13  1  0  0  0  0
 11 14  1  0  0  0  0
  9 10  1  0  0  0  0
  9 11  1  0  0  0  0
  9 22  1  0  0  0  0
  7  8  1  0  0  0  0
  7  9  1  0  0  0  0
 26 27  1  0  0  0  0
 26 28  1  0  0  0  0
 26 29  1  0  0  0  0
 24 25  1  0  0  0  0
 24 26  1  0  0  0  0
M  END
$$$$
default_name
  -OEChem-01062215323D

 29 28  0     1  0  0  0  0  0999 V2000
   -3.3998   -3.6239    1.3678 H   0  0  0  0  0  0  0  0  0  0  0  0
   -3.3608   -2.6749    0.8348 C   0  0  0  0  0  0  0  0  0  0  0  0
   -4.0988   -1.9909    1.2498 H   0  0  0  0  0  0  0  0  0  0  0  0
   -3.5618   -2.8419   -0.2222 H   0  0  0  0  0  0  0  0  0  0  0  0
   -1.9818   -2.0809    0.9918 C   0  0  0  0  0  0  0  0  0  0  0  0
   -1.1288   -2.6669    1.6468 O   0  0  0  0  0  0  0  0  0  0  0  0
   -1.7648   -0.9089    0.3998 N   0  0  0  0  0  0  0  0  0  0  0  0
   -2.5238   -0.4719   -0.1032 H   0  0  0  0  0  0  0  0  0  0  0  0
   -0.4848   -0.1959    0.4138 C   0  0  1  0  0  0  0  0  0  0  0  0
   -0.0026   -0.3263   -0.5564 H   0  0  0  0  0  0  0  0  0  0  0  0
   -0.7560    1.3072    0.6196 C   0  0  0  0  0  0  0  0  0  0  0  0
   -1.3713    1.4257    1.5138 H   0  0  0  0  0  0  0  0  0  0  0  0
    0.1920    1.8207    0.7873 H   0  0  0  0  0  0  0  0  0  0  0  0
   -1.4819    1.9759   -0.5607 C   0  0  0  0  0  0  0  0  0  0  0  0
   -0.8773    1.8847   -1.4628 H   0  0  0  0  0  0  0  0  0  0  0  0
   -2.4319    1.4678   -0.7255 H   0  0  0  0  0  0  0  0  0  0  0  0
   -1.7644    3.4604   -0.3299 C   0  0  0  0  0  0  0  0  0  0  0  0
   -1.5105    4.0358    0.7117 O   0  0  0  0  0  0  0  0  0  0  0  0
   -2.3024    4.1548   -1.3089 N   0  0  0  0  0  0  0  0  0  0  0  0
   -2.4656    5.1251   -1.1031 H   0  0  0  0  0  0  0  0  0  0  0  0
   -2.5285    3.7320   -2.1863 H   0  0  0  0  0  0  0  0  0  0  0  0
    0.4448   -0.7774    1.4902 C   0  0  0  0  0  0  0  0  0  0  0  0
    0.5580   -1.9951    1.6187 O   0  0  0  0  0  0  0  0  0  0  0  0
    1.1011    0.0915    2.2698 N   0  0  0  0  0  0  0  0  0  0  0  0
    0.9777    1.0750    2.0889 H   0  0  0  0  0  0  0  0  0  0  0  0
    2.0102   -0.3027    3.3452 C   0  0  0  0  0  0  0  0  0  0  0  0
    2.7975   -0.9454    2.9436 H   0  0  0  0  0  0  0  0  0  0  0  0
    2.4642    0.5780    3.8019 H   0  0  0  0  0  0  0  0  0  0  0  0
    1.4619   -0.8626    4.1047 H   0  0  0  0  0  0  0  0  0  0  0  0
  5  6  2  0  0  0  0
  5  7  1  0  0  0  0
  2  3  1  0  0  0  0
  2  4  1  0  0  0  0
  2  5  1  0  0  0  0
  1  2  1  0  0  0  0
 22 23  2  0  0  0  0
 22 24  1  0  0  0  0
 19 20  1  0  0  0  0
 19 21  1  0  0  0  0
 17 18  2  0  0  0  0
 17 19  1  0  0  0  0
 14 15  1  0  0  0  0
 14 16  1  0  0  0  0
 14 17  1  0  0  0  0
 11 12  1  0  0  0  0
 11 13  1  0  0  0  0
 11 14  1  0  0  0  0
  9 10  1  0  0  0  0
  9 11  1  0  0  0  0
  9 22  1  0  0  0  0
  7  8  1  0  0  0  0
  7  9  1  0  0  0  0
 26 27  1  0  0  0  0
 26 28  1  0  0  0  0
 26 29  1  0  0  0  0
 24 25  1  0  0  0  0
 24 26  1  0  0  0  0
M  END
$$$$
default_name
  -OEChem-01062215323D

 29 28  0     1  0  0  0  0  0999 V2000
   -3.3998   -3.6239    1.3678 H   0  0  0  0  0  0  0  0  0  0  0  0
   -3.3608   -2.6749    0.8348 C   0  0  0  0  0  0  0  0  0  0  0  0
   -4.0988   -1.9909    1.2498 H   0  0  0  0  0  0  0  0  0  0  0  0
   -3.5618   -2.8419   -0.2222 H   0  0  0  0  0  0  0  0  0  0  0  0
   -1.9818   -2.0809    0.9918 C   0  0  0  0  0  0  0  0  0  0  0  0
   -1.1288   -2.6669    1.6468 O   0  0  0  0  0  0  0  0  0  0  0  0
   -1.7648   -0.9089    0.3998 N   0  0  0  0  0  0  0  0  0  0  0  0
   -2.5238   -0.4719   -0.1032 H   0  0  0  0  0  0  0  0  0  0  0  0
   -0.4848   -0.1959    0.4138 C   0  0  1  0  0  0  0  0  0  0  0  0
   -0.0026   -0.3263   -0.5564 H   0  0  0  0  0  0  0  0  0  0  0  0
   -0.7560    1.3072    0.6196 C   0  0  0  0  0  0  0  0  0  0  0  0
   -1.3713    1.4257    1.5138 H   0  0  0  0  0  0  0  0  0  0  0  0
    0.1920    1.8207    0.7873 H   0  0  0  0  0  0  0  0  0  0  0  0
   -1.4819    1.9759   -0.5607 C   0  0  0  0  0  0  0  0  0  0  0  0
   -0.8773    1.8847   -1.4628 H   0  0  0  0  0  0  0  0  0  0  0  0
   -2.4319    1.4678   -0.7255 H   0  0  0  0  0  0  0  0  0  0  0  0
   -1.7644    3.4604   -0.3299 C   0  0  0  0  0  0  0  0  0  0  0  0
   -1.5105    4.0358    0.7117 O   0  0  0  0  0  0  0  0  0  0  0  0
   -2.3024    4.1548   -1.3089 N   0  0  0  0  0  0  0  0  0  0  0  0
   -2.4656    5.1251   -1.1031 H   0  0  0  0  0  0  0  0  0  0  0  0
   -2.5285    3.7320   -2.1863 H   0  0  0  0  0  0  0  0  0  0  0  0
    0.4448   -0.7774    1.4902 C   0  0  0  0  0  0  0  0  0  0  0  0
    0.7751   -1.9611    1.4495 O   0  0  0  0  0  0  0  0  0  0  0  0
    0.8575    0.0509    2.4583 N   0  0  0  0  0  0  0  0  0  0  0  0
    0.5659    1.0142    2.4117 H   0  0  0  0  0  0  0  0  0  0  0  0
    1.7317   -0.3522    3.5590 C   0  0  0  0  0  0  0  0  0  0  0  0
    2.6571   -0.7730    3.1580 H   0  0  0  0  0  0  0  0  0  0  0  0
    1.9712    0.5060    4.1888 H   0  0  0  0  0  0  0  0  0  0  0  0
    1.2378   -1.1167    4.1611 H   0  0  0  0  0  0  0  0  0  0  0  0
  5  6  2  0  0  0  0
  5  7  1  0  0  0  0
  2  3  1  0  0  0  0
  2  4  1  0  0  0  0
  2  5  1  0  0  0  0
  1  2  1  0  0  0  0
 22 23  2  0  0  0  0
 22 24  1  0  0  0  0
 19 20  1  0  0  0  0
 19 21  1  0  0  0  0
 17 18  2  0  0  0  0
 17 19  1  0  0  0  0
 14 15  1  0  0  0  0
 14 16  1  0  0  0  0
 14 17  1  0  0  0  0
 11 12  1  0  0  0  0
 11 13  1  0  0  0  0
 11 14  1  0  0  0  0
  9 10  1  0  0  0  0
  9 11  1  0  0  0  0
  9 22  1  0  0  0  0
  7  8  1  0  0  0  0
  7  9  1  0  0  0  0
 26 27  1  0  0  0  0
 26 28  1  0  0  0  0
 26 29  1  0  0  0  0
 24 25  1  0  0  0  0
 24 26  1  0  0  0  0
M  END
$$$$
default_name
  -OEChem-01062215323D

 29 28  0     1  0  0  0  0  0999 V2000
   -3.3998   -3.6239    1.3678 H   0  0  0  0  0  0  0  0  0  0  0  0
   -3.3608   -2.6749    0.8348 C   0  0  0  0  0  0  0  0  0  0  0  0
   -4.0988   -1.9909    1.2498 H   0  0  0  0  0  0  0  0  0  0  0  0
   -3.5618   -2.8419   -0.2222 H   0  0  0  0  0  0  0  0  0  0  0  0
   -1.9818   -2.0809    0.9918 C   0  0  0  0  0  0  0  0  0  0  0  0
   -1.1288   -2.6669    1.6468 O   0  0  0  0  0  0  0  0  0  0  0  0
   -1.7648   -0.9089    0.3998 N   0  0  0  0  0  0  0  0  0  0  0  0
   -2.5238   -0.4719   -0.1032 H   0  0  0  0  0  0  0  0  0  0  0  0
   -0.4848   -0.1959    0.4138 C   0  0  1  0  0  0  0  0  0  0  0  0
   -0.0026   -0.3263   -0.5564 H   0  0  0  0  0  0  0  0  0  0  0  0
   -0.7560    1.3072    0.6196 C   0  0  0  0  0  0  0  0  0  0  0  0
   -1.3713    1.4257    1.5138 H   0  0  0  0  0  0  0  0  0  0  0  0
    0.1920    1.8207    0.7873 H   0  0  0  0  0  0  0  0  0  0  0  0
   -1.4819    1.9759   -0.5607 C   0  0  0  0  0  0  0  0  0  0  0  0
   -0.8773    1.8847   -1.4628 H   0  0  0  0  0  0  0  0  0  0  0  0
   -2.4319    1.4678   -0.7255 H   0  0  0  0  0  0  0  0  0  0  0  0
   -1.7644    3.4604   -0.3299 C   0  0  0  0  0  0  0  0  0  0  0  0
   -1.5105    4.0358    0.7117 O   0  0  0  0  0  0  0  0  0  0  0  0
   -2.3024    4.1548   -1.3089 N   0  0  0  0  0  0  0  0  0  0  0  0
   -2.4656    5.1251   -1.1031 H   0  0  0  0  0  0  0  0  0  0  0  0
   -2.5285    3.7320   -2.1863 H   0  0  0  0  0  0  0  0  0  0  0  0
    0.4448   -0.7774    1.4902 C   0  0  0  0  0  0  0  0  0  0  0  0
    0.9952   -1.8625    1.3126 O   0  0  0  0  0  0  0  0  0  0  0  0
    0.6111   -0.0620    2.6101 N   0  0  0  0  0  0  0  0  0  0  0  0
    0.1476    0.8303    2.6737 H   0  0  0  0  0  0  0  0  0  0  0  0
    1.4508   -0.4839    3.7305 C   0  0  0  0  0  0  0  0  0  0  0  0
    2.4692   -0.6655    3.3783 H   0  0  0  0  0  0  0  0  0  0  0  0
    1.4702    0.2865    4.5029 H   0  0  0  0  0  0  0  0  0  0  0  0
    1.0618   -1.4115    4.1538 H   0  0  0  0  0  0  0  0  0  0  0  0
  5  6  2  0  0  0  0
  5  7  1  0  0  0  0
  2  3  1  0  0  0  0
  2  4  1  0  0  0  0
  2  5  1  0  0  0  0
  1  2  1  0  0  0  0
 22 23  2  0  0  0  0
 22 24  1  0  0  0  0
 19 20  1  0  0  0  0
 19 21  1  0  0  0  0
 17 18  2  0  0  0  0
 17 19  1  0  0  0  0
 14 15  1  0  0  0  0
 14 16  1  0  0  0  0
 14 17  1  0  0  0  0
 11 12  1  0  0  0  0
 11 13  1  0  0  0  0
 11 14  1  0  0  0  0
  9 10  1  0  0  0  0
  9 11  1  0  0  0  0
  9 22  1  0  0  0  0
  7  8  1  0  0  0  0
  7  9  1  0  0  0  0
 26 27  1  0  0  0  0
 26 28  1  0  0  0  0
 26 29  1  0  0  0  0
 24 25  1  0  0  0  0
 24 26  1  0  0  0  0
M  END
$$$$
default_name
  -OEChem-01062215323D

 29 28  0     1  0  0  0  0  0999 V2000
   -3.3998   -3.6239    1.3678 H   0  0  0  0  0  0  0  0  0  0  0  0
   -3.3608   -2.6749    0.8348 C   0  0  0  0  0  0  0  0  0  0  0  0
   -4.0988   -1.9909    1.2498 H   0  0  0  0  0  0  0  0  0  0  0  0
   -3.5618   -2.8419   -0.2222 H   0  0  0  0  0  0  0  0  0  0  0  0
   -1.9818   -2.0809    0.9918 C   0  0  0  0  0  0  0  0  0  0  0  0
   -1.1288   -2.6669    1.6468 O   0  0  0  0  0  0  0  0  0  0  0  0
   -1.7648   -0.9089    0.3998 N   0  0  0  0  0  0  0  0  0  0  0  0
   -2.5238   -0.4719   -0.1032 H   0  0  0  0  0  0  0  0  0  0  0  0
   -0.4848   -0.1959    0.4138 C   0  0  1  0  0  0  0  0  0  0  0  0
   -0.0026   -0.3263   -0.5564 H   0  0  0  0  0  0  0  0  0  0  0  0
   -0.7560    1.3072    0.6196 C   0  0  0  0  0  0  0  0  0  0  0  0
   -1.3713    1.4257    1.5138 H   0  0  0  0  0  0  0  0  0  0  0  0
    0.1920    1.8207    0.7873 H   0  0  0  0  0  0  0  0  0  0  0  0
   -1.4819    1.9759   -0.5607 C   0  0  0  0  0  0  0  0  0  0  0  0
   -0.8773    1.8847   -1.4628 H   0  0  0  0  0  0  0  0  0  0  0  0
   -2.4319    1.4678   -0.7255 H   0  0  0  0  0  0  0  0  0  0  0  0
   -1.7644    3.4604   -0.3299 C   0  0  0  0  0  0  0  0  0  0  0  0
   -1.5105    4.0358    0.7117 O   0  0  0  0  0  0  0  0  0  0  0  0
   -2.3024    4.1548   -1.3089 N   0  0  0  0  0  0  0  0  0  0  0  0
   -2.4656    5.1251   -1.1031 H   0  0  0  0  0  0  0  0  0  0  0  0
   -2.5285    3.7320   -2.1863 H   0  0  0  0  0  0  0  0  0  0  0  0
    0.4448   -0.7774    1.4902 C   0  0  0  0  0  0  0  0  0  0  0  0
    1.2034   -1.7060    1.2174 O   0  0  0  0  0  0  0  0  0  0  0  0
    0.3788   -0.2395    2.7149 N   0  0  0  0  0  0  0  0  0  0  0  0
   -0.2489    0.5357    2.8570 H   0  0  0  0  0  0  0  0  0  0  0  0
    1.1865   -0.6890    3.8480 C   0  0  0  0  0  0  0  0  0  0  0  0
    2.2467   -0.6302    3.5896 H   0  0  0  0  0  0  0  0  0  0  0  0
    0.9953   -0.0656    4.7228 H   0  0  0  0  0  0  0  0  0  0  0  0
    0.9460   -1.7271    4.0833 H   0  0  0  0  0  0  0  0  0  0  0  0
  5  6  2  0  0  0  0
  5  7  1  0  0  0  0
  2  3  1  0  0  0  0
  2  4  1  0  0  0  0
  2  5  1  0  0  0  0
  1  2  1  0  0  0  0
 22 23  2  0  0  0  0
 22 24  1  0  0  0  0
 19 20  1  0  0  0  0
 19 21  1  0  0  0  0
 17 18  2  0  0  0  0
 17 19  1  0  0  0  0
 14 15  1  0  0  0  0
 14 16  1  0  0  0  0
 14 17  1  0  0  0  0
 11 12  1  0  0  0  0
 11 13  1  0  0  0  0
 11 14  1  0  0  0  0
  9 10  1  0  0  0  0
  9 11  1  0  0  0  0
  9 22  1  0  0  0  0
  7  8  1  0  0  0  0
  7  9  1  0  0  0  0
 26 27  1  0  0  0  0
 26 28  1  0  0  0  0
 26 29  1  0  0  0  0
 24 25  1  0  0  0  0
 24 26  1  0  0  0  0
M  END
$$$$
default_name
  -OEChem-01062215323D

 29 28  0     1  0  0  0  0  0999 V2000
   -3.3998   -3.6239    1.3678 H   0  0  0  0  0  0  0  0  0  0  0  0
   -3.3608   -2.6749    0.8348 C   0  0  0  0  0  0  0  0  0  0  0  0
   -4.0988   -1.9909    1.2498 H   0  0  0  0  0  0  0  0  0  0  0  0
   -3.5618   -2.8419   -0.2222 H   0  0  0  0  0  0  0  0  0  0  0  0
   -1.9818   -2.0809    0.9918 C   0  0  0  0  0  0  0  0  0  0  0  0
   -1.1288   -2.6669    1.6468 O   0  0  0  0  0  0  0  0  0  0  0  0
   -1.7648   -0.9089    0.3998 N   0  0  0  0  0  0  0  0  0  0  0  0
   -2.5238   -0.4719   -0.1032 H   0  0  0  0  0  0  0  0  0  0  0  0
   -0.4848   -0.1959    0.4138 C   0  0  1  0  0  0  0  0  0  0  0  0
   -0.0026   -0.3263   -0.5564 H   0  0  0  0  0  0  0  0  0  0  0  0
   -0.7560    1.3072    0.6196 C   0  0  0  0  0  0  0  0  0  0  0  0
   -1.3713    1.4257    1.5138 H   0  0  0  0  0  0  0  0  0  0  0  0
    0.1920    1.8207    0.7873 H   0  0  0  0  0  0  0  0  0  0  0  0
   -1.4819    1.9759   -0.5607 C   0  0  0  0  0  0  0  0  0  0  0  0
   -0.8773    1.8847   -1.4628 H   0  0  0  0  0  0  0  0  0  0  0  0
   -2.4319    1.4678   -0.7255 H   0  0  0  0  0  0  0  0  0  0  0  0
   -1.7644    3.4604   -0.3299 C   0  0  0  0  0  0  0  0  0  0  0  0
   -1.5105    4.0358    0.7117 O   0  0  0  0  0  0  0  0  0  0  0  0
   -2.3024    4.1548   -1.3089 N   0  0  0  0  0  0  0  0  0  0  0  0
   -2.4656    5.1251   -1.1031 H   0  0  0  0  0  0  0  0  0  0  0  0
   -2.5285    3.7320   -2.1863 H   0  0  0  0  0  0  0  0  0  0  0  0
    0.4448   -0.7774    1.4902 C   0  0  0  0  0  0  0  0  0  0  0  0
    1.3854   -1.5021    1.1704 O   0  0  0  0  0  0  0  0  0  0  0  0
    0.1762   -0.4695    2.7656 N   0  0  0  0  0  0  0  0  0  0  0  0
   -0.5963    0.1507    2.9490 H   0  0  0  0  0  0  0  0  0  0  0  0
    0.9569   -0.9533    3.9034 C   0  0  0  0  0  0  0  0  0  0  0  0
    2.0046   -0.6695    3.7774 H   0  0  0  0  0  0  0  0  0  0  0  0
    0.5789   -0.5263    4.8336 H   0  0  0  0  0  0  0  0  0  0  0  0
    0.8982   -2.0419    3.9545 H   0  0  0  0  0  0  0  0  0  0  0  0
  5  6  2  0  0  0  0
  5  7  1  0  0  0  0
  2  3  1  0  0  0  0
  2  4  1  0  0  0  0
  2  5  1  0  0  0  0
  1  2  1  0  0  0  0
 22 23  2  0  0  0  0
 22 24  1  0  0  0  0
 19 20  1  0  0  0  0
 19 21  1  0  0  0  0
 17 18  2  0  0  0  0
 17 19  1  0  0  0  0
 14 15  1  0  0  0  0
 14 16  1  0  0  0  0
 14 17  1  0  0  0  0
 11 12  1  0  0  0  0
 11 13  1  0  0  0  0
 11 14  1  0  0  0  0
  9 10  1  0  0  0  0
  9 11  1  0  0  0  0
  9 22  1  0  0  0  0
  7  8  1  0  0  0  0
  7  9  1  0  0  0  0
 26 27  1  0  0  0  0
 26 28  1  0  0  0  0
 26 29  1  0  0  0  0
 24 25  1  0  0  0  0
 24 26  1  0  0  0  0
M  END
$$$$
default_name
  -OEChem-01062215323D

 29 28  0     1  0  0  0  0  0999 V2000
   -3.3998   -3.6239    1.3678 H   0  0  0  0  0  0  0  0  0  0  0  0
   -3.3608   -2.6749    0.8348 C   0  0  0  0  0  0  0  0  0  0  0  0
   -4.0988   -1.9909    1.2498 H   0  0  0  0  0  0  0  0  0  0  0  0
   -3.5618   -2.8419   -0.2222 H   0  0  0  0  0  0  0  0  0  0  0  0
   -1.9818   -2.0809    0.9918 C   0  0  0  0  0  0  0  0  0  0  0  0
   -1.1288   -2.6669    1.6468 O   0  0  0  0  0  0  0  0  0  0  0  0
   -1.7648   -0.9089    0.3998 N   0  0  0  0  0  0  0  0  0  0  0  0
   -2.5238   -0.4719   -0.1032 H   0  0  0  0  0  0  0  0  0  0  0  0
   -0.4848   -0.1959    0.4138 C   0  0  1  0  0  0  0  0  0  0  0  0
   -0.0026   -0.3263   -0.5564 H   0  0  0  0  0  0  0  0  0  0  0  0
   -0.7560    1.3072    0.6196 C   0  0  0  0  0  0  0  0  0  0  0  0
   -1.3713    1.4257    1.5138 H   0  0  0  0  0  0  0  0  0  0  0  0
    0.1920    1.8207    0.7873 H   0  0  0  0  0  0  0  0  0  0  0  0
   -1.4819    1.9759   -0.5607 C   0  0  0  0  0  0  0  0  0  0  0  0
   -0.8773    1.8847   -1.4628 H   0  0  0  0  0  0  0  0  0  0  0  0
   -2.4319    1.4678   -0.7255 H   0  0  0  0  0  0  0  0  0  0  0  0
   -1.7644    3.4604   -0.3299 C   0  0  0  0  0  0  0  0  0  0  0  0
   -1.5105    4.0358    0.7117 O   0  0  0  0  0  0  0  0  0  0  0  0
   -2.3024    4.1548   -1.3089 N   0  0  0  0  0  0  0  0  0  0  0  0
   -2.4656    5.1251   -1.1031 H   0  0  0  0  0  0  0  0  0  0  0  0
   -2.5285    3.7320   -2.1863 H   0  0  0  0  0  0  0  0  0  0  0  0
    0.4448   -0.7774    1.4902 C   0  0  0  0  0  0  0  0  0  0  0  0
    1.5288   -1.2647    1.1747 O   0  0  0  0  0  0  0  0  0  0  0  0
    0.0173   -0.7363    2.7587 N   0  0  0  0  0  0  0  0  0  0  0  0
   -0.8712   -0.2987    2.9437 H   0  0  0  0  0  0  0  0  0  0  0  0
    0.7776   -1.2590    3.8931 C   0  0  0  0  0  0  0  0  0  0  0  0
    1.7596   -0.7808    3.9289 H   0  0  0  0  0  0  0  0  0  0  0  0
    0.2494   -1.0641    4.8277 H   0  0  0  0  0  0  0  0  0  0  0  0
    0.9218   -2.3344    3.7761 H   0  0  0  0  0  0  0  0  0  0  0  0
  5  6  2  0  0  0  0
  5  7  1  0  0  0  0
  2  3  1  0  0  0  0
  2  4  1  0  0  0  0
  2  5  1  0  0  0  0
  1  2  1  0  0  0  0
 22 23  2  0  0  0  0
 22 24  1  0  0  0  0
 19 20  1  0  0  0  0
 19 21  1  0  0  0  0
 17 18  2  0  0  0  0
 17 19  1  0  0  0  0
 14 15  1  0  0  0  0
 14 16  1  0  0  0  0
 14 17  1  0  0  0  0
 11 12  1  0  0  0  0
 11 13  1  0  0  0  0
 11 14  1  0  0  0  0
  9 10  1  0  0  0  0
  9 11  1  0  0  0  0
  9 22  1  0  0  0  0
  7  8  1  0  0  0  0
  7  9  1  0  0  0  0
 26 27  1  0  0  0  0
 26 28  1  0  0  0  0
 26 29  1  0  0  0  0
 24 25  1  0  0  0  0
 24 26  1  0  0  0  0
M  END
$$$$
default_name
  -OEChem-01062215323D

 29 28  0     1  0  0  0  0  0999 V2000
   -3.3998   -3.6239    1.3678 H   0  0  0  0  0  0  0  0  0  0  0  0
   -3.3608   -2.6749    0.8348 C   0  0  0  0  0  0  0  0  0  0  0  0
   -4.0988   -1.9909    1.2498 H   0  0  0  0  0  0  0  0  0  0  0  0
   -3.5618   -2.8419   -0.2222 H   0  0  0  0  0  0  0  0  0  0  0  0
   -1.9818   -2.0809    0.9918 C   0  0  0  0  0  0  0  0  0  0  0  0
   -1.1288   -2.6669    1.6468 O   0  0  0  0  0  0  0  0  0  0  0  0
   -1.7648   -0.9089    0.3998 N   0  0  0  0  0  0  0  0  0  0  0  0
   -2.5238   -0.4719   -0.1032 H   0  0  0  0  0  0  0  0  0  0  0  0
   -0.4848   -0.1959    0.4138 C   0  0  1  0  0  0  0  0  0  0  0  0
   -0.0026   -0.3263   -0.5564 H   0  0  0  0  0  0  0  0  0  0  0  0
   -0.7560    1.3072    0.6196 C   0  0  0  0  0  0  0  0  0  0  0  0
   -1.3713    1.4257    1.5138 H   0  0  0  0  0  0  0  0  0  0  0  0
    0.1920    1.8207    0.7873 H   0  0  0  0  0  0  0  0  0  0  0  0
   -1.4819    1.9759   -0.5607 C   0  0  0  0  0  0  0  0  0  0  0  0
   -0.8773    1.8847   -1.4628 H   0  0  0  0  0  0  0  0  0  0  0  0
   -2.4319    1.4678   -0.7255 H   0  0  0  0  0  0  0  0  0  0  0  0
   -1.7644    3.4604   -0.3299 C   0  0  0  0  0  0  0  0  0  0  0  0
   -1.5105    4.0358    0.7117 O   0  0  0  0  0  0  0  0  0  0  0  0
   -2.3024    4.1548   -1.3089 N   0  0  0  0  0  0  0  0  0  0  0  0
   -2.4656    5.1251   -1.1031 H   0  0  0  0  0  0  0  0  0  0  0  0
   -2.5285    3.7320   -2.1863 H   0  0  0  0  0  0  0  0  0  0  0  0
    0.4448   -0.7774    1.4902 C   0  0  0  0  0  0  0  0  0  0  0  0
    1.6239   -1.0102    1.2301 O   0  0  0  0  0  0  0  0  0  0  0  0
   -0.0872   -1.0218    2.6947 N   0  0  0  0  0  0  0  0  0  0  0  0
   -1.0546   -0.7817    2.8412 H   0  0  0  0  0  0  0  0  0  0  0  0
    0.6608   -1.5852    3.8178 C   0  0  0  0  0  0  0  0  0  0  0  0
    1.5282   -0.9565    4.0338 H   0  0  0  0  0  0  0  0  0  0  0  0
    0.0291   -1.6424    4.7055 H   0  0  0  0  0  0  0  0  0  0  0  0
    1.0151   -2.5848    3.5603 H   0  0  0  0  0  0  0  0  0  0  0  0
  5  6  2  0  0  0  0
  5  7  1  0  0  0  0
  2  3  1  0  0  0  0
  2  4  1  0  0  0  0
  2  5  1  0  0  0  0
  1  2  1  0  0  0  0
 22 23  2  0  0  0  0
 22 24  1  0  0  0  0
 19 20  1  0  0  0  0
 19 21  1  0  0  0  0
 17 18  2  0  0  0  0
 17 19  1  0  0  0  0
 14 15  1  0  0  0  0
 14 16  1  0  0  0  0
 14 17  1  0  0  0  0
 11 12  1  0  0  0  0
 11 13  1  0  0  0  0
 11 14  1  0  0  0  0
  9 10  1  0  0  0  0
  9 11  1  0  0  0  0
  9 22  1  0  0  0  0
  7  8  1  0  0  0  0
  7  9  1  0  0  0  0
 26 27  1  0  0  0  0
 26 28  1  0  0  0  0
 26 29  1  0  0  0  0
 24 25  1  0  0  0  0
 24 26  1  0  0  0  0
M  END
$$$$
default_name
  -OEChem-01062215323D

 29 28  0     1  0  0  0  0  0999 V2000
   -3.3998   -3.6239    1.3678 H   0  0  0  0  0  0  0  0  0  0  0  0
   -3.3608   -2.6749    0.8348 C   0  0  0  0  0  0  0  0  0  0  0  0
   -4.0988   -1.9909    1.2498 H   0  0  0  0  0  0  0  0  0  0  0  0
   -3.5618   -2.8419   -0.2222 H   0  0  0  0  0  0  0  0  0  0  0  0
   -1.9818   -2.0809    0.9918 C   0  0  0  0  0  0  0  0  0  0  0  0
   -1.1288   -2.6669    1.6468 O   0  0  0  0  0  0  0  0  0  0  0  0
   -1.7648   -0.9089    0.3998 N   0  0  0  0  0  0  0  0  0  0  0  0
   -2.5238   -0.4719   -0.1032 H   0  0  0  0  0  0  0  0  0  0  0  0
   -0.4848   -0.1959    0.4138 C   0  0  1  0  0  0  0  0  0  0  0  0
   -0.0026   -0.3263   -0.5564 H   0  0  0  0  0  0  0  0  0  0  0  0
   -0.7560    1.3072    0.6196 C   0  0  0  0  0  0  0  0  0  0  0  0
   -1.3713    1.4257    1.5138 H   0  0  0  0  0  0  0  0  0  0  0  0
    0.1920    1.8207    0.7873 H   0  0  0  0  0  0  0  0  0  0  0  0
   -1.4819    1.9759   -0.5607 C   0  0  0  0  0  0  0  0  0  0  0  0
   -0.8773    1.8847   -1.4628 H   0  0  0  0  0  0  0  0  0  0  0  0
   -2.4319    1.4678   -0.7255 H   0  0  0  0  0  0  0  0  0  0  0  0
   -1.7644    3.4604   -0.3299 C   0  0  0  0  0  0  0  0  0  0  0  0
   -1.5105    4.0358    0.7117 O   0  0  0  0  0  0  0  0  0  0  0  0
   -2.3024    4.1548   -1.3089 N   0  0  0  0  0  0  0  0  0  0  0  0
   -2.4656    5.1251   -1.1031 H   0  0  0  0  0  0  0  0  0  0  0  0
   -2.5285    3.7320   -2.1863 H   0  0  0  0  0  0  0  0  0  0  0  0
    0.4448   -0.7774    1.4902 C   0  0  0  0  0  0  0  0  0  0  0  0
    1.6642   -0.7557    1.3328 O   0  0  0  0  0  0  0  0  0  0  0  0
   -0.1300   -1.3064    2.5779 N   0  0  0  0  0  0  0  0  0  0  0  0
   -1.1342   -1.2655    2.6486 H   0  0  0  0  0  0  0  0  0  0  0  0
    0.6146   -1.9096    3.6825 C   0  0  0  0  0  0  0  0  0  0  0  0
    1.3263   -1.1846    4.0850 H   0  0  0  0  0  0  0  0  0  0  0  0
   -0.0668   -2.2217    4.4754 H   0  0  0  0  0  0  0  0  0  0  0  0
    1.1718   -2.7759    3.3218 H   0  0  0  0  0  0  0  0  0  0  0  0
  5  6  2  0  0  0  0
  5  7  1  0  0  0  0
  2  3  1  0  0  0  0
  2  4  1  0  0  0  0
  2  5  1  0  0  0  0
  1  2  1  0  0  0  0
 22 23  2  0  0  0  0
 22 24  1  0  0  0  0
 19 20  1  0  0  0  0
 19 21  1  0  0  0  0
 17 18  2  0  0  0  0
 17 19  1  0  0  0  0
 14 15  1  0  0  0  0
 14 16  1  0  0  0  0
 14 17  1  0  0  0  0
 11 12  1  0  0  0  0
 11 13  1  0  0  0  0
 11 14  1  0  0  0  0
  9 10  1  0  0  0  0
  9 11  1  0  0  0  0
  9 22  1  0  0  0  0
  7  8  1  0  0  0  0
  7  9  1  0  0  0  0
 26 27  1  0  0  0  0
 26 28  1  0  0  0  0
 26 29  1  0  0  0  0
 24 25  1  0  0  0  0
 24 26  1  0  0  0  0
M  END
$$$$
default_name
  -OEChem-01062215323D

 29 28  0     1  0  0  0  0  0999 V2000
   -3.3998   -3.6239    1.3678 H   0  0  0  0  0  0  0  0  0  0  0  0
   -3.3608   -2.6749    0.8348 C   0  0  0  0  0  0  0  0  0  0  0  0
   -4.0988   -1.9909    1.2498 H   0  0  0  0  0  0  0  0  0  0  0  0
   -3.5618   -2.8419   -0.2222 H   0  0  0  0  0  0  0  0  0  0  0  0
   -1.9818   -2.0809    0.9918 C   0  0  0  0  0  0  0  0  0  0  0  0
   -1.1288   -2.6669    1.6468 O   0  0  0  0  0  0  0  0  0  0  0  0
   -1.7648   -0.9089    0.3998 N   0  0  0  0  0  0  0  0  0  0  0  0
   -2.5238   -0.4719   -0.1032 H   0  0  0  0  0  0  0  0  0  0  0  0
   -0.4848   -0.1959    0.4138 C   0  0  1  0  0  0  0  0  0  0  0  0
   -0.0026   -0.3263   -0.5564 H   0  0  0  0  0  0  0  0  0  0  0  0
   -0.7560    1.3072    0.6196 C   0  0  0  0  0  0  0  0  0  0  0  0
   -1.3713    1.4257    1.5138 H   0  0  0  0  0  0  0  0  0  0  0  0
    0.1920    1.8207    0.7873 H   0  0  0  0  0  0  0  0  0  0  0  0
   -1.4819    1.9759   -0.5607 C   0  0  0  0  0  0  0  0  0  0  0  0
   -0.8773    1.8847   -1.4628 H   0  0  0  0  0  0  0  0  0  0  0  0
   -2.4319    1.4678   -0.7255 H   0  0  0  0  0  0  0  0  0  0  0  0
   -1.7644    3.4604   -0.3299 C   0  0  0  0  0  0  0  0  0  0  0  0
   -1.5105    4.0358    0.7117 O   0  0  0  0  0  0  0  0  0  0  0  0
   -2.3024    4.1548   -1.3089 N   0  0  0  0  0  0  0  0  0  0  0  0
   -2.4656    5.1251   -1.1031 H   0  0  0  0  0  0  0  0  0  0  0  0
   -2.5285    3.7320   -2.1863 H   0  0  0  0  0  0  0  0  0  0  0  0
    0.4448   -0.7774    1.4902 C   0  0  0  0  0  0  0  0  0  0  0  0
    1.6469   -0.5187    1.4757 O   0  0  0  0  0  0  0  0  0  0  0  0
   -0.1084   -1.5709    2.4164 N   0  0  0  0  0  0  0  0  0  0  0  0
   -1.1045   -1.7171    2.3790 H   0  0  0  0  0  0  0  0  0  0  0  0
    0.6420   -2.2102    3.4964 C   0  0  0  0  0  0  0  0  0  0  0  0
    1.1676   -1.4495    4.0790 H   0  0  0  0  0  0  0  0  0  0  0  0
   -0.0318   -2.7627    4.1530 H   0  0  0  0  0  0  0  0  0  0  0  0
    1.3811   -2.8948    3.0768 H   0  0  0  0  0  0  0  0  0  0  0  0
  5  6  2  0  0  0  0
  5  7  1  0  0  0  0
  2  3  1  0  0  0  0
  2  4  1  0  0  0  0
  2  5  1  0  0  0  0
  1  2  1  0  0  0  0
 22 23  2  0  0  0  0
 22 24  1  0  0  0  0
 19 20  1  0  0  0  0
 19 21  1  0  0  0  0
 17 18  2  0  0  0  0
 17 19  1  0  0  0  0
 14 15  1  0  0  0  0
 14 16  1  0  0  0  0
 14 17  1  0  0  0  0
 11 12  1  0  0  0  0
 11 13  1  0  0  0  0
 11 14  1  0  0  0  0
  9 10  1  0  0  0  0
  9 11  1  0  0  0  0
  9 22  1  0  0  0  0
  7  8  1  0  0  0  0
  7  9  1  0  0  0  0
 26 27  1  0  0  0  0
 26 28  1  0  0  0  0
 26 29  1  0  0  0  0
 24 25  1  0  0  0  0
 24 26  1  0  0  0  0
M  END
$$$$
default_name
  -OEChem-01062215323D

 29 28  0     1  0  0  0  0  0999 V2000
   -3.3998   -3.6239    1.3678 H   0  0  0  0  0  0  0  0  0  0  0  0
   -3.3608   -2.6749    0.8348 C   0  0  0  0  0  0  0  0  0  0  0  0
   -4.0988   -1.9909    1.2498 H   0  0  0  0  0  0  0  0  0  0  0  0
   -3.5618   -2.8419   -0.2222 H   0  0  0  0  0  0  0  0  0  0  0  0
   -1.9818   -2.0809    0.9918 C   0  0  0  0  0  0  0  0  0  0  0  0
   -1.1288   -2.6669    1.6468 O   0  0  0  0  0  0  0  0  0  0  0  0
   -1.7648   -0.9089    0.3998 N   0  0  0  0  0  0  0  0  0  0  0  0
   -2.5238   -0.4719   -0.1032 H   0  0  0  0  0  0  0  0  0  0  0  0
   -0.4848   -0.1959    0.4138 C   0  0  1  0  0  0  0  0  0  0  0  0
   -0.0026   -0.3263   -0.5564 H   0  0  0  0  0  0  0  0  0  0  0  0
   -0.7560    1.3072    0.6196 C   0  0  0  0  0  0  0  0  0  0  0  0
   -1.3713    1.4257    1.5138 H   0  0  0  0  0  0  0  0  0  0  0  0
    0.1920    1.8207    0.7873 H   0  0  0  0  0  0  0  0  0  0  0  0
   -1.4819    1.9759   -0.5607 C   0  0  0  0  0  0  0  0  0  0  0  0
   -0.8773    1.8847   -1.4628 H   0  0  0  0  0  0  0  0  0  0  0  0
   -2.4319    1.4678   -0.7255 H   0  0  0  0  0  0  0  0  0  0  0  0
   -1.7644    3.4604   -0.3299 C   0  0  0  0  0  0  0  0  0  0  0  0
   -1.5105    4.0358    0.7117 O   0  0  0  0  0  0  0  0  0  0  0  0
   -2.3024    4.1548   -1.3089 N   0  0  0  0  0  0  0  0  0  0  0  0
   -2.4656    5.1251   -1.1031 H   0  0  0  0  0  0  0  0  0  0  0  0
   -2.5285    3.7320   -2.1863 H   0  0  0  0  0  0  0  0  0  0  0  0
    0.4448   -0.7774    1.4902 C   0  0  0  0  0  0  0  0  0  0  0  0
    1.5732   -0.3153    1.6493 O   0  0  0  0  0  0  0  0  0  0  0  0
   -0.0237   -1.7971    2.2211 N   0  0  0  0  0  0  0  0  0  0  0  0
   -0.9675   -2.1057    2.0508 H   0  0  0  0  0  0  0  0  0  0  0  0
    0.7412   -2.4664    3.2724 C   0  0  0  0  0  0  0  0  0  0  0  0
    1.0629   -1.7332    4.0161 H   0  0  0  0  0  0  0  0  0  0  0  0
    0.1316   -3.2285    3.7602 H   0  0  0  0  0  0  0  0  0  0  0  0
    1.6288   -2.9333    2.8421 H   0  0  0  0  0  0  0  0  0  0  0  0
  5  6  2  0  0  0  0
  5  7  1  0  0  0  0
  2  3  1  0  0  0  0
  2  4  1  0  0  0  0
  2  5  1  0  0  0  0
  1  2  1  0  0  0  0
 22 23  2  0  0  0  0
 22 24  1  0  0  0  0
 19 20  1  0  0  0  0
 19 21  1  0  0  0  0
 17 18  2  0  0  0  0
 17 19  1  0  0  0  0
 14 15  1  0  0  0  0
 14 16  1  0  0  0  0
 14 17  1  0  0  0  0
 11 12  1  0  0  0  0
 11 13  1  0  0  0  0
 11 14  1  0  0  0  0
  9 10  1  0  0  0  0
  9 11  1  0  0  0  0
  9 22  1  0  0  0  0
  7  8  1  0  0  0  0
  7  9  1  0  0  0  0
 26 27  1  0  0  0  0
 26 28  1  0  0  0  0
 26 29  1  0  0  0  0
 24 25  1  0  0  0  0
 24 26  1  0  0  0  0
M  END
$$$$
default_name
  -OEChem-01062215323D

 29 28  0     1  0  0  0  0  0999 V2000
   -3.3998   -3.6239    1.3678 H   0  0  0  0  0  0  0  0  0  0  0  0
   -3.3608   -2.6749    0.8348 C   0  0  0  0  0  0  0  0  0  0  0  0
   -4.0988   -1.9909    1.2498 H   0  0  0  0  0  0  0  0  0  0  0  0
   -3.5618   -2.8419   -0.2222 H   0  0  0  0  0  0  0  0  0  0  0  0
   -1.9818   -2.0809    0.9918 C   0  0  0  0  0  0  0  0  0  0  0  0
   -1.1288   -2.6669    1.6468 O   0  0  0  0  0  0  0  0  0  0  0  0
   -1.7648   -0.9089    0.3998 N   0  0  0  0  0  0  0  0  0  0  0  0
   -2.5238   -0.4719   -0.1032 H   0  0  0  0  0  0  0  0  0  0  0  0
   -0.4848   -0.1959    0.4138 C   0  0  1  0  0  0  0  0  0  0  0  0
   -0.0026   -0.3263   -0.5564 H   0  0  0  0  0  0  0  0  0  0  0  0
   -0.7560    1.3072    0.6196 C   0  0  0  0  0  0  0  0  0  0  0  0
   -1.3713    1.4257    1.5138 H   0  0  0  0  0  0  0  0  0  0  0  0
    0.1920    1.8207    0.7873 H   0  0  0  0  0  0  0  0  0  0  0  0
   -1.4819    1.9759   -0.5607 C   0  0  0  0  0  0  0  0  0  0  0  0
   -0.8773    1.8847   -1.4628 H   0  0  0  0  0  0  0  0  0  0  0  0
   -2.4319    1.4678   -0.7255 H   0  0  0  0  0  0  0  0  0  0  0  0
   -1.7644    3.4604   -0.3299 C   0  0  0  0  0  0  0  0  0  0  0  0
   -1.5105    4.0358    0.7117 O   0  0  0  0  0  0  0  0  0  0  0  0
   -2.3024    4.1548   -1.3089 N   0  0  0  0  0  0  0  0  0  0  0  0
   -2.4656    5.1251   -1.1031 H   0  0  0  0  0  0  0  0  0  0  0  0
   -2.5285    3.7320   -2.1863 H   0  0  0  0  0  0  0  0  0  0  0  0
    0.4448   -0.7774    1.4902 C   0  0  0  0  0  0  0  0  0  0  0  0
    1.4482   -0.1593    1.8415 O   0  0  0  0  0  0  0  0  0  0  0  0
    0.1183   -1.9697    2.0053 N   0  0  0  0  0  0  0  0  0  0  0  0
   -0.7326   -2.4048    1.6863 H   0  0  0  0  0  0  0  0  0  0  0  0
    0.9054   -2.6608    3.0255 C   0  0  0  0  0  0  0  0  0  0  0  0
    1.0194   -2.0164    3.9007 H   0  0  0  0  0  0  0  0  0  0  0  0
    0.4124   -3.5872    3.3240 H   0  0  0  0  0  0  0  0  0  0  0  0
    1.8981   -2.8888    2.6336 H   0  0  0  0  0  0  0  0  0  0  0  0
  5  6  2  0  0  0  0
  5  7  1  0  0  0  0
  2  3  1  0  0  0  0
  2  4  1  0  0  0  0
  2  5  1  0  0  0  0
  1  2  1  0  0  0  0
 22 23  2  0  0  0  0
 22 24  1  0  0  0  0
 19 20  1  0  0  0  0
 19 21  1  0  0  0  0
 17 18  2  0  0  0  0
 17 19  1  0  0  0  0
 14 15  1  0  0  0  0
 14 16  1  0  0  0  0
 14 17  1  0  0  0  0
 11 12  1  0  0  0  0
 11 13  1  0  0  0  0
 11 14  1  0  0  0  0
  9 10  1  0  0  0  0
  9 11  1  0  0  0  0
  9 22  1  0  0  0  0
  7  8  1  0  0  0  0
  7  9  1  0  0  0  0
 26 27  1  0  0  0  0
 26 28  1  0  0  0  0
 26 29  1  0  0  0  0
 24 25  1  0  0  0  0
 24 26  1  0  0  0  0
M  END
$$$$
default_name
  -OEChem-01062215323D

 29 28  0     1  0  0  0  0  0999 V2000
   -3.3998   -3.6239    1.3678 H   0  0  0  0  0  0  0  0  0  0  0  0
   -3.3608   -2.6749    0.8348 C   0  0  0  0  0  0  0  0  0  0  0  0
   -4.0988   -1.9909    1.2498 H   0  0  0  0  0  0  0  0  0  0  0  0
   -3.5618   -2.8419   -0.2222 H   0  0  0  0  0  0  0  0  0  0  0  0
   -1.9818   -2.0809    0.9918 C   0  0  0  0  0  0  0  0  0  0  0  0
   -1.1288   -2.6669    1.6468 O   0  0  0  0  0  0  0  0  0  0  0  0
   -1.7648   -0.9089    0.3998 N   0  0  0  0  0  0  0  0  0  0  0  0
   -2.5238   -0.4719   -0.1032 H   0  0  0  0  0  0  0  0  0  0  0  0
   -0.4848   -0.1959    0.4138 C   0  0  1  0  0  0  0  0  0  0  0  0
   -0.0026   -0.3263   -0.5564 H   0  0  0  0  0  0  0  0  0  0  0  0
   -0.7560    1.3072    0.6196 C   0  0  0  0  0  0  0  0  0  0  0  0
   -1.3713    1.4257    1.5138 H   0  0  0  0  0  0  0  0  0  0  0  0
    0.1920    1.8207    0.7873 H   0  0  0  0  0  0  0  0  0  0  0  0
   -1.4819    1.9759   -0.5607 C   0  0  0  0  0  0  0  0  0  0  0  0
   -0.8773    1.8847   -1.4628 H   0  0  0  0  0  0  0  0  0  0  0  0
   -2.4319    1.4678   -0.7255 H   0  0  0  0  0  0  0  0  0  0  0  0
   -1.7644    3.4604   -0.3299 C   0  0  0  0  0  0  0  0  0  0  0  0
   -1.5105    4.0358    0.7117 O   0  0  0  0  0  0  0  0  0  0  0  0
   -2.3024    4.1548   -1.3089 N   0  0  0  0  0  0  0  0  0  0  0  0
   -2.4656    5.1251   -1.1031 H   0  0  0  0  0  0  0  0  0  0  0  0
   -2.5285    3.7320   -2.1863 H   0  0  0  0  0  0  0  0  0  0  0  0
    0.4448   -0.7774    1.4902 C   0  0  0  0  0  0  0  0  0  0  0  0
    1.2803   -0.0614    2.0393 O   0  0  0  0  0  0  0  0  0  0  0  0
    0.3078   -2.0768    1.7837 N   0  0  0  0  0  0  0  0  0  0  0  0
   -0.4158   -2.5941    1.3105 H   0  0  0  0  0  0  0  0  0  0  0  0
    1.1235   -2.7802    2.7727 C   0  0  0  0  0  0  0  0  0  0  0  0
    1.0401   -2.2797    3.7406 H   0  0  0  0  0  0  0  0  0  0  0  0
    0.7914   -3.8146    2.8739 H   0  0  0  0  0  0  0  0  0  0  0  0
    2.1705   -2.7644    2.4655 H   0  0  0  0  0  0  0  0  0  0  0  0
  5  6  2  0  0  0  0
  5  7  1  0  0  0  0
  2  3  1  0  0  0  0
  2  4  1  0  0  0  0
  2  5  1  0  0  0  0
  1  2  1  0  0  0  0
 22 23  2  0  0  0  0
 22 24  1  0  0  0  0
 19 20  1  0  0  0  0
 19 21  1  0  0  0  0
 17 18  2  0  0  0  0
 17 19  1  0  0  0  0
 14 15  1  0  0  0  0
 14 16  1  0  0  0  0
 14 17  1  0  0  0  0
 11 12  1  0  0  0  0
 11 13  1  0  0  0  0
 11 14  1  0  0  0  0
  9 10  1  0  0  0  0
  9 11  1  0  0  0  0
  9 22  1  0  0  0  0
  7  8  1  0  0  0  0
  7  9  1  0  0  0  0
 26 27  1  0  0  0  0
 26 28  1  0  0  0  0
 26 29  1  0  0  0  0
 24 25  1  0  0  0  0
 24 26  1  0  0  0  0
M  END
$$$$
default_name
  -OEChem-01062215323D

 29 28  0     1  0  0  0  0  0999 V2000
   -3.3998   -3.6239    1.3678 H   0  0  0  0  0  0  0  0  0  0  0  0
   -3.3608   -2.6749    0.8348 C   0  0  0  0  0  0  0  0  0  0  0  0
   -4.0988   -1.9909    1.2498 H   0  0  0  0  0  0  0  0  0  0  0  0
   -3.5618   -2.8419   -0.2222 H   0  0  0  0  0  0  0  0  0  0  0  0
   -1.9818   -2.0809    0.9918 C   0  0  0  0  0  0  0  0  0  0  0  0
   -1.1288   -2.6669    1.6468 O   0  0  0  0  0  0  0  0  0  0  0  0
   -1.7648   -0.9089    0.3998 N   0  0  0  0  0  0  0  0  0  0  0  0
   -2.5238   -0.4719   -0.1032 H   0  0  0  0  0  0  0  0  0  0  0  0
   -0.4848   -0.1959    0.4138 C   0  0  1  0  0  0  0  0  0  0  0  0
   -0.0026   -0.3263   -0.5564 H   0  0  0  0  0  0  0  0  0  0  0  0
   -0.7560    1.3072    0.6196 C   0  0  0  0  0  0  0  0  0  0  0  0
   -1.3713    1.4257    1.5138 H   0  0  0  0  0  0  0  0  0  0  0  0
    0.1920    1.8207    0.7873 H   0  0  0  0  0  0  0  0  0  0  0  0
   -1.4819    1.9759   -0.5607 C   0  0  0  0  0  0  0  0  0  0  0  0
   -0.8773    1.8847   -1.4628 H   0  0  0  0  0  0  0  0  0  0  0  0
   -2.4319    1.4678   -0.7255 H   0  0  0  0  0  0  0  0  0  0  0  0
   -1.7644    3.4604   -0.3299 C   0  0  0  0  0  0  0  0  0  0  0  0
   -1.5105    4.0358    0.7117 O   0  0  0  0  0  0  0  0  0  0  0  0
   -2.3024    4.1548   -1.3089 N   0  0  0  0  0  0  0  0  0  0  0  0
   -2.4656    5.1251   -1.1031 H   0  0  0  0  0  0  0  0  0  0  0  0
   -2.5285    3.7320   -2.1863 H   0  0  0  0  0  0  0  0  0  0  0  0
    0.4448   -0.7774    1.4902 C   0  0  0  0  0  0  0  0  0  0  0  0
    1.0810   -0.0283    2.2293 O   0  0  0  0  0  0  0  0  0  0  0  0
    0.5320   -2.1113    1.5715 N   0  0  0  0  0  0  0  0  0  0  0  0
   -0.0386   -2.6606    0.9488 H   0  0  0  0  0  0  0  0  0  0  0  0
    1.3805   -2.8164    2.5312 C   0  0  0  0  0  0  0  0  0  0  0  0
    1.1234   -2.5053    3.5468 H   0  0  0  0  0  0  0  0  0  0  0  0
    1.2427   -3.8949    2.4407 H   0  0  0  0  0  0  0  0  0  0  0  0
    2.4276   -2.5684    2.3493 H   0  0  0  0  0  0  0  0  0  0  0  0
  5  6  2  0  0  0  0
  5  7  1  0  0  0  0
  2  3  1  0  0  0  0
  2  4  1  0  0  0  0
  2  5  1  0  0  0  0
  1  2  1  0  0  0  0
 22 23  2  0  0  0  0
 22 24  1  0  0  0  0
 19 20  1  0  0  0  0
 19 21  1  0  0  0  0
 17 18  2  0  0  0  0
 17 19  1  0  0  0  0
 14 15  1  0  0  0  0
 14 16  1  0  0  0  0
 14 17  1  0  0  0  0
 11 12  1  0  0  0  0
 11 13  1  0  0  0  0
 11 14  1  0  0  0  0
  9 10  1  0  0  0  0
  9 11  1  0  0  0  0
  9 22  1  0  0  0  0
  7  8  1  0  0  0  0
  7  9  1  0  0  0  0
 26 27  1  0  0  0  0
 26 28  1  0  0  0  0
 26 29  1  0  0  0  0
 24 25  1  0  0  0  0
 24 26  1  0  0  0  0
M  END
$$$$
default_name
  -OEChem-01062215323D

 29 28  0     1  0  0  0  0  0999 V2000
   -3.3998   -3.6239    1.3678 H   0  0  0  0  0  0  0  0  0  0  0  0
   -3.3608   -2.6749    0.8348 C   0  0  0  0  0  0  0  0  0  0  0  0
   -4.0988   -1.9909    1.2498 H   0  0  0  0  0  0  0  0  0  0  0  0
   -3.5618   -2.8419   -0.2222 H   0  0  0  0  0  0  0  0  0  0  0  0
   -1.9818   -2.0809    0.9918 C   0  0  0  0  0  0  0  0  0  0  0  0
   -1.1288   -2.6669    1.6468 O   0  0  0  0  0  0  0  0  0  0  0  0
   -1.7648   -0.9089    0.3998 N   0  0  0  0  0  0  0  0  0  0  0  0
   -2.5238   -0.4719   -0.1032 H   0  0  0  0  0  0  0  0  0  0  0  0
   -0.4848   -0.1959    0.4138 C   0  0  1  0  0  0  0  0  0  0  0  0
   -0.0026   -0.3263   -0.5564 H   0  0  0  0  0  0  0  0  0  0  0  0
   -0.7560    1.3072    0.6196 C   0  0  0  0  0  0  0  0  0  0  0  0
   -1.3713    1.4257    1.5138 H   0  0  0  0  0  0  0  0  0  0  0  0
    0.1920    1.8207    0.7873 H   0  0  0  0  0  0  0  0  0  0  0  0
   -1.4819    1.9759   -0.5607 C   0  0  0  0  0  0  0  0  0  0  0  0
   -0.8773    1.8847   -1.4628 H   0  0  0  0  0  0  0  0  0  0  0  0
   -2.4319    1.4678   -0.7255 H   0  0  0  0  0  0  0  0  0  0  0  0
   -1.7644    3.4604   -0.3299 C   0  0  0  0  0  0  0  0  0  0  0  0
   -1.5105    4.0358    0.7117 O   0  0  0  0  0  0  0  0  0  0  0  0
   -2.3024    4.1548   -1.3089 N   0  0  0  0  0  0  0  0  0  0  0  0
   -2.4656    5.1251   -1.1031 H   0  0  0  0  0  0  0  0  0  0  0  0
   -2.5285    3.7320   -2.1863 H   0  0  0  0  0  0  0  0  0  0  0  0
    0.4448   -0.7774    1.4902 C   0  0  0  0  0  0  0  0  0  0  0  0
    0.8639   -0.0622    2.3985 O   0  0  0  0  0  0  0  0  0  0  0  0
    0.7756   -2.0707    1.3830 N   0  0  0  0  0  0  0  0  0  0  0  0
    0.3732   -2.5999    0.6260 H   0  0  0  0  0  0  0  0  0  0  0  0
    1.6590   -2.7669    2.3175 C   0  0  0  0  0  0  0  0  0  0  0  0
    1.2638   -2.6777    3.3324 H   0  0  0  0  0  0  0  0  0  0  0  0
    1.7357   -3.8229    2.0539 H   0  0  0  0  0  0  0  0  0  0  0  0
    2.6518   -2.3144    2.2930 H   0  0  0  0  0  0  0  0  0  0  0  0
  5  6  2  0  0  0  0
  5  7  1  0  0  0  0
  2  3  1  0  0  0  0
  2  4  1  0  0  0  0
  2  5  1  0  0  0  0
  1  2  1  0  0  0  0
 22 23  2  0  0  0  0
 22 24  1  0  0  0  0
 19 20  1  0  0  0  0
 19 21  1  0  0  0  0
 17 18  2  0  0  0  0
 17 19  1  0  0  0  0
 14 15  1  0  0  0  0
 14 16  1  0  0  0  0
 14 17  1  0  0  0  0
 11 12  1  0  0  0  0
 11 13  1  0  0  0  0
 11 14  1  0  0  0  0
  9 10  1  0  0  0  0
  9 11  1  0  0  0  0
  9 22  1  0  0  0  0
  7  8  1  0  0  0  0
  7  9  1  0  0  0  0
 26 27  1  0  0  0  0
 26 28  1  0  0  0  0
 26 29  1  0  0  0  0
 24 25  1  0  0  0  0
 24 26  1  0  0  0  0
M  END
$$$$
default_name
  -OEChem-01062215323D

 29 28  0     1  0  0  0  0  0999 V2000
   -3.3998   -3.6239    1.3678 H   0  0  0  0  0  0  0  0  0  0  0  0
   -3.3608   -2.6749    0.8348 C   0  0  0  0  0  0  0  0  0  0  0  0
   -4.0988   -1.9909    1.2498 H   0  0  0  0  0  0  0  0  0  0  0  0
   -3.5618   -2.8419   -0.2222 H   0  0  0  0  0  0  0  0  0  0  0  0
   -1.9818   -2.0809    0.9918 C   0  0  0  0  0  0  0  0  0  0  0  0
   -1.1288   -2.6669    1.6468 O   0  0  0  0  0  0  0  0  0  0  0  0
   -1.7648   -0.9089    0.3998 N   0  0  0  0  0  0  0  0  0  0  0  0
   -2.5238   -0.4719   -0.1032 H   0  0  0  0  0  0  0  0  0  0  0  0
   -0.4848   -0.1959    0.4138 C   0  0  1  0  0  0  0  0  0  0  0  0
   -0.0026   -0.3263   -0.5564 H   0  0  0  0  0  0  0  0  0  0  0  0
   -0.7560    1.3072    0.6196 C   0  0  0  0  0  0  0  0  0  0  0  0
   -1.3713    1.4257    1.5138 H   0  0  0  0  0  0  0  0  0  0  0  0
    0.1920    1.8207    0.7873 H   0  0  0  0  0  0  0  0  0  0  0  0
   -1.4819    1.9759   -0.5607 C   0  0  0  0  0  0  0  0  0  0  0  0
   -0.8773    1.8847   -1.4628 H   0  0  0  0  0  0  0  0  0  0  0  0
   -2.4319    1.4678   -0.7255 H   0  0  0  0  0  0  0  0  0  0  0  0
   -1.7644    3.4604   -0.3299 C   0  0  0  0  0  0  0  0  0  0  0  0
   -1.5105    4.0358    0.7117 O   0  0  0  0  0  0  0  0  0  0  0  0
   -2.3024    4.1548   -1.3089 N   0  0  0  0  0  0  0  0  0  0  0  0
   -2.4656    5.1251   -1.1031 H   0  0  0  0  0  0  0  0  0  0  0  0
   -2.5285    3.7320   -2.1863 H   0  0  0  0  0  0  0  0  0  0  0  0
    0.4448   -0.7774    1.4902 C   0  0  0  0  0  0  0  0  0  0  0  0
    0.6437   -0.1608    2.5354 O   0  0  0  0  0  0  0  0  0  0  0  0
    1.0220   -1.9578    1.2312 N   0  0  0  0  0  0  0  0  0  0  0  0
    0.7916   -2.4160    0.3640 H   0  0  0  0  0  0  0  0  0  0  0  0
    1.9399   -2.6352    2.1460 C   0  0  0  0  0  0  0  0  0  0  0  0
    1.4517   -2.7852    3.1121 H   0  0  0  0  0  0  0  0  0  0  0  0
    2.2367   -3.6033    1.7398 H   0  0  0  0  0  0  0  0  0  0  0  0
    2.8277   -2.0195    2.3003 H   0  0  0  0  0  0  0  0  0  0  0  0
  5  6  2  0  0  0  0
  5  7  1  0  0  0  0
  2  3  1  0  0  0  0
  2  4  1  0  0  0  0
  2  5  1  0  0  0  0
  1  2  1  0  0  0  0
 22 23  2  0  0  0  0
 22 24  1  0  0  0  0
 19 20  1  0  0  0  0
 19 21  1  0  0  0  0
 17 18  2  0  0  0  0
 17 19  1  0  0  0  0
 14 15  1  0  0  0  0
 14 16  1  0  0  0  0
 14 17  1  0  0  0  0
 11 12  1  0  0  0  0
 11 13  1  0  0  0  0
 11 14  1  0  0  0  0
  9 10  1  0  0  0  0
  9 11  1  0  0  0  0
  9 22  1  0  0  0  0
  7  8  1  0  0  0  0
  7  9  1  0  0  0  0
 26 27  1  0  0  0  0
 26 28  1  0  0  0  0
 26 29  1  0  0  0  0
 24 25  1  0  0  0  0
 24 26  1  0  0  0  0
M  END
$$$$
default_name
  -OEChem-01062215323D

 29 28  0     1  0  0  0  0  0999 V2000
   -3.3998   -3.6239    1.3678 H   0  0  0  0  0  0  0  0  0  0  0  0
   -3.3608   -2.6749    0.8348 C   0  0  0  0  0  0  0  0  0  0  0  0
   -4.0988   -1.9909    1.2498 H   0  0  0  0  0  0  0  0  0  0  0  0
   -3.5618   -2.8419   -0.2222 H   0  0  0  0  0  0  0  0  0  0  0  0
   -1.9818   -2.0809    0.9918 C   0  0  0  0  0  0  0  0  0  0  0  0
   -1.1288   -2.6669    1.6468 O   0  0  0  0  0  0  0  0  0  0  0  0
   -1.7648   -0.9089    0.3998 N   0  0  0  0  0  0  0  0  0  0  0  0
   -2.5238   -0.4719   -0.1032 H   0  0  0  0  0  0  0  0  0  0  0  0
   -0.4848   -0.1959    0.4138 C   0  0  1  0  0  0  0  0  0  0  0  0
   -0.0026   -0.3263   -0.5564 H   0  0  0  0  0  0  0  0  0  0  0  0
   -0.7560    1.3072    0.6196 C   0  0  0  0  0  0  0  0  0  0  0  0
   -1.3713    1.4257    1.5138 H   0  0  0  0  0  0  0  0  0  0  0  0
    0.1920    1.8207    0.7873 H   0  0  0  0  0  0  0  0  0  0  0  0
   -1.4819    1.9759   -0.5607 C   0  0  0  0  0  0  0  0  0  0  0  0
   -0.8773    1.8847   -1.4628 H   0  0  0  0  0  0  0  0  0  0  0  0
   -2.4319    1.4678   -0.7255 H   0  0  0  0  0  0  0  0  0  0  0  0
   -1.7644    3.4604   -0.3299 C   0  0  0  0  0  0  0  0  0  0  0  0
   -1.5105    4.0358    0.7117 O   0  0  0  0  0  0  0  0  0  0  0  0
   -2.3024    4.1548   -1.3089 N   0  0  0  0  0  0  0  0  0  0  0  0
   -2.4656    5.1251   -1.1031 H   0  0  0  0  0  0  0  0  0  0  0  0
   -2.5285    3.7320   -2.1863 H   0  0  0  0  0  0  0  0  0  0  0  0
    0.4448   -0.7774    1.4902 C   0  0  0  0  0  0  0  0  0  0  0  0
    0.4356   -0.3174    2.6306 O   0  0  0  0  0  0  0  0  0  0  0  0
    1.2544   -1.7803    1.1264 N   0  0  0  0  0  0  0  0  0  0  0  0
    1.1880   -2.1214    0.1807 H   0  0  0  0  0  0  0  0  0  0  0  0
    2.2042   -2.4301    2.0285 C   0  0  0  0  0  0  0  0  0  0  0  0
    1.6743   -2.8205    2.9008 H   0  0  0  0  0  0  0  0  0  0  0  0
    2.7116   -3.2512    1.5199 H   0  0  0  0  0  0  0  0  0  0  0  0
    2.9435   -1.7040    2.3707 H   0  0  0  0  0  0  0  0  0  0  0  0
  5  6  2  0  0  0  0
  5  7  1  0  0  0  0
  2  3  1  0  0  0  0
  2  4  1  0  0  0  0
  2  5  1  0  0  0  0
  1  2  1  0  0  0  0
 22 23  2  0  0  0  0
 22 24  1  0  0  0  0
 19 20  1  0  0  0  0
 19 21  1  0  0  0  0
 17 18  2  0  0  0  0
 17 19  1  0  0  0  0
 14 15  1  0  0  0  0
 14 16  1  0  0  0  0
 14 17  1  0  0  0  0
 11 12  1  0  0  0  0
 11 13  1  0  0  0  0
 11 14  1  0  0  0  0
  9 10  1  0  0  0  0
  9 11  1  0  0  0  0
  9 22  1  0  0  0  0
  7  8  1  0  0  0  0
  7  9  1  0  0  0  0
 26 27  1  0  0  0  0
 26 28  1  0  0  0  0
 26 29  1  0  0  0  0
 24 25  1  0  0  0  0
 24 26  1  0  0  0  0
M  END
$$$$
default_name
  -OEChem-01062215323D

 29 28  0     1  0  0  0  0  0999 V2000
   -3.3998   -3.6239    1.3678 H   0  0  0  0  0  0  0  0  0  0  0  0
   -3.3608   -2.6749    0.8348 C   0  0  0  0  0  0  0  0  0  0  0  0
   -4.0988   -1.9909    1.2498 H   0  0  0  0  0  0  0  0  0  0  0  0
   -3.5618   -2.8419   -0.2222 H   0  0  0  0  0  0  0  0  0  0  0  0
   -1.9818   -2.0809    0.9918 C   0  0  0  0  0  0  0  0  0  0  0  0
   -1.1288   -2.6669    1.6468 O   0  0  0  0  0  0  0  0  0  0  0  0
   -1.7648   -0.9089    0.3998 N   0  0  0  0  0  0  0  0  0  0  0  0
   -2.5238   -0.4719   -0.1032 H   0  0  0  0  0  0  0  0  0  0  0  0
   -0.4848   -0.1959    0.4138 C   0  0  1  0  0  0  0  0  0  0  0  0
   -0.0026   -0.3263   -0.5564 H   0  0  0  0  0  0  0  0  0  0  0  0
   -0.7560    1.3072    0.6196 C   0  0  0  0  0  0  0  0  0  0  0  0
   -1.3713    1.4257    1.5138 H   0  0  0  0  0  0  0  0  0  0  0  0
    0.1920    1.8207    0.7873 H   0  0  0  0  0  0  0  0  0  0  0  0
   -1.4819    1.9759   -0.5607 C   0  0  0  0  0  0  0  0  0  0  0  0
   -0.8773    1.8847   -1.4628 H   0  0  0  0  0  0  0  0  0  0  0  0
   -2.4319    1.4678   -0.7255 H   0  0  0  0  0  0  0  0  0  0  0  0
   -1.7644    3.4604   -0.3299 C   0  0  0  0  0  0  0  0  0  0  0  0
   -1.5105    4.0358    0.7117 O   0  0  0  0  0  0  0  0  0  0  0  0
   -2.3024    4.1548   -1.3089 N   0  0  0  0  0  0  0  0  0  0  0  0
   -2.4656    5.1251   -1.1031 H   0  0  0  0  0  0  0  0  0  0  0  0
   -2.5285    3.7320   -2.1863 H   0  0  0  0  0  0  0  0  0  0  0  0
    0.4448   -0.7774    1.4902 C   0  0  0  0  0  0  0  0  0  0  0  0
    0.2536   -0.5213    2.6776 O   0  0  0  0  0  0  0  0  0  0  0  0
    1.4569   -1.5503    1.0757 N   0  0  0  0  0  0  0  0  0  0  0  0
    1.5355   -1.7364    0.0887 H   0  0  0  0  0  0  0  0  0  0  0  0
    2.4338   -2.1657    1.9730 C   0  0  0  0  0  0  0  0  0  0  0  0
    1.9163   -2.7812    2.7130 H   0  0  0  0  0  0  0  0  0  0  0  0
    3.1280   -2.7906    1.4091 H   0  0  0  0  0  0  0  0  0  0  0  0
    2.9913   -1.3892    2.4995 H   0  0  0  0  0  0  0  0  0  0  0  0
  5  6  2  0  0  0  0
  5  7  1  0  0  0  0
  2  3  1  0  0  0  0
  2  4  1  0  0  0  0
  2  5  1  0  0  0  0
  1  2  1  0  0  0  0
 22 23  2  0  0  0  0
 22 24  1  0  0  0  0
 19 20  1  0  0  0  0
 19 21  1  0  0  0  0
 17 18  2  0  0  0  0
 17 19  1  0  0  0  0
 14 15  1  0  0  0  0
 14 16  1  0  0  0  0
 14 17  1  0  0  0  0
 11 12  1  0  0  0  0
 11 13  1  0  0  0  0
 11 14  1  0  0  0  0
  9 10  1  0  0  0  0
  9 11  1  0  0  0  0
  9 22  1  0  0  0  0
  7  8  1  0  0  0  0
  7  9  1  0  0  0  0
 26 27  1  0  0  0  0
 26 28  1  0  0  0  0
 26 29  1  0  0  0  0
 24 25  1  0  0  0  0
 24 26  1  0  0  0  0
M  END
$$$$
default_name
  -OEChem-01062215323D

 29 28  0     1  0  0  0  0  0999 V2000
   -3.3998   -3.6239    1.3678 H   0  0  0  0  0  0  0  0  0  0  0  0
   -3.3608   -2.6749    0.8348 C   0  0  0  0  0  0  0  0  0  0  0  0
   -4.0988   -1.9909    1.2498 H   0  0  0  0  0  0  0  0  0  0  0  0
   -3.5618   -2.8419   -0.2222 H   0  0  0  0  0  0  0  0  0  0  0  0
   -1.9818   -2.0809    0.9918 C   0  0  0  0  0  0  0  0  0  0  0  0
   -1.1288   -2.6669    1.6468 O   0  0  0  0  0  0  0  0  0  0  0  0
   -1.7648   -0.9089    0.3998 N   0  0  0  0  0  0  0  0  0  0  0  0
   -2.5238   -0.4719   -0.1032 H   0  0  0  0  0  0  0  0  0  0  0  0
   -0.4848   -0.1959    0.4138 C   0  0  1  0  0  0  0  0  0  0  0  0
   -0.0026   -0.3263   -0.5564 H   0  0  0  0  0  0  0  0  0  0  0  0
   -0.7560    1.3072    0.6196 C   0  0  0  0  0  0  0  0  0  0  0  0
   -1.3713    1.4257    1.5138 H   0  0  0  0  0  0  0  0  0  0  0  0
    0.1920    1.8207    0.7873 H   0  0  0  0  0  0  0  0  0  0  0  0
   -1.4819    1.9759   -0.5607 C   0  0  0  0  0  0  0  0  0  0  0  0
   -0.8773    1.8847   -1.4628 H   0  0  0  0  0  0  0  0  0  0  0  0
   -2.4319    1.4678   -0.7255 H   0  0  0  0  0  0  0  0  0  0  0  0
   -1.7644    3.4604   -0.3299 C   0  0  0  0  0  0  0  0  0  0  0  0
   -1.5105    4.0358    0.7117 O   0  0  0  0  0  0  0  0  0  0  0  0
   -2.3024    4.1548   -1.3089 N   0  0  0  0  0  0  0  0  0  0  0  0
   -2.4656    5.1251   -1.1031 H   0  0  0  0  0  0  0  0  0  0  0  0
   -2.5285    3.7320   -2.1863 H   0  0  0  0  0  0  0  0  0  0  0  0
    0.4448   -0.7774    1.4902 C   0  0  0  0  0  0  0  0  0  0  0  0
    0.1101   -0.7587    2.6733 O   0  0  0  0  0  0  0  0  0  0  0  0
    1.6158   -1.2834    1.0826 N   0  0  0  0  0  0  0  0  0  0  0  0
    1.8103   -1.2870    0.0940 H   0  0  0  0  0  0  0  0  0  0  0  0
    2.6131   -1.8601    1.9833 C   0  0  0  0  0  0  0  0  0  0  0  0
    2.1614   -2.6699    2.5615 H   0  0  0  0  0  0  0  0  0  0  0  0
    3.4576   -2.2528    1.4150 H   0  0  0  0  0  0  0  0  0  0  0  0
    2.9677   -1.0966    2.6779 H   0  0  0  0  0  0  0  0  0  0  0  0
  5  6  2  0  0  0  0
  5  7  1  0  0  0  0
  2  3  1  0  0  0  0
  2  4  1  0  0  0  0
  2  5  1  0  0  0  0
  1  2  1  0  0  0  0
 22 23  2  0  0  0  0
 22 24  1  0  0  0  0
 19 20  1  0  0  0  0
 19 21  1  0  0  0  0
 17 18  2  0  0  0  0
 17 19  1  0  0  0  0
 14 15  1  0  0  0  0
 14 16  1  0  0  0  0
 14 17  1  0  0  0  0
 11 12  1  0  0  0  0
 11 13  1  0  0  0  0
 11 14  1  0  0  0  0
  9 10  1  0  0  0  0
  9 11  1  0  0  0  0
  9 22  1  0  0  0  0
  7  8  1  0  0  0  0
  7  9  1  0  0  0  0
 26 27  1  0  0  0  0
 26 28  1  0  0  0  0
 26 29  1  0  0  0  0
 24 25  1  0  0  0  0
 24 26  1  0  0  0  0
M  END
$$$$
default_name
  -OEChem-01062215323D

 29 28  0     1  0  0  0  0  0999 V2000
   -3.3998   -3.6239    1.3678 H   0  0  0  0  0  0  0  0  0  0  0  0
   -3.3608   -2.6749    0.8348 C   0  0  0  0  0  0  0  0  0  0  0  0
   -4.0988   -1.9909    1.2498 H   0  0  0  0  0  0  0  0  0  0  0  0
   -3.5618   -2.8419   -0.2222 H   0  0  0  0  0  0  0  0  0  0  0  0
   -1.9818   -2.0809    0.9918 C   0  0  0  0  0  0  0  0  0  0  0  0
   -1.1288   -2.6669    1.6468 O   0  0  0  0  0  0  0  0  0  0  0  0
   -1.7648   -0.9089    0.3998 N   0  0  0  0  0  0  0  0  0  0  0  0
   -2.5238   -0.4719   -0.1032 H   0  0  0  0  0  0  0  0  0  0  0  0
   -0.4848   -0.1959    0.4138 C   0  0  1  0  0  0  0  0  0  0  0  0
   -0.0026   -0.3263   -0.5564 H   0  0  0  0  0  0  0  0  0  0  0  0
   -0.7560    1.3072    0.6196 C   0  0  0  0  0  0  0  0  0  0  0  0
   -1.3713    1.4257    1.5138 H   0  0  0  0  0  0  0  0  0  0  0  0
    0.1920    1.8207    0.7873 H   0  0  0  0  0  0  0  0  0  0  0  0
   -1.4819    1.9759   -0.5607 C   0  0  0  0  0  0  0  0  0  0  0  0
   -0.8773    1.8847   -1.4628 H   0  0  0  0  0  0  0  0  0  0  0  0
   -2.4319    1.4678   -0.7255 H   0  0  0  0  0  0  0  0  0  0  0  0
   -1.7644    3.4604   -0.3299 C   0  0  0  0  0  0  0  0  0  0  0  0
   -1.5105    4.0358    0.7117 O   0  0  0  0  0  0  0  0  0  0  0  0
   -2.3024    4.1548   -1.3089 N   0  0  0  0  0  0  0  0  0  0  0  0
   -2.4656    5.1251   -1.1031 H   0  0  0  0  0  0  0  0  0  0  0  0
   -2.5285    3.7320   -2.1863 H   0  0  0  0  0  0  0  0  0  0  0  0
    0.4448   -0.7774    1.4902 C   0  0  0  0  0  0  0  0  0  0  0  0
    0.0150   -1.0132    2.6179 O   0  0  0  0  0  0  0  0  0  0  0  0
    1.7203   -0.9980    1.1466 N   0  0  0  0  0  0  0  0  0  0  0  0
    1.9938   -0.8040    0.1965 H   0  0  0  0  0  0  0  0  0  0  0  0
    2.7299   -1.5339    2.0587 C   0  0  0  0  0  0  0  0  0  0  0  0
    2.3927   -2.4942    2.4566 H   0  0  0  0  0  0  0  0  0  0  0  0
    3.6778   -1.6745    1.5371 H   0  0  0  0  0  0  0  0  0  0  0  0
    2.8744   -0.8463    2.8937 H   0  0  0  0  0  0  0  0  0  0  0  0
  5  6  2  0  0  0  0
  5  7  1  0  0  0  0
  2  3  1  0  0  0  0
  2  4  1  0  0  0  0
  2  5  1  0  0  0  0
  1  2  1  0  0  0  0
 22 23  2  0  0  0  0
 22 24  1  0  0  0  0
 19 20  1  0  0  0  0
 19 21  1  0  0  0  0
 17 18  2  0  0  0  0
 17 19  1  0  0  0  0
 14 15  1  0  0  0  0
 14 16  1  0  0  0  0
 14 17  1  0  0  0  0
 11 12  1  0  0  0  0
 11 13  1  0  0  0  0
 11 14  1  0  0  0  0
  9 10  1  0  0  0  0
  9 11  1  0  0  0  0
  9 22  1  0  0  0  0
  7  8  1  0  0  0  0
  7  9  1  0  0  0  0
 26 27  1  0  0  0  0
 26 28  1  0  0  0  0
 26 29  1  0  0  0  0
 24 25  1  0  0  0  0
 24 26  1  0  0  0  0
M  END
$$$$
default_name
  -OEChem-01062215323D

 29 28  0     1  0  0  0  0  0999 V2000
   -3.3998   -3.6239    1.3678 H   0  0  0  0  0  0  0  0  0  0  0  0
   -3.3608   -2.6749    0.8348 C   0  0  0  0  0  0  0  0  0  0  0  0
   -4.0988   -1.9909    1.2498 H   0  0  0  0  0  0  0  0  0  0  0  0
   -3.5618   -2.8419   -0.2222 H   0  0  0  0  0  0  0  0  0  0  0  0
   -1.9818   -2.0809    0.9918 C   0  0  0  0  0  0  0  0  0  0  0  0
   -1.1288   -2.6669    1.6468 O   0  0  0  0  0  0  0  0  0  0  0  0
   -1.7648   -0.9089    0.3998 N   0  0  0  0  0  0  0  0  0  0  0  0
   -2.5238   -0.4719   -0.1032 H   0  0  0  0  0  0  0  0  0  0  0  0
   -0.4848   -0.1959    0.4138 C   0  0  1  0  0  0  0  0  0  0  0  0
   -0.0026   -0.3263   -0.5564 H   0  0  0  0  0  0  0  0  0  0  0  0
   -0.7560    1.3072    0.6196 C   0  0  0  0  0  0  0  0  0  0  0  0
   -1.3713    1.4257    1.5138 H   0  0  0  0  0  0  0  0  0  0  0  0
    0.1920    1.8207    0.7873 H   0  0  0  0  0  0  0  0  0  0  0  0
   -1.4819    1.9759   -0.5607 C   0  0  0  0  0  0  0  0  0  0  0  0
   -0.8773    1.8847   -1.4628 H   0  0  0  0  0  0  0  0  0  0  0  0
   -2.4319    1.4678   -0.7255 H   0  0  0  0  0  0  0  0  0  0  0  0
   -1.7644    3.4604   -0.3299 C   0  0  0  0  0  0  0  0  0  0  0  0
   -1.5105    4.0358    0.7117 O   0  0  0  0  0  0  0  0  0  0  0  0
   -2.3024    4.1548   -1.3089 N   0  0  0  0  0  0  0  0  0  0  0  0
   -2.4656    5.1251   -1.1031 H   0  0  0  0  0  0  0  0  0  0  0  0
   -2.5285    3.7320   -2.1863 H   0  0  0  0  0  0  0  0  0  0  0  0
    0.4448   -0.7774    1.4902 C   0  0  0  0  0  0  0  0  0  0  0  0
   -0.0252   -1.2677    2.5152 O   0  0  0  0  0  0  0  0  0  0  0  0
    1.7631   -0.7133    1.2634 N   0  0  0  0  0  0  0  0  0  0  0  0
    2.0734   -0.3202    0.3891 H   0  0  0  0  0  0  0  0  0  0  0  0
    2.7761   -1.2095    2.1940 C   0  0  0  0  0  0  0  0  0  0  0  0
    2.5946   -2.2661    2.4054 H   0  0  0  0  0  0  0  0  0  0  0  0
    3.7737   -1.0951    1.7673 H   0  0  0  0  0  0  0  0  0  0  0  0
    2.7177   -0.6551    3.1322 H   0  0  0  0  0  0  0  0  0  0  0  0
  5  6  2  0  0  0  0
  5  7  1  0  0  0  0
  2  3  1  0  0  0  0
  2  4  1  0  0  0  0
  2  5  1  0  0  0  0
  1  2  1  0  0  0  0
 22 23  2  0  0  0  0
 22 24  1  0  0  0  0
 19 20  1  0  0  0  0
 19 21  1  0  0  0  0
 17 18  2  0  0  0  0
 17 19  1  0  0  0  0
 14 15  1  0  0  0  0
 14 16  1  0  0  0  0
 14 17  1  0  0  0  0
 11 12  1  0  0  0  0
 11 13  1  0  0  0  0
 11 14  1  0  0  0  0
  9 10  1  0  0  0  0
  9 11  1  0  0  0  0
  9 22  1  0  0  0  0
  7  8  1  0  0  0  0
  7  9  1  0  0  0  0
 26 27  1  0  0  0  0
 26 28  1  0  0  0  0
 26 29  1  0  0  0  0
 24 25  1  0  0  0  0
 24 26  1  0  0  0  0
M  END
$$$$
default_name
  -OEChem-01062215323D

 29 28  0     1  0  0  0  0  0999 V2000
   -3.3998   -3.6239    1.3678 H   0  0  0  0  0  0  0  0  0  0  0  0
   -3.3608   -2.6749    0.8348 C   0  0  0  0  0  0  0  0  0  0  0  0
   -4.0988   -1.9909    1.2498 H   0  0  0  0  0  0  0  0  0  0  0  0
   -3.5618   -2.8419   -0.2222 H   0  0  0  0  0  0  0  0  0  0  0  0
   -1.9818   -2.0809    0.9918 C   0  0  0  0  0  0  0  0  0  0  0  0
   -1.1288   -2.6669    1.6468 O   0  0  0  0  0  0  0  0  0  0  0  0
   -1.7648   -0.9089    0.3998 N   0  0  0  0  0  0  0  0  0  0  0  0
   -2.5238   -0.4719   -0.1032 H   0  0  0  0  0  0  0  0  0  0  0  0
   -0.4848   -0.1959    0.4138 C   0  0  1  0  0  0  0  0  0  0  0  0
   -0.0026   -0.3263   -0.5564 H   0  0  0  0  0  0  0  0  0  0  0  0
   -0.7560    1.3072    0.6196 C   0  0  0  0  0  0  0  0  0  0  0  0
   -1.3713    1.4257    1.5138 H   0  0  0  0  0  0  0  0  0  0  0  0
    0.1920    1.8207    0.7873 H   0  0  0  0  0  0  0  0  0  0  0  0
   -1.4819    1.9759   -0.5607 C   0  0  0  0  0  0  0  0  0  0  0  0
   -0.8773    1.8847   -1.4628 H   0  0  0  0  0  0  0  0  0  0  0  0
   -2.4319    1.4678   -0.7255 H   0  0  0  0  0  0  0  0  0  0  0  0
   -1.7644    3.4604   -0.3299 C   0  0  0  0  0  0  0  0  0  0  0  0
   -1.5105    4.0358    0.7117 O   0  0  0  0  0  0  0  0  0  0  0  0
   -2.3024    4.1548   -1.3089 N   0  0  0  0  0  0  0  0  0  0  0  0
   -2.4656    5.1251   -1.1031 H   0  0  0  0  0  0  0  0  0  0  0  0
   -2.5285    3.7320   -2.1863 H   0  0  0  0  0  0  0  0  0  0  0  0
    0.4448   -0.7774    1.4902 C   0  0  0  0  0  0  0  0  0  0  0  0
   -0.0080   -1.5047    2.3723 O   0  0  0  0  0  0  0  0  0  0  0  0
    1.7415   -0.4489    1.4249 N   0  0  0  0  0  0  0  0  0  0  0  0
    2.0437    0.1314    0.6587 H   0  0  0  0  0  0  0  0  0  0  0  0
    2.7487   -0.9089    2.3800 C   0  0  0  0  0  0  0  0  0  0  0  0
    2.7533   -2.0012    2.4115 H   0  0  0  0  0  0  0  0  0  0  0  0
    3.7388   -0.5541    2.0897 H   0  0  0  0  0  0  0  0  0  0  0  0
    2.5084   -0.5363    3.3772 H   0  0  0  0  0  0  0  0  0  0  0  0
  5  6  2  0  0  0  0
  5  7  1  0  0  0  0
  2  3  1  0  0  0  0
  2  4  1  0  0  0  0
  2  5  1  0  0  0  0
  1  2  1  0  0  0  0
 22 23  2  0  0  0  0
 22 24  1  0  0  0  0
 19 20  1  0  0  0  0
 19 21  1  0  0  0  0
 17 18  2  0  0  0  0
 17 19  1  0  0  0  0
 14 15  1  0  0  0  0
 14 16  1  0  0  0  0
 14 17  1  0  0  0  0
 11 12  1  0  0  0  0
 11 13  1  0  0  0  0
 11 14  1  0  0  0  0
  9 10  1  0  0  0  0
  9 11  1  0  0  0  0
  9 22  1  0  0  0  0
  7  8  1  0  0  0  0
  7  9  1  0  0  0  0
 26 27  1  0  0  0  0
 26 28  1  0  0  0  0
 26 29  1  0  0  0  0
 24 25  1  0  0  0  0
 24 26  1  0  0  0  0
M  END
$$$$
default_name
  -OEChem-01062215323D

 29 28  0     1  0  0  0  0  0999 V2000
   -3.3998   -3.6239    1.3678 H   0  0  0  0  0  0  0  0  0  0  0  0
   -3.3608   -2.6749    0.8348 C   0  0  0  0  0  0  0  0  0  0  0  0
   -4.0988   -1.9909    1.2498 H   0  0  0  0  0  0  0  0  0  0  0  0
   -3.5618   -2.8419   -0.2222 H   0  0  0  0  0  0  0  0  0  0  0  0
   -1.9818   -2.0809    0.9918 C   0  0  0  0  0  0  0  0  0  0  0  0
   -1.1288   -2.6669    1.6468 O   0  0  0  0  0  0  0  0  0  0  0  0
   -1.7648   -0.9089    0.3998 N   0  0  0  0  0  0  0  0  0  0  0  0
   -2.5238   -0.4719   -0.1032 H   0  0  0  0  0  0  0  0  0  0  0  0
   -0.4848   -0.1959    0.4138 C   0  0  1  0  0  0  0  0  0  0  0  0
   -0.1305   -0.0956   -0.6135 H   0  0  0  0  0  0  0  0  0  0  0  0
   -0.7097    1.2170    0.9867 C   0  0  0  0  0  0  0  0  0  0  0  0
   -1.2059    1.1200    1.9547 H   0  0  0  0  0  0  0  0  0  0  0  0
    0.2579    1.6953    1.1458 H   0  0  0  0  0  0  0  0  0  0  0  0
   -1.5708    2.1227    0.0892 C   0  0  0  0  0  0  0  0  0  0  0  0
   -1.0860    2.2480   -0.8788 H   0  0  0  0  0  0  0  0  0  0  0  0
   -2.5401    1.6489   -0.0656 H   0  0  0  0  0  0  0  0  0  0  0  0
   -1.8040    3.5116    0.6835 C   0  0  0  0  0  0  0  0  0  0  0  0
   -1.4138    3.8410    1.7879 O   0  0  0  0  0  0  0  0  0  0  0  0
   -2.4530    4.4000   -0.0375 N   0  0  0  0  0  0  0  0  0  0  0  0
   -2.5771    5.2959    0.4014 H   0  0  0  0  0  0  0  0  0  0  0  0
   -2.7930    4.1826   -0.9522 H   0  0  0  0  0  0  0  0  0  0  0  0
    0.5662   -0.9897    1.2052 C   0  0  0  0  0  0  0  0  0  0  0  0
    0.2684   -2.0627    1.7266 O   0  0  0  0  0  0  0  0  0  0  0  0
    1.7915   -0.4582    1.3040 N   0  0  0  0  0  0  0  0  0  0  0  0
    1.9683    0.4125    0.8289 H   0  0  0  0  0  0  0  0  0  0  0  0
    2.8952   -1.0825    2.0323 C   0  0  0  0  0  0  0  0  0  0  0  0
    3.0728   -2.0868    1.6398 H   0  0  0  0  0  0  0  0  0  0  0  0
    3.8050   -0.4897    1.9261 H   0  0  0  0  0  0  0  0  0  0  0  0
    2.6386   -1.1660    3.0897 H   0  0  0  0  0  0  0  0  0  0  0  0
  5  6  2  0  0  0  0
  5  7  1  0  0  0  0
  2  3  1  0  0  0  0
  2  4  1  0  0  0  0
  2  5  1  0  0  0  0
  1  2  1  0  0  0  0
 22 23  2  0  0  0  0
 22 24  1  0  0  0  0
 19 20  1  0  0  0  0
 19 21  1  0  0  0  0
 17 18  2  0  0  0  0
 17 19  1  0  0  0  0
 14 15  1  0  0  0  0
 14 16  1  0  0  0  0
 14 17  1  0  0  0  0
 11 12  1  0  0  0  0
 11 13  1  0  0  0  0
 11 14  1  0  0  0  0
  9 10  1  0  0  0  0
  9 11  1  0  0  0  0
  9 22  1  0  0  0  0
  7  8  1  0  0  0  0
  7  9  1  0  0  0  0
 26 27  1  0  0  0  0
 26 28  1  0  0  0  0
 26 29  1  0  0  0  0
 24 25  1  0  0  0  0
 24 26  1  0  0  0  0
M  END
$$$$
default_name
  -OEChem-01062215323D

 29 28  0     1  0  0  0  0  0999 V2000
   -3.3998   -3.6239    1.3678 H   0  0  0  0  0  0  0  0  0  0  0  0
   -3.3608   -2.6749    0.8348 C   0  0  0  0  0  0  0  0  0  0  0  0
   -4.0988   -1.9909    1.2498 H   0  0  0  0  0  0  0  0  0  0  0  0
   -3.5618   -2.8419   -0.2222 H   0  0  0  0  0  0  0  0  0  0  0  0
   -1.9818   -2.0809    0.9918 C   0  0  0  0  0  0  0  0  0  0  0  0
   -1.1288   -2.6669    1.6468 O   0  0  0  0  0  0  0  0  0  0  0  0
   -1.7648   -0.9089    0.3998 N   0  0  0  0  0  0  0  0  0  0  0  0
   -2.5238   -0.4719   -0.1032 H   0  0  0  0  0  0  0  0  0  0  0  0
   -0.4848   -0.1959    0.4138 C   0  0  1  0  0  0  0  0  0  0  0  0
   -0.1305   -0.0956   -0.6135 H   0  0  0  0  0  0  0  0  0  0  0  0
   -0.7097    1.2170    0.9867 C   0  0  0  0  0  0  0  0  0  0  0  0
   -1.2059    1.1200    1.9547 H   0  0  0  0  0  0  0  0  0  0  0  0
    0.2579    1.6953    1.1458 H   0  0  0  0  0  0  0  0  0  0  0  0
   -1.5708    2.1227    0.0892 C   0  0  0  0  0  0  0  0  0  0  0  0
   -1.0860    2.2480   -0.8788 H   0  0  0  0  0  0  0  0  0  0  0  0
   -2.5401    1.6489   -0.0656 H   0  0  0  0  0  0  0  0  0  0  0  0
   -1.8040    3.5116    0.6835 C   0  0  0  0  0  0  0  0  0  0  0  0
   -1.4138    3.8410    1.7879 O   0  0  0  0  0  0  0  0  0  0  0  0
   -2.4530    4.4000   -0.0375 N   0  0  0  0  0  0  0  0  0  0  0  0
   -2.5771    5.2959    0.4014 H   0  0  0  0  0  0  0  0  0  0  0  0
   -2.7930    4.1826   -0.9522 H   0  0  0  0  0  0  0  0  0  0  0  0
    0.5662   -0.9897    1.2052 C   0  0  0  0  0  0  0  0  0  0  0  0
    0.3663   -2.1691    1.4900 O   0  0  0  0  0  0  0  0  0  0  0  0
    1.6800   -0.3413    1.5693 N   0  0  0  0  0  0  0  0  0  0  0  0
    1.7849    0.6175    1.2781 H   0  0  0  0  0  0  0  0  0  0  0  0
    2.7658   -0.9517    2.3353 C   0  0  0  0  0  0  0  0  0  0  0  0
    3.1339   -1.8363    1.8099 H   0  0  0  0  0  0  0  0  0  0  0  0
    3.5858   -0.2436    2.4639 H   0  0  0  0  0  0  0  0  0  0  0  0
    2.3973   -1.2610    3.3149 H   0  0  0  0  0  0  0  0  0  0  0  0
  5  6  2  0  0  0  0
  5  7  1  0  0  0  0
  2  3  1  0  0  0  0
  2  4  1  0  0  0  0
  2  5  1  0  0  0  0
  1  2  1  0  0  0  0
 22 23  2  0  0  0  0
 22 24  1  0  0  0  0
 19 20  1  0  0  0  0
 19 21  1  0  0  0  0
 17 18  2  0  0  0  0
 17 19  1  0  0  0  0
 14 15  1  0  0  0  0
 14 16  1  0  0  0  0
 14 17  1  0  0  0  0
 11 12  1  0  0  0  0
 11 13  1  0  0  0  0
 11 14  1  0  0  0  0
  9 10  1  0  0  0  0
  9 11  1  0  0  0  0
  9 22  1  0  0  0  0
  7  8  1  0  0  0  0
  7  9  1  0  0  0  0
 26 27  1  0  0  0  0
 26 28  1  0  0  0  0
 26 29  1  0  0  0  0
 24 25  1  0  0  0  0
 24 26  1  0  0  0  0
M  END
$$$$
default_name
  -OEChem-01062215323D

 29 28  0     1  0  0  0  0  0999 V2000
   -3.3998   -3.6239    1.3678 H   0  0  0  0  0  0  0  0  0  0  0  0
   -3.3608   -2.6749    0.8348 C   0  0  0  0  0  0  0  0  0  0  0  0
   -4.0988   -1.9909    1.2498 H   0  0  0  0  0  0  0  0  0  0  0  0
   -3.5618   -2.8419   -0.2222 H   0  0  0  0  0  0  0  0  0  0  0  0
   -1.9818   -2.0809    0.9918 C   0  0  0  0  0  0  0  0  0  0  0  0
   -1.1288   -2.6669    1.6468 O   0  0  0  0  0  0  0  0  0  0  0  0
   -1.7648   -0.9089    0.3998 N   0  0  0  0  0  0  0  0  0  0  0  0
   -2.5238   -0.4719   -0.1032 H   0  0  0  0  0  0  0  0  0  0  0  0
   -0.4848   -0.1959    0.4138 C   0  0  1  0  0  0  0  0  0  0  0  0
   -0.1305   -0.0956   -0.6135 H   0  0  0  0  0  0  0  0  0  0  0  0
   -0.7097    1.2170    0.9867 C   0  0  0  0  0  0  0  0  0  0  0  0
   -1.2059    1.1200    1.9547 H   0  0  0  0  0  0  0  0  0  0  0  0
    0.2579    1.6953    1.1458 H   0  0  0  0  0  0  0  0  0  0  0  0
   -1.5708    2.1227    0.0892 C   0  0  0  0  0  0  0  0  0  0  0  0
   -1.0860    2.2480   -0.8788 H   0  0  0  0  0  0  0  0  0  0  0  0
   -2.5401    1.6489   -0.0656 H   0  0  0  0  0  0  0  0  0  0  0  0
   -1.8040    3.5116    0.6835 C   0  0  0  0  0  0  0  0  0  0  0  0
   -1.4138    3.8410    1.7879 O   0  0  0  0  0  0  0  0  0  0  0  0
   -2.4530    4.4000   -0.0375 N   0  0  0  0  0  0  0  0  0  0  0  0
   -2.5771    5.2959    0.4014 H   0  0  0  0  0  0  0  0  0  0  0  0
   -2.7930    4.1826   -0.9522 H   0  0  0  0  0  0  0  0  0  0  0  0
    0.5662   -0.9897    1.2052 C   0  0  0  0  0  0  0  0  0  0  0  0
    0.5067   -2.2169    1.2556 O   0  0  0  0  0  0  0  0  0  0  0  0
    1.5212   -0.2902    1.8314 N   0  0  0  0  0  0  0  0  0  0  0  0
    1.5203    0.7116    1.7238 H   0  0  0  0  0  0  0  0  0  0  0  0
    2.5828   -0.8962    2.6339 C   0  0  0  0  0  0  0  0  0  0  0  0
    3.1368   -1.6163    2.0267 H   0  0  0  0  0  0  0  0  0  0  0  0
    3.2695   -0.1303    2.9977 H   0  0  0  0  0  0  0  0  0  0  0  0
    2.1468   -1.4248    3.4833 H   0  0  0  0  0  0  0  0  0  0  0  0
  5  6  2  0  0  0  0
  5  7  1  0  0  0  0
  2  3  1  0  0  0  0
  2  4  1  0  0  0  0
  2  5  1  0  0  0  0
  1  2  1  0  0  0  0
 22 23  2  0  0  0  0
 22 24  1  0  0  0  0
 19 20  1  0  0  0  0
 19 21  1  0  0  0  0
 17 18  2  0  0  0  0
 17 19  1  0  0  0  0
 14 15  1  0  0  0  0
 14 16  1  0  0  0  0
 14 17  1  0  0  0  0
 11 12  1  0  0  0  0
 11 13  1  0  0  0  0
 11 14  1  0  0  0  0
  9 10  1  0  0  0  0
  9 11  1  0  0  0  0
  9 22  1  0  0  0  0
  7  8  1  0  0  0  0
  7  9  1  0  0  0  0
 26 27  1  0  0  0  0
 26 28  1  0  0  0  0
 26 29  1  0  0  0  0
 24 25  1  0  0  0  0
 24 26  1  0  0  0  0
M  END
$$$$
default_name
  -OEChem-01062215323D

 29 28  0     1  0  0  0  0  0999 V2000
   -3.3998   -3.6239    1.3678 H   0  0  0  0  0  0  0  0  0  0  0  0
   -3.3608   -2.6749    0.8348 C   0  0  0  0  0  0  0  0  0  0  0  0
   -4.0988   -1.9909    1.2498 H   0  0  0  0  0  0  0  0  0  0  0  0
   -3.5618   -2.8419   -0.2222 H   0  0  0  0  0  0  0  0  0  0  0  0
   -1.9818   -2.0809    0.9918 C   0  0  0  0  0  0  0  0  0  0  0  0
   -1.1288   -2.6669    1.6468 O   0  0  0  0  0  0  0  0  0  0  0  0
   -1.7648   -0.9089    0.3998 N   0  0  0  0  0  0  0  0  0  0  0  0
   -2.5238   -0.4719   -0.1032 H   0  0  0  0  0  0  0  0  0  0  0  0
   -0.4848   -0.1959    0.4138 C   0  0  1  0  0  0  0  0  0  0  0  0
   -0.1305   -0.0956   -0.6135 H   0  0  0  0  0  0  0  0  0  0  0  0
   -0.7097    1.2170    0.9867 C   0  0  0  0  0  0  0  0  0  0  0  0
   -1.2059    1.1200    1.9547 H   0  0  0  0  0  0  0  0  0  0  0  0
    0.2579    1.6953    1.1458 H   0  0  0  0  0  0  0  0  0  0  0  0
   -1.5708    2.1227    0.0892 C   0  0  0  0  0  0  0  0  0  0  0  0
   -1.0860    2.2480   -0.8788 H   0  0  0  0  0  0  0  0  0  0  0  0
   -2.5401    1.6489   -0.0656 H   0  0  0  0  0  0  0  0  0  0  0  0
   -1.8040    3.5116    0.6835 C   0  0  0  0  0  0  0  0  0  0  0  0
   -1.4138    3.8410    1.7879 O   0  0  0  0  0  0  0  0  0  0  0  0
   -2.4530    4.4000   -0.0375 N   0  0  0  0  0  0  0  0  0  0  0  0
   -2.5771    5.2959    0.4014 H   0  0  0  0  0  0  0  0  0  0  0  0
   -2.7930    4.1826   -0.9522 H   0  0  0  0  0  0  0  0  0  0  0  0
    0.5662   -0.9897    1.2052 C   0  0  0  0  0  0  0  0  0  0  0  0
    0.6800   -2.2028    1.0395 O   0  0  0  0  0  0  0  0  0  0  0  0
    1.3261   -0.3084    2.0723 N   0  0  0  0  0  0  0  0  0  0  0  0
    1.1926    0.6882    2.1356 H   0  0  0  0  0  0  0  0  0  0  0  0
    2.3588   -0.9199    2.9077 C   0  0  0  0  0  0  0  0  0  0  0  0
    3.0813   -1.4419    2.2754 H   0  0  0  0  0  0  0  0  0  0  0  0
    2.8774   -0.1576    3.4911 H   0  0  0  0  0  0  0  0  0  0  0  0
    1.9041   -1.6462    3.5835 H   0  0  0  0  0  0  0  0  0  0  0  0
  5  6  2  0  0  0  0
  5  7  1  0  0  0  0
  2  3  1  0  0  0  0
  2  4  1  0  0  0  0
  2  5  1  0  0  0  0
  1  2  1  0  0  0  0
 22 23  2  0  0  0  0
 22 24  1  0  0  0  0
 19 20  1  0  0  0  0
 19 21  1  0  0  0  0
 17 18  2  0  0  0  0
 17 19  1  0  0  0  0
 14 15  1  0  0  0  0
 14 16  1  0  0  0  0
 14 17  1  0  0  0  0
 11 12  1  0  0  0  0
 11 13  1  0  0  0  0
 11 14  1  0  0  0  0
  9 10  1  0  0  0  0
  9 11  1  0  0  0  0
  9 22  1  0  0  0  0
  7  8  1  0  0  0  0
  7  9  1  0  0  0  0
 26 27  1  0  0  0  0
 26 28  1  0  0  0  0
 26 29  1  0  0  0  0
 24 25  1  0  0  0  0
 24 26  1  0  0  0  0
M  END
$$$$
default_name
  -OEChem-01062215323D

 29 28  0     1  0  0  0  0  0999 V2000
   -3.3998   -3.6239    1.3678 H   0  0  0  0  0  0  0  0  0  0  0  0
   -3.3608   -2.6749    0.8348 C   0  0  0  0  0  0  0  0  0  0  0  0
   -4.0988   -1.9909    1.2498 H   0  0  0  0  0  0  0  0  0  0  0  0
   -3.5618   -2.8419   -0.2222 H   0  0  0  0  0  0  0  0  0  0  0  0
   -1.9818   -2.0809    0.9918 C   0  0  0  0  0  0  0  0  0  0  0  0
   -1.1288   -2.6669    1.6468 O   0  0  0  0  0  0  0  0  0  0  0  0
   -1.7648   -0.9089    0.3998 N   0  0  0  0  0  0  0  0  0  0  0  0
   -2.5238   -0.4719   -0.1032 H   0  0  0  0  0  0  0  0  0  0  0  0
   -0.4848   -0.1959    0.4138 C   0  0  1  0  0  0  0  0  0  0  0  0
   -0.1305   -0.0956   -0.6135 H   0  0  0  0  0  0  0  0  0  0  0  0
   -0.7097    1.2170    0.9867 C   0  0  0  0  0  0  0  0  0  0  0  0
   -1.2059    1.1200    1.9547 H   0  0  0  0  0  0  0  0  0  0  0  0
    0.2579    1.6953    1.1458 H   0  0  0  0  0  0  0  0  0  0  0  0
   -1.5708    2.1227    0.0892 C   0  0  0  0  0  0  0  0  0  0  0  0
   -1.0860    2.2480   -0.8788 H   0  0  0  0  0  0  0  0  0  0  0  0
   -2.5401    1.6489   -0.0656 H   0  0  0  0  0  0  0  0  0  0  0  0
   -1.8040    3.5116    0.6835 C   0  0  0  0  0  0  0  0  0  0  0  0
   -1.4138    3.8410    1.7879 O   0  0  0  0  0  0  0  0  0  0  0  0
   -2.4530    4.4000   -0.0375 N   0  0  0  0  0  0  0  0  0  0  0  0
   -2.5771    5.2959    0.4014 H   0  0  0  0  0  0  0  0  0  0  0  0
   -2.7930    4.1826   -0.9522 H   0  0  0  0  0  0  0  0  0  0  0  0
    0.5662   -0.9897    1.2052 C   0  0  0  0  0  0  0  0  0  0  0  0
    0.8744   -2.1279    0.8565 O   0  0  0  0  0  0  0  0  0  0  0  0
    1.1077   -0.3947    2.2758 N   0  0  0  0  0  0  0  0  0  0  0  0
    0.8242    0.5491    2.4854 H   0  0  0  0  0  0  0  0  0  0  0  0
    2.1090   -1.0211    3.1380 C   0  0  0  0  0  0  0  0  0  0  0  0
    2.9712   -1.3247    2.5392 H   0  0  0  0  0  0  0  0  0  0  0  0
    2.4364   -0.3235    3.9104 H   0  0  0  0  0  0  0  0  0  0  0  0
    1.6858   -1.9102    3.6086 H   0  0  0  0  0  0  0  0  0  0  0  0
  5  6  2  0  0  0  0
  5  7  1  0  0  0  0
  2  3  1  0  0  0  0
  2  4  1  0  0  0  0
  2  5  1  0  0  0  0
  1  2  1  0  0  0  0
 22 23  2  0  0  0  0
 22 24  1  0  0  0  0
 19 20  1  0  0  0  0
 19 21  1  0  0  0  0
 17 18  2  0  0  0  0
 17 19  1  0  0  0  0
 14 15  1  0  0  0  0
 14 16  1  0  0  0  0
 14 17  1  0  0  0  0
 11 12  1  0  0  0  0
 11 13  1  0  0  0  0
 11 14  1  0  0  0  0
  9 10  1  0  0  0  0
  9 11  1  0  0  0  0
  9 22  1  0  0  0  0
  7  8  1  0  0  0  0
  7  9  1  0  0  0  0
 26 27  1  0  0  0  0
 26 28  1  0  0  0  0
 26 29  1  0  0  0  0
 24 25  1  0  0  0  0
 24 26  1  0  0  0  0
M  END
$$$$
default_name
  -OEChem-01062215323D

 29 28  0     1  0  0  0  0  0999 V2000
   -3.3998   -3.6239    1.3678 H   0  0  0  0  0  0  0  0  0  0  0  0
   -3.3608   -2.6749    0.8348 C   0  0  0  0  0  0  0  0  0  0  0  0
   -4.0988   -1.9909    1.2498 H   0  0  0  0  0  0  0  0  0  0  0  0
   -3.5618   -2.8419   -0.2222 H   0  0  0  0  0  0  0  0  0  0  0  0
   -1.9818   -2.0809    0.9918 C   0  0  0  0  0  0  0  0  0  0  0  0
   -1.1288   -2.6669    1.6468 O   0  0  0  0  0  0  0  0  0  0  0  0
   -1.7648   -0.9089    0.3998 N   0  0  0  0  0  0  0  0  0  0  0  0
   -2.5238   -0.4719   -0.1032 H   0  0  0  0  0  0  0  0  0  0  0  0
   -0.4848   -0.1959    0.4138 C   0  0  1  0  0  0  0  0  0  0  0  0
   -0.1305   -0.0956   -0.6135 H   0  0  0  0  0  0  0  0  0  0  0  0
   -0.7097    1.2170    0.9867 C   0  0  0  0  0  0  0  0  0  0  0  0
   -1.2059    1.1200    1.9547 H   0  0  0  0  0  0  0  0  0  0  0  0
    0.2579    1.6953    1.1458 H   0  0  0  0  0  0  0  0  0  0  0  0
   -1.5708    2.1227    0.0892 C   0  0  0  0  0  0  0  0  0  0  0  0
   -1.0860    2.2480   -0.8788 H   0  0  0  0  0  0  0  0  0  0  0  0
   -2.5401    1.6489   -0.0656 H   0  0  0  0  0  0  0  0  0  0  0  0
   -1.8040    3.5116    0.6835 C   0  0  0  0  0  0  0  0  0  0  0  0
   -1.4138    3.8410    1.7879 O   0  0  0  0  0  0  0  0  0  0  0  0
   -2.4530    4.4000   -0.0375 N   0  0  0  0  0  0  0  0  0  0  0  0
   -2.5771    5.2959    0.4014 H   0  0  0  0  0  0  0  0  0  0  0  0
   -2.7930    4.1826   -0.9522 H   0  0  0  0  0  0  0  0  0  0  0  0
    0.5662   -0.9897    1.2052 C   0  0  0  0  0  0  0  0  0  0  0  0
    1.0767   -1.9972    0.7190 O   0  0  0  0  0  0  0  0  0  0  0  0
    0.8811   -0.5431    2.4278 N   0  0  0  0  0  0  0  0  0  0  0  0
    0.4400    0.3037    2.7494 H   0  0  0  0  0  0  0  0  0  0  0  0
    1.8503   -1.1930    3.3091 C   0  0  0  0  0  0  0  0  0  0  0  0
    2.8139   -1.2730    2.7999 H   0  0  0  0  0  0  0  0  0  0  0  0
    1.9764   -0.6168    4.2270 H   0  0  0  0  0  0  0  0  0  0  0  0
    1.5068   -2.1987    3.5570 H   0  0  0  0  0  0  0  0  0  0  0  0
  5  6  2  0  0  0  0
  5  7  1  0  0  0  0
  2  3  1  0  0  0  0
  2  4  1  0  0  0  0
  2  5  1  0  0  0  0
  1  2  1  0  0  0  0
 22 23  2  0  0  0  0
 22 24  1  0  0  0  0
 19 20  1  0  0  0  0
 19 21  1  0  0  0  0
 17 18  2  0  0  0  0
 17 19  1  0  0  0  0
 14 15  1  0  0  0  0
 14 16  1  0  0  0  0
 14 17  1  0  0  0  0
 11 12  1  0  0  0  0
 11 13  1  0  0  0  0
 11 14  1  0  0  0  0
  9 10  1  0  0  0  0
  9 11  1  0  0  0  0
  9 22  1  0  0  0  0
  7  8  1  0  0  0  0
  7  9  1  0  0  0  0
 26 27  1  0  0  0  0
 26 28  1  0  0  0  0
 26 29  1  0  0  0  0
 24 25  1  0  0  0  0
 24 26  1  0  0  0  0
M  END
$$$$
default_name
  -OEChem-01062215323D

 29 28  0     1  0  0  0  0  0999 V2000
   -3.3998   -3.6239    1.3678 H   0  0  0  0  0  0  0  0  0  0  0  0
   -3.3608   -2.6749    0.8348 C   0  0  0  0  0  0  0  0  0  0  0  0
   -4.0988   -1.9909    1.2498 H   0  0  0  0  0  0  0  0  0  0  0  0
   -3.5618   -2.8419   -0.2222 H   0  0  0  0  0  0  0  0  0  0  0  0
   -1.9818   -2.0809    0.9918 C   0  0  0  0  0  0  0  0  0  0  0  0
   -1.1288   -2.6669    1.6468 O   0  0  0  0  0  0  0  0  0  0  0  0
   -1.7648   -0.9089    0.3998 N   0  0  0  0  0  0  0  0  0  0  0  0
   -2.5238   -0.4719   -0.1032 H   0  0  0  0  0  0  0  0  0  0  0  0
   -0.4848   -0.1959    0.4138 C   0  0  1  0  0  0  0  0  0  0  0  0
   -0.1305   -0.0956   -0.6135 H   0  0  0  0  0  0  0  0  0  0  0  0
   -0.7097    1.2170    0.9867 C   0  0  0  0  0  0  0  0  0  0  0  0
   -1.2059    1.1200    1.9547 H   0  0  0  0  0  0  0  0  0  0  0  0
    0.2579    1.6953    1.1458 H   0  0  0  0  0  0  0  0  0  0  0  0
   -1.5708    2.1227    0.0892 C   0  0  0  0  0  0  0  0  0  0  0  0
   -1.0860    2.2480   -0.8788 H   0  0  0  0  0  0  0  0  0  0  0  0
   -2.5401    1.6489   -0.0656 H   0  0  0  0  0  0  0  0  0  0  0  0
   -1.8040    3.5116    0.6835 C   0  0  0  0  0  0  0  0  0  0  0  0
   -1.4138    3.8410    1.7879 O   0  0  0  0  0  0  0  0  0  0  0  0
   -2.4530    4.4000   -0.0375 N   0  0  0  0  0  0  0  0  0  0  0  0
   -2.5771    5.2959    0.4014 H   0  0  0  0  0  0  0  0  0  0  0  0
   -2.7930    4.1826   -0.9522 H   0  0  0  0  0  0  0  0  0  0  0  0
    0.5662   -0.9897    1.2052 C   0  0  0  0  0  0  0  0  0  0  0  0
    1.2731   -1.8196    0.6363 O   0  0  0  0  0  0  0  0  0  0  0  0
    0.6617   -0.7436    2.5181 N   0  0  0  0  0  0  0  0  0  0  0  0
    0.0664   -0.0313    2.9096 H   0  0  0  0  0  0  0  0  0  0  0  0
    1.6006   -1.4237    3.4094 C   0  0  0  0  0  0  0  0  0  0  0  0
    2.6203   -1.2901    3.0399 H   0  0  0  0  0  0  0  0  0  0  0  0
    1.5289   -1.0175    4.4195 H   0  0  0  0  0  0  0  0  0  0  0  0
    1.3792   -2.4921    3.4321 H   0  0  0  0  0  0  0  0  0  0  0  0
  5  6  2  0  0  0  0
  5  7  1  0  0  0  0
  2  3  1  0  0  0  0
  2  4  1  0  0  0  0
  2  5  1  0  0  0  0
  1  2  1  0  0  0  0
 22 23  2  0  0  0  0
 22 24  1  0  0  0  0
 19 20  1  0  0  0  0
 19 21  1  0  0  0  0
 17 18  2  0  0  0  0
 17 19  1  0  0  0  0
 14 15  1  0  0  0  0
 14 16  1  0  0  0  0
 14 17  1  0  0  0  0
 11 12  1  0  0  0  0
 11 13  1  0  0  0  0
 11 14  1  0  0  0  0
  9 10  1  0  0  0  0
  9 11  1  0  0  0  0
  9 22  1  0  0  0  0
  7  8  1  0  0  0  0
  7  9  1  0  0  0  0
 26 27  1  0  0  0  0
 26 28  1  0  0  0  0
 26 29  1  0  0  0  0
 24 25  1  0  0  0  0
 24 26  1  0  0  0  0
M  END
$$$$
default_name
  -OEChem-01062215323D

 29 28  0     1  0  0  0  0  0999 V2000
   -3.3998   -3.6239    1.3678 H   0  0  0  0  0  0  0  0  0  0  0  0
   -3.3608   -2.6749    0.8348 C   0  0  0  0  0  0  0  0  0  0  0  0
   -4.0988   -1.9909    1.2498 H   0  0  0  0  0  0  0  0  0  0  0  0
   -3.5618   -2.8419   -0.2222 H   0  0  0  0  0  0  0  0  0  0  0  0
   -1.9818   -2.0809    0.9918 C   0  0  0  0  0  0  0  0  0  0  0  0
   -1.1288   -2.6669    1.6468 O   0  0  0  0  0  0  0  0  0  0  0  0
   -1.7648   -0.9089    0.3998 N   0  0  0  0  0  0  0  0  0  0  0  0
   -2.5238   -0.4719   -0.1032 H   0  0  0  0  0  0  0  0  0  0  0  0
   -0.4848   -0.1959    0.4138 C   0  0  1  0  0  0  0  0  0  0  0  0
   -0.1305   -0.0956   -0.6135 H   0  0  0  0  0  0  0  0  0  0  0  0
   -0.7097    1.2170    0.9867 C   0  0  0  0  0  0  0  0  0  0  0  0
   -1.2059    1.1200    1.9547 H   0  0  0  0  0  0  0  0  0  0  0  0
    0.2579    1.6953    1.1458 H   0  0  0  0  0  0  0  0  0  0  0  0
   -1.5708    2.1227    0.0892 C   0  0  0  0  0  0  0  0  0  0  0  0
   -1.0860    2.2480   -0.8788 H   0  0  0  0  0  0  0  0  0  0  0  0
   -2.5401    1.6489   -0.0656 H   0  0  0  0  0  0  0  0  0  0  0  0
   -1.8040    3.5116    0.6835 C   0  0  0  0  0  0  0  0  0  0  0  0
   -1.4138    3.8410    1.7879 O   0  0  0  0  0  0  0  0  0  0  0  0
   -2.4530    4.4000   -0.0375 N   0  0  0  0  0  0  0  0  0  0  0  0
   -2.5771    5.2959    0.4014 H   0  0  0  0  0  0  0  0  0  0  0  0
   -2.7930    4.1826   -0.9522 H   0  0  0  0  0  0  0  0  0  0  0  0
    0.5662   -0.9897    1.2052 C   0  0  0  0  0  0  0  0  0  0  0  0
    1.4501   -1.6073    0.6141 O   0  0  0  0  0  0  0  0  0  0  0  0
    0.4644   -0.9825    2.5405 N   0  0  0  0  0  0  0  0  0  0  0  0
   -0.2713   -0.4330    2.9551 H   0  0  0  0  0  0  0  0  0  0  0  0
    1.3766   -1.6976    3.4320 C   0  0  0  0  0  0  0  0  0  0  0  0
    2.4034   -1.3750    3.2428 H   0  0  0  0  0  0  0  0  0  0  0  0
    1.1243   -1.4982    4.4746 H   0  0  0  0  0  0  0  0  0  0  0  0
    1.3118   -2.7704    3.2424 H   0  0  0  0  0  0  0  0  0  0  0  0
  5  6  2  0  0  0  0
  5  7  1  0  0  0  0
  2  3  1  0  0  0  0
  2  4  1  0  0  0  0
  2  5  1  0  0  0  0
  1  2  1  0  0  0  0
 22 23  2  0  0  0  0
 22 24  1  0  0  0  0
 19 20  1  0  0  0  0
 19 21  1  0  0  0  0
 17 18  2  0  0  0  0
 17 19  1  0  0  0  0
 14 15  1  0  0  0  0
 14 16  1  0  0  0  0
 14 17  1  0  0  0  0
 11 12  1  0  0  0  0
 11 13  1  0  0  0  0
 11 14  1  0  0  0  0
  9 10  1  0  0  0  0
  9 11  1  0  0  0  0
  9 22  1  0  0  0  0
  7  8  1  0  0  0  0
  7  9  1  0  0  0  0
 26 27  1  0  0  0  0
 26 28  1  0  0  0  0
 26 29  1  0  0  0  0
 24 25  1  0  0  0  0
 24 26  1  0  0  0  0
M  END
$$$$
default_name
  -OEChem-01062215323D

 29 28  0     1  0  0  0  0  0999 V2000
   -3.3998   -3.6239    1.3678 H   0  0  0  0  0  0  0  0  0  0  0  0
   -3.3608   -2.6749    0.8348 C   0  0  0  0  0  0  0  0  0  0  0  0
   -4.0988   -1.9909    1.2498 H   0  0  0  0  0  0  0  0  0  0  0  0
   -3.5618   -2.8419   -0.2222 H   0  0  0  0  0  0  0  0  0  0  0  0
   -1.9818   -2.0809    0.9918 C   0  0  0  0  0  0  0  0  0  0  0  0
   -1.1288   -2.6669    1.6468 O   0  0  0  0  0  0  0  0  0  0  0  0
   -1.7648   -0.9089    0.3998 N   0  0  0  0  0  0  0  0  0  0  0  0
   -2.5238   -0.4719   -0.1032 H   0  0  0  0  0  0  0  0  0  0  0  0
   -0.4848   -0.1959    0.4138 C   0  0  1  0  0  0  0  0  0  0  0  0
   -0.1305   -0.0956   -0.6135 H   0  0  0  0  0  0  0  0  0  0  0  0
   -0.7097    1.2170    0.9867 C   0  0  0  0  0  0  0  0  0  0  0  0
   -1.2059    1.1200    1.9547 H   0  0  0  0  0  0  0  0  0  0  0  0
    0.2579    1.6953    1.1458 H   0  0  0  0  0  0  0  0  0  0  0  0
   -1.5708    2.1227    0.0892 C   0  0  0  0  0  0  0  0  0  0  0  0
   -1.0860    2.2480   -0.8788 H   0  0  0  0  0  0  0  0  0  0  0  0
   -2.5401    1.6489   -0.0656 H   0  0  0  0  0  0  0  0  0  0  0  0
   -1.8040    3.5116    0.6835 C   0  0  0  0  0  0  0  0  0  0  0  0
   -1.4138    3.8410    1.7879 O   0  0  0  0  0  0  0  0  0  0  0  0
   -2.4530    4.4000   -0.0375 N   0  0  0  0  0  0  0  0  0  0  0  0
   -2.5771    5.2959    0.4014 H   0  0  0  0  0  0  0  0  0  0  0  0
   -2.7930    4.1826   -0.9522 H   0  0  0  0  0  0  0  0  0  0  0  0
    0.5662   -0.9897    1.2052 C   0  0  0  0  0  0  0  0  0  0  0  0
    1.5958   -1.3747    0.6540 O   0  0  0  0  0  0  0  0  0  0  0  0
    0.3027   -1.2435    2.4934 N   0  0  0  0  0  0  0  0  0  0  0  0
   -0.5500   -0.8742    2.8828 H   0  0  0  0  0  0  0  0  0  0  0  0
    1.1938   -1.9961    3.3754 C   0  0  0  0  0  0  0  0  0  0  0  0
    2.1781   -1.5218    3.3948 H   0  0  0  0  0  0  0  0  0  0  0  0
    0.7902   -2.0263    4.3886 H   0  0  0  0  0  0  0  0  0  0  0  0
    1.3092   -3.0146    3.0010 H   0  0  0  0  0  0  0  0  0  0  0  0
  5  6  2  0  0  0  0
  5  7  1  0  0  0  0
  2  3  1  0  0  0  0
  2  4  1  0  0  0  0
  2  5  1  0  0  0  0
  1  2  1  0  0  0  0
 22 23  2  0  0  0  0
 22 24  1  0  0  0  0
 19 20  1  0  0  0  0
 19 21  1  0  0  0  0
 17 18  2  0  0  0  0
 17 19  1  0  0  0  0
 14 15  1  0  0  0  0
 14 16  1  0  0  0  0
 14 17  1  0  0  0  0
 11 12  1  0  0  0  0
 11 13  1  0  0  0  0
 11 14  1  0  0  0  0
  9 10  1  0  0  0  0
  9 11  1  0  0  0  0
  9 22  1  0  0  0  0
  7  8  1  0  0  0  0
  7  9  1  0  0  0  0
 26 27  1  0  0  0  0
 26 28  1  0  0  0  0
 26 29  1  0  0  0  0
 24 25  1  0  0  0  0
 24 26  1  0  0  0  0
M  END
$$$$
default_name
  -OEChem-01062215323D

 29 28  0     1  0  0  0  0  0999 V2000
   -3.3998   -3.6239    1.3678 H   0  0  0  0  0  0  0  0  0  0  0  0
   -3.3608   -2.6749    0.8348 C   0  0  0  0  0  0  0  0  0  0  0  0
   -4.0988   -1.9909    1.2498 H   0  0  0  0  0  0  0  0  0  0  0  0
   -3.5618   -2.8419   -0.2222 H   0  0  0  0  0  0  0  0  0  0  0  0
   -1.9818   -2.0809    0.9918 C   0  0  0  0  0  0  0  0  0  0  0  0
   -1.1288   -2.6669    1.6468 O   0  0  0  0  0  0  0  0  0  0  0  0
   -1.7648   -0.9089    0.3998 N   0  0  0  0  0  0  0  0  0  0  0  0
   -2.5238   -0.4719   -0.1032 H   0  0  0  0  0  0  0  0  0  0  0  0
   -0.4848   -0.1959    0.4138 C   0  0  1  0  0  0  0  0  0  0  0  0
   -0.1305   -0.0956   -0.6135 H   0  0  0  0  0  0  0  0  0  0  0  0
   -0.7097    1.2170    0.9867 C   0  0  0  0  0  0  0  0  0  0  0  0
   -1.2059    1.1200    1.9547 H   0  0  0  0  0  0  0  0  0  0  0  0
    0.2579    1.6953    1.1458 H   0  0  0  0  0  0  0  0  0  0  0  0
   -1.5708    2.1227    0.0892 C   0  0  0  0  0  0  0  0  0  0  0  0
   -1.0860    2.2480   -0.8788 H   0  0  0  0  0  0  0  0  0  0  0  0
   -2.5401    1.6489   -0.0656 H   0  0  0  0  0  0  0  0  0  0  0  0
   -1.8040    3.5116    0.6835 C   0  0  0  0  0  0  0  0  0  0  0  0
   -1.4138    3.8410    1.7879 O   0  0  0  0  0  0  0  0  0  0  0  0
   -2.4530    4.4000   -0.0375 N   0  0  0  0  0  0  0  0  0  0  0  0
   -2.5771    5.2959    0.4014 H   0  0  0  0  0  0  0  0  0  0  0  0
   -2.7930    4.1826   -0.9522 H   0  0  0  0  0  0  0  0  0  0  0  0
    0.5662   -0.9897    1.2052 C   0  0  0  0  0  0  0  0  0  0  0  0
    1.7001   -1.1377    0.7531 O   0  0  0  0  0  0  0  0  0  0  0  0
    0.1876   -1.5089    2.3801 N   0  0  0  0  0  0  0  0  0  0  0  0
   -0.7507   -1.3246    2.6975 H   0  0  0  0  0  0  0  0  0  0  0  0
    1.0646   -2.2987    3.2435 C   0  0  0  0  0  0  0  0  0  0  0  0
    1.9598   -1.7205    3.4855 H   0  0  0  0  0  0  0  0  0  0  0  0
    0.5493   -2.5657    4.1675 H   0  0  0  0  0  0  0  0  0  0  0  0
    1.3715   -3.2082    2.7241 H   0  0  0  0  0  0  0  0  0  0  0  0
  5  6  2  0  0  0  0
  5  7  1  0  0  0  0
  2  3  1  0  0  0  0
  2  4  1  0  0  0  0
  2  5  1  0  0  0  0
  1  2  1  0  0  0  0
 22 23  2  0  0  0  0
 22 24  1  0  0  0  0
 19 20  1  0  0  0  0
 19 21  1  0  0  0  0
 17 18  2  0  0  0  0
 17 19  1  0  0  0  0
 14 15  1  0  0  0  0
 14 16  1  0  0  0  0
 14 17  1  0  0  0  0
 11 12  1  0  0  0  0
 11 13  1  0  0  0  0
 11 14  1  0  0  0  0
  9 10  1  0  0  0  0
  9 11  1  0  0  0  0
  9 22  1  0  0  0  0
  7  8  1  0  0  0  0
  7  9  1  0  0  0  0
 26 27  1  0  0  0  0
 26 28  1  0  0  0  0
 26 29  1  0  0  0  0
 24 25  1  0  0  0  0
 24 26  1  0  0  0  0
M  END
$$$$
default_name
  -OEChem-01062215323D

 29 28  0     1  0  0  0  0  0999 V2000
   -3.3998   -3.6239    1.3678 H   0  0  0  0  0  0  0  0  0  0  0  0
   -3.3608   -2.6749    0.8348 C   0  0  0  0  0  0  0  0  0  0  0  0
   -4.0988   -1.9909    1.2498 H   0  0  0  0  0  0  0  0  0  0  0  0
   -3.5618   -2.8419   -0.2222 H   0  0  0  0  0  0  0  0  0  0  0  0
   -1.9818   -2.0809    0.9918 C   0  0  0  0  0  0  0  0  0  0  0  0
   -1.1288   -2.6669    1.6468 O   0  0  0  0  0  0  0  0  0  0  0  0
   -1.7648   -0.9089    0.3998 N   0  0  0  0  0  0  0  0  0  0  0  0
   -2.5238   -0.4719   -0.1032 H   0  0  0  0  0  0  0  0  0  0  0  0
   -0.4848   -0.1959    0.4138 C   0  0  1  0  0  0  0  0  0  0  0  0
   -0.1305   -0.0956   -0.6135 H   0  0  0  0  0  0  0  0  0  0  0  0
   -0.7097    1.2170    0.9867 C   0  0  0  0  0  0  0  0  0  0  0  0
   -1.2059    1.1200    1.9547 H   0  0  0  0  0  0  0  0  0  0  0  0
    0.2579    1.6953    1.1458 H   0  0  0  0  0  0  0  0  0  0  0  0
   -1.5708    2.1227    0.0892 C   0  0  0  0  0  0  0  0  0  0  0  0
   -1.0860    2.2480   -0.8788 H   0  0  0  0  0  0  0  0  0  0  0  0
   -2.5401    1.6489   -0.0656 H   0  0  0  0  0  0  0  0  0  0  0  0
   -1.8040    3.5116    0.6835 C   0  0  0  0  0  0  0  0  0  0  0  0
   -1.4138    3.8410    1.7879 O   0  0  0  0  0  0  0  0  0  0  0  0
   -2.4530    4.4000   -0.0375 N   0  0  0  0  0  0  0  0  0  0  0  0
   -2.5771    5.2959    0.4014 H   0  0  0  0  0  0  0  0  0  0  0  0
   -2.7930    4.1826   -0.9522 H   0  0  0  0  0  0  0  0  0  0  0  0
    0.5662   -0.9897    1.2052 C   0  0  0  0  0  0  0  0  0  0  0  0
    1.7561   -0.9123    0.9048 O   0  0  0  0  0  0  0  0  0  0  0  0
    0.1270   -1.7605    2.2083 N   0  0  0  0  0  0  0  0  0  0  0  0
   -0.8597   -1.7536    2.4120 H   0  0  0  0  0  0  0  0  0  0  0  0
    0.9977   -2.5849    3.0452 C   0  0  0  0  0  0  0  0  0  0  0  0
    1.7632   -1.9576    3.5087 H   0  0  0  0  0  0  0  0  0  0  0  0
    0.4182   -3.0796    3.8261 H   0  0  0  0  0  0  0  0  0  0  0  0
    1.4945   -3.3378    2.4308 H   0  0  0  0  0  0  0  0  0  0  0  0
  5  6  2  0  0  0  0
  5  7  1  0  0  0  0
  2  3  1  0  0  0  0
  2  4  1  0  0  0  0
  2  5  1  0  0  0  0
  1  2  1  0  0  0  0
 22 23  2  0  0  0  0
 22 24  1  0  0  0  0
 19 20  1  0  0  0  0
 19 21  1  0  0  0  0
 17 18  2  0  0  0  0
 17 19  1  0  0  0  0
 14 15  1  0  0  0  0
 14 16  1  0  0  0  0
 14 17  1  0  0  0  0
 11 12  1  0  0  0  0
 11 13  1  0  0  0  0
 11 14  1  0  0  0  0
  9 10  1  0  0  0  0
  9 11  1  0  0  0  0
  9 22  1  0  0  0  0
  7  8  1  0  0  0  0
  7  9  1  0  0  0  0
 26 27  1  0  0  0  0
 26 28  1  0  0  0  0
 26 29  1  0  0  0  0
 24 25  1  0  0  0  0
 24 26  1  0  0  0  0
M  END
$$$$
default_name
  -OEChem-01062215323D

 29 28  0     1  0  0  0  0  0999 V2000
   -3.3998   -3.6239    1.3678 H   0  0  0  0  0  0  0  0  0  0  0  0
   -3.3608   -2.6749    0.8348 C   0  0  0  0  0  0  0  0  0  0  0  0
   -4.0988   -1.9909    1.2498 H   0  0  0  0  0  0  0  0  0  0  0  0
   -3.5618   -2.8419   -0.2222 H   0  0  0  0  0  0  0  0  0  0  0  0
   -1.9818   -2.0809    0.9918 C   0  0  0  0  0  0  0  0  0  0  0  0
   -1.1288   -2.6669    1.6468 O   0  0  0  0  0  0  0  0  0  0  0  0
   -1.7648   -0.9089    0.3998 N   0  0  0  0  0  0  0  0  0  0  0  0
   -2.5238   -0.4719   -0.1032 H   0  0  0  0  0  0  0  0  0  0  0  0
   -0.4848   -0.1959    0.4138 C   0  0  1  0  0  0  0  0  0  0  0  0
   -0.1305   -0.0956   -0.6135 H   0  0  0  0  0  0  0  0  0  0  0  0
   -0.7097    1.2170    0.9867 C   0  0  0  0  0  0  0  0  0  0  0  0
   -1.2059    1.1200    1.9547 H   0  0  0  0  0  0  0  0  0  0  0  0
    0.2579    1.6953    1.1458 H   0  0  0  0  0  0  0  0  0  0  0  0
   -1.5708    2.1227    0.0892 C   0  0  0  0  0  0  0  0  0  0  0  0
   -1.0860    2.2480   -0.8788 H   0  0  0  0  0  0  0  0  0  0  0  0
   -2.5401    1.6489   -0.0656 H   0  0  0  0  0  0  0  0  0  0  0  0
   -1.8040    3.5116    0.6835 C   0  0  0  0  0  0  0  0  0  0  0  0
   -1.4138    3.8410    1.7879 O   0  0  0  0  0  0  0  0  0  0  0  0
   -2.4530    4.4000   -0.0375 N   0  0  0  0  0  0  0  0  0  0  0  0
   -2.5771    5.2959    0.4014 H   0  0  0  0  0  0  0  0  0  0  0  0
   -2.7930    4.1826   -0.9522 H   0  0  0  0  0  0  0  0  0  0  0  0
    0.5662   -0.9897    1.2052 C   0  0  0  0  0  0  0  0  0  0  0  0
    1.7599   -0.7141    1.0987 O   0  0  0  0  0  0  0  0  0  0  0  0
    0.1249   -1.9812    1.9898 N   0  0  0  0  0  0  0  0  0  0  0  0
   -0.8697   -2.1321    2.0457 H   0  0  0  0  0  0  0  0  0  0  0  0
    0.9978   -2.8352    2.7941 C   0  0  0  0  0  0  0  0  0  0  0  0
    1.6018   -2.2170    3.4628 H   0  0  0  0  0  0  0  0  0  0  0  0
    0.4057   -3.5331    3.3879 H   0  0  0  0  0  0  0  0  0  0  0  0
    1.6698   -3.3946    2.1410 H   0  0  0  0  0  0  0  0  0  0  0  0
  5  6  2  0  0  0  0
  5  7  1  0  0  0  0
  2  3  1  0  0  0  0
  2  4  1  0  0  0  0
  2  5  1  0  0  0  0
  1  2  1  0  0  0  0
 22 23  2  0  0  0  0
 22 24  1  0  0  0  0
 19 20  1  0  0  0  0
 19 21  1  0  0  0  0
 17 18  2  0  0  0  0
 17 19  1  0  0  0  0
 14 15  1  0  0  0  0
 14 16  1  0  0  0  0
 14 17  1  0  0  0  0
 11 12  1  0  0  0  0
 11 13  1  0  0  0  0
 11 14  1  0  0  0  0
  9 10  1  0  0  0  0
  9 11  1  0  0  0  0
  9 22  1  0  0  0  0
  7  8  1  0  0  0  0
  7  9  1  0  0  0  0
 26 27  1  0  0  0  0
 26 28  1  0  0  0  0
 26 29  1  0  0  0  0
 24 25  1  0  0  0  0
 24 26  1  0  0  0  0
M  END
$$$$
default_name
  -OEChem-01062215323D

 29 28  0     1  0  0  0  0  0999 V2000
   -3.3998   -3.6239    1.3678 H   0  0  0  0  0  0  0  0  0  0  0  0
   -3.3608   -2.6749    0.8348 C   0  0  0  0  0  0  0  0  0  0  0  0
   -4.0988   -1.9909    1.2498 H   0  0  0  0  0  0  0  0  0  0  0  0
   -3.5618   -2.8419   -0.2222 H   0  0  0  0  0  0  0  0  0  0  0  0
   -1.9818   -2.0809    0.9918 C   0  0  0  0  0  0  0  0  0  0  0  0
   -1.1288   -2.6669    1.6468 O   0  0  0  0  0  0  0  0  0  0  0  0
   -1.7648   -0.9089    0.3998 N   0  0  0  0  0  0  0  0  0  0  0  0
   -2.5238   -0.4719   -0.1032 H   0  0  0  0  0  0  0  0  0  0  0  0
   -0.4848   -0.1959    0.4138 C   0  0  1  0  0  0  0  0  0  0  0  0
   -0.1305   -0.0956   -0.6135 H   0  0  0  0  0  0  0  0  0  0  0  0
   -0.7097    1.2170    0.9867 C   0  0  0  0  0  0  0  0  0  0  0  0
   -1.2059    1.1200    1.9547 H   0  0  0  0  0  0  0  0  0  0  0  0
    0.2579    1.6953    1.1458 H   0  0  0  0  0  0  0  0  0  0  0  0
   -1.5708    2.1227    0.0892 C   0  0  0  0  0  0  0  0  0  0  0  0
   -1.0860    2.2480   -0.8788 H   0  0  0  0  0  0  0  0  0  0  0  0
   -2.5401    1.6489   -0.0656 H   0  0  0  0  0  0  0  0  0  0  0  0
   -1.8040    3.5116    0.6835 C   0  0  0  0  0  0  0  0  0  0  0  0
   -1.4138    3.8410    1.7879 O   0  0  0  0  0  0  0  0  0  0  0  0
   -2.4530    4.4000   -0.0375 N   0  0  0  0  0  0  0  0  0  0  0  0
   -2.5771    5.2959    0.4014 H   0  0  0  0  0  0  0  0  0  0  0  0
   -2.7930    4.1826   -0.9522 H   0  0  0  0  0  0  0  0  0  0  0  0
    0.5662   -0.9897    1.2052 C   0  0  0  0  0  0  0  0  0  0  0  0
    1.7111   -0.5564    1.3216 O   0  0  0  0  0  0  0  0  0  0  0  0
    0.1815   -2.1560    1.7393 N   0  0  0  0  0  0  0  0  0  0  0  0
   -0.7799   -2.4341    1.6236 H   0  0  0  0  0  0  0  0  0  0  0  0
    1.0649   -3.0324    2.5072 C   0  0  0  0  0  0  0  0  0  0  0  0
    1.4867   -2.4809    3.3511 H   0  0  0  0  0  0  0  0  0  0  0  0
    0.5126   -3.8953    2.8826 H   0  0  0  0  0  0  0  0  0  0  0  0
    1.8854   -3.3749    1.8744 H   0  0  0  0  0  0  0  0  0  0  0  0
  5  6  2  0  0  0  0
  5  7  1  0  0  0  0
  2  3  1  0  0  0  0
  2  4  1  0  0  0  0
  2  5  1  0  0  0  0
  1  2  1  0  0  0  0
 22 23  2  0  0  0  0
 22 24  1  0  0  0  0
 19 20  1  0  0  0  0
 19 21  1  0  0  0  0
 17 18  2  0  0  0  0
 17 19  1  0  0  0  0
 14 15  1  0  0  0  0
 14 16  1  0  0  0  0
 14 17  1  0  0  0  0
 11 12  1  0  0  0  0
 11 13  1  0  0  0  0
 11 14  1  0  0  0  0
  9 10  1  0  0  0  0
  9 11  1  0  0  0  0
  9 22  1  0  0  0  0
  7  8  1  0  0  0  0
  7  9  1  0  0  0  0
 26 27  1  0  0  0  0
 26 28  1  0  0  0  0
 26 29  1  0  0  0  0
 24 25  1  0  0  0  0
 24 26  1  0  0  0  0
M  END
$$$$
default_name
  -OEChem-01062215323D

 29 28  0     1  0  0  0  0  0999 V2000
   -3.3998   -3.6239    1.3678 H   0  0  0  0  0  0  0  0  0  0  0  0
   -3.3608   -2.6749    0.8348 C   0  0  0  0  0  0  0  0  0  0  0  0
   -4.0988   -1.9909    1.2498 H   0  0  0  0  0  0  0  0  0  0  0  0
   -3.5618   -2.8419   -0.2222 H   0  0  0  0  0  0  0  0  0  0  0  0
   -1.9818   -2.0809    0.9918 C   0  0  0  0  0  0  0  0  0  0  0  0
   -1.1288   -2.6669    1.6468 O   0  0  0  0  0  0  0  0  0  0  0  0
   -1.7648   -0.9089    0.3998 N   0  0  0  0  0  0  0  0  0  0  0  0
   -2.5238   -0.4719   -0.1032 H   0  0  0  0  0  0  0  0  0  0  0  0
   -0.4848   -0.1959    0.4138 C   0  0  1  0  0  0  0  0  0  0  0  0
   -0.1305   -0.0956   -0.6135 H   0  0  0  0  0  0  0  0  0  0  0  0
   -0.7097    1.2170    0.9867 C   0  0  0  0  0  0  0  0  0  0  0  0
   -1.2059    1.1200    1.9547 H   0  0  0  0  0  0  0  0  0  0  0  0
    0.2579    1.6953    1.1458 H   0  0  0  0  0  0  0  0  0  0  0  0
   -1.5708    2.1227    0.0892 C   0  0  0  0  0  0  0  0  0  0  0  0
   -1.0860    2.2480   -0.8788 H   0  0  0  0  0  0  0  0  0  0  0  0
   -2.5401    1.6489   -0.0656 H   0  0  0  0  0  0  0  0  0  0  0  0
   -1.8040    3.5116    0.6835 C   0  0  0  0  0  0  0  0  0  0  0  0
   -1.4138    3.8410    1.7879 O   0  0  0  0  0  0  0  0  0  0  0  0
   -2.4530    4.4000   -0.0375 N   0  0  0  0  0  0  0  0  0  0  0  0
   -2.5771    5.2959    0.4014 H   0  0  0  0  0  0  0  0  0  0  0  0
   -2.7930    4.1826   -0.9522 H   0  0  0  0  0  0  0  0  0  0  0  0
    0.5662   -0.9897    1.2052 C   0  0  0  0  0  0  0  0  0  0  0  0
    1.6132   -0.4501    1.5582 O   0  0  0  0  0  0  0  0  0  0  0  0
    0.2930   -2.2729    1.4739 N   0  0  0  0  0  0  0  0  0  0  0  0
   -0.5965   -2.6391    1.1743 H   0  0  0  0  0  0  0  0  0  0  0  0
    1.1943   -3.1633    2.2042 C   0  0  0  0  0  0  0  0  0  0  0  0
    1.4256   -2.7314    3.1810 H   0  0  0  0  0  0  0  0  0  0  0  0
    0.7318   -4.1414    2.3448 H   0  0  0  0  0  0  0  0  0  0  0  0
    2.1267   -3.2799    1.6492 H   0  0  0  0  0  0  0  0  0  0  0  0
  5  6  2  0  0  0  0
  5  7  1  0  0  0  0
  2  3  1  0  0  0  0
  2  4  1  0  0  0  0
  2  5  1  0  0  0  0
  1  2  1  0  0  0  0
 22 23  2  0  0  0  0
 22 24  1  0  0  0  0
 19 20  1  0  0  0  0
 19 21  1  0  0  0  0
 17 18  2  0  0  0  0
 17 19  1  0  0  0  0
 14 15  1  0  0  0  0
 14 16  1  0  0  0  0
 14 17  1  0  0  0  0
 11 12  1  0  0  0  0
 11 13  1  0  0  0  0
 11 14  1  0  0  0  0
  9 10  1  0  0  0  0
  9 11  1  0  0  0  0
  9 22  1  0  0  0  0
  7  8  1  0  0  0  0
  7  9  1  0  0  0  0
 26 27  1  0  0  0  0
 26 28  1  0  0  0  0
 26 29  1  0  0  0  0
 24 25  1  0  0  0  0
 24 26  1  0  0  0  0
M  END
$$$$
default_name
  -OEChem-01062215323D

 29 28  0     1  0  0  0  0  0999 V2000
   -3.3998   -3.6239    1.3678 H   0  0  0  0  0  0  0  0  0  0  0  0
   -3.3608   -2.6749    0.8348 C   0  0  0  0  0  0  0  0  0  0  0  0
   -4.0988   -1.9909    1.2498 H   0  0  0  0  0  0  0  0  0  0  0  0
   -3.5618   -2.8419   -0.2222 H   0  0  0  0  0  0  0  0  0  0  0  0
   -1.9818   -2.0809    0.9918 C   0  0  0  0  0  0  0  0  0  0  0  0
   -1.1288   -2.6669    1.6468 O   0  0  0  0  0  0  0  0  0  0  0  0
   -1.7648   -0.9089    0.3998 N   0  0  0  0  0  0  0  0  0  0  0  0
   -2.5238   -0.4719   -0.1032 H   0  0  0  0  0  0  0  0  0  0  0  0
   -0.4848   -0.1959    0.4138 C   0  0  1  0  0  0  0  0  0  0  0  0
   -0.1305   -0.0956   -0.6135 H   0  0  0  0  0  0  0  0  0  0  0  0
   -0.7097    1.2170    0.9867 C   0  0  0  0  0  0  0  0  0  0  0  0
   -1.2059    1.1200    1.9547 H   0  0  0  0  0  0  0  0  0  0  0  0
    0.2579    1.6953    1.1458 H   0  0  0  0  0  0  0  0  0  0  0  0
   -1.5708    2.1227    0.0892 C   0  0  0  0  0  0  0  0  0  0  0  0
   -1.0860    2.2480   -0.8788 H   0  0  0  0  0  0  0  0  0  0  0  0
   -2.5401    1.6489   -0.0656 H   0  0  0  0  0  0  0  0  0  0  0  0
   -1.8040    3.5116    0.6835 C   0  0  0  0  0  0  0  0  0  0  0  0
   -1.4138    3.8410    1.7879 O   0  0  0  0  0  0  0  0  0  0  0  0
   -2.4530    4.4000   -0.0375 N   0  0  0  0  0  0  0  0  0  0  0  0
   -2.5771    5.2959    0.4014 H   0  0  0  0  0  0  0  0  0  0  0  0
   -2.7930    4.1826   -0.9522 H   0  0  0  0  0  0  0  0  0  0  0  0
    0.5662   -0.9897    1.2052 C   0  0  0  0  0  0  0  0  0  0  0  0
    1.4728   -0.4023    1.7926 O   0  0  0  0  0  0  0  0  0  0  0  0
    0.4517   -2.3240    1.2119 N   0  0  0  0  0  0  0  0  0  0  0  0
   -0.3320   -2.7332    0.7286 H   0  0  0  0  0  0  0  0  0  0  0  0
    1.3772   -3.2187    1.9056 C   0  0  0  0  0  0  0  0  0  0  0  0
    1.4227   -2.9513    2.9642 H   0  0  0  0  0  0  0  0  0  0  0  0
    1.0481   -4.2546    1.8110 H   0  0  0  0  0  0  0  0  0  0  0  0
    2.3772   -3.1161    1.4808 H   0  0  0  0  0  0  0  0  0  0  0  0
  5  6  2  0  0  0  0
  5  7  1  0  0  0  0
  2  3  1  0  0  0  0
  2  4  1  0  0  0  0
  2  5  1  0  0  0  0
  1  2  1  0  0  0  0
 22 23  2  0  0  0  0
 22 24  1  0  0  0  0
 19 20  1  0  0  0  0
 19 21  1  0  0  0  0
 17 18  2  0  0  0  0
 17 19  1  0  0  0  0
 14 15  1  0  0  0  0
 14 16  1  0  0  0  0
 14 17  1  0  0  0  0
 11 12  1  0  0  0  0
 11 13  1  0  0  0  0
 11 14  1  0  0  0  0
  9 10  1  0  0  0  0
  9 11  1  0  0  0  0
  9 22  1  0  0  0  0
  7  8  1  0  0  0  0
  7  9  1  0  0  0  0
 26 27  1  0  0  0  0
 26 28  1  0  0  0  0
 26 29  1  0  0  0  0
 24 25  1  0  0  0  0
 24 26  1  0  0  0  0
M  END
$$$$
default_name
  -OEChem-01062215323D

 29 28  0     1  0  0  0  0  0999 V2000
   -3.3998   -3.6239    1.3678 H   0  0  0  0  0  0  0  0  0  0  0  0
   -3.3608   -2.6749    0.8348 C   0  0  0  0  0  0  0  0  0  0  0  0
   -4.0988   -1.9909    1.2498 H   0  0  0  0  0  0  0  0  0  0  0  0
   -3.5618   -2.8419   -0.2222 H   0  0  0  0  0  0  0  0  0  0  0  0
   -1.9818   -2.0809    0.9918 C   0  0  0  0  0  0  0  0  0  0  0  0
   -1.1288   -2.6669    1.6468 O   0  0  0  0  0  0  0  0  0  0  0  0
   -1.7648   -0.9089    0.3998 N   0  0  0  0  0  0  0  0  0  0  0  0
   -2.5238   -0.4719   -0.1032 H   0  0  0  0  0  0  0  0  0  0  0  0
   -0.4848   -0.1959    0.4138 C   0  0  1  0  0  0  0  0  0  0  0  0
   -0.1305   -0.0956   -0.6135 H   0  0  0  0  0  0  0  0  0  0  0  0
   -0.7097    1.2170    0.9867 C   0  0  0  0  0  0  0  0  0  0  0  0
   -1.2059    1.1200    1.9547 H   0  0  0  0  0  0  0  0  0  0  0  0
    0.2579    1.6953    1.1458 H   0  0  0  0  0  0  0  0  0  0  0  0
   -1.5708    2.1227    0.0892 C   0  0  0  0  0  0  0  0  0  0  0  0
   -1.0860    2.2480   -0.8788 H   0  0  0  0  0  0  0  0  0  0  0  0
   -2.5401    1.6489   -0.0656 H   0  0  0  0  0  0  0  0  0  0  0  0
   -1.8040    3.5116    0.6835 C   0  0  0  0  0  0  0  0  0  0  0  0
   -1.4138    3.8410    1.7879 O   0  0  0  0  0  0  0  0  0  0  0  0
   -2.4530    4.4000   -0.0375 N   0  0  0  0  0  0  0  0  0  0  0  0
   -2.5771    5.2959    0.4014 H   0  0  0  0  0  0  0  0  0  0  0  0
   -2.7930    4.1826   -0.9522 H   0  0  0  0  0  0  0  0  0  0  0  0
    0.5662   -0.9897    1.2052 C   0  0  0  0  0  0  0  0  0  0  0  0
    1.2995   -0.4163    2.0087 O   0  0  0  0  0  0  0  0  0  0  0  0
    0.6469   -2.3058    0.9709 N   0  0  0  0  0  0  0  0  0  0  0  0
   -0.0043   -2.7099    0.3168 H   0  0  0  0  0  0  0  0  0  0  0  0
    1.6013   -3.1950    1.6318 C   0  0  0  0  0  0  0  0  0  0  0  0
    1.4782   -3.1258    2.7154 H   0  0  0  0  0  0  0  0  0  0  0  0
    1.4402   -4.2274    1.3177 H   0  0  0  0  0  0  0  0  0  0  0  0
    2.6199   -2.8947    1.3806 H   0  0  0  0  0  0  0  0  0  0  0  0
  5  6  2  0  0  0  0
  5  7  1  0  0  0  0
  2  3  1  0  0  0  0
  2  4  1  0  0  0  0
  2  5  1  0  0  0  0
  1  2  1  0  0  0  0
 22 23  2  0  0  0  0
 22 24  1  0  0  0  0
 19 20  1  0  0  0  0
 19 21  1  0  0  0  0
 17 18  2  0  0  0  0
 17 19  1  0  0  0  0
 14 15  1  0  0  0  0
 14 16  1  0  0  0  0
 14 17  1  0  0  0  0
 11 12  1  0  0  0  0
 11 13  1  0  0  0  0
 11 14  1  0  0  0  0
  9 10  1  0  0  0  0
  9 11  1  0  0  0  0
  9 22  1  0  0  0  0
  7  8  1  0  0  0  0
  7  9  1  0  0  0  0
 26 27  1  0  0  0  0
 26 28  1  0  0  0  0
 26 29  1  0  0  0  0
 24 25  1  0  0  0  0
 24 26  1  0  0  0  0
M  END
$$$$
default_name
  -OEChem-01062215323D

 29 28  0     1  0  0  0  0  0999 V2000
   -3.3998   -3.6239    1.3678 H   0  0  0  0  0  0  0  0  0  0  0  0
   -3.3608   -2.6749    0.8348 C   0  0  0  0  0  0  0  0  0  0  0  0
   -4.0988   -1.9909    1.2498 H   0  0  0  0  0  0  0  0  0  0  0  0
   -3.5618   -2.8419   -0.2222 H   0  0  0  0  0  0  0  0  0  0  0  0
   -1.9818   -2.0809    0.9918 C   0  0  0  0  0  0  0  0  0  0  0  0
   -1.1288   -2.6669    1.6468 O   0  0  0  0  0  0  0  0  0  0  0  0
   -1.7648   -0.9089    0.3998 N   0  0  0  0  0  0  0  0  0  0  0  0
   -2.5238   -0.4719   -0.1032 H   0  0  0  0  0  0  0  0  0  0  0  0
   -0.4848   -0.1959    0.4138 C   0  0  1  0  0  0  0  0  0  0  0  0
   -0.1305   -0.0956   -0.6135 H   0  0  0  0  0  0  0  0  0  0  0  0
   -0.7097    1.2170    0.9867 C   0  0  0  0  0  0  0  0  0  0  0  0
   -1.2059    1.1200    1.9547 H   0  0  0  0  0  0  0  0  0  0  0  0
    0.2579    1.6953    1.1458 H   0  0  0  0  0  0  0  0  0  0  0  0
   -1.5708    2.1227    0.0892 C   0  0  0  0  0  0  0  0  0  0  0  0
   -1.0860    2.2480   -0.8788 H   0  0  0  0  0  0  0  0  0  0  0  0
   -2.5401    1.6489   -0.0656 H   0  0  0  0  0  0  0  0  0  0  0  0
   -1.8040    3.5116    0.6835 C   0  0  0  0  0  0  0  0  0  0  0  0
   -1.4138    3.8410    1.7879 O   0  0  0  0  0  0  0  0  0  0  0  0
   -2.4530    4.4000   -0.0375 N   0  0  0  0  0  0  0  0  0  0  0  0
   -2.5771    5.2959    0.4014 H   0  0  0  0  0  0  0  0  0  0  0  0
   -2.7930    4.1826   -0.9522 H   0  0  0  0  0  0  0  0  0  0  0  0
    0.5662   -0.9897    1.2052 C   0  0  0  0  0  0  0  0  0  0  0  0
    1.1051   -0.4913    2.1917 O   0  0  0  0  0  0  0  0  0  0  0  0
    0.8653   -2.2195    0.7675 N   0  0  0  0  0  0  0  0  0  0  0  0
    0.3642   -2.5707   -0.0330 H   0  0  0  0  0  0  0  0  0  0  0  0
    1.8511   -3.0938    1.4015 C   0  0  0  0  0  0  0  0  0  0  0  0
    1.5883   -3.2429    2.4517 H   0  0  0  0  0  0  0  0  0  0  0  0
    1.8812   -4.0615    0.8984 H   0  0  0  0  0  0  0  0  0  0  0  0
    2.8382   -2.6307    1.3555 H   0  0  0  0  0  0  0  0  0  0  0  0
  5  6  2  0  0  0  0
  5  7  1  0  0  0  0
  2  3  1  0  0  0  0
  2  4  1  0  0  0  0
  2  5  1  0  0  0  0
  1  2  1  0  0  0  0
 22 23  2  0  0  0  0
 22 24  1  0  0  0  0
 19 20  1  0  0  0  0
 19 21  1  0  0  0  0
 17 18  2  0  0  0  0
 17 19  1  0  0  0  0
 14 15  1  0  0  0  0
 14 16  1  0  0  0  0
 14 17  1  0  0  0  0
 11 12  1  0  0  0  0
 11 13  1  0  0  0  0
 11 14  1  0  0  0  0
  9 10  1  0  0  0  0
  9 11  1  0  0  0  0
  9 22  1  0  0  0  0
  7  8  1  0  0  0  0
  7  9  1  0  0  0  0
 26 27  1  0  0  0  0
 26 28  1  0  0  0  0
 26 29  1  0  0  0  0
 24 25  1  0  0  0  0
 24 26  1  0  0  0  0
M  END
$$$$
default_name
  -OEChem-01062215323D

 29 28  0     1  0  0  0  0  0999 V2000
   -3.3998   -3.6239    1.3678 H   0  0  0  0  0  0  0  0  0  0  0  0
   -3.3608   -2.6749    0.8348 C   0  0  0  0  0  0  0  0  0  0  0  0
   -4.0988   -1.9909    1.2498 H   0  0  0  0  0  0  0  0  0  0  0  0
   -3.5618   -2.8419   -0.2222 H   0  0  0  0  0  0  0  0  0  0  0  0
   -1.9818   -2.0809    0.9918 C   0  0  0  0  0  0  0  0  0  0  0  0
   -1.1288   -2.6669    1.6468 O   0  0  0  0  0  0  0  0  0  0  0  0
   -1.7648   -0.9089    0.3998 N   0  0  0  0  0  0  0  0  0  0  0  0
   -2.5238   -0.4719   -0.1032 H   0  0  0  0  0  0  0  0  0  0  0  0
   -0.4848   -0.1959    0.4138 C   0  0  1  0  0  0  0  0  0  0  0  0
   -0.1305   -0.0956   -0.6135 H   0  0  0  0  0  0  0  0  0  0  0  0
   -0.7097    1.2170    0.9867 C   0  0  0  0  0  0  0  0  0  0  0  0
   -1.2059    1.1200    1.9547 H   0  0  0  0  0  0  0  0  0  0  0  0
    0.2579    1.6953    1.1458 H   0  0  0  0  0  0  0  0  0  0  0  0
   -1.5708    2.1227    0.0892 C   0  0  0  0  0  0  0  0  0  0  0  0
   -1.0860    2.2480   -0.8788 H   0  0  0  0  0  0  0  0  0  0  0  0
   -2.5401    1.6489   -0.0656 H   0  0  0  0  0  0  0  0  0  0  0  0
   -1.8040    3.5116    0.6835 C   0  0  0  0  0  0  0  0  0  0  0  0
   -1.4138    3.8410    1.7879 O   0  0  0  0  0  0  0  0  0  0  0  0
   -2.4530    4.4000   -0.0375 N   0  0  0  0  0  0  0  0  0  0  0  0
   -2.5771    5.2959    0.4014 H   0  0  0  0  0  0  0  0  0  0  0  0
   -2.7930    4.1826   -0.9522 H   0  0  0  0  0  0  0  0  0  0  0  0
    0.5662   -0.9897    1.2052 C   0  0  0  0  0  0  0  0  0  0  0  0
    0.9028   -0.6220    2.3292 O   0  0  0  0  0  0  0  0  0  0  0  0
    1.0918   -2.0711    0.6154 N   0  0  0  0  0  0  0  0  0  0  0  0
    0.7483   -2.3253   -0.2970 H   0  0  0  0  0  0  0  0  0  0  0  0
    2.1097   -2.9220    1.2304 C   0  0  0  0  0  0  0  0  0  0  0  0
    1.7456   -3.2947    2.1910 H   0  0  0  0  0  0  0  0  0  0  0  0
    2.3412   -3.7682    0.5817 H   0  0  0  0  0  0  0  0  0  0  0  0
    3.0172   -2.3422    1.4072 H   0  0  0  0  0  0  0  0  0  0  0  0
  5  6  2  0  0  0  0
  5  7  1  0  0  0  0
  2  3  1  0  0  0  0
  2  4  1  0  0  0  0
  2  5  1  0  0  0  0
  1  2  1  0  0  0  0
 22 23  2  0  0  0  0
 22 24  1  0  0  0  0
 19 20  1  0  0  0  0
 19 21  1  0  0  0  0
 17 18  2  0  0  0  0
 17 19  1  0  0  0  0
 14 15  1  0  0  0  0
 14 16  1  0  0  0  0
 14 17  1  0  0  0  0
 11 12  1  0  0  0  0
 11 13  1  0  0  0  0
 11 14  1  0  0  0  0
  9 10  1  0  0  0  0
  9 11  1  0  0  0  0
  9 22  1  0  0  0  0
  7  8  1  0  0  0  0
  7  9  1  0  0  0  0
 26 27  1  0  0  0  0
 26 28  1  0  0  0  0
 26 29  1  0  0  0  0
 24 25  1  0  0  0  0
 24 26  1  0  0  0  0
M  END
$$$$
default_name
  -OEChem-01062215323D

 29 28  0     1  0  0  0  0  0999 V2000
   -3.3998   -3.6239    1.3678 H   0  0  0  0  0  0  0  0  0  0  0  0
   -3.3608   -2.6749    0.8348 C   0  0  0  0  0  0  0  0  0  0  0  0
   -4.0988   -1.9909    1.2498 H   0  0  0  0  0  0  0  0  0  0  0  0
   -3.5618   -2.8419   -0.2222 H   0  0  0  0  0  0  0  0  0  0  0  0
   -1.9818   -2.0809    0.9918 C   0  0  0  0  0  0  0  0  0  0  0  0
   -1.1288   -2.6669    1.6468 O   0  0  0  0  0  0  0  0  0  0  0  0
   -1.7648   -0.9089    0.3998 N   0  0  0  0  0  0  0  0  0  0  0  0
   -2.5238   -0.4719   -0.1032 H   0  0  0  0  0  0  0  0  0  0  0  0
   -0.4848   -0.1959    0.4138 C   0  0  1  0  0  0  0  0  0  0  0  0
   -0.1305   -0.0956   -0.6135 H   0  0  0  0  0  0  0  0  0  0  0  0
   -0.7097    1.2170    0.9867 C   0  0  0  0  0  0  0  0  0  0  0  0
   -1.2059    1.1200    1.9547 H   0  0  0  0  0  0  0  0  0  0  0  0
    0.2579    1.6953    1.1458 H   0  0  0  0  0  0  0  0  0  0  0  0
   -1.5708    2.1227    0.0892 C   0  0  0  0  0  0  0  0  0  0  0  0
   -1.0860    2.2480   -0.8788 H   0  0  0  0  0  0  0  0  0  0  0  0
   -2.5401    1.6489   -0.0656 H   0  0  0  0  0  0  0  0  0  0  0  0
   -1.8040    3.5116    0.6835 C   0  0  0  0  0  0  0  0  0  0  0  0
   -1.4138    3.8410    1.7879 O   0  0  0  0  0  0  0  0  0  0  0  0
   -2.4530    4.4000   -0.0375 N   0  0  0  0  0  0  0  0  0  0  0  0
   -2.5771    5.2959    0.4014 H   0  0  0  0  0  0  0  0  0  0  0  0
   -2.7930    4.1826   -0.9522 H   0  0  0  0  0  0  0  0  0  0  0  0
    0.5662   -0.9897    1.2052 C   0  0  0  0  0  0  0  0  0  0  0  0
    0.7065   -0.7995    2.4119 O   0  0  0  0  0  0  0  0  0  0  0  0
    1.3113   -1.8706    0.5251 N   0  0  0  0  0  0  0  0  0  0  0  0
    1.1220   -1.9903   -0.4572 H   0  0  0  0  0  0  0  0  0  0  0  0
    2.3595   -2.6913    1.1301 C   0  0  0  0  0  0  0  0  0  0  0  0
    1.9392   -3.2776    1.9510 H   0  0  0  0  0  0  0  0  0  0  0  0
    2.7887   -3.3675    0.3892 H   0  0  0  0  0  0  0  0  0  0  0  0
    3.1448   -2.0488    1.5321 H   0  0  0  0  0  0  0  0  0  0  0  0
  5  6  2  0  0  0  0
  5  7  1  0  0  0  0
  2  3  1  0  0  0  0
  2  4  1  0  0  0  0
  2  5  1  0  0  0  0
  1  2  1  0  0  0  0
 22 23  2  0  0  0  0
 22 24  1  0  0  0  0
 19 20  1  0  0  0  0
 19 21  1  0  0  0  0
 17 18  2  0  0  0  0
 17 19  1  0  0  0  0
 14 15  1  0  0  0  0
 14 16  1  0  0  0  0
 14 17  1  0  0  0  0
 11 12  1  0  0  0  0
 11 13  1  0  0  0  0
 11 14  1  0  0  0  0
  9 10  1  0  0  0  0
  9 11  1  0  0  0  0
  9 22  1  0  0  0  0
  7  8  1  0  0  0  0
  7  9  1  0  0  0  0
 26 27  1  0  0  0  0
 26 28  1  0  0  0  0
 26 29  1  0  0  0  0
 24 25  1  0  0  0  0
 24 26  1  0  0  0  0
M  END
$$$$
default_name
  -OEChem-01062215323D

 29 28  0     1  0  0  0  0  0999 V2000
   -3.3998   -3.6239    1.3678 H   0  0  0  0  0  0  0  0  0  0  0  0
   -3.3608   -2.6749    0.8348 C   0  0  0  0  0  0  0  0  0  0  0  0
   -4.0988   -1.9909    1.2498 H   0  0  0  0  0  0  0  0  0  0  0  0
   -3.5618   -2.8419   -0.2222 H   0  0  0  0  0  0  0  0  0  0  0  0
   -1.9818   -2.0809    0.9918 C   0  0  0  0  0  0  0  0  0  0  0  0
   -1.1288   -2.6669    1.6468 O   0  0  0  0  0  0  0  0  0  0  0  0
   -1.7648   -0.9089    0.3998 N   0  0  0  0  0  0  0  0  0  0  0  0
   -2.5238   -0.4719   -0.1032 H   0  0  0  0  0  0  0  0  0  0  0  0
   -0.4848   -0.1959    0.4138 C   0  0  1  0  0  0  0  0  0  0  0  0
   -0.1305   -0.0956   -0.6135 H   0  0  0  0  0  0  0  0  0  0  0  0
   -0.7097    1.2170    0.9867 C   0  0  0  0  0  0  0  0  0  0  0  0
   -1.2059    1.1200    1.9547 H   0  0  0  0  0  0  0  0  0  0  0  0
    0.2579    1.6953    1.1458 H   0  0  0  0  0  0  0  0  0  0  0  0
   -1.5708    2.1227    0.0892 C   0  0  0  0  0  0  0  0  0  0  0  0
   -1.0860    2.2480   -0.8788 H   0  0  0  0  0  0  0  0  0  0  0  0
   -2.5401    1.6489   -0.0656 H   0  0  0  0  0  0  0  0  0  0  0  0
   -1.8040    3.5116    0.6835 C   0  0  0  0  0  0  0  0  0  0  0  0
   -1.4138    3.8410    1.7879 O   0  0  0  0  0  0  0  0  0  0  0  0
   -2.4530    4.4000   -0.0375 N   0  0  0  0  0  0  0  0  0  0  0  0
   -2.5771    5.2959    0.4014 H   0  0  0  0  0  0  0  0  0  0  0  0
   -2.7930    4.1826   -0.9522 H   0  0  0  0  0  0  0  0  0  0  0  0
    0.5662   -0.9897    1.2052 C   0  0  0  0  0  0  0  0  0  0  0  0
    0.5294   -1.0118    2.4341 O   0  0  0  0  0  0  0  0  0  0  0  0
    1.5085   -1.6317    0.5028 N   0  0  0  0  0  0  0  0  0  0  0  0
    1.4596   -1.5886   -0.5027 H   0  0  0  0  0  0  0  0  0  0  0  0
    2.5834   -2.4173    1.1075 C   0  0  0  0  0  0  0  0  0  0  0  0
    2.1561   -3.1927    1.7481 H   0  0  0  0  0  0  0  0  0  0  0  0
    3.1933   -2.8867    0.3341 H   0  0  0  0  0  0  0  0  0  0  0  0
    3.2122   -1.7704    1.7217 H   0  0  0  0  0  0  0  0  0  0  0  0
  5  6  2  0  0  0  0
  5  7  1  0  0  0  0
  2  3  1  0  0  0  0
  2  4  1  0  0  0  0
  2  5  1  0  0  0  0
  1  2  1  0  0  0  0
 22 23  2  0  0  0  0
 22 24  1  0  0  0  0
 19 20  1  0  0  0  0
 19 21  1  0  0  0  0
 17 18  2  0  0  0  0
 17 19  1  0  0  0  0
 14 15  1  0  0  0  0
 14 16  1  0  0  0  0
 14 17  1  0  0  0  0
 11 12  1  0  0  0  0
 11 13  1  0  0  0  0
 11 14  1  0  0  0  0
  9 10  1  0  0  0  0
  9 11  1  0  0  0  0
  9 22  1  0  0  0  0
  7  8  1  0  0  0  0
  7  9  1  0  0  0  0
 26 27  1  0  0  0  0
 26 28  1  0  0  0  0
 26 29  1  0  0  0  0
 24 25  1  0  0  0  0
 24 26  1  0  0  0  0
M  END
$$$$
default_name
  -OEChem-01062215323D

 29 28  0     1  0  0  0  0  0999 V2000
   -3.3998   -3.6239    1.3678 H   0  0  0  0  0  0  0  0  0  0  0  0
   -3.3608   -2.6749    0.8348 C   0  0  0  0  0  0  0  0  0  0  0  0
   -4.0988   -1.9909    1.2498 H   0  0  0  0  0  0  0  0  0  0  0  0
   -3.5618   -2.8419   -0.2222 H   0  0  0  0  0  0  0  0  0  0  0  0
   -1.9818   -2.0809    0.9918 C   0  0  0  0  0  0  0  0  0  0  0  0
   -1.1288   -2.6669    1.6468 O   0  0  0  0  0  0  0  0  0  0  0  0
   -1.7648   -0.9089    0.3998 N   0  0  0  0  0  0  0  0  0  0  0  0
   -2.5238   -0.4719   -0.1032 H   0  0  0  0  0  0  0  0  0  0  0  0
   -0.4848   -0.1959    0.4138 C   0  0  1  0  0  0  0  0  0  0  0  0
   -0.1305   -0.0956   -0.6135 H   0  0  0  0  0  0  0  0  0  0  0  0
   -0.7097    1.2170    0.9867 C   0  0  0  0  0  0  0  0  0  0  0  0
   -1.2059    1.1200    1.9547 H   0  0  0  0  0  0  0  0  0  0  0  0
    0.2579    1.6953    1.1458 H   0  0  0  0  0  0  0  0  0  0  0  0
   -1.5708    2.1227    0.0892 C   0  0  0  0  0  0  0  0  0  0  0  0
   -1.0860    2.2480   -0.8788 H   0  0  0  0  0  0  0  0  0  0  0  0
   -2.5401    1.6489   -0.0656 H   0  0  0  0  0  0  0  0  0  0  0  0
   -1.8040    3.5116    0.6835 C   0  0  0  0  0  0  0  0  0  0  0  0
   -1.4138    3.8410    1.7879 O   0  0  0  0  0  0  0  0  0  0  0  0
   -2.4530    4.4000   -0.0375 N   0  0  0  0  0  0  0  0  0  0  0  0
   -2.5771    5.2959    0.4014 H   0  0  0  0  0  0  0  0  0  0  0  0
   -2.7930    4.1826   -0.9522 H   0  0  0  0  0  0  0  0  0  0  0  0
    0.5662   -0.9897    1.2052 C   0  0  0  0  0  0  0  0  0  0  0  0
    0.3838   -1.2444    2.3942 O   0  0  0  0  0  0  0  0  0  0  0  0
    1.6702   -1.3706    0.5498 N   0  0  0  0  0  0  0  0  0  0  0  0
    1.7383   -1.1475   -0.4303 H   0  0  0  0  0  0  0  0  0  0  0  0
    2.7663   -2.1189    1.1641 C   0  0  0  0  0  0  0  0  0  0  0  0
    2.3814   -3.0459    1.5961 H   0  0  0  0  0  0  0  0  0  0  0  0
    3.5274   -2.3587    0.4201 H   0  0  0  0  0  0  0  0  0  0  0  0
    3.2148   -1.5262    1.9632 H   0  0  0  0  0  0  0  0  0  0  0  0
  5  6  2  0  0  0  0
  5  7  1  0  0  0  0
  2  3  1  0  0  0  0
  2  4  1  0  0  0  0
  2  5  1  0  0  0  0
  1  2  1  0  0  0  0
 22 23  2  0  0  0  0
 22 24  1  0  0  0  0
 19 20  1  0  0  0  0
 19 21  1  0  0  0  0
 17 18  2  0  0  0  0
 17 19  1  0  0  0  0
 14 15  1  0  0  0  0
 14 16  1  0  0  0  0
 14 17  1  0  0  0  0
 11 12  1  0  0  0  0
 11 13  1  0  0  0  0
 11 14  1  0  0  0  0
  9 10  1  0  0  0  0
  9 11  1  0  0  0  0
  9 22  1  0  0  0  0
  7  8  1  0  0  0  0
  7  9  1  0  0  0  0
 26 27  1  0  0  0  0
 26 28  1  0  0  0  0
 26 29  1  0  0  0  0
 24 25  1  0  0  0  0
 24 26  1  0  0  0  0
M  END
$$$$
default_name
  -OEChem-01062215323D

 29 28  0     1  0  0  0  0  0999 V2000
   -3.3998   -3.6239    1.3678 H   0  0  0  0  0  0  0  0  0  0  0  0
   -3.3608   -2.6749    0.8348 C   0  0  0  0  0  0  0  0  0  0  0  0
   -4.0988   -1.9909    1.2498 H   0  0  0  0  0  0  0  0  0  0  0  0
   -3.5618   -2.8419   -0.2222 H   0  0  0  0  0  0  0  0  0  0  0  0
   -1.9818   -2.0809    0.9918 C   0  0  0  0  0  0  0  0  0  0  0  0
   -1.1288   -2.6669    1.6468 O   0  0  0  0  0  0  0  0  0  0  0  0
   -1.7648   -0.9089    0.3998 N   0  0  0  0  0  0  0  0  0  0  0  0
   -2.5238   -0.4719   -0.1032 H   0  0  0  0  0  0  0  0  0  0  0  0
   -0.4848   -0.1959    0.4138 C   0  0  1  0  0  0  0  0  0  0  0  0
   -0.1305   -0.0956   -0.6135 H   0  0  0  0  0  0  0  0  0  0  0  0
   -0.7097    1.2170    0.9867 C   0  0  0  0  0  0  0  0  0  0  0  0
   -1.2059    1.1200    1.9547 H   0  0  0  0  0  0  0  0  0  0  0  0
    0.2579    1.6953    1.1458 H   0  0  0  0  0  0  0  0  0  0  0  0
   -1.5708    2.1227    0.0892 C   0  0  0  0  0  0  0  0  0  0  0  0
   -1.0860    2.2480   -0.8788 H   0  0  0  0  0  0  0  0  0  0  0  0
   -2.5401    1.6489   -0.0656 H   0  0  0  0  0  0  0  0  0  0  0  0
   -1.8040    3.5116    0.6835 C   0  0  0  0  0  0  0  0  0  0  0  0
   -1.4138    3.8410    1.7879 O   0  0  0  0  0  0  0  0  0  0  0  0
   -2.4530    4.4000   -0.0375 N   0  0  0  0  0  0  0  0  0  0  0  0
   -2.5771    5.2959    0.4014 H   0  0  0  0  0  0  0  0  0  0  0  0
   -2.7930    4.1826   -0.9522 H   0  0  0  0  0  0  0  0  0  0  0  0
    0.5662   -0.9897    1.2052 C   0  0  0  0  0  0  0  0  0  0  0  0
    0.2794   -1.4815    2.2951 O   0  0  0  0  0  0  0  0  0  0  0  0
    1.7854   -1.1053    0.6631 N   0  0  0  0  0  0  0  0  0  0  0  0
    1.9391   -0.6970   -0.2451 H   0  0  0  0  0  0  0  0  0  0  0  0
    2.8955   -1.8162    1.2960 C   0  0  0  0  0  0  0  0  0  0  0  0
    2.5998   -2.8472    1.5054 H   0  0  0  0  0  0  0  0  0  0  0  0
    3.7682   -1.8193    0.6413 H   0  0  0  0  0  0  0  0  0  0  0  0
    3.1525   -1.3327    2.2400 H   0  0  0  0  0  0  0  0  0  0  0  0
  5  6  2  0  0  0  0
  5  7  1  0  0  0  0
  2  3  1  0  0  0  0
  2  4  1  0  0  0  0
  2  5  1  0  0  0  0
  1  2  1  0  0  0  0
 22 23  2  0  0  0  0
 22 24  1  0  0  0  0
 19 20  1  0  0  0  0
 19 21  1  0  0  0  0
 17 18  2  0  0  0  0
 17 19  1  0  0  0  0
 14 15  1  0  0  0  0
 14 16  1  0  0  0  0
 14 17  1  0  0  0  0
 11 12  1  0  0  0  0
 11 13  1  0  0  0  0
 11 14  1  0  0  0  0
  9 10  1  0  0  0  0
  9 11  1  0  0  0  0
  9 22  1  0  0  0  0
  7  8  1  0  0  0  0
  7  9  1  0  0  0  0
 26 27  1  0  0  0  0
 26 28  1  0  0  0  0
 26 29  1  0  0  0  0
 24 25  1  0  0  0  0
 24 26  1  0  0  0  0
M  END
$$$$
default_name
  -OEChem-01062215323D

 29 28  0     1  0  0  0  0  0999 V2000
   -3.3998   -3.6239    1.3678 H   0  0  0  0  0  0  0  0  0  0  0  0
   -3.3608   -2.6749    0.8348 C   0  0  0  0  0  0  0  0  0  0  0  0
   -4.0988   -1.9909    1.2498 H   0  0  0  0  0  0  0  0  0  0  0  0
   -3.5618   -2.8419   -0.2222 H   0  0  0  0  0  0  0  0  0  0  0  0
   -1.9818   -2.0809    0.9918 C   0  0  0  0  0  0  0  0  0  0  0  0
   -1.1288   -2.6669    1.6468 O   0  0  0  0  0  0  0  0  0  0  0  0
   -1.7648   -0.9089    0.3998 N   0  0  0  0  0  0  0  0  0  0  0  0
   -2.5238   -0.4719   -0.1032 H   0  0  0  0  0  0  0  0  0  0  0  0
   -0.4848   -0.1959    0.4138 C   0  0  1  0  0  0  0  0  0  0  0  0
   -0.1305   -0.0956   -0.6135 H   0  0  0  0  0  0  0  0  0  0  0  0
   -0.7097    1.2170    0.9867 C   0  0  0  0  0  0  0  0  0  0  0  0
   -1.2059    1.1200    1.9547 H   0  0  0  0  0  0  0  0  0  0  0  0
    0.2579    1.6953    1.1458 H   0  0  0  0  0  0  0  0  0  0  0  0
   -1.5708    2.1227    0.0892 C   0  0  0  0  0  0  0  0  0  0  0  0
   -1.0860    2.2480   -0.8788 H   0  0  0  0  0  0  0  0  0  0  0  0
   -2.5401    1.6489   -0.0656 H   0  0  0  0  0  0  0  0  0  0  0  0
   -1.8040    3.5116    0.6835 C   0  0  0  0  0  0  0  0  0  0  0  0
   -1.4138    3.8410    1.7879 O   0  0  0  0  0  0  0  0  0  0  0  0
   -2.4530    4.4000   -0.0375 N   0  0  0  0  0  0  0  0  0  0  0  0
   -2.5771    5.2959    0.4014 H   0  0  0  0  0  0  0  0  0  0  0  0
   -2.7930    4.1826   -0.9522 H   0  0  0  0  0  0  0  0  0  0  0  0
    0.5662   -0.9897    1.2052 C   0  0  0  0  0  0  0  0  0  0  0  0
    0.2234   -1.7068    2.1434 O   0  0  0  0  0  0  0  0  0  0  0  0
    1.8460   -0.8537    0.8349 N   0  0  0  0  0  0  0  0  0  0  0  0
    2.0481   -0.2680    0.0404 H   0  0  0  0  0  0  0  0  0  0  0  0
    2.9623   -1.5300    1.4943 C   0  0  0  0  0  0  0  0  0  0  0  0
    2.7963   -2.6101    1.4822 H   0  0  0  0  0  0  0  0  0  0  0  0
    3.8994   -1.3053    0.9826 H   0  0  0  0  0  0  0  0  0  0  0  0
    3.0295   -1.2031    2.5333 H   0  0  0  0  0  0  0  0  0  0  0  0
  5  6  2  0  0  0  0
  5  7  1  0  0  0  0
  2  3  1  0  0  0  0
  2  4  1  0  0  0  0
  2  5  1  0  0  0  0
  1  2  1  0  0  0  0
 22 23  2  0  0  0  0
 22 24  1  0  0  0  0
 19 20  1  0  0  0  0
 19 21  1  0  0  0  0
 17 18  2  0  0  0  0
 17 19  1  0  0  0  0
 14 15  1  0  0  0  0
 14 16  1  0  0  0  0
 14 17  1  0  0  0  0
 11 12  1  0  0  0  0
 11 13  1  0  0  0  0
 11 14  1  0  0  0  0
  9 10  1  0  0  0  0
  9 11  1  0  0  0  0
  9 22  1  0  0  0  0
  7  8  1  0  0  0  0
  7  9  1  0  0  0  0
 26 27  1  0  0  0  0
 26 28  1  0  0  0  0
 26 29  1  0  0  0  0
 24 25  1  0  0  0  0
 24 26  1  0  0  0  0
M  END
$$$$
default_name
  -OEChem-01062215323D

 29 28  0     1  0  0  0  0  0999 V2000
   -3.3998   -3.6239    1.3678 H   0  0  0  0  0  0  0  0  0  0  0  0
   -3.3608   -2.6749    0.8348 C   0  0  0  0  0  0  0  0  0  0  0  0
   -4.0988   -1.9909    1.2498 H   0  0  0  0  0  0  0  0  0  0  0  0
   -3.5618   -2.8419   -0.2222 H   0  0  0  0  0  0  0  0  0  0  0  0
   -1.9818   -2.0809    0.9918 C   0  0  0  0  0  0  0  0  0  0  0  0
   -1.1288   -2.6669    1.6468 O   0  0  0  0  0  0  0  0  0  0  0  0
   -1.7648   -0.9089    0.3998 N   0  0  0  0  0  0  0  0  0  0  0  0
   -2.5238   -0.4719   -0.1032 H   0  0  0  0  0  0  0  0  0  0  0  0
   -0.4848   -0.1959    0.4138 C   0  0  1  0  0  0  0  0  0  0  0  0
   -0.1305   -0.0956   -0.6135 H   0  0  0  0  0  0  0  0  0  0  0  0
   -0.7097    1.2170    0.9867 C   0  0  0  0  0  0  0  0  0  0  0  0
   -1.2059    1.1200    1.9547 H   0  0  0  0  0  0  0  0  0  0  0  0
    0.2579    1.6953    1.1458 H   0  0  0  0  0  0  0  0  0  0  0  0
   -1.5708    2.1227    0.0892 C   0  0  0  0  0  0  0  0  0  0  0  0
   -1.0860    2.2480   -0.8788 H   0  0  0  0  0  0  0  0  0  0  0  0
   -2.5401    1.6489   -0.0656 H   0  0  0  0  0  0  0  0  0  0  0  0
   -1.8040    3.5116    0.6835 C   0  0  0  0  0  0  0  0  0  0  0  0
   -1.4138    3.8410    1.7879 O   0  0  0  0  0  0  0  0  0  0  0  0
   -2.4530    4.4000   -0.0375 N   0  0  0  0  0  0  0  0  0  0  0  0
   -2.5771    5.2959    0.4014 H   0  0  0  0  0  0  0  0  0  0  0  0
   -2.7930    4.1826   -0.9522 H   0  0  0  0  0  0  0  0  0  0  0  0
    0.5662   -0.9897    1.2052 C   0  0  0  0  0  0  0  0  0  0  0  0
    0.2197   -1.9051    1.9495 O   0  0  0  0  0  0  0  0  0  0  0  0
    1.8481   -0.6330    1.0535 N   0  0  0  0  0  0  0  0  0  0  0  0
    2.0581    0.1105    0.4067 H   0  0  0  0  0  0  0  0  0  0  0  0
    2.9622   -1.2798    1.7454 C   0  0  0  0  0  0  0  0  0  0  0  0
    2.9577   -2.3507    1.5281 H   0  0  0  0  0  0  0  0  0  0  0  0
    3.9119   -0.8518    1.4208 H   0  0  0  0  0  0  0  0  0  0  0  0
    2.8542   -1.1462    2.8231 H   0  0  0  0  0  0  0  0  0  0  0  0
  5  6  2  0  0  0  0
  5  7  1  0  0  0  0
  2  3  1  0  0  0  0
  2  4  1  0  0  0  0
  2  5  1  0  0  0  0
  1  2  1  0  0  0  0
 22 23  2  0  0  0  0
 22 24  1  0  0  0  0
 19 20  1  0  0  0  0
 19 21  1  0  0  0  0
 17 18  2  0  0  0  0
 17 19  1  0  0  0  0
 14 15  1  0  0  0  0
 14 16  1  0  0  0  0
 14 17  1  0  0  0  0
 11 12  1  0  0  0  0
 11 13  1  0  0  0  0
 11 14  1  0  0  0  0
  9 10  1  0  0  0  0
  9 11  1  0  0  0  0
  9 22  1  0  0  0  0
  7  8  1  0  0  0  0
  7  9  1  0  0  0  0
 26 27  1  0  0  0  0
 26 28  1  0  0  0  0
 26 29  1  0  0  0  0
 24 25  1  0  0  0  0
 24 26  1  0  0  0  0
M  END
$$$$
default_name
  -OEChem-01062215323D

 29 28  0     1  0  0  0  0  0999 V2000
   -3.3998   -3.6239    1.3678 H   0  0  0  0  0  0  0  0  0  0  0  0
   -3.3608   -2.6749    0.8348 C   0  0  0  0  0  0  0  0  0  0  0  0
   -4.0988   -1.9909    1.2498 H   0  0  0  0  0  0  0  0  0  0  0  0
   -3.5618   -2.8419   -0.2222 H   0  0  0  0  0  0  0  0  0  0  0  0
   -1.9818   -2.0809    0.9918 C   0  0  0  0  0  0  0  0  0  0  0  0
   -1.1288   -2.6669    1.6468 O   0  0  0  0  0  0  0  0  0  0  0  0
   -1.7648   -0.9089    0.3998 N   0  0  0  0  0  0  0  0  0  0  0  0
   -2.5238   -0.4719   -0.1032 H   0  0  0  0  0  0  0  0  0  0  0  0
   -0.4848   -0.1959    0.4138 C   0  0  1  0  0  0  0  0  0  0  0  0
   -0.2618    0.1399   -0.6003 H   0  0  0  0  0  0  0  0  0  0  0  0
   -0.6186    1.0470    1.3152 C   0  0  0  0  0  0  0  0  0  0  0  0
   -0.9897    0.7254    2.2905 H   0  0  0  0  0  0  0  0  0  0  0  0
    0.3670    1.4934    1.4554 H   0  0  0  0  0  0  0  0  0  0  0  0
   -1.5751    2.1174    0.7613 C   0  0  0  0  0  0  0  0  0  0  0  0
   -1.2149    2.4663   -0.2063 H   0  0  0  0  0  0  0  0  0  0  0  0
   -2.5618    1.6744    0.6264 H   0  0  0  0  0  0  0  0  0  0  0  0
   -1.7148    3.3319    1.6789 C   0  0  0  0  0  0  0  0  0  0  0  0
   -1.1843    3.4098    2.7712 O   0  0  0  0  0  0  0  0  0  0  0  0
   -2.4388    4.3491    1.2651 N   0  0  0  0  0  0  0  0  0  0  0  0
   -2.4958    5.1204    1.9073 H   0  0  0  0  0  0  0  0  0  0  0  0
   -2.8942    4.3383    0.3750 H   0  0  0  0  0  0  0  0  0  0  0  0
    0.6481   -1.1300    0.8666 C   0  0  0  0  0  0  0  0  0  0  0  0
    0.4056   -2.2980    1.1649 O   0  0  0  0  0  0  0  0  0  0  0  0
    1.8823   -0.6139    0.9283 N   0  0  0  0  0  0  0  0  0  0  0  0
    2.0082    0.3445    0.6441 H   0  0  0  0  0  0  0  0  0  0  0  0
    3.0616   -1.3678    1.3518 C   0  0  0  0  0  0  0  0  0  0  0  0
    3.1762   -2.2543    0.7232 H   0  0  0  0  0  0  0  0  0  0  0  0
    3.9577   -0.7510    1.2690 H   0  0  0  0  0  0  0  0  0  0  0  0
    2.9395   -1.6924    2.3866 H   0  0  0  0  0  0  0  0  0  0  0  0
  5  6  2  0  0  0  0
  5  7  1  0  0  0  0
  2  3  1  0  0  0  0
  2  4  1  0  0  0  0
  2  5  1  0  0  0  0
  1  2  1  0  0  0  0
 22 23  2  0  0  0  0
 22 24  1  0  0  0  0
 19 20  1  0  0  0  0
 19 21  1  0  0  0  0
 17 18  2  0  0  0  0
 17 19  1  0  0  0  0
 14 15  1  0  0  0  0
 14 16  1  0  0  0  0
 14 17  1  0  0  0  0
 11 12  1  0  0  0  0
 11 13  1  0  0  0  0
 11 14  1  0  0  0  0
  9 10  1  0  0  0  0
  9 11  1  0  0  0  0
  9 22  1  0  0  0  0
  7  8  1  0  0  0  0
  7  9  1  0  0  0  0
 26 27  1  0  0  0  0
 26 28  1  0  0  0  0
 26 29  1  0  0  0  0
 24 25  1  0  0  0  0
 24 26  1  0  0  0  0
M  END
$$$$
default_name
  -OEChem-01062215323D

 29 28  0     1  0  0  0  0  0999 V2000
   -3.3998   -3.6239    1.3678 H   0  0  0  0  0  0  0  0  0  0  0  0
   -3.3608   -2.6749    0.8348 C   0  0  0  0  0  0  0  0  0  0  0  0
   -4.0988   -1.9909    1.2498 H   0  0  0  0  0  0  0  0  0  0  0  0
   -3.5618   -2.8419   -0.2222 H   0  0  0  0  0  0  0  0  0  0  0  0
   -1.9818   -2.0809    0.9918 C   0  0  0  0  0  0  0  0  0  0  0  0
   -1.1288   -2.6669    1.6468 O   0  0  0  0  0  0  0  0  0  0  0  0
   -1.7648   -0.9089    0.3998 N   0  0  0  0  0  0  0  0  0  0  0  0
   -2.5238   -0.4719   -0.1032 H   0  0  0  0  0  0  0  0  0  0  0  0
   -0.4848   -0.1959    0.4138 C   0  0  1  0  0  0  0  0  0  0  0  0
   -0.2618    0.1399   -0.6003 H   0  0  0  0  0  0  0  0  0  0  0  0
   -0.6186    1.0470    1.3152 C   0  0  0  0  0  0  0  0  0  0  0  0
   -0.9897    0.7254    2.2905 H   0  0  0  0  0  0  0  0  0  0  0  0
    0.3670    1.4934    1.4554 H   0  0  0  0  0  0  0  0  0  0  0  0
   -1.5751    2.1174    0.7613 C   0  0  0  0  0  0  0  0  0  0  0  0
   -1.2149    2.4663   -0.2063 H   0  0  0  0  0  0  0  0  0  0  0  0
   -2.5618    1.6744    0.6264 H   0  0  0  0  0  0  0  0  0  0  0  0
   -1.7148    3.3319    1.6789 C   0  0  0  0  0  0  0  0  0  0  0  0
   -1.1843    3.4098    2.7712 O   0  0  0  0  0  0  0  0  0  0  0  0
   -2.4388    4.3491    1.2651 N   0  0  0  0  0  0  0  0  0  0  0  0
   -2.4958    5.1204    1.9073 H   0  0  0  0  0  0  0  0  0  0  0  0
   -2.8942    4.3383    0.3750 H   0  0  0  0  0  0  0  0  0  0  0  0
    0.6481   -1.1300    0.8666 C   0  0  0  0  0  0  0  0  0  0  0  0
    0.4716   -2.3465    0.8999 O   0  0  0  0  0  0  0  0  0  0  0  0
    1.8066   -0.5619    1.2250 N   0  0  0  0  0  0  0  0  0  0  0  0
    1.8855    0.4395    1.1475 H   0  0  0  0  0  0  0  0  0  0  0  0
    2.9730   -1.3111    1.6904 C   0  0  0  0  0  0  0  0  0  0  0  0
    3.2613   -2.0477    0.9365 H   0  0  0  0  0  0  0  0  0  0  0  0
    3.8112   -0.6365    1.8718 H   0  0  0  0  0  0  0  0  0  0  0  0
    2.7274   -1.8399    2.6129 H   0  0  0  0  0  0  0  0  0  0  0  0
  5  6  2  0  0  0  0
  5  7  1  0  0  0  0
  2  3  1  0  0  0  0
  2  4  1  0  0  0  0
  2  5  1  0  0  0  0
  1  2  1  0  0  0  0
 22 23  2  0  0  0  0
 22 24  1  0  0  0  0
 19 20  1  0  0  0  0
 19 21  1  0  0  0  0
 17 18  2  0  0  0  0
 17 19  1  0  0  0  0
 14 15  1  0  0  0  0
 14 16  1  0  0  0  0
 14 17  1  0  0  0  0
 11 12  1  0  0  0  0
 11 13  1  0  0  0  0
 11 14  1  0  0  0  0
  9 10  1  0  0  0  0
  9 11  1  0  0  0  0
  9 22  1  0  0  0  0
  7  8  1  0  0  0  0
  7  9  1  0  0  0  0
 26 27  1  0  0  0  0
 26 28  1  0  0  0  0
 26 29  1  0  0  0  0
 24 25  1  0  0  0  0
 24 26  1  0  0  0  0
M  END
$$$$
default_name
  -OEChem-01062215323D

 29 28  0     1  0  0  0  0  0999 V2000
   -3.3998   -3.6239    1.3678 H   0  0  0  0  0  0  0  0  0  0  0  0
   -3.3608   -2.6749    0.8348 C   0  0  0  0  0  0  0  0  0  0  0  0
   -4.0988   -1.9909    1.2498 H   0  0  0  0  0  0  0  0  0  0  0  0
   -3.5618   -2.8419   -0.2222 H   0  0  0  0  0  0  0  0  0  0  0  0
   -1.9818   -2.0809    0.9918 C   0  0  0  0  0  0  0  0  0  0  0  0
   -1.1288   -2.6669    1.6468 O   0  0  0  0  0  0  0  0  0  0  0  0
   -1.7648   -0.9089    0.3998 N   0  0  0  0  0  0  0  0  0  0  0  0
   -2.5238   -0.4719   -0.1032 H   0  0  0  0  0  0  0  0  0  0  0  0
   -0.4848   -0.1959    0.4138 C   0  0  1  0  0  0  0  0  0  0  0  0
   -0.2618    0.1399   -0.6003 H   0  0  0  0  0  0  0  0  0  0  0  0
   -0.6186    1.0470    1.3152 C   0  0  0  0  0  0  0  0  0  0  0  0
   -0.9897    0.7254    2.2905 H   0  0  0  0  0  0  0  0  0  0  0  0
    0.3670    1.4934    1.4554 H   0  0  0  0  0  0  0  0  0  0  0  0
   -1.5751    2.1174    0.7613 C   0  0  0  0  0  0  0  0  0  0  0  0
   -1.2149    2.4663   -0.2063 H   0  0  0  0  0  0  0  0  0  0  0  0
   -2.5618    1.6744    0.6264 H   0  0  0  0  0  0  0  0  0  0  0  0
   -1.7148    3.3319    1.6789 C   0  0  0  0  0  0  0  0  0  0  0  0
   -1.1843    3.4098    2.7712 O   0  0  0  0  0  0  0  0  0  0  0  0
   -2.4388    4.3491    1.2651 N   0  0  0  0  0  0  0  0  0  0  0  0
   -2.4958    5.1204    1.9073 H   0  0  0  0  0  0  0  0  0  0  0  0
   -2.8942    4.3383    0.3750 H   0  0  0  0  0  0  0  0  0  0  0  0
    0.6481   -1.1300    0.8666 C   0  0  0  0  0  0  0  0  0  0  0  0
    0.5807   -2.3377    0.6451 O   0  0  0  0  0  0  0  0  0  0  0  0
    1.6829   -0.5740    1.5097 N   0  0  0  0  0  0  0  0  0  0  0  0
    1.6804    0.4260    1.6325 H   0  0  0  0  0  0  0  0  0  0  0  0
    2.8299   -1.3276    2.0144 C   0  0  0  0  0  0  0  0  0  0  0  0
    3.2941   -1.8824    1.1953 H   0  0  0  0  0  0  0  0  0  0  0  0
    3.5661   -0.6522    2.4528 H   0  0  0  0  0  0  0  0  0  0  0  0
    2.4982   -2.0417    2.7700 H   0  0  0  0  0  0  0  0  0  0  0  0
  5  6  2  0  0  0  0
  5  7  1  0  0  0  0
  2  3  1  0  0  0  0
  2  4  1  0  0  0  0
  2  5  1  0  0  0  0
  1  2  1  0  0  0  0
 22 23  2  0  0  0  0
 22 24  1  0  0  0  0
 19 20  1  0  0  0  0
 19 21  1  0  0  0  0
 17 18  2  0  0  0  0
 17 19  1  0  0  0  0
 14 15  1  0  0  0  0
 14 16  1  0  0  0  0
 14 17  1  0  0  0  0
 11 12  1  0  0  0  0
 11 13  1  0  0  0  0
 11 14  1  0  0  0  0
  9 10  1  0  0  0  0
  9 11  1  0  0  0  0
  9 22  1  0  0  0  0
  7  8  1  0  0  0  0
  7  9  1  0  0  0  0
 26 27  1  0  0  0  0
 26 28  1  0  0  0  0
 26 29  1  0  0  0  0
 24 25  1  0  0  0  0
 24 26  1  0  0  0  0
M  END
$$$$
default_name
  -OEChem-01062215323D

 29 28  0     1  0  0  0  0  0999 V2000
   -3.3998   -3.6239    1.3678 H   0  0  0  0  0  0  0  0  0  0  0  0
   -3.3608   -2.6749    0.8348 C   0  0  0  0  0  0  0  0  0  0  0  0
   -4.0988   -1.9909    1.2498 H   0  0  0  0  0  0  0  0  0  0  0  0
   -3.5618   -2.8419   -0.2222 H   0  0  0  0  0  0  0  0  0  0  0  0
   -1.9818   -2.0809    0.9918 C   0  0  0  0  0  0  0  0  0  0  0  0
   -1.1288   -2.6669    1.6468 O   0  0  0  0  0  0  0  0  0  0  0  0
   -1.7648   -0.9089    0.3998 N   0  0  0  0  0  0  0  0  0  0  0  0
   -2.5238   -0.4719   -0.1032 H   0  0  0  0  0  0  0  0  0  0  0  0
   -0.4848   -0.1959    0.4138 C   0  0  1  0  0  0  0  0  0  0  0  0
   -0.2618    0.1399   -0.6003 H   0  0  0  0  0  0  0  0  0  0  0  0
   -0.6186    1.0470    1.3152 C   0  0  0  0  0  0  0  0  0  0  0  0
   -0.9897    0.7254    2.2905 H   0  0  0  0  0  0  0  0  0  0  0  0
    0.3670    1.4934    1.4554 H   0  0  0  0  0  0  0  0  0  0  0  0
   -1.5751    2.1174    0.7613 C   0  0  0  0  0  0  0  0  0  0  0  0
   -1.2149    2.4663   -0.2063 H   0  0  0  0  0  0  0  0  0  0  0  0
   -2.5618    1.6744    0.6264 H   0  0  0  0  0  0  0  0  0  0  0  0
   -1.7148    3.3319    1.6789 C   0  0  0  0  0  0  0  0  0  0  0  0
   -1.1843    3.4098    2.7712 O   0  0  0  0  0  0  0  0  0  0  0  0
   -2.4388    4.3491    1.2651 N   0  0  0  0  0  0  0  0  0  0  0  0
   -2.4958    5.1204    1.9073 H   0  0  0  0  0  0  0  0  0  0  0  0
   -2.8942    4.3383    0.3750 H   0  0  0  0  0  0  0  0  0  0  0  0
    0.6481   -1.1300    0.8666 C   0  0  0  0  0  0  0  0  0  0  0  0
    0.7255   -2.2722    0.4178 O   0  0  0  0  0  0  0  0  0  0  0  0
    1.5194   -0.6495    1.7628 N   0  0  0  0  0  0  0  0  0  0  0  0
    1.4071    0.3047    2.0662 H   0  0  0  0  0  0  0  0  0  0  0  0
    2.6420   -1.4163    2.3016 C   0  0  0  0  0  0  0  0  0  0  0  0
    3.2726   -1.7696    1.4820 H   0  0  0  0  0  0  0  0  0  0  0  0
    3.2392   -0.7968    2.9724 H   0  0  0  0  0  0  0  0  0  0  0  0
    2.2675   -2.2841    2.8472 H   0  0  0  0  0  0  0  0  0  0  0  0
  5  6  2  0  0  0  0
  5  7  1  0  0  0  0
  2  3  1  0  0  0  0
  2  4  1  0  0  0  0
  2  5  1  0  0  0  0
  1  2  1  0  0  0  0
 22 23  2  0  0  0  0
 22 24  1  0  0  0  0
 19 20  1  0  0  0  0
 19 21  1  0  0  0  0
 17 18  2  0  0  0  0
 17 19  1  0  0  0  0
 14 15  1  0  0  0  0
 14 16  1  0  0  0  0
 14 17  1  0  0  0  0
 11 12  1  0  0  0  0
 11 13  1  0  0  0  0
 11 14  1  0  0  0  0
  9 10  1  0  0  0  0
  9 11  1  0  0  0  0
  9 22  1  0  0  0  0
  7  8  1  0  0  0  0
  7  9  1  0  0  0  0
 26 27  1  0  0  0  0
 26 28  1  0  0  0  0
 26 29  1  0  0  0  0
 24 25  1  0  0  0  0
 24 26  1  0  0  0  0
M  END
$$$$
default_name
  -OEChem-01062215323D

 29 28  0     1  0  0  0  0  0999 V2000
   -3.3998   -3.6239    1.3678 H   0  0  0  0  0  0  0  0  0  0  0  0
   -3.3608   -2.6749    0.8348 C   0  0  0  0  0  0  0  0  0  0  0  0
   -4.0988   -1.9909    1.2498 H   0  0  0  0  0  0  0  0  0  0  0  0
   -3.5618   -2.8419   -0.2222 H   0  0  0  0  0  0  0  0  0  0  0  0
   -1.9818   -2.0809    0.9918 C   0  0  0  0  0  0  0  0  0  0  0  0
   -1.1288   -2.6669    1.6468 O   0  0  0  0  0  0  0  0  0  0  0  0
   -1.7648   -0.9089    0.3998 N   0  0  0  0  0  0  0  0  0  0  0  0
   -2.5238   -0.4719   -0.1032 H   0  0  0  0  0  0  0  0  0  0  0  0
   -0.4848   -0.1959    0.4138 C   0  0  1  0  0  0  0  0  0  0  0  0
   -0.2618    0.1399   -0.6003 H   0  0  0  0  0  0  0  0  0  0  0  0
   -0.6186    1.0470    1.3152 C   0  0  0  0  0  0  0  0  0  0  0  0
   -0.9897    0.7254    2.2905 H   0  0  0  0  0  0  0  0  0  0  0  0
    0.3670    1.4934    1.4554 H   0  0  0  0  0  0  0  0  0  0  0  0
   -1.5751    2.1174    0.7613 C   0  0  0  0  0  0  0  0  0  0  0  0
   -1.2149    2.4663   -0.2063 H   0  0  0  0  0  0  0  0  0  0  0  0
   -2.5618    1.6744    0.6264 H   0  0  0  0  0  0  0  0  0  0  0  0
   -1.7148    3.3319    1.6789 C   0  0  0  0  0  0  0  0  0  0  0  0
   -1.1843    3.4098    2.7712 O   0  0  0  0  0  0  0  0  0  0  0  0
   -2.4388    4.3491    1.2651 N   0  0  0  0  0  0  0  0  0  0  0  0
   -2.4958    5.1204    1.9073 H   0  0  0  0  0  0  0  0  0  0  0  0
   -2.8942    4.3383    0.3750 H   0  0  0  0  0  0  0  0  0  0  0  0
    0.6481   -1.1300    0.8666 C   0  0  0  0  0  0  0  0  0  0  0  0
    0.8961   -2.1546    0.2335 O   0  0  0  0  0  0  0  0  0  0  0  0
    1.3275   -0.7832    1.9673 N   0  0  0  0  0  0  0  0  0  0  0  0
    1.0841    0.0839    2.4189 H   0  0  0  0  0  0  0  0  0  0  0  0
    2.4220   -1.5712    2.5325 C   0  0  0  0  0  0  0  0  0  0  0  0
    3.1980   -1.7170    1.7771 H   0  0  0  0  0  0  0  0  0  0  0  0
    2.8526   -1.0607    3.3953 H   0  0  0  0  0  0  0  0  0  0  0  0
    2.0510   -2.5506    2.8392 H   0  0  0  0  0  0  0  0  0  0  0  0
  5  6  2  0  0  0  0
  5  7  1  0  0  0  0
  2  3  1  0  0  0  0
  2  4  1  0  0  0  0
  2  5  1  0  0  0  0
  1  2  1  0  0  0  0
 22 23  2  0  0  0  0
 22 24  1  0  0  0  0
 19 20  1  0  0  0  0
 19 21  1  0  0  0  0
 17 18  2  0  0  0  0
 17 19  1  0  0  0  0
 14 15  1  0  0  0  0
 14 16  1  0  0  0  0
 14 17  1  0  0  0  0
 11 12  1  0  0  0  0
 11 13  1  0  0  0  0
 11 14  1  0  0  0  0
  9 10  1  0  0  0  0
  9 11  1  0  0  0  0
  9 22  1  0  0  0  0
  7  8  1  0  0  0  0
  7  9  1  0  0  0  0
 26 27  1  0  0  0  0
 26 28  1  0  0  0  0
 26 29  1  0  0  0  0
 24 25  1  0  0  0  0
 24 26  1  0  0  0  0
M  END
$$$$
default_name
  -OEChem-01062215323D

 29 28  0     1  0  0  0  0  0999 V2000
   -3.3998   -3.6239    1.3678 H   0  0  0  0  0  0  0  0  0  0  0  0
   -3.3608   -2.6749    0.8348 C   0  0  0  0  0  0  0  0  0  0  0  0
   -4.0988   -1.9909    1.2498 H   0  0  0  0  0  0  0  0  0  0  0  0
   -3.5618   -2.8419   -0.2222 H   0  0  0  0  0  0  0  0  0  0  0  0
   -1.9818   -2.0809    0.9918 C   0  0  0  0  0  0  0  0  0  0  0  0
   -1.1288   -2.6669    1.6468 O   0  0  0  0  0  0  0  0  0  0  0  0
   -1.7648   -0.9089    0.3998 N   0  0  0  0  0  0  0  0  0  0  0  0
   -2.5238   -0.4719   -0.1032 H   0  0  0  0  0  0  0  0  0  0  0  0
   -0.4848   -0.1959    0.4138 C   0  0  1  0  0  0  0  0  0  0  0  0
   -0.2618    0.1399   -0.6003 H   0  0  0  0  0  0  0  0  0  0  0  0
   -0.6186    1.0470    1.3152 C   0  0  0  0  0  0  0  0  0  0  0  0
   -0.9897    0.7254    2.2905 H   0  0  0  0  0  0  0  0  0  0  0  0
    0.3670    1.4934    1.4554 H   0  0  0  0  0  0  0  0  0  0  0  0
   -1.5751    2.1174    0.7613 C   0  0  0  0  0  0  0  0  0  0  0  0
   -1.2149    2.4663   -0.2063 H   0  0  0  0  0  0  0  0  0  0  0  0
   -2.5618    1.6744    0.6264 H   0  0  0  0  0  0  0  0  0  0  0  0
   -1.7148    3.3319    1.6789 C   0  0  0  0  0  0  0  0  0  0  0  0
   -1.1843    3.4098    2.7712 O   0  0  0  0  0  0  0  0  0  0  0  0
   -2.4388    4.3491    1.2651 N   0  0  0  0  0  0  0  0  0  0  0  0
   -2.4958    5.1204    1.9073 H   0  0  0  0  0  0  0  0  0  0  0  0
   -2.8942    4.3383    0.3750 H   0  0  0  0  0  0  0  0  0  0  0  0
    0.6481   -1.1300    0.8666 C   0  0  0  0  0  0  0  0  0  0  0  0
    1.0810   -1.9928    0.1048 O   0  0  0  0  0  0  0  0  0  0  0  0
    1.1202   -0.9660    2.1090 N   0  0  0  0  0  0  0  0  0  0  0  0
    0.7334   -0.2213    2.6667 H   0  0  0  0  0  0  0  0  0  0  0  0
    2.1850   -1.7816    2.6915 C   0  0  0  0  0  0  0  0  0  0  0  0
    3.0756   -1.7282    2.0604 H   0  0  0  0  0  0  0  0  0  0  0  0
    2.4328   -1.4257    3.6926 H   0  0  0  0  0  0  0  0  0  0  0  0
    1.8634   -2.8230    2.7465 H   0  0  0  0  0  0  0  0  0  0  0  0
  5  6  2  0  0  0  0
  5  7  1  0  0  0  0
  2  3  1  0  0  0  0
  2  4  1  0  0  0  0
  2  5  1  0  0  0  0
  1  2  1  0  0  0  0
 22 23  2  0  0  0  0
 22 24  1  0  0  0  0
 19 20  1  0  0  0  0
 19 21  1  0  0  0  0
 17 18  2  0  0  0  0
 17 19  1  0  0  0  0
 14 15  1  0  0  0  0
 14 16  1  0  0  0  0
 14 17  1  0  0  0  0
 11 12  1  0  0  0  0
 11 13  1  0  0  0  0
 11 14  1  0  0  0  0
  9 10  1  0  0  0  0
  9 11  1  0  0  0  0
  9 22  1  0  0  0  0
  7  8  1  0  0  0  0
  7  9  1  0  0  0  0
 26 27  1  0  0  0  0
 26 28  1  0  0  0  0
 26 29  1  0  0  0  0
 24 25  1  0  0  0  0
 24 26  1  0  0  0  0
M  END
$$$$
default_name
  -OEChem-01062215323D

 29 28  0     1  0  0  0  0  0999 V2000
   -3.3998   -3.6239    1.3678 H   0  0  0  0  0  0  0  0  0  0  0  0
   -3.3608   -2.6749    0.8348 C   0  0  0  0  0  0  0  0  0  0  0  0
   -4.0988   -1.9909    1.2498 H   0  0  0  0  0  0  0  0  0  0  0  0
   -3.5618   -2.8419   -0.2222 H   0  0  0  0  0  0  0  0  0  0  0  0
   -1.9818   -2.0809    0.9918 C   0  0  0  0  0  0  0  0  0  0  0  0
   -1.1288   -2.6669    1.6468 O   0  0  0  0  0  0  0  0  0  0  0  0
   -1.7648   -0.9089    0.3998 N   0  0  0  0  0  0  0  0  0  0  0  0
   -2.5238   -0.4719   -0.1032 H   0  0  0  0  0  0  0  0  0  0  0  0
   -0.4848   -0.1959    0.4138 C   0  0  1  0  0  0  0  0  0  0  0  0
   -0.2618    0.1399   -0.6003 H   0  0  0  0  0  0  0  0  0  0  0  0
   -0.6186    1.0470    1.3152 C   0  0  0  0  0  0  0  0  0  0  0  0
   -0.9897    0.7254    2.2905 H   0  0  0  0  0  0  0  0  0  0  0  0
    0.3670    1.4934    1.4554 H   0  0  0  0  0  0  0  0  0  0  0  0
   -1.5751    2.1174    0.7613 C   0  0  0  0  0  0  0  0  0  0  0  0
   -1.2149    2.4663   -0.2063 H   0  0  0  0  0  0  0  0  0  0  0  0
   -2.5618    1.6744    0.6264 H   0  0  0  0  0  0  0  0  0  0  0  0
   -1.7148    3.3319    1.6789 C   0  0  0  0  0  0  0  0  0  0  0  0
   -1.1843    3.4098    2.7712 O   0  0  0  0  0  0  0  0  0  0  0  0
   -2.4388    4.3491    1.2651 N   0  0  0  0  0  0  0  0  0  0  0  0
   -2.4958    5.1204    1.9073 H   0  0  0  0  0  0  0  0  0  0  0  0
   -2.8942    4.3383    0.3750 H   0  0  0  0  0  0  0  0  0  0  0  0
    0.6481   -1.1300    0.8666 C   0  0  0  0  0  0  0  0  0  0  0  0
    1.2674   -1.7979    0.0405 O   0  0  0  0  0  0  0  0  0  0  0  0
    0.9115   -1.1854    2.1784 N   0  0  0  0  0  0  0  0  0  0  0  0
    0.3790   -0.5901    2.7926 H   0  0  0  0  0  0  0  0  0  0  0  0
    1.9471   -2.0332    2.7675 C   0  0  0  0  0  0  0  0  0  0  0  0
    2.9136   -1.8024    2.3127 H   0  0  0  0  0  0  0  0  0  0  0  0
    2.0084   -1.8670    3.8441 H   0  0  0  0  0  0  0  0  0  0  0  0
    1.7176   -3.0827    2.5755 H   0  0  0  0  0  0  0  0  0  0  0  0
  5  6  2  0  0  0  0
  5  7  1  0  0  0  0
  2  3  1  0  0  0  0
  2  4  1  0  0  0  0
  2  5  1  0  0  0  0
  1  2  1  0  0  0  0
 22 23  2  0  0  0  0
 22 24  1  0  0  0  0
 19 20  1  0  0  0  0
 19 21  1  0  0  0  0
 17 18  2  0  0  0  0
 17 19  1  0  0  0  0
 14 15  1  0  0  0  0
 14 16  1  0  0  0  0
 14 17  1  0  0  0  0
 11 12  1  0  0  0  0
 11 13  1  0  0  0  0
 11 14  1  0  0  0  0
  9 10  1  0  0  0  0
  9 11  1  0  0  0  0
  9 22  1  0  0  0  0
  7  8  1  0  0  0  0
  7  9  1  0  0  0  0
 26 27  1  0  0  0  0
 26 28  1  0  0  0  0
 26 29  1  0  0  0  0
 24 25  1  0  0  0  0
 24 26  1  0  0  0  0
M  END
$$$$
default_name
  -OEChem-01062215323D

 29 28  0     1  0  0  0  0  0999 V2000
   -3.3998   -3.6239    1.3678 H   0  0  0  0  0  0  0  0  0  0  0  0
   -3.3608   -2.6749    0.8348 C   0  0  0  0  0  0  0  0  0  0  0  0
   -4.0988   -1.9909    1.2498 H   0  0  0  0  0  0  0  0  0  0  0  0
   -3.5618   -2.8419   -0.2222 H   0  0  0  0  0  0  0  0  0  0  0  0
   -1.9818   -2.0809    0.9918 C   0  0  0  0  0  0  0  0  0  0  0  0
   -1.1288   -2.6669    1.6468 O   0  0  0  0  0  0  0  0  0  0  0  0
   -1.7648   -0.9089    0.3998 N   0  0  0  0  0  0  0  0  0  0  0  0
   -2.5238   -0.4719   -0.1032 H   0  0  0  0  0  0  0  0  0  0  0  0
   -0.4848   -0.1959    0.4138 C   0  0  1  0  0  0  0  0  0  0  0  0
   -0.2618    0.1399   -0.6003 H   0  0  0  0  0  0  0  0  0  0  0  0
   -0.6186    1.0470    1.3152 C   0  0  0  0  0  0  0  0  0  0  0  0
   -0.9897    0.7254    2.2905 H   0  0  0  0  0  0  0  0  0  0  0  0
    0.3670    1.4934    1.4554 H   0  0  0  0  0  0  0  0  0  0  0  0
   -1.5751    2.1174    0.7613 C   0  0  0  0  0  0  0  0  0  0  0  0
   -1.2149    2.4663   -0.2063 H   0  0  0  0  0  0  0  0  0  0  0  0
   -2.5618    1.6744    0.6264 H   0  0  0  0  0  0  0  0  0  0  0  0
   -1.7148    3.3319    1.6789 C   0  0  0  0  0  0  0  0  0  0  0  0
   -1.1843    3.4098    2.7712 O   0  0  0  0  0  0  0  0  0  0  0  0
   -2.4388    4.3491    1.2651 N   0  0  0  0  0  0  0  0  0  0  0  0
   -2.4958    5.1204    1.9073 H   0  0  0  0  0  0  0  0  0  0  0  0
   -2.8942    4.3383    0.3750 H   0  0  0  0  0  0  0  0  0  0  0  0
    0.6481   -1.1300    0.8666 C   0  0  0  0  0  0  0  0  0  0  0  0
    1.4428   -1.5831    0.0448 O   0  0  0  0  0  0  0  0  0  0  0  0
    0.7158   -1.4265    2.1708 N   0  0  0  0  0  0  0  0  0  0  0  0
    0.0449   -0.9974    2.7880 H   0  0  0  0  0  0  0  0  0  0  0  0
    1.7245   -2.3090    2.7555 C   0  0  0  0  0  0  0  0  0  0  0  0
    2.7230   -1.9345    2.5167 H   0  0  0  0  0  0  0  0  0  0  0  0
    1.6082   -2.3546    3.8394 H   0  0  0  0  0  0  0  0  0  0  0  0
    1.6235   -3.3121    2.3378 H   0  0  0  0  0  0  0  0  0  0  0  0
  5  6  2  0  0  0  0
  5  7  1  0  0  0  0
  2  3  1  0  0  0  0
  2  4  1  0  0  0  0
  2  5  1  0  0  0  0
  1  2  1  0  0  0  0
 22 23  2  0  0  0  0
 22 24  1  0  0  0  0
 19 20  1  0  0  0  0
 19 21  1  0  0  0  0
 17 18  2  0  0  0  0
 17 19  1  0  0  0  0
 14 15  1  0  0  0  0
 14 16  1  0  0  0  0
 14 17  1  0  0  0  0
 11 12  1  0  0  0  0
 11 13  1  0  0  0  0
 11 14  1  0  0  0  0
  9 10  1  0  0  0  0
  9 11  1  0  0  0  0
  9 22  1  0  0  0  0
  7  8  1  0  0  0  0
  7  9  1  0  0  0  0
 26 27  1  0  0  0  0
 26 28  1  0  0  0  0
 26 29  1  0  0  0  0
 24 25  1  0  0  0  0
 24 26  1  0  0  0  0
M  END
$$$$
default_name
  -OEChem-01062215323D

 29 28  0     1  0  0  0  0  0999 V2000
   -3.3998   -3.6239    1.3678 H   0  0  0  0  0  0  0  0  0  0  0  0
   -3.3608   -2.6749    0.8348 C   0  0  0  0  0  0  0  0  0  0  0  0
   -4.0988   -1.9909    1.2498 H   0  0  0  0  0  0  0  0  0  0  0  0
   -3.5618   -2.8419   -0.2222 H   0  0  0  0  0  0  0  0  0  0  0  0
   -1.9818   -2.0809    0.9918 C   0  0  0  0  0  0  0  0  0  0  0  0
   -1.1288   -2.6669    1.6468 O   0  0  0  0  0  0  0  0  0  0  0  0
   -1.7648   -0.9089    0.3998 N   0  0  0  0  0  0  0  0  0  0  0  0
   -2.5238   -0.4719   -0.1032 H   0  0  0  0  0  0  0  0  0  0  0  0
   -0.4848   -0.1959    0.4138 C   0  0  1  0  0  0  0  0  0  0  0  0
   -0.2618    0.1399   -0.6003 H   0  0  0  0  0  0  0  0  0  0  0  0
   -0.6186    1.0470    1.3152 C   0  0  0  0  0  0  0  0  0  0  0  0
   -0.9897    0.7254    2.2905 H   0  0  0  0  0  0  0  0  0  0  0  0
    0.3670    1.4934    1.4554 H   0  0  0  0  0  0  0  0  0  0  0  0
   -1.5751    2.1174    0.7613 C   0  0  0  0  0  0  0  0  0  0  0  0
   -1.2149    2.4663   -0.2063 H   0  0  0  0  0  0  0  0  0  0  0  0
   -2.5618    1.6744    0.6264 H   0  0  0  0  0  0  0  0  0  0  0  0
   -1.7148    3.3319    1.6789 C   0  0  0  0  0  0  0  0  0  0  0  0
   -1.1843    3.4098    2.7712 O   0  0  0  0  0  0  0  0  0  0  0  0
   -2.4388    4.3491    1.2651 N   0  0  0  0  0  0  0  0  0  0  0  0
   -2.4958    5.1204    1.9073 H   0  0  0  0  0  0  0  0  0  0  0  0
   -2.8942    4.3383    0.3750 H   0  0  0  0  0  0  0  0  0  0  0  0
    0.6481   -1.1300    0.8666 C   0  0  0  0  0  0  0  0  0  0  0  0
    1.5951   -1.3630    0.1176 O   0  0  0  0  0  0  0  0  0  0  0  0
    0.5463   -1.6728    2.0866 N   0  0  0  0  0  0  0  0  0  0  0  0
   -0.2459   -1.4155    2.6534 H   0  0  0  0  0  0  0  0  0  0  0  0
    1.5325   -2.5900    2.6563 C   0  0  0  0  0  0  0  0  0  0  0  0
    2.5170   -2.1157    2.6586 H   0  0  0  0  0  0  0  0  0  0  0  0
    1.2596   -2.8551    3.6789 H   0  0  0  0  0  0  0  0  0  0  0  0
    1.5874   -3.4955    2.0496 H   0  0  0  0  0  0  0  0  0  0  0  0
  5  6  2  0  0  0  0
  5  7  1  0  0  0  0
  2  3  1  0  0  0  0
  2  4  1  0  0  0  0
  2  5  1  0  0  0  0
  1  2  1  0  0  0  0
 22 23  2  0  0  0  0
 22 24  1  0  0  0  0
 19 20  1  0  0  0  0
 19 21  1  0  0  0  0
 17 18  2  0  0  0  0
 17 19  1  0  0  0  0
 14 15  1  0  0  0  0
 14 16  1  0  0  0  0
 14 17  1  0  0  0  0
 11 12  1  0  0  0  0
 11 13  1  0  0  0  0
 11 14  1  0  0  0  0
  9 10  1  0  0  0  0
  9 11  1  0  0  0  0
  9 22  1  0  0  0  0
  7  8  1  0  0  0  0
  7  9  1  0  0  0  0
 26 27  1  0  0  0  0
 26 28  1  0  0  0  0
 26 29  1  0  0  0  0
 24 25  1  0  0  0  0
 24 26  1  0  0  0  0
M  END
$$$$
default_name
  -OEChem-01062215323D

 29 28  0     1  0  0  0  0  0999 V2000
   -3.3998   -3.6239    1.3678 H   0  0  0  0  0  0  0  0  0  0  0  0
   -3.3608   -2.6749    0.8348 C   0  0  0  0  0  0  0  0  0  0  0  0
   -4.0988   -1.9909    1.2498 H   0  0  0  0  0  0  0  0  0  0  0  0
   -3.5618   -2.8419   -0.2222 H   0  0  0  0  0  0  0  0  0  0  0  0
   -1.9818   -2.0809    0.9918 C   0  0  0  0  0  0  0  0  0  0  0  0
   -1.1288   -2.6669    1.6468 O   0  0  0  0  0  0  0  0  0  0  0  0
   -1.7648   -0.9089    0.3998 N   0  0  0  0  0  0  0  0  0  0  0  0
   -2.5238   -0.4719   -0.1032 H   0  0  0  0  0  0  0  0  0  0  0  0
   -0.4848   -0.1959    0.4138 C   0  0  1  0  0  0  0  0  0  0  0  0
   -0.2618    0.1399   -0.6003 H   0  0  0  0  0  0  0  0  0  0  0  0
   -0.6186    1.0470    1.3152 C   0  0  0  0  0  0  0  0  0  0  0  0
   -0.9897    0.7254    2.2905 H   0  0  0  0  0  0  0  0  0  0  0  0
    0.3670    1.4934    1.4554 H   0  0  0  0  0  0  0  0  0  0  0  0
   -1.5751    2.1174    0.7613 C   0  0  0  0  0  0  0  0  0  0  0  0
   -1.2149    2.4663   -0.2063 H   0  0  0  0  0  0  0  0  0  0  0  0
   -2.5618    1.6744    0.6264 H   0  0  0  0  0  0  0  0  0  0  0  0
   -1.7148    3.3319    1.6789 C   0  0  0  0  0  0  0  0  0  0  0  0
   -1.1843    3.4098    2.7712 O   0  0  0  0  0  0  0  0  0  0  0  0
   -2.4388    4.3491    1.2651 N   0  0  0  0  0  0  0  0  0  0  0  0
   -2.4958    5.1204    1.9073 H   0  0  0  0  0  0  0  0  0  0  0  0
   -2.8942    4.3383    0.3750 H   0  0  0  0  0  0  0  0  0  0  0  0
    0.6481   -1.1300    0.8666 C   0  0  0  0  0  0  0  0  0  0  0  0
    1.7140   -1.1528    0.2539 O   0  0  0  0  0  0  0  0  0  0  0  0
    0.4146   -1.9076    1.9316 N   0  0  0  0  0  0  0  0  0  0  0  0
   -0.4738   -1.8157    2.3978 H   0  0  0  0  0  0  0  0  0  0  0  0
    1.3840   -2.8571    2.4766 C   0  0  0  0  0  0  0  0  0  0  0  0
    2.3094   -2.3334    2.7287 H   0  0  0  0  0  0  0  0  0  0  0  0
    0.9864   -3.3346    3.3735 H   0  0  0  0  0  0  0  0  0  0  0  0
    1.6120   -3.6203    1.7306 H   0  0  0  0  0  0  0  0  0  0  0  0
  5  6  2  0  0  0  0
  5  7  1  0  0  0  0
  2  3  1  0  0  0  0
  2  4  1  0  0  0  0
  2  5  1  0  0  0  0
  1  2  1  0  0  0  0
 22 23  2  0  0  0  0
 22 24  1  0  0  0  0
 19 20  1  0  0  0  0
 19 21  1  0  0  0  0
 17 18  2  0  0  0  0
 17 19  1  0  0  0  0
 14 15  1  0  0  0  0
 14 16  1  0  0  0  0
 14 17  1  0  0  0  0
 11 12  1  0  0  0  0
 11 13  1  0  0  0  0
 11 14  1  0  0  0  0
  9 10  1  0  0  0  0
  9 11  1  0  0  0  0
  9 22  1  0  0  0  0
  7  8  1  0  0  0  0
  7  9  1  0  0  0  0
 26 27  1  0  0  0  0
 26 28  1  0  0  0  0
 26 29  1  0  0  0  0
 24 25  1  0  0  0  0
 24 26  1  0  0  0  0
M  END
$$$$
default_name
  -OEChem-01062215323D

 29 28  0     1  0  0  0  0  0999 V2000
   -3.3998   -3.6239    1.3678 H   0  0  0  0  0  0  0  0  0  0  0  0
   -3.3608   -2.6749    0.8348 C   0  0  0  0  0  0  0  0  0  0  0  0
   -4.0988   -1.9909    1.2498 H   0  0  0  0  0  0  0  0  0  0  0  0
   -3.5618   -2.8419   -0.2222 H   0  0  0  0  0  0  0  0  0  0  0  0
   -1.9818   -2.0809    0.9918 C   0  0  0  0  0  0  0  0  0  0  0  0
   -1.1288   -2.6669    1.6468 O   0  0  0  0  0  0  0  0  0  0  0  0
   -1.7648   -0.9089    0.3998 N   0  0  0  0  0  0  0  0  0  0  0  0
   -2.5238   -0.4719   -0.1032 H   0  0  0  0  0  0  0  0  0  0  0  0
   -0.4848   -0.1959    0.4138 C   0  0  1  0  0  0  0  0  0  0  0  0
   -0.2618    0.1399   -0.6003 H   0  0  0  0  0  0  0  0  0  0  0  0
   -0.6186    1.0470    1.3152 C   0  0  0  0  0  0  0  0  0  0  0  0
   -0.9897    0.7254    2.2905 H   0  0  0  0  0  0  0  0  0  0  0  0
    0.3670    1.4934    1.4554 H   0  0  0  0  0  0  0  0  0  0  0  0
   -1.5751    2.1174    0.7613 C   0  0  0  0  0  0  0  0  0  0  0  0
   -1.2149    2.4663   -0.2063 H   0  0  0  0  0  0  0  0  0  0  0  0
   -2.5618    1.6744    0.6264 H   0  0  0  0  0  0  0  0  0  0  0  0
   -1.7148    3.3319    1.6789 C   0  0  0  0  0  0  0  0  0  0  0  0
   -1.1843    3.4098    2.7712 O   0  0  0  0  0  0  0  0  0  0  0  0
   -2.4388    4.3491    1.2651 N   0  0  0  0  0  0  0  0  0  0  0  0
   -2.4958    5.1204    1.9073 H   0  0  0  0  0  0  0  0  0  0  0  0
   -2.8942    4.3383    0.3750 H   0  0  0  0  0  0  0  0  0  0  0  0
    0.6481   -1.1300    0.8666 C   0  0  0  0  0  0  0  0  0  0  0  0
    1.7914   -0.9667    0.4444 O   0  0  0  0  0  0  0  0  0  0  0  0
    0.3297   -2.1149    1.7163 N   0  0  0  0  0  0  0  0  0  0  0  0
   -0.6232   -2.1710    2.0386 H   0  0  0  0  0  0  0  0  0  0  0  0
    1.2892   -3.0922    2.2288 C   0  0  0  0  0  0  0  0  0  0  0  0
    2.1145   -2.5729    2.7222 H   0  0  0  0  0  0  0  0  0  0  0  0
    0.8070   -3.7603    2.9439 H   0  0  0  0  0  0  0  0  0  0  0  0
    1.6954   -3.6782    1.4025 H   0  0  0  0  0  0  0  0  0  0  0  0
  5  6  2  0  0  0  0
  5  7  1  0  0  0  0
  2  3  1  0  0  0  0
  2  4  1  0  0  0  0
  2  5  1  0  0  0  0
  1  2  1  0  0  0  0
 22 23  2  0  0  0  0
 22 24  1  0  0  0  0
 19 20  1  0  0  0  0
 19 21  1  0  0  0  0
 17 18  2  0  0  0  0
 17 19  1  0  0  0  0
 14 15  1  0  0  0  0
 14 16  1  0  0  0  0
 14 17  1  0  0  0  0
 11 12  1  0  0  0  0
 11 13  1  0  0  0  0
 11 14  1  0  0  0  0
  9 10  1  0  0  0  0
  9 11  1  0  0  0  0
  9 22  1  0  0  0  0
  7  8  1  0  0  0  0
  7  9  1  0  0  0  0
 26 27  1  0  0  0  0
 26 28  1  0  0  0  0
 26 29  1  0  0  0  0
 24 25  1  0  0  0  0
 24 26  1  0  0  0  0
M  END
$$$$
default_name
  -OEChem-01062215323D

 29 28  0     1  0  0  0  0  0999 V2000
   -3.3998   -3.6239    1.3678 H   0  0  0  0  0  0  0  0  0  0  0  0
   -3.3608   -2.6749    0.8348 C   0  0  0  0  0  0  0  0  0  0  0  0
   -4.0988   -1.9909    1.2498 H   0  0  0  0  0  0  0  0  0  0  0  0
   -3.5618   -2.8419   -0.2222 H   0  0  0  0  0  0  0  0  0  0  0  0
   -1.9818   -2.0809    0.9918 C   0  0  0  0  0  0  0  0  0  0  0  0
   -1.1288   -2.6669    1.6468 O   0  0  0  0  0  0  0  0  0  0  0  0
   -1.7648   -0.9089    0.3998 N   0  0  0  0  0  0  0  0  0  0  0  0
   -2.5238   -0.4719   -0.1032 H   0  0  0  0  0  0  0  0  0  0  0  0
   -0.4848   -0.1959    0.4138 C   0  0  1  0  0  0  0  0  0  0  0  0
   -0.2618    0.1399   -0.6003 H   0  0  0  0  0  0  0  0  0  0  0  0
   -0.6186    1.0470    1.3152 C   0  0  0  0  0  0  0  0  0  0  0  0
   -0.9897    0.7254    2.2905 H   0  0  0  0  0  0  0  0  0  0  0  0
    0.3670    1.4934    1.4554 H   0  0  0  0  0  0  0  0  0  0  0  0
   -1.5751    2.1174    0.7613 C   0  0  0  0  0  0  0  0  0  0  0  0
   -1.2149    2.4663   -0.2063 H   0  0  0  0  0  0  0  0  0  0  0  0
   -2.5618    1.6744    0.6264 H   0  0  0  0  0  0  0  0  0  0  0  0
   -1.7148    3.3319    1.6789 C   0  0  0  0  0  0  0  0  0  0  0  0
   -1.1843    3.4098    2.7712 O   0  0  0  0  0  0  0  0  0  0  0  0
   -2.4388    4.3491    1.2651 N   0  0  0  0  0  0  0  0  0  0  0  0
   -2.4958    5.1204    1.9073 H   0  0  0  0  0  0  0  0  0  0  0  0
   -2.8942    4.3383    0.3750 H   0  0  0  0  0  0  0  0  0  0  0  0
    0.6481   -1.1300    0.8666 C   0  0  0  0  0  0  0  0  0  0  0  0
    1.8220   -0.8173    0.6761 O   0  0  0  0  0  0  0  0  0  0  0  0
    0.2974   -2.2805    1.4555 N   0  0  0  0  0  0  0  0  0  0  0  0
   -0.6839   -2.4570    1.6004 H   0  0  0  0  0  0  0  0  0  0  0  0
    1.2546   -3.2792    1.9295 C   0  0  0  0  0  0  0  0  0  0  0  0
    1.9456   -2.8179    2.6395 H   0  0  0  0  0  0  0  0  0  0  0  0
    0.7338   -4.1032    2.4196 H   0  0  0  0  0  0  0  0  0  0  0  0
    1.8320   -3.6652    1.0877 H   0  0  0  0  0  0  0  0  0  0  0  0
  5  6  2  0  0  0  0
  5  7  1  0  0  0  0
  2  3  1  0  0  0  0
  2  4  1  0  0  0  0
  2  5  1  0  0  0  0
  1  2  1  0  0  0  0
 22 23  2  0  0  0  0
 22 24  1  0  0  0  0
 19 20  1  0  0  0  0
 19 21  1  0  0  0  0
 17 18  2  0  0  0  0
 17 19  1  0  0  0  0
 14 15  1  0  0  0  0
 14 16  1  0  0  0  0
 14 17  1  0  0  0  0
 11 12  1  0  0  0  0
 11 13  1  0  0  0  0
 11 14  1  0  0  0  0
  9 10  1  0  0  0  0
  9 11  1  0  0  0  0
  9 22  1  0  0  0  0
  7  8  1  0  0  0  0
  7  9  1  0  0  0  0
 26 27  1  0  0  0  0
 26 28  1  0  0  0  0
 26 29  1  0  0  0  0
 24 25  1  0  0  0  0
 24 26  1  0  0  0  0
M  END
$$$$
default_name
  -OEChem-01062215323D

 29 28  0     1  0  0  0  0  0999 V2000
   -3.3998   -3.6239    1.3678 H   0  0  0  0  0  0  0  0  0  0  0  0
   -3.3608   -2.6749    0.8348 C   0  0  0  0  0  0  0  0  0  0  0  0
   -4.0988   -1.9909    1.2498 H   0  0  0  0  0  0  0  0  0  0  0  0
   -3.5618   -2.8419   -0.2222 H   0  0  0  0  0  0  0  0  0  0  0  0
   -1.9818   -2.0809    0.9918 C   0  0  0  0  0  0  0  0  0  0  0  0
   -1.1288   -2.6669    1.6468 O   0  0  0  0  0  0  0  0  0  0  0  0
   -1.7648   -0.9089    0.3998 N   0  0  0  0  0  0  0  0  0  0  0  0
   -2.5238   -0.4719   -0.1032 H   0  0  0  0  0  0  0  0  0  0  0  0
   -0.4848   -0.1959    0.4138 C   0  0  1  0  0  0  0  0  0  0  0  0
   -0.2618    0.1399   -0.6003 H   0  0  0  0  0  0  0  0  0  0  0  0
   -0.6186    1.0470    1.3152 C   0  0  0  0  0  0  0  0  0  0  0  0
   -0.9897    0.7254    2.2905 H   0  0  0  0  0  0  0  0  0  0  0  0
    0.3670    1.4934    1.4554 H   0  0  0  0  0  0  0  0  0  0  0  0
   -1.5751    2.1174    0.7613 C   0  0  0  0  0  0  0  0  0  0  0  0
   -1.2149    2.4663   -0.2063 H   0  0  0  0  0  0  0  0  0  0  0  0
   -2.5618    1.6744    0.6264 H   0  0  0  0  0  0  0  0  0  0  0  0
   -1.7148    3.3319    1.6789 C   0  0  0  0  0  0  0  0  0  0  0  0
   -1.1843    3.4098    2.7712 O   0  0  0  0  0  0  0  0  0  0  0  0
   -2.4388    4.3491    1.2651 N   0  0  0  0  0  0  0  0  0  0  0  0
   -2.4958    5.1204    1.9073 H   0  0  0  0  0  0  0  0  0  0  0  0
   -2.8942    4.3383    0.3750 H   0  0  0  0  0  0  0  0  0  0  0  0
    0.6481   -1.1300    0.8666 C   0  0  0  0  0  0  0  0  0  0  0  0
    1.8036   -0.7149    0.9331 O   0  0  0  0  0  0  0  0  0  0  0  0
    0.3199   -2.3932    1.1669 N   0  0  0  0  0  0  0  0  0  0  0  0
   -0.6517   -2.6542    1.1131 H   0  0  0  0  0  0  0  0  0  0  0  0
    1.2825   -3.4054    1.5994 C   0  0  0  0  0  0  0  0  0  0  0  0
    1.8141   -3.0517    2.4863 H   0  0  0  0  0  0  0  0  0  0  0  0
    0.7718   -4.3400    1.8362 H   0  0  0  0  0  0  0  0  0  0  0  0
    2.0125   -3.5820    0.8076 H   0  0  0  0  0  0  0  0  0  0  0  0
  5  6  2  0  0  0  0
  5  7  1  0  0  0  0
  2  3  1  0  0  0  0
  2  4  1  0  0  0  0
  2  5  1  0  0  0  0
  1  2  1  0  0  0  0
 22 23  2  0  0  0  0
 22 24  1  0  0  0  0
 19 20  1  0  0  0  0
 19 21  1  0  0  0  0
 17 18  2  0  0  0  0
 17 19  1  0  0  0  0
 14 15  1  0  0  0  0
 14 16  1  0  0  0  0
 14 17  1  0  0  0  0
 11 12  1  0  0  0  0
 11 13  1  0  0  0  0
 11 14  1  0  0  0  0
  9 10  1  0  0  0  0
  9 11  1  0  0  0  0
  9 22  1  0  0  0  0
  7  8  1  0  0  0  0
  7  9  1  0  0  0  0
 26 27  1  0  0  0  0
 26 28  1  0  0  0  0
 26 29  1  0  0  0  0
 24 25  1  0  0  0  0
 24 26  1  0  0  0  0
M  END
$$$$
default_name
  -OEChem-01062215323D

 29 28  0     1  0  0  0  0  0999 V2000
   -3.3998   -3.6239    1.3678 H   0  0  0  0  0  0  0  0  0  0  0  0
   -3.3608   -2.6749    0.8348 C   0  0  0  0  0  0  0  0  0  0  0  0
   -4.0988   -1.9909    1.2498 H   0  0  0  0  0  0  0  0  0  0  0  0
   -3.5618   -2.8419   -0.2222 H   0  0  0  0  0  0  0  0  0  0  0  0
   -1.9818   -2.0809    0.9918 C   0  0  0  0  0  0  0  0  0  0  0  0
   -1.1288   -2.6669    1.6468 O   0  0  0  0  0  0  0  0  0  0  0  0
   -1.7648   -0.9089    0.3998 N   0  0  0  0  0  0  0  0  0  0  0  0
   -2.5238   -0.4719   -0.1032 H   0  0  0  0  0  0  0  0  0  0  0  0
   -0.4848   -0.1959    0.4138 C   0  0  1  0  0  0  0  0  0  0  0  0
   -0.2618    0.1399   -0.6003 H   0  0  0  0  0  0  0  0  0  0  0  0
   -0.6186    1.0470    1.3152 C   0  0  0  0  0  0  0  0  0  0  0  0
   -0.9897    0.7254    2.2905 H   0  0  0  0  0  0  0  0  0  0  0  0
    0.3670    1.4934    1.4554 H   0  0  0  0  0  0  0  0  0  0  0  0
   -1.5751    2.1174    0.7613 C   0  0  0  0  0  0  0  0  0  0  0  0
   -1.2149    2.4663   -0.2063 H   0  0  0  0  0  0  0  0  0  0  0  0
   -2.5618    1.6744    0.6264 H   0  0  0  0  0  0  0  0  0  0  0  0
   -1.7148    3.3319    1.6789 C   0  0  0  0  0  0  0  0  0  0  0  0
   -1.1843    3.4098    2.7712 O   0  0  0  0  0  0  0  0  0  0  0  0
   -2.4388    4.3491    1.2651 N   0  0  0  0  0  0  0  0  0  0  0  0
   -2.4958    5.1204    1.9073 H   0  0  0  0  0  0  0  0  0  0  0  0
   -2.8942    4.3383    0.3750 H   0  0  0  0  0  0  0  0  0  0  0  0
    0.6481   -1.1300    0.8666 C   0  0  0  0  0  0  0  0  0  0  0  0
    1.7377   -0.6665    1.1981 O   0  0  0  0  0  0  0  0  0  0  0  0
    0.3956   -2.4452    0.8702 N   0  0  0  0  0  0  0  0  0  0  0  0
   -0.5290   -2.7493    0.6097 H   0  0  0  0  0  0  0  0  0  0  0  0
    1.3711   -3.4621    1.2608 C   0  0  0  0  0  0  0  0  0  0  0  0
    1.7290   -3.2582    2.2730 H   0  0  0  0  0  0  0  0  0  0  0  0
    0.9183   -4.4544    1.2335 H   0  0  0  0  0  0  0  0  0  0  0  0
    2.2245   -3.4345    0.5812 H   0  0  0  0  0  0  0  0  0  0  0  0
  5  6  2  0  0  0  0
  5  7  1  0  0  0  0
  2  3  1  0  0  0  0
  2  4  1  0  0  0  0
  2  5  1  0  0  0  0
  1  2  1  0  0  0  0
 22 23  2  0  0  0  0
 22 24  1  0  0  0  0
 19 20  1  0  0  0  0
 19 21  1  0  0  0  0
 17 18  2  0  0  0  0
 17 19  1  0  0  0  0
 14 15  1  0  0  0  0
 14 16  1  0  0  0  0
 14 17  1  0  0  0  0
 11 12  1  0  0  0  0
 11 13  1  0  0  0  0
 11 14  1  0  0  0  0
  9 10  1  0  0  0  0
  9 11  1  0  0  0  0
  9 22  1  0  0  0  0
  7  8  1  0  0  0  0
  7  9  1  0  0  0  0
 26 27  1  0  0  0  0
 26 28  1  0  0  0  0
 26 29  1  0  0  0  0
 24 25  1  0  0  0  0
 24 26  1  0  0  0  0
M  END
$$$$
default_name
  -OEChem-01062215323D

 29 28  0     1  0  0  0  0  0999 V2000
   -3.3998   -3.6239    1.3678 H   0  0  0  0  0  0  0  0  0  0  0  0
   -3.3608   -2.6749    0.8348 C   0  0  0  0  0  0  0  0  0  0  0  0
   -4.0988   -1.9909    1.2498 H   0  0  0  0  0  0  0  0  0  0  0  0
   -3.5618   -2.8419   -0.2222 H   0  0  0  0  0  0  0  0  0  0  0  0
   -1.9818   -2.0809    0.9918 C   0  0  0  0  0  0  0  0  0  0  0  0
   -1.1288   -2.6669    1.6468 O   0  0  0  0  0  0  0  0  0  0  0  0
   -1.7648   -0.9089    0.3998 N   0  0  0  0  0  0  0  0  0  0  0  0
   -2.5238   -0.4719   -0.1032 H   0  0  0  0  0  0  0  0  0  0  0  0
   -0.4848   -0.1959    0.4138 C   0  0  1  0  0  0  0  0  0  0  0  0
   -0.2618    0.1399   -0.6003 H   0  0  0  0  0  0  0  0  0  0  0  0
   -0.6186    1.0470    1.3152 C   0  0  0  0  0  0  0  0  0  0  0  0
   -0.9897    0.7254    2.2905 H   0  0  0  0  0  0  0  0  0  0  0  0
    0.3670    1.4934    1.4554 H   0  0  0  0  0  0  0  0  0  0  0  0
   -1.5751    2.1174    0.7613 C   0  0  0  0  0  0  0  0  0  0  0  0
   -1.2149    2.4663   -0.2063 H   0  0  0  0  0  0  0  0  0  0  0  0
   -2.5618    1.6744    0.6264 H   0  0  0  0  0  0  0  0  0  0  0  0
   -1.7148    3.3319    1.6789 C   0  0  0  0  0  0  0  0  0  0  0  0
   -1.1843    3.4098    2.7712 O   0  0  0  0  0  0  0  0  0  0  0  0
   -2.4388    4.3491    1.2651 N   0  0  0  0  0  0  0  0  0  0  0  0
   -2.4958    5.1204    1.9073 H   0  0  0  0  0  0  0  0  0  0  0  0
   -2.8942    4.3383    0.3750 H   0  0  0  0  0  0  0  0  0  0  0  0
    0.6481   -1.1300    0.8666 C   0  0  0  0  0  0  0  0  0  0  0  0
    1.6286   -0.6752    1.4529 O   0  0  0  0  0  0  0  0  0  0  0  0
    0.5193   -2.4331    0.5855 N   0  0  0  0  0  0  0  0  0  0  0  0
   -0.3239   -2.7357    0.1246 H   0  0  0  0  0  0  0  0  0  0  0  0
    1.5142   -3.4456    0.9369 C   0  0  0  0  0  0  0  0  0  0  0  0
    1.6961   -3.4236    2.0142 H   0  0  0  0  0  0  0  0  0  0  0  0
    1.1634   -4.4388    0.6525 H   0  0  0  0  0  0  0  0  0  0  0  0
    2.4537   -3.2327    0.4241 H   0  0  0  0  0  0  0  0  0  0  0  0
  5  6  2  0  0  0  0
  5  7  1  0  0  0  0
  2  3  1  0  0  0  0
  2  4  1  0  0  0  0
  2  5  1  0  0  0  0
  1  2  1  0  0  0  0
 22 23  2  0  0  0  0
 22 24  1  0  0  0  0
 19 20  1  0  0  0  0
 19 21  1  0  0  0  0
 17 18  2  0  0  0  0
 17 19  1  0  0  0  0
 14 15  1  0  0  0  0
 14 16  1  0  0  0  0
 14 17  1  0  0  0  0
 11 12  1  0  0  0  0
 11 13  1  0  0  0  0
 11 14  1  0  0  0  0
  9 10  1  0  0  0  0
  9 11  1  0  0  0  0
  9 22  1  0  0  0  0
  7  8  1  0  0  0  0
  7  9  1  0  0  0  0
 26 27  1  0  0  0  0
 26 28  1  0  0  0  0
 26 29  1  0  0  0  0
 24 25  1  0  0  0  0
 24 26  1  0  0  0  0
M  END
$$$$
default_name
  -OEChem-01062215323D

 29 28  0     1  0  0  0  0  0999 V2000
   -3.3998   -3.6239    1.3678 H   0  0  0  0  0  0  0  0  0  0  0  0
   -3.3608   -2.6749    0.8348 C   0  0  0  0  0  0  0  0  0  0  0  0
   -4.0988   -1.9909    1.2498 H   0  0  0  0  0  0  0  0  0  0  0  0
   -3.5618   -2.8419   -0.2222 H   0  0  0  0  0  0  0  0  0  0  0  0
   -1.9818   -2.0809    0.9918 C   0  0  0  0  0  0  0  0  0  0  0  0
   -1.1288   -2.6669    1.6468 O   0  0  0  0  0  0  0  0  0  0  0  0
   -1.7648   -0.9089    0.3998 N   0  0  0  0  0  0  0  0  0  0  0  0
   -2.5238   -0.4719   -0.1032 H   0  0  0  0  0  0  0  0  0  0  0  0
   -0.4848   -0.1959    0.4138 C   0  0  1  0  0  0  0  0  0  0  0  0
   -0.2618    0.1399   -0.6003 H   0  0  0  0  0  0  0  0  0  0  0  0
   -0.6186    1.0470    1.3152 C   0  0  0  0  0  0  0  0  0  0  0  0
   -0.9897    0.7254    2.2905 H   0  0  0  0  0  0  0  0  0  0  0  0
    0.3670    1.4934    1.4554 H   0  0  0  0  0  0  0  0  0  0  0  0
   -1.5751    2.1174    0.7613 C   0  0  0  0  0  0  0  0  0  0  0  0
   -1.2149    2.4663   -0.2063 H   0  0  0  0  0  0  0  0  0  0  0  0
   -2.5618    1.6744    0.6264 H   0  0  0  0  0  0  0  0  0  0  0  0
   -1.7148    3.3319    1.6789 C   0  0  0  0  0  0  0  0  0  0  0  0
   -1.1843    3.4098    2.7712 O   0  0  0  0  0  0  0  0  0  0  0  0
   -2.4388    4.3491    1.2651 N   0  0  0  0  0  0  0  0  0  0  0  0
   -2.4958    5.1204    1.9073 H   0  0  0  0  0  0  0  0  0  0  0  0
   -2.8942    4.3383    0.3750 H   0  0  0  0  0  0  0  0  0  0  0  0
    0.6481   -1.1300    0.8666 C   0  0  0  0  0  0  0  0  0  0  0  0
    1.4838   -0.7407    1.6802 O   0  0  0  0  0  0  0  0  0  0  0  0
    0.6828   -2.3576    0.3324 N   0  0  0  0  0  0  0  0  0  0  0  0
   -0.0506   -2.6144   -0.3090 H   0  0  0  0  0  0  0  0  0  0  0  0
    1.7021   -3.3569    0.6496 C   0  0  0  0  0  0  0  0  0  0  0  0
    1.7177   -3.5364    1.7275 H   0  0  0  0  0  0  0  0  0  0  0  0
    1.4903   -4.2941    0.1328 H   0  0  0  0  0  0  0  0  0  0  0  0
    2.6845   -2.9903    0.3470 H   0  0  0  0  0  0  0  0  0  0  0  0
  5  6  2  0  0  0  0
  5  7  1  0  0  0  0
  2  3  1  0  0  0  0
  2  4  1  0  0  0  0
  2  5  1  0  0  0  0
  1  2  1  0  0  0  0
 22 23  2  0  0  0  0
 22 24  1  0  0  0  0
 19 20  1  0  0  0  0
 19 21  1  0  0  0  0
 17 18  2  0  0  0  0
 17 19  1  0  0  0  0
 14 15  1  0  0  0  0
 14 16  1  0  0  0  0
 14 17  1  0  0  0  0
 11 12  1  0  0  0  0
 11 13  1  0  0  0  0
 11 14  1  0  0  0  0
  9 10  1  0  0  0  0
  9 11  1  0  0  0  0
  9 22  1  0  0  0  0
  7  8  1  0  0  0  0
  7  9  1  0  0  0  0
 26 27  1  0  0  0  0
 26 28  1  0  0  0  0
 26 29  1  0  0  0  0
 24 25  1  0  0  0  0
 24 26  1  0  0  0  0
M  END
$$$$
default_name
  -OEChem-01062215323D

 29 28  0     1  0  0  0  0  0999 V2000
   -3.3998   -3.6239    1.3678 H   0  0  0  0  0  0  0  0  0  0  0  0
   -3.3608   -2.6749    0.8348 C   0  0  0  0  0  0  0  0  0  0  0  0
   -4.0988   -1.9909    1.2498 H   0  0  0  0  0  0  0  0  0  0  0  0
   -3.5618   -2.8419   -0.2222 H   0  0  0  0  0  0  0  0  0  0  0  0
   -1.9818   -2.0809    0.9918 C   0  0  0  0  0  0  0  0  0  0  0  0
   -1.1288   -2.6669    1.6468 O   0  0  0  0  0  0  0  0  0  0  0  0
   -1.7648   -0.9089    0.3998 N   0  0  0  0  0  0  0  0  0  0  0  0
   -2.5238   -0.4719   -0.1032 H   0  0  0  0  0  0  0  0  0  0  0  0
   -0.4848   -0.1959    0.4138 C   0  0  1  0  0  0  0  0  0  0  0  0
   -0.2618    0.1399   -0.6003 H   0  0  0  0  0  0  0  0  0  0  0  0
   -0.6186    1.0470    1.3152 C   0  0  0  0  0  0  0  0  0  0  0  0
   -0.9897    0.7254    2.2905 H   0  0  0  0  0  0  0  0  0  0  0  0
    0.3670    1.4934    1.4554 H   0  0  0  0  0  0  0  0  0  0  0  0
   -1.5751    2.1174    0.7613 C   0  0  0  0  0  0  0  0  0  0  0  0
   -1.2149    2.4663   -0.2063 H   0  0  0  0  0  0  0  0  0  0  0  0
   -2.5618    1.6744    0.6264 H   0  0  0  0  0  0  0  0  0  0  0  0
   -1.7148    3.3319    1.6789 C   0  0  0  0  0  0  0  0  0  0  0  0
   -1.1843    3.4098    2.7712 O   0  0  0  0  0  0  0  0  0  0  0  0
   -2.4388    4.3491    1.2651 N   0  0  0  0  0  0  0  0  0  0  0  0
   -2.4958    5.1204    1.9073 H   0  0  0  0  0  0  0  0  0  0  0  0
   -2.8942    4.3383    0.3750 H   0  0  0  0  0  0  0  0  0  0  0  0
    0.6481   -1.1300    0.8666 C   0  0  0  0  0  0  0  0  0  0  0  0
    1.3132   -0.8583    1.8645 O   0  0  0  0  0  0  0  0  0  0  0  0
    0.8747   -2.2239    0.1279 N   0  0  0  0  0  0  0  0  0  0  0  0
    0.2724   -2.3937   -0.6617 H   0  0  0  0  0  0  0  0  0  0  0  0
    1.9221   -3.2020    0.4187 C   0  0  0  0  0  0  0  0  0  0  0  0
    1.7922   -3.5890    1.4324 H   0  0  0  0  0  0  0  0  0  0  0  0
    1.8769   -4.0303   -0.2901 H   0  0  0  0  0  0  0  0  0  0  0  0
    2.9010   -2.7238    0.3550 H   0  0  0  0  0  0  0  0  0  0  0  0
  5  6  2  0  0  0  0
  5  7  1  0  0  0  0
  2  3  1  0  0  0  0
  2  4  1  0  0  0  0
  2  5  1  0  0  0  0
  1  2  1  0  0  0  0
 22 23  2  0  0  0  0
 22 24  1  0  0  0  0
 19 20  1  0  0  0  0
 19 21  1  0  0  0  0
 17 18  2  0  0  0  0
 17 19  1  0  0  0  0
 14 15  1  0  0  0  0
 14 16  1  0  0  0  0
 14 17  1  0  0  0  0
 11 12  1  0  0  0  0
 11 13  1  0  0  0  0
 11 14  1  0  0  0  0
  9 10  1  0  0  0  0
  9 11  1  0  0  0  0
  9 22  1  0  0  0  0
  7  8  1  0  0  0  0
  7  9  1  0  0  0  0
 26 27  1  0  0  0  0
 26 28  1  0  0  0  0
 26 29  1  0  0  0  0
 24 25  1  0  0  0  0
 24 26  1  0  0  0  0
M  END
$$$$
default_name
  -OEChem-01062215323D

 29 28  0     1  0  0  0  0  0999 V2000
   -3.3998   -3.6239    1.3678 H   0  0  0  0  0  0  0  0  0  0  0  0
   -3.3608   -2.6749    0.8348 C   0  0  0  0  0  0  0  0  0  0  0  0
   -4.0988   -1.9909    1.2498 H   0  0  0  0  0  0  0  0  0  0  0  0
   -3.5618   -2.8419   -0.2222 H   0  0  0  0  0  0  0  0  0  0  0  0
   -1.9818   -2.0809    0.9918 C   0  0  0  0  0  0  0  0  0  0  0  0
   -1.1288   -2.6669    1.6468 O   0  0  0  0  0  0  0  0  0  0  0  0
   -1.7648   -0.9089    0.3998 N   0  0  0  0  0  0  0  0  0  0  0  0
   -2.5238   -0.4719   -0.1032 H   0  0  0  0  0  0  0  0  0  0  0  0
   -0.4848   -0.1959    0.4138 C   0  0  1  0  0  0  0  0  0  0  0  0
   -0.2618    0.1399   -0.6003 H   0  0  0  0  0  0  0  0  0  0  0  0
   -0.6186    1.0470    1.3152 C   0  0  0  0  0  0  0  0  0  0  0  0
   -0.9897    0.7254    2.2905 H   0  0  0  0  0  0  0  0  0  0  0  0
    0.3670    1.4934    1.4554 H   0  0  0  0  0  0  0  0  0  0  0  0
   -1.5751    2.1174    0.7613 C   0  0  0  0  0  0  0  0  0  0  0  0
   -1.2149    2.4663   -0.2063 H   0  0  0  0  0  0  0  0  0  0  0  0
   -2.5618    1.6744    0.6264 H   0  0  0  0  0  0  0  0  0  0  0  0
   -1.7148    3.3319    1.6789 C   0  0  0  0  0  0  0  0  0  0  0  0
   -1.1843    3.4098    2.7712 O   0  0  0  0  0  0  0  0  0  0  0  0
   -2.4388    4.3491    1.2651 N   0  0  0  0  0  0  0  0  0  0  0  0
   -2.4958    5.1204    1.9073 H   0  0  0  0  0  0  0  0  0  0  0  0
   -2.8942    4.3383    0.3750 H   0  0  0  0  0  0  0  0  0  0  0  0
    0.6481   -1.1300    0.8666 C   0  0  0  0  0  0  0  0  0  0  0  0
    1.1283   -1.0201    1.9932 O   0  0  0  0  0  0  0  0  0  0  0  0
    1.0820   -2.0411   -0.0138 N   0  0  0  0  0  0  0  0  0  0  0  0
    0.6231   -2.0885   -0.9095 H   0  0  0  0  0  0  0  0  0  0  0  0
    2.1591   -2.9916    0.2598 C   0  0  0  0  0  0  0  0  0  0  0  0
    1.9147   -3.5778    1.1490 H   0  0  0  0  0  0  0  0  0  0  0  0
    2.2967   -3.6653   -0.5874 H   0  0  0  0  0  0  0  0  0  0  0  0
    3.0886   -2.4514    0.4477 H   0  0  0  0  0  0  0  0  0  0  0  0
  5  6  2  0  0  0  0
  5  7  1  0  0  0  0
  2  3  1  0  0  0  0
  2  4  1  0  0  0  0
  2  5  1  0  0  0  0
  1  2  1  0  0  0  0
 22 23  2  0  0  0  0
 22 24  1  0  0  0  0
 19 20  1  0  0  0  0
 19 21  1  0  0  0  0
 17 18  2  0  0  0  0
 17 19  1  0  0  0  0
 14 15  1  0  0  0  0
 14 16  1  0  0  0  0
 14 17  1  0  0  0  0
 11 12  1  0  0  0  0
 11 13  1  0  0  0  0
 11 14  1  0  0  0  0
  9 10  1  0  0  0  0
  9 11  1  0  0  0  0
  9 22  1  0  0  0  0
  7  8  1  0  0  0  0
  7  9  1  0  0  0  0
 26 27  1  0  0  0  0
 26 28  1  0  0  0  0
 26 29  1  0  0  0  0
 24 25  1  0  0  0  0
 24 26  1  0  0  0  0
M  END
$$$$
default_name
  -OEChem-01062215323D

 29 28  0     1  0  0  0  0  0999 V2000
   -3.3998   -3.6239    1.3678 H   0  0  0  0  0  0  0  0  0  0  0  0
   -3.3608   -2.6749    0.8348 C   0  0  0  0  0  0  0  0  0  0  0  0
   -4.0988   -1.9909    1.2498 H   0  0  0  0  0  0  0  0  0  0  0  0
   -3.5618   -2.8419   -0.2222 H   0  0  0  0  0  0  0  0  0  0  0  0
   -1.9818   -2.0809    0.9918 C   0  0  0  0  0  0  0  0  0  0  0  0
   -1.1288   -2.6669    1.6468 O   0  0  0  0  0  0  0  0  0  0  0  0
   -1.7648   -0.9089    0.3998 N   0  0  0  0  0  0  0  0  0  0  0  0
   -2.5238   -0.4719   -0.1032 H   0  0  0  0  0  0  0  0  0  0  0  0
   -0.4848   -0.1959    0.4138 C   0  0  1  0  0  0  0  0  0  0  0  0
   -0.2618    0.1399   -0.6003 H   0  0  0  0  0  0  0  0  0  0  0  0
   -0.6186    1.0470    1.3152 C   0  0  0  0  0  0  0  0  0  0  0  0
   -0.9897    0.7254    2.2905 H   0  0  0  0  0  0  0  0  0  0  0  0
    0.3670    1.4934    1.4554 H   0  0  0  0  0  0  0  0  0  0  0  0
   -1.5751    2.1174    0.7613 C   0  0  0  0  0  0  0  0  0  0  0  0
   -1.2149    2.4663   -0.2063 H   0  0  0  0  0  0  0  0  0  0  0  0
   -2.5618    1.6744    0.6264 H   0  0  0  0  0  0  0  0  0  0  0  0
   -1.7148    3.3319    1.6789 C   0  0  0  0  0  0  0  0  0  0  0  0
   -1.1843    3.4098    2.7712 O   0  0  0  0  0  0  0  0  0  0  0  0
   -2.4388    4.3491    1.2651 N   0  0  0  0  0  0  0  0  0  0  0  0
   -2.4958    5.1204    1.9073 H   0  0  0  0  0  0  0  0  0  0  0  0
   -2.8942    4.3383    0.3750 H   0  0  0  0  0  0  0  0  0  0  0  0
    0.6481   -1.1300    0.8666 C   0  0  0  0  0  0  0  0  0  0  0  0
    0.9418   -1.2151    2.0576 O   0  0  0  0  0  0  0  0  0  0  0  0
    1.2907   -1.8217   -0.0832 N   0  0  0  0  0  0  0  0  0  0  0  0
    0.9775   -1.7196   -1.0354 H   0  0  0  0  0  0  0  0  0  0  0  0
    2.3970   -2.7400    0.1837 C   0  0  0  0  0  0  0  0  0  0  0  0
    2.0767   -3.5036    0.8968 H   0  0  0  0  0  0  0  0  0  0  0  0
    2.7211   -3.2240   -0.7388 H   0  0  0  0  0  0  0  0  0  0  0  0
    3.2344   -2.1917    0.6187 H   0  0  0  0  0  0  0  0  0  0  0  0
  5  6  2  0  0  0  0
  5  7  1  0  0  0  0
  2  3  1  0  0  0  0
  2  4  1  0  0  0  0
  2  5  1  0  0  0  0
  1  2  1  0  0  0  0
 22 23  2  0  0  0  0
 22 24  1  0  0  0  0
 19 20  1  0  0  0  0
 19 21  1  0  0  0  0
 17 18  2  0  0  0  0
 17 19  1  0  0  0  0
 14 15  1  0  0  0  0
 14 16  1  0  0  0  0
 14 17  1  0  0  0  0
 11 12  1  0  0  0  0
 11 13  1  0  0  0  0
 11 14  1  0  0  0  0
  9 10  1  0  0  0  0
  9 11  1  0  0  0  0
  9 22  1  0  0  0  0
  7  8  1  0  0  0  0
  7  9  1  0  0  0  0
 26 27  1  0  0  0  0
 26 28  1  0  0  0  0
 26 29  1  0  0  0  0
 24 25  1  0  0  0  0
 24 26  1  0  0  0  0
M  END
$$$$
default_name
  -OEChem-01062215323D

 29 28  0     1  0  0  0  0  0999 V2000
   -3.3998   -3.6239    1.3678 H   0  0  0  0  0  0  0  0  0  0  0  0
   -3.3608   -2.6749    0.8348 C   0  0  0  0  0  0  0  0  0  0  0  0
   -4.0988   -1.9909    1.2498 H   0  0  0  0  0  0  0  0  0  0  0  0
   -3.5618   -2.8419   -0.2222 H   0  0  0  0  0  0  0  0  0  0  0  0
   -1.9818   -2.0809    0.9918 C   0  0  0  0  0  0  0  0  0  0  0  0
   -1.1288   -2.6669    1.6468 O   0  0  0  0  0  0  0  0  0  0  0  0
   -1.7648   -0.9089    0.3998 N   0  0  0  0  0  0  0  0  0  0  0  0
   -2.5238   -0.4719   -0.1032 H   0  0  0  0  0  0  0  0  0  0  0  0
   -0.4848   -0.1959    0.4138 C   0  0  1  0  0  0  0  0  0  0  0  0
   -0.2618    0.1399   -0.6003 H   0  0  0  0  0  0  0  0  0  0  0  0
   -0.6186    1.0470    1.3152 C   0  0  0  0  0  0  0  0  0  0  0  0
   -0.9897    0.7254    2.2905 H   0  0  0  0  0  0  0  0  0  0  0  0
    0.3670    1.4934    1.4554 H   0  0  0  0  0  0  0  0  0  0  0  0
   -1.5751    2.1174    0.7613 C   0  0  0  0  0  0  0  0  0  0  0  0
   -1.2149    2.4663   -0.2063 H   0  0  0  0  0  0  0  0  0  0  0  0
   -2.5618    1.6744    0.6264 H   0  0  0  0  0  0  0  0  0  0  0  0
   -1.7148    3.3319    1.6789 C   0  0  0  0  0  0  0  0  0  0  0  0
   -1.1843    3.4098    2.7712 O   0  0  0  0  0  0  0  0  0  0  0  0
   -2.4388    4.3491    1.2651 N   0  0  0  0  0  0  0  0  0  0  0  0
   -2.4958    5.1204    1.9073 H   0  0  0  0  0  0  0  0  0  0  0  0
   -2.8942    4.3383    0.3750 H   0  0  0  0  0  0  0  0  0  0  0  0
    0.6481   -1.1300    0.8666 C   0  0  0  0  0  0  0  0  0  0  0  0
    0.7665   -1.4299    2.0532 O   0  0  0  0  0  0  0  0  0  0  0  0
    1.4864   -1.5806   -0.0756 N   0  0  0  0  0  0  0  0  0  0  0  0
    1.3115   -1.3123   -1.0309 H   0  0  0  0  0  0  0  0  0  0  0  0
    2.6196   -2.4642    0.1957 C   0  0  0  0  0  0  0  0  0  0  0  0
    2.2672   -3.3714    0.6927 H   0  0  0  0  0  0  0  0  0  0  0  0
    3.1213   -2.7364   -0.7342 H   0  0  0  0  0  0  0  0  0  0  0  0
    3.3285   -1.9623    0.8563 H   0  0  0  0  0  0  0  0  0  0  0  0
  5  6  2  0  0  0  0
  5  7  1  0  0  0  0
  2  3  1  0  0  0  0
  2  4  1  0  0  0  0
  2  5  1  0  0  0  0
  1  2  1  0  0  0  0
 22 23  2  0  0  0  0
 22 24  1  0  0  0  0
 19 20  1  0  0  0  0
 19 21  1  0  0  0  0
 17 18  2  0  0  0  0
 17 19  1  0  0  0  0
 14 15  1  0  0  0  0
 14 16  1  0  0  0  0
 14 17  1  0  0  0  0
 11 12  1  0  0  0  0
 11 13  1  0  0  0  0
 11 14  1  0  0  0  0
  9 10  1  0  0  0  0
  9 11  1  0  0  0  0
  9 22  1  0  0  0  0
  7  8  1  0  0  0  0
  7  9  1  0  0  0  0
 26 27  1  0  0  0  0
 26 28  1  0  0  0  0
 26 29  1  0  0  0  0
 24 25  1  0  0  0  0
 24 26  1  0  0  0  0
M  END
$$$$
default_name
  -OEChem-01062215323D

 29 28  0     1  0  0  0  0  0999 V2000
   -3.3998   -3.6239    1.3678 H   0  0  0  0  0  0  0  0  0  0  0  0
   -3.3608   -2.6749    0.8348 C   0  0  0  0  0  0  0  0  0  0  0  0
   -4.0988   -1.9909    1.2498 H   0  0  0  0  0  0  0  0  0  0  0  0
   -3.5618   -2.8419   -0.2222 H   0  0  0  0  0  0  0  0  0  0  0  0
   -1.9818   -2.0809    0.9918 C   0  0  0  0  0  0  0  0  0  0  0  0
   -1.1288   -2.6669    1.6468 O   0  0  0  0  0  0  0  0  0  0  0  0
   -1.7648   -0.9089    0.3998 N   0  0  0  0  0  0  0  0  0  0  0  0
   -2.5238   -0.4719   -0.1032 H   0  0  0  0  0  0  0  0  0  0  0  0
   -0.4848   -0.1959    0.4138 C   0  0  1  0  0  0  0  0  0  0  0  0
   -0.2618    0.1399   -0.6003 H   0  0  0  0  0  0  0  0  0  0  0  0
   -0.6186    1.0470    1.3152 C   0  0  0  0  0  0  0  0  0  0  0  0
   -0.9897    0.7254    2.2905 H   0  0  0  0  0  0  0  0  0  0  0  0
    0.3670    1.4934    1.4554 H   0  0  0  0  0  0  0  0  0  0  0  0
   -1.5751    2.1174    0.7613 C   0  0  0  0  0  0  0  0  0  0  0  0
   -1.2149    2.4663   -0.2063 H   0  0  0  0  0  0  0  0  0  0  0  0
   -2.5618    1.6744    0.6264 H   0  0  0  0  0  0  0  0  0  0  0  0
   -1.7148    3.3319    1.6789 C   0  0  0  0  0  0  0  0  0  0  0  0
   -1.1843    3.4098    2.7712 O   0  0  0  0  0  0  0  0  0  0  0  0
   -2.4388    4.3491    1.2651 N   0  0  0  0  0  0  0  0  0  0  0  0
   -2.4958    5.1204    1.9073 H   0  0  0  0  0  0  0  0  0  0  0  0
   -2.8942    4.3383    0.3750 H   0  0  0  0  0  0  0  0  0  0  0  0
    0.6481   -1.1300    0.8666 C   0  0  0  0  0  0  0  0  0  0  0  0
    0.6142   -1.6499    1.9804 O   0  0  0  0  0  0  0  0  0  0  0  0
    1.6559   -1.3343    0.0086 N   0  0  0  0  0  0  0  0  0  0  0  0
    1.6024   -0.8943   -0.8962 H   0  0  0  0  0  0  0  0  0  0  0  0
    2.8116   -2.1832    0.2949 C   0  0  0  0  0  0  0  0  0  0  0  0
    2.4733   -3.1903    0.5508 H   0  0  0  0  0  0  0  0  0  0  0  0
    3.4699   -2.2358   -0.5736 H   0  0  0  0  0  0  0  0  0  0  0  0
    3.3645   -1.7789    1.1445 H   0  0  0  0  0  0  0  0  0  0  0  0
  5  6  2  0  0  0  0
  5  7  1  0  0  0  0
  2  3  1  0  0  0  0
  2  4  1  0  0  0  0
  2  5  1  0  0  0  0
  1  2  1  0  0  0  0
 22 23  2  0  0  0  0
 22 24  1  0  0  0  0
 19 20  1  0  0  0  0
 19 21  1  0  0  0  0
 17 18  2  0  0  0  0
 17 19  1  0  0  0  0
 14 15  1  0  0  0  0
 14 16  1  0  0  0  0
 14 17  1  0  0  0  0
 11 12  1  0  0  0  0
 11 13  1  0  0  0  0
 11 14  1  0  0  0  0
  9 10  1  0  0  0  0
  9 11  1  0  0  0  0
  9 22  1  0  0  0  0
  7  8  1  0  0  0  0
  7  9  1  0  0  0  0
 26 27  1  0  0  0  0
 26 28  1  0  0  0  0
 26 29  1  0  0  0  0
 24 25  1  0  0  0  0
 24 26  1  0  0  0  0
M  END
$$$$
default_name
  -OEChem-01062215323D

 29 28  0     1  0  0  0  0  0999 V2000
   -3.3998   -3.6239    1.3678 H   0  0  0  0  0  0  0  0  0  0  0  0
   -3.3608   -2.6749    0.8348 C   0  0  0  0  0  0  0  0  0  0  0  0
   -4.0988   -1.9909    1.2498 H   0  0  0  0  0  0  0  0  0  0  0  0
   -3.5618   -2.8419   -0.2222 H   0  0  0  0  0  0  0  0  0  0  0  0
   -1.9818   -2.0809    0.9918 C   0  0  0  0  0  0  0  0  0  0  0  0
   -1.1288   -2.6669    1.6468 O   0  0  0  0  0  0  0  0  0  0  0  0
   -1.7648   -0.9089    0.3998 N   0  0  0  0  0  0  0  0  0  0  0  0
   -2.5238   -0.4719   -0.1032 H   0  0  0  0  0  0  0  0  0  0  0  0
   -0.4848   -0.1959    0.4138 C   0  0  1  0  0  0  0  0  0  0  0  0
   -0.2618    0.1399   -0.6003 H   0  0  0  0  0  0  0  0  0  0  0  0
   -0.6186    1.0470    1.3152 C   0  0  0  0  0  0  0  0  0  0  0  0
   -0.9897    0.7254    2.2905 H   0  0  0  0  0  0  0  0  0  0  0  0
    0.3670    1.4934    1.4554 H   0  0  0  0  0  0  0  0  0  0  0  0
   -1.5751    2.1174    0.7613 C   0  0  0  0  0  0  0  0  0  0  0  0
   -1.2149    2.4663   -0.2063 H   0  0  0  0  0  0  0  0  0  0  0  0
   -2.5618    1.6744    0.6264 H   0  0  0  0  0  0  0  0  0  0  0  0
   -1.7148    3.3319    1.6789 C   0  0  0  0  0  0  0  0  0  0  0  0
   -1.1843    3.4098    2.7712 O   0  0  0  0  0  0  0  0  0  0  0  0
   -2.4388    4.3491    1.2651 N   0  0  0  0  0  0  0  0  0  0  0  0
   -2.4958    5.1204    1.9073 H   0  0  0  0  0  0  0  0  0  0  0  0
   -2.8942    4.3383    0.3750 H   0  0  0  0  0  0  0  0  0  0  0  0
    0.6481   -1.1300    0.8666 C   0  0  0  0  0  0  0  0  0  0  0  0
    0.4953   -1.8601    1.8441 O   0  0  0  0  0  0  0  0  0  0  0  0
    1.7876   -1.0995    0.1636 N   0  0  0  0  0  0  0  0  0  0  0  0
    1.8303   -0.4940   -0.6406 H   0  0  0  0  0  0  0  0  0  0  0  0
    2.9601   -1.9161    0.4746 C   0  0  0  0  0  0  0  0  0  0  0  0
    2.6808   -2.9726    0.4808 H   0  0  0  0  0  0  0  0  0  0  0  0
    3.7431   -1.7563   -0.2682 H   0  0  0  0  0  0  0  0  0  0  0  0
    3.3400   -1.6541    1.4635 H   0  0  0  0  0  0  0  0  0  0  0  0
  5  6  2  0  0  0  0
  5  7  1  0  0  0  0
  2  3  1  0  0  0  0
  2  4  1  0  0  0  0
  2  5  1  0  0  0  0
  1  2  1  0  0  0  0
 22 23  2  0  0  0  0
 22 24  1  0  0  0  0
 19 20  1  0  0  0  0
 19 21  1  0  0  0  0
 17 18  2  0  0  0  0
 17 19  1  0  0  0  0
 14 15  1  0  0  0  0
 14 16  1  0  0  0  0
 14 17  1  0  0  0  0
 11 12  1  0  0  0  0
 11 13  1  0  0  0  0
 11 14  1  0  0  0  0
  9 10  1  0  0  0  0
  9 11  1  0  0  0  0
  9 22  1  0  0  0  0
  7  8  1  0  0  0  0
  7  9  1  0  0  0  0
 26 27  1  0  0  0  0
 26 28  1  0  0  0  0
 26 29  1  0  0  0  0
 24 25  1  0  0  0  0
 24 26  1  0  0  0  0
M  END
$$$$
default_name
  -OEChem-01062215323D

 29 28  0     1  0  0  0  0  0999 V2000
   -3.3998   -3.6239    1.3678 H   0  0  0  0  0  0  0  0  0  0  0  0
   -3.3608   -2.6749    0.8348 C   0  0  0  0  0  0  0  0  0  0  0  0
   -4.0988   -1.9909    1.2498 H   0  0  0  0  0  0  0  0  0  0  0  0
   -3.5618   -2.8419   -0.2222 H   0  0  0  0  0  0  0  0  0  0  0  0
   -1.9818   -2.0809    0.9918 C   0  0  0  0  0  0  0  0  0  0  0  0
   -1.1288   -2.6669    1.6468 O   0  0  0  0  0  0  0  0  0  0  0  0
   -1.7648   -0.9089    0.3998 N   0  0  0  0  0  0  0  0  0  0  0  0
   -2.5238   -0.4719   -0.1032 H   0  0  0  0  0  0  0  0  0  0  0  0
   -0.4848   -0.1959    0.4138 C   0  0  1  0  0  0  0  0  0  0  0  0
   -0.2618    0.1399   -0.6003 H   0  0  0  0  0  0  0  0  0  0  0  0
   -0.6186    1.0470    1.3152 C   0  0  0  0  0  0  0  0  0  0  0  0
   -0.9897    0.7254    2.2905 H   0  0  0  0  0  0  0  0  0  0  0  0
    0.3670    1.4934    1.4554 H   0  0  0  0  0  0  0  0  0  0  0  0
   -1.5751    2.1174    0.7613 C   0  0  0  0  0  0  0  0  0  0  0  0
   -1.2149    2.4663   -0.2063 H   0  0  0  0  0  0  0  0  0  0  0  0
   -2.5618    1.6744    0.6264 H   0  0  0  0  0  0  0  0  0  0  0  0
   -1.7148    3.3319    1.6789 C   0  0  0  0  0  0  0  0  0  0  0  0
   -1.1843    3.4098    2.7712 O   0  0  0  0  0  0  0  0  0  0  0  0
   -2.4388    4.3491    1.2651 N   0  0  0  0  0  0  0  0  0  0  0  0
   -2.4958    5.1204    1.9073 H   0  0  0  0  0  0  0  0  0  0  0  0
   -2.8942    4.3383    0.3750 H   0  0  0  0  0  0  0  0  0  0  0  0
    0.6481   -1.1300    0.8666 C   0  0  0  0  0  0  0  0  0  0  0  0
    0.4179   -2.0463    1.6536 O   0  0  0  0  0  0  0  0  0  0  0  0
    1.8725   -0.8922    0.3788 N   0  0  0  0  0  0  0  0  0  0  0  0
    1.9797   -0.1388   -0.2814 H   0  0  0  0  0  0  0  0  0  0  0  0
    3.0549   -1.6810    0.7225 C   0  0  0  0  0  0  0  0  0  0  0  0
    2.8757   -2.7330    0.4873 H   0  0  0  0  0  0  0  0  0  0  0  0
    3.9225   -1.3307    0.1613 H   0  0  0  0  0  0  0  0  0  0  0  0
    3.2566   -1.5962    1.7916 H   0  0  0  0  0  0  0  0  0  0  0  0
  5  6  2  0  0  0  0
  5  7  1  0  0  0  0
  2  3  1  0  0  0  0
  2  4  1  0  0  0  0
  2  5  1  0  0  0  0
  1  2  1  0  0  0  0
 22 23  2  0  0  0  0
 22 24  1  0  0  0  0
 19 20  1  0  0  0  0
 19 21  1  0  0  0  0
 17 18  2  0  0  0  0
 17 19  1  0  0  0  0
 14 15  1  0  0  0  0
 14 16  1  0  0  0  0
 14 17  1  0  0  0  0
 11 12  1  0  0  0  0
 11 13  1  0  0  0  0
 11 14  1  0  0  0  0
  9 10  1  0  0  0  0
  9 11  1  0  0  0  0
  9 22  1  0  0  0  0
  7  8  1  0  0  0  0
  7  9  1  0  0  0  0
 26 27  1  0  0  0  0
 26 28  1  0  0  0  0
 26 29  1  0  0  0  0
 24 25  1  0  0  0  0
 24 26  1  0  0  0  0
M  END
$$$$
default_name
  -OEChem-01062215323D

 29 28  0     1  0  0  0  0  0999 V2000
   -3.3998   -3.6239    1.3678 H   0  0  0  0  0  0  0  0  0  0  0  0
   -3.3608   -2.6749    0.8348 C   0  0  0  0  0  0  0  0  0  0  0  0
   -4.0988   -1.9909    1.2498 H   0  0  0  0  0  0  0  0  0  0  0  0
   -3.5618   -2.8419   -0.2222 H   0  0  0  0  0  0  0  0  0  0  0  0
   -1.9818   -2.0809    0.9918 C   0  0  0  0  0  0  0  0  0  0  0  0
   -1.1288   -2.6669    1.6468 O   0  0  0  0  0  0  0  0  0  0  0  0
   -1.7648   -0.9089    0.3998 N   0  0  0  0  0  0  0  0  0  0  0  0
   -2.5238   -0.4719   -0.1032 H   0  0  0  0  0  0  0  0  0  0  0  0
   -0.4848   -0.1959    0.4138 C   0  0  1  0  0  0  0  0  0  0  0  0
   -0.2618    0.1399   -0.6003 H   0  0  0  0  0  0  0  0  0  0  0  0
   -0.6186    1.0470    1.3152 C   0  0  0  0  0  0  0  0  0  0  0  0
   -0.9897    0.7254    2.2905 H   0  0  0  0  0  0  0  0  0  0  0  0
    0.3670    1.4934    1.4554 H   0  0  0  0  0  0  0  0  0  0  0  0
   -1.5751    2.1174    0.7613 C   0  0  0  0  0  0  0  0  0  0  0  0
   -1.2149    2.4663   -0.2063 H   0  0  0  0  0  0  0  0  0  0  0  0
   -2.5618    1.6744    0.6264 H   0  0  0  0  0  0  0  0  0  0  0  0
   -1.7148    3.3319    1.6789 C   0  0  0  0  0  0  0  0  0  0  0  0
   -1.1843    3.4098    2.7712 O   0  0  0  0  0  0  0  0  0  0  0  0
   -2.4388    4.3491    1.2651 N   0  0  0  0  0  0  0  0  0  0  0  0
   -2.4958    5.1204    1.9073 H   0  0  0  0  0  0  0  0  0  0  0  0
   -2.8942    4.3383    0.3750 H   0  0  0  0  0  0  0  0  0  0  0  0
    0.6481   -1.1300    0.8666 C   0  0  0  0  0  0  0  0  0  0  0  0
    0.3873   -2.1956    1.4220 O   0  0  0  0  0  0  0  0  0  0  0  0
    1.9048   -0.7266    0.6397 N   0  0  0  0  0  0  0  0  0  0  0  0
    2.0404    0.1472    0.1568 H   0  0  0  0  0  0  0  0  0  0  0  0
    3.0895   -1.4940    1.0217 C   0  0  0  0  0  0  0  0  0  0  0  0
    3.0447   -2.4881    0.5700 H   0  0  0  0  0  0  0  0  0  0  0  0
    3.9957   -0.9878    0.6856 H   0  0  0  0  0  0  0  0  0  0  0  0
    3.1200   -1.6092    2.1065 H   0  0  0  0  0  0  0  0  0  0  0  0
  5  6  2  0  0  0  0
  5  7  1  0  0  0  0
  2  3  1  0  0  0  0
  2  4  1  0  0  0  0
  2  5  1  0  0  0  0
  1  2  1  0  0  0  0
 22 23  2  0  0  0  0
 22 24  1  0  0  0  0
 19 20  1  0  0  0  0
 19 21  1  0  0  0  0
 17 18  2  0  0  0  0
 17 19  1  0  0  0  0
 14 15  1  0  0  0  0
 14 16  1  0  0  0  0
 14 17  1  0  0  0  0
 11 12  1  0  0  0  0
 11 13  1  0  0  0  0
 11 14  1  0  0  0  0
  9 10  1  0  0  0  0
  9 11  1  0  0  0  0
  9 22  1  0  0  0  0
  7  8  1  0  0  0  0
  7  9  1  0  0  0  0
 26 27  1  0  0  0  0
 26 28  1  0  0  0  0
 26 29  1  0  0  0  0
 24 25  1  0  0  0  0
 24 26  1  0  0  0  0
M  END
$$$$
default_name
  -OEChem-01062215323D

 29 28  0     1  0  0  0  0  0999 V2000
   -3.3998   -3.6239    1.3678 H   0  0  0  0  0  0  0  0  0  0  0  0
   -3.3608   -2.6749    0.8348 C   0  0  0  0  0  0  0  0  0  0  0  0
   -4.0988   -1.9909    1.2498 H   0  0  0  0  0  0  0  0  0  0  0  0
   -3.5618   -2.8419   -0.2222 H   0  0  0  0  0  0  0  0  0  0  0  0
   -1.9818   -2.0809    0.9918 C   0  0  0  0  0  0  0  0  0  0  0  0
   -1.1288   -2.6669    1.6468 O   0  0  0  0  0  0  0  0  0  0  0  0
   -1.7648   -0.9089    0.3998 N   0  0  0  0  0  0  0  0  0  0  0  0
   -2.5238   -0.4719   -0.1032 H   0  0  0  0  0  0  0  0  0  0  0  0
   -0.4848   -0.1959    0.4138 C   0  0  1  0  0  0  0  0  0  0  0  0
   -0.3876    0.3641   -0.5177 H   0  0  0  0  0  0  0  0  0  0  0  0
   -0.4888    0.8087    1.5825 C   0  0  0  0  0  0  0  0  0  0  0  0
   -0.7377    0.2689    2.4985 H   0  0  0  0  0  0  0  0  0  0  0  0
    0.5119    1.2285    1.6951 H   0  0  0  0  0  0  0  0  0  0  0  0
   -1.4947    1.9602    1.4099 C   0  0  0  0  0  0  0  0  0  0  0  0
   -1.2553    2.5247    0.5089 H   0  0  0  0  0  0  0  0  0  0  0  0
   -2.4958    1.5425    1.3033 H   0  0  0  0  0  0  0  0  0  0  0  0
   -1.5028    2.9334    2.5886 C   0  0  0  0  0  0  0  0  0  0  0  0
   -0.8378    2.7715    3.5946 O   0  0  0  0  0  0  0  0  0  0  0  0
   -2.2610    4.0054    2.5100 N   0  0  0  0  0  0  0  0  0  0  0  0
   -2.2272    4.6106    3.3120 H   0  0  0  0  0  0  0  0  0  0  0  0
   -2.8252    4.1882    1.7050 H   0  0  0  0  0  0  0  0  0  0  0  0
    0.6849   -1.1888    0.4974 C   0  0  0  0  0  0  0  0  0  0  0  0
    0.4680   -2.3980    0.5518 O   0  0  0  0  0  0  0  0  0  0  0  0
    1.9231   -0.6792    0.5187 N   0  0  0  0  0  0  0  0  0  0  0  0
    2.0237    0.3206    0.4453 H   0  0  0  0  0  0  0  0  0  0  0  0
    3.1373   -1.4891    0.6091 C   0  0  0  0  0  0  0  0  0  0  0  0
    3.1609   -2.2086   -0.2131 H   0  0  0  0  0  0  0  0  0  0  0  0
    4.0231   -0.8545    0.5561 H   0  0  0  0  0  0  0  0  0  0  0  0
    3.1429   -2.0411    1.5505 H   0  0  0  0  0  0  0  0  0  0  0  0
  5  6  2  0  0  0  0
  5  7  1  0  0  0  0
  2  3  1  0  0  0  0
  2  4  1  0  0  0  0
  2  5  1  0  0  0  0
  1  2  1  0  0  0  0
 22 23  2  0  0  0  0
 22 24  1  0  0  0  0
 19 20  1  0  0  0  0
 19 21  1  0  0  0  0
 17 18  2  0  0  0  0
 17 19  1  0  0  0  0
 14 15  1  0  0  0  0
 14 16  1  0  0  0  0
 14 17  1  0  0  0  0
 11 12  1  0  0  0  0
 11 13  1  0  0  0  0
 11 14  1  0  0  0  0
  9 10  1  0  0  0  0
  9 11  1  0  0  0  0
  9 22  1  0  0  0  0
  7  8  1  0  0  0  0
  7  9  1  0  0  0  0
 26 27  1  0  0  0  0
 26 28  1  0  0  0  0
 26 29  1  0  0  0  0
 24 25  1  0  0  0  0
 24 26  1  0  0  0  0
M  END
$$$$
default_name
  -OEChem-01062215323D

 29 28  0     1  0  0  0  0  0999 V2000
   -3.3998   -3.6239    1.3678 H   0  0  0  0  0  0  0  0  0  0  0  0
   -3.3608   -2.6749    0.8348 C   0  0  0  0  0  0  0  0  0  0  0  0
   -4.0988   -1.9909    1.2498 H   0  0  0  0  0  0  0  0  0  0  0  0
   -3.5618   -2.8419   -0.2222 H   0  0  0  0  0  0  0  0  0  0  0  0
   -1.9818   -2.0809    0.9918 C   0  0  0  0  0  0  0  0  0  0  0  0
   -1.1288   -2.6669    1.6468 O   0  0  0  0  0  0  0  0  0  0  0  0
   -1.7648   -0.9089    0.3998 N   0  0  0  0  0  0  0  0  0  0  0  0
   -2.5238   -0.4719   -0.1032 H   0  0  0  0  0  0  0  0  0  0  0  0
   -0.4848   -0.1959    0.4138 C   0  0  1  0  0  0  0  0  0  0  0  0
   -0.3876    0.3641   -0.5177 H   0  0  0  0  0  0  0  0  0  0  0  0
   -0.4888    0.8087    1.5825 C   0  0  0  0  0  0  0  0  0  0  0  0
   -0.7377    0.2689    2.4985 H   0  0  0  0  0  0  0  0  0  0  0  0
    0.5119    1.2285    1.6951 H   0  0  0  0  0  0  0  0  0  0  0  0
   -1.4947    1.9602    1.4099 C   0  0  0  0  0  0  0  0  0  0  0  0
   -1.2553    2.5247    0.5089 H   0  0  0  0  0  0  0  0  0  0  0  0
   -2.4958    1.5425    1.3033 H   0  0  0  0  0  0  0  0  0  0  0  0
   -1.5028    2.9334    2.5886 C   0  0  0  0  0  0  0  0  0  0  0  0
   -0.8378    2.7715    3.5946 O   0  0  0  0  0  0  0  0  0  0  0  0
   -2.2610    4.0054    2.5100 N   0  0  0  0  0  0  0  0  0  0  0  0
   -2.2272    4.6106    3.3120 H   0  0  0  0  0  0  0  0  0  0  0  0
   -2.8252    4.1882    1.7050 H   0  0  0  0  0  0  0  0  0  0  0  0
    0.6849   -1.1888    0.4974 C   0  0  0  0  0  0  0  0  0  0  0  0
    0.4994   -2.3842    0.2766 O   0  0  0  0  0  0  0  0  0  0  0  0
    1.8861   -0.6968    0.8266 N   0  0  0  0  0  0  0  0  0  0  0  0
    1.9666    0.2974    0.9685 H   0  0  0  0  0  0  0  0  0  0  0  0
    3.0929   -1.5119    0.9601 C   0  0  0  0  0  0  0  0  0  0  0  0
    3.2748   -2.0541    0.0290 H   0  0  0  0  0  0  0  0  0  0  0  0
    3.9553   -0.8817    1.1826 H   0  0  0  0  0  0  0  0  0  0  0  0
    2.9593   -2.2395    1.7624 H   0  0  0  0  0  0  0  0  0  0  0  0
  5  6  2  0  0  0  0
  5  7  1  0  0  0  0
  2  3  1  0  0  0  0
  2  4  1  0  0  0  0
  2  5  1  0  0  0  0
  1  2  1  0  0  0  0
 22 23  2  0  0  0  0
 22 24  1  0  0  0  0
 19 20  1  0  0  0  0
 19 21  1  0  0  0  0
 17 18  2  0  0  0  0
 17 19  1  0  0  0  0
 14 15  1  0  0  0  0
 14 16  1  0  0  0  0
 14 17  1  0  0  0  0
 11 12  1  0  0  0  0
 11 13  1  0  0  0  0
 11 14  1  0  0  0  0
  9 10  1  0  0  0  0
  9 11  1  0  0  0  0
  9 22  1  0  0  0  0
  7  8  1  0  0  0  0
  7  9  1  0  0  0  0
 26 27  1  0  0  0  0
 26 28  1  0  0  0  0
 26 29  1  0  0  0  0
 24 25  1  0  0  0  0
 24 26  1  0  0  0  0
M  END
$$$$
default_name
  -OEChem-01062215323D

 29 28  0     1  0  0  0  0  0999 V2000
   -3.3998   -3.6239    1.3678 H   0  0  0  0  0  0  0  0  0  0  0  0
   -3.3608   -2.6749    0.8348 C   0  0  0  0  0  0  0  0  0  0  0  0
   -4.0988   -1.9909    1.2498 H   0  0  0  0  0  0  0  0  0  0  0  0
   -3.5618   -2.8419   -0.2222 H   0  0  0  0  0  0  0  0  0  0  0  0
   -1.9818   -2.0809    0.9918 C   0  0  0  0  0  0  0  0  0  0  0  0
   -1.1288   -2.6669    1.6468 O   0  0  0  0  0  0  0  0  0  0  0  0
   -1.7648   -0.9089    0.3998 N   0  0  0  0  0  0  0  0  0  0  0  0
   -2.5238   -0.4719   -0.1032 H   0  0  0  0  0  0  0  0  0  0  0  0
   -0.4848   -0.1959    0.4138 C   0  0  1  0  0  0  0  0  0  0  0  0
   -0.3876    0.3641   -0.5177 H   0  0  0  0  0  0  0  0  0  0  0  0
   -0.4888    0.8087    1.5825 C   0  0  0  0  0  0  0  0  0  0  0  0
   -0.7377    0.2689    2.4985 H   0  0  0  0  0  0  0  0  0  0  0  0
    0.5119    1.2285    1.6951 H   0  0  0  0  0  0  0  0  0  0  0  0
   -1.4947    1.9602    1.4099 C   0  0  0  0  0  0  0  0  0  0  0  0
   -1.2553    2.5247    0.5089 H   0  0  0  0  0  0  0  0  0  0  0  0
   -2.4958    1.5425    1.3033 H   0  0  0  0  0  0  0  0  0  0  0  0
   -1.5028    2.9334    2.5886 C   0  0  0  0  0  0  0  0  0  0  0  0
   -0.8378    2.7715    3.5946 O   0  0  0  0  0  0  0  0  0  0  0  0
   -2.2610    4.0054    2.5100 N   0  0  0  0  0  0  0  0  0  0  0  0
   -2.2272    4.6106    3.3120 H   0  0  0  0  0  0  0  0  0  0  0  0
   -2.8252    4.1882    1.7050 H   0  0  0  0  0  0  0  0  0  0  0  0
    0.6849   -1.1888    0.4974 C   0  0  0  0  0  0  0  0  0  0  0  0
    0.5756   -2.3162    0.0187 O   0  0  0  0  0  0  0  0  0  0  0  0
    1.7992   -0.7750    1.1144 N   0  0  0  0  0  0  0  0  0  0  0  0
    1.8242    0.1711    1.4597 H   0  0  0  0  0  0  0  0  0  0  0  0
    2.9916   -1.6036    1.2873 C   0  0  0  0  0  0  0  0  0  0  0  0
    3.3420   -1.9510    0.3122 H   0  0  0  0  0  0  0  0  0  0  0  0
    3.7853   -1.0323    1.7710 H   0  0  0  0  0  0  0  0  0  0  0  0
    2.7494   -2.4755    1.8973 H   0  0  0  0  0  0  0  0  0  0  0  0
  5  6  2  0  0  0  0
  5  7  1  0  0  0  0
  2  3  1  0  0  0  0
  2  4  1  0  0  0  0
  2  5  1  0  0  0  0
  1  2  1  0  0  0  0
 22 23  2  0  0  0  0
 22 24  1  0  0  0  0
 19 20  1  0  0  0  0
 19 21  1  0  0  0  0
 17 18  2  0  0  0  0
 17 19  1  0  0  0  0
 14 15  1  0  0  0  0
 14 16  1  0  0  0  0
 14 17  1  0  0  0  0
 11 12  1  0  0  0  0
 11 13  1  0  0  0  0
 11 14  1  0  0  0  0
  9 10  1  0  0  0  0
  9 11  1  0  0  0  0
  9 22  1  0  0  0  0
  7  8  1  0  0  0  0
  7  9  1  0  0  0  0
 26 27  1  0  0  0  0
 26 28  1  0  0  0  0
 26 29  1  0  0  0  0
 24 25  1  0  0  0  0
 24 26  1  0  0  0  0
M  END
$$$$
default_name
  -OEChem-01062215323D

 29 28  0     1  0  0  0  0  0999 V2000
   -3.3998   -3.6239    1.3678 H   0  0  0  0  0  0  0  0  0  0  0  0
   -3.3608   -2.6749    0.8348 C   0  0  0  0  0  0  0  0  0  0  0  0
   -4.0988   -1.9909    1.2498 H   0  0  0  0  0  0  0  0  0  0  0  0
   -3.5618   -2.8419   -0.2222 H   0  0  0  0  0  0  0  0  0  0  0  0
   -1.9818   -2.0809    0.9918 C   0  0  0  0  0  0  0  0  0  0  0  0
   -1.1288   -2.6669    1.6468 O   0  0  0  0  0  0  0  0  0  0  0  0
   -1.7648   -0.9089    0.3998 N   0  0  0  0  0  0  0  0  0  0  0  0
   -2.5238   -0.4719   -0.1032 H   0  0  0  0  0  0  0  0  0  0  0  0
   -0.4848   -0.1959    0.4138 C   0  0  1  0  0  0  0  0  0  0  0  0
   -0.3876    0.3641   -0.5177 H   0  0  0  0  0  0  0  0  0  0  0  0
   -0.4888    0.8087    1.5825 C   0  0  0  0  0  0  0  0  0  0  0  0
   -0.7377    0.2689    2.4985 H   0  0  0  0  0  0  0  0  0  0  0  0
    0.5119    1.2285    1.6951 H   0  0  0  0  0  0  0  0  0  0  0  0
   -1.4947    1.9602    1.4099 C   0  0  0  0  0  0  0  0  0  0  0  0
   -1.2553    2.5247    0.5089 H   0  0  0  0  0  0  0  0  0  0  0  0
   -2.4958    1.5425    1.3033 H   0  0  0  0  0  0  0  0  0  0  0  0
   -1.5028    2.9334    2.5886 C   0  0  0  0  0  0  0  0  0  0  0  0
   -0.8378    2.7715    3.5946 O   0  0  0  0  0  0  0  0  0  0  0  0
   -2.2610    4.0054    2.5100 N   0  0  0  0  0  0  0  0  0  0  0  0
   -2.2272    4.6106    3.3120 H   0  0  0  0  0  0  0  0  0  0  0  0
   -2.8252    4.1882    1.7050 H   0  0  0  0  0  0  0  0  0  0  0  0
    0.6849   -1.1888    0.4974 C   0  0  0  0  0  0  0  0  0  0  0  0
    0.6913   -2.1986   -0.2042 O   0  0  0  0  0  0  0  0  0  0  0  0
    1.6681   -0.9085    1.3624 N   0  0  0  0  0  0  0  0  0  0  0  0
    1.6064   -0.0496    1.8854 H   0  0  0  0  0  0  0  0  0  0  0  0
    2.8404   -1.7581    1.5683 C   0  0  0  0  0  0  0  0  0  0  0  0
    3.3582   -1.9063    0.6174 H   0  0  0  0  0  0  0  0  0  0  0  0
    3.5248   -1.2962    2.2813 H   0  0  0  0  0  0  0  0  0  0  0  0
    2.5273   -2.7330    1.9460 H   0  0  0  0  0  0  0  0  0  0  0  0
  5  6  2  0  0  0  0
  5  7  1  0  0  0  0
  2  3  1  0  0  0  0
  2  4  1  0  0  0  0
  2  5  1  0  0  0  0
  1  2  1  0  0  0  0
 22 23  2  0  0  0  0
 22 24  1  0  0  0  0
 19 20  1  0  0  0  0
 19 21  1  0  0  0  0
 17 18  2  0  0  0  0
 17 19  1  0  0  0  0
 14 15  1  0  0  0  0
 14 16  1  0  0  0  0
 14 17  1  0  0  0  0
 11 12  1  0  0  0  0
 11 13  1  0  0  0  0
 11 14  1  0  0  0  0
  9 10  1  0  0  0  0
  9 11  1  0  0  0  0
  9 22  1  0  0  0  0
  7  8  1  0  0  0  0
  7  9  1  0  0  0  0
 26 27  1  0  0  0  0
 26 28  1  0  0  0  0
 26 29  1  0  0  0  0
 24 25  1  0  0  0  0
 24 26  1  0  0  0  0
M  END
$$$$
default_name
  -OEChem-01062215323D

 29 28  0     1  0  0  0  0  0999 V2000
   -3.3998   -3.6239    1.3678 H   0  0  0  0  0  0  0  0  0  0  0  0
   -3.3608   -2.6749    0.8348 C   0  0  0  0  0  0  0  0  0  0  0  0
   -4.0988   -1.9909    1.2498 H   0  0  0  0  0  0  0  0  0  0  0  0
   -3.5618   -2.8419   -0.2222 H   0  0  0  0  0  0  0  0  0  0  0  0
   -1.9818   -2.0809    0.9918 C   0  0  0  0  0  0  0  0  0  0  0  0
   -1.1288   -2.6669    1.6468 O   0  0  0  0  0  0  0  0  0  0  0  0
   -1.7648   -0.9089    0.3998 N   0  0  0  0  0  0  0  0  0  0  0  0
   -2.5238   -0.4719   -0.1032 H   0  0  0  0  0  0  0  0  0  0  0  0
   -0.4848   -0.1959    0.4138 C   0  0  1  0  0  0  0  0  0  0  0  0
   -0.3876    0.3641   -0.5177 H   0  0  0  0  0  0  0  0  0  0  0  0
   -0.4888    0.8087    1.5825 C   0  0  0  0  0  0  0  0  0  0  0  0
   -0.7377    0.2689    2.4985 H   0  0  0  0  0  0  0  0  0  0  0  0
    0.5119    1.2285    1.6951 H   0  0  0  0  0  0  0  0  0  0  0  0
   -1.4947    1.9602    1.4099 C   0  0  0  0  0  0  0  0  0  0  0  0
   -1.2553    2.5247    0.5089 H   0  0  0  0  0  0  0  0  0  0  0  0
   -2.4958    1.5425    1.3033 H   0  0  0  0  0  0  0  0  0  0  0  0
   -1.5028    2.9334    2.5886 C   0  0  0  0  0  0  0  0  0  0  0  0
   -0.8378    2.7715    3.5946 O   0  0  0  0  0  0  0  0  0  0  0  0
   -2.2610    4.0054    2.5100 N   0  0  0  0  0  0  0  0  0  0  0  0
   -2.2272    4.6106    3.3120 H   0  0  0  0  0  0  0  0  0  0  0  0
   -2.8252    4.1882    1.7050 H   0  0  0  0  0  0  0  0  0  0  0  0
    0.6849   -1.1888    0.4974 C   0  0  0  0  0  0  0  0  0  0  0  0
    0.8387   -2.0395   -0.3770 O   0  0  0  0  0  0  0  0  0  0  0  0
    1.5019   -1.0882    1.5537 N   0  0  0  0  0  0  0  0  0  0  0  0
    1.3279   -0.3498    2.2168 H   0  0  0  0  0  0  0  0  0  0  0  0
    2.6495   -1.9648    1.7839 C   0  0  0  0  0  0  0  0  0  0  0  0
    3.3221   -1.9230    0.9237 H   0  0  0  0  0  0  0  0  0  0  0  0
    3.1916   -1.6552    2.6787 H   0  0  0  0  0  0  0  0  0  0  0  0
    2.3084   -2.9944    1.9051 H   0  0  0  0  0  0  0  0  0  0  0  0
  5  6  2  0  0  0  0
  5  7  1  0  0  0  0
  2  3  1  0  0  0  0
  2  4  1  0  0  0  0
  2  5  1  0  0  0  0
  1  2  1  0  0  0  0
 22 23  2  0  0  0  0
 22 24  1  0  0  0  0
 19 20  1  0  0  0  0
 19 21  1  0  0  0  0
 17 18  2  0  0  0  0
 17 19  1  0  0  0  0
 14 15  1  0  0  0  0
 14 16  1  0  0  0  0
 14 17  1  0  0  0  0
 11 12  1  0  0  0  0
 11 13  1  0  0  0  0
 11 14  1  0  0  0  0
  9 10  1  0  0  0  0
  9 11  1  0  0  0  0
  9 22  1  0  0  0  0
  7  8  1  0  0  0  0
  7  9  1  0  0  0  0
 26 27  1  0  0  0  0
 26 28  1  0  0  0  0
 26 29  1  0  0  0  0
 24 25  1  0  0  0  0
 24 26  1  0  0  0  0
M  END
$$$$
default_name
  -OEChem-01062215323D

 29 28  0     1  0  0  0  0  0999 V2000
   -3.3998   -3.6239    1.3678 H   0  0  0  0  0  0  0  0  0  0  0  0
   -3.3608   -2.6749    0.8348 C   0  0  0  0  0  0  0  0  0  0  0  0
   -4.0988   -1.9909    1.2498 H   0  0  0  0  0  0  0  0  0  0  0  0
   -3.5618   -2.8419   -0.2222 H   0  0  0  0  0  0  0  0  0  0  0  0
   -1.9818   -2.0809    0.9918 C   0  0  0  0  0  0  0  0  0  0  0  0
   -1.1288   -2.6669    1.6468 O   0  0  0  0  0  0  0  0  0  0  0  0
   -1.7648   -0.9089    0.3998 N   0  0  0  0  0  0  0  0  0  0  0  0
   -2.5238   -0.4719   -0.1032 H   0  0  0  0  0  0  0  0  0  0  0  0
   -0.4848   -0.1959    0.4138 C   0  0  1  0  0  0  0  0  0  0  0  0
   -0.3876    0.3641   -0.5177 H   0  0  0  0  0  0  0  0  0  0  0  0
   -0.4888    0.8087    1.5825 C   0  0  0  0  0  0  0  0  0  0  0  0
   -0.7377    0.2689    2.4985 H   0  0  0  0  0  0  0  0  0  0  0  0
    0.5119    1.2285    1.6951 H   0  0  0  0  0  0  0  0  0  0  0  0
   -1.4947    1.9602    1.4099 C   0  0  0  0  0  0  0  0  0  0  0  0
   -1.2553    2.5247    0.5089 H   0  0  0  0  0  0  0  0  0  0  0  0
   -2.4958    1.5425    1.3033 H   0  0  0  0  0  0  0  0  0  0  0  0
   -1.5028    2.9334    2.5886 C   0  0  0  0  0  0  0  0  0  0  0  0
   -0.8378    2.7715    3.5946 O   0  0  0  0  0  0  0  0  0  0  0  0
   -2.2610    4.0054    2.5100 N   0  0  0  0  0  0  0  0  0  0  0  0
   -2.2272    4.6106    3.3120 H   0  0  0  0  0  0  0  0  0  0  0  0
   -2.8252    4.1882    1.7050 H   0  0  0  0  0  0  0  0  0  0  0  0
    0.6849   -1.1888    0.4974 C   0  0  0  0  0  0  0  0  0  0  0  0
    1.0078   -1.8497   -0.4880 O   0  0  0  0  0  0  0  0  0  0  0  0
    1.3119   -1.3017    1.6754 N   0  0  0  0  0  0  0  0  0  0  0  0
    1.0076   -0.7090    2.4311 H   0  0  0  0  0  0  0  0  0  0  0  0
    2.4319   -2.2097    1.9196 C   0  0  0  0  0  0  0  0  0  0  0  0
    3.2363   -2.0000    1.2103 H   0  0  0  0  0  0  0  0  0  0  0  0
    2.8084   -2.0850    2.9360 H   0  0  0  0  0  0  0  0  0  0  0  0
    2.1073   -3.2419    1.7776 H   0  0  0  0  0  0  0  0  0  0  0  0
  5  6  2  0  0  0  0
  5  7  1  0  0  0  0
  2  3  1  0  0  0  0
  2  4  1  0  0  0  0
  2  5  1  0  0  0  0
  1  2  1  0  0  0  0
 22 23  2  0  0  0  0
 22 24  1  0  0  0  0
 19 20  1  0  0  0  0
 19 21  1  0  0  0  0
 17 18  2  0  0  0  0
 17 19  1  0  0  0  0
 14 15  1  0  0  0  0
 14 16  1  0  0  0  0
 14 17  1  0  0  0  0
 11 12  1  0  0  0  0
 11 13  1  0  0  0  0
 11 14  1  0  0  0  0
  9 10  1  0  0  0  0
  9 11  1  0  0  0  0
  9 22  1  0  0  0  0
  7  8  1  0  0  0  0
  7  9  1  0  0  0  0
 26 27  1  0  0  0  0
 26 28  1  0  0  0  0
 26 29  1  0  0  0  0
 24 25  1  0  0  0  0
 24 26  1  0  0  0  0
M  END
$$$$
default_name
  -OEChem-01062215323D

 29 28  0     1  0  0  0  0  0999 V2000
   -3.3998   -3.6239    1.3678 H   0  0  0  0  0  0  0  0  0  0  0  0
   -3.3608   -2.6749    0.8348 C   0  0  0  0  0  0  0  0  0  0  0  0
   -4.0988   -1.9909    1.2498 H   0  0  0  0  0  0  0  0  0  0  0  0
   -3.5618   -2.8419   -0.2222 H   0  0  0  0  0  0  0  0  0  0  0  0
   -1.9818   -2.0809    0.9918 C   0  0  0  0  0  0  0  0  0  0  0  0
   -1.1288   -2.6669    1.6468 O   0  0  0  0  0  0  0  0  0  0  0  0
   -1.7648   -0.9089    0.3998 N   0  0  0  0  0  0  0  0  0  0  0  0
   -2.5238   -0.4719   -0.1032 H   0  0  0  0  0  0  0  0  0  0  0  0
   -0.4848   -0.1959    0.4138 C   0  0  1  0  0  0  0  0  0  0  0  0
   -0.3876    0.3641   -0.5177 H   0  0  0  0  0  0  0  0  0  0  0  0
   -0.4888    0.8087    1.5825 C   0  0  0  0  0  0  0  0  0  0  0  0
   -0.7377    0.2689    2.4985 H   0  0  0  0  0  0  0  0  0  0  0  0
    0.5119    1.2285    1.6951 H   0  0  0  0  0  0  0  0  0  0  0  0
   -1.4947    1.9602    1.4099 C   0  0  0  0  0  0  0  0  0  0  0  0
   -1.2553    2.5247    0.5089 H   0  0  0  0  0  0  0  0  0  0  0  0
   -2.4958    1.5425    1.3033 H   0  0  0  0  0  0  0  0  0  0  0  0
   -1.5028    2.9334    2.5886 C   0  0  0  0  0  0  0  0  0  0  0  0
   -0.8378    2.7715    3.5946 O   0  0  0  0  0  0  0  0  0  0  0  0
   -2.2610    4.0054    2.5100 N   0  0  0  0  0  0  0  0  0  0  0  0
   -2.2272    4.6106    3.3120 H   0  0  0  0  0  0  0  0  0  0  0  0
   -2.8252    4.1882    1.7050 H   0  0  0  0  0  0  0  0  0  0  0  0
    0.6849   -1.1888    0.4974 C   0  0  0  0  0  0  0  0  0  0  0  0
    1.1869   -1.6421   -0.5295 O   0  0  0  0  0  0  0  0  0  0  0  0
    1.1111   -1.5347    1.7190 N   0  0  0  0  0  0  0  0  0  0  0  0
    0.6675   -1.1027    2.5138 H   0  0  0  0  0  0  0  0  0  0  0  0
    2.2025   -2.4760    1.9660 C   0  0  0  0  0  0  0  0  0  0  0  0
    3.1065   -2.1320    1.4575 H   0  0  0  0  0  0  0  0  0  0  0  0
    2.4012   -2.5563    3.0358 H   0  0  0  0  0  0  0  0  0  0  0  0
    1.9380   -3.4587    1.5719 H   0  0  0  0  0  0  0  0  0  0  0  0
  5  6  2  0  0  0  0
  5  7  1  0  0  0  0
  2  3  1  0  0  0  0
  2  4  1  0  0  0  0
  2  5  1  0  0  0  0
  1  2  1  0  0  0  0
 22 23  2  0  0  0  0
 22 24  1  0  0  0  0
 19 20  1  0  0  0  0
 19 21  1  0  0  0  0
 17 18  2  0  0  0  0
 17 19  1  0  0  0  0
 14 15  1  0  0  0  0
 14 16  1  0  0  0  0
 14 17  1  0  0  0  0
 11 12  1  0  0  0  0
 11 13  1  0  0  0  0
 11 14  1  0  0  0  0
  9 10  1  0  0  0  0
  9 11  1  0  0  0  0
  9 22  1  0  0  0  0
  7  8  1  0  0  0  0
  7  9  1  0  0  0  0
 26 27  1  0  0  0  0
 26 28  1  0  0  0  0
 26 29  1  0  0  0  0
 24 25  1  0  0  0  0
 24 26  1  0  0  0  0
M  END
$$$$
default_name
  -OEChem-01062215323D

 29 28  0     1  0  0  0  0  0999 V2000
   -3.3998   -3.6239    1.3678 H   0  0  0  0  0  0  0  0  0  0  0  0
   -3.3608   -2.6749    0.8348 C   0  0  0  0  0  0  0  0  0  0  0  0
   -4.0988   -1.9909    1.2498 H   0  0  0  0  0  0  0  0  0  0  0  0
   -3.5618   -2.8419   -0.2222 H   0  0  0  0  0  0  0  0  0  0  0  0
   -1.9818   -2.0809    0.9918 C   0  0  0  0  0  0  0  0  0  0  0  0
   -1.1288   -2.6669    1.6468 O   0  0  0  0  0  0  0  0  0  0  0  0
   -1.7648   -0.9089    0.3998 N   0  0  0  0  0  0  0  0  0  0  0  0
   -2.5238   -0.4719   -0.1032 H   0  0  0  0  0  0  0  0  0  0  0  0
   -0.4848   -0.1959    0.4138 C   0  0  1  0  0  0  0  0  0  0  0  0
   -0.3876    0.3641   -0.5177 H   0  0  0  0  0  0  0  0  0  0  0  0
   -0.4888    0.8087    1.5825 C   0  0  0  0  0  0  0  0  0  0  0  0
   -0.7377    0.2689    2.4985 H   0  0  0  0  0  0  0  0  0  0  0  0
    0.5119    1.2285    1.6951 H   0  0  0  0  0  0  0  0  0  0  0  0
   -1.4947    1.9602    1.4099 C   0  0  0  0  0  0  0  0  0  0  0  0
   -1.2553    2.5247    0.5089 H   0  0  0  0  0  0  0  0  0  0  0  0
   -2.4958    1.5425    1.3033 H   0  0  0  0  0  0  0  0  0  0  0  0
   -1.5028    2.9334    2.5886 C   0  0  0  0  0  0  0  0  0  0  0  0
   -0.8378    2.7715    3.5946 O   0  0  0  0  0  0  0  0  0  0  0  0
   -2.2610    4.0054    2.5100 N   0  0  0  0  0  0  0  0  0  0  0  0
   -2.2272    4.6106    3.3120 H   0  0  0  0  0  0  0  0  0  0  0  0
   -2.8252    4.1882    1.7050 H   0  0  0  0  0  0  0  0  0  0  0  0
    0.6849   -1.1888    0.4974 C   0  0  0  0  0  0  0  0  0  0  0  0
    1.3640   -1.4309   -0.4987 O   0  0  0  0  0  0  0  0  0  0  0  0
    0.9131   -1.7711    1.6816 N   0  0  0  0  0  0  0  0  0  0  0  0
    0.3307   -1.5040    2.4593 H   0  0  0  0  0  0  0  0  0  0  0  0
    1.9769   -2.7456    1.9200 C   0  0  0  0  0  0  0  0  0  0  0  0
    2.9417   -2.3101    1.6486 H   0  0  0  0  0  0  0  0  0  0  0  0
    1.9978   -3.0369    2.9713 H   0  0  0  0  0  0  0  0  0  0  0  0
    1.8119   -3.6300    1.3023 H   0  0  0  0  0  0  0  0  0  0  0  0
  5  6  2  0  0  0  0
  5  7  1  0  0  0  0
  2  3  1  0  0  0  0
  2  4  1  0  0  0  0
  2  5  1  0  0  0  0
  1  2  1  0  0  0  0
 22 23  2  0  0  0  0
 22 24  1  0  0  0  0
 19 20  1  0  0  0  0
 19 21  1  0  0  0  0
 17 18  2  0  0  0  0
 17 19  1  0  0  0  0
 14 15  1  0  0  0  0
 14 16  1  0  0  0  0
 14 17  1  0  0  0  0
 11 12  1  0  0  0  0
 11 13  1  0  0  0  0
 11 14  1  0  0  0  0
  9 10  1  0  0  0  0
  9 11  1  0  0  0  0
  9 22  1  0  0  0  0
  7  8  1  0  0  0  0
  7  9  1  0  0  0  0
 26 27  1  0  0  0  0
 26 28  1  0  0  0  0
 26 29  1  0  0  0  0
 24 25  1  0  0  0  0
 24 26  1  0  0  0  0
M  END
$$$$
default_name
  -OEChem-01062215323D

 29 28  0     1  0  0  0  0  0999 V2000
   -3.3998   -3.6239    1.3678 H   0  0  0  0  0  0  0  0  0  0  0  0
   -3.3608   -2.6749    0.8348 C   0  0  0  0  0  0  0  0  0  0  0  0
   -4.0988   -1.9909    1.2498 H   0  0  0  0  0  0  0  0  0  0  0  0
   -3.5618   -2.8419   -0.2222 H   0  0  0  0  0  0  0  0  0  0  0  0
   -1.9818   -2.0809    0.9918 C   0  0  0  0  0  0  0  0  0  0  0  0
   -1.1288   -2.6669    1.6468 O   0  0  0  0  0  0  0  0  0  0  0  0
   -1.7648   -0.9089    0.3998 N   0  0  0  0  0  0  0  0  0  0  0  0
   -2.5238   -0.4719   -0.1032 H   0  0  0  0  0  0  0  0  0  0  0  0
   -0.4848   -0.1959    0.4138 C   0  0  1  0  0  0  0  0  0  0  0  0
   -0.3876    0.3641   -0.5177 H   0  0  0  0  0  0  0  0  0  0  0  0
   -0.4888    0.8087    1.5825 C   0  0  0  0  0  0  0  0  0  0  0  0
   -0.7377    0.2689    2.4985 H   0  0  0  0  0  0  0  0  0  0  0  0
    0.5119    1.2285    1.6951 H   0  0  0  0  0  0  0  0  0  0  0  0
   -1.4947    1.9602    1.4099 C   0  0  0  0  0  0  0  0  0  0  0  0
   -1.2553    2.5247    0.5089 H   0  0  0  0  0  0  0  0  0  0  0  0
   -2.4958    1.5425    1.3033 H   0  0  0  0  0  0  0  0  0  0  0  0
   -1.5028    2.9334    2.5886 C   0  0  0  0  0  0  0  0  0  0  0  0
   -0.8378    2.7715    3.5946 O   0  0  0  0  0  0  0  0  0  0  0  0
   -2.2610    4.0054    2.5100 N   0  0  0  0  0  0  0  0  0  0  0  0
   -2.2272    4.6106    3.3120 H   0  0  0  0  0  0  0  0  0  0  0  0
   -2.8252    4.1882    1.7050 H   0  0  0  0  0  0  0  0  0  0  0  0
    0.6849   -1.1888    0.4974 C   0  0  0  0  0  0  0  0  0  0  0  0
    1.5269   -1.2305   -0.3977 O   0  0  0  0  0  0  0  0  0  0  0  0
    0.7314   -1.9949    1.5659 N   0  0  0  0  0  0  0  0  0  0  0  0
    0.0202   -1.8857    2.2711 H   0  0  0  0  0  0  0  0  0  0  0  0
    1.7705   -3.0002    1.7848 C   0  0  0  0  0  0  0  0  0  0  0  0
    2.7531   -2.5220    1.7706 H   0  0  0  0  0  0  0  0  0  0  0  0
    1.6258   -3.4941    2.7468 H   0  0  0  0  0  0  0  0  0  0  0  0
    1.7376   -3.7441    0.9870 H   0  0  0  0  0  0  0  0  0  0  0  0
  5  6  2  0  0  0  0
  5  7  1  0  0  0  0
  2  3  1  0  0  0  0
  2  4  1  0  0  0  0
  2  5  1  0  0  0  0
  1  2  1  0  0  0  0
 22 23  2  0  0  0  0
 22 24  1  0  0  0  0
 19 20  1  0  0  0  0
 19 21  1  0  0  0  0
 17 18  2  0  0  0  0
 17 19  1  0  0  0  0
 14 15  1  0  0  0  0
 14 16  1  0  0  0  0
 14 17  1  0  0  0  0
 11 12  1  0  0  0  0
 11 13  1  0  0  0  0
 11 14  1  0  0  0  0
  9 10  1  0  0  0  0
  9 11  1  0  0  0  0
  9 22  1  0  0  0  0
  7  8  1  0  0  0  0
  7  9  1  0  0  0  0
 26 27  1  0  0  0  0
 26 28  1  0  0  0  0
 26 29  1  0  0  0  0
 24 25  1  0  0  0  0
 24 26  1  0  0  0  0
M  END
$$$$
default_name
  -OEChem-01062215323D

 29 28  0     1  0  0  0  0  0999 V2000
   -3.3998   -3.6239    1.3678 H   0  0  0  0  0  0  0  0  0  0  0  0
   -3.3608   -2.6749    0.8348 C   0  0  0  0  0  0  0  0  0  0  0  0
   -4.0988   -1.9909    1.2498 H   0  0  0  0  0  0  0  0  0  0  0  0
   -3.5618   -2.8419   -0.2222 H   0  0  0  0  0  0  0  0  0  0  0  0
   -1.9818   -2.0809    0.9918 C   0  0  0  0  0  0  0  0  0  0  0  0
   -1.1288   -2.6669    1.6468 O   0  0  0  0  0  0  0  0  0  0  0  0
   -1.7648   -0.9089    0.3998 N   0  0  0  0  0  0  0  0  0  0  0  0
   -2.5238   -0.4719   -0.1032 H   0  0  0  0  0  0  0  0  0  0  0  0
   -0.4848   -0.1959    0.4138 C   0  0  1  0  0  0  0  0  0  0  0  0
   -0.3876    0.3641   -0.5177 H   0  0  0  0  0  0  0  0  0  0  0  0
   -0.4888    0.8087    1.5825 C   0  0  0  0  0  0  0  0  0  0  0  0
   -0.7377    0.2689    2.4985 H   0  0  0  0  0  0  0  0  0  0  0  0
    0.5119    1.2285    1.6951 H   0  0  0  0  0  0  0  0  0  0  0  0
   -1.4947    1.9602    1.4099 C   0  0  0  0  0  0  0  0  0  0  0  0
   -1.2553    2.5247    0.5089 H   0  0  0  0  0  0  0  0  0  0  0  0
   -2.4958    1.5425    1.3033 H   0  0  0  0  0  0  0  0  0  0  0  0
   -1.5028    2.9334    2.5886 C   0  0  0  0  0  0  0  0  0  0  0  0
   -0.8378    2.7715    3.5946 O   0  0  0  0  0  0  0  0  0  0  0  0
   -2.2610    4.0054    2.5100 N   0  0  0  0  0  0  0  0  0  0  0  0
   -2.2272    4.6106    3.3120 H   0  0  0  0  0  0  0  0  0  0  0  0
   -2.8252    4.1882    1.7050 H   0  0  0  0  0  0  0  0  0  0  0  0
    0.6849   -1.1888    0.4974 C   0  0  0  0  0  0  0  0  0  0  0  0
    1.6646   -1.0545   -0.2334 O   0  0  0  0  0  0  0  0  0  0  0  0
    0.5784   -2.1908    1.3796 N   0  0  0  0  0  0  0  0  0  0  0  0
   -0.2429   -2.2217    1.9623 H   0  0  0  0  0  0  0  0  0  0  0  0
    1.5974   -3.2223    1.5694 C   0  0  0  0  0  0  0  0  0  0  0  0
    2.5534   -2.7535    1.8151 H   0  0  0  0  0  0  0  0  0  0  0  0
    1.3104   -3.8967    2.3776 H   0  0  0  0  0  0  0  0  0  0  0  0
    1.7201   -3.7933    0.6475 H   0  0  0  0  0  0  0  0  0  0  0  0
  5  6  2  0  0  0  0
  5  7  1  0  0  0  0
  2  3  1  0  0  0  0
  2  4  1  0  0  0  0
  2  5  1  0  0  0  0
  1  2  1  0  0  0  0
 22 23  2  0  0  0  0
 22 24  1  0  0  0  0
 19 20  1  0  0  0  0
 19 21  1  0  0  0  0
 17 18  2  0  0  0  0
 17 19  1  0  0  0  0
 14 15  1  0  0  0  0
 14 16  1  0  0  0  0
 14 17  1  0  0  0  0
 11 12  1  0  0  0  0
 11 13  1  0  0  0  0
 11 14  1  0  0  0  0
  9 10  1  0  0  0  0
  9 11  1  0  0  0  0
  9 22  1  0  0  0  0
  7  8  1  0  0  0  0
  7  9  1  0  0  0  0
 26 27  1  0  0  0  0
 26 28  1  0  0  0  0
 26 29  1  0  0  0  0
 24 25  1  0  0  0  0
 24 26  1  0  0  0  0
M  END
$$$$
default_name
  -OEChem-01062215323D

 29 28  0     1  0  0  0  0  0999 V2000
   -3.3998   -3.6239    1.3678 H   0  0  0  0  0  0  0  0  0  0  0  0
   -3.3608   -2.6749    0.8348 C   0  0  0  0  0  0  0  0  0  0  0  0
   -4.0988   -1.9909    1.2498 H   0  0  0  0  0  0  0  0  0  0  0  0
   -3.5618   -2.8419   -0.2222 H   0  0  0  0  0  0  0  0  0  0  0  0
   -1.9818   -2.0809    0.9918 C   0  0  0  0  0  0  0  0  0  0  0  0
   -1.1288   -2.6669    1.6468 O   0  0  0  0  0  0  0  0  0  0  0  0
   -1.7648   -0.9089    0.3998 N   0  0  0  0  0  0  0  0  0  0  0  0
   -2.5238   -0.4719   -0.1032 H   0  0  0  0  0  0  0  0  0  0  0  0
   -0.4848   -0.1959    0.4138 C   0  0  1  0  0  0  0  0  0  0  0  0
   -0.3876    0.3641   -0.5177 H   0  0  0  0  0  0  0  0  0  0  0  0
   -0.4888    0.8087    1.5825 C   0  0  0  0  0  0  0  0  0  0  0  0
   -0.7377    0.2689    2.4985 H   0  0  0  0  0  0  0  0  0  0  0  0
    0.5119    1.2285    1.6951 H   0  0  0  0  0  0  0  0  0  0  0  0
   -1.4947    1.9602    1.4099 C   0  0  0  0  0  0  0  0  0  0  0  0
   -1.2553    2.5247    0.5089 H   0  0  0  0  0  0  0  0  0  0  0  0
   -2.4958    1.5425    1.3033 H   0  0  0  0  0  0  0  0  0  0  0  0
   -1.5028    2.9334    2.5886 C   0  0  0  0  0  0  0  0  0  0  0  0
   -0.8378    2.7715    3.5946 O   0  0  0  0  0  0  0  0  0  0  0  0
   -2.2610    4.0054    2.5100 N   0  0  0  0  0  0  0  0  0  0  0  0
   -2.2272    4.6106    3.3120 H   0  0  0  0  0  0  0  0  0  0  0  0
   -2.8252    4.1882    1.7050 H   0  0  0  0  0  0  0  0  0  0  0  0
    0.6849   -1.1888    0.4974 C   0  0  0  0  0  0  0  0  0  0  0  0
    1.7676   -0.9149   -0.0171 O   0  0  0  0  0  0  0  0  0  0  0  0
    0.4645   -2.3455    1.1354 N   0  0  0  0  0  0  0  0  0  0  0  0
   -0.4407   -2.4891    1.5538 H   0  0  0  0  0  0  0  0  0  0  0  0
    1.4692   -3.3969    1.2887 C   0  0  0  0  0  0  0  0  0  0  0  0
    2.3564   -2.9886    1.7791 H   0  0  0  0  0  0  0  0  0  0  0  0
    1.0731   -4.2174    1.8890 H   0  0  0  0  0  0  0  0  0  0  0  0
    1.7607   -3.7741    0.3070 H   0  0  0  0  0  0  0  0  0  0  0  0
  5  6  2  0  0  0  0
  5  7  1  0  0  0  0
  2  3  1  0  0  0  0
  2  4  1  0  0  0  0
  2  5  1  0  0  0  0
  1  2  1  0  0  0  0
 22 23  2  0  0  0  0
 22 24  1  0  0  0  0
 19 20  1  0  0  0  0
 19 21  1  0  0  0  0
 17 18  2  0  0  0  0
 17 19  1  0  0  0  0
 14 15  1  0  0  0  0
 14 16  1  0  0  0  0
 14 17  1  0  0  0  0
 11 12  1  0  0  0  0
 11 13  1  0  0  0  0
 11 14  1  0  0  0  0
  9 10  1  0  0  0  0
  9 11  1  0  0  0  0
  9 22  1  0  0  0  0
  7  8  1  0  0  0  0
  7  9  1  0  0  0  0
 26 27  1  0  0  0  0
 26 28  1  0  0  0  0
 26 29  1  0  0  0  0
 24 25  1  0  0  0  0
 24 26  1  0  0  0  0
M  END
$$$$
default_name
  -OEChem-01062215323D

 29 28  0     1  0  0  0  0  0999 V2000
   -3.3998   -3.6239    1.3678 H   0  0  0  0  0  0  0  0  0  0  0  0
   -3.3608   -2.6749    0.8348 C   0  0  0  0  0  0  0  0  0  0  0  0
   -4.0988   -1.9909    1.2498 H   0  0  0  0  0  0  0  0  0  0  0  0
   -3.5618   -2.8419   -0.2222 H   0  0  0  0  0  0  0  0  0  0  0  0
   -1.9818   -2.0809    0.9918 C   0  0  0  0  0  0  0  0  0  0  0  0
   -1.1288   -2.6669    1.6468 O   0  0  0  0  0  0  0  0  0  0  0  0
   -1.7648   -0.9089    0.3998 N   0  0  0  0  0  0  0  0  0  0  0  0
   -2.5238   -0.4719   -0.1032 H   0  0  0  0  0  0  0  0  0  0  0  0
   -0.4848   -0.1959    0.4138 C   0  0  1  0  0  0  0  0  0  0  0  0
   -0.3876    0.3641   -0.5177 H   0  0  0  0  0  0  0  0  0  0  0  0
   -0.4888    0.8087    1.5825 C   0  0  0  0  0  0  0  0  0  0  0  0
   -0.7377    0.2689    2.4985 H   0  0  0  0  0  0  0  0  0  0  0  0
    0.5119    1.2285    1.6951 H   0  0  0  0  0  0  0  0  0  0  0  0
   -1.4947    1.9602    1.4099 C   0  0  0  0  0  0  0  0  0  0  0  0
   -1.2553    2.5247    0.5089 H   0  0  0  0  0  0  0  0  0  0  0  0
   -2.4958    1.5425    1.3033 H   0  0  0  0  0  0  0  0  0  0  0  0
   -1.5028    2.9334    2.5886 C   0  0  0  0  0  0  0  0  0  0  0  0
   -0.8378    2.7715    3.5946 O   0  0  0  0  0  0  0  0  0  0  0  0
   -2.2610    4.0054    2.5100 N   0  0  0  0  0  0  0  0  0  0  0  0
   -2.2272    4.6106    3.3120 H   0  0  0  0  0  0  0  0  0  0  0  0
   -2.8252    4.1882    1.7050 H   0  0  0  0  0  0  0  0  0  0  0  0
    0.6849   -1.1888    0.4974 C   0  0  0  0  0  0  0  0  0  0  0  0
    1.8290   -0.8213    0.2367 O   0  0  0  0  0  0  0  0  0  0  0  0
    0.3976   -2.4484    0.8501 N   0  0  0  0  0  0  0  0  0  0  0  0
   -0.5596   -2.6697    1.0735 H   0  0  0  0  0  0  0  0  0  0  0  0
    1.3949   -3.5120    0.9617 C   0  0  0  0  0  0  0  0  0  0  0  0
    2.1754   -3.2114    1.6650 H   0  0  0  0  0  0  0  0  0  0  0  0
    0.9302   -4.4341    1.3141 H   0  0  0  0  0  0  0  0  0  0  0  0
    1.8567   -3.6879   -0.0113 H   0  0  0  0  0  0  0  0  0  0  0  0
  5  6  2  0  0  0  0
  5  7  1  0  0  0  0
  2  3  1  0  0  0  0
  2  4  1  0  0  0  0
  2  5  1  0  0  0  0
  1  2  1  0  0  0  0
 22 23  2  0  0  0  0
 22 24  1  0  0  0  0
 19 20  1  0  0  0  0
 19 21  1  0  0  0  0
 17 18  2  0  0  0  0
 17 19  1  0  0  0  0
 14 15  1  0  0  0  0
 14 16  1  0  0  0  0
 14 17  1  0  0  0  0
 11 12  1  0  0  0  0
 11 13  1  0  0  0  0
 11 14  1  0  0  0  0
  9 10  1  0  0  0  0
  9 11  1  0  0  0  0
  9 22  1  0  0  0  0
  7  8  1  0  0  0  0
  7  9  1  0  0  0  0
 26 27  1  0  0  0  0
 26 28  1  0  0  0  0
 26 29  1  0  0  0  0
 24 25  1  0  0  0  0
 24 26  1  0  0  0  0
M  END
$$$$
default_name
  -OEChem-01062215323D

 29 28  0     1  0  0  0  0  0999 V2000
   -3.3998   -3.6239    1.3678 H   0  0  0  0  0  0  0  0  0  0  0  0
   -3.3608   -2.6749    0.8348 C   0  0  0  0  0  0  0  0  0  0  0  0
   -4.0988   -1.9909    1.2498 H   0  0  0  0  0  0  0  0  0  0  0  0
   -3.5618   -2.8419   -0.2222 H   0  0  0  0  0  0  0  0  0  0  0  0
   -1.9818   -2.0809    0.9918 C   0  0  0  0  0  0  0  0  0  0  0  0
   -1.1288   -2.6669    1.6468 O   0  0  0  0  0  0  0  0  0  0  0  0
   -1.7648   -0.9089    0.3998 N   0  0  0  0  0  0  0  0  0  0  0  0
   -2.5238   -0.4719   -0.1032 H   0  0  0  0  0  0  0  0  0  0  0  0
   -0.4848   -0.1959    0.4138 C   0  0  1  0  0  0  0  0  0  0  0  0
   -0.3876    0.3641   -0.5177 H   0  0  0  0  0  0  0  0  0  0  0  0
   -0.4888    0.8087    1.5825 C   0  0  0  0  0  0  0  0  0  0  0  0
   -0.7377    0.2689    2.4985 H   0  0  0  0  0  0  0  0  0  0  0  0
    0.5119    1.2285    1.6951 H   0  0  0  0  0  0  0  0  0  0  0  0
   -1.4947    1.9602    1.4099 C   0  0  0  0  0  0  0  0  0  0  0  0
   -1.2553    2.5247    0.5089 H   0  0  0  0  0  0  0  0  0  0  0  0
   -2.4958    1.5425    1.3033 H   0  0  0  0  0  0  0  0  0  0  0  0
   -1.5028    2.9334    2.5886 C   0  0  0  0  0  0  0  0  0  0  0  0
   -0.8378    2.7715    3.5946 O   0  0  0  0  0  0  0  0  0  0  0  0
   -2.2610    4.0054    2.5100 N   0  0  0  0  0  0  0  0  0  0  0  0
   -2.2272    4.6106    3.3120 H   0  0  0  0  0  0  0  0  0  0  0  0
   -2.8252    4.1882    1.7050 H   0  0  0  0  0  0  0  0  0  0  0  0
    0.6849   -1.1888    0.4974 C   0  0  0  0  0  0  0  0  0  0  0  0
    1.8445   -0.7799    0.5105 O   0  0  0  0  0  0  0  0  0  0  0  0
    0.3821   -2.4925    0.5430 N   0  0  0  0  0  0  0  0  0  0  0  0
   -0.5917   -2.7511    0.5540 H   0  0  0  0  0  0  0  0  0  0  0  0
    1.3794   -3.5598    0.6108 C   0  0  0  0  0  0  0  0  0  0  0  0
    2.0228   -3.4067    1.4807 H   0  0  0  0  0  0  0  0  0  0  0  0
    0.8914   -4.5323    0.6922 H   0  0  0  0  0  0  0  0  0  0  0  0
    2.0013   -3.5406   -0.2858 H   0  0  0  0  0  0  0  0  0  0  0  0
  5  6  2  0  0  0  0
  5  7  1  0  0  0  0
  2  3  1  0  0  0  0
  2  4  1  0  0  0  0
  2  5  1  0  0  0  0
  1  2  1  0  0  0  0
 22 23  2  0  0  0  0
 22 24  1  0  0  0  0
 19 20  1  0  0  0  0
 19 21  1  0  0  0  0
 17 18  2  0  0  0  0
 17 19  1  0  0  0  0
 14 15  1  0  0  0  0
 14 16  1  0  0  0  0
 14 17  1  0  0  0  0
 11 12  1  0  0  0  0
 11 13  1  0  0  0  0
 11 14  1  0  0  0  0
  9 10  1  0  0  0  0
  9 11  1  0  0  0  0
  9 22  1  0  0  0  0
  7  8  1  0  0  0  0
  7  9  1  0  0  0  0
 26 27  1  0  0  0  0
 26 28  1  0  0  0  0
 26 29  1  0  0  0  0
 24 25  1  0  0  0  0
 24 26  1  0  0  0  0
M  END
$$$$
default_name
  -OEChem-01062215323D

 29 28  0     1  0  0  0  0  0999 V2000
   -3.3998   -3.6239    1.3678 H   0  0  0  0  0  0  0  0  0  0  0  0
   -3.3608   -2.6749    0.8348 C   0  0  0  0  0  0  0  0  0  0  0  0
   -4.0988   -1.9909    1.2498 H   0  0  0  0  0  0  0  0  0  0  0  0
   -3.5618   -2.8419   -0.2222 H   0  0  0  0  0  0  0  0  0  0  0  0
   -1.9818   -2.0809    0.9918 C   0  0  0  0  0  0  0  0  0  0  0  0
   -1.1288   -2.6669    1.6468 O   0  0  0  0  0  0  0  0  0  0  0  0
   -1.7648   -0.9089    0.3998 N   0  0  0  0  0  0  0  0  0  0  0  0
   -2.5238   -0.4719   -0.1032 H   0  0  0  0  0  0  0  0  0  0  0  0
   -0.4848   -0.1959    0.4138 C   0  0  1  0  0  0  0  0  0  0  0  0
   -0.3876    0.3641   -0.5177 H   0  0  0  0  0  0  0  0  0  0  0  0
   -0.4888    0.8087    1.5825 C   0  0  0  0  0  0  0  0  0  0  0  0
   -0.7377    0.2689    2.4985 H   0  0  0  0  0  0  0  0  0  0  0  0
    0.5119    1.2285    1.6951 H   0  0  0  0  0  0  0  0  0  0  0  0
   -1.4947    1.9602    1.4099 C   0  0  0  0  0  0  0  0  0  0  0  0
   -1.2553    2.5247    0.5089 H   0  0  0  0  0  0  0  0  0  0  0  0
   -2.4958    1.5425    1.3033 H   0  0  0  0  0  0  0  0  0  0  0  0
   -1.5028    2.9334    2.5886 C   0  0  0  0  0  0  0  0  0  0  0  0
   -0.8378    2.7715    3.5946 O   0  0  0  0  0  0  0  0  0  0  0  0
   -2.2610    4.0054    2.5100 N   0  0  0  0  0  0  0  0  0  0  0  0
   -2.2272    4.6106    3.3120 H   0  0  0  0  0  0  0  0  0  0  0  0
   -2.8252    4.1882    1.7050 H   0  0  0  0  0  0  0  0  0  0  0  0
    0.6849   -1.1888    0.4974 C   0  0  0  0  0  0  0  0  0  0  0  0
    1.8131   -0.7937    0.7857 O   0  0  0  0  0  0  0  0  0  0  0  0
    0.4191   -2.4749    0.2351 N   0  0  0  0  0  0  0  0  0  0  0  0
   -0.5346   -2.7279    0.0309 H   0  0  0  0  0  0  0  0  0  0  0  0
    1.4238   -3.5371    0.2598 C   0  0  0  0  0  0  0  0  0  0  0  0
    1.9090   -3.5611    1.2386 H   0  0  0  0  0  0  0  0  0  0  0  0
    0.9593   -4.5051    0.0657 H   0  0  0  0  0  0  0  0  0  0  0  0
    2.1849   -3.3422   -0.4977 H   0  0  0  0  0  0  0  0  0  0  0  0
  5  6  2  0  0  0  0
  5  7  1  0  0  0  0
  2  3  1  0  0  0  0
  2  4  1  0  0  0  0
  2  5  1  0  0  0  0
  1  2  1  0  0  0  0
 22 23  2  0  0  0  0
 22 24  1  0  0  0  0
 19 20  1  0  0  0  0
 19 21  1  0  0  0  0
 17 18  2  0  0  0  0
 17 19  1  0  0  0  0
 14 15  1  0  0  0  0
 14 16  1  0  0  0  0
 14 17  1  0  0  0  0
 11 12  1  0  0  0  0
 11 13  1  0  0  0  0
 11 14  1  0  0  0  0
  9 10  1  0  0  0  0
  9 11  1  0  0  0  0
  9 22  1  0  0  0  0
  7  8  1  0  0  0  0
  7  9  1  0  0  0  0
 26 27  1  0  0  0  0
 26 28  1  0  0  0  0
 26 29  1  0  0  0  0
 24 25  1  0  0  0  0
 24 26  1  0  0  0  0
M  END
$$$$
default_name
  -OEChem-01062215323D

 29 28  0     1  0  0  0  0  0999 V2000
   -3.3998   -3.6239    1.3678 H   0  0  0  0  0  0  0  0  0  0  0  0
   -3.3608   -2.6749    0.8348 C   0  0  0  0  0  0  0  0  0  0  0  0
   -4.0988   -1.9909    1.2498 H   0  0  0  0  0  0  0  0  0  0  0  0
   -3.5618   -2.8419   -0.2222 H   0  0  0  0  0  0  0  0  0  0  0  0
   -1.9818   -2.0809    0.9918 C   0  0  0  0  0  0  0  0  0  0  0  0
   -1.1288   -2.6669    1.6468 O   0  0  0  0  0  0  0  0  0  0  0  0
   -1.7648   -0.9089    0.3998 N   0  0  0  0  0  0  0  0  0  0  0  0
   -2.5238   -0.4719   -0.1032 H   0  0  0  0  0  0  0  0  0  0  0  0
   -0.4848   -0.1959    0.4138 C   0  0  1  0  0  0  0  0  0  0  0  0
   -0.3876    0.3641   -0.5177 H   0  0  0  0  0  0  0  0  0  0  0  0
   -0.4888    0.8087    1.5825 C   0  0  0  0  0  0  0  0  0  0  0  0
   -0.7377    0.2689    2.4985 H   0  0  0  0  0  0  0  0  0  0  0  0
    0.5119    1.2285    1.6951 H   0  0  0  0  0  0  0  0  0  0  0  0
   -1.4947    1.9602    1.4099 C   0  0  0  0  0  0  0  0  0  0  0  0
   -1.2553    2.5247    0.5089 H   0  0  0  0  0  0  0  0  0  0  0  0
   -2.4958    1.5425    1.3033 H   0  0  0  0  0  0  0  0  0  0  0  0
   -1.5028    2.9334    2.5886 C   0  0  0  0  0  0  0  0  0  0  0  0
   -0.8378    2.7715    3.5946 O   0  0  0  0  0  0  0  0  0  0  0  0
   -2.2610    4.0054    2.5100 N   0  0  0  0  0  0  0  0  0  0  0  0
   -2.2272    4.6106    3.3120 H   0  0  0  0  0  0  0  0  0  0  0  0
   -2.8252    4.1882    1.7050 H   0  0  0  0  0  0  0  0  0  0  0  0
    0.6849   -1.1888    0.4974 C   0  0  0  0  0  0  0  0  0  0  0  0
    1.7369   -0.8617    1.0435 O   0  0  0  0  0  0  0  0  0  0  0  0
    0.5060   -2.3967   -0.0527 N   0  0  0  0  0  0  0  0  0  0  0  0
   -0.3922   -2.6016   -0.4604 H   0  0  0  0  0  0  0  0  0  0  0  0
    1.5250   -3.4454   -0.0674 C   0  0  0  0  0  0  0  0  0  0  0  0
    1.8417   -3.6642    0.9553 H   0  0  0  0  0  0  0  0  0  0  0  0
    1.1292   -4.3544   -0.5227 H   0  0  0  0  0  0  0  0  0  0  0  0
    2.3949   -3.1062   -0.6326 H   0  0  0  0  0  0  0  0  0  0  0  0
  5  6  2  0  0  0  0
  5  7  1  0  0  0  0
  2  3  1  0  0  0  0
  2  4  1  0  0  0  0
  2  5  1  0  0  0  0
  1  2  1  0  0  0  0
 22 23  2  0  0  0  0
 22 24  1  0  0  0  0
 19 20  1  0  0  0  0
 19 21  1  0  0  0  0
 17 18  2  0  0  0  0
 17 19  1  0  0  0  0
 14 15  1  0  0  0  0
 14 16  1  0  0  0  0
 14 17  1  0  0  0  0
 11 12  1  0  0  0  0
 11 13  1  0  0  0  0
 11 14  1  0  0  0  0
  9 10  1  0  0  0  0
  9 11  1  0  0  0  0
  9 22  1  0  0  0  0
  7  8  1  0  0  0  0
  7  9  1  0  0  0  0
 26 27  1  0  0  0  0
 26 28  1  0  0  0  0
 26 29  1  0  0  0  0
 24 25  1  0  0  0  0
 24 26  1  0  0  0  0
M  END
$$$$
default_name
  -OEChem-01062215323D

 29 28  0     1  0  0  0  0  0999 V2000
   -3.3998   -3.6239    1.3678 H   0  0  0  0  0  0  0  0  0  0  0  0
   -3.3608   -2.6749    0.8348 C   0  0  0  0  0  0  0  0  0  0  0  0
   -4.0988   -1.9909    1.2498 H   0  0  0  0  0  0  0  0  0  0  0  0
   -3.5618   -2.8419   -0.2222 H   0  0  0  0  0  0  0  0  0  0  0  0
   -1.9818   -2.0809    0.9918 C   0  0  0  0  0  0  0  0  0  0  0  0
   -1.1288   -2.6669    1.6468 O   0  0  0  0  0  0  0  0  0  0  0  0
   -1.7648   -0.9089    0.3998 N   0  0  0  0  0  0  0  0  0  0  0  0
   -2.5238   -0.4719   -0.1032 H   0  0  0  0  0  0  0  0  0  0  0  0
   -0.4848   -0.1959    0.4138 C   0  0  1  0  0  0  0  0  0  0  0  0
   -0.3876    0.3641   -0.5177 H   0  0  0  0  0  0  0  0  0  0  0  0
   -0.4888    0.8087    1.5825 C   0  0  0  0  0  0  0  0  0  0  0  0
   -0.7377    0.2689    2.4985 H   0  0  0  0  0  0  0  0  0  0  0  0
    0.5119    1.2285    1.6951 H   0  0  0  0  0  0  0  0  0  0  0  0
   -1.4947    1.9602    1.4099 C   0  0  0  0  0  0  0  0  0  0  0  0
   -1.2553    2.5247    0.5089 H   0  0  0  0  0  0  0  0  0  0  0  0
   -2.4958    1.5425    1.3033 H   0  0  0  0  0  0  0  0  0  0  0  0
   -1.5028    2.9334    2.5886 C   0  0  0  0  0  0  0  0  0  0  0  0
   -0.8378    2.7715    3.5946 O   0  0  0  0  0  0  0  0  0  0  0  0
   -2.2610    4.0054    2.5100 N   0  0  0  0  0  0  0  0  0  0  0  0
   -2.2272    4.6106    3.3120 H   0  0  0  0  0  0  0  0  0  0  0  0
   -2.8252    4.1882    1.7050 H   0  0  0  0  0  0  0  0  0  0  0  0
    0.6849   -1.1888    0.4974 C   0  0  0  0  0  0  0  0  0  0  0  0
    1.6212   -0.9793    1.2665 O   0  0  0  0  0  0  0  0  0  0  0  0
    0.6371   -2.2632   -0.3007 N   0  0  0  0  0  0  0  0  0  0  0  0
   -0.1744   -2.3809   -0.8861 H   0  0  0  0  0  0  0  0  0  0  0  0
    1.6763   -3.2909   -0.3484 C   0  0  0  0  0  0  0  0  0  0  0  0
    1.8256   -3.7090    0.6502 H   0  0  0  0  0  0  0  0  0  0  0  0
    1.3897   -4.0906   -1.0330 H   0  0  0  0  0  0  0  0  0  0  0  0
    2.6169   -2.8488   -0.6812 H   0  0  0  0  0  0  0  0  0  0  0  0
  5  6  2  0  0  0  0
  5  7  1  0  0  0  0
  2  3  1  0  0  0  0
  2  4  1  0  0  0  0
  2  5  1  0  0  0  0
  1  2  1  0  0  0  0
 22 23  2  0  0  0  0
 22 24  1  0  0  0  0
 19 20  1  0  0  0  0
 19 21  1  0  0  0  0
 17 18  2  0  0  0  0
 17 19  1  0  0  0  0
 14 15  1  0  0  0  0
 14 16  1  0  0  0  0
 14 17  1  0  0  0  0
 11 12  1  0  0  0  0
 11 13  1  0  0  0  0
 11 14  1  0  0  0  0
  9 10  1  0  0  0  0
  9 11  1  0  0  0  0
  9 22  1  0  0  0  0
  7  8  1  0  0  0  0
  7  9  1  0  0  0  0
 26 27  1  0  0  0  0
 26 28  1  0  0  0  0
 26 29  1  0  0  0  0
 24 25  1  0  0  0  0
 24 26  1  0  0  0  0
M  END
$$$$
default_name
  -OEChem-01062215323D

 29 28  0     1  0  0  0  0  0999 V2000
   -3.3998   -3.6239    1.3678 H   0  0  0  0  0  0  0  0  0  0  0  0
   -3.3608   -2.6749    0.8348 C   0  0  0  0  0  0  0  0  0  0  0  0
   -4.0988   -1.9909    1.2498 H   0  0  0  0  0  0  0  0  0  0  0  0
   -3.5618   -2.8419   -0.2222 H   0  0  0  0  0  0  0  0  0  0  0  0
   -1.9818   -2.0809    0.9918 C   0  0  0  0  0  0  0  0  0  0  0  0
   -1.1288   -2.6669    1.6468 O   0  0  0  0  0  0  0  0  0  0  0  0
   -1.7648   -0.9089    0.3998 N   0  0  0  0  0  0  0  0  0  0  0  0
   -2.5238   -0.4719   -0.1032 H   0  0  0  0  0  0  0  0  0  0  0  0
   -0.4848   -0.1959    0.4138 C   0  0  1  0  0  0  0  0  0  0  0  0
   -0.3876    0.3641   -0.5177 H   0  0  0  0  0  0  0  0  0  0  0  0
   -0.4888    0.8087    1.5825 C   0  0  0  0  0  0  0  0  0  0  0  0
   -0.7377    0.2689    2.4985 H   0  0  0  0  0  0  0  0  0  0  0  0
    0.5119    1.2285    1.6951 H   0  0  0  0  0  0  0  0  0  0  0  0
   -1.4947    1.9602    1.4099 C   0  0  0  0  0  0  0  0  0  0  0  0
   -1.2553    2.5247    0.5089 H   0  0  0  0  0  0  0  0  0  0  0  0
   -2.4958    1.5425    1.3033 H   0  0  0  0  0  0  0  0  0  0  0  0
   -1.5028    2.9334    2.5886 C   0  0  0  0  0  0  0  0  0  0  0  0
   -0.8378    2.7715    3.5946 O   0  0  0  0  0  0  0  0  0  0  0  0
   -2.2610    4.0054    2.5100 N   0  0  0  0  0  0  0  0  0  0  0  0
   -2.2272    4.6106    3.3120 H   0  0  0  0  0  0  0  0  0  0  0  0
   -2.8252    4.1882    1.7050 H   0  0  0  0  0  0  0  0  0  0  0  0
    0.6849   -1.1888    0.4974 C   0  0  0  0  0  0  0  0  0  0  0  0
    1.4738   -1.1384    1.4393 O   0  0  0  0  0  0  0  0  0  0  0  0
    0.8033   -2.0835   -0.4920 N   0  0  0  0  0  0  0  0  0  0  0  0
    0.1042   -2.0807   -1.2175 H   0  0  0  0  0  0  0  0  0  0  0  0
    1.8672   -3.0841   -0.5641 C   0  0  0  0  0  0  0  0  0  0  0  0
    1.8617   -3.6923    0.3439 H   0  0  0  0  0  0  0  0  0  0  0  0
    1.7229   -3.7315   -1.4304 H   0  0  0  0  0  0  0  0  0  0  0  0
    2.8359   -2.5874   -0.6404 H   0  0  0  0  0  0  0  0  0  0  0  0
  5  6  2  0  0  0  0
  5  7  1  0  0  0  0
  2  3  1  0  0  0  0
  2  4  1  0  0  0  0
  2  5  1  0  0  0  0
  1  2  1  0  0  0  0
 22 23  2  0  0  0  0
 22 24  1  0  0  0  0
 19 20  1  0  0  0  0
 19 21  1  0  0  0  0
 17 18  2  0  0  0  0
 17 19  1  0  0  0  0
 14 15  1  0  0  0  0
 14 16  1  0  0  0  0
 14 17  1  0  0  0  0
 11 12  1  0  0  0  0
 11 13  1  0  0  0  0
 11 14  1  0  0  0  0
  9 10  1  0  0  0  0
  9 11  1  0  0  0  0
  9 22  1  0  0  0  0
  7  8  1  0  0  0  0
  7  9  1  0  0  0  0
 26 27  1  0  0  0  0
 26 28  1  0  0  0  0
 26 29  1  0  0  0  0
 24 25  1  0  0  0  0
 24 26  1  0  0  0  0
M  END
$$$$
default_name
  -OEChem-01062215323D

 29 28  0     1  0  0  0  0  0999 V2000
   -3.3998   -3.6239    1.3678 H   0  0  0  0  0  0  0  0  0  0  0  0
   -3.3608   -2.6749    0.8348 C   0  0  0  0  0  0  0  0  0  0  0  0
   -4.0988   -1.9909    1.2498 H   0  0  0  0  0  0  0  0  0  0  0  0
   -3.5618   -2.8419   -0.2222 H   0  0  0  0  0  0  0  0  0  0  0  0
   -1.9818   -2.0809    0.9918 C   0  0  0  0  0  0  0  0  0  0  0  0
   -1.1288   -2.6669    1.6468 O   0  0  0  0  0  0  0  0  0  0  0  0
   -1.7648   -0.9089    0.3998 N   0  0  0  0  0  0  0  0  0  0  0  0
   -2.5238   -0.4719   -0.1032 H   0  0  0  0  0  0  0  0  0  0  0  0
   -0.4848   -0.1959    0.4138 C   0  0  1  0  0  0  0  0  0  0  0  0
   -0.3876    0.3641   -0.5177 H   0  0  0  0  0  0  0  0  0  0  0  0
   -0.4888    0.8087    1.5825 C   0  0  0  0  0  0  0  0  0  0  0  0
   -0.7377    0.2689    2.4985 H   0  0  0  0  0  0  0  0  0  0  0  0
    0.5119    1.2285    1.6951 H   0  0  0  0  0  0  0  0  0  0  0  0
   -1.4947    1.9602    1.4099 C   0  0  0  0  0  0  0  0  0  0  0  0
   -1.2553    2.5247    0.5089 H   0  0  0  0  0  0  0  0  0  0  0  0
   -2.4958    1.5425    1.3033 H   0  0  0  0  0  0  0  0  0  0  0  0
   -1.5028    2.9334    2.5886 C   0  0  0  0  0  0  0  0  0  0  0  0
   -0.8378    2.7715    3.5946 O   0  0  0  0  0  0  0  0  0  0  0  0
   -2.2610    4.0054    2.5100 N   0  0  0  0  0  0  0  0  0  0  0  0
   -2.2272    4.6106    3.3120 H   0  0  0  0  0  0  0  0  0  0  0  0
   -2.8252    4.1882    1.7050 H   0  0  0  0  0  0  0  0  0  0  0  0
    0.6849   -1.1888    0.4974 C   0  0  0  0  0  0  0  0  0  0  0  0
    1.3047   -1.3282    1.5502 O   0  0  0  0  0  0  0  0  0  0  0  0
    0.9933   -1.8700   -0.6136 N   0  0  0  0  0  0  0  0  0  0  0  0
    0.4244   -1.7215   -1.4318 H   0  0  0  0  0  0  0  0  0  0  0  0
    2.0848   -2.8393   -0.6997 C   0  0  0  0  0  0  0  0  0  0  0  0
    1.9475   -3.6153    0.0573 H   0  0  0  0  0  0  0  0  0  0  0  0
    2.1062   -3.3017   -1.6877 H   0  0  0  0  0  0  0  0  0  0  0  0
    3.0369   -2.3398   -0.5128 H   0  0  0  0  0  0  0  0  0  0  0  0
  5  6  2  0  0  0  0
  5  7  1  0  0  0  0
  2  3  1  0  0  0  0
  2  4  1  0  0  0  0
  2  5  1  0  0  0  0
  1  2  1  0  0  0  0
 22 23  2  0  0  0  0
 22 24  1  0  0  0  0
 19 20  1  0  0  0  0
 19 21  1  0  0  0  0
 17 18  2  0  0  0  0
 17 19  1  0  0  0  0
 14 15  1  0  0  0  0
 14 16  1  0  0  0  0
 14 17  1  0  0  0  0
 11 12  1  0  0  0  0
 11 13  1  0  0  0  0
 11 14  1  0  0  0  0
  9 10  1  0  0  0  0
  9 11  1  0  0  0  0
  9 22  1  0  0  0  0
  7  8  1  0  0  0  0
  7  9  1  0  0  0  0
 26 27  1  0  0  0  0
 26 28  1  0  0  0  0
 26 29  1  0  0  0  0
 24 25  1  0  0  0  0
 24 26  1  0  0  0  0
M  END
$$$$
default_name
  -OEChem-01062215323D

 29 28  0     1  0  0  0  0  0999 V2000
   -3.3998   -3.6239    1.3678 H   0  0  0  0  0  0  0  0  0  0  0  0
   -3.3608   -2.6749    0.8348 C   0  0  0  0  0  0  0  0  0  0  0  0
   -4.0988   -1.9909    1.2498 H   0  0  0  0  0  0  0  0  0  0  0  0
   -3.5618   -2.8419   -0.2222 H   0  0  0  0  0  0  0  0  0  0  0  0
   -1.9818   -2.0809    0.9918 C   0  0  0  0  0  0  0  0  0  0  0  0
   -1.1288   -2.6669    1.6468 O   0  0  0  0  0  0  0  0  0  0  0  0
   -1.7648   -0.9089    0.3998 N   0  0  0  0  0  0  0  0  0  0  0  0
   -2.5238   -0.4719   -0.1032 H   0  0  0  0  0  0  0  0  0  0  0  0
   -0.4848   -0.1959    0.4138 C   0  0  1  0  0  0  0  0  0  0  0  0
   -0.3876    0.3641   -0.5177 H   0  0  0  0  0  0  0  0  0  0  0  0
   -0.4888    0.8087    1.5825 C   0  0  0  0  0  0  0  0  0  0  0  0
   -0.7377    0.2689    2.4985 H   0  0  0  0  0  0  0  0  0  0  0  0
    0.5119    1.2285    1.6951 H   0  0  0  0  0  0  0  0  0  0  0  0
   -1.4947    1.9602    1.4099 C   0  0  0  0  0  0  0  0  0  0  0  0
   -1.2553    2.5247    0.5089 H   0  0  0  0  0  0  0  0  0  0  0  0
   -2.4958    1.5425    1.3033 H   0  0  0  0  0  0  0  0  0  0  0  0
   -1.5028    2.9334    2.5886 C   0  0  0  0  0  0  0  0  0  0  0  0
   -0.8378    2.7715    3.5946 O   0  0  0  0  0  0  0  0  0  0  0  0
   -2.2610    4.0054    2.5100 N   0  0  0  0  0  0  0  0  0  0  0  0
   -2.2272    4.6106    3.3120 H   0  0  0  0  0  0  0  0  0  0  0  0
   -2.8252    4.1882    1.7050 H   0  0  0  0  0  0  0  0  0  0  0  0
    0.6849   -1.1888    0.4974 C   0  0  0  0  0  0  0  0  0  0  0  0
    1.1256   -1.5358    1.5917 O   0  0  0  0  0  0  0  0  0  0  0  0
    1.1941   -1.6370   -0.6572 N   0  0  0  0  0  0  0  0  0  0  0  0
    0.7645   -1.3278   -1.5145 H   0  0  0  0  0  0  0  0  0  0  0  0
    2.3141   -2.5730   -0.7462 C   0  0  0  0  0  0  0  0  0  0  0  0
    2.0772   -3.4833   -0.1899 H   0  0  0  0  0  0  0  0  0  0  0  0
    2.5134   -2.8304   -1.7875 H   0  0  0  0  0  0  0  0  0  0  0  0
    3.2062   -2.1230   -0.3072 H   0  0  0  0  0  0  0  0  0  0  0  0
  5  6  2  0  0  0  0
  5  7  1  0  0  0  0
  2  3  1  0  0  0  0
  2  4  1  0  0  0  0
  2  5  1  0  0  0  0
  1  2  1  0  0  0  0
 22 23  2  0  0  0  0
 22 24  1  0  0  0  0
 19 20  1  0  0  0  0
 19 21  1  0  0  0  0
 17 18  2  0  0  0  0
 17 19  1  0  0  0  0
 14 15  1  0  0  0  0
 14 16  1  0  0  0  0
 14 17  1  0  0  0  0
 11 12  1  0  0  0  0
 11 13  1  0  0  0  0
 11 14  1  0  0  0  0
  9 10  1  0  0  0  0
  9 11  1  0  0  0  0
  9 22  1  0  0  0  0
  7  8  1  0  0  0  0
  7  9  1  0  0  0  0
 26 27  1  0  0  0  0
 26 28  1  0  0  0  0
 26 29  1  0  0  0  0
 24 25  1  0  0  0  0
 24 26  1  0  0  0  0
M  END
$$$$
default_name
  -OEChem-01062215323D

 29 28  0     1  0  0  0  0  0999 V2000
   -3.3998   -3.6239    1.3678 H   0  0  0  0  0  0  0  0  0  0  0  0
   -3.3608   -2.6749    0.8348 C   0  0  0  0  0  0  0  0  0  0  0  0
   -4.0988   -1.9909    1.2498 H   0  0  0  0  0  0  0  0  0  0  0  0
   -3.5618   -2.8419   -0.2222 H   0  0  0  0  0  0  0  0  0  0  0  0
   -1.9818   -2.0809    0.9918 C   0  0  0  0  0  0  0  0  0  0  0  0
   -1.1288   -2.6669    1.6468 O   0  0  0  0  0  0  0  0  0  0  0  0
   -1.7648   -0.9089    0.3998 N   0  0  0  0  0  0  0  0  0  0  0  0
   -2.5238   -0.4719   -0.1032 H   0  0  0  0  0  0  0  0  0  0  0  0
   -0.4848   -0.1959    0.4138 C   0  0  1  0  0  0  0  0  0  0  0  0
   -0.3876    0.3641   -0.5177 H   0  0  0  0  0  0  0  0  0  0  0  0
   -0.4888    0.8087    1.5825 C   0  0  0  0  0  0  0  0  0  0  0  0
   -0.7377    0.2689    2.4985 H   0  0  0  0  0  0  0  0  0  0  0  0
    0.5119    1.2285    1.6951 H   0  0  0  0  0  0  0  0  0  0  0  0
   -1.4947    1.9602    1.4099 C   0  0  0  0  0  0  0  0  0  0  0  0
   -1.2553    2.5247    0.5089 H   0  0  0  0  0  0  0  0  0  0  0  0
   -2.4958    1.5425    1.3033 H   0  0  0  0  0  0  0  0  0  0  0  0
   -1.5028    2.9334    2.5886 C   0  0  0  0  0  0  0  0  0  0  0  0
   -0.8378    2.7715    3.5946 O   0  0  0  0  0  0  0  0  0  0  0  0
   -2.2610    4.0054    2.5100 N   0  0  0  0  0  0  0  0  0  0  0  0
   -2.2272    4.6106    3.3120 H   0  0  0  0  0  0  0  0  0  0  0  0
   -2.8252    4.1882    1.7050 H   0  0  0  0  0  0  0  0  0  0  0  0
    0.6849   -1.1888    0.4974 C   0  0  0  0  0  0  0  0  0  0  0  0
    0.9485   -1.7470    1.5609 O   0  0  0  0  0  0  0  0  0  0  0  0
    1.3921   -1.4006   -0.6199 N   0  0  0  0  0  0  0  0  0  0  0  0
    1.1013   -0.9264   -1.4599 H   0  0  0  0  0  0  0  0  0  0  0  0
    2.5397   -2.3033   -0.7002 C   0  0  0  0  0  0  0  0  0  0  0  0
    2.2421   -3.3052   -0.3811 H   0  0  0  0  0  0  0  0  0  0  0  0
    2.9167   -2.3498   -1.7230 H   0  0  0  0  0  0  0  0  0  0  0  0
    3.3324   -1.9517   -0.0376 H   0  0  0  0  0  0  0  0  0  0  0  0
  5  6  2  0  0  0  0
  5  7  1  0  0  0  0
  2  3  1  0  0  0  0
  2  4  1  0  0  0  0
  2  5  1  0  0  0  0
  1  2  1  0  0  0  0
 22 23  2  0  0  0  0
 22 24  1  0  0  0  0
 19 20  1  0  0  0  0
 19 21  1  0  0  0  0
 17 18  2  0  0  0  0
 17 19  1  0  0  0  0
 14 15  1  0  0  0  0
 14 16  1  0  0  0  0
 14 17  1  0  0  0  0
 11 12  1  0  0  0  0
 11 13  1  0  0  0  0
 11 14  1  0  0  0  0
  9 10  1  0  0  0  0
  9 11  1  0  0  0  0
  9 22  1  0  0  0  0
  7  8  1  0  0  0  0
  7  9  1  0  0  0  0
 26 27  1  0  0  0  0
 26 28  1  0  0  0  0
 26 29  1  0  0  0  0
 24 25  1  0  0  0  0
 24 26  1  0  0  0  0
M  END
$$$$
default_name
  -OEChem-01062215323D

 29 28  0     1  0  0  0  0  0999 V2000
   -3.3998   -3.6239    1.3678 H   0  0  0  0  0  0  0  0  0  0  0  0
   -3.3608   -2.6749    0.8348 C   0  0  0  0  0  0  0  0  0  0  0  0
   -4.0988   -1.9909    1.2498 H   0  0  0  0  0  0  0  0  0  0  0  0
   -3.5618   -2.8419   -0.2222 H   0  0  0  0  0  0  0  0  0  0  0  0
   -1.9818   -2.0809    0.9918 C   0  0  0  0  0  0  0  0  0  0  0  0
   -1.1288   -2.6669    1.6468 O   0  0  0  0  0  0  0  0  0  0  0  0
   -1.7648   -0.9089    0.3998 N   0  0  0  0  0  0  0  0  0  0  0  0
   -2.5238   -0.4719   -0.1032 H   0  0  0  0  0  0  0  0  0  0  0  0
   -0.4848   -0.1959    0.4138 C   0  0  1  0  0  0  0  0  0  0  0  0
   -0.3876    0.3641   -0.5177 H   0  0  0  0  0  0  0  0  0  0  0  0
   -0.4888    0.8087    1.5825 C   0  0  0  0  0  0  0  0  0  0  0  0
   -0.7377    0.2689    2.4985 H   0  0  0  0  0  0  0  0  0  0  0  0
    0.5119    1.2285    1.6951 H   0  0  0  0  0  0  0  0  0  0  0  0
   -1.4947    1.9602    1.4099 C   0  0  0  0  0  0  0  0  0  0  0  0
   -1.2553    2.5247    0.5089 H   0  0  0  0  0  0  0  0  0  0  0  0
   -2.4958    1.5425    1.3033 H   0  0  0  0  0  0  0  0  0  0  0  0
   -1.5028    2.9334    2.5886 C   0  0  0  0  0  0  0  0  0  0  0  0
   -0.8378    2.7715    3.5946 O   0  0  0  0  0  0  0  0  0  0  0  0
   -2.2610    4.0054    2.5100 N   0  0  0  0  0  0  0  0  0  0  0  0
   -2.2272    4.6106    3.3120 H   0  0  0  0  0  0  0  0  0  0  0  0
   -2.8252    4.1882    1.7050 H   0  0  0  0  0  0  0  0  0  0  0  0
    0.6849   -1.1888    0.4974 C   0  0  0  0  0  0  0  0  0  0  0  0
    0.7856   -1.9474    1.4600 O   0  0  0  0  0  0  0  0  0  0  0  0
    1.5738   -1.1768   -0.5041 N   0  0  0  0  0  0  0  0  0  0  0  0
    1.4118   -0.5448   -1.2718 H   0  0  0  0  0  0  0  0  0  0  0  0
    2.7461   -2.0488   -0.5649 C   0  0  0  0  0  0  0  0  0  0  0  0
    2.4307   -3.0932   -0.5030 H   0  0  0  0  0  0  0  0  0  0  0  0
    3.2888   -1.8926   -1.4985 H   0  0  0  0  0  0  0  0  0  0  0  0
    3.4067   -1.8376    0.2778 H   0  0  0  0  0  0  0  0  0  0  0  0
  5  6  2  0  0  0  0
  5  7  1  0  0  0  0
  2  3  1  0  0  0  0
  2  4  1  0  0  0  0
  2  5  1  0  0  0  0
  1  2  1  0  0  0  0
 22 23  2  0  0  0  0
 22 24  1  0  0  0  0
 19 20  1  0  0  0  0
 19 21  1  0  0  0  0
 17 18  2  0  0  0  0
 17 19  1  0  0  0  0
 14 15  1  0  0  0  0
 14 16  1  0  0  0  0
 14 17  1  0  0  0  0
 11 12  1  0  0  0  0
 11 13  1  0  0  0  0
 11 14  1  0  0  0  0
  9 10  1  0  0  0  0
  9 11  1  0  0  0  0
  9 22  1  0  0  0  0
  7  8  1  0  0  0  0
  7  9  1  0  0  0  0
 26 27  1  0  0  0  0
 26 28  1  0  0  0  0
 26 29  1  0  0  0  0
 24 25  1  0  0  0  0
 24 26  1  0  0  0  0
M  END
$$$$
default_name
  -OEChem-01062215323D

 29 28  0     1  0  0  0  0  0999 V2000
   -3.3998   -3.6239    1.3678 H   0  0  0  0  0  0  0  0  0  0  0  0
   -3.3608   -2.6749    0.8348 C   0  0  0  0  0  0  0  0  0  0  0  0
   -4.0988   -1.9909    1.2498 H   0  0  0  0  0  0  0  0  0  0  0  0
   -3.5618   -2.8419   -0.2222 H   0  0  0  0  0  0  0  0  0  0  0  0
   -1.9818   -2.0809    0.9918 C   0  0  0  0  0  0  0  0  0  0  0  0
   -1.1288   -2.6669    1.6468 O   0  0  0  0  0  0  0  0  0  0  0  0
   -1.7648   -0.9089    0.3998 N   0  0  0  0  0  0  0  0  0  0  0  0
   -2.5238   -0.4719   -0.1032 H   0  0  0  0  0  0  0  0  0  0  0  0
   -0.4848   -0.1959    0.4138 C   0  0  1  0  0  0  0  0  0  0  0  0
   -0.3876    0.3641   -0.5177 H   0  0  0  0  0  0  0  0  0  0  0  0
   -0.4888    0.8087    1.5825 C   0  0  0  0  0  0  0  0  0  0  0  0
   -0.7377    0.2689    2.4985 H   0  0  0  0  0  0  0  0  0  0  0  0
    0.5119    1.2285    1.6951 H   0  0  0  0  0  0  0  0  0  0  0  0
   -1.4947    1.9602    1.4099 C   0  0  0  0  0  0  0  0  0  0  0  0
   -1.2553    2.5247    0.5089 H   0  0  0  0  0  0  0  0  0  0  0  0
   -2.4958    1.5425    1.3033 H   0  0  0  0  0  0  0  0  0  0  0  0
   -1.5028    2.9334    2.5886 C   0  0  0  0  0  0  0  0  0  0  0  0
   -0.8378    2.7715    3.5946 O   0  0  0  0  0  0  0  0  0  0  0  0
   -2.2610    4.0054    2.5100 N   0  0  0  0  0  0  0  0  0  0  0  0
   -2.2272    4.6106    3.3120 H   0  0  0  0  0  0  0  0  0  0  0  0
   -2.8252    4.1882    1.7050 H   0  0  0  0  0  0  0  0  0  0  0  0
    0.6849   -1.1888    0.4974 C   0  0  0  0  0  0  0  0  0  0  0  0
    0.6479   -2.1234    1.2957 O   0  0  0  0  0  0  0  0  0  0  0  0
    1.7268   -0.9809   -0.3178 N   0  0  0  0  0  0  0  0  0  0  0  0
    1.6749   -0.2088   -0.9630 H   0  0  0  0  0  0  0  0  0  0  0  0
    2.9193   -1.8267   -0.3496 C   0  0  0  0  0  0  0  0  0  0  0  0
    2.6304   -2.8618   -0.5475 H   0  0  0  0  0  0  0  0  0  0  0  0
    3.6042   -1.4900   -1.1293 H   0  0  0  0  0  0  0  0  0  0  0  0
    3.4241   -1.7885    0.6172 H   0  0  0  0  0  0  0  0  0  0  0  0
  5  6  2  0  0  0  0
  5  7  1  0  0  0  0
  2  3  1  0  0  0  0
  2  4  1  0  0  0  0
  2  5  1  0  0  0  0
  1  2  1  0  0  0  0
 22 23  2  0  0  0  0
 22 24  1  0  0  0  0
 19 20  1  0  0  0  0
 19 21  1  0  0  0  0
 17 18  2  0  0  0  0
 17 19  1  0  0  0  0
 14 15  1  0  0  0  0
 14 16  1  0  0  0  0
 14 17  1  0  0  0  0
 11 12  1  0  0  0  0
 11 13  1  0  0  0  0
 11 14  1  0  0  0  0
  9 10  1  0  0  0  0
  9 11  1  0  0  0  0
  9 22  1  0  0  0  0
  7  8  1  0  0  0  0
  7  9  1  0  0  0  0
 26 27  1  0  0  0  0
 26 28  1  0  0  0  0
 26 29  1  0  0  0  0
 24 25  1  0  0  0  0
 24 26  1  0  0  0  0
M  END
$$$$
default_name
  -OEChem-01062215323D

 29 28  0     1  0  0  0  0  0999 V2000
   -3.3998   -3.6239    1.3678 H   0  0  0  0  0  0  0  0  0  0  0  0
   -3.3608   -2.6749    0.8348 C   0  0  0  0  0  0  0  0  0  0  0  0
   -4.0988   -1.9909    1.2498 H   0  0  0  0  0  0  0  0  0  0  0  0
   -3.5618   -2.8419   -0.2222 H   0  0  0  0  0  0  0  0  0  0  0  0
   -1.9818   -2.0809    0.9918 C   0  0  0  0  0  0  0  0  0  0  0  0
   -1.1288   -2.6669    1.6468 O   0  0  0  0  0  0  0  0  0  0  0  0
   -1.7648   -0.9089    0.3998 N   0  0  0  0  0  0  0  0  0  0  0  0
   -2.5238   -0.4719   -0.1032 H   0  0  0  0  0  0  0  0  0  0  0  0
   -0.4848   -0.1959    0.4138 C   0  0  1  0  0  0  0  0  0  0  0  0
   -0.3876    0.3641   -0.5177 H   0  0  0  0  0  0  0  0  0  0  0  0
   -0.4888    0.8087    1.5825 C   0  0  0  0  0  0  0  0  0  0  0  0
   -0.7377    0.2689    2.4985 H   0  0  0  0  0  0  0  0  0  0  0  0
    0.5119    1.2285    1.6951 H   0  0  0  0  0  0  0  0  0  0  0  0
   -1.4947    1.9602    1.4099 C   0  0  0  0  0  0  0  0  0  0  0  0
   -1.2553    2.5247    0.5089 H   0  0  0  0  0  0  0  0  0  0  0  0
   -2.4958    1.5425    1.3033 H   0  0  0  0  0  0  0  0  0  0  0  0
   -1.5028    2.9334    2.5886 C   0  0  0  0  0  0  0  0  0  0  0  0
   -0.8378    2.7715    3.5946 O   0  0  0  0  0  0  0  0  0  0  0  0
   -2.2610    4.0054    2.5100 N   0  0  0  0  0  0  0  0  0  0  0  0
   -2.2272    4.6106    3.3120 H   0  0  0  0  0  0  0  0  0  0  0  0
   -2.8252    4.1882    1.7050 H   0  0  0  0  0  0  0  0  0  0  0  0
    0.6849   -1.1888    0.4974 C   0  0  0  0  0  0  0  0  0  0  0  0
    0.5449   -2.2630    1.0793 O   0  0  0  0  0  0  0  0  0  0  0  0
    1.8407   -0.8262   -0.0737 N   0  0  0  0  0  0  0  0  0  0  0  0
    1.8727    0.0586   -0.5545 H   0  0  0  0  0  0  0  0  0  0  0  0
    3.0474   -1.6521   -0.0688 C   0  0  0  0  0  0  0  0  0  0  0  0
    2.8274   -2.6267   -0.5115 H   0  0  0  0  0  0  0  0  0  0  0  0
    3.8414   -1.1694   -0.6406 H   0  0  0  0  0  0  0  0  0  0  0  0
    3.3835   -1.8076    0.9577 H   0  0  0  0  0  0  0  0  0  0  0  0
  5  6  2  0  0  0  0
  5  7  1  0  0  0  0
  2  3  1  0  0  0  0
  2  4  1  0  0  0  0
  2  5  1  0  0  0  0
  1  2  1  0  0  0  0
 22 23  2  0  0  0  0
 22 24  1  0  0  0  0
 19 20  1  0  0  0  0
 19 21  1  0  0  0  0
 17 18  2  0  0  0  0
 17 19  1  0  0  0  0
 14 15  1  0  0  0  0
 14 16  1  0  0  0  0
 14 17  1  0  0  0  0
 11 12  1  0  0  0  0
 11 13  1  0  0  0  0
 11 14  1  0  0  0  0
  9 10  1  0  0  0  0
  9 11  1  0  0  0  0
  9 22  1  0  0  0  0
  7  8  1  0  0  0  0
  7  9  1  0  0  0  0
 26 27  1  0  0  0  0
 26 28  1  0  0  0  0
 26 29  1  0  0  0  0
 24 25  1  0  0  0  0
 24 26  1  0  0  0  0
M  END
$$$$
default_name
  -OEChem-01062215323D

 29 28  0     1  0  0  0  0  0999 V2000
   -3.3998   -3.6239    1.3678 H   0  0  0  0  0  0  0  0  0  0  0  0
   -3.3608   -2.6749    0.8348 C   0  0  0  0  0  0  0  0  0  0  0  0
   -4.0988   -1.9909    1.2498 H   0  0  0  0  0  0  0  0  0  0  0  0
   -3.5618   -2.8419   -0.2222 H   0  0  0  0  0  0  0  0  0  0  0  0
   -1.9818   -2.0809    0.9918 C   0  0  0  0  0  0  0  0  0  0  0  0
   -1.1288   -2.6669    1.6468 O   0  0  0  0  0  0  0  0  0  0  0  0
   -1.7648   -0.9089    0.3998 N   0  0  0  0  0  0  0  0  0  0  0  0
   -2.5238   -0.4719   -0.1032 H   0  0  0  0  0  0  0  0  0  0  0  0
   -0.4848   -0.1959    0.4138 C   0  0  1  0  0  0  0  0  0  0  0  0
   -0.3876    0.3641   -0.5177 H   0  0  0  0  0  0  0  0  0  0  0  0
   -0.4888    0.8087    1.5825 C   0  0  0  0  0  0  0  0  0  0  0  0
   -0.7377    0.2689    2.4985 H   0  0  0  0  0  0  0  0  0  0  0  0
    0.5119    1.2285    1.6951 H   0  0  0  0  0  0  0  0  0  0  0  0
   -1.4947    1.9602    1.4099 C   0  0  0  0  0  0  0  0  0  0  0  0
   -1.2553    2.5247    0.5089 H   0  0  0  0  0  0  0  0  0  0  0  0
   -2.4958    1.5425    1.3033 H   0  0  0  0  0  0  0  0  0  0  0  0
   -1.5028    2.9334    2.5886 C   0  0  0  0  0  0  0  0  0  0  0  0
   -0.8378    2.7715    3.5946 O   0  0  0  0  0  0  0  0  0  0  0  0
   -2.2610    4.0054    2.5100 N   0  0  0  0  0  0  0  0  0  0  0  0
   -2.2272    4.6106    3.3120 H   0  0  0  0  0  0  0  0  0  0  0  0
   -2.8252    4.1882    1.7050 H   0  0  0  0  0  0  0  0  0  0  0  0
    0.6849   -1.1888    0.4974 C   0  0  0  0  0  0  0  0  0  0  0  0
    0.4835   -2.3566    0.8256 O   0  0  0  0  0  0  0  0  0  0  0  0
    1.9076   -0.7233    0.2116 N   0  0  0  0  0  0  0  0  0  0  0  0
    1.9917    0.2392   -0.0742 H   0  0  0  0  0  0  0  0  0  0  0  0
    3.1218   -1.5370    0.2581 C   0  0  0  0  0  0  0  0  0  0  0  0
    3.0084   -2.4039   -0.3974 H   0  0  0  0  0  0  0  0  0  0  0  0
    3.9843   -0.9526   -0.0658 H   0  0  0  0  0  0  0  0  0  0  0  0
    3.2876   -1.8938    1.2761 H   0  0  0  0  0  0  0  0  0  0  0  0
  5  6  2  0  0  0  0
  5  7  1  0  0  0  0
  2  3  1  0  0  0  0
  2  4  1  0  0  0  0
  2  5  1  0  0  0  0
  1  2  1  0  0  0  0
 22 23  2  0  0  0  0
 22 24  1  0  0  0  0
 19 20  1  0  0  0  0
 19 21  1  0  0  0  0
 17 18  2  0  0  0  0
 17 19  1  0  0  0  0
 14 15  1  0  0  0  0
 14 16  1  0  0  0  0
 14 17  1  0  0  0  0
 11 12  1  0  0  0  0
 11 13  1  0  0  0  0
 11 14  1  0  0  0  0
  9 10  1  0  0  0  0
  9 11  1  0  0  0  0
  9 22  1  0  0  0  0
  7  8  1  0  0  0  0
  7  9  1  0  0  0  0
 26 27  1  0  0  0  0
 26 28  1  0  0  0  0
 26 29  1  0  0  0  0
 24 25  1  0  0  0  0
 24 26  1  0  0  0  0
M  END
$$$$
default_name
  -OEChem-01062215323D

 29 28  0     1  0  0  0  0  0999 V2000
   -3.3998   -3.6239    1.3678 H   0  0  0  0  0  0  0  0  0  0  0  0
   -3.3608   -2.6749    0.8348 C   0  0  0  0  0  0  0  0  0  0  0  0
   -4.0988   -1.9909    1.2498 H   0  0  0  0  0  0  0  0  0  0  0  0
   -3.5618   -2.8419   -0.2222 H   0  0  0  0  0  0  0  0  0  0  0  0
   -1.9818   -2.0809    0.9918 C   0  0  0  0  0  0  0  0  0  0  0  0
   -1.1288   -2.6669    1.6468 O   0  0  0  0  0  0  0  0  0  0  0  0
   -1.7648   -0.9089    0.3998 N   0  0  0  0  0  0  0  0  0  0  0  0
   -2.5238   -0.4719   -0.1032 H   0  0  0  0  0  0  0  0  0  0  0  0
   -0.4848   -0.1959    0.4138 C   0  0  1  0  0  0  0  0  0  0  0  0
   -0.4993    0.5616   -0.3715 H   0  0  0  0  0  0  0  0  0  0  0  0
   -0.3292    0.5185    1.7705 C   0  0  0  0  0  0  0  0  0  0  0  0
   -0.4669   -0.2185    2.5644 H   0  0  0  0  0  0  0  0  0  0  0  0
    0.6827    0.9189    1.8485 H   0  0  0  0  0  0  0  0  0  0  0  0
   -1.3349    1.6620    1.9907 C   0  0  0  0  0  0  0  0  0  0  0  0
   -1.2044    2.4194    1.2181 H   0  0  0  0  0  0  0  0  0  0  0  0
   -2.3464    1.2622    1.9190 H   0  0  0  0  0  0  0  0  0  0  0  0
   -1.1825    2.3434    3.3504 C   0  0  0  0  0  0  0  0  0  0  0  0
   -0.3978    1.9697    4.2020 O   0  0  0  0  0  0  0  0  0  0  0  0
   -1.9316    3.3924    3.6123 N   0  0  0  0  0  0  0  0  0  0  0  0
   -1.7896    3.8012    4.5197 H   0  0  0  0  0  0  0  0  0  0  0  0
   -2.5907    3.7428    2.9471 H   0  0  0  0  0  0  0  0  0  0  0  0
    0.6741   -1.1621    0.1230 C   0  0  0  0  0  0  0  0  0  0  0  0
    0.4513   -2.3557   -0.0709 O   0  0  0  0  0  0  0  0  0  0  0  0
    1.9111   -0.6495    0.1032 N   0  0  0  0  0  0  0  0  0  0  0  0
    2.0136    0.3426    0.2459 H   0  0  0  0  0  0  0  0  0  0  0  0
    3.1172   -1.4382   -0.1453 C   0  0  0  0  0  0  0  0  0  0  0  0
    3.0282   -1.9528   -1.1052 H   0  0  0  0  0  0  0  0  0  0  0  0
    3.9968   -0.7930   -0.1642 H   0  0  0  0  0  0  0  0  0  0  0  0
    3.2350   -2.1884    0.6385 H   0  0  0  0  0  0  0  0  0  0  0  0
  5  6  2  0  0  0  0
  5  7  1  0  0  0  0
  2  3  1  0  0  0  0
  2  4  1  0  0  0  0
  2  5  1  0  0  0  0
  1  2  1  0  0  0  0
 22 23  2  0  0  0  0
 22 24  1  0  0  0  0
 19 20  1  0  0  0  0
 19 21  1  0  0  0  0
 17 18  2  0  0  0  0
 17 19  1  0  0  0  0
 14 15  1  0  0  0  0
 14 16  1  0  0  0  0
 14 17  1  0  0  0  0
 11 12  1  0  0  0  0
 11 13  1  0  0  0  0
 11 14  1  0  0  0  0
  9 10  1  0  0  0  0
  9 11  1  0  0  0  0
  9 22  1  0  0  0  0
  7  8  1  0  0  0  0
  7  9  1  0  0  0  0
 26 27  1  0  0  0  0
 26 28  1  0  0  0  0
 26 29  1  0  0  0  0
 24 25  1  0  0  0  0
 24 26  1  0  0  0  0
M  END
$$$$
default_name
  -OEChem-01062215323D

 29 28  0     1  0  0  0  0  0999 V2000
   -3.3998   -3.6239    1.3678 H   0  0  0  0  0  0  0  0  0  0  0  0
   -3.3608   -2.6749    0.8348 C   0  0  0  0  0  0  0  0  0  0  0  0
   -4.0988   -1.9909    1.2498 H   0  0  0  0  0  0  0  0  0  0  0  0
   -3.5618   -2.8419   -0.2222 H   0  0  0  0  0  0  0  0  0  0  0  0
   -1.9818   -2.0809    0.9918 C   0  0  0  0  0  0  0  0  0  0  0  0
   -1.1288   -2.6669    1.6468 O   0  0  0  0  0  0  0  0  0  0  0  0
   -1.7648   -0.9089    0.3998 N   0  0  0  0  0  0  0  0  0  0  0  0
   -2.5238   -0.4719   -0.1032 H   0  0  0  0  0  0  0  0  0  0  0  0
   -0.4848   -0.1959    0.4138 C   0  0  1  0  0  0  0  0  0  0  0  0
   -0.4993    0.5616   -0.3715 H   0  0  0  0  0  0  0  0  0  0  0  0
   -0.3292    0.5185    1.7705 C   0  0  0  0  0  0  0  0  0  0  0  0
   -0.4669   -0.2185    2.5644 H   0  0  0  0  0  0  0  0  0  0  0  0
    0.6827    0.9189    1.8485 H   0  0  0  0  0  0  0  0  0  0  0  0
   -1.3349    1.6620    1.9907 C   0  0  0  0  0  0  0  0  0  0  0  0
   -1.2044    2.4194    1.2181 H   0  0  0  0  0  0  0  0  0  0  0  0
   -2.3464    1.2622    1.9190 H   0  0  0  0  0  0  0  0  0  0  0  0
   -1.1825    2.3434    3.3504 C   0  0  0  0  0  0  0  0  0  0  0  0
   -0.3978    1.9697    4.2020 O   0  0  0  0  0  0  0  0  0  0  0  0
   -1.9316    3.3924    3.6123 N   0  0  0  0  0  0  0  0  0  0  0  0
   -1.7896    3.8012    4.5197 H   0  0  0  0  0  0  0  0  0  0  0  0
   -2.5907    3.7428    2.9471 H   0  0  0  0  0  0  0  0  0  0  0  0
    0.6741   -1.1621    0.1230 C   0  0  0  0  0  0  0  0  0  0  0  0
    0.4479   -2.2796   -0.3375 O   0  0  0  0  0  0  0  0  0  0  0  0
    1.9131   -0.7369    0.4013 N   0  0  0  0  0  0  0  0  0  0  0  0
    2.0227    0.2009    0.7532 H   0  0  0  0  0  0  0  0  0  0  0  0
    3.1171   -1.5404    0.1942 C   0  0  0  0  0  0  0  0  0  0  0  0
    3.1735   -1.8551   -0.8508 H   0  0  0  0  0  0  0  0  0  0  0  0
    4.0082   -0.9622    0.4433 H   0  0  0  0  0  0  0  0  0  0  0  0
    3.0772   -2.4327    0.8213 H   0  0  0  0  0  0  0  0  0  0  0  0
  5  6  2  0  0  0  0
  5  7  1  0  0  0  0
  2  3  1  0  0  0  0
  2  4  1  0  0  0  0
  2  5  1  0  0  0  0
  1  2  1  0  0  0  0
 22 23  2  0  0  0  0
 22 24  1  0  0  0  0
 19 20  1  0  0  0  0
 19 21  1  0  0  0  0
 17 18  2  0  0  0  0
 17 19  1  0  0  0  0
 14 15  1  0  0  0  0
 14 16  1  0  0  0  0
 14 17  1  0  0  0  0
 11 12  1  0  0  0  0
 11 13  1  0  0  0  0
 11 14  1  0  0  0  0
  9 10  1  0  0  0  0
  9 11  1  0  0  0  0
  9 22  1  0  0  0  0
  7  8  1  0  0  0  0
  7  9  1  0  0  0  0
 26 27  1  0  0  0  0
 26 28  1  0  0  0  0
 26 29  1  0  0  0  0
 24 25  1  0  0  0  0
 24 26  1  0  0  0  0
M  END
$$$$
default_name
  -OEChem-01062215323D

 29 28  0     1  0  0  0  0  0999 V2000
   -3.3998   -3.6239    1.3678 H   0  0  0  0  0  0  0  0  0  0  0  0
   -3.3608   -2.6749    0.8348 C   0  0  0  0  0  0  0  0  0  0  0  0
   -4.0988   -1.9909    1.2498 H   0  0  0  0  0  0  0  0  0  0  0  0
   -3.5618   -2.8419   -0.2222 H   0  0  0  0  0  0  0  0  0  0  0  0
   -1.9818   -2.0809    0.9918 C   0  0  0  0  0  0  0  0  0  0  0  0
   -1.1288   -2.6669    1.6468 O   0  0  0  0  0  0  0  0  0  0  0  0
   -1.7648   -0.9089    0.3998 N   0  0  0  0  0  0  0  0  0  0  0  0
   -2.5238   -0.4719   -0.1032 H   0  0  0  0  0  0  0  0  0  0  0  0
   -0.4848   -0.1959    0.4138 C   0  0  1  0  0  0  0  0  0  0  0  0
   -0.4993    0.5616   -0.3715 H   0  0  0  0  0  0  0  0  0  0  0  0
   -0.3292    0.5185    1.7705 C   0  0  0  0  0  0  0  0  0  0  0  0
   -0.4669   -0.2185    2.5644 H   0  0  0  0  0  0  0  0  0  0  0  0
    0.6827    0.9189    1.8485 H   0  0  0  0  0  0  0  0  0  0  0  0
   -1.3349    1.6620    1.9907 C   0  0  0  0  0  0  0  0  0  0  0  0
   -1.2044    2.4194    1.2181 H   0  0  0  0  0  0  0  0  0  0  0  0
   -2.3464    1.2622    1.9190 H   0  0  0  0  0  0  0  0  0  0  0  0
   -1.1825    2.3434    3.3504 C   0  0  0  0  0  0  0  0  0  0  0  0
   -0.3978    1.9697    4.2020 O   0  0  0  0  0  0  0  0  0  0  0  0
   -1.9316    3.3924    3.6123 N   0  0  0  0  0  0  0  0  0  0  0  0
   -1.7896    3.8012    4.5197 H   0  0  0  0  0  0  0  0  0  0  0  0
   -2.5907    3.7428    2.9471 H   0  0  0  0  0  0  0  0  0  0  0  0
    0.6741   -1.1621    0.1230 C   0  0  0  0  0  0  0  0  0  0  0  0
    0.4917   -2.1538   -0.5808 O   0  0  0  0  0  0  0  0  0  0  0  0
    1.8622   -0.8796    0.6725 N   0  0  0  0  0  0  0  0  0  0  0  0
    1.9420   -0.0355    1.2169 H   0  0  0  0  0  0  0  0  0  0  0  0
    3.0569   -1.7054    0.5022 C   0  0  0  0  0  0  0  0  0  0  0  0
    3.2772   -1.8176   -0.5623 H   0  0  0  0  0  0  0  0  0  0  0  0
    3.9121   -1.2448    0.9990 H   0  0  0  0  0  0  0  0  0  0  0  0
    2.8832   -2.6965    0.9246 H   0  0  0  0  0  0  0  0  0  0  0  0
  5  6  2  0  0  0  0
  5  7  1  0  0  0  0
  2  3  1  0  0  0  0
  2  4  1  0  0  0  0
  2  5  1  0  0  0  0
  1  2  1  0  0  0  0
 22 23  2  0  0  0  0
 22 24  1  0  0  0  0
 19 20  1  0  0  0  0
 19 21  1  0  0  0  0
 17 18  2  0  0  0  0
 17 19  1  0  0  0  0
 14 15  1  0  0  0  0
 14 16  1  0  0  0  0
 14 17  1  0  0  0  0
 11 12  1  0  0  0  0
 11 13  1  0  0  0  0
 11 14  1  0  0  0  0
  9 10  1  0  0  0  0
  9 11  1  0  0  0  0
  9 22  1  0  0  0  0
  7  8  1  0  0  0  0
  7  9  1  0  0  0  0
 26 27  1  0  0  0  0
 26 28  1  0  0  0  0
 26 29  1  0  0  0  0
 24 25  1  0  0  0  0
 24 26  1  0  0  0  0
M  END
$$$$
default_name
  -OEChem-01062215323D

 29 28  0     1  0  0  0  0  0999 V2000
   -3.3998   -3.6239    1.3678 H   0  0  0  0  0  0  0  0  0  0  0  0
   -3.3608   -2.6749    0.8348 C   0  0  0  0  0  0  0  0  0  0  0  0
   -4.0988   -1.9909    1.2498 H   0  0  0  0  0  0  0  0  0  0  0  0
   -3.5618   -2.8419   -0.2222 H   0  0  0  0  0  0  0  0  0  0  0  0
   -1.9818   -2.0809    0.9918 C   0  0  0  0  0  0  0  0  0  0  0  0
   -1.1288   -2.6669    1.6468 O   0  0  0  0  0  0  0  0  0  0  0  0
   -1.7648   -0.9089    0.3998 N   0  0  0  0  0  0  0  0  0  0  0  0
   -2.5238   -0.4719   -0.1032 H   0  0  0  0  0  0  0  0  0  0  0  0
   -0.4848   -0.1959    0.4138 C   0  0  1  0  0  0  0  0  0  0  0  0
   -0.4993    0.5616   -0.3715 H   0  0  0  0  0  0  0  0  0  0  0  0
   -0.3292    0.5185    1.7705 C   0  0  0  0  0  0  0  0  0  0  0  0
   -0.4669   -0.2185    2.5644 H   0  0  0  0  0  0  0  0  0  0  0  0
    0.6827    0.9189    1.8485 H   0  0  0  0  0  0  0  0  0  0  0  0
   -1.3349    1.6620    1.9907 C   0  0  0  0  0  0  0  0  0  0  0  0
   -1.2044    2.4194    1.2181 H   0  0  0  0  0  0  0  0  0  0  0  0
   -2.3464    1.2622    1.9190 H   0  0  0  0  0  0  0  0  0  0  0  0
   -1.1825    2.3434    3.3504 C   0  0  0  0  0  0  0  0  0  0  0  0
   -0.3978    1.9697    4.2020 O   0  0  0  0  0  0  0  0  0  0  0  0
   -1.9316    3.3924    3.6123 N   0  0  0  0  0  0  0  0  0  0  0  0
   -1.7896    3.8012    4.5197 H   0  0  0  0  0  0  0  0  0  0  0  0
   -2.5907    3.7428    2.9471 H   0  0  0  0  0  0  0  0  0  0  0  0
    0.6741   -1.1621    0.1230 C   0  0  0  0  0  0  0  0  0  0  0  0
    0.5797   -1.9870   -0.7840 O   0  0  0  0  0  0  0  0  0  0  0  0
    1.7619   -1.0678    0.8983 N   0  0  0  0  0  0  0  0  0  0  0  0
    1.7770   -0.3505    1.6056 H   0  0  0  0  0  0  0  0  0  0  0  0
    2.9405   -1.9219    0.7576 C   0  0  0  0  0  0  0  0  0  0  0  0
    3.3323   -1.8427   -0.2594 H   0  0  0  0  0  0  0  0  0  0  0  0
    3.7150   -1.6215    1.4649 H   0  0  0  0  0  0  0  0  0  0  0  0
    2.6660   -2.9621    0.9413 H   0  0  0  0  0  0  0  0  0  0  0  0
  5  6  2  0  0  0  0
  5  7  1  0  0  0  0
  2  3  1  0  0  0  0
  2  4  1  0  0  0  0
  2  5  1  0  0  0  0
  1  2  1  0  0  0  0
 22 23  2  0  0  0  0
 22 24  1  0  0  0  0
 19 20  1  0  0  0  0
 19 21  1  0  0  0  0
 17 18  2  0  0  0  0
 17 19  1  0  0  0  0
 14 15  1  0  0  0  0
 14 16  1  0  0  0  0
 14 17  1  0  0  0  0
 11 12  1  0  0  0  0
 11 13  1  0  0  0  0
 11 14  1  0  0  0  0
  9 10  1  0  0  0  0
  9 11  1  0  0  0  0
  9 22  1  0  0  0  0
  7  8  1  0  0  0  0
  7  9  1  0  0  0  0
 26 27  1  0  0  0  0
 26 28  1  0  0  0  0
 26 29  1  0  0  0  0
 24 25  1  0  0  0  0
 24 26  1  0  0  0  0
M  END
$$$$
default_name
  -OEChem-01062215323D

 29 28  0     1  0  0  0  0  0999 V2000
   -3.3998   -3.6239    1.3678 H   0  0  0  0  0  0  0  0  0  0  0  0
   -3.3608   -2.6749    0.8348 C   0  0  0  0  0  0  0  0  0  0  0  0
   -4.0988   -1.9909    1.2498 H   0  0  0  0  0  0  0  0  0  0  0  0
   -3.5618   -2.8419   -0.2222 H   0  0  0  0  0  0  0  0  0  0  0  0
   -1.9818   -2.0809    0.9918 C   0  0  0  0  0  0  0  0  0  0  0  0
   -1.1288   -2.6669    1.6468 O   0  0  0  0  0  0  0  0  0  0  0  0
   -1.7648   -0.9089    0.3998 N   0  0  0  0  0  0  0  0  0  0  0  0
   -2.5238   -0.4719   -0.1032 H   0  0  0  0  0  0  0  0  0  0  0  0
   -0.4848   -0.1959    0.4138 C   0  0  1  0  0  0  0  0  0  0  0  0
   -0.4993    0.5616   -0.3715 H   0  0  0  0  0  0  0  0  0  0  0  0
   -0.3292    0.5185    1.7705 C   0  0  0  0  0  0  0  0  0  0  0  0
   -0.4669   -0.2185    2.5644 H   0  0  0  0  0  0  0  0  0  0  0  0
    0.6827    0.9189    1.8485 H   0  0  0  0  0  0  0  0  0  0  0  0
   -1.3349    1.6620    1.9907 C   0  0  0  0  0  0  0  0  0  0  0  0
   -1.2044    2.4194    1.2181 H   0  0  0  0  0  0  0  0  0  0  0  0
   -2.3464    1.2622    1.9190 H   0  0  0  0  0  0  0  0  0  0  0  0
   -1.1825    2.3434    3.3504 C   0  0  0  0  0  0  0  0  0  0  0  0
   -0.3978    1.9697    4.2020 O   0  0  0  0  0  0  0  0  0  0  0  0
   -1.9316    3.3924    3.6123 N   0  0  0  0  0  0  0  0  0  0  0  0
   -1.7896    3.8012    4.5197 H   0  0  0  0  0  0  0  0  0  0  0  0
   -2.5907    3.7428    2.9471 H   0  0  0  0  0  0  0  0  0  0  0  0
    0.6741   -1.1621    0.1230 C   0  0  0  0  0  0  0  0  0  0  0  0
    0.7061   -1.7905   -0.9335 O   0  0  0  0  0  0  0  0  0  0  0  0
    1.6191   -1.2888    1.0634 N   0  0  0  0  0  0  0  0  0  0  0  0
    1.5390   -0.7225    1.8928 H   0  0  0  0  0  0  0  0  0  0  0  0
    2.7759   -2.1752    0.9432 C   0  0  0  0  0  0  0  0  0  0  0  0
    3.3350   -1.9287    0.0372 H   0  0  0  0  0  0  0  0  0  0  0  0
    3.4303   -2.0667    1.8094 H   0  0  0  0  0  0  0  0  0  0  0  0
    2.4405   -3.2112    0.8702 H   0  0  0  0  0  0  0  0  0  0  0  0
  5  6  2  0  0  0  0
  5  7  1  0  0  0  0
  2  3  1  0  0  0  0
  2  4  1  0  0  0  0
  2  5  1  0  0  0  0
  1  2  1  0  0  0  0
 22 23  2  0  0  0  0
 22 24  1  0  0  0  0
 19 20  1  0  0  0  0
 19 21  1  0  0  0  0
 17 18  2  0  0  0  0
 17 19  1  0  0  0  0
 14 15  1  0  0  0  0
 14 16  1  0  0  0  0
 14 17  1  0  0  0  0
 11 12  1  0  0  0  0
 11 13  1  0  0  0  0
 11 14  1  0  0  0  0
  9 10  1  0  0  0  0
  9 11  1  0  0  0  0
  9 22  1  0  0  0  0
  7  8  1  0  0  0  0
  7  9  1  0  0  0  0
 26 27  1  0  0  0  0
 26 28  1  0  0  0  0
 26 29  1  0  0  0  0
 24 25  1  0  0  0  0
 24 26  1  0  0  0  0
M  END
$$$$
default_name
  -OEChem-01062215323D

 29 28  0     1  0  0  0  0  0999 V2000
   -3.3998   -3.6239    1.3678 H   0  0  0  0  0  0  0  0  0  0  0  0
   -3.3608   -2.6749    0.8348 C   0  0  0  0  0  0  0  0  0  0  0  0
   -4.0988   -1.9909    1.2498 H   0  0  0  0  0  0  0  0  0  0  0  0
   -3.5618   -2.8419   -0.2222 H   0  0  0  0  0  0  0  0  0  0  0  0
   -1.9818   -2.0809    0.9918 C   0  0  0  0  0  0  0  0  0  0  0  0
   -1.1288   -2.6669    1.6468 O   0  0  0  0  0  0  0  0  0  0  0  0
   -1.7648   -0.9089    0.3998 N   0  0  0  0  0  0  0  0  0  0  0  0
   -2.5238   -0.4719   -0.1032 H   0  0  0  0  0  0  0  0  0  0  0  0
   -0.4848   -0.1959    0.4138 C   0  0  1  0  0  0  0  0  0  0  0  0
   -0.4993    0.5616   -0.3715 H   0  0  0  0  0  0  0  0  0  0  0  0
   -0.3292    0.5185    1.7705 C   0  0  0  0  0  0  0  0  0  0  0  0
   -0.4669   -0.2185    2.5644 H   0  0  0  0  0  0  0  0  0  0  0  0
    0.6827    0.9189    1.8485 H   0  0  0  0  0  0  0  0  0  0  0  0
   -1.3349    1.6620    1.9907 C   0  0  0  0  0  0  0  0  0  0  0  0
   -1.2044    2.4194    1.2181 H   0  0  0  0  0  0  0  0  0  0  0  0
   -2.3464    1.2622    1.9190 H   0  0  0  0  0  0  0  0  0  0  0  0
   -1.1825    2.3434    3.3504 C   0  0  0  0  0  0  0  0  0  0  0  0
   -0.3978    1.9697    4.2020 O   0  0  0  0  0  0  0  0  0  0  0  0
   -1.9316    3.3924    3.6123 N   0  0  0  0  0  0  0  0  0  0  0  0
   -1.7896    3.8012    4.5197 H   0  0  0  0  0  0  0  0  0  0  0  0
   -2.5907    3.7428    2.9471 H   0  0  0  0  0  0  0  0  0  0  0  0
    0.6741   -1.1621    0.1230 C   0  0  0  0  0  0  0  0  0  0  0  0
    0.8620   -1.5777   -1.0190 O   0  0  0  0  0  0  0  0  0  0  0  0
    1.4434   -1.5276    1.1564 N   0  0  0  0  0  0  0  0  0  0  0  0
    1.2441   -1.1261    2.0588 H   0  0  0  0  0  0  0  0  0  0  0  0
    2.5742   -2.4481    1.0462 C   0  0  0  0  0  0  0  0  0  0  0  0
    3.2851   -2.0699    0.3074 H   0  0  0  0  0  0  0  0  0  0  0  0
    3.0775   -2.5499    2.0089 H   0  0  0  0  0  0  0  0  0  0  0  0
    2.2220   -3.4269    0.7162 H   0  0  0  0  0  0  0  0  0  0  0  0
  5  6  2  0  0  0  0
  5  7  1  0  0  0  0
  2  3  1  0  0  0  0
  2  4  1  0  0  0  0
  2  5  1  0  0  0  0
  1  2  1  0  0  0  0
 22 23  2  0  0  0  0
 22 24  1  0  0  0  0
 19 20  1  0  0  0  0
 19 21  1  0  0  0  0
 17 18  2  0  0  0  0
 17 19  1  0  0  0  0
 14 15  1  0  0  0  0
 14 16  1  0  0  0  0
 14 17  1  0  0  0  0
 11 12  1  0  0  0  0
 11 13  1  0  0  0  0
 11 14  1  0  0  0  0
  9 10  1  0  0  0  0
  9 11  1  0  0  0  0
  9 22  1  0  0  0  0
  7  8  1  0  0  0  0
  7  9  1  0  0  0  0
 26 27  1  0  0  0  0
 26 28  1  0  0  0  0
 26 29  1  0  0  0  0
 24 25  1  0  0  0  0
 24 26  1  0  0  0  0
M  END
$$$$
default_name
  -OEChem-01062215323D

 29 28  0     1  0  0  0  0  0999 V2000
   -3.3998   -3.6239    1.3678 H   0  0  0  0  0  0  0  0  0  0  0  0
   -3.3608   -2.6749    0.8348 C   0  0  0  0  0  0  0  0  0  0  0  0
   -4.0988   -1.9909    1.2498 H   0  0  0  0  0  0  0  0  0  0  0  0
   -3.5618   -2.8419   -0.2222 H   0  0  0  0  0  0  0  0  0  0  0  0
   -1.9818   -2.0809    0.9918 C   0  0  0  0  0  0  0  0  0  0  0  0
   -1.1288   -2.6669    1.6468 O   0  0  0  0  0  0  0  0  0  0  0  0
   -1.7648   -0.9089    0.3998 N   0  0  0  0  0  0  0  0  0  0  0  0
   -2.5238   -0.4719   -0.1032 H   0  0  0  0  0  0  0  0  0  0  0  0
   -0.4848   -0.1959    0.4138 C   0  0  1  0  0  0  0  0  0  0  0  0
   -0.4993    0.5616   -0.3715 H   0  0  0  0  0  0  0  0  0  0  0  0
   -0.3292    0.5185    1.7705 C   0  0  0  0  0  0  0  0  0  0  0  0
   -0.4669   -0.2185    2.5644 H   0  0  0  0  0  0  0  0  0  0  0  0
    0.6827    0.9189    1.8485 H   0  0  0  0  0  0  0  0  0  0  0  0
   -1.3349    1.6620    1.9907 C   0  0  0  0  0  0  0  0  0  0  0  0
   -1.2044    2.4194    1.2181 H   0  0  0  0  0  0  0  0  0  0  0  0
   -2.3464    1.2622    1.9190 H   0  0  0  0  0  0  0  0  0  0  0  0
   -1.1825    2.3434    3.3504 C   0  0  0  0  0  0  0  0  0  0  0  0
   -0.3978    1.9697    4.2020 O   0  0  0  0  0  0  0  0  0  0  0  0
   -1.9316    3.3924    3.6123 N   0  0  0  0  0  0  0  0  0  0  0  0
   -1.7896    3.8012    4.5197 H   0  0  0  0  0  0  0  0  0  0  0  0
   -2.5907    3.7428    2.9471 H   0  0  0  0  0  0  0  0  0  0  0  0
    0.6741   -1.1621    0.1230 C   0  0  0  0  0  0  0  0  0  0  0  0
    1.0370   -1.3631   -1.0346 O   0  0  0  0  0  0  0  0  0  0  0  0
    1.2469   -1.7677    1.1711 N   0  0  0  0  0  0  0  0  0  0  0  0
    0.9124   -1.5340    2.0923 H   0  0  0  0  0  0  0  0  0  0  0  0
    2.3494   -2.7219    1.0596 C   0  0  0  0  0  0  0  0  0  0  0  0
    3.1860   -2.2566    0.5326 H   0  0  0  0  0  0  0  0  0  0  0  0
    2.6805   -3.0384    2.0498 H   0  0  0  0  0  0  0  0  0  0  0  0
    2.0255   -3.5945    0.4898 H   0  0  0  0  0  0  0  0  0  0  0  0
  5  6  2  0  0  0  0
  5  7  1  0  0  0  0
  2  3  1  0  0  0  0
  2  4  1  0  0  0  0
  2  5  1  0  0  0  0
  1  2  1  0  0  0  0
 22 23  2  0  0  0  0
 22 24  1  0  0  0  0
 19 20  1  0  0  0  0
 19 21  1  0  0  0  0
 17 18  2  0  0  0  0
 17 19  1  0  0  0  0
 14 15  1  0  0  0  0
 14 16  1  0  0  0  0
 14 17  1  0  0  0  0
 11 12  1  0  0  0  0
 11 13  1  0  0  0  0
 11 14  1  0  0  0  0
  9 10  1  0  0  0  0
  9 11  1  0  0  0  0
  9 22  1  0  0  0  0
  7  8  1  0  0  0  0
  7  9  1  0  0  0  0
 26 27  1  0  0  0  0
 26 28  1  0  0  0  0
 26 29  1  0  0  0  0
 24 25  1  0  0  0  0
 24 26  1  0  0  0  0
M  END
$$$$
default_name
  -OEChem-01062215323D

 29 28  0     1  0  0  0  0  0999 V2000
   -3.3998   -3.6239    1.3678 H   0  0  0  0  0  0  0  0  0  0  0  0
   -3.3608   -2.6749    0.8348 C   0  0  0  0  0  0  0  0  0  0  0  0
   -4.0988   -1.9909    1.2498 H   0  0  0  0  0  0  0  0  0  0  0  0
   -3.5618   -2.8419   -0.2222 H   0  0  0  0  0  0  0  0  0  0  0  0
   -1.9818   -2.0809    0.9918 C   0  0  0  0  0  0  0  0  0  0  0  0
   -1.1288   -2.6669    1.6468 O   0  0  0  0  0  0  0  0  0  0  0  0
   -1.7648   -0.9089    0.3998 N   0  0  0  0  0  0  0  0  0  0  0  0
   -2.5238   -0.4719   -0.1032 H   0  0  0  0  0  0  0  0  0  0  0  0
   -0.4848   -0.1959    0.4138 C   0  0  1  0  0  0  0  0  0  0  0  0
   -0.4993    0.5616   -0.3715 H   0  0  0  0  0  0  0  0  0  0  0  0
   -0.3292    0.5185    1.7705 C   0  0  0  0  0  0  0  0  0  0  0  0
   -0.4669   -0.2185    2.5644 H   0  0  0  0  0  0  0  0  0  0  0  0
    0.6827    0.9189    1.8485 H   0  0  0  0  0  0  0  0  0  0  0  0
   -1.3349    1.6620    1.9907 C   0  0  0  0  0  0  0  0  0  0  0  0
   -1.2044    2.4194    1.2181 H   0  0  0  0  0  0  0  0  0  0  0  0
   -2.3464    1.2622    1.9190 H   0  0  0  0  0  0  0  0  0  0  0  0
   -1.1825    2.3434    3.3504 C   0  0  0  0  0  0  0  0  0  0  0  0
   -0.3978    1.9697    4.2020 O   0  0  0  0  0  0  0  0  0  0  0  0
   -1.9316    3.3924    3.6123 N   0  0  0  0  0  0  0  0  0  0  0  0
   -1.7896    3.8012    4.5197 H   0  0  0  0  0  0  0  0  0  0  0  0
   -2.5907    3.7428    2.9471 H   0  0  0  0  0  0  0  0  0  0  0  0
    0.6741   -1.1621    0.1230 C   0  0  0  0  0  0  0  0  0  0  0  0
    1.2191   -1.1613   -0.9793 O   0  0  0  0  0  0  0  0  0  0  0  0
    1.0429   -1.9929    1.1064 N   0  0  0  0  0  0  0  0  0  0  0  0
    0.5666   -1.9183    1.9911 H   0  0  0  0  0  0  0  0  0  0  0  0
    2.1166   -2.9779    0.9825 C   0  0  0  0  0  0  0  0  0  0  0  0
    3.0445   -2.4760    0.6977 H   0  0  0  0  0  0  0  0  0  0  0  0
    2.2665   -3.4988    1.9294 H   0  0  0  0  0  0  0  0  0  0  0  0
    1.8643   -3.7025    0.2065 H   0  0  0  0  0  0  0  0  0  0  0  0
  5  6  2  0  0  0  0
  5  7  1  0  0  0  0
  2  3  1  0  0  0  0
  2  4  1  0  0  0  0
  2  5  1  0  0  0  0
  1  2  1  0  0  0  0
 22 23  2  0  0  0  0
 22 24  1  0  0  0  0
 19 20  1  0  0  0  0
 19 21  1  0  0  0  0
 17 18  2  0  0  0  0
 17 19  1  0  0  0  0
 14 15  1  0  0  0  0
 14 16  1  0  0  0  0
 14 17  1  0  0  0  0
 11 12  1  0  0  0  0
 11 13  1  0  0  0  0
 11 14  1  0  0  0  0
  9 10  1  0  0  0  0
  9 11  1  0  0  0  0
  9 22  1  0  0  0  0
  7  8  1  0  0  0  0
  7  9  1  0  0  0  0
 26 27  1  0  0  0  0
 26 28  1  0  0  0  0
 26 29  1  0  0  0  0
 24 25  1  0  0  0  0
 24 26  1  0  0  0  0
M  END
$$$$
default_name
  -OEChem-01062215323D

 29 28  0     1  0  0  0  0  0999 V2000
   -3.3998   -3.6239    1.3678 H   0  0  0  0  0  0  0  0  0  0  0  0
   -3.3608   -2.6749    0.8348 C   0  0  0  0  0  0  0  0  0  0  0  0
   -4.0988   -1.9909    1.2498 H   0  0  0  0  0  0  0  0  0  0  0  0
   -3.5618   -2.8419   -0.2222 H   0  0  0  0  0  0  0  0  0  0  0  0
   -1.9818   -2.0809    0.9918 C   0  0  0  0  0  0  0  0  0  0  0  0
   -1.1288   -2.6669    1.6468 O   0  0  0  0  0  0  0  0  0  0  0  0
   -1.7648   -0.9089    0.3998 N   0  0  0  0  0  0  0  0  0  0  0  0
   -2.5238   -0.4719   -0.1032 H   0  0  0  0  0  0  0  0  0  0  0  0
   -0.4848   -0.1959    0.4138 C   0  0  1  0  0  0  0  0  0  0  0  0
   -0.4993    0.5616   -0.3715 H   0  0  0  0  0  0  0  0  0  0  0  0
   -0.3292    0.5185    1.7705 C   0  0  0  0  0  0  0  0  0  0  0  0
   -0.4669   -0.2185    2.5644 H   0  0  0  0  0  0  0  0  0  0  0  0
    0.6827    0.9189    1.8485 H   0  0  0  0  0  0  0  0  0  0  0  0
   -1.3349    1.6620    1.9907 C   0  0  0  0  0  0  0  0  0  0  0  0
   -1.2044    2.4194    1.2181 H   0  0  0  0  0  0  0  0  0  0  0  0
   -2.3464    1.2622    1.9190 H   0  0  0  0  0  0  0  0  0  0  0  0
   -1.1825    2.3434    3.3504 C   0  0  0  0  0  0  0  0  0  0  0  0
   -0.3978    1.9697    4.2020 O   0  0  0  0  0  0  0  0  0  0  0  0
   -1.9316    3.3924    3.6123 N   0  0  0  0  0  0  0  0  0  0  0  0
   -1.7896    3.8012    4.5197 H   0  0  0  0  0  0  0  0  0  0  0  0
   -2.5907    3.7428    2.9471 H   0  0  0  0  0  0  0  0  0  0  0  0
    0.6741   -1.1621    0.1230 C   0  0  0  0  0  0  0  0  0  0  0  0
    1.3959   -0.9861   -0.8569 O   0  0  0  0  0  0  0  0  0  0  0  0
    0.8454   -2.1878    0.9668 N   0  0  0  0  0  0  0  0  0  0  0  0
    0.2303   -2.2528    1.7621 H   0  0  0  0  0  0  0  0  0  0  0  0
    1.8917   -3.1988    0.8202 C   0  0  0  0  0  0  0  0  0  0  0  0
    2.8702   -2.7132    0.7912 H   0  0  0  0  0  0  0  0  0  0  0  0
    1.8636   -3.8997    1.6559 H   0  0  0  0  0  0  0  0  0  0  0  0
    1.7494   -3.7437   -0.1146 H   0  0  0  0  0  0  0  0  0  0  0  0
  5  6  2  0  0  0  0
  5  7  1  0  0  0  0
  2  3  1  0  0  0  0
  2  4  1  0  0  0  0
  2  5  1  0  0  0  0
  1  2  1  0  0  0  0
 22 23  2  0  0  0  0
 22 24  1  0  0  0  0
 19 20  1  0  0  0  0
 19 21  1  0  0  0  0
 17 18  2  0  0  0  0
 17 19  1  0  0  0  0
 14 15  1  0  0  0  0
 14 16  1  0  0  0  0
 14 17  1  0  0  0  0
 11 12  1  0  0  0  0
 11 13  1  0  0  0  0
 11 14  1  0  0  0  0
  9 10  1  0  0  0  0
  9 11  1  0  0  0  0
  9 22  1  0  0  0  0
  7  8  1  0  0  0  0
  7  9  1  0  0  0  0
 26 27  1  0  0  0  0
 26 28  1  0  0  0  0
 26 29  1  0  0  0  0
 24 25  1  0  0  0  0
 24 26  1  0  0  0  0
M  END
$$$$
default_name
  -OEChem-01062215323D

 29 28  0     1  0  0  0  0  0999 V2000
   -3.3998   -3.6239    1.3678 H   0  0  0  0  0  0  0  0  0  0  0  0
   -3.3608   -2.6749    0.8348 C   0  0  0  0  0  0  0  0  0  0  0  0
   -4.0988   -1.9909    1.2498 H   0  0  0  0  0  0  0  0  0  0  0  0
   -3.5618   -2.8419   -0.2222 H   0  0  0  0  0  0  0  0  0  0  0  0
   -1.9818   -2.0809    0.9918 C   0  0  0  0  0  0  0  0  0  0  0  0
   -1.1288   -2.6669    1.6468 O   0  0  0  0  0  0  0  0  0  0  0  0
   -1.7648   -0.9089    0.3998 N   0  0  0  0  0  0  0  0  0  0  0  0
   -2.5238   -0.4719   -0.1032 H   0  0  0  0  0  0  0  0  0  0  0  0
   -0.4848   -0.1959    0.4138 C   0  0  1  0  0  0  0  0  0  0  0  0
   -0.4993    0.5616   -0.3715 H   0  0  0  0  0  0  0  0  0  0  0  0
   -0.3292    0.5185    1.7705 C   0  0  0  0  0  0  0  0  0  0  0  0
   -0.4669   -0.2185    2.5644 H   0  0  0  0  0  0  0  0  0  0  0  0
    0.6827    0.9189    1.8485 H   0  0  0  0  0  0  0  0  0  0  0  0
   -1.3349    1.6620    1.9907 C   0  0  0  0  0  0  0  0  0  0  0  0
   -1.2044    2.4194    1.2181 H   0  0  0  0  0  0  0  0  0  0  0  0
   -2.3464    1.2622    1.9190 H   0  0  0  0  0  0  0  0  0  0  0  0
   -1.1825    2.3434    3.3504 C   0  0  0  0  0  0  0  0  0  0  0  0
   -0.3978    1.9697    4.2020 O   0  0  0  0  0  0  0  0  0  0  0  0
   -1.9316    3.3924    3.6123 N   0  0  0  0  0  0  0  0  0  0  0  0
   -1.7896    3.8012    4.5197 H   0  0  0  0  0  0  0  0  0  0  0  0
   -2.5907    3.7428    2.9471 H   0  0  0  0  0  0  0  0  0  0  0  0
    0.6741   -1.1621    0.1230 C   0  0  0  0  0  0  0  0  0  0  0  0
    1.5553   -0.8495   -0.6757 O   0  0  0  0  0  0  0  0  0  0  0  0
    0.6678   -2.3391    0.7617 N   0  0  0  0  0  0  0  0  0  0  0  0
   -0.0737   -2.5148    1.4208 H   0  0  0  0  0  0  0  0  0  0  0  0
    1.6901   -3.3694    0.5837 C   0  0  0  0  0  0  0  0  0  0  0  0
    2.6750   -2.9520    0.8069 H   0  0  0  0  0  0  0  0  0  0  0  0
    1.4993   -4.2138    1.2478 H   0  0  0  0  0  0  0  0  0  0  0  0
    1.6886   -3.7151   -0.4514 H   0  0  0  0  0  0  0  0  0  0  0  0
  5  6  2  0  0  0  0
  5  7  1  0  0  0  0
  2  3  1  0  0  0  0
  2  4  1  0  0  0  0
  2  5  1  0  0  0  0
  1  2  1  0  0  0  0
 22 23  2  0  0  0  0
 22 24  1  0  0  0  0
 19 20  1  0  0  0  0
 19 21  1  0  0  0  0
 17 18  2  0  0  0  0
 17 19  1  0  0  0  0
 14 15  1  0  0  0  0
 14 16  1  0  0  0  0
 14 17  1  0  0  0  0
 11 12  1  0  0  0  0
 11 13  1  0  0  0  0
 11 14  1  0  0  0  0
  9 10  1  0  0  0  0
  9 11  1  0  0  0  0
  9 22  1  0  0  0  0
  7  8  1  0  0  0  0
  7  9  1  0  0  0  0
 26 27  1  0  0  0  0
 26 28  1  0  0  0  0
 26 29  1  0  0  0  0
 24 25  1  0  0  0  0
 24 26  1  0  0  0  0
M  END
$$$$
default_name
  -OEChem-01062215323D

 29 28  0     1  0  0  0  0  0999 V2000
   -3.3998   -3.6239    1.3678 H   0  0  0  0  0  0  0  0  0  0  0  0
   -3.3608   -2.6749    0.8348 C   0  0  0  0  0  0  0  0  0  0  0  0
   -4.0988   -1.9909    1.2498 H   0  0  0  0  0  0  0  0  0  0  0  0
   -3.5618   -2.8419   -0.2222 H   0  0  0  0  0  0  0  0  0  0  0  0
   -1.9818   -2.0809    0.9918 C   0  0  0  0  0  0  0  0  0  0  0  0
   -1.1288   -2.6669    1.6468 O   0  0  0  0  0  0  0  0  0  0  0  0
   -1.7648   -0.9089    0.3998 N   0  0  0  0  0  0  0  0  0  0  0  0
   -2.5238   -0.4719   -0.1032 H   0  0  0  0  0  0  0  0  0  0  0  0
   -0.4848   -0.1959    0.4138 C   0  0  1  0  0  0  0  0  0  0  0  0
   -0.4993    0.5616   -0.3715 H   0  0  0  0  0  0  0  0  0  0  0  0
   -0.3292    0.5185    1.7705 C   0  0  0  0  0  0  0  0  0  0  0  0
   -0.4669   -0.2185    2.5644 H   0  0  0  0  0  0  0  0  0  0  0  0
    0.6827    0.9189    1.8485 H   0  0  0  0  0  0  0  0  0  0  0  0
   -1.3349    1.6620    1.9907 C   0  0  0  0  0  0  0  0  0  0  0  0
   -1.2044    2.4194    1.2181 H   0  0  0  0  0  0  0  0  0  0  0  0
   -2.3464    1.2622    1.9190 H   0  0  0  0  0  0  0  0  0  0  0  0
   -1.1825    2.3434    3.3504 C   0  0  0  0  0  0  0  0  0  0  0  0
   -0.3978    1.9697    4.2020 O   0  0  0  0  0  0  0  0  0  0  0  0
   -1.9316    3.3924    3.6123 N   0  0  0  0  0  0  0  0  0  0  0  0
   -1.7896    3.8012    4.5197 H   0  0  0  0  0  0  0  0  0  0  0  0
   -2.5907    3.7428    2.9471 H   0  0  0  0  0  0  0  0  0  0  0  0
    0.6741   -1.1621    0.1230 C   0  0  0  0  0  0  0  0  0  0  0  0
    1.6864   -0.7607   -0.4481 O   0  0  0  0  0  0  0  0  0  0  0  0
    0.5222   -2.4365    0.5052 N   0  0  0  0  0  0  0  0  0  0  0  0
   -0.3247   -2.6863    0.9906 H   0  0  0  0  0  0  0  0  0  0  0  0
    1.5255   -3.4782    0.2891 C   0  0  0  0  0  0  0  0  0  0  0  0
    2.4722   -3.1763    0.7437 H   0  0  0  0  0  0  0  0  0  0  0  0
    1.1985   -4.4197    0.7331 H   0  0  0  0  0  0  0  0  0  0  0  0
    1.6862   -3.6188   -0.7811 H   0  0  0  0  0  0  0  0  0  0  0  0
  5  6  2  0  0  0  0
  5  7  1  0  0  0  0
  2  3  1  0  0  0  0
  2  4  1  0  0  0  0
  2  5  1  0  0  0  0
  1  2  1  0  0  0  0
 22 23  2  0  0  0  0
 22 24  1  0  0  0  0
 19 20  1  0  0  0  0
 19 21  1  0  0  0  0
 17 18  2  0  0  0  0
 17 19  1  0  0  0  0
 14 15  1  0  0  0  0
 14 16  1  0  0  0  0
 14 17  1  0  0  0  0
 11 12  1  0  0  0  0
 11 13  1  0  0  0  0
 11 14  1  0  0  0  0
  9 10  1  0  0  0  0
  9 11  1  0  0  0  0
  9 22  1  0  0  0  0
  7  8  1  0  0  0  0
  7  9  1  0  0  0  0
 26 27  1  0  0  0  0
 26 28  1  0  0  0  0
 26 29  1  0  0  0  0
 24 25  1  0  0  0  0
 24 26  1  0  0  0  0
M  END
$$$$
default_name
  -OEChem-01062215323D

 29 28  0     1  0  0  0  0  0999 V2000
   -3.3998   -3.6239    1.3678 H   0  0  0  0  0  0  0  0  0  0  0  0
   -3.3608   -2.6749    0.8348 C   0  0  0  0  0  0  0  0  0  0  0  0
   -4.0988   -1.9909    1.2498 H   0  0  0  0  0  0  0  0  0  0  0  0
   -3.5618   -2.8419   -0.2222 H   0  0  0  0  0  0  0  0  0  0  0  0
   -1.9818   -2.0809    0.9918 C   0  0  0  0  0  0  0  0  0  0  0  0
   -1.1288   -2.6669    1.6468 O   0  0  0  0  0  0  0  0  0  0  0  0
   -1.7648   -0.9089    0.3998 N   0  0  0  0  0  0  0  0  0  0  0  0
   -2.5238   -0.4719   -0.1032 H   0  0  0  0  0  0  0  0  0  0  0  0
   -0.4848   -0.1959    0.4138 C   0  0  1  0  0  0  0  0  0  0  0  0
   -0.4993    0.5616   -0.3715 H   0  0  0  0  0  0  0  0  0  0  0  0
   -0.3292    0.5185    1.7705 C   0  0  0  0  0  0  0  0  0  0  0  0
   -0.4669   -0.2185    2.5644 H   0  0  0  0  0  0  0  0  0  0  0  0
    0.6827    0.9189    1.8485 H   0  0  0  0  0  0  0  0  0  0  0  0
   -1.3349    1.6620    1.9907 C   0  0  0  0  0  0  0  0  0  0  0  0
   -1.2044    2.4194    1.2181 H   0  0  0  0  0  0  0  0  0  0  0  0
   -2.3464    1.2622    1.9190 H   0  0  0  0  0  0  0  0  0  0  0  0
   -1.1825    2.3434    3.3504 C   0  0  0  0  0  0  0  0  0  0  0  0
   -0.3978    1.9697    4.2020 O   0  0  0  0  0  0  0  0  0  0  0  0
   -1.9316    3.3924    3.6123 N   0  0  0  0  0  0  0  0  0  0  0  0
   -1.7896    3.8012    4.5197 H   0  0  0  0  0  0  0  0  0  0  0  0
   -2.5907    3.7428    2.9471 H   0  0  0  0  0  0  0  0  0  0  0  0
    0.6741   -1.1621    0.1230 C   0  0  0  0  0  0  0  0  0  0  0  0
    1.7804   -0.7258   -0.1895 O   0  0  0  0  0  0  0  0  0  0  0  0
    0.4185   -2.4734    0.2147 N   0  0  0  0  0  0  0  0  0  0  0  0
   -0.5055   -2.7556    0.5007 H   0  0  0  0  0  0  0  0  0  0  0  0
    1.4090   -3.5177   -0.0434 C   0  0  0  0  0  0  0  0  0  0  0  0
    2.2757   -3.3706    0.6058 H   0  0  0  0  0  0  0  0  0  0  0  0
    0.9816   -4.5033    0.1467 H   0  0  0  0  0  0  0  0  0  0  0  0
    1.7422   -3.4613   -1.0811 H   0  0  0  0  0  0  0  0  0  0  0  0
  5  6  2  0  0  0  0
  5  7  1  0  0  0  0
  2  3  1  0  0  0  0
  2  4  1  0  0  0  0
  2  5  1  0  0  0  0
  1  2  1  0  0  0  0
 22 23  2  0  0  0  0
 22 24  1  0  0  0  0
 19 20  1  0  0  0  0
 19 21  1  0  0  0  0
 17 18  2  0  0  0  0
 17 19  1  0  0  0  0
 14 15  1  0  0  0  0
 14 16  1  0  0  0  0
 14 17  1  0  0  0  0
 11 12  1  0  0  0  0
 11 13  1  0  0  0  0
 11 14  1  0  0  0  0
  9 10  1  0  0  0  0
  9 11  1  0  0  0  0
  9 22  1  0  0  0  0
  7  8  1  0  0  0  0
  7  9  1  0  0  0  0
 26 27  1  0  0  0  0
 26 28  1  0  0  0  0
 26 29  1  0  0  0  0
 24 25  1  0  0  0  0
 24 26  1  0  0  0  0
M  END
$$$$
default_name
  -OEChem-01062215323D

 29 28  0     1  0  0  0  0  0999 V2000
   -3.3998   -3.6239    1.3678 H   0  0  0  0  0  0  0  0  0  0  0  0
   -3.3608   -2.6749    0.8348 C   0  0  0  0  0  0  0  0  0  0  0  0
   -4.0988   -1.9909    1.2498 H   0  0  0  0  0  0  0  0  0  0  0  0
   -3.5618   -2.8419   -0.2222 H   0  0  0  0  0  0  0  0  0  0  0  0
   -1.9818   -2.0809    0.9918 C   0  0  0  0  0  0  0  0  0  0  0  0
   -1.1288   -2.6669    1.6468 O   0  0  0  0  0  0  0  0  0  0  0  0
   -1.7648   -0.9089    0.3998 N   0  0  0  0  0  0  0  0  0  0  0  0
   -2.5238   -0.4719   -0.1032 H   0  0  0  0  0  0  0  0  0  0  0  0
   -0.4848   -0.1959    0.4138 C   0  0  1  0  0  0  0  0  0  0  0  0
   -0.4993    0.5616   -0.3715 H   0  0  0  0  0  0  0  0  0  0  0  0
   -0.3292    0.5185    1.7705 C   0  0  0  0  0  0  0  0  0  0  0  0
   -0.4669   -0.2185    2.5644 H   0  0  0  0  0  0  0  0  0  0  0  0
    0.6827    0.9189    1.8485 H   0  0  0  0  0  0  0  0  0  0  0  0
   -1.3349    1.6620    1.9907 C   0  0  0  0  0  0  0  0  0  0  0  0
   -1.2044    2.4194    1.2181 H   0  0  0  0  0  0  0  0  0  0  0  0
   -2.3464    1.2622    1.9190 H   0  0  0  0  0  0  0  0  0  0  0  0
   -1.1825    2.3434    3.3504 C   0  0  0  0  0  0  0  0  0  0  0  0
   -0.3978    1.9697    4.2020 O   0  0  0  0  0  0  0  0  0  0  0  0
   -1.9316    3.3924    3.6123 N   0  0  0  0  0  0  0  0  0  0  0  0
   -1.7896    3.8012    4.5197 H   0  0  0  0  0  0  0  0  0  0  0  0
   -2.5907    3.7428    2.9471 H   0  0  0  0  0  0  0  0  0  0  0  0
    0.6741   -1.1621    0.1230 C   0  0  0  0  0  0  0  0  0  0  0  0
    1.8309   -0.7471    0.0823 O   0  0  0  0  0  0  0  0  0  0  0  0
    0.3638   -2.4473   -0.0899 N   0  0  0  0  0  0  0  0  0  0  0  0
   -0.6038   -2.7182   -0.0155 H   0  0  0  0  0  0  0  0  0  0  0  0
    1.3488   -3.4852   -0.3913 C   0  0  0  0  0  0  0  0  0  0  0  0
    2.0987   -3.5217    0.4028 H   0  0  0  0  0  0  0  0  0  0  0  0
    0.8634   -4.4591   -0.4713 H   0  0  0  0  0  0  0  0  0  0  0  0
    1.8528   -3.2534   -1.3311 H   0  0  0  0  0  0  0  0  0  0  0  0
  5  6  2  0  0  0  0
  5  7  1  0  0  0  0
  2  3  1  0  0  0  0
  2  4  1  0  0  0  0
  2  5  1  0  0  0  0
  1  2  1  0  0  0  0
 22 23  2  0  0  0  0
 22 24  1  0  0  0  0
 19 20  1  0  0  0  0
 19 21  1  0  0  0  0
 17 18  2  0  0  0  0
 17 19  1  0  0  0  0
 14 15  1  0  0  0  0
 14 16  1  0  0  0  0
 14 17  1  0  0  0  0
 11 12  1  0  0  0  0
 11 13  1  0  0  0  0
 11 14  1  0  0  0  0
  9 10  1  0  0  0  0
  9 11  1  0  0  0  0
  9 22  1  0  0  0  0
  7  8  1  0  0  0  0
  7  9  1  0  0  0  0
 26 27  1  0  0  0  0
 26 28  1  0  0  0  0
 26 29  1  0  0  0  0
 24 25  1  0  0  0  0
 24 26  1  0  0  0  0
M  END
$$$$
default_name
  -OEChem-01062215323D

 29 28  0     1  0  0  0  0  0999 V2000
   -3.3998   -3.6239    1.3678 H   0  0  0  0  0  0  0  0  0  0  0  0
   -3.3608   -2.6749    0.8348 C   0  0  0  0  0  0  0  0  0  0  0  0
   -4.0988   -1.9909    1.2498 H   0  0  0  0  0  0  0  0  0  0  0  0
   -3.5618   -2.8419   -0.2222 H   0  0  0  0  0  0  0  0  0  0  0  0
   -1.9818   -2.0809    0.9918 C   0  0  0  0  0  0  0  0  0  0  0  0
   -1.1288   -2.6669    1.6468 O   0  0  0  0  0  0  0  0  0  0  0  0
   -1.7648   -0.9089    0.3998 N   0  0  0  0  0  0  0  0  0  0  0  0
   -2.5238   -0.4719   -0.1032 H   0  0  0  0  0  0  0  0  0  0  0  0
   -0.4848   -0.1959    0.4138 C   0  0  1  0  0  0  0  0  0  0  0  0
   -0.4993    0.5616   -0.3715 H   0  0  0  0  0  0  0  0  0  0  0  0
   -0.3292    0.5185    1.7705 C   0  0  0  0  0  0  0  0  0  0  0  0
   -0.4669   -0.2185    2.5644 H   0  0  0  0  0  0  0  0  0  0  0  0
    0.6827    0.9189    1.8485 H   0  0  0  0  0  0  0  0  0  0  0  0
   -1.3349    1.6620    1.9907 C   0  0  0  0  0  0  0  0  0  0  0  0
   -1.2044    2.4194    1.2181 H   0  0  0  0  0  0  0  0  0  0  0  0
   -2.3464    1.2622    1.9190 H   0  0  0  0  0  0  0  0  0  0  0  0
   -1.1825    2.3434    3.3504 C   0  0  0  0  0  0  0  0  0  0  0  0
   -0.3978    1.9697    4.2020 O   0  0  0  0  0  0  0  0  0  0  0  0
   -1.9316    3.3924    3.6123 N   0  0  0  0  0  0  0  0  0  0  0  0
   -1.7896    3.8012    4.5197 H   0  0  0  0  0  0  0  0  0  0  0  0
   -2.5907    3.7428    2.9471 H   0  0  0  0  0  0  0  0  0  0  0  0
    0.6741   -1.1621    0.1230 C   0  0  0  0  0  0  0  0  0  0  0  0
    1.8343   -0.8232    0.3490 O   0  0  0  0  0  0  0  0  0  0  0  0
    0.3618   -2.3599   -0.3880 N   0  0  0  0  0  0  0  0  0  0  0  0
   -0.6129   -2.5764   -0.5227 H   0  0  0  0  0  0  0  0  0  0  0  0
    1.3488   -3.3830   -0.7308 C   0  0  0  0  0  0  0  0  0  0  0  0
    1.9534   -3.6194    0.1483 H   0  0  0  0  0  0  0  0  0  0  0  0
    0.8519   -4.2899   -1.0788 H   0  0  0  0  0  0  0  0  0  0  0  0
    2.0105   -3.0092   -1.5139 H   0  0  0  0  0  0  0  0  0  0  0  0
  5  6  2  0  0  0  0
  5  7  1  0  0  0  0
  2  3  1  0  0  0  0
  2  4  1  0  0  0  0
  2  5  1  0  0  0  0
  1  2  1  0  0  0  0
 22 23  2  0  0  0  0
 22 24  1  0  0  0  0
 19 20  1  0  0  0  0
 19 21  1  0  0  0  0
 17 18  2  0  0  0  0
 17 19  1  0  0  0  0
 14 15  1  0  0  0  0
 14 16  1  0  0  0  0
 14 17  1  0  0  0  0
 11 12  1  0  0  0  0
 11 13  1  0  0  0  0
 11 14  1  0  0  0  0
  9 10  1  0  0  0  0
  9 11  1  0  0  0  0
  9 22  1  0  0  0  0
  7  8  1  0  0  0  0
  7  9  1  0  0  0  0
 26 27  1  0  0  0  0
 26 28  1  0  0  0  0
 26 29  1  0  0  0  0
 24 25  1  0  0  0  0
 24 26  1  0  0  0  0
M  END
$$$$
default_name
  -OEChem-01062215323D

 29 28  0     1  0  0  0  0  0999 V2000
   -3.3998   -3.6239    1.3678 H   0  0  0  0  0  0  0  0  0  0  0  0
   -3.3608   -2.6749    0.8348 C   0  0  0  0  0  0  0  0  0  0  0  0
   -4.0988   -1.9909    1.2498 H   0  0  0  0  0  0  0  0  0  0  0  0
   -3.5618   -2.8419   -0.2222 H   0  0  0  0  0  0  0  0  0  0  0  0
   -1.9818   -2.0809    0.9918 C   0  0  0  0  0  0  0  0  0  0  0  0
   -1.1288   -2.6669    1.6468 O   0  0  0  0  0  0  0  0  0  0  0  0
   -1.7648   -0.9089    0.3998 N   0  0  0  0  0  0  0  0  0  0  0  0
   -2.5238   -0.4719   -0.1032 H   0  0  0  0  0  0  0  0  0  0  0  0
   -0.4848   -0.1959    0.4138 C   0  0  1  0  0  0  0  0  0  0  0  0
   -0.4993    0.5616   -0.3715 H   0  0  0  0  0  0  0  0  0  0  0  0
   -0.3292    0.5185    1.7705 C   0  0  0  0  0  0  0  0  0  0  0  0
   -0.4669   -0.2185    2.5644 H   0  0  0  0  0  0  0  0  0  0  0  0
    0.6827    0.9189    1.8485 H   0  0  0  0  0  0  0  0  0  0  0  0
   -1.3349    1.6620    1.9907 C   0  0  0  0  0  0  0  0  0  0  0  0
   -1.2044    2.4194    1.2181 H   0  0  0  0  0  0  0  0  0  0  0  0
   -2.3464    1.2622    1.9190 H   0  0  0  0  0  0  0  0  0  0  0  0
   -1.1825    2.3434    3.3504 C   0  0  0  0  0  0  0  0  0  0  0  0
   -0.3978    1.9697    4.2020 O   0  0  0  0  0  0  0  0  0  0  0  0
   -1.9316    3.3924    3.6123 N   0  0  0  0  0  0  0  0  0  0  0  0
   -1.7896    3.8012    4.5197 H   0  0  0  0  0  0  0  0  0  0  0  0
   -2.5907    3.7428    2.9471 H   0  0  0  0  0  0  0  0  0  0  0  0
    0.6741   -1.1621    0.1230 C   0  0  0  0  0  0  0  0  0  0  0  0
    1.7905   -0.9490    0.5923 O   0  0  0  0  0  0  0  0  0  0  0  0
    0.4127   -2.2172   -0.6592 N   0  0  0  0  0  0  0  0  0  0  0  0
   -0.5322   -2.3400   -0.9865 H   0  0  0  0  0  0  0  0  0  0  0  0
    1.4091   -3.2180   -1.0387 C   0  0  0  0  0  0  0  0  0  0  0  0
    1.8497   -3.6569   -0.1402 H   0  0  0  0  0  0  0  0  0  0  0  0
    0.9480   -4.0073   -1.6345 H   0  0  0  0  0  0  0  0  0  0  0  0
    2.2046   -2.7453   -1.6172 H   0  0  0  0  0  0  0  0  0  0  0  0
  5  6  2  0  0  0  0
  5  7  1  0  0  0  0
  2  3  1  0  0  0  0
  2  4  1  0  0  0  0
  2  5  1  0  0  0  0
  1  2  1  0  0  0  0
 22 23  2  0  0  0  0
 22 24  1  0  0  0  0
 19 20  1  0  0  0  0
 19 21  1  0  0  0  0
 17 18  2  0  0  0  0
 17 19  1  0  0  0  0
 14 15  1  0  0  0  0
 14 16  1  0  0  0  0
 14 17  1  0  0  0  0
 11 12  1  0  0  0  0
 11 13  1  0  0  0  0
 11 14  1  0  0  0  0
  9 10  1  0  0  0  0
  9 11  1  0  0  0  0
  9 22  1  0  0  0  0
  7  8  1  0  0  0  0
  7  9  1  0  0  0  0
 26 27  1  0  0  0  0
 26 28  1  0  0  0  0
 26 29  1  0  0  0  0
 24 25  1  0  0  0  0
 24 26  1  0  0  0  0
M  END
$$$$
default_name
  -OEChem-01062215323D

 29 28  0     1  0  0  0  0  0999 V2000
   -3.3998   -3.6239    1.3678 H   0  0  0  0  0  0  0  0  0  0  0  0
   -3.3608   -2.6749    0.8348 C   0  0  0  0  0  0  0  0  0  0  0  0
   -4.0988   -1.9909    1.2498 H   0  0  0  0  0  0  0  0  0  0  0  0
   -3.5618   -2.8419   -0.2222 H   0  0  0  0  0  0  0  0  0  0  0  0
   -1.9818   -2.0809    0.9918 C   0  0  0  0  0  0  0  0  0  0  0  0
   -1.1288   -2.6669    1.6468 O   0  0  0  0  0  0  0  0  0  0  0  0
   -1.7648   -0.9089    0.3998 N   0  0  0  0  0  0  0  0  0  0  0  0
   -2.5238   -0.4719   -0.1032 H   0  0  0  0  0  0  0  0  0  0  0  0
   -0.4848   -0.1959    0.4138 C   0  0  1  0  0  0  0  0  0  0  0  0
   -0.4993    0.5616   -0.3715 H   0  0  0  0  0  0  0  0  0  0  0  0
   -0.3292    0.5185    1.7705 C   0  0  0  0  0  0  0  0  0  0  0  0
   -0.4669   -0.2185    2.5644 H   0  0  0  0  0  0  0  0  0  0  0  0
    0.6827    0.9189    1.8485 H   0  0  0  0  0  0  0  0  0  0  0  0
   -1.3349    1.6620    1.9907 C   0  0  0  0  0  0  0  0  0  0  0  0
   -1.2044    2.4194    1.2181 H   0  0  0  0  0  0  0  0  0  0  0  0
   -2.3464    1.2622    1.9190 H   0  0  0  0  0  0  0  0  0  0  0  0
   -1.1825    2.3434    3.3504 C   0  0  0  0  0  0  0  0  0  0  0  0
   -0.3978    1.9697    4.2020 O   0  0  0  0  0  0  0  0  0  0  0  0
   -1.9316    3.3924    3.6123 N   0  0  0  0  0  0  0  0  0  0  0  0
   -1.7896    3.8012    4.5197 H   0  0  0  0  0  0  0  0  0  0  0  0
   -2.5907    3.7428    2.9471 H   0  0  0  0  0  0  0  0  0  0  0  0
    0.6741   -1.1621    0.1230 C   0  0  0  0  0  0  0  0  0  0  0  0
    1.7024   -1.1158    0.7955 O   0  0  0  0  0  0  0  0  0  0  0  0
    0.5130   -2.0290   -0.8850 N   0  0  0  0  0  0  0  0  0  0  0  0
   -0.3672   -2.0251   -1.3752 H   0  0  0  0  0  0  0  0  0  0  0  0
    1.5255   -3.0015   -1.2942 C   0  0  0  0  0  0  0  0  0  0  0  0
    1.7946   -3.6318   -0.4430 H   0  0  0  0  0  0  0  0  0  0  0  0
    1.1452   -3.6306   -2.1004 H   0  0  0  0  0  0  0  0  0  0  0  0
    2.4218   -2.4798   -1.6339 H   0  0  0  0  0  0  0  0  0  0  0  0
  5  6  2  0  0  0  0
  5  7  1  0  0  0  0
  2  3  1  0  0  0  0
  2  4  1  0  0  0  0
  2  5  1  0  0  0  0
  1  2  1  0  0  0  0
 22 23  2  0  0  0  0
 22 24  1  0  0  0  0
 19 20  1  0  0  0  0
 19 21  1  0  0  0  0
 17 18  2  0  0  0  0
 17 19  1  0  0  0  0
 14 15  1  0  0  0  0
 14 16  1  0  0  0  0
 14 17  1  0  0  0  0
 11 12  1  0  0  0  0
 11 13  1  0  0  0  0
 11 14  1  0  0  0  0
  9 10  1  0  0  0  0
  9 11  1  0  0  0  0
  9 22  1  0  0  0  0
  7  8  1  0  0  0  0
  7  9  1  0  0  0  0
 26 27  1  0  0  0  0
 26 28  1  0  0  0  0
 26 29  1  0  0  0  0
 24 25  1  0  0  0  0
 24 26  1  0  0  0  0
M  END
$$$$
default_name
  -OEChem-01062215323D

 29 28  0     1  0  0  0  0  0999 V2000
   -3.3998   -3.6239    1.3678 H   0  0  0  0  0  0  0  0  0  0  0  0
   -3.3608   -2.6749    0.8348 C   0  0  0  0  0  0  0  0  0  0  0  0
   -4.0988   -1.9909    1.2498 H   0  0  0  0  0  0  0  0  0  0  0  0
   -3.5618   -2.8419   -0.2222 H   0  0  0  0  0  0  0  0  0  0  0  0
   -1.9818   -2.0809    0.9918 C   0  0  0  0  0  0  0  0  0  0  0  0
   -1.1288   -2.6669    1.6468 O   0  0  0  0  0  0  0  0  0  0  0  0
   -1.7648   -0.9089    0.3998 N   0  0  0  0  0  0  0  0  0  0  0  0
   -2.5238   -0.4719   -0.1032 H   0  0  0  0  0  0  0  0  0  0  0  0
   -0.4848   -0.1959    0.4138 C   0  0  1  0  0  0  0  0  0  0  0  0
   -0.4993    0.5616   -0.3715 H   0  0  0  0  0  0  0  0  0  0  0  0
   -0.3292    0.5185    1.7705 C   0  0  0  0  0  0  0  0  0  0  0  0
   -0.4669   -0.2185    2.5644 H   0  0  0  0  0  0  0  0  0  0  0  0
    0.6827    0.9189    1.8485 H   0  0  0  0  0  0  0  0  0  0  0  0
   -1.3349    1.6620    1.9907 C   0  0  0  0  0  0  0  0  0  0  0  0
   -1.2044    2.4194    1.2181 H   0  0  0  0  0  0  0  0  0  0  0  0
   -2.3464    1.2622    1.9190 H   0  0  0  0  0  0  0  0  0  0  0  0
   -1.1825    2.3434    3.3504 C   0  0  0  0  0  0  0  0  0  0  0  0
   -0.3978    1.9697    4.2020 O   0  0  0  0  0  0  0  0  0  0  0  0
   -1.9316    3.3924    3.6123 N   0  0  0  0  0  0  0  0  0  0  0  0
   -1.7896    3.8012    4.5197 H   0  0  0  0  0  0  0  0  0  0  0  0
   -2.5907    3.7428    2.9471 H   0  0  0  0  0  0  0  0  0  0  0  0
    0.6741   -1.1621    0.1230 C   0  0  0  0  0  0  0  0  0  0  0  0
    1.5761   -1.3124    0.9450 O   0  0  0  0  0  0  0  0  0  0  0  0
    0.6559   -1.8079   -1.0501 N   0  0  0  0  0  0  0  0  0  0  0  0
   -0.1291   -1.6531   -1.6623 H   0  0  0  0  0  0  0  0  0  0  0  0
    1.6901   -2.7482   -1.4798 C   0  0  0  0  0  0  0  0  0  0  0  0
    1.7919   -3.5458   -0.7397 H   0  0  0  0  0  0  0  0  0  0  0  0
    1.4298   -3.1855   -2.4449 H   0  0  0  0  0  0  0  0  0  0  0  0
    2.6473   -2.2307   -1.5628 H   0  0  0  0  0  0  0  0  0  0  0  0
  5  6  2  0  0  0  0
  5  7  1  0  0  0  0
  2  3  1  0  0  0  0
  2  4  1  0  0  0  0
  2  5  1  0  0  0  0
  1  2  1  0  0  0  0
 22 23  2  0  0  0  0
 22 24  1  0  0  0  0
 19 20  1  0  0  0  0
 19 21  1  0  0  0  0
 17 18  2  0  0  0  0
 17 19  1  0  0  0  0
 14 15  1  0  0  0  0
 14 16  1  0  0  0  0
 14 17  1  0  0  0  0
 11 12  1  0  0  0  0
 11 13  1  0  0  0  0
 11 14  1  0  0  0  0
  9 10  1  0  0  0  0
  9 11  1  0  0  0  0
  9 22  1  0  0  0  0
  7  8  1  0  0  0  0
  7  9  1  0  0  0  0
 26 27  1  0  0  0  0
 26 28  1  0  0  0  0
 26 29  1  0  0  0  0
 24 25  1  0  0  0  0
 24 26  1  0  0  0  0
M  END
$$$$
default_name
  -OEChem-01062215323D

 29 28  0     1  0  0  0  0  0999 V2000
   -3.3998   -3.6239    1.3678 H   0  0  0  0  0  0  0  0  0  0  0  0
   -3.3608   -2.6749    0.8348 C   0  0  0  0  0  0  0  0  0  0  0  0
   -4.0988   -1.9909    1.2498 H   0  0  0  0  0  0  0  0  0  0  0  0
   -3.5618   -2.8419   -0.2222 H   0  0  0  0  0  0  0  0  0  0  0  0
   -1.9818   -2.0809    0.9918 C   0  0  0  0  0  0  0  0  0  0  0  0
   -1.1288   -2.6669    1.6468 O   0  0  0  0  0  0  0  0  0  0  0  0
   -1.7648   -0.9089    0.3998 N   0  0  0  0  0  0  0  0  0  0  0  0
   -2.5238   -0.4719   -0.1032 H   0  0  0  0  0  0  0  0  0  0  0  0
   -0.4848   -0.1959    0.4138 C   0  0  1  0  0  0  0  0  0  0  0  0
   -0.4993    0.5616   -0.3715 H   0  0  0  0  0  0  0  0  0  0  0  0
   -0.3292    0.5185    1.7705 C   0  0  0  0  0  0  0  0  0  0  0  0
   -0.4669   -0.2185    2.5644 H   0  0  0  0  0  0  0  0  0  0  0  0
    0.6827    0.9189    1.8485 H   0  0  0  0  0  0  0  0  0  0  0  0
   -1.3349    1.6620    1.9907 C   0  0  0  0  0  0  0  0  0  0  0  0
   -1.2044    2.4194    1.2181 H   0  0  0  0  0  0  0  0  0  0  0  0
   -2.3464    1.2622    1.9190 H   0  0  0  0  0  0  0  0  0  0  0  0
   -1.1825    2.3434    3.3504 C   0  0  0  0  0  0  0  0  0  0  0  0
   -0.3978    1.9697    4.2020 O   0  0  0  0  0  0  0  0  0  0  0  0
   -1.9316    3.3924    3.6123 N   0  0  0  0  0  0  0  0  0  0  0  0
   -1.7896    3.8012    4.5197 H   0  0  0  0  0  0  0  0  0  0  0  0
   -2.5907    3.7428    2.9471 H   0  0  0  0  0  0  0  0  0  0  0  0
    0.6741   -1.1621    0.1230 C   0  0  0  0  0  0  0  0  0  0  0  0
    1.4202   -1.5252    1.0305 O   0  0  0  0  0  0  0  0  0  0  0  0
    0.8315   -1.5692   -1.1431 N   0  0  0  0  0  0  0  0  0  0  0  0
    0.1658   -1.2494   -1.8283 H   0  0  0  0  0  0  0  0  0  0  0  0
    1.8917   -2.4754   -1.5828 C   0  0  0  0  0  0  0  0  0  0  0  0
    1.8418   -3.4046   -1.0098 H   0  0  0  0  0  0  0  0  0  0  0  0
    1.7827   -2.7022   -2.6444 H   0  0  0  0  0  0  0  0  0  0  0  0
    2.8658   -2.0150   -1.4088 H   0  0  0  0  0  0  0  0  0  0  0  0
  5  6  2  0  0  0  0
  5  7  1  0  0  0  0
  2  3  1  0  0  0  0
  2  4  1  0  0  0  0
  2  5  1  0  0  0  0
  1  2  1  0  0  0  0
 22 23  2  0  0  0  0
 22 24  1  0  0  0  0
 19 20  1  0  0  0  0
 19 21  1  0  0  0  0
 17 18  2  0  0  0  0
 17 19  1  0  0  0  0
 14 15  1  0  0  0  0
 14 16  1  0  0  0  0
 14 17  1  0  0  0  0
 11 12  1  0  0  0  0
 11 13  1  0  0  0  0
 11 14  1  0  0  0  0
  9 10  1  0  0  0  0
  9 11  1  0  0  0  0
  9 22  1  0  0  0  0
  7  8  1  0  0  0  0
  7  9  1  0  0  0  0
 26 27  1  0  0  0  0
 26 28  1  0  0  0  0
 26 29  1  0  0  0  0
 24 25  1  0  0  0  0
 24 26  1  0  0  0  0
M  END
$$$$
default_name
  -OEChem-01062215323D

 29 28  0     1  0  0  0  0  0999 V2000
   -3.3998   -3.6239    1.3678 H   0  0  0  0  0  0  0  0  0  0  0  0
   -3.3608   -2.6749    0.8348 C   0  0  0  0  0  0  0  0  0  0  0  0
   -4.0988   -1.9909    1.2498 H   0  0  0  0  0  0  0  0  0  0  0  0
   -3.5618   -2.8419   -0.2222 H   0  0  0  0  0  0  0  0  0  0  0  0
   -1.9818   -2.0809    0.9918 C   0  0  0  0  0  0  0  0  0  0  0  0
   -1.1288   -2.6669    1.6468 O   0  0  0  0  0  0  0  0  0  0  0  0
   -1.7648   -0.9089    0.3998 N   0  0  0  0  0  0  0  0  0  0  0  0
   -2.5238   -0.4719   -0.1032 H   0  0  0  0  0  0  0  0  0  0  0  0
   -0.4848   -0.1959    0.4138 C   0  0  1  0  0  0  0  0  0  0  0  0
   -0.4993    0.5616   -0.3715 H   0  0  0  0  0  0  0  0  0  0  0  0
   -0.3292    0.5185    1.7705 C   0  0  0  0  0  0  0  0  0  0  0  0
   -0.4669   -0.2185    2.5644 H   0  0  0  0  0  0  0  0  0  0  0  0
    0.6827    0.9189    1.8485 H   0  0  0  0  0  0  0  0  0  0  0  0
   -1.3349    1.6620    1.9907 C   0  0  0  0  0  0  0  0  0  0  0  0
   -1.2044    2.4194    1.2181 H   0  0  0  0  0  0  0  0  0  0  0  0
   -2.3464    1.2622    1.9190 H   0  0  0  0  0  0  0  0  0  0  0  0
   -1.1825    2.3434    3.3504 C   0  0  0  0  0  0  0  0  0  0  0  0
   -0.3978    1.9697    4.2020 O   0  0  0  0  0  0  0  0  0  0  0  0
   -1.9316    3.3924    3.6123 N   0  0  0  0  0  0  0  0  0  0  0  0
   -1.7896    3.8012    4.5197 H   0  0  0  0  0  0  0  0  0  0  0  0
   -2.5907    3.7428    2.9471 H   0  0  0  0  0  0  0  0  0  0  0  0
    0.6741   -1.1621    0.1230 C   0  0  0  0  0  0  0  0  0  0  0  0
    1.2452   -1.7398    1.0461 O   0  0  0  0  0  0  0  0  0  0  0  0
    1.0281   -1.3291   -1.1578 N   0  0  0  0  0  0  0  0  0  0  0  0
    0.4974   -0.8415   -1.8619 H   0  0  0  0  0  0  0  0  0  0  0  0
    2.1166   -2.2016   -1.5962 C   0  0  0  0  0  0  0  0  0  0  0  0
    1.9409   -3.2179   -1.2351 H   0  0  0  0  0  0  0  0  0  0  0  0
    2.1797   -2.2137   -2.6853 H   0  0  0  0  0  0  0  0  0  0  0  0
    3.0623   -1.8474   -1.1825 H   0  0  0  0  0  0  0  0  0  0  0  0
  5  6  2  0  0  0  0
  5  7  1  0  0  0  0
  2  3  1  0  0  0  0
  2  4  1  0  0  0  0
  2  5  1  0  0  0  0
  1  2  1  0  0  0  0
 22 23  2  0  0  0  0
 22 24  1  0  0  0  0
 19 20  1  0  0  0  0
 19 21  1  0  0  0  0
 17 18  2  0  0  0  0
 17 19  1  0  0  0  0
 14 15  1  0  0  0  0
 14 16  1  0  0  0  0
 14 17  1  0  0  0  0
 11 12  1  0  0  0  0
 11 13  1  0  0  0  0
 11 14  1  0  0  0  0
  9 10  1  0  0  0  0
  9 11  1  0  0  0  0
  9 22  1  0  0  0  0
  7  8  1  0  0  0  0
  7  9  1  0  0  0  0
 26 27  1  0  0  0  0
 26 28  1  0  0  0  0
 26 29  1  0  0  0  0
 24 25  1  0  0  0  0
 24 26  1  0  0  0  0
M  END
$$$$
default_name
  -OEChem-01062215323D

 29 28  0     1  0  0  0  0  0999 V2000
   -3.3998   -3.6239    1.3678 H   0  0  0  0  0  0  0  0  0  0  0  0
   -3.3608   -2.6749    0.8348 C   0  0  0  0  0  0  0  0  0  0  0  0
   -4.0988   -1.9909    1.2498 H   0  0  0  0  0  0  0  0  0  0  0  0
   -3.5618   -2.8419   -0.2222 H   0  0  0  0  0  0  0  0  0  0  0  0
   -1.9818   -2.0809    0.9918 C   0  0  0  0  0  0  0  0  0  0  0  0
   -1.1288   -2.6669    1.6468 O   0  0  0  0  0  0  0  0  0  0  0  0
   -1.7648   -0.9089    0.3998 N   0  0  0  0  0  0  0  0  0  0  0  0
   -2.5238   -0.4719   -0.1032 H   0  0  0  0  0  0  0  0  0  0  0  0
   -0.4848   -0.1959    0.4138 C   0  0  1  0  0  0  0  0  0  0  0  0
   -0.4993    0.5616   -0.3715 H   0  0  0  0  0  0  0  0  0  0  0  0
   -0.3292    0.5185    1.7705 C   0  0  0  0  0  0  0  0  0  0  0  0
   -0.4669   -0.2185    2.5644 H   0  0  0  0  0  0  0  0  0  0  0  0
    0.6827    0.9189    1.8485 H   0  0  0  0  0  0  0  0  0  0  0  0
   -1.3349    1.6620    1.9907 C   0  0  0  0  0  0  0  0  0  0  0  0
   -1.2044    2.4194    1.2181 H   0  0  0  0  0  0  0  0  0  0  0  0
   -2.3464    1.2622    1.9190 H   0  0  0  0  0  0  0  0  0  0  0  0
   -1.1825    2.3434    3.3504 C   0  0  0  0  0  0  0  0  0  0  0  0
   -0.3978    1.9697    4.2020 O   0  0  0  0  0  0  0  0  0  0  0  0
   -1.9316    3.3924    3.6123 N   0  0  0  0  0  0  0  0  0  0  0  0
   -1.7896    3.8012    4.5197 H   0  0  0  0  0  0  0  0  0  0  0  0
   -2.5907    3.7428    2.9471 H   0  0  0  0  0  0  0  0  0  0  0  0
    0.6741   -1.1621    0.1230 C   0  0  0  0  0  0  0  0  0  0  0  0
    1.0631   -1.9415    0.9908 O   0  0  0  0  0  0  0  0  0  0  0  0
    1.2320   -1.1039   -1.0931 N   0  0  0  0  0  0  0  0  0  0  0  0
    0.8432   -0.4572   -1.7607 H   0  0  0  0  0  0  0  0  0  0  0  0
    2.3494   -1.9456   -1.5191 C   0  0  0  0  0  0  0  0  0  0  0  0
    2.0824   -2.9985   -1.4001 H   0  0  0  0  0  0  0  0  0  0  0  0
    2.5937   -1.7533   -2.5649 H   0  0  0  0  0  0  0  0  0  0  0  0
    3.2235   -1.7393   -0.8991 H   0  0  0  0  0  0  0  0  0  0  0  0
  5  6  2  0  0  0  0
  5  7  1  0  0  0  0
  2  3  1  0  0  0  0
  2  4  1  0  0  0  0
  2  5  1  0  0  0  0
  1  2  1  0  0  0  0
 22 23  2  0  0  0  0
 22 24  1  0  0  0  0
 19 20  1  0  0  0  0
 19 21  1  0  0  0  0
 17 18  2  0  0  0  0
 17 19  1  0  0  0  0
 14 15  1  0  0  0  0
 14 16  1  0  0  0  0
 14 17  1  0  0  0  0
 11 12  1  0  0  0  0
 11 13  1  0  0  0  0
 11 14  1  0  0  0  0
  9 10  1  0  0  0  0
  9 11  1  0  0  0  0
  9 22  1  0  0  0  0
  7  8  1  0  0  0  0
  7  9  1  0  0  0  0
 26 27  1  0  0  0  0
 26 28  1  0  0  0  0
 26 29  1  0  0  0  0
 24 25  1  0  0  0  0
 24 26  1  0  0  0  0
M  END
$$$$
default_name
  -OEChem-01062215323D

 29 28  0     1  0  0  0  0  0999 V2000
   -3.3998   -3.6239    1.3678 H   0  0  0  0  0  0  0  0  0  0  0  0
   -3.3608   -2.6749    0.8348 C   0  0  0  0  0  0  0  0  0  0  0  0
   -4.0988   -1.9909    1.2498 H   0  0  0  0  0  0  0  0  0  0  0  0
   -3.5618   -2.8419   -0.2222 H   0  0  0  0  0  0  0  0  0  0  0  0
   -1.9818   -2.0809    0.9918 C   0  0  0  0  0  0  0  0  0  0  0  0
   -1.1288   -2.6669    1.6468 O   0  0  0  0  0  0  0  0  0  0  0  0
   -1.7648   -0.9089    0.3998 N   0  0  0  0  0  0  0  0  0  0  0  0
   -2.5238   -0.4719   -0.1032 H   0  0  0  0  0  0  0  0  0  0  0  0
   -0.4848   -0.1959    0.4138 C   0  0  1  0  0  0  0  0  0  0  0  0
   -0.4993    0.5616   -0.3715 H   0  0  0  0  0  0  0  0  0  0  0  0
   -0.3292    0.5185    1.7705 C   0  0  0  0  0  0  0  0  0  0  0  0
   -0.4669   -0.2185    2.5644 H   0  0  0  0  0  0  0  0  0  0  0  0
    0.6827    0.9189    1.8485 H   0  0  0  0  0  0  0  0  0  0  0  0
   -1.3349    1.6620    1.9907 C   0  0  0  0  0  0  0  0  0  0  0  0
   -1.2044    2.4194    1.2181 H   0  0  0  0  0  0  0  0  0  0  0  0
   -2.3464    1.2622    1.9190 H   0  0  0  0  0  0  0  0  0  0  0  0
   -1.1825    2.3434    3.3504 C   0  0  0  0  0  0  0  0  0  0  0  0
   -0.3978    1.9697    4.2020 O   0  0  0  0  0  0  0  0  0  0  0  0
   -1.9316    3.3924    3.6123 N   0  0  0  0  0  0  0  0  0  0  0  0
   -1.7896    3.8012    4.5197 H   0  0  0  0  0  0  0  0  0  0  0  0
   -2.5907    3.7428    2.9471 H   0  0  0  0  0  0  0  0  0  0  0  0
    0.6741   -1.1621    0.1230 C   0  0  0  0  0  0  0  0  0  0  0  0
    0.8863   -2.1167    0.8684 O   0  0  0  0  0  0  0  0  0  0  0  0
    1.4295   -0.9090   -0.9535 N   0  0  0  0  0  0  0  0  0  0  0  0
    1.1796   -0.1227   -1.5317 H   0  0  0  0  0  0  0  0  0  0  0  0
    2.5743   -1.7247   -1.3568 C   0  0  0  0  0  0  0  0  0  0  0  0
    2.2567   -2.7613   -1.4937 H   0  0  0  0  0  0  0  0  0  0  0  0
    2.9966   -1.3524   -2.2914 H   0  0  0  0  0  0  0  0  0  0  0  0
    3.3384   -1.6982   -0.5780 H   0  0  0  0  0  0  0  0  0  0  0  0
  5  6  2  0  0  0  0
  5  7  1  0  0  0  0
  2  3  1  0  0  0  0
  2  4  1  0  0  0  0
  2  5  1  0  0  0  0
  1  2  1  0  0  0  0
 22 23  2  0  0  0  0
 22 24  1  0  0  0  0
 19 20  1  0  0  0  0
 19 21  1  0  0  0  0
 17 18  2  0  0  0  0
 17 19  1  0  0  0  0
 14 15  1  0  0  0  0
 14 16  1  0  0  0  0
 14 17  1  0  0  0  0
 11 12  1  0  0  0  0
 11 13  1  0  0  0  0
 11 14  1  0  0  0  0
  9 10  1  0  0  0  0
  9 11  1  0  0  0  0
  9 22  1  0  0  0  0
  7  8  1  0  0  0  0
  7  9  1  0  0  0  0
 26 27  1  0  0  0  0
 26 28  1  0  0  0  0
 26 29  1  0  0  0  0
 24 25  1  0  0  0  0
 24 26  1  0  0  0  0
M  END
$$$$
default_name
  -OEChem-01062215323D

 29 28  0     1  0  0  0  0  0999 V2000
   -3.3998   -3.6239    1.3678 H   0  0  0  0  0  0  0  0  0  0  0  0
   -3.3608   -2.6749    0.8348 C   0  0  0  0  0  0  0  0  0  0  0  0
   -4.0988   -1.9909    1.2498 H   0  0  0  0  0  0  0  0  0  0  0  0
   -3.5618   -2.8419   -0.2222 H   0  0  0  0  0  0  0  0  0  0  0  0
   -1.9818   -2.0809    0.9918 C   0  0  0  0  0  0  0  0  0  0  0  0
   -1.1288   -2.6669    1.6468 O   0  0  0  0  0  0  0  0  0  0  0  0
   -1.7648   -0.9089    0.3998 N   0  0  0  0  0  0  0  0  0  0  0  0
   -2.5238   -0.4719   -0.1032 H   0  0  0  0  0  0  0  0  0  0  0  0
   -0.4848   -0.1959    0.4138 C   0  0  1  0  0  0  0  0  0  0  0  0
   -0.4993    0.5616   -0.3715 H   0  0  0  0  0  0  0  0  0  0  0  0
   -0.3292    0.5185    1.7705 C   0  0  0  0  0  0  0  0  0  0  0  0
   -0.4669   -0.2185    2.5644 H   0  0  0  0  0  0  0  0  0  0  0  0
    0.6827    0.9189    1.8485 H   0  0  0  0  0  0  0  0  0  0  0  0
   -1.3349    1.6620    1.9907 C   0  0  0  0  0  0  0  0  0  0  0  0
   -1.2044    2.4194    1.2181 H   0  0  0  0  0  0  0  0  0  0  0  0
   -2.3464    1.2622    1.9190 H   0  0  0  0  0  0  0  0  0  0  0  0
   -1.1825    2.3434    3.3504 C   0  0  0  0  0  0  0  0  0  0  0  0
   -0.3978    1.9697    4.2020 O   0  0  0  0  0  0  0  0  0  0  0  0
   -1.9316    3.3924    3.6123 N   0  0  0  0  0  0  0  0  0  0  0  0
   -1.7896    3.8012    4.5197 H   0  0  0  0  0  0  0  0  0  0  0  0
   -2.5907    3.7428    2.9471 H   0  0  0  0  0  0  0  0  0  0  0  0
    0.6741   -1.1621    0.1230 C   0  0  0  0  0  0  0  0  0  0  0  0
    0.7269   -2.2533    0.6872 O   0  0  0  0  0  0  0  0  0  0  0  0
    1.6072   -0.7577   -0.7484 N   0  0  0  0  0  0  0  0  0  0  0  0
    1.4836    0.1392   -1.1904 H   0  0  0  0  0  0  0  0  0  0  0  0
    2.7759   -1.5541   -1.1203 C   0  0  0  0  0  0  0  0  0  0  0  0
    2.4519   -2.5225   -1.5094 H   0  0  0  0  0  0  0  0  0  0  0  0
    3.3609   -1.0383   -1.8833 H   0  0  0  0  0  0  0  0  0  0  0  0
    3.3991   -1.7267   -0.2412 H   0  0  0  0  0  0  0  0  0  0  0  0
  5  6  2  0  0  0  0
  5  7  1  0  0  0  0
  2  3  1  0  0  0  0
  2  4  1  0  0  0  0
  2  5  1  0  0  0  0
  1  2  1  0  0  0  0
 22 23  2  0  0  0  0
 22 24  1  0  0  0  0
 19 20  1  0  0  0  0
 19 21  1  0  0  0  0
 17 18  2  0  0  0  0
 17 19  1  0  0  0  0
 14 15  1  0  0  0  0
 14 16  1  0  0  0  0
 14 17  1  0  0  0  0
 11 12  1  0  0  0  0
 11 13  1  0  0  0  0
 11 14  1  0  0  0  0
  9 10  1  0  0  0  0
  9 11  1  0  0  0  0
  9 22  1  0  0  0  0
  7  8  1  0  0  0  0
  7  9  1  0  0  0  0
 26 27  1  0  0  0  0
 26 28  1  0  0  0  0
 26 29  1  0  0  0  0
 24 25  1  0  0  0  0
 24 26  1  0  0  0  0
M  END
$$$$
default_name
  -OEChem-01062215323D

 29 28  0     1  0  0  0  0  0999 V2000
   -3.3998   -3.6239    1.3678 H   0  0  0  0  0  0  0  0  0  0  0  0
   -3.3608   -2.6749    0.8348 C   0  0  0  0  0  0  0  0  0  0  0  0
   -4.0988   -1.9909    1.2498 H   0  0  0  0  0  0  0  0  0  0  0  0
   -3.5618   -2.8419   -0.2222 H   0  0  0  0  0  0  0  0  0  0  0  0
   -1.9818   -2.0809    0.9918 C   0  0  0  0  0  0  0  0  0  0  0  0
   -1.1288   -2.6669    1.6468 O   0  0  0  0  0  0  0  0  0  0  0  0
   -1.7648   -0.9089    0.3998 N   0  0  0  0  0  0  0  0  0  0  0  0
   -2.5238   -0.4719   -0.1032 H   0  0  0  0  0  0  0  0  0  0  0  0
   -0.4848   -0.1959    0.4138 C   0  0  1  0  0  0  0  0  0  0  0  0
   -0.4993    0.5616   -0.3715 H   0  0  0  0  0  0  0  0  0  0  0  0
   -0.3292    0.5185    1.7705 C   0  0  0  0  0  0  0  0  0  0  0  0
   -0.4669   -0.2185    2.5644 H   0  0  0  0  0  0  0  0  0  0  0  0
    0.6827    0.9189    1.8485 H   0  0  0  0  0  0  0  0  0  0  0  0
   -1.3349    1.6620    1.9907 C   0  0  0  0  0  0  0  0  0  0  0  0
   -1.2044    2.4194    1.2181 H   0  0  0  0  0  0  0  0  0  0  0  0
   -2.3464    1.2622    1.9190 H   0  0  0  0  0  0  0  0  0  0  0  0
   -1.1825    2.3434    3.3504 C   0  0  0  0  0  0  0  0  0  0  0  0
   -0.3978    1.9697    4.2020 O   0  0  0  0  0  0  0  0  0  0  0  0
   -1.9316    3.3924    3.6123 N   0  0  0  0  0  0  0  0  0  0  0  0
   -1.7896    3.8012    4.5197 H   0  0  0  0  0  0  0  0  0  0  0  0
   -2.5907    3.7428    2.9471 H   0  0  0  0  0  0  0  0  0  0  0  0
    0.6741   -1.1621    0.1230 C   0  0  0  0  0  0  0  0  0  0  0  0
    0.5958   -2.3421    0.4596 O   0  0  0  0  0  0  0  0  0  0  0  0
    1.7528   -0.6603   -0.4919 N   0  0  0  0  0  0  0  0  0  0  0  0
    1.7345    0.3107   -0.7602 H   0  0  0  0  0  0  0  0  0  0  0  0
    2.9405   -1.4453   -0.8257 C   0  0  0  0  0  0  0  0  0  0  0  0
    2.6547   -2.2982   -1.4461 H   0  0  0  0  0  0  0  0  0  0  0  0
    3.6617   -0.8325   -1.3686 H   0  0  0  0  0  0  0  0  0  0  0  0
    3.4016   -1.8230    0.0885 H   0  0  0  0  0  0  0  0  0  0  0  0
  5  6  2  0  0  0  0
  5  7  1  0  0  0  0
  2  3  1  0  0  0  0
  2  4  1  0  0  0  0
  2  5  1  0  0  0  0
  1  2  1  0  0  0  0
 22 23  2  0  0  0  0
 22 24  1  0  0  0  0
 19 20  1  0  0  0  0
 19 21  1  0  0  0  0
 17 18  2  0  0  0  0
 17 19  1  0  0  0  0
 14 15  1  0  0  0  0
 14 16  1  0  0  0  0
 14 17  1  0  0  0  0
 11 12  1  0  0  0  0
 11 13  1  0  0  0  0
 11 14  1  0  0  0  0
  9 10  1  0  0  0  0
  9 11  1  0  0  0  0
  9 22  1  0  0  0  0
  7  8  1  0  0  0  0
  7  9  1  0  0  0  0
 26 27  1  0  0  0  0
 26 28  1  0  0  0  0
 26 29  1  0  0  0  0
 24 25  1  0  0  0  0
 24 26  1  0  0  0  0
M  END
$$$$
default_name
  -OEChem-01062215323D

 29 28  0     1  0  0  0  0  0999 V2000
   -3.3998   -3.6239    1.3678 H   0  0  0  0  0  0  0  0  0  0  0  0
   -3.3608   -2.6749    0.8348 C   0  0  0  0  0  0  0  0  0  0  0  0
   -4.0988   -1.9909    1.2498 H   0  0  0  0  0  0  0  0  0  0  0  0
   -3.5618   -2.8419   -0.2222 H   0  0  0  0  0  0  0  0  0  0  0  0
   -1.9818   -2.0809    0.9918 C   0  0  0  0  0  0  0  0  0  0  0  0
   -1.1288   -2.6669    1.6468 O   0  0  0  0  0  0  0  0  0  0  0  0
   -1.7648   -0.9089    0.3998 N   0  0  0  0  0  0  0  0  0  0  0  0
   -2.5238   -0.4719   -0.1032 H   0  0  0  0  0  0  0  0  0  0  0  0
   -0.4848   -0.1959    0.4138 C   0  0  1  0  0  0  0  0  0  0  0  0
   -0.4993    0.5616   -0.3715 H   0  0  0  0  0  0  0  0  0  0  0  0
   -0.3292    0.5185    1.7705 C   0  0  0  0  0  0  0  0  0  0  0  0
   -0.4669   -0.2185    2.5644 H   0  0  0  0  0  0  0  0  0  0  0  0
    0.6827    0.9189    1.8485 H   0  0  0  0  0  0  0  0  0  0  0  0
   -1.3349    1.6620    1.9907 C   0  0  0  0  0  0  0  0  0  0  0  0
   -1.2044    2.4194    1.2181 H   0  0  0  0  0  0  0  0  0  0  0  0
   -2.3464    1.2622    1.9190 H   0  0  0  0  0  0  0  0  0  0  0  0
   -1.1825    2.3434    3.3504 C   0  0  0  0  0  0  0  0  0  0  0  0
   -0.3978    1.9697    4.2020 O   0  0  0  0  0  0  0  0  0  0  0  0
   -1.9316    3.3924    3.6123 N   0  0  0  0  0  0  0  0  0  0  0  0
   -1.7896    3.8012    4.5197 H   0  0  0  0  0  0  0  0  0  0  0  0
   -2.5907    3.7428    2.9471 H   0  0  0  0  0  0  0  0  0  0  0  0
    0.6741   -1.1621    0.1230 C   0  0  0  0  0  0  0  0  0  0  0  0
    0.5017   -2.3771    0.2010 O   0  0  0  0  0  0  0  0  0  0  0  0
    1.8565   -0.6233   -0.2014 N   0  0  0  0  0  0  0  0  0  0  0  0
    1.9153    0.3801   -0.2703 H   0  0  0  0  0  0  0  0  0  0  0  0
    3.0569   -1.4058   -0.4932 C   0  0  0  0  0  0  0  0  0  0  0  0
    2.8512   -2.1039   -1.3083 H   0  0  0  0  0  0  0  0  0  0  0  0
    3.8786   -0.7488   -0.7822 H   0  0  0  0  0  0  0  0  0  0  0  0
    3.3456   -1.9805    0.3885 H   0  0  0  0  0  0  0  0  0  0  0  0
  5  6  2  0  0  0  0
  5  7  1  0  0  0  0
  2  3  1  0  0  0  0
  2  4  1  0  0  0  0
  2  5  1  0  0  0  0
  1  2  1  0  0  0  0
 22 23  2  0  0  0  0
 22 24  1  0  0  0  0
 19 20  1  0  0  0  0
 19 21  1  0  0  0  0
 17 18  2  0  0  0  0
 17 19  1  0  0  0  0
 14 15  1  0  0  0  0
 14 16  1  0  0  0  0
 14 17  1  0  0  0  0
 11 12  1  0  0  0  0
 11 13  1  0  0  0  0
 11 14  1  0  0  0  0
  9 10  1  0  0  0  0
  9 11  1  0  0  0  0
  9 22  1  0  0  0  0
  7  8  1  0  0  0  0
  7  9  1  0  0  0  0
 26 27  1  0  0  0  0
 26 28  1  0  0  0  0
 26 29  1  0  0  0  0
 24 25  1  0  0  0  0
 24 26  1  0  0  0  0
M  END
$$$$
default_name
  -OEChem-01062215323D

 29 28  0     1  0  0  0  0  0999 V2000
   -3.3998   -3.6239    1.3678 H   0  0  0  0  0  0  0  0  0  0  0  0
   -3.3608   -2.6749    0.8348 C   0  0  0  0  0  0  0  0  0  0  0  0
   -4.0988   -1.9909    1.2498 H   0  0  0  0  0  0  0  0  0  0  0  0
   -3.5618   -2.8419   -0.2222 H   0  0  0  0  0  0  0  0  0  0  0  0
   -1.9818   -2.0809    0.9918 C   0  0  0  0  0  0  0  0  0  0  0  0
   -1.1288   -2.6669    1.6468 O   0  0  0  0  0  0  0  0  0  0  0  0
   -1.7648   -0.9089    0.3998 N   0  0  0  0  0  0  0  0  0  0  0  0
   -2.5238   -0.4719   -0.1032 H   0  0  0  0  0  0  0  0  0  0  0  0
   -0.4848   -0.1959    0.4138 C   0  0  1  0  0  0  0  0  0  0  0  0
   -0.5892    0.7191   -0.1715 H   0  0  0  0  0  0  0  0  0  0  0  0
   -0.1506    0.1960    1.8664 C   0  0  0  0  0  0  0  0  0  0  0  0
   -0.1959   -0.7035    2.4838 H   0  0  0  0  0  0  0  0  0  0  0  0
    0.8678    0.5855    1.9052 H   0  0  0  0  0  0  0  0  0  0  0  0
   -1.1067    1.2430    2.4641 C   0  0  0  0  0  0  0  0  0  0  0  0
   -1.0657    2.1575    1.8728 H   0  0  0  0  0  0  0  0  0  0  0  0
   -2.1238    0.8526    2.4316 H   0  0  0  0  0  0  0  0  0  0  0  0
   -0.7757    1.6021    3.9126 C   0  0  0  0  0  0  0  0  0  0  0  0
    0.1057    1.0590    4.5520 O   0  0  0  0  0  0  0  0  0  0  0  0
   -1.4731    2.5519    4.4971 N   0  0  0  0  0  0  0  0  0  0  0  0
   -1.2128    2.7475    5.4481 H   0  0  0  0  0  0  0  0  0  0  0  0
   -2.2066    3.0323    4.0165 H   0  0  0  0  0  0  0  0  0  0  0  0
    0.6164   -1.0516   -0.2313 C   0  0  0  0  0  0  0  0  0  0  0  0
    0.3566   -2.1742   -0.6606 O   0  0  0  0  0  0  0  0  0  0  0  0
    1.8472   -0.5269   -0.2899 N   0  0  0  0  0  0  0  0  0  0  0  0
    1.9787    0.4089    0.0595 H   0  0  0  0  0  0  0  0  0  0  0  0
    3.0026   -1.2185   -0.8599 C   0  0  0  0  0  0  0  0  0  0  0  0
    2.7870   -1.5043   -1.8924 H   0  0  0  0  0  0  0  0  0  0  0  0
    3.8805   -0.5709   -0.8428 H   0  0  0  0  0  0  0  0  0  0  0  0
    3.2094   -2.1243   -0.2874 H   0  0  0  0  0  0  0  0  0  0  0  0
  5  6  2  0  0  0  0
  5  7  1  0  0  0  0
  2  3  1  0  0  0  0
  2  4  1  0  0  0  0
  2  5  1  0  0  0  0
  1  2  1  0  0  0  0
 22 23  2  0  0  0  0
 22 24  1  0  0  0  0
 19 20  1  0  0  0  0
 19 21  1  0  0  0  0
 17 18  2  0  0  0  0
 17 19  1  0  0  0  0
 14 15  1  0  0  0  0
 14 16  1  0  0  0  0
 14 17  1  0  0  0  0
 11 12  1  0  0  0  0
 11 13  1  0  0  0  0
 11 14  1  0  0  0  0
  9 10  1  0  0  0  0
  9 11  1  0  0  0  0
  9 22  1  0  0  0  0
  7  8  1  0  0  0  0
  7  9  1  0  0  0  0
 26 27  1  0  0  0  0
 26 28  1  0  0  0  0
 26 29  1  0  0  0  0
 24 25  1  0  0  0  0
 24 26  1  0  0  0  0
M  END
$$$$
default_name
  -OEChem-01062215323D

 29 28  0     1  0  0  0  0  0999 V2000
   -3.3998   -3.6239    1.3678 H   0  0  0  0  0  0  0  0  0  0  0  0
   -3.3608   -2.6749    0.8348 C   0  0  0  0  0  0  0  0  0  0  0  0
   -4.0988   -1.9909    1.2498 H   0  0  0  0  0  0  0  0  0  0  0  0
   -3.5618   -2.8419   -0.2222 H   0  0  0  0  0  0  0  0  0  0  0  0
   -1.9818   -2.0809    0.9918 C   0  0  0  0  0  0  0  0  0  0  0  0
   -1.1288   -2.6669    1.6468 O   0  0  0  0  0  0  0  0  0  0  0  0
   -1.7648   -0.9089    0.3998 N   0  0  0  0  0  0  0  0  0  0  0  0
   -2.5238   -0.4719   -0.1032 H   0  0  0  0  0  0  0  0  0  0  0  0
   -0.4848   -0.1959    0.4138 C   0  0  1  0  0  0  0  0  0  0  0  0
   -0.5892    0.7191   -0.1715 H   0  0  0  0  0  0  0  0  0  0  0  0
   -0.1506    0.1960    1.8664 C   0  0  0  0  0  0  0  0  0  0  0  0
   -0.1959   -0.7035    2.4838 H   0  0  0  0  0  0  0  0  0  0  0  0
    0.8678    0.5855    1.9052 H   0  0  0  0  0  0  0  0  0  0  0  0
   -1.1067    1.2430    2.4641 C   0  0  0  0  0  0  0  0  0  0  0  0
   -1.0657    2.1575    1.8728 H   0  0  0  0  0  0  0  0  0  0  0  0
   -2.1238    0.8526    2.4316 H   0  0  0  0  0  0  0  0  0  0  0  0
   -0.7757    1.6021    3.9126 C   0  0  0  0  0  0  0  0  0  0  0  0
    0.1057    1.0590    4.5520 O   0  0  0  0  0  0  0  0  0  0  0  0
   -1.4731    2.5519    4.4971 N   0  0  0  0  0  0  0  0  0  0  0  0
   -1.2128    2.7475    5.4481 H   0  0  0  0  0  0  0  0  0  0  0  0
   -2.2066    3.0323    4.0165 H   0  0  0  0  0  0  0  0  0  0  0  0
    0.6164   -1.0516   -0.2313 C   0  0  0  0  0  0  0  0  0  0  0  0
    0.3205   -2.0398   -0.9005 O   0  0  0  0  0  0  0  0  0  0  0  0
    1.8857   -0.6793   -0.0219 N   0  0  0  0  0  0  0  0  0  0  0  0
    2.0501    0.1564    0.5163 H   0  0  0  0  0  0  0  0  0  0  0  0
    3.0442   -1.3948   -0.5551 C   0  0  0  0  0  0  0  0  0  0  0  0
    2.9644   -1.4642   -1.6428 H   0  0  0  0  0  0  0  0  0  0  0  0
    3.9665   -0.8728   -0.2956 H   0  0  0  0  0  0  0  0  0  0  0  0
    3.0731   -2.4062   -0.1462 H   0  0  0  0  0  0  0  0  0  0  0  0
  5  6  2  0  0  0  0
  5  7  1  0  0  0  0
  2  3  1  0  0  0  0
  2  4  1  0  0  0  0
  2  5  1  0  0  0  0
  1  2  1  0  0  0  0
 22 23  2  0  0  0  0
 22 24  1  0  0  0  0
 19 20  1  0  0  0  0
 19 21  1  0  0  0  0
 17 18  2  0  0  0  0
 17 19  1  0  0  0  0
 14 15  1  0  0  0  0
 14 16  1  0  0  0  0
 14 17  1  0  0  0  0
 11 12  1  0  0  0  0
 11 13  1  0  0  0  0
 11 14  1  0  0  0  0
  9 10  1  0  0  0  0
  9 11  1  0  0  0  0
  9 22  1  0  0  0  0
  7  8  1  0  0  0  0
  7  9  1  0  0  0  0
 26 27  1  0  0  0  0
 26 28  1  0  0  0  0
 26 29  1  0  0  0  0
 24 25  1  0  0  0  0
 24 26  1  0  0  0  0
M  END
$$$$
default_name
  -OEChem-01062215323D

 29 28  0     1  0  0  0  0  0999 V2000
   -3.3998   -3.6239    1.3678 H   0  0  0  0  0  0  0  0  0  0  0  0
   -3.3608   -2.6749    0.8348 C   0  0  0  0  0  0  0  0  0  0  0  0
   -4.0988   -1.9909    1.2498 H   0  0  0  0  0  0  0  0  0  0  0  0
   -3.5618   -2.8419   -0.2222 H   0  0  0  0  0  0  0  0  0  0  0  0
   -1.9818   -2.0809    0.9918 C   0  0  0  0  0  0  0  0  0  0  0  0
   -1.1288   -2.6669    1.6468 O   0  0  0  0  0  0  0  0  0  0  0  0
   -1.7648   -0.9089    0.3998 N   0  0  0  0  0  0  0  0  0  0  0  0
   -2.5238   -0.4719   -0.1032 H   0  0  0  0  0  0  0  0  0  0  0  0
   -0.4848   -0.1959    0.4138 C   0  0  1  0  0  0  0  0  0  0  0  0
   -0.5892    0.7191   -0.1715 H   0  0  0  0  0  0  0  0  0  0  0  0
   -0.1506    0.1960    1.8664 C   0  0  0  0  0  0  0  0  0  0  0  0
   -0.1959   -0.7035    2.4838 H   0  0  0  0  0  0  0  0  0  0  0  0
    0.8678    0.5855    1.9052 H   0  0  0  0  0  0  0  0  0  0  0  0
   -1.1067    1.2430    2.4641 C   0  0  0  0  0  0  0  0  0  0  0  0
   -1.0657    2.1575    1.8728 H   0  0  0  0  0  0  0  0  0  0  0  0
   -2.1238    0.8526    2.4316 H   0  0  0  0  0  0  0  0  0  0  0  0
   -0.7757    1.6021    3.9126 C   0  0  0  0  0  0  0  0  0  0  0  0
    0.1057    1.0590    4.5520 O   0  0  0  0  0  0  0  0  0  0  0  0
   -1.4731    2.5519    4.4971 N   0  0  0  0  0  0  0  0  0  0  0  0
   -1.2128    2.7475    5.4481 H   0  0  0  0  0  0  0  0  0  0  0  0
   -2.2066    3.0323    4.0165 H   0  0  0  0  0  0  0  0  0  0  0  0
    0.6164   -1.0516   -0.2313 C   0  0  0  0  0  0  0  0  0  0  0  0
    0.3347   -1.8616   -1.1125 O   0  0  0  0  0  0  0  0  0  0  0  0
    1.8677   -0.8804    0.2141 N   0  0  0  0  0  0  0  0  0  0  0  0
    2.0257   -0.1800    0.9209 H   0  0  0  0  0  0  0  0  0  0  0  0
    3.0213   -1.6261   -0.2874 C   0  0  0  0  0  0  0  0  0  0  0  0
    3.1042   -1.4911   -1.3687 H   0  0  0  0  0  0  0  0  0  0  0  0
    3.9379   -1.2752    0.1892 H   0  0  0  0  0  0  0  0  0  0  0  0
    2.8904   -2.6898   -0.0818 H   0  0  0  0  0  0  0  0  0  0  0  0
  5  6  2  0  0  0  0
  5  7  1  0  0  0  0
  2  3  1  0  0  0  0
  2  4  1  0  0  0  0
  2  5  1  0  0  0  0
  1  2  1  0  0  0  0
 22 23  2  0  0  0  0
 22 24  1  0  0  0  0
 19 20  1  0  0  0  0
 19 21  1  0  0  0  0
 17 18  2  0  0  0  0
 17 19  1  0  0  0  0
 14 15  1  0  0  0  0
 14 16  1  0  0  0  0
 14 17  1  0  0  0  0
 11 12  1  0  0  0  0
 11 13  1  0  0  0  0
 11 14  1  0  0  0  0
  9 10  1  0  0  0  0
  9 11  1  0  0  0  0
  9 22  1  0  0  0  0
  7  8  1  0  0  0  0
  7  9  1  0  0  0  0
 26 27  1  0  0  0  0
 26 28  1  0  0  0  0
 26 29  1  0  0  0  0
 24 25  1  0  0  0  0
 24 26  1  0  0  0  0
M  END
$$$$
default_name
  -OEChem-01062215323D

 29 28  0     1  0  0  0  0  0999 V2000
   -3.3998   -3.6239    1.3678 H   0  0  0  0  0  0  0  0  0  0  0  0
   -3.3608   -2.6749    0.8348 C   0  0  0  0  0  0  0  0  0  0  0  0
   -4.0988   -1.9909    1.2498 H   0  0  0  0  0  0  0  0  0  0  0  0
   -3.5618   -2.8419   -0.2222 H   0  0  0  0  0  0  0  0  0  0  0  0
   -1.9818   -2.0809    0.9918 C   0  0  0  0  0  0  0  0  0  0  0  0
   -1.1288   -2.6669    1.6468 O   0  0  0  0  0  0  0  0  0  0  0  0
   -1.7648   -0.9089    0.3998 N   0  0  0  0  0  0  0  0  0  0  0  0
   -2.5238   -0.4719   -0.1032 H   0  0  0  0  0  0  0  0  0  0  0  0
   -0.4848   -0.1959    0.4138 C   0  0  1  0  0  0  0  0  0  0  0  0
   -0.5892    0.7191   -0.1715 H   0  0  0  0  0  0  0  0  0  0  0  0
   -0.1506    0.1960    1.8664 C   0  0  0  0  0  0  0  0  0  0  0  0
   -0.1959   -0.7035    2.4838 H   0  0  0  0  0  0  0  0  0  0  0  0
    0.8678    0.5855    1.9052 H   0  0  0  0  0  0  0  0  0  0  0  0
   -1.1067    1.2430    2.4641 C   0  0  0  0  0  0  0  0  0  0  0  0
   -1.0657    2.1575    1.8728 H   0  0  0  0  0  0  0  0  0  0  0  0
   -2.1238    0.8526    2.4316 H   0  0  0  0  0  0  0  0  0  0  0  0
   -0.7757    1.6021    3.9126 C   0  0  0  0  0  0  0  0  0  0  0  0
    0.1057    1.0590    4.5520 O   0  0  0  0  0  0  0  0  0  0  0  0
   -1.4731    2.5519    4.4971 N   0  0  0  0  0  0  0  0  0  0  0  0
   -1.2128    2.7475    5.4481 H   0  0  0  0  0  0  0  0  0  0  0  0
   -2.2066    3.0323    4.0165 H   0  0  0  0  0  0  0  0  0  0  0  0
    0.6164   -1.0516   -0.2313 C   0  0  0  0  0  0  0  0  0  0  0  0
    0.3984   -1.6517   -1.2822 O   0  0  0  0  0  0  0  0  0  0  0  0
    1.7945   -1.1165    0.4022 N   0  0  0  0  0  0  0  0  0  0  0  0
    1.9074   -0.5774    1.2459 H   0  0  0  0  0  0  0  0  0  0  0  0
    2.9355   -1.8967   -0.0750 C   0  0  0  0  0  0  0  0  0  0  0  0
    3.1968   -1.5830   -1.0887 H   0  0  0  0  0  0  0  0  0  0  0  0
    3.7967   -1.7507    0.5788 H   0  0  0  0  0  0  0  0  0  0  0  0
    2.6739   -2.9559   -0.0985 H   0  0  0  0  0  0  0  0  0  0  0  0
  5  6  2  0  0  0  0
  5  7  1  0  0  0  0
  2  3  1  0  0  0  0
  2  4  1  0  0  0  0
  2  5  1  0  0  0  0
  1  2  1  0  0  0  0
 22 23  2  0  0  0  0
 22 24  1  0  0  0  0
 19 20  1  0  0  0  0
 19 21  1  0  0  0  0
 17 18  2  0  0  0  0
 17 19  1  0  0  0  0
 14 15  1  0  0  0  0
 14 16  1  0  0  0  0
 14 17  1  0  0  0  0
 11 12  1  0  0  0  0
 11 13  1  0  0  0  0
 11 14  1  0  0  0  0
  9 10  1  0  0  0  0
  9 11  1  0  0  0  0
  9 22  1  0  0  0  0
  7  8  1  0  0  0  0
  7  9  1  0  0  0  0
 26 27  1  0  0  0  0
 26 28  1  0  0  0  0
 26 29  1  0  0  0  0
 24 25  1  0  0  0  0
 24 26  1  0  0  0  0
M  END
$$$$
default_name
  -OEChem-01062215323D

 29 28  0     1  0  0  0  0  0999 V2000
   -3.3998   -3.6239    1.3678 H   0  0  0  0  0  0  0  0  0  0  0  0
   -3.3608   -2.6749    0.8348 C   0  0  0  0  0  0  0  0  0  0  0  0
   -4.0988   -1.9909    1.2498 H   0  0  0  0  0  0  0  0  0  0  0  0
   -3.5618   -2.8419   -0.2222 H   0  0  0  0  0  0  0  0  0  0  0  0
   -1.9818   -2.0809    0.9918 C   0  0  0  0  0  0  0  0  0  0  0  0
   -1.1288   -2.6669    1.6468 O   0  0  0  0  0  0  0  0  0  0  0  0
   -1.7648   -0.9089    0.3998 N   0  0  0  0  0  0  0  0  0  0  0  0
   -2.5238   -0.4719   -0.1032 H   0  0  0  0  0  0  0  0  0  0  0  0
   -0.4848   -0.1959    0.4138 C   0  0  1  0  0  0  0  0  0  0  0  0
   -0.5892    0.7191   -0.1715 H   0  0  0  0  0  0  0  0  0  0  0  0
   -0.1506    0.1960    1.8664 C   0  0  0  0  0  0  0  0  0  0  0  0
   -0.1959   -0.7035    2.4838 H   0  0  0  0  0  0  0  0  0  0  0  0
    0.8678    0.5855    1.9052 H   0  0  0  0  0  0  0  0  0  0  0  0
   -1.1067    1.2430    2.4641 C   0  0  0  0  0  0  0  0  0  0  0  0
   -1.0657    2.1575    1.8728 H   0  0  0  0  0  0  0  0  0  0  0  0
   -2.1238    0.8526    2.4316 H   0  0  0  0  0  0  0  0  0  0  0  0
   -0.7757    1.6021    3.9126 C   0  0  0  0  0  0  0  0  0  0  0  0
    0.1057    1.0590    4.5520 O   0  0  0  0  0  0  0  0  0  0  0  0
   -1.4731    2.5519    4.4971 N   0  0  0  0  0  0  0  0  0  0  0  0
   -1.2128    2.7475    5.4481 H   0  0  0  0  0  0  0  0  0  0  0  0
   -2.2066    3.0323    4.0165 H   0  0  0  0  0  0  0  0  0  0  0  0
    0.6164   -1.0516   -0.2313 C   0  0  0  0  0  0  0  0  0  0  0  0
    0.5072   -1.4244   -1.3980 O   0  0  0  0  0  0  0  0  0  0  0  0
    1.6710   -1.3715    0.5296 N   0  0  0  0  0  0  0  0  0  0  0  0
    1.7030   -1.0086    1.4690 H   0  0  0  0  0  0  0  0  0  0  0  0
    2.7926   -2.1881    0.0676 C   0  0  0  0  0  0  0  0  0  0  0  0
    3.2358   -1.7338   -0.8220 H   0  0  0  0  0  0  0  0  0  0  0  0
    3.5524   -2.2669    0.8466 H   0  0  0  0  0  0  0  0  0  0  0  0
    2.4382   -3.1863   -0.1951 H   0  0  0  0  0  0  0  0  0  0  0  0
  5  6  2  0  0  0  0
  5  7  1  0  0  0  0
  2  3  1  0  0  0  0
  2  4  1  0  0  0  0
  2  5  1  0  0  0  0
  1  2  1  0  0  0  0
 22 23  2  0  0  0  0
 22 24  1  0  0  0  0
 19 20  1  0  0  0  0
 19 21  1  0  0  0  0
 17 18  2  0  0  0  0
 17 19  1  0  0  0  0
 14 15  1  0  0  0  0
 14 16  1  0  0  0  0
 14 17  1  0  0  0  0
 11 12  1  0  0  0  0
 11 13  1  0  0  0  0
 11 14  1  0  0  0  0
  9 10  1  0  0  0  0
  9 11  1  0  0  0  0
  9 22  1  0  0  0  0
  7  8  1  0  0  0  0
  7  9  1  0  0  0  0
 26 27  1  0  0  0  0
 26 28  1  0  0  0  0
 26 29  1  0  0  0  0
 24 25  1  0  0  0  0
 24 26  1  0  0  0  0
M  END
$$$$
default_name
  -OEChem-01062215323D

 29 28  0     1  0  0  0  0  0999 V2000
   -3.3998   -3.6239    1.3678 H   0  0  0  0  0  0  0  0  0  0  0  0
   -3.3608   -2.6749    0.8348 C   0  0  0  0  0  0  0  0  0  0  0  0
   -4.0988   -1.9909    1.2498 H   0  0  0  0  0  0  0  0  0  0  0  0
   -3.5618   -2.8419   -0.2222 H   0  0  0  0  0  0  0  0  0  0  0  0
   -1.9818   -2.0809    0.9918 C   0  0  0  0  0  0  0  0  0  0  0  0
   -1.1288   -2.6669    1.6468 O   0  0  0  0  0  0  0  0  0  0  0  0
   -1.7648   -0.9089    0.3998 N   0  0  0  0  0  0  0  0  0  0  0  0
   -2.5238   -0.4719   -0.1032 H   0  0  0  0  0  0  0  0  0  0  0  0
   -0.4848   -0.1959    0.4138 C   0  0  1  0  0  0  0  0  0  0  0  0
   -0.5892    0.7191   -0.1715 H   0  0  0  0  0  0  0  0  0  0  0  0
   -0.1506    0.1960    1.8664 C   0  0  0  0  0  0  0  0  0  0  0  0
   -0.1959   -0.7035    2.4838 H   0  0  0  0  0  0  0  0  0  0  0  0
    0.8678    0.5855    1.9052 H   0  0  0  0  0  0  0  0  0  0  0  0
   -1.1067    1.2430    2.4641 C   0  0  0  0  0  0  0  0  0  0  0  0
   -1.0657    2.1575    1.8728 H   0  0  0  0  0  0  0  0  0  0  0  0
   -2.1238    0.8526    2.4316 H   0  0  0  0  0  0  0  0  0  0  0  0
   -0.7757    1.6021    3.9126 C   0  0  0  0  0  0  0  0  0  0  0  0
    0.1057    1.0590    4.5520 O   0  0  0  0  0  0  0  0  0  0  0  0
   -1.4731    2.5519    4.4971 N   0  0  0  0  0  0  0  0  0  0  0  0
   -1.2128    2.7475    5.4481 H   0  0  0  0  0  0  0  0  0  0  0  0
   -2.2066    3.0323    4.0165 H   0  0  0  0  0  0  0  0  0  0  0  0
    0.6164   -1.0516   -0.2313 C   0  0  0  0  0  0  0  0  0  0  0  0
    0.6537   -1.1952   -1.4520 O   0  0  0  0  0  0  0  0  0  0  0  0
    1.5056   -1.6280    0.5875 N   0  0  0  0  0  0  0  0  0  0  0  0
    1.4266   -1.4443    1.5750 H   0  0  0  0  0  0  0  0  0  0  0  0
    2.6023   -2.4805    0.1307 C   0  0  0  0  0  0  0  0  0  0  0  0
    3.2187   -1.9332   -0.5867 H   0  0  0  0  0  0  0  0  0  0  0  0
    3.2218   -2.7887    0.9743 H   0  0  0  0  0  0  0  0  0  0  0  0
    2.1995   -3.3653   -0.3652 H   0  0  0  0  0  0  0  0  0  0  0  0
  5  6  2  0  0  0  0
  5  7  1  0  0  0  0
  2  3  1  0  0  0  0
  2  4  1  0  0  0  0
  2  5  1  0  0  0  0
  1  2  1  0  0  0  0
 22 23  2  0  0  0  0
 22 24  1  0  0  0  0
 19 20  1  0  0  0  0
 19 21  1  0  0  0  0
 17 18  2  0  0  0  0
 17 19  1  0  0  0  0
 14 15  1  0  0  0  0
 14 16  1  0  0  0  0
 14 17  1  0  0  0  0
 11 12  1  0  0  0  0
 11 13  1  0  0  0  0
 11 14  1  0  0  0  0
  9 10  1  0  0  0  0
  9 11  1  0  0  0  0
  9 22  1  0  0  0  0
  7  8  1  0  0  0  0
  7  9  1  0  0  0  0
 26 27  1  0  0  0  0
 26 28  1  0  0  0  0
 26 29  1  0  0  0  0
 24 25  1  0  0  0  0
 24 26  1  0  0  0  0
M  END
$$$$
default_name
  -OEChem-01062215323D

 29 28  0     1  0  0  0  0  0999 V2000
   -3.3998   -3.6239    1.3678 H   0  0  0  0  0  0  0  0  0  0  0  0
   -3.3608   -2.6749    0.8348 C   0  0  0  0  0  0  0  0  0  0  0  0
   -4.0988   -1.9909    1.2498 H   0  0  0  0  0  0  0  0  0  0  0  0
   -3.5618   -2.8419   -0.2222 H   0  0  0  0  0  0  0  0  0  0  0  0
   -1.9818   -2.0809    0.9918 C   0  0  0  0  0  0  0  0  0  0  0  0
   -1.1288   -2.6669    1.6468 O   0  0  0  0  0  0  0  0  0  0  0  0
   -1.7648   -0.9089    0.3998 N   0  0  0  0  0  0  0  0  0  0  0  0
   -2.5238   -0.4719   -0.1032 H   0  0  0  0  0  0  0  0  0  0  0  0
   -0.4848   -0.1959    0.4138 C   0  0  1  0  0  0  0  0  0  0  0  0
   -0.5892    0.7191   -0.1715 H   0  0  0  0  0  0  0  0  0  0  0  0
   -0.1506    0.1960    1.8664 C   0  0  0  0  0  0  0  0  0  0  0  0
   -0.1959   -0.7035    2.4838 H   0  0  0  0  0  0  0  0  0  0  0  0
    0.8678    0.5855    1.9052 H   0  0  0  0  0  0  0  0  0  0  0  0
   -1.1067    1.2430    2.4641 C   0  0  0  0  0  0  0  0  0  0  0  0
   -1.0657    2.1575    1.8728 H   0  0  0  0  0  0  0  0  0  0  0  0
   -2.1238    0.8526    2.4316 H   0  0  0  0  0  0  0  0  0  0  0  0
   -0.7757    1.6021    3.9126 C   0  0  0  0  0  0  0  0  0  0  0  0
    0.1057    1.0590    4.5520 O   0  0  0  0  0  0  0  0  0  0  0  0
   -1.4731    2.5519    4.4971 N   0  0  0  0  0  0  0  0  0  0  0  0
   -1.2128    2.7475    5.4481 H   0  0  0  0  0  0  0  0  0  0  0  0
   -2.2066    3.0323    4.0165 H   0  0  0  0  0  0  0  0  0  0  0  0
    0.6164   -1.0516   -0.2313 C   0  0  0  0  0  0  0  0  0  0  0  0
    0.8279   -0.9797   -1.4405 O   0  0  0  0  0  0  0  0  0  0  0  0
    1.3096   -1.8685    0.5721 N   0  0  0  0  0  0  0  0  0  0  0  0
    1.0969   -1.8548    1.5568 H   0  0  0  0  0  0  0  0  0  0  0  0
    2.3777   -2.7540    0.1100 C   0  0  0  0  0  0  0  0  0  0  0  0
    3.1467   -2.1676   -0.3989 H   0  0  0  0  0  0  0  0  0  0  0  0
    2.8273   -3.2804    0.9532 H   0  0  0  0  0  0  0  0  0  0  0  0
    1.9740   -3.4807   -0.5971 H   0  0  0  0  0  0  0  0  0  0  0  0
  5  6  2  0  0  0  0
  5  7  1  0  0  0  0
  2  3  1  0  0  0  0
  2  4  1  0  0  0  0
  2  5  1  0  0  0  0
  1  2  1  0  0  0  0
 22 23  2  0  0  0  0
 22 24  1  0  0  0  0
 19 20  1  0  0  0  0
 19 21  1  0  0  0  0
 17 18  2  0  0  0  0
 17 19  1  0  0  0  0
 14 15  1  0  0  0  0
 14 16  1  0  0  0  0
 14 17  1  0  0  0  0
 11 12  1  0  0  0  0
 11 13  1  0  0  0  0
 11 14  1  0  0  0  0
  9 10  1  0  0  0  0
  9 11  1  0  0  0  0
  9 22  1  0  0  0  0
  7  8  1  0  0  0  0
  7  9  1  0  0  0  0
 26 27  1  0  0  0  0
 26 28  1  0  0  0  0
 26 29  1  0  0  0  0
 24 25  1  0  0  0  0
 24 26  1  0  0  0  0
M  END
$$$$
default_name
  -OEChem-01062215323D

 29 28  0     1  0  0  0  0  0999 V2000
   -3.3998   -3.6239    1.3678 H   0  0  0  0  0  0  0  0  0  0  0  0
   -3.3608   -2.6749    0.8348 C   0  0  0  0  0  0  0  0  0  0  0  0
   -4.0988   -1.9909    1.2498 H   0  0  0  0  0  0  0  0  0  0  0  0
   -3.5618   -2.8419   -0.2222 H   0  0  0  0  0  0  0  0  0  0  0  0
   -1.9818   -2.0809    0.9918 C   0  0  0  0  0  0  0  0  0  0  0  0
   -1.1288   -2.6669    1.6468 O   0  0  0  0  0  0  0  0  0  0  0  0
   -1.7648   -0.9089    0.3998 N   0  0  0  0  0  0  0  0  0  0  0  0
   -2.5238   -0.4719   -0.1032 H   0  0  0  0  0  0  0  0  0  0  0  0
   -0.4848   -0.1959    0.4138 C   0  0  1  0  0  0  0  0  0  0  0  0
   -0.5892    0.7191   -0.1715 H   0  0  0  0  0  0  0  0  0  0  0  0
   -0.1506    0.1960    1.8664 C   0  0  0  0  0  0  0  0  0  0  0  0
   -0.1959   -0.7035    2.4838 H   0  0  0  0  0  0  0  0  0  0  0  0
    0.8678    0.5855    1.9052 H   0  0  0  0  0  0  0  0  0  0  0  0
   -1.1067    1.2430    2.4641 C   0  0  0  0  0  0  0  0  0  0  0  0
   -1.0657    2.1575    1.8728 H   0  0  0  0  0  0  0  0  0  0  0  0
   -2.1238    0.8526    2.4316 H   0  0  0  0  0  0  0  0  0  0  0  0
   -0.7757    1.6021    3.9126 C   0  0  0  0  0  0  0  0  0  0  0  0
    0.1057    1.0590    4.5520 O   0  0  0  0  0  0  0  0  0  0  0  0
   -1.4731    2.5519    4.4971 N   0  0  0  0  0  0  0  0  0  0  0  0
   -1.2128    2.7475    5.4481 H   0  0  0  0  0  0  0  0  0  0  0  0
   -2.2066    3.0323    4.0165 H   0  0  0  0  0  0  0  0  0  0  0  0
    0.6164   -1.0516   -0.2313 C   0  0  0  0  0  0  0  0  0  0  0  0
    1.0179   -0.7926   -1.3644 O   0  0  0  0  0  0  0  0  0  0  0  0
    1.0964   -2.0767    0.4843 N   0  0  0  0  0  0  0  0  0  0  0  0
    0.7366   -2.2121    1.4156 H   0  0  0  0  0  0  0  0  0  0  0  0
    2.1339   -2.9899    0.0068 C   0  0  0  0  0  0  0  0  0  0  0  0
    3.0245   -2.4210   -0.2714 H   0  0  0  0  0  0  0  0  0  0  0  0
    2.3959   -3.7087    0.7848 H   0  0  0  0  0  0  0  0  0  0  0  0
    1.7770   -3.5246   -0.8750 H   0  0  0  0  0  0  0  0  0  0  0  0
  5  6  2  0  0  0  0
  5  7  1  0  0  0  0
  2  3  1  0  0  0  0
  2  4  1  0  0  0  0
  2  5  1  0  0  0  0
  1  2  1  0  0  0  0
 22 23  2  0  0  0  0
 22 24  1  0  0  0  0
 19 20  1  0  0  0  0
 19 21  1  0  0  0  0
 17 18  2  0  0  0  0
 17 19  1  0  0  0  0
 14 15  1  0  0  0  0
 14 16  1  0  0  0  0
 14 17  1  0  0  0  0
 11 12  1  0  0  0  0
 11 13  1  0  0  0  0
 11 14  1  0  0  0  0
  9 10  1  0  0  0  0
  9 11  1  0  0  0  0
  9 22  1  0  0  0  0
  7  8  1  0  0  0  0
  7  9  1  0  0  0  0
 26 27  1  0  0  0  0
 26 28  1  0  0  0  0
 26 29  1  0  0  0  0
 24 25  1  0  0  0  0
 24 26  1  0  0  0  0
M  END
$$$$
default_name
  -OEChem-01062215323D

 29 28  0     1  0  0  0  0  0999 V2000
   -3.3998   -3.6239    1.3678 H   0  0  0  0  0  0  0  0  0  0  0  0
   -3.3608   -2.6749    0.8348 C   0  0  0  0  0  0  0  0  0  0  0  0
   -4.0988   -1.9909    1.2498 H   0  0  0  0  0  0  0  0  0  0  0  0
   -3.5618   -2.8419   -0.2222 H   0  0  0  0  0  0  0  0  0  0  0  0
   -1.9818   -2.0809    0.9918 C   0  0  0  0  0  0  0  0  0  0  0  0
   -1.1288   -2.6669    1.6468 O   0  0  0  0  0  0  0  0  0  0  0  0
   -1.7648   -0.9089    0.3998 N   0  0  0  0  0  0  0  0  0  0  0  0
   -2.5238   -0.4719   -0.1032 H   0  0  0  0  0  0  0  0  0  0  0  0
   -0.4848   -0.1959    0.4138 C   0  0  1  0  0  0  0  0  0  0  0  0
   -0.5892    0.7191   -0.1715 H   0  0  0  0  0  0  0  0  0  0  0  0
   -0.1506    0.1960    1.8664 C   0  0  0  0  0  0  0  0  0  0  0  0
   -0.1959   -0.7035    2.4838 H   0  0  0  0  0  0  0  0  0  0  0  0
    0.8678    0.5855    1.9052 H   0  0  0  0  0  0  0  0  0  0  0  0
   -1.1067    1.2430    2.4641 C   0  0  0  0  0  0  0  0  0  0  0  0
   -1.0657    2.1575    1.8728 H   0  0  0  0  0  0  0  0  0  0  0  0
   -2.1238    0.8526    2.4316 H   0  0  0  0  0  0  0  0  0  0  0  0
   -0.7757    1.6021    3.9126 C   0  0  0  0  0  0  0  0  0  0  0  0
    0.1057    1.0590    4.5520 O   0  0  0  0  0  0  0  0  0  0  0  0
   -1.4731    2.5519    4.4971 N   0  0  0  0  0  0  0  0  0  0  0  0
   -1.2128    2.7475    5.4481 H   0  0  0  0  0  0  0  0  0  0  0  0
   -2.2066    3.0323    4.0165 H   0  0  0  0  0  0  0  0  0  0  0  0
    0.6164   -1.0516   -0.2313 C   0  0  0  0  0  0  0  0  0  0  0  0
    1.2108   -0.6466   -1.2287 O   0  0  0  0  0  0  0  0  0  0  0  0
    0.8805   -2.2384    0.3301 N   0  0  0  0  0  0  0  0  0  0  0  0
    0.3700   -2.4919    1.1609 H   0  0  0  0  0  0  0  0  0  0  0  0
    1.8877   -3.1722   -0.1717 C   0  0  0  0  0  0  0  0  0  0  0  0
    2.8606   -2.6761   -0.2128 H   0  0  0  0  0  0  0  0  0  0  0  0
    1.9569   -4.0442    0.4805 H   0  0  0  0  0  0  0  0  0  0  0  0
    1.6220   -3.4941   -1.1800 H   0  0  0  0  0  0  0  0  0  0  0  0
  5  6  2  0  0  0  0
  5  7  1  0  0  0  0
  2  3  1  0  0  0  0
  2  4  1  0  0  0  0
  2  5  1  0  0  0  0
  1  2  1  0  0  0  0
 22 23  2  0  0  0  0
 22 24  1  0  0  0  0
 19 20  1  0  0  0  0
 19 21  1  0  0  0  0
 17 18  2  0  0  0  0
 17 19  1  0  0  0  0
 14 15  1  0  0  0  0
 14 16  1  0  0  0  0
 14 17  1  0  0  0  0
 11 12  1  0  0  0  0
 11 13  1  0  0  0  0
 11 14  1  0  0  0  0
  9 10  1  0  0  0  0
  9 11  1  0  0  0  0
  9 22  1  0  0  0  0
  7  8  1  0  0  0  0
  7  9  1  0  0  0  0
 26 27  1  0  0  0  0
 26 28  1  0  0  0  0
 26 29  1  0  0  0  0
 24 25  1  0  0  0  0
 24 26  1  0  0  0  0
M  END
$$$$
default_name
  -OEChem-01062215323D

 29 28  0     1  0  0  0  0  0999 V2000
   -3.3998   -3.6239    1.3678 H   0  0  0  0  0  0  0  0  0  0  0  0
   -3.3608   -2.6749    0.8348 C   0  0  0  0  0  0  0  0  0  0  0  0
   -4.0988   -1.9909    1.2498 H   0  0  0  0  0  0  0  0  0  0  0  0
   -3.5618   -2.8419   -0.2222 H   0  0  0  0  0  0  0  0  0  0  0  0
   -1.9818   -2.0809    0.9918 C   0  0  0  0  0  0  0  0  0  0  0  0
   -1.1288   -2.6669    1.6468 O   0  0  0  0  0  0  0  0  0  0  0  0
   -1.7648   -0.9089    0.3998 N   0  0  0  0  0  0  0  0  0  0  0  0
   -2.5238   -0.4719   -0.1032 H   0  0  0  0  0  0  0  0  0  0  0  0
   -0.4848   -0.1959    0.4138 C   0  0  1  0  0  0  0  0  0  0  0  0
   -0.5892    0.7191   -0.1715 H   0  0  0  0  0  0  0  0  0  0  0  0
   -0.1506    0.1960    1.8664 C   0  0  0  0  0  0  0  0  0  0  0  0
   -0.1959   -0.7035    2.4838 H   0  0  0  0  0  0  0  0  0  0  0  0
    0.8678    0.5855    1.9052 H   0  0  0  0  0  0  0  0  0  0  0  0
   -1.1067    1.2430    2.4641 C   0  0  0  0  0  0  0  0  0  0  0  0
   -1.0657    2.1575    1.8728 H   0  0  0  0  0  0  0  0  0  0  0  0
   -2.1238    0.8526    2.4316 H   0  0  0  0  0  0  0  0  0  0  0  0
   -0.7757    1.6021    3.9126 C   0  0  0  0  0  0  0  0  0  0  0  0
    0.1057    1.0590    4.5520 O   0  0  0  0  0  0  0  0  0  0  0  0
   -1.4731    2.5519    4.4971 N   0  0  0  0  0  0  0  0  0  0  0  0
   -1.2128    2.7475    5.4481 H   0  0  0  0  0  0  0  0  0  0  0  0
   -2.2066    3.0323    4.0165 H   0  0  0  0  0  0  0  0  0  0  0  0
    0.6164   -1.0516   -0.2313 C   0  0  0  0  0  0  0  0  0  0  0  0
    1.3934   -0.5517   -1.0428 O   0  0  0  0  0  0  0  0  0  0  0  0
    0.6766   -2.3424    0.1202 N   0  0  0  0  0  0  0  0  0  0  0  0
    0.0222   -2.6750    0.8102 H   0  0  0  0  0  0  0  0  0  0  0  0
    1.6558   -3.2884   -0.4134 C   0  0  0  0  0  0  0  0  0  0  0  0
    2.6661   -2.9156   -0.2271 H   0  0  0  0  0  0  0  0  0  0  0  0
    1.5403   -4.2641    0.0610 H   0  0  0  0  0  0  0  0  0  0  0  0
    1.5196   -3.3913   -1.4913 H   0  0  0  0  0  0  0  0  0  0  0  0
  5  6  2  0  0  0  0
  5  7  1  0  0  0  0
  2  3  1  0  0  0  0
  2  4  1  0  0  0  0
  2  5  1  0  0  0  0
  1  2  1  0  0  0  0
 22 23  2  0  0  0  0
 22 24  1  0  0  0  0
 19 20  1  0  0  0  0
 19 21  1  0  0  0  0
 17 18  2  0  0  0  0
 17 19  1  0  0  0  0
 14 15  1  0  0  0  0
 14 16  1  0  0  0  0
 14 17  1  0  0  0  0
 11 12  1  0  0  0  0
 11 13  1  0  0  0  0
 11 14  1  0  0  0  0
  9 10  1  0  0  0  0
  9 11  1  0  0  0  0
  9 22  1  0  0  0  0
  7  8  1  0  0  0  0
  7  9  1  0  0  0  0
 26 27  1  0  0  0  0
 26 28  1  0  0  0  0
 26 29  1  0  0  0  0
 24 25  1  0  0  0  0
 24 26  1  0  0  0  0
M  END
$$$$
default_name
  -OEChem-01062215323D

 29 28  0     1  0  0  0  0  0999 V2000
   -3.3998   -3.6239    1.3678 H   0  0  0  0  0  0  0  0  0  0  0  0
   -3.3608   -2.6749    0.8348 C   0  0  0  0  0  0  0  0  0  0  0  0
   -4.0988   -1.9909    1.2498 H   0  0  0  0  0  0  0  0  0  0  0  0
   -3.5618   -2.8419   -0.2222 H   0  0  0  0  0  0  0  0  0  0  0  0
   -1.9818   -2.0809    0.9918 C   0  0  0  0  0  0  0  0  0  0  0  0
   -1.1288   -2.6669    1.6468 O   0  0  0  0  0  0  0  0  0  0  0  0
   -1.7648   -0.9089    0.3998 N   0  0  0  0  0  0  0  0  0  0  0  0
   -2.5238   -0.4719   -0.1032 H   0  0  0  0  0  0  0  0  0  0  0  0
   -0.4848   -0.1959    0.4138 C   0  0  1  0  0  0  0  0  0  0  0  0
   -0.5892    0.7191   -0.1715 H   0  0  0  0  0  0  0  0  0  0  0  0
   -0.1506    0.1960    1.8664 C   0  0  0  0  0  0  0  0  0  0  0  0
   -0.1959   -0.7035    2.4838 H   0  0  0  0  0  0  0  0  0  0  0  0
    0.8678    0.5855    1.9052 H   0  0  0  0  0  0  0  0  0  0  0  0
   -1.1067    1.2430    2.4641 C   0  0  0  0  0  0  0  0  0  0  0  0
   -1.0657    2.1575    1.8728 H   0  0  0  0  0  0  0  0  0  0  0  0
   -2.1238    0.8526    2.4316 H   0  0  0  0  0  0  0  0  0  0  0  0
   -0.7757    1.6021    3.9126 C   0  0  0  0  0  0  0  0  0  0  0  0
    0.1057    1.0590    4.5520 O   0  0  0  0  0  0  0  0  0  0  0  0
   -1.4731    2.5519    4.4971 N   0  0  0  0  0  0  0  0  0  0  0  0
   -1.2128    2.7475    5.4481 H   0  0  0  0  0  0  0  0  0  0  0  0
   -2.2066    3.0323    4.0165 H   0  0  0  0  0  0  0  0  0  0  0  0
    0.6164   -1.0516   -0.2313 C   0  0  0  0  0  0  0  0  0  0  0  0
    1.5533   -0.5144   -0.8193 O   0  0  0  0  0  0  0  0  0  0  0  0
    0.4987   -2.3818   -0.1314 N   0  0  0  0  0  0  0  0  0  0  0  0
   -0.2831   -2.7491    0.3874 H   0  0  0  0  0  0  0  0  0  0  0  0
    1.4541   -3.3306   -0.7018 C   0  0  0  0  0  0  0  0  0  0  0  0
    2.4542   -3.1231   -0.3134 H   0  0  0  0  0  0  0  0  0  0  0  0
    1.1744   -4.3534   -0.4450 H   0  0  0  0  0  0  0  0  0  0  0  0
    1.4767   -3.2230   -1.7876 H   0  0  0  0  0  0  0  0  0  0  0  0
  5  6  2  0  0  0  0
  5  7  1  0  0  0  0
  2  3  1  0  0  0  0
  2  4  1  0  0  0  0
  2  5  1  0  0  0  0
  1  2  1  0  0  0  0
 22 23  2  0  0  0  0
 22 24  1  0  0  0  0
 19 20  1  0  0  0  0
 19 21  1  0  0  0  0
 17 18  2  0  0  0  0
 17 19  1  0  0  0  0
 14 15  1  0  0  0  0
 14 16  1  0  0  0  0
 14 17  1  0  0  0  0
 11 12  1  0  0  0  0
 11 13  1  0  0  0  0
 11 14  1  0  0  0  0
  9 10  1  0  0  0  0
  9 11  1  0  0  0  0
  9 22  1  0  0  0  0
  7  8  1  0  0  0  0
  7  9  1  0  0  0  0
 26 27  1  0  0  0  0
 26 28  1  0  0  0  0
 26 29  1  0  0  0  0
 24 25  1  0  0  0  0
 24 26  1  0  0  0  0
M  END
$$$$
default_name
  -OEChem-01062215323D

 29 28  0     1  0  0  0  0  0999 V2000
   -3.3998   -3.6239    1.3678 H   0  0  0  0  0  0  0  0  0  0  0  0
   -3.3608   -2.6749    0.8348 C   0  0  0  0  0  0  0  0  0  0  0  0
   -4.0988   -1.9909    1.2498 H   0  0  0  0  0  0  0  0  0  0  0  0
   -3.5618   -2.8419   -0.2222 H   0  0  0  0  0  0  0  0  0  0  0  0
   -1.9818   -2.0809    0.9918 C   0  0  0  0  0  0  0  0  0  0  0  0
   -1.1288   -2.6669    1.6468 O   0  0  0  0  0  0  0  0  0  0  0  0
   -1.7648   -0.9089    0.3998 N   0  0  0  0  0  0  0  0  0  0  0  0
   -2.5238   -0.4719   -0.1032 H   0  0  0  0  0  0  0  0  0  0  0  0
   -0.4848   -0.1959    0.4138 C   0  0  1  0  0  0  0  0  0  0  0  0
   -0.5892    0.7191   -0.1715 H   0  0  0  0  0  0  0  0  0  0  0  0
   -0.1506    0.1960    1.8664 C   0  0  0  0  0  0  0  0  0  0  0  0
   -0.1959   -0.7035    2.4838 H   0  0  0  0  0  0  0  0  0  0  0  0
    0.8678    0.5855    1.9052 H   0  0  0  0  0  0  0  0  0  0  0  0
   -1.1067    1.2430    2.4641 C   0  0  0  0  0  0  0  0  0  0  0  0
   -1.0657    2.1575    1.8728 H   0  0  0  0  0  0  0  0  0  0  0  0
   -2.1238    0.8526    2.4316 H   0  0  0  0  0  0  0  0  0  0  0  0
   -0.7757    1.6021    3.9126 C   0  0  0  0  0  0  0  0  0  0  0  0
    0.1057    1.0590    4.5520 O   0  0  0  0  0  0  0  0  0  0  0  0
   -1.4731    2.5519    4.4971 N   0  0  0  0  0  0  0  0  0  0  0  0
   -1.2128    2.7475    5.4481 H   0  0  0  0  0  0  0  0  0  0  0  0
   -2.2066    3.0323    4.0165 H   0  0  0  0  0  0  0  0  0  0  0  0
    0.6164   -1.0516   -0.2313 C   0  0  0  0  0  0  0  0  0  0  0  0
    1.6796   -0.5373   -0.5735 O   0  0  0  0  0  0  0  0  0  0  0  0
    0.3587   -2.3539   -0.4073 N   0  0  0  0  0  0  0  0  0  0  0  0
   -0.5251   -2.7091   -0.0788 H   0  0  0  0  0  0  0  0  0  0  0  0
    1.2962   -3.2959   -1.0174 C   0  0  0  0  0  0  0  0  0  0  0  0
    2.2395   -3.2846   -0.4658 H   0  0  0  0  0  0  0  0  0  0  0  0
    0.8843   -4.3061   -1.0030 H   0  0  0  0  0  0  0  0  0  0  0  0
    1.4963   -3.0009   -2.0488 H   0  0  0  0  0  0  0  0  0  0  0  0
  5  6  2  0  0  0  0
  5  7  1  0  0  0  0
  2  3  1  0  0  0  0
  2  4  1  0  0  0  0
  2  5  1  0  0  0  0
  1  2  1  0  0  0  0
 22 23  2  0  0  0  0
 22 24  1  0  0  0  0
 19 20  1  0  0  0  0
 19 21  1  0  0  0  0
 17 18  2  0  0  0  0
 17 19  1  0  0  0  0
 14 15  1  0  0  0  0
 14 16  1  0  0  0  0
 14 17  1  0  0  0  0
 11 12  1  0  0  0  0
 11 13  1  0  0  0  0
 11 14  1  0  0  0  0
  9 10  1  0  0  0  0
  9 11  1  0  0  0  0
  9 22  1  0  0  0  0
  7  8  1  0  0  0  0
  7  9  1  0  0  0  0
 26 27  1  0  0  0  0
 26 28  1  0  0  0  0
 26 29  1  0  0  0  0
 24 25  1  0  0  0  0
 24 26  1  0  0  0  0
M  END
$$$$
default_name
  -OEChem-01062215323D

 29 28  0     1  0  0  0  0  0999 V2000
   -3.3998   -3.6239    1.3678 H   0  0  0  0  0  0  0  0  0  0  0  0
   -3.3608   -2.6749    0.8348 C   0  0  0  0  0  0  0  0  0  0  0  0
   -4.0988   -1.9909    1.2498 H   0  0  0  0  0  0  0  0  0  0  0  0
   -3.5618   -2.8419   -0.2222 H   0  0  0  0  0  0  0  0  0  0  0  0
   -1.9818   -2.0809    0.9918 C   0  0  0  0  0  0  0  0  0  0  0  0
   -1.1288   -2.6669    1.6468 O   0  0  0  0  0  0  0  0  0  0  0  0
   -1.7648   -0.9089    0.3998 N   0  0  0  0  0  0  0  0  0  0  0  0
   -2.5238   -0.4719   -0.1032 H   0  0  0  0  0  0  0  0  0  0  0  0
   -0.4848   -0.1959    0.4138 C   0  0  1  0  0  0  0  0  0  0  0  0
   -0.5892    0.7191   -0.1715 H   0  0  0  0  0  0  0  0  0  0  0  0
   -0.1506    0.1960    1.8664 C   0  0  0  0  0  0  0  0  0  0  0  0
   -0.1959   -0.7035    2.4838 H   0  0  0  0  0  0  0  0  0  0  0  0
    0.8678    0.5855    1.9052 H   0  0  0  0  0  0  0  0  0  0  0  0
   -1.1067    1.2430    2.4641 C   0  0  0  0  0  0  0  0  0  0  0  0
   -1.0657    2.1575    1.8728 H   0  0  0  0  0  0  0  0  0  0  0  0
   -2.1238    0.8526    2.4316 H   0  0  0  0  0  0  0  0  0  0  0  0
   -0.7757    1.6021    3.9126 C   0  0  0  0  0  0  0  0  0  0  0  0
    0.1057    1.0590    4.5520 O   0  0  0  0  0  0  0  0  0  0  0  0
   -1.4731    2.5519    4.4971 N   0  0  0  0  0  0  0  0  0  0  0  0
   -1.2128    2.7475    5.4481 H   0  0  0  0  0  0  0  0  0  0  0  0
   -2.2066    3.0323    4.0165 H   0  0  0  0  0  0  0  0  0  0  0  0
    0.6164   -1.0516   -0.2313 C   0  0  0  0  0  0  0  0  0  0  0  0
    1.7637   -0.6186   -0.3220 O   0  0  0  0  0  0  0  0  0  0  0  0
    0.2663   -2.2606   -0.6888 N   0  0  0  0  0  0  0  0  0  0  0  0
   -0.6873   -2.5576   -0.5565 H   0  0  0  0  0  0  0  0  0  0  0  0
    1.1929   -3.1867   -1.3385 C   0  0  0  0  0  0  0  0  0  0  0  0
    2.0365   -3.3889   -0.6740 H   0  0  0  0  0  0  0  0  0  0  0  0
    0.6895   -4.1254   -1.5751 H   0  0  0  0  0  0  0  0  0  0  0  0
    1.5769   -2.7400   -2.2571 H   0  0  0  0  0  0  0  0  0  0  0  0
  5  6  2  0  0  0  0
  5  7  1  0  0  0  0
  2  3  1  0  0  0  0
  2  4  1  0  0  0  0
  2  5  1  0  0  0  0
  1  2  1  0  0  0  0
 22 23  2  0  0  0  0
 22 24  1  0  0  0  0
 19 20  1  0  0  0  0
 19 21  1  0  0  0  0
 17 18  2  0  0  0  0
 17 19  1  0  0  0  0
 14 15  1  0  0  0  0
 14 16  1  0  0  0  0
 14 17  1  0  0  0  0
 11 12  1  0  0  0  0
 11 13  1  0  0  0  0
 11 14  1  0  0  0  0
  9 10  1  0  0  0  0
  9 11  1  0  0  0  0
  9 22  1  0  0  0  0
  7  8  1  0  0  0  0
  7  9  1  0  0  0  0
 26 27  1  0  0  0  0
 26 28  1  0  0  0  0
 26 29  1  0  0  0  0
 24 25  1  0  0  0  0
 24 26  1  0  0  0  0
M  END
$$$$
default_name
  -OEChem-01062215323D

 29 28  0     1  0  0  0  0  0999 V2000
   -3.3998   -3.6239    1.3678 H   0  0  0  0  0  0  0  0  0  0  0  0
   -3.3608   -2.6749    0.8348 C   0  0  0  0  0  0  0  0  0  0  0  0
   -4.0988   -1.9909    1.2498 H   0  0  0  0  0  0  0  0  0  0  0  0
   -3.5618   -2.8419   -0.2222 H   0  0  0  0  0  0  0  0  0  0  0  0
   -1.9818   -2.0809    0.9918 C   0  0  0  0  0  0  0  0  0  0  0  0
   -1.1288   -2.6669    1.6468 O   0  0  0  0  0  0  0  0  0  0  0  0
   -1.7648   -0.9089    0.3998 N   0  0  0  0  0  0  0  0  0  0  0  0
   -2.5238   -0.4719   -0.1032 H   0  0  0  0  0  0  0  0  0  0  0  0
   -0.4848   -0.1959    0.4138 C   0  0  1  0  0  0  0  0  0  0  0  0
   -0.5892    0.7191   -0.1715 H   0  0  0  0  0  0  0  0  0  0  0  0
   -0.1506    0.1960    1.8664 C   0  0  0  0  0  0  0  0  0  0  0  0
   -0.1959   -0.7035    2.4838 H   0  0  0  0  0  0  0  0  0  0  0  0
    0.8678    0.5855    1.9052 H   0  0  0  0  0  0  0  0  0  0  0  0
   -1.1067    1.2430    2.4641 C   0  0  0  0  0  0  0  0  0  0  0  0
   -1.0657    2.1575    1.8728 H   0  0  0  0  0  0  0  0  0  0  0  0
   -2.1238    0.8526    2.4316 H   0  0  0  0  0  0  0  0  0  0  0  0
   -0.7757    1.6021    3.9126 C   0  0  0  0  0  0  0  0  0  0  0  0
    0.1057    1.0590    4.5520 O   0  0  0  0  0  0  0  0  0  0  0  0
   -1.4731    2.5519    4.4971 N   0  0  0  0  0  0  0  0  0  0  0  0
   -1.2128    2.7475    5.4481 H   0  0  0  0  0  0  0  0  0  0  0  0
   -2.2066    3.0323    4.0165 H   0  0  0  0  0  0  0  0  0  0  0  0
    0.6164   -1.0516   -0.2313 C   0  0  0  0  0  0  0  0  0  0  0  0
    1.7999   -0.7530   -0.0821 O   0  0  0  0  0  0  0  0  0  0  0  0
    0.2278   -2.1081   -0.9567 N   0  0  0  0  0  0  0  0  0  0  0  0
   -0.7587   -2.3051   -1.0133 H   0  0  0  0  0  0  0  0  0  0  0  0
    1.1512   -3.0105   -1.6433 C   0  0  0  0  0  0  0  0  0  0  0  0
    1.8591   -3.4290   -0.9236 H   0  0  0  0  0  0  0  0  0  0  0  0
    0.6036   -3.8235   -2.1222 H   0  0  0  0  0  0  0  0  0  0  0  0
    1.7132   -2.4582   -2.3983 H   0  0  0  0  0  0  0  0  0  0  0  0
  5  6  2  0  0  0  0
  5  7  1  0  0  0  0
  2  3  1  0  0  0  0
  2  4  1  0  0  0  0
  2  5  1  0  0  0  0
  1  2  1  0  0  0  0
 22 23  2  0  0  0  0
 22 24  1  0  0  0  0
 19 20  1  0  0  0  0
 19 21  1  0  0  0  0
 17 18  2  0  0  0  0
 17 19  1  0  0  0  0
 14 15  1  0  0  0  0
 14 16  1  0  0  0  0
 14 17  1  0  0  0  0
 11 12  1  0  0  0  0
 11 13  1  0  0  0  0
 11 14  1  0  0  0  0
  9 10  1  0  0  0  0
  9 11  1  0  0  0  0
  9 22  1  0  0  0  0
  7  8  1  0  0  0  0
  7  9  1  0  0  0  0
 26 27  1  0  0  0  0
 26 28  1  0  0  0  0
 26 29  1  0  0  0  0
 24 25  1  0  0  0  0
 24 26  1  0  0  0  0
M  END
$$$$
default_name
  -OEChem-01062215323D

 29 28  0     1  0  0  0  0  0999 V2000
   -3.3998   -3.6239    1.3678 H   0  0  0  0  0  0  0  0  0  0  0  0
   -3.3608   -2.6749    0.8348 C   0  0  0  0  0  0  0  0  0  0  0  0
   -4.0988   -1.9909    1.2498 H   0  0  0  0  0  0  0  0  0  0  0  0
   -3.5618   -2.8419   -0.2222 H   0  0  0  0  0  0  0  0  0  0  0  0
   -1.9818   -2.0809    0.9918 C   0  0  0  0  0  0  0  0  0  0  0  0
   -1.1288   -2.6669    1.6468 O   0  0  0  0  0  0  0  0  0  0  0  0
   -1.7648   -0.9089    0.3998 N   0  0  0  0  0  0  0  0  0  0  0  0
   -2.5238   -0.4719   -0.1032 H   0  0  0  0  0  0  0  0  0  0  0  0
   -0.4848   -0.1959    0.4138 C   0  0  1  0  0  0  0  0  0  0  0  0
   -0.5892    0.7191   -0.1715 H   0  0  0  0  0  0  0  0  0  0  0  0
   -0.1506    0.1960    1.8664 C   0  0  0  0  0  0  0  0  0  0  0  0
   -0.1959   -0.7035    2.4838 H   0  0  0  0  0  0  0  0  0  0  0  0
    0.8678    0.5855    1.9052 H   0  0  0  0  0  0  0  0  0  0  0  0
   -1.1067    1.2430    2.4641 C   0  0  0  0  0  0  0  0  0  0  0  0
   -1.0657    2.1575    1.8728 H   0  0  0  0  0  0  0  0  0  0  0  0
   -2.1238    0.8526    2.4316 H   0  0  0  0  0  0  0  0  0  0  0  0
   -0.7757    1.6021    3.9126 C   0  0  0  0  0  0  0  0  0  0  0  0
    0.1057    1.0590    4.5520 O   0  0  0  0  0  0  0  0  0  0  0  0
   -1.4731    2.5519    4.4971 N   0  0  0  0  0  0  0  0  0  0  0  0
   -1.2128    2.7475    5.4481 H   0  0  0  0  0  0  0  0  0  0  0  0
   -2.2066    3.0323    4.0165 H   0  0  0  0  0  0  0  0  0  0  0  0
    0.6164   -1.0516   -0.2313 C   0  0  0  0  0  0  0  0  0  0  0  0
    1.7856   -0.9312    0.1299 O   0  0  0  0  0  0  0  0  0  0  0  0
    0.2458   -1.9070   -1.1928 N   0  0  0  0  0  0  0  0  0  0  0  0
   -0.7343   -1.9687   -1.4179 H   0  0  0  0  0  0  0  0  0  0  0  0
    1.1741   -2.7792   -1.9110 C   0  0  0  0  0  0  0  0  0  0  0  0
    1.7193   -3.4022   -1.1977 H   0  0  0  0  0  0  0  0  0  0  0  0
    0.6322   -3.4211   -2.6071 H   0  0  0  0  0  0  0  0  0  0  0  0
    1.8959   -2.1745   -2.4628 H   0  0  0  0  0  0  0  0  0  0  0  0
  5  6  2  0  0  0  0
  5  7  1  0  0  0  0
  2  3  1  0  0  0  0
  2  4  1  0  0  0  0
  2  5  1  0  0  0  0
  1  2  1  0  0  0  0
 22 23  2  0  0  0  0
 22 24  1  0  0  0  0
 19 20  1  0  0  0  0
 19 21  1  0  0  0  0
 17 18  2  0  0  0  0
 17 19  1  0  0  0  0
 14 15  1  0  0  0  0
 14 16  1  0  0  0  0
 14 17  1  0  0  0  0
 11 12  1  0  0  0  0
 11 13  1  0  0  0  0
 11 14  1  0  0  0  0
  9 10  1  0  0  0  0
  9 11  1  0  0  0  0
  9 22  1  0  0  0  0
  7  8  1  0  0  0  0
  7  9  1  0  0  0  0
 26 27  1  0  0  0  0
 26 28  1  0  0  0  0
 26 29  1  0  0  0  0
 24 25  1  0  0  0  0
 24 26  1  0  0  0  0
M  END
$$$$
default_name
  -OEChem-01062215323D

 29 28  0     1  0  0  0  0  0999 V2000
   -3.3998   -3.6239    1.3678 H   0  0  0  0  0  0  0  0  0  0  0  0
   -3.3608   -2.6749    0.8348 C   0  0  0  0  0  0  0  0  0  0  0  0
   -4.0988   -1.9909    1.2498 H   0  0  0  0  0  0  0  0  0  0  0  0
   -3.5618   -2.8419   -0.2222 H   0  0  0  0  0  0  0  0  0  0  0  0
   -1.9818   -2.0809    0.9918 C   0  0  0  0  0  0  0  0  0  0  0  0
   -1.1288   -2.6669    1.6468 O   0  0  0  0  0  0  0  0  0  0  0  0
   -1.7648   -0.9089    0.3998 N   0  0  0  0  0  0  0  0  0  0  0  0
   -2.5238   -0.4719   -0.1032 H   0  0  0  0  0  0  0  0  0  0  0  0
   -0.4848   -0.1959    0.4138 C   0  0  1  0  0  0  0  0  0  0  0  0
   -0.5892    0.7191   -0.1715 H   0  0  0  0  0  0  0  0  0  0  0  0
   -0.1506    0.1960    1.8664 C   0  0  0  0  0  0  0  0  0  0  0  0
   -0.1959   -0.7035    2.4838 H   0  0  0  0  0  0  0  0  0  0  0  0
    0.8678    0.5855    1.9052 H   0  0  0  0  0  0  0  0  0  0  0  0
   -1.1067    1.2430    2.4641 C   0  0  0  0  0  0  0  0  0  0  0  0
   -1.0657    2.1575    1.8728 H   0  0  0  0  0  0  0  0  0  0  0  0
   -2.1238    0.8526    2.4316 H   0  0  0  0  0  0  0  0  0  0  0  0
   -0.7757    1.6021    3.9126 C   0  0  0  0  0  0  0  0  0  0  0  0
    0.1057    1.0590    4.5520 O   0  0  0  0  0  0  0  0  0  0  0  0
   -1.4731    2.5519    4.4971 N   0  0  0  0  0  0  0  0  0  0  0  0
   -1.2128    2.7475    5.4481 H   0  0  0  0  0  0  0  0  0  0  0  0
   -2.2066    3.0323    4.0165 H   0  0  0  0  0  0  0  0  0  0  0  0
    0.6164   -1.0516   -0.2313 C   0  0  0  0  0  0  0  0  0  0  0  0
    1.7219   -1.1411    0.2996 O   0  0  0  0  0  0  0  0  0  0  0  0
    0.3190   -1.6709   -1.3809 N   0  0  0  0  0  0  0  0  0  0  0  0
   -0.6159   -1.5713   -1.7429 H   0  0  0  0  0  0  0  0  0  0  0  0
    1.2599   -2.5086   -2.1234 C   0  0  0  0  0  0  0  0  0  0  0  0
    1.6268   -3.3102   -1.4777 H   0  0  0  0  0  0  0  0  0  0  0  0
    0.7734   -2.9456   -2.9967 H   0  0  0  0  0  0  0  0  0  0  0  0
    2.1124   -1.9084   -2.4461 H   0  0  0  0  0  0  0  0  0  0  0  0
  5  6  2  0  0  0  0
  5  7  1  0  0  0  0
  2  3  1  0  0  0  0
  2  4  1  0  0  0  0
  2  5  1  0  0  0  0
  1  2  1  0  0  0  0
 22 23  2  0  0  0  0
 22 24  1  0  0  0  0
 19 20  1  0  0  0  0
 19 21  1  0  0  0  0
 17 18  2  0  0  0  0
 17 19  1  0  0  0  0
 14 15  1  0  0  0  0
 14 16  1  0  0  0  0
 14 17  1  0  0  0  0
 11 12  1  0  0  0  0
 11 13  1  0  0  0  0
 11 14  1  0  0  0  0
  9 10  1  0  0  0  0
  9 11  1  0  0  0  0
  9 22  1  0  0  0  0
  7  8  1  0  0  0  0
  7  9  1  0  0  0  0
 26 27  1  0  0  0  0
 26 28  1  0  0  0  0
 26 29  1  0  0  0  0
 24 25  1  0  0  0  0
 24 26  1  0  0  0  0
M  END
$$$$
default_name
  -OEChem-01062215323D

 29 28  0     1  0  0  0  0  0999 V2000
   -3.3998   -3.6239    1.3678 H   0  0  0  0  0  0  0  0  0  0  0  0
   -3.3608   -2.6749    0.8348 C   0  0  0  0  0  0  0  0  0  0  0  0
   -4.0988   -1.9909    1.2498 H   0  0  0  0  0  0  0  0  0  0  0  0
   -3.5618   -2.8419   -0.2222 H   0  0  0  0  0  0  0  0  0  0  0  0
   -1.9818   -2.0809    0.9918 C   0  0  0  0  0  0  0  0  0  0  0  0
   -1.1288   -2.6669    1.6468 O   0  0  0  0  0  0  0  0  0  0  0  0
   -1.7648   -0.9089    0.3998 N   0  0  0  0  0  0  0  0  0  0  0  0
   -2.5238   -0.4719   -0.1032 H   0  0  0  0  0  0  0  0  0  0  0  0
   -0.4848   -0.1959    0.4138 C   0  0  1  0  0  0  0  0  0  0  0  0
   -0.5892    0.7191   -0.1715 H   0  0  0  0  0  0  0  0  0  0  0  0
   -0.1506    0.1960    1.8664 C   0  0  0  0  0  0  0  0  0  0  0  0
   -0.1959   -0.7035    2.4838 H   0  0  0  0  0  0  0  0  0  0  0  0
    0.8678    0.5855    1.9052 H   0  0  0  0  0  0  0  0  0  0  0  0
   -1.1067    1.2430    2.4641 C   0  0  0  0  0  0  0  0  0  0  0  0
   -1.0657    2.1575    1.8728 H   0  0  0  0  0  0  0  0  0  0  0  0
   -2.1238    0.8526    2.4316 H   0  0  0  0  0  0  0  0  0  0  0  0
   -0.7757    1.6021    3.9126 C   0  0  0  0  0  0  0  0  0  0  0  0
    0.1057    1.0590    4.5520 O   0  0  0  0  0  0  0  0  0  0  0  0
   -1.4731    2.5519    4.4971 N   0  0  0  0  0  0  0  0  0  0  0  0
   -1.2128    2.7475    5.4481 H   0  0  0  0  0  0  0  0  0  0  0  0
   -2.2066    3.0323    4.0165 H   0  0  0  0  0  0  0  0  0  0  0  0
    0.6164   -1.0516   -0.2313 C   0  0  0  0  0  0  0  0  0  0  0  0
    1.6131   -1.3684    0.4153 O   0  0  0  0  0  0  0  0  0  0  0  0
    0.4425   -1.4159   -1.5082 N   0  0  0  0  0  0  0  0  0  0  0  0
   -0.4116   -1.1401   -1.9660 H   0  0  0  0  0  0  0  0  0  0  0  0
    1.4029   -2.2171   -2.2660 C   0  0  0  0  0  0  0  0  0  0  0  0
    1.5877   -3.1594   -1.7444 H   0  0  0  0  0  0  0  0  0  0  0  0
    1.0176   -2.4294   -3.2645 H   0  0  0  0  0  0  0  0  0  0  0  0
    2.3481   -1.6780   -2.3494 H   0  0  0  0  0  0  0  0  0  0  0  0
  5  6  2  0  0  0  0
  5  7  1  0  0  0  0
  2  3  1  0  0  0  0
  2  4  1  0  0  0  0
  2  5  1  0  0  0  0
  1  2  1  0  0  0  0
 22 23  2  0  0  0  0
 22 24  1  0  0  0  0
 19 20  1  0  0  0  0
 19 21  1  0  0  0  0
 17 18  2  0  0  0  0
 17 19  1  0  0  0  0
 14 15  1  0  0  0  0
 14 16  1  0  0  0  0
 14 17  1  0  0  0  0
 11 12  1  0  0  0  0
 11 13  1  0  0  0  0
 11 14  1  0  0  0  0
  9 10  1  0  0  0  0
  9 11  1  0  0  0  0
  9 22  1  0  0  0  0
  7  8  1  0  0  0  0
  7  9  1  0  0  0  0
 26 27  1  0  0  0  0
 26 28  1  0  0  0  0
 26 29  1  0  0  0  0
 24 25  1  0  0  0  0
 24 26  1  0  0  0  0
M  END
$$$$
default_name
  -OEChem-01062215323D

 29 28  0     1  0  0  0  0  0999 V2000
   -3.3998   -3.6239    1.3678 H   0  0  0  0  0  0  0  0  0  0  0  0
   -3.3608   -2.6749    0.8348 C   0  0  0  0  0  0  0  0  0  0  0  0
   -4.0988   -1.9909    1.2498 H   0  0  0  0  0  0  0  0  0  0  0  0
   -3.5618   -2.8419   -0.2222 H   0  0  0  0  0  0  0  0  0  0  0  0
   -1.9818   -2.0809    0.9918 C   0  0  0  0  0  0  0  0  0  0  0  0
   -1.1288   -2.6669    1.6468 O   0  0  0  0  0  0  0  0  0  0  0  0
   -1.7648   -0.9089    0.3998 N   0  0  0  0  0  0  0  0  0  0  0  0
   -2.5238   -0.4719   -0.1032 H   0  0  0  0  0  0  0  0  0  0  0  0
   -0.4848   -0.1959    0.4138 C   0  0  1  0  0  0  0  0  0  0  0  0
   -0.5892    0.7191   -0.1715 H   0  0  0  0  0  0  0  0  0  0  0  0
   -0.1506    0.1960    1.8664 C   0  0  0  0  0  0  0  0  0  0  0  0
   -0.1959   -0.7035    2.4838 H   0  0  0  0  0  0  0  0  0  0  0  0
    0.8678    0.5855    1.9052 H   0  0  0  0  0  0  0  0  0  0  0  0
   -1.1067    1.2430    2.4641 C   0  0  0  0  0  0  0  0  0  0  0  0
   -1.0657    2.1575    1.8728 H   0  0  0  0  0  0  0  0  0  0  0  0
   -2.1238    0.8526    2.4316 H   0  0  0  0  0  0  0  0  0  0  0  0
   -0.7757    1.6021    3.9126 C   0  0  0  0  0  0  0  0  0  0  0  0
    0.1057    1.0590    4.5520 O   0  0  0  0  0  0  0  0  0  0  0  0
   -1.4731    2.5519    4.4971 N   0  0  0  0  0  0  0  0  0  0  0  0
   -1.2128    2.7475    5.4481 H   0  0  0  0  0  0  0  0  0  0  0  0
   -2.2066    3.0323    4.0165 H   0  0  0  0  0  0  0  0  0  0  0  0
    0.6164   -1.0516   -0.2313 C   0  0  0  0  0  0  0  0  0  0  0  0
    1.4667   -1.5976    0.4693 O   0  0  0  0  0  0  0  0  0  0  0  0
    0.6079   -1.1594   -1.5662 N   0  0  0  0  0  0  0  0  0  0  0  0
   -0.1352   -0.7044   -2.0720 H   0  0  0  0  0  0  0  0  0  0  0  0
    1.5931   -1.9247   -2.3291 C   0  0  0  0  0  0  0  0  0  0  0  0
    1.6048   -2.9600   -1.9796 H   0  0  0  0  0  0  0  0  0  0  0  0
    1.3483   -1.9076   -3.3922 H   0  0  0  0  0  0  0  0  0  0  0  0
    2.5868   -1.4991   -2.1793 H   0  0  0  0  0  0  0  0  0  0  0  0
  5  6  2  0  0  0  0
  5  7  1  0  0  0  0
  2  3  1  0  0  0  0
  2  4  1  0  0  0  0
  2  5  1  0  0  0  0
  1  2  1  0  0  0  0
 22 23  2  0  0  0  0
 22 24  1  0  0  0  0
 19 20  1  0  0  0  0
 19 21  1  0  0  0  0
 17 18  2  0  0  0  0
 17 19  1  0  0  0  0
 14 15  1  0  0  0  0
 14 16  1  0  0  0  0
 14 17  1  0  0  0  0
 11 12  1  0  0  0  0
 11 13  1  0  0  0  0
 11 14  1  0  0  0  0
  9 10  1  0  0  0  0
  9 11  1  0  0  0  0
  9 22  1  0  0  0  0
  7  8  1  0  0  0  0
  7  9  1  0  0  0  0
 26 27  1  0  0  0  0
 26 28  1  0  0  0  0
 26 29  1  0  0  0  0
 24 25  1  0  0  0  0
 24 26  1  0  0  0  0
M  END
$$$$
default_name
  -OEChem-01062215323D

 29 28  0     1  0  0  0  0  0999 V2000
   -3.3998   -3.6239    1.3678 H   0  0  0  0  0  0  0  0  0  0  0  0
   -3.3608   -2.6749    0.8348 C   0  0  0  0  0  0  0  0  0  0  0  0
   -4.0988   -1.9909    1.2498 H   0  0  0  0  0  0  0  0  0  0  0  0
   -3.5618   -2.8419   -0.2222 H   0  0  0  0  0  0  0  0  0  0  0  0
   -1.9818   -2.0809    0.9918 C   0  0  0  0  0  0  0  0  0  0  0  0
   -1.1288   -2.6669    1.6468 O   0  0  0  0  0  0  0  0  0  0  0  0
   -1.7648   -0.9089    0.3998 N   0  0  0  0  0  0  0  0  0  0  0  0
   -2.5238   -0.4719   -0.1032 H   0  0  0  0  0  0  0  0  0  0  0  0
   -0.4848   -0.1959    0.4138 C   0  0  1  0  0  0  0  0  0  0  0  0
   -0.5892    0.7191   -0.1715 H   0  0  0  0  0  0  0  0  0  0  0  0
   -0.1506    0.1960    1.8664 C   0  0  0  0  0  0  0  0  0  0  0  0
   -0.1959   -0.7035    2.4838 H   0  0  0  0  0  0  0  0  0  0  0  0
    0.8678    0.5855    1.9052 H   0  0  0  0  0  0  0  0  0  0  0  0
   -1.1067    1.2430    2.4641 C   0  0  0  0  0  0  0  0  0  0  0  0
   -1.0657    2.1575    1.8728 H   0  0  0  0  0  0  0  0  0  0  0  0
   -2.1238    0.8526    2.4316 H   0  0  0  0  0  0  0  0  0  0  0  0
   -0.7757    1.6021    3.9126 C   0  0  0  0  0  0  0  0  0  0  0  0
    0.1057    1.0590    4.5520 O   0  0  0  0  0  0  0  0  0  0  0  0
   -1.4731    2.5519    4.4971 N   0  0  0  0  0  0  0  0  0  0  0  0
   -1.2128    2.7475    5.4481 H   0  0  0  0  0  0  0  0  0  0  0  0
   -2.2066    3.0323    4.0165 H   0  0  0  0  0  0  0  0  0  0  0  0
    0.6164   -1.0516   -0.2313 C   0  0  0  0  0  0  0  0  0  0  0  0
    1.2925   -1.8131    0.4579 O   0  0  0  0  0  0  0  0  0  0  0  0
    0.8039   -0.9189   -1.5507 N   0  0  0  0  0  0  0  0  0  0  0  0
    0.1945   -0.2939   -2.0538 H   0  0  0  0  0  0  0  0  0  0  0  0
    1.8178   -1.6512   -2.3084 C   0  0  0  0  0  0  0  0  0  0  0  0
    1.6769   -2.7257   -2.1675 H   0  0  0  0  0  0  0  0  0  0  0  0
    1.7427   -1.4158   -3.3711 H   0  0  0  0  0  0  0  0  0  0  0  0
    2.8123   -1.3836   -1.9474 H   0  0  0  0  0  0  0  0  0  0  0  0
  5  6  2  0  0  0  0
  5  7  1  0  0  0  0
  2  3  1  0  0  0  0
  2  4  1  0  0  0  0
  2  5  1  0  0  0  0
  1  2  1  0  0  0  0
 22 23  2  0  0  0  0
 22 24  1  0  0  0  0
 19 20  1  0  0  0  0
 19 21  1  0  0  0  0
 17 18  2  0  0  0  0
 17 19  1  0  0  0  0
 14 15  1  0  0  0  0
 14 16  1  0  0  0  0
 14 17  1  0  0  0  0
 11 12  1  0  0  0  0
 11 13  1  0  0  0  0
 11 14  1  0  0  0  0
  9 10  1  0  0  0  0
  9 11  1  0  0  0  0
  9 22  1  0  0  0  0
  7  8  1  0  0  0  0
  7  9  1  0  0  0  0
 26 27  1  0  0  0  0
 26 28  1  0  0  0  0
 26 29  1  0  0  0  0
 24 25  1  0  0  0  0
 24 26  1  0  0  0  0
M  END
$$$$
default_name
  -OEChem-01062215323D

 29 28  0     1  0  0  0  0  0999 V2000
   -3.3998   -3.6239    1.3678 H   0  0  0  0  0  0  0  0  0  0  0  0
   -3.3608   -2.6749    0.8348 C   0  0  0  0  0  0  0  0  0  0  0  0
   -4.0988   -1.9909    1.2498 H   0  0  0  0  0  0  0  0  0  0  0  0
   -3.5618   -2.8419   -0.2222 H   0  0  0  0  0  0  0  0  0  0  0  0
   -1.9818   -2.0809    0.9918 C   0  0  0  0  0  0  0  0  0  0  0  0
   -1.1288   -2.6669    1.6468 O   0  0  0  0  0  0  0  0  0  0  0  0
   -1.7648   -0.9089    0.3998 N   0  0  0  0  0  0  0  0  0  0  0  0
   -2.5238   -0.4719   -0.1032 H   0  0  0  0  0  0  0  0  0  0  0  0
   -0.4848   -0.1959    0.4138 C   0  0  1  0  0  0  0  0  0  0  0  0
   -0.5892    0.7191   -0.1715 H   0  0  0  0  0  0  0  0  0  0  0  0
   -0.1506    0.1960    1.8664 C   0  0  0  0  0  0  0  0  0  0  0  0
   -0.1959   -0.7035    2.4838 H   0  0  0  0  0  0  0  0  0  0  0  0
    0.8678    0.5855    1.9052 H   0  0  0  0  0  0  0  0  0  0  0  0
   -1.1067    1.2430    2.4641 C   0  0  0  0  0  0  0  0  0  0  0  0
   -1.0657    2.1575    1.8728 H   0  0  0  0  0  0  0  0  0  0  0  0
   -2.1238    0.8526    2.4316 H   0  0  0  0  0  0  0  0  0  0  0  0
   -0.7757    1.6021    3.9126 C   0  0  0  0  0  0  0  0  0  0  0  0
    0.1057    1.0590    4.5520 O   0  0  0  0  0  0  0  0  0  0  0  0
   -1.4731    2.5519    4.4971 N   0  0  0  0  0  0  0  0  0  0  0  0
   -1.2128    2.7475    5.4481 H   0  0  0  0  0  0  0  0  0  0  0  0
   -2.2066    3.0323    4.0165 H   0  0  0  0  0  0  0  0  0  0  0  0
    0.6164   -1.0516   -0.2313 C   0  0  0  0  0  0  0  0  0  0  0  0
    1.1025   -2.0002    0.3817 O   0  0  0  0  0  0  0  0  0  0  0  0
    1.0170   -0.7107   -1.4629 N   0  0  0  0  0  0  0  0  0  0  0  0
    0.5549    0.0634   -1.9126 H   0  0  0  0  0  0  0  0  0  0  0  0
    2.0615   -1.4153   -2.2052 C   0  0  0  0  0  0  0  0  0  0  0  0
    1.7990   -2.4723   -2.2950 H   0  0  0  0  0  0  0  0  0  0  0  0
    2.1741   -0.9876   -3.2026 H   0  0  0  0  0  0  0  0  0  0  0  0
    3.0093   -1.3397   -1.6695 H   0  0  0  0  0  0  0  0  0  0  0  0
  5  6  2  0  0  0  0
  5  7  1  0  0  0  0
  2  3  1  0  0  0  0
  2  4  1  0  0  0  0
  2  5  1  0  0  0  0
  1  2  1  0  0  0  0
 22 23  2  0  0  0  0
 22 24  1  0  0  0  0
 19 20  1  0  0  0  0
 19 21  1  0  0  0  0
 17 18  2  0  0  0  0
 17 19  1  0  0  0  0
 14 15  1  0  0  0  0
 14 16  1  0  0  0  0
 14 17  1  0  0  0  0
 11 12  1  0  0  0  0
 11 13  1  0  0  0  0
 11 14  1  0  0  0  0
  9 10  1  0  0  0  0
  9 11  1  0  0  0  0
  9 22  1  0  0  0  0
  7  8  1  0  0  0  0
  7  9  1  0  0  0  0
 26 27  1  0  0  0  0
 26 28  1  0  0  0  0
 26 29  1  0  0  0  0
 24 25  1  0  0  0  0
 24 26  1  0  0  0  0
M  END
$$$$
default_name
  -OEChem-01062215323D

 29 28  0     1  0  0  0  0  0999 V2000
   -3.3998   -3.6239    1.3678 H   0  0  0  0  0  0  0  0  0  0  0  0
   -3.3608   -2.6749    0.8348 C   0  0  0  0  0  0  0  0  0  0  0  0
   -4.0988   -1.9909    1.2498 H   0  0  0  0  0  0  0  0  0  0  0  0
   -3.5618   -2.8419   -0.2222 H   0  0  0  0  0  0  0  0  0  0  0  0
   -1.9818   -2.0809    0.9918 C   0  0  0  0  0  0  0  0  0  0  0  0
   -1.1288   -2.6669    1.6468 O   0  0  0  0  0  0  0  0  0  0  0  0
   -1.7648   -0.9089    0.3998 N   0  0  0  0  0  0  0  0  0  0  0  0
   -2.5238   -0.4719   -0.1032 H   0  0  0  0  0  0  0  0  0  0  0  0
   -0.4848   -0.1959    0.4138 C   0  0  1  0  0  0  0  0  0  0  0  0
   -0.5892    0.7191   -0.1715 H   0  0  0  0  0  0  0  0  0  0  0  0
   -0.1506    0.1960    1.8664 C   0  0  0  0  0  0  0  0  0  0  0  0
   -0.1959   -0.7035    2.4838 H   0  0  0  0  0  0  0  0  0  0  0  0
    0.8678    0.5855    1.9052 H   0  0  0  0  0  0  0  0  0  0  0  0
   -1.1067    1.2430    2.4641 C   0  0  0  0  0  0  0  0  0  0  0  0
   -1.0657    2.1575    1.8728 H   0  0  0  0  0  0  0  0  0  0  0  0
   -2.1238    0.8526    2.4316 H   0  0  0  0  0  0  0  0  0  0  0  0
   -0.7757    1.6021    3.9126 C   0  0  0  0  0  0  0  0  0  0  0  0
    0.1057    1.0590    4.5520 O   0  0  0  0  0  0  0  0  0  0  0  0
   -1.4731    2.5519    4.4971 N   0  0  0  0  0  0  0  0  0  0  0  0
   -1.2128    2.7475    5.4481 H   0  0  0  0  0  0  0  0  0  0  0  0
   -2.2066    3.0323    4.0165 H   0  0  0  0  0  0  0  0  0  0  0  0
    0.6164   -1.0516   -0.2313 C   0  0  0  0  0  0  0  0  0  0  0  0
    0.9096   -2.1462    0.2461 O   0  0  0  0  0  0  0  0  0  0  0  0
    1.2329   -0.5491   -1.3088 N   0  0  0  0  0  0  0  0  0  0  0  0
    0.9214    0.3432   -1.6579 H   0  0  0  0  0  0  0  0  0  0  0  0
    2.3077   -1.2330   -2.0267 C   0  0  0  0  0  0  0  0  0  0  0  0
    1.9629   -2.2171   -2.3536 H   0  0  0  0  0  0  0  0  0  0  0  0
    2.6131   -0.6521   -2.8983 H   0  0  0  0  0  0  0  0  0  0  0  0
    3.1643   -1.3702   -1.3645 H   0  0  0  0  0  0  0  0  0  0  0  0
  5  6  2  0  0  0  0
  5  7  1  0  0  0  0
  2  3  1  0  0  0  0
  2  4  1  0  0  0  0
  2  5  1  0  0  0  0
  1  2  1  0  0  0  0
 22 23  2  0  0  0  0
 22 24  1  0  0  0  0
 19 20  1  0  0  0  0
 19 21  1  0  0  0  0
 17 18  2  0  0  0  0
 17 19  1  0  0  0  0
 14 15  1  0  0  0  0
 14 16  1  0  0  0  0
 14 17  1  0  0  0  0
 11 12  1  0  0  0  0
 11 13  1  0  0  0  0
 11 14  1  0  0  0  0
  9 10  1  0  0  0  0
  9 11  1  0  0  0  0
  9 22  1  0  0  0  0
  7  8  1  0  0  0  0
  7  9  1  0  0  0  0
 26 27  1  0  0  0  0
 26 28  1  0  0  0  0
 26 29  1  0  0  0  0
 24 25  1  0  0  0  0
 24 26  1  0  0  0  0
M  END
$$$$
default_name
  -OEChem-01062215323D

 29 28  0     1  0  0  0  0  0999 V2000
   -3.3998   -3.6239    1.3678 H   0  0  0  0  0  0  0  0  0  0  0  0
   -3.3608   -2.6749    0.8348 C   0  0  0  0  0  0  0  0  0  0  0  0
   -4.0988   -1.9909    1.2498 H   0  0  0  0  0  0  0  0  0  0  0  0
   -3.5618   -2.8419   -0.2222 H   0  0  0  0  0  0  0  0  0  0  0  0
   -1.9818   -2.0809    0.9918 C   0  0  0  0  0  0  0  0  0  0  0  0
   -1.1288   -2.6669    1.6468 O   0  0  0  0  0  0  0  0  0  0  0  0
   -1.7648   -0.9089    0.3998 N   0  0  0  0  0  0  0  0  0  0  0  0
   -2.5238   -0.4719   -0.1032 H   0  0  0  0  0  0  0  0  0  0  0  0
   -0.4848   -0.1959    0.4138 C   0  0  1  0  0  0  0  0  0  0  0  0
   -0.5892    0.7191   -0.1715 H   0  0  0  0  0  0  0  0  0  0  0  0
   -0.1506    0.1960    1.8664 C   0  0  0  0  0  0  0  0  0  0  0  0
   -0.1959   -0.7035    2.4838 H   0  0  0  0  0  0  0  0  0  0  0  0
    0.8678    0.5855    1.9052 H   0  0  0  0  0  0  0  0  0  0  0  0
   -1.1067    1.2430    2.4641 C   0  0  0  0  0  0  0  0  0  0  0  0
   -1.0657    2.1575    1.8728 H   0  0  0  0  0  0  0  0  0  0  0  0
   -2.1238    0.8526    2.4316 H   0  0  0  0  0  0  0  0  0  0  0  0
   -0.7757    1.6021    3.9126 C   0  0  0  0  0  0  0  0  0  0  0  0
    0.1057    1.0590    4.5520 O   0  0  0  0  0  0  0  0  0  0  0  0
   -1.4731    2.5519    4.4971 N   0  0  0  0  0  0  0  0  0  0  0  0
   -1.2128    2.7475    5.4481 H   0  0  0  0  0  0  0  0  0  0  0  0
   -2.2066    3.0323    4.0165 H   0  0  0  0  0  0  0  0  0  0  0  0
    0.6164   -1.0516   -0.2313 C   0  0  0  0  0  0  0  0  0  0  0  0
    0.7269   -2.2411    0.0601 O   0  0  0  0  0  0  0  0  0  0  0  0
    1.4368   -0.4450   -1.0988 N   0  0  0  0  0  0  0  0  0  0  0  0
    1.2692    0.5263   -1.3072 H   0  0  0  0  0  0  0  0  0  0  0  0
    2.5396   -1.1168   -1.7850 C   0  0  0  0  0  0  0  0  0  0  0  0
    2.1575   -1.9776   -2.3392 H   0  0  0  0  0  0  0  0  0  0  0  0
    3.0297   -0.4322   -2.4789 H   0  0  0  0  0  0  0  0  0  0  0  0
    3.2667   -1.4731   -1.0533 H   0  0  0  0  0  0  0  0  0  0  0  0
  5  6  2  0  0  0  0
  5  7  1  0  0  0  0
  2  3  1  0  0  0  0
  2  4  1  0  0  0  0
  2  5  1  0  0  0  0
  1  2  1  0  0  0  0
 22 23  2  0  0  0  0
 22 24  1  0  0  0  0
 19 20  1  0  0  0  0
 19 21  1  0  0  0  0
 17 18  2  0  0  0  0
 17 19  1  0  0  0  0
 14 15  1  0  0  0  0
 14 16  1  0  0  0  0
 14 17  1  0  0  0  0
 11 12  1  0  0  0  0
 11 13  1  0  0  0  0
 11 14  1  0  0  0  0
  9 10  1  0  0  0  0
  9 11  1  0  0  0  0
  9 22  1  0  0  0  0
  7  8  1  0  0  0  0
  7  9  1  0  0  0  0
 26 27  1  0  0  0  0
 26 28  1  0  0  0  0
 26 29  1  0  0  0  0
 24 25  1  0  0  0  0
 24 26  1  0  0  0  0
M  END
$$$$
default_name
  -OEChem-01062215323D

 29 28  0     1  0  0  0  0  0999 V2000
   -3.3998   -3.6239    1.3678 H   0  0  0  0  0  0  0  0  0  0  0  0
   -3.3608   -2.6749    0.8348 C   0  0  0  0  0  0  0  0  0  0  0  0
   -4.0988   -1.9909    1.2498 H   0  0  0  0  0  0  0  0  0  0  0  0
   -3.5618   -2.8419   -0.2222 H   0  0  0  0  0  0  0  0  0  0  0  0
   -1.9818   -2.0809    0.9918 C   0  0  0  0  0  0  0  0  0  0  0  0
   -1.1288   -2.6669    1.6468 O   0  0  0  0  0  0  0  0  0  0  0  0
   -1.7648   -0.9089    0.3998 N   0  0  0  0  0  0  0  0  0  0  0  0
   -2.5238   -0.4719   -0.1032 H   0  0  0  0  0  0  0  0  0  0  0  0
   -0.4848   -0.1959    0.4138 C   0  0  1  0  0  0  0  0  0  0  0  0
   -0.5892    0.7191   -0.1715 H   0  0  0  0  0  0  0  0  0  0  0  0
   -0.1506    0.1960    1.8664 C   0  0  0  0  0  0  0  0  0  0  0  0
   -0.1959   -0.7035    2.4838 H   0  0  0  0  0  0  0  0  0  0  0  0
    0.8678    0.5855    1.9052 H   0  0  0  0  0  0  0  0  0  0  0  0
   -1.1067    1.2430    2.4641 C   0  0  0  0  0  0  0  0  0  0  0  0
   -1.0657    2.1575    1.8728 H   0  0  0  0  0  0  0  0  0  0  0  0
   -2.1238    0.8526    2.4316 H   0  0  0  0  0  0  0  0  0  0  0  0
   -0.7757    1.6021    3.9126 C   0  0  0  0  0  0  0  0  0  0  0  0
    0.1057    1.0590    4.5520 O   0  0  0  0  0  0  0  0  0  0  0  0
   -1.4731    2.5519    4.4971 N   0  0  0  0  0  0  0  0  0  0  0  0
   -1.2128    2.7475    5.4481 H   0  0  0  0  0  0  0  0  0  0  0  0
   -2.2066    3.0323    4.0165 H   0  0  0  0  0  0  0  0  0  0  0  0
    0.6164   -1.0516   -0.2313 C   0  0  0  0  0  0  0  0  0  0  0  0
    0.5670   -2.2784   -0.1633 O   0  0  0  0  0  0  0  0  0  0  0  0
    1.6148   -0.4056   -0.8473 N   0  0  0  0  0  0  0  0  0  0  0  0
    1.5745    0.6004   -0.8844 H   0  0  0  0  0  0  0  0  0  0  0  0
    2.7414   -1.0747   -1.4966 C   0  0  0  0  0  0  0  0  0  0  0  0
    2.3693   -1.7701   -2.2529 H   0  0  0  0  0  0  0  0  0  0  0  0
    3.3956   -0.3429   -1.9729 H   0  0  0  0  0  0  0  0  0  0  0  0
    3.3096   -1.6413   -0.7569 H   0  0  0  0  0  0  0  0  0  0  0  0
  5  6  2  0  0  0  0
  5  7  1  0  0  0  0
  2  3  1  0  0  0  0
  2  4  1  0  0  0  0
  2  5  1  0  0  0  0
  1  2  1  0  0  0  0
 22 23  2  0  0  0  0
 22 24  1  0  0  0  0
 19 20  1  0  0  0  0
 19 21  1  0  0  0  0
 17 18  2  0  0  0  0
 17 19  1  0  0  0  0
 14 15  1  0  0  0  0
 14 16  1  0  0  0  0
 14 17  1  0  0  0  0
 11 12  1  0  0  0  0
 11 13  1  0  0  0  0
 11 14  1  0  0  0  0
  9 10  1  0  0  0  0
  9 11  1  0  0  0  0
  9 22  1  0  0  0  0
  7  8  1  0  0  0  0
  7  9  1  0  0  0  0
 26 27  1  0  0  0  0
 26 28  1  0  0  0  0
 26 29  1  0  0  0  0
 24 25  1  0  0  0  0
 24 26  1  0  0  0  0
M  END
$$$$
default_name
  -OEChem-01062215323D

 29 28  0     1  0  0  0  0  0999 V2000
   -3.3998   -3.6239    1.3678 H   0  0  0  0  0  0  0  0  0  0  0  0
   -3.3608   -2.6749    0.8348 C   0  0  0  0  0  0  0  0  0  0  0  0
   -4.0988   -1.9909    1.2498 H   0  0  0  0  0  0  0  0  0  0  0  0
   -3.5618   -2.8419   -0.2222 H   0  0  0  0  0  0  0  0  0  0  0  0
   -1.9818   -2.0809    0.9918 C   0  0  0  0  0  0  0  0  0  0  0  0
   -1.1288   -2.6669    1.6468 O   0  0  0  0  0  0  0  0  0  0  0  0
   -1.7648   -0.9089    0.3998 N   0  0  0  0  0  0  0  0  0  0  0  0
   -2.5238   -0.4719   -0.1032 H   0  0  0  0  0  0  0  0  0  0  0  0
   -0.4848   -0.1959    0.4138 C   0  0  1  0  0  0  0  0  0  0  0  0
   -0.5892    0.7191   -0.1715 H   0  0  0  0  0  0  0  0  0  0  0  0
   -0.1506    0.1960    1.8664 C   0  0  0  0  0  0  0  0  0  0  0  0
   -0.1959   -0.7035    2.4838 H   0  0  0  0  0  0  0  0  0  0  0  0
    0.8678    0.5855    1.9052 H   0  0  0  0  0  0  0  0  0  0  0  0
   -1.1067    1.2430    2.4641 C   0  0  0  0  0  0  0  0  0  0  0  0
   -1.0657    2.1575    1.8728 H   0  0  0  0  0  0  0  0  0  0  0  0
   -2.1238    0.8526    2.4316 H   0  0  0  0  0  0  0  0  0  0  0  0
   -0.7757    1.6021    3.9126 C   0  0  0  0  0  0  0  0  0  0  0  0
    0.1057    1.0590    4.5520 O   0  0  0  0  0  0  0  0  0  0  0  0
   -1.4731    2.5519    4.4971 N   0  0  0  0  0  0  0  0  0  0  0  0
   -1.2128    2.7475    5.4481 H   0  0  0  0  0  0  0  0  0  0  0  0
   -2.2066    3.0323    4.0165 H   0  0  0  0  0  0  0  0  0  0  0  0
    0.6164   -1.0516   -0.2313 C   0  0  0  0  0  0  0  0  0  0  0  0
    0.4407   -2.2555   -0.4092 O   0  0  0  0  0  0  0  0  0  0  0  0
    1.7548   -0.4335   -0.5714 N   0  0  0  0  0  0  0  0  0  0  0  0
    1.8165    0.5604   -0.4182 H   0  0  0  0  0  0  0  0  0  0  0  0
    2.8993   -1.1093   -1.1810 C   0  0  0  0  0  0  0  0  0  0  0  0
    2.5840   -1.6087   -2.1005 H   0  0  0  0  0  0  0  0  0  0  0  0
    3.6858   -0.3902   -1.4149 H   0  0  0  0  0  0  0  0  0  0  0  0
    3.2900   -1.8634   -0.4957 H   0  0  0  0  0  0  0  0  0  0  0  0
  5  6  2  0  0  0  0
  5  7  1  0  0  0  0
  2  3  1  0  0  0  0
  2  4  1  0  0  0  0
  2  5  1  0  0  0  0
  1  2  1  0  0  0  0
 22 23  2  0  0  0  0
 22 24  1  0  0  0  0
 19 20  1  0  0  0  0
 19 21  1  0  0  0  0
 17 18  2  0  0  0  0
 17 19  1  0  0  0  0
 14 15  1  0  0  0  0
 14 16  1  0  0  0  0
 14 17  1  0  0  0  0
 11 12  1  0  0  0  0
 11 13  1  0  0  0  0
 11 14  1  0  0  0  0
  9 10  1  0  0  0  0
  9 11  1  0  0  0  0
  9 22  1  0  0  0  0
  7  8  1  0  0  0  0
  7  9  1  0  0  0  0
 26 27  1  0  0  0  0
 26 28  1  0  0  0  0
 26 29  1  0  0  0  0
 24 25  1  0  0  0  0
 24 26  1  0  0  0  0
M  END
$$$$
default_name
  -OEChem-01062215323D

 29 28  0     1  0  0  0  0  0999 V2000
   -3.3998   -3.6239    1.3678 H   0  0  0  0  0  0  0  0  0  0  0  0
   -3.3608   -2.6749    0.8348 C   0  0  0  0  0  0  0  0  0  0  0  0
   -4.0988   -1.9909    1.2498 H   0  0  0  0  0  0  0  0  0  0  0  0
   -3.5618   -2.8419   -0.2222 H   0  0  0  0  0  0  0  0  0  0  0  0
   -1.9818   -2.0809    0.9918 C   0  0  0  0  0  0  0  0  0  0  0  0
   -1.1288   -2.6669    1.6468 O   0  0  0  0  0  0  0  0  0  0  0  0
   -1.7648   -0.9089    0.3998 N   0  0  0  0  0  0  0  0  0  0  0  0
   -2.5238   -0.4719   -0.1032 H   0  0  0  0  0  0  0  0  0  0  0  0
   -0.4848   -0.1959    0.4138 C   0  0  1  0  0  0  0  0  0  0  0  0
   -0.6512    0.8258    0.0686 H   0  0  0  0  0  0  0  0  0  0  0  0
    0.0347   -0.1367    1.8636 C   0  0  0  0  0  0  0  0  0  0  0  0
    0.0570   -1.1531    2.2621 H   0  0  0  0  0  0  0  0  0  0  0  0
    1.0545    0.2512    1.8612 H   0  0  0  0  0  0  0  0  0  0  0  0
   -0.8256    0.7317    2.7980 C   0  0  0  0  0  0  0  0  0  0  0  0
   -0.8485    1.7568    2.4286 H   0  0  0  0  0  0  0  0  0  0  0  0
   -1.8433    0.3416    2.8060 H   0  0  0  0  0  0  0  0  0  0  0  0
   -0.3101    0.7599    4.2368 C   0  0  0  0  0  0  0  0  0  0  0  0
    0.6383    0.1014    4.6207 O   0  0  0  0  0  0  0  0  0  0  0  0
   -0.9167    1.5411    5.1038 N   0  0  0  0  0  0  0  0  0  0  0  0
   -0.5361    1.5211    6.0340 H   0  0  0  0  0  0  0  0  0  0  0  0
   -1.6992    2.1052    4.8405 H   0  0  0  0  0  0  0  0  0  0  0  0
    0.5158   -0.8649   -0.5413 C   0  0  0  0  0  0  0  0  0  0  0  0
    0.1904   -1.8657   -1.1773 O   0  0  0  0  0  0  0  0  0  0  0  0
    1.7355   -0.3198   -0.6338 N   0  0  0  0  0  0  0  0  0  0  0  0
    1.9214    0.5150   -0.1011 H   0  0  0  0  0  0  0  0  0  0  0  0
    2.8014   -0.8450   -1.4861 C   0  0  0  0  0  0  0  0  0  0  0  0
    2.4538   -0.8938   -2.5210 H   0  0  0  0  0  0  0  0  0  0  0  0
    3.6822   -0.2032   -1.4333 H   0  0  0  0  0  0  0  0  0  0  0  0
    3.0679   -1.8531   -1.1640 H   0  0  0  0  0  0  0  0  0  0  0  0
  5  6  2  0  0  0  0
  5  7  1  0  0  0  0
  2  3  1  0  0  0  0
  2  4  1  0  0  0  0
  2  5  1  0  0  0  0
  1  2  1  0  0  0  0
 22 23  2  0  0  0  0
 22 24  1  0  0  0  0
 19 20  1  0  0  0  0
 19 21  1  0  0  0  0
 17 18  2  0  0  0  0
 17 19  1  0  0  0  0
 14 15  1  0  0  0  0
 14 16  1  0  0  0  0
 14 17  1  0  0  0  0
 11 12  1  0  0  0  0
 11 13  1  0  0  0  0
 11 14  1  0  0  0  0
  9 10  1  0  0  0  0
  9 11  1  0  0  0  0
  9 22  1  0  0  0  0
  7  8  1  0  0  0  0
  7  9  1  0  0  0  0
 26 27  1  0  0  0  0
 26 28  1  0  0  0  0
 26 29  1  0  0  0  0
 24 25  1  0  0  0  0
 24 26  1  0  0  0  0
M  END
$$$$
default_name
  -OEChem-01062215323D

 29 28  0     1  0  0  0  0  0999 V2000
   -3.3998   -3.6239    1.3678 H   0  0  0  0  0  0  0  0  0  0  0  0
   -3.3608   -2.6749    0.8348 C   0  0  0  0  0  0  0  0  0  0  0  0
   -4.0988   -1.9909    1.2498 H   0  0  0  0  0  0  0  0  0  0  0  0
   -3.5618   -2.8419   -0.2222 H   0  0  0  0  0  0  0  0  0  0  0  0
   -1.9818   -2.0809    0.9918 C   0  0  0  0  0  0  0  0  0  0  0  0
   -1.1288   -2.6669    1.6468 O   0  0  0  0  0  0  0  0  0  0  0  0
   -1.7648   -0.9089    0.3998 N   0  0  0  0  0  0  0  0  0  0  0  0
   -2.5238   -0.4719   -0.1032 H   0  0  0  0  0  0  0  0  0  0  0  0
   -0.4848   -0.1959    0.4138 C   0  0  1  0  0  0  0  0  0  0  0  0
   -0.6512    0.8258    0.0686 H   0  0  0  0  0  0  0  0  0  0  0  0
    0.0347   -0.1367    1.8636 C   0  0  0  0  0  0  0  0  0  0  0  0
    0.0570   -1.1531    2.2621 H   0  0  0  0  0  0  0  0  0  0  0  0
    1.0545    0.2512    1.8612 H   0  0  0  0  0  0  0  0  0  0  0  0
   -0.8256    0.7317    2.7980 C   0  0  0  0  0  0  0  0  0  0  0  0
   -0.8485    1.7568    2.4286 H   0  0  0  0  0  0  0  0  0  0  0  0
   -1.8433    0.3416    2.8060 H   0  0  0  0  0  0  0  0  0  0  0  0
   -0.3101    0.7599    4.2368 C   0  0  0  0  0  0  0  0  0  0  0  0
    0.6383    0.1014    4.6207 O   0  0  0  0  0  0  0  0  0  0  0  0
   -0.9167    1.5411    5.1038 N   0  0  0  0  0  0  0  0  0  0  0  0
   -0.5361    1.5211    6.0340 H   0  0  0  0  0  0  0  0  0  0  0  0
   -1.6992    2.1052    4.8405 H   0  0  0  0  0  0  0  0  0  0  0  0
    0.5158   -0.8649   -0.5413 C   0  0  0  0  0  0  0  0  0  0  0  0
    0.1259   -1.6813   -1.3741 O   0  0  0  0  0  0  0  0  0  0  0  0
    1.8057   -0.5281   -0.4143 N   0  0  0  0  0  0  0  0  0  0  0  0
    2.0468    0.1670    0.2740 H   0  0  0  0  0  0  0  0  0  0  0  0
    2.8790   -1.0848   -1.2368 C   0  0  0  0  0  0  0  0  0  0  0  0
    2.6618   -0.9081   -2.2931 H   0  0  0  0  0  0  0  0  0  0  0  0
    3.8329   -0.6194   -0.9840 H   0  0  0  0  0  0  0  0  0  0  0  0
    2.9471   -2.1618   -1.0743 H   0  0  0  0  0  0  0  0  0  0  0  0
  5  6  2  0  0  0  0
  5  7  1  0  0  0  0
  2  3  1  0  0  0  0
  2  4  1  0  0  0  0
  2  5  1  0  0  0  0
  1  2  1  0  0  0  0
 22 23  2  0  0  0  0
 22 24  1  0  0  0  0
 19 20  1  0  0  0  0
 19 21  1  0  0  0  0
 17 18  2  0  0  0  0
 17 19  1  0  0  0  0
 14 15  1  0  0  0  0
 14 16  1  0  0  0  0
 14 17  1  0  0  0  0
 11 12  1  0  0  0  0
 11 13  1  0  0  0  0
 11 14  1  0  0  0  0
  9 10  1  0  0  0  0
  9 11  1  0  0  0  0
  9 22  1  0  0  0  0
  7  8  1  0  0  0  0
  7  9  1  0  0  0  0
 26 27  1  0  0  0  0
 26 28  1  0  0  0  0
 26 29  1  0  0  0  0
 24 25  1  0  0  0  0
 24 26  1  0  0  0  0
M  END
$$$$
default_name
  -OEChem-01062215323D

 29 28  0     1  0  0  0  0  0999 V2000
   -3.3998   -3.6239    1.3678 H   0  0  0  0  0  0  0  0  0  0  0  0
   -3.3608   -2.6749    0.8348 C   0  0  0  0  0  0  0  0  0  0  0  0
   -4.0988   -1.9909    1.2498 H   0  0  0  0  0  0  0  0  0  0  0  0
   -3.5618   -2.8419   -0.2222 H   0  0  0  0  0  0  0  0  0  0  0  0
   -1.9818   -2.0809    0.9918 C   0  0  0  0  0  0  0  0  0  0  0  0
   -1.1288   -2.6669    1.6468 O   0  0  0  0  0  0  0  0  0  0  0  0
   -1.7648   -0.9089    0.3998 N   0  0  0  0  0  0  0  0  0  0  0  0
   -2.5238   -0.4719   -0.1032 H   0  0  0  0  0  0  0  0  0  0  0  0
   -0.4848   -0.1959    0.4138 C   0  0  1  0  0  0  0  0  0  0  0  0
   -0.6512    0.8258    0.0686 H   0  0  0  0  0  0  0  0  0  0  0  0
    0.0347   -0.1367    1.8636 C   0  0  0  0  0  0  0  0  0  0  0  0
    0.0570   -1.1531    2.2621 H   0  0  0  0  0  0  0  0  0  0  0  0
    1.0545    0.2512    1.8612 H   0  0  0  0  0  0  0  0  0  0  0  0
   -0.8256    0.7317    2.7980 C   0  0  0  0  0  0  0  0  0  0  0  0
   -0.8485    1.7568    2.4286 H   0  0  0  0  0  0  0  0  0  0  0  0
   -1.8433    0.3416    2.8060 H   0  0  0  0  0  0  0  0  0  0  0  0
   -0.3101    0.7599    4.2368 C   0  0  0  0  0  0  0  0  0  0  0  0
    0.6383    0.1014    4.6207 O   0  0  0  0  0  0  0  0  0  0  0  0
   -0.9167    1.5411    5.1038 N   0  0  0  0  0  0  0  0  0  0  0  0
   -0.5361    1.5211    6.0340 H   0  0  0  0  0  0  0  0  0  0  0  0
   -1.6992    2.1052    4.8405 H   0  0  0  0  0  0  0  0  0  0  0  0
    0.5158   -0.8649   -0.5413 C   0  0  0  0  0  0  0  0  0  0  0  0
    0.1154   -1.4596   -1.5404 O   0  0  0  0  0  0  0  0  0  0  0  0
    1.8153   -0.7776   -0.2296 N   0  0  0  0  0  0  0  0  0  0  0  0
    2.0697   -0.2524    0.5918 H   0  0  0  0  0  0  0  0  0  0  0  0
    2.8873   -1.3710   -1.0277 C   0  0  0  0  0  0  0  0  0  0  0  0
    2.8347   -0.9938   -2.0519 H   0  0  0  0  0  0  0  0  0  0  0  0
    3.8609   -1.1214   -0.6030 H   0  0  0  0  0  0  0  0  0  0  0  0
    2.7707   -2.4558   -1.0533 H   0  0  0  0  0  0  0  0  0  0  0  0
  5  6  2  0  0  0  0
  5  7  1  0  0  0  0
  2  3  1  0  0  0  0
  2  4  1  0  0  0  0
  2  5  1  0  0  0  0
  1  2  1  0  0  0  0
 22 23  2  0  0  0  0
 22 24  1  0  0  0  0
 19 20  1  0  0  0  0
 19 21  1  0  0  0  0
 17 18  2  0  0  0  0
 17 19  1  0  0  0  0
 14 15  1  0  0  0  0
 14 16  1  0  0  0  0
 14 17  1  0  0  0  0
 11 12  1  0  0  0  0
 11 13  1  0  0  0  0
 11 14  1  0  0  0  0
  9 10  1  0  0  0  0
  9 11  1  0  0  0  0
  9 22  1  0  0  0  0
  7  8  1  0  0  0  0
  7  9  1  0  0  0  0
 26 27  1  0  0  0  0
 26 28  1  0  0  0  0
 26 29  1  0  0  0  0
 24 25  1  0  0  0  0
 24 26  1  0  0  0  0
M  END
$$$$
default_name
  -OEChem-01062215323D

 29 28  0     1  0  0  0  0  0999 V2000
   -3.3998   -3.6239    1.3678 H   0  0  0  0  0  0  0  0  0  0  0  0
   -3.3608   -2.6749    0.8348 C   0  0  0  0  0  0  0  0  0  0  0  0
   -4.0988   -1.9909    1.2498 H   0  0  0  0  0  0  0  0  0  0  0  0
   -3.5618   -2.8419   -0.2222 H   0  0  0  0  0  0  0  0  0  0  0  0
   -1.9818   -2.0809    0.9918 C   0  0  0  0  0  0  0  0  0  0  0  0
   -1.1288   -2.6669    1.6468 O   0  0  0  0  0  0  0  0  0  0  0  0
   -1.7648   -0.9089    0.3998 N   0  0  0  0  0  0  0  0  0  0  0  0
   -2.5238   -0.4719   -0.1032 H   0  0  0  0  0  0  0  0  0  0  0  0
   -0.4848   -0.1959    0.4138 C   0  0  1  0  0  0  0  0  0  0  0  0
   -0.6512    0.8258    0.0686 H   0  0  0  0  0  0  0  0  0  0  0  0
    0.0347   -0.1367    1.8636 C   0  0  0  0  0  0  0  0  0  0  0  0
    0.0570   -1.1531    2.2621 H   0  0  0  0  0  0  0  0  0  0  0  0
    1.0545    0.2512    1.8612 H   0  0  0  0  0  0  0  0  0  0  0  0
   -0.8256    0.7317    2.7980 C   0  0  0  0  0  0  0  0  0  0  0  0
   -0.8485    1.7568    2.4286 H   0  0  0  0  0  0  0  0  0  0  0  0
   -1.8433    0.3416    2.8060 H   0  0  0  0  0  0  0  0  0  0  0  0
   -0.3101    0.7599    4.2368 C   0  0  0  0  0  0  0  0  0  0  0  0
    0.6383    0.1014    4.6207 O   0  0  0  0  0  0  0  0  0  0  0  0
   -0.9167    1.5411    5.1038 N   0  0  0  0  0  0  0  0  0  0  0  0
   -0.5361    1.5211    6.0340 H   0  0  0  0  0  0  0  0  0  0  0  0
   -1.6992    2.1052    4.8405 H   0  0  0  0  0  0  0  0  0  0  0  0
    0.5158   -0.8649   -0.5413 C   0  0  0  0  0  0  0  0  0  0  0  0
    0.1597   -1.2157   -1.6648 O   0  0  0  0  0  0  0  0  0  0  0  0
    1.7636   -1.0513   -0.0921 N   0  0  0  0  0  0  0  0  0  0  0  0
    1.9885   -0.7149    0.8306 H   0  0  0  0  0  0  0  0  0  0  0  0
    2.8258   -1.6840   -0.8729 C   0  0  0  0  0  0  0  0  0  0  0  0
    2.9607   -1.1450   -1.8140 H   0  0  0  0  0  0  0  0  0  0  0  0
    3.7643   -1.6750   -0.3165 H   0  0  0  0  0  0  0  0  0  0  0  0
    2.5506   -2.7148   -1.1024 H   0  0  0  0  0  0  0  0  0  0  0  0
  5  6  2  0  0  0  0
  5  7  1  0  0  0  0
  2  3  1  0  0  0  0
  2  4  1  0  0  0  0
  2  5  1  0  0  0  0
  1  2  1  0  0  0  0
 22 23  2  0  0  0  0
 22 24  1  0  0  0  0
 19 20  1  0  0  0  0
 19 21  1  0  0  0  0
 17 18  2  0  0  0  0
 17 19  1  0  0  0  0
 14 15  1  0  0  0  0
 14 16  1  0  0  0  0
 14 17  1  0  0  0  0
 11 12  1  0  0  0  0
 11 13  1  0  0  0  0
 11 14  1  0  0  0  0
  9 10  1  0  0  0  0
  9 11  1  0  0  0  0
  9 22  1  0  0  0  0
  7  8  1  0  0  0  0
  7  9  1  0  0  0  0
 26 27  1  0  0  0  0
 26 28  1  0  0  0  0
 26 29  1  0  0  0  0
 24 25  1  0  0  0  0
 24 26  1  0  0  0  0
M  END
$$$$
default_name
  -OEChem-01062215323D

 29 28  0     1  0  0  0  0  0999 V2000
   -3.3998   -3.6239    1.3678 H   0  0  0  0  0  0  0  0  0  0  0  0
   -3.3608   -2.6749    0.8348 C   0  0  0  0  0  0  0  0  0  0  0  0
   -4.0988   -1.9909    1.2498 H   0  0  0  0  0  0  0  0  0  0  0  0
   -3.5618   -2.8419   -0.2222 H   0  0  0  0  0  0  0  0  0  0  0  0
   -1.9818   -2.0809    0.9918 C   0  0  0  0  0  0  0  0  0  0  0  0
   -1.1288   -2.6669    1.6468 O   0  0  0  0  0  0  0  0  0  0  0  0
   -1.7648   -0.9089    0.3998 N   0  0  0  0  0  0  0  0  0  0  0  0
   -2.5238   -0.4719   -0.1032 H   0  0  0  0  0  0  0  0  0  0  0  0
   -0.4848   -0.1959    0.4138 C   0  0  1  0  0  0  0  0  0  0  0  0
   -0.6512    0.8258    0.0686 H   0  0  0  0  0  0  0  0  0  0  0  0
    0.0347   -0.1367    1.8636 C   0  0  0  0  0  0  0  0  0  0  0  0
    0.0570   -1.1531    2.2621 H   0  0  0  0  0  0  0  0  0  0  0  0
    1.0545    0.2512    1.8612 H   0  0  0  0  0  0  0  0  0  0  0  0
   -0.8256    0.7317    2.7980 C   0  0  0  0  0  0  0  0  0  0  0  0
   -0.8485    1.7568    2.4286 H   0  0  0  0  0  0  0  0  0  0  0  0
   -1.8433    0.3416    2.8060 H   0  0  0  0  0  0  0  0  0  0  0  0
   -0.3101    0.7599    4.2368 C   0  0  0  0  0  0  0  0  0  0  0  0
    0.6383    0.1014    4.6207 O   0  0  0  0  0  0  0  0  0  0  0  0
   -0.9167    1.5411    5.1038 N   0  0  0  0  0  0  0  0  0  0  0  0
   -0.5361    1.5211    6.0340 H   0  0  0  0  0  0  0  0  0  0  0  0
   -1.6992    2.1052    4.8405 H   0  0  0  0  0  0  0  0  0  0  0  0
    0.5158   -0.8649   -0.5413 C   0  0  0  0  0  0  0  0  0  0  0  0
    0.2558   -0.9663   -1.7389 O   0  0  0  0  0  0  0  0  0  0  0  0
    1.6540   -1.3306   -0.0112 N   0  0  0  0  0  0  0  0  0  0  0  0
    1.8088   -1.1888    0.9742 H   0  0  0  0  0  0  0  0  0  0  0  0
    2.6985   -2.0025   -0.7832 C   0  0  0  0  0  0  0  0  0  0  0  0
    3.0313   -1.3515   -1.5954 H   0  0  0  0  0  0  0  0  0  0  0  0
    3.5496   -2.2424   -0.1440 H   0  0  0  0  0  0  0  0  0  0  0  0
    2.3019   -2.9214   -1.2183 H   0  0  0  0  0  0  0  0  0  0  0  0
  5  6  2  0  0  0  0
  5  7  1  0  0  0  0
  2  3  1  0  0  0  0
  2  4  1  0  0  0  0
  2  5  1  0  0  0  0
  1  2  1  0  0  0  0
 22 23  2  0  0  0  0
 22 24  1  0  0  0  0
 19 20  1  0  0  0  0
 19 21  1  0  0  0  0
 17 18  2  0  0  0  0
 17 19  1  0  0  0  0
 14 15  1  0  0  0  0
 14 16  1  0  0  0  0
 14 17  1  0  0  0  0
 11 12  1  0  0  0  0
 11 13  1  0  0  0  0
 11 14  1  0  0  0  0
  9 10  1  0  0  0  0
  9 11  1  0  0  0  0
  9 22  1  0  0  0  0
  7  8  1  0  0  0  0
  7  9  1  0  0  0  0
 26 27  1  0  0  0  0
 26 28  1  0  0  0  0
 26 29  1  0  0  0  0
 24 25  1  0  0  0  0
 24 26  1  0  0  0  0
M  END
$$$$
default_name
  -OEChem-01062215323D

 29 28  0     1  0  0  0  0  0999 V2000
   -3.3998   -3.6239    1.3678 H   0  0  0  0  0  0  0  0  0  0  0  0
   -3.3608   -2.6749    0.8348 C   0  0  0  0  0  0  0  0  0  0  0  0
   -4.0988   -1.9909    1.2498 H   0  0  0  0  0  0  0  0  0  0  0  0
   -3.5618   -2.8419   -0.2222 H   0  0  0  0  0  0  0  0  0  0  0  0
   -1.9818   -2.0809    0.9918 C   0  0  0  0  0  0  0  0  0  0  0  0
   -1.1288   -2.6669    1.6468 O   0  0  0  0  0  0  0  0  0  0  0  0
   -1.7648   -0.9089    0.3998 N   0  0  0  0  0  0  0  0  0  0  0  0
   -2.5238   -0.4719   -0.1032 H   0  0  0  0  0  0  0  0  0  0  0  0
   -0.4848   -0.1959    0.4138 C   0  0  1  0  0  0  0  0  0  0  0  0
   -0.6512    0.8258    0.0686 H   0  0  0  0  0  0  0  0  0  0  0  0
    0.0347   -0.1367    1.8636 C   0  0  0  0  0  0  0  0  0  0  0  0
    0.0570   -1.1531    2.2621 H   0  0  0  0  0  0  0  0  0  0  0  0
    1.0545    0.2512    1.8612 H   0  0  0  0  0  0  0  0  0  0  0  0
   -0.8256    0.7317    2.7980 C   0  0  0  0  0  0  0  0  0  0  0  0
   -0.8485    1.7568    2.4286 H   0  0  0  0  0  0  0  0  0  0  0  0
   -1.8433    0.3416    2.8060 H   0  0  0  0  0  0  0  0  0  0  0  0
   -0.3101    0.7599    4.2368 C   0  0  0  0  0  0  0  0  0  0  0  0
    0.6383    0.1014    4.6207 O   0  0  0  0  0  0  0  0  0  0  0  0
   -0.9167    1.5411    5.1038 N   0  0  0  0  0  0  0  0  0  0  0  0
   -0.5361    1.5211    6.0340 H   0  0  0  0  0  0  0  0  0  0  0  0
   -1.6992    2.1052    4.8405 H   0  0  0  0  0  0  0  0  0  0  0  0
    0.5158   -0.8649   -0.5413 C   0  0  0  0  0  0  0  0  0  0  0  0
    0.3970   -0.7283   -1.7576 O   0  0  0  0  0  0  0  0  0  0  0  0
    1.4942   -1.5963    0.0075 N   0  0  0  0  0  0  0  0  0  0  0  0
    1.5427   -1.6418    1.0128 H   0  0  0  0  0  0  0  0  0  0  0  0
    2.5142   -2.3048   -0.7645 C   0  0  0  0  0  0  0  0  0  0  0  0
    3.0417   -1.5992   -1.4111 H   0  0  0  0  0  0  0  0  0  0  0  0
    3.2315   -2.7851   -0.0972 H   0  0  0  0  0  0  0  0  0  0  0  0
    2.0414   -3.0613   -1.3931 H   0  0  0  0  0  0  0  0  0  0  0  0
  5  6  2  0  0  0  0
  5  7  1  0  0  0  0
  2  3  1  0  0  0  0
  2  4  1  0  0  0  0
  2  5  1  0  0  0  0
  1  2  1  0  0  0  0
 22 23  2  0  0  0  0
 22 24  1  0  0  0  0
 19 20  1  0  0  0  0
 19 21  1  0  0  0  0
 17 18  2  0  0  0  0
 17 19  1  0  0  0  0
 14 15  1  0  0  0  0
 14 16  1  0  0  0  0
 14 17  1  0  0  0  0
 11 12  1  0  0  0  0
 11 13  1  0  0  0  0
 11 14  1  0  0  0  0
  9 10  1  0  0  0  0
  9 11  1  0  0  0  0
  9 22  1  0  0  0  0
  7  8  1  0  0  0  0
  7  9  1  0  0  0  0
 26 27  1  0  0  0  0
 26 28  1  0  0  0  0
 26 29  1  0  0  0  0
 24 25  1  0  0  0  0
 24 26  1  0  0  0  0
M  END
$$$$
default_name
  -OEChem-01062215323D

 29 28  0     1  0  0  0  0  0999 V2000
   -3.3998   -3.6239    1.3678 H   0  0  0  0  0  0  0  0  0  0  0  0
   -3.3608   -2.6749    0.8348 C   0  0  0  0  0  0  0  0  0  0  0  0
   -4.0988   -1.9909    1.2498 H   0  0  0  0  0  0  0  0  0  0  0  0
   -3.5618   -2.8419   -0.2222 H   0  0  0  0  0  0  0  0  0  0  0  0
   -1.9818   -2.0809    0.9918 C   0  0  0  0  0  0  0  0  0  0  0  0
   -1.1288   -2.6669    1.6468 O   0  0  0  0  0  0  0  0  0  0  0  0
   -1.7648   -0.9089    0.3998 N   0  0  0  0  0  0  0  0  0  0  0  0
   -2.5238   -0.4719   -0.1032 H   0  0  0  0  0  0  0  0  0  0  0  0
   -0.4848   -0.1959    0.4138 C   0  0  1  0  0  0  0  0  0  0  0  0
   -0.6512    0.8258    0.0686 H   0  0  0  0  0  0  0  0  0  0  0  0
    0.0347   -0.1367    1.8636 C   0  0  0  0  0  0  0  0  0  0  0  0
    0.0570   -1.1531    2.2621 H   0  0  0  0  0  0  0  0  0  0  0  0
    1.0545    0.2512    1.8612 H   0  0  0  0  0  0  0  0  0  0  0  0
   -0.8256    0.7317    2.7980 C   0  0  0  0  0  0  0  0  0  0  0  0
   -0.8485    1.7568    2.4286 H   0  0  0  0  0  0  0  0  0  0  0  0
   -1.8433    0.3416    2.8060 H   0  0  0  0  0  0  0  0  0  0  0  0
   -0.3101    0.7599    4.2368 C   0  0  0  0  0  0  0  0  0  0  0  0
    0.6383    0.1014    4.6207 O   0  0  0  0  0  0  0  0  0  0  0  0
   -0.9167    1.5411    5.1038 N   0  0  0  0  0  0  0  0  0  0  0  0
   -0.5361    1.5211    6.0340 H   0  0  0  0  0  0  0  0  0  0  0  0
   -1.6992    2.1052    4.8405 H   0  0  0  0  0  0  0  0  0  0  0  0
    0.5158   -0.8649   -0.5413 C   0  0  0  0  0  0  0  0  0  0  0  0
    0.5738   -0.5181   -1.7196 O   0  0  0  0  0  0  0  0  0  0  0  0
    1.2950   -1.8304   -0.0372 N   0  0  0  0  0  0  0  0  0  0  0  0
    1.2085   -2.0431    0.9438 H   0  0  0  0  0  0  0  0  0  0  0  0
    2.2855   -2.5703   -0.8182 C   0  0  0  0  0  0  0  0  0  0  0  0
    2.9911   -1.8711   -1.2736 H   0  0  0  0  0  0  0  0  0  0  0  0
    2.8316   -3.2659   -0.1792 H   0  0  0  0  0  0  0  0  0  0  0  0
    1.7871   -3.1252   -1.6148 H   0  0  0  0  0  0  0  0  0  0  0  0
  5  6  2  0  0  0  0
  5  7  1  0  0  0  0
  2  3  1  0  0  0  0
  2  4  1  0  0  0  0
  2  5  1  0  0  0  0
  1  2  1  0  0  0  0
 22 23  2  0  0  0  0
 22 24  1  0  0  0  0
 19 20  1  0  0  0  0
 19 21  1  0  0  0  0
 17 18  2  0  0  0  0
 17 19  1  0  0  0  0
 14 15  1  0  0  0  0
 14 16  1  0  0  0  0
 14 17  1  0  0  0  0
 11 12  1  0  0  0  0
 11 13  1  0  0  0  0
 11 14  1  0  0  0  0
  9 10  1  0  0  0  0
  9 11  1  0  0  0  0
  9 22  1  0  0  0  0
  7  8  1  0  0  0  0
  7  9  1  0  0  0  0
 26 27  1  0  0  0  0
 26 28  1  0  0  0  0
 26 29  1  0  0  0  0
 24 25  1  0  0  0  0
 24 26  1  0  0  0  0
M  END
$$$$
default_name
  -OEChem-01062215323D

 29 28  0     1  0  0  0  0  0999 V2000
   -3.3998   -3.6239    1.3678 H   0  0  0  0  0  0  0  0  0  0  0  0
   -3.3608   -2.6749    0.8348 C   0  0  0  0  0  0  0  0  0  0  0  0
   -4.0988   -1.9909    1.2498 H   0  0  0  0  0  0  0  0  0  0  0  0
   -3.5618   -2.8419   -0.2222 H   0  0  0  0  0  0  0  0  0  0  0  0
   -1.9818   -2.0809    0.9918 C   0  0  0  0  0  0  0  0  0  0  0  0
   -1.1288   -2.6669    1.6468 O   0  0  0  0  0  0  0  0  0  0  0  0
   -1.7648   -0.9089    0.3998 N   0  0  0  0  0  0  0  0  0  0  0  0
   -2.5238   -0.4719   -0.1032 H   0  0  0  0  0  0  0  0  0  0  0  0
   -0.4848   -0.1959    0.4138 C   0  0  1  0  0  0  0  0  0  0  0  0
   -0.6512    0.8258    0.0686 H   0  0  0  0  0  0  0  0  0  0  0  0
    0.0347   -0.1367    1.8636 C   0  0  0  0  0  0  0  0  0  0  0  0
    0.0570   -1.1531    2.2621 H   0  0  0  0  0  0  0  0  0  0  0  0
    1.0545    0.2512    1.8612 H   0  0  0  0  0  0  0  0  0  0  0  0
   -0.8256    0.7317    2.7980 C   0  0  0  0  0  0  0  0  0  0  0  0
   -0.8485    1.7568    2.4286 H   0  0  0  0  0  0  0  0  0  0  0  0
   -1.8433    0.3416    2.8060 H   0  0  0  0  0  0  0  0  0  0  0  0
   -0.3101    0.7599    4.2368 C   0  0  0  0  0  0  0  0  0  0  0  0
    0.6383    0.1014    4.6207 O   0  0  0  0  0  0  0  0  0  0  0  0
   -0.9167    1.5411    5.1038 N   0  0  0  0  0  0  0  0  0  0  0  0
   -0.5361    1.5211    6.0340 H   0  0  0  0  0  0  0  0  0  0  0  0
   -1.6992    2.1052    4.8405 H   0  0  0  0  0  0  0  0  0  0  0  0
    0.5158   -0.8649   -0.5413 C   0  0  0  0  0  0  0  0  0  0  0  0
    0.7741   -0.3498   -1.6276 O   0  0  0  0  0  0  0  0  0  0  0  0
    1.0700   -2.0169   -0.1423 N   0  0  0  0  0  0  0  0  0  0  0  0
    0.8289   -2.3653    0.7718 H   0  0  0  0  0  0  0  0  0  0  0  0
    2.0279   -2.7809   -0.9405 C   0  0  0  0  0  0  0  0  0  0  0  0
    2.8830   -2.1488   -1.1924 H   0  0  0  0  0  0  0  0  0  0  0  0
    2.3773   -3.6523   -0.3846 H   0  0  0  0  0  0  0  0  0  0  0  0
    1.5561   -3.1085   -1.8685 H   0  0  0  0  0  0  0  0  0  0  0  0
  5  6  2  0  0  0  0
  5  7  1  0  0  0  0
  2  3  1  0  0  0  0
  2  4  1  0  0  0  0
  2  5  1  0  0  0  0
  1  2  1  0  0  0  0
 22 23  2  0  0  0  0
 22 24  1  0  0  0  0
 19 20  1  0  0  0  0
 19 21  1  0  0  0  0
 17 18  2  0  0  0  0
 17 19  1  0  0  0  0
 14 15  1  0  0  0  0
 14 16  1  0  0  0  0
 14 17  1  0  0  0  0
 11 12  1  0  0  0  0
 11 13  1  0  0  0  0
 11 14  1  0  0  0  0
  9 10  1  0  0  0  0
  9 11  1  0  0  0  0
  9 22  1  0  0  0  0
  7  8  1  0  0  0  0
  7  9  1  0  0  0  0
 26 27  1  0  0  0  0
 26 28  1  0  0  0  0
 26 29  1  0  0  0  0
 24 25  1  0  0  0  0
 24 26  1  0  0  0  0
M  END
$$$$
default_name
  -OEChem-01062215323D

 29 28  0     1  0  0  0  0  0999 V2000
   -3.3998   -3.6239    1.3678 H   0  0  0  0  0  0  0  0  0  0  0  0
   -3.3608   -2.6749    0.8348 C   0  0  0  0  0  0  0  0  0  0  0  0
   -4.0988   -1.9909    1.2498 H   0  0  0  0  0  0  0  0  0  0  0  0
   -3.5618   -2.8419   -0.2222 H   0  0  0  0  0  0  0  0  0  0  0  0
   -1.9818   -2.0809    0.9918 C   0  0  0  0  0  0  0  0  0  0  0  0
   -1.1288   -2.6669    1.6468 O   0  0  0  0  0  0  0  0  0  0  0  0
   -1.7648   -0.9089    0.3998 N   0  0  0  0  0  0  0  0  0  0  0  0
   -2.5238   -0.4719   -0.1032 H   0  0  0  0  0  0  0  0  0  0  0  0
   -0.4848   -0.1959    0.4138 C   0  0  1  0  0  0  0  0  0  0  0  0
   -0.6512    0.8258    0.0686 H   0  0  0  0  0  0  0  0  0  0  0  0
    0.0347   -0.1367    1.8636 C   0  0  0  0  0  0  0  0  0  0  0  0
    0.0570   -1.1531    2.2621 H   0  0  0  0  0  0  0  0  0  0  0  0
    1.0545    0.2512    1.8612 H   0  0  0  0  0  0  0  0  0  0  0  0
   -0.8256    0.7317    2.7980 C   0  0  0  0  0  0  0  0  0  0  0  0
   -0.8485    1.7568    2.4286 H   0  0  0  0  0  0  0  0  0  0  0  0
   -1.8433    0.3416    2.8060 H   0  0  0  0  0  0  0  0  0  0  0  0
   -0.3101    0.7599    4.2368 C   0  0  0  0  0  0  0  0  0  0  0  0
    0.6383    0.1014    4.6207 O   0  0  0  0  0  0  0  0  0  0  0  0
   -0.9167    1.5411    5.1038 N   0  0  0  0  0  0  0  0  0  0  0  0
   -0.5361    1.5211    6.0340 H   0  0  0  0  0  0  0  0  0  0  0  0
   -1.6992    2.1052    4.8405 H   0  0  0  0  0  0  0  0  0  0  0  0
    0.5158   -0.8649   -0.5413 C   0  0  0  0  0  0  0  0  0  0  0  0
    0.9844   -0.2350   -1.4878 O   0  0  0  0  0  0  0  0  0  0  0  0
    0.8344   -2.1432   -0.3007 N   0  0  0  0  0  0  0  0  0  0  0  0
    0.4298   -2.5865    0.5086 H   0  0  0  0  0  0  0  0  0  0  0  0
    1.7589   -2.9223   -1.1232 C   0  0  0  0  0  0  0  0  0  0  0  0
    2.7247   -2.4133   -1.1729 H   0  0  0  0  0  0  0  0  0  0  0  0
    1.8994   -3.9177   -0.6993 H   0  0  0  0  0  0  0  0  0  0  0  0
    1.3642   -3.0125   -2.1367 H   0  0  0  0  0  0  0  0  0  0  0  0
  5  6  2  0  0  0  0
  5  7  1  0  0  0  0
  2  3  1  0  0  0  0
  2  4  1  0  0  0  0
  2  5  1  0  0  0  0
  1  2  1  0  0  0  0
 22 23  2  0  0  0  0
 22 24  1  0  0  0  0
 19 20  1  0  0  0  0
 19 21  1  0  0  0  0
 17 18  2  0  0  0  0
 17 19  1  0  0  0  0
 14 15  1  0  0  0  0
 14 16  1  0  0  0  0
 14 17  1  0  0  0  0
 11 12  1  0  0  0  0
 11 13  1  0  0  0  0
 11 14  1  0  0  0  0
  9 10  1  0  0  0  0
  9 11  1  0  0  0  0
  9 22  1  0  0  0  0
  7  8  1  0  0  0  0
  7  9  1  0  0  0  0
 26 27  1  0  0  0  0
 26 28  1  0  0  0  0
 26 29  1  0  0  0  0
 24 25  1  0  0  0  0
 24 26  1  0  0  0  0
M  END
$$$$
default_name
  -OEChem-01062215323D

 29 28  0     1  0  0  0  0  0999 V2000
   -3.3998   -3.6239    1.3678 H   0  0  0  0  0  0  0  0  0  0  0  0
   -3.3608   -2.6749    0.8348 C   0  0  0  0  0  0  0  0  0  0  0  0
   -4.0988   -1.9909    1.2498 H   0  0  0  0  0  0  0  0  0  0  0  0
   -3.5618   -2.8419   -0.2222 H   0  0  0  0  0  0  0  0  0  0  0  0
   -1.9818   -2.0809    0.9918 C   0  0  0  0  0  0  0  0  0  0  0  0
   -1.1288   -2.6669    1.6468 O   0  0  0  0  0  0  0  0  0  0  0  0
   -1.7648   -0.9089    0.3998 N   0  0  0  0  0  0  0  0  0  0  0  0
   -2.5238   -0.4719   -0.1032 H   0  0  0  0  0  0  0  0  0  0  0  0
   -0.4848   -0.1959    0.4138 C   0  0  1  0  0  0  0  0  0  0  0  0
   -0.6512    0.8258    0.0686 H   0  0  0  0  0  0  0  0  0  0  0  0
    0.0347   -0.1367    1.8636 C   0  0  0  0  0  0  0  0  0  0  0  0
    0.0570   -1.1531    2.2621 H   0  0  0  0  0  0  0  0  0  0  0  0
    1.0545    0.2512    1.8612 H   0  0  0  0  0  0  0  0  0  0  0  0
   -0.8256    0.7317    2.7980 C   0  0  0  0  0  0  0  0  0  0  0  0
   -0.8485    1.7568    2.4286 H   0  0  0  0  0  0  0  0  0  0  0  0
   -1.8433    0.3416    2.8060 H   0  0  0  0  0  0  0  0  0  0  0  0
   -0.3101    0.7599    4.2368 C   0  0  0  0  0  0  0  0  0  0  0  0
    0.6383    0.1014    4.6207 O   0  0  0  0  0  0  0  0  0  0  0  0
   -0.9167    1.5411    5.1038 N   0  0  0  0  0  0  0  0  0  0  0  0
   -0.5361    1.5211    6.0340 H   0  0  0  0  0  0  0  0  0  0  0  0
   -1.6992    2.1052    4.8405 H   0  0  0  0  0  0  0  0  0  0  0  0
    0.5158   -0.8649   -0.5413 C   0  0  0  0  0  0  0  0  0  0  0  0
    1.1901   -0.1815   -1.3097 O   0  0  0  0  0  0  0  0  0  0  0  0
    0.6044   -2.2006   -0.5014 N   0  0  0  0  0  0  0  0  0  0  0  0
    0.0384   -2.6915    0.1721 H   0  0  0  0  0  0  0  0  0  0  0  0
    1.4970   -2.9848   -1.3539 C   0  0  0  0  0  0  0  0  0  0  0  0
    2.5271   -2.6466   -1.2165 H   0  0  0  0  0  0  0  0  0  0  0  0
    1.4306   -4.0442   -1.1019 H   0  0  0  0  0  0  0  0  0  0  0  0
    1.2246   -2.8438   -2.4012 H   0  0  0  0  0  0  0  0  0  0  0  0
  5  6  2  0  0  0  0
  5  7  1  0  0  0  0
  2  3  1  0  0  0  0
  2  4  1  0  0  0  0
  2  5  1  0  0  0  0
  1  2  1  0  0  0  0
 22 23  2  0  0  0  0
 22 24  1  0  0  0  0
 19 20  1  0  0  0  0
 19 21  1  0  0  0  0
 17 18  2  0  0  0  0
 17 19  1  0  0  0  0
 14 15  1  0  0  0  0
 14 16  1  0  0  0  0
 14 17  1  0  0  0  0
 11 12  1  0  0  0  0
 11 13  1  0  0  0  0
 11 14  1  0  0  0  0
  9 10  1  0  0  0  0
  9 11  1  0  0  0  0
  9 22  1  0  0  0  0
  7  8  1  0  0  0  0
  7  9  1  0  0  0  0
 26 27  1  0  0  0  0
 26 28  1  0  0  0  0
 26 29  1  0  0  0  0
 24 25  1  0  0  0  0
 24 26  1  0  0  0  0
M  END
$$$$
default_name
  -OEChem-01062215323D

 29 28  0     1  0  0  0  0  0999 V2000
   -3.3998   -3.6239    1.3678 H   0  0  0  0  0  0  0  0  0  0  0  0
   -3.3608   -2.6749    0.8348 C   0  0  0  0  0  0  0  0  0  0  0  0
   -4.0988   -1.9909    1.2498 H   0  0  0  0  0  0  0  0  0  0  0  0
   -3.5618   -2.8419   -0.2222 H   0  0  0  0  0  0  0  0  0  0  0  0
   -1.9818   -2.0809    0.9918 C   0  0  0  0  0  0  0  0  0  0  0  0
   -1.1288   -2.6669    1.6468 O   0  0  0  0  0  0  0  0  0  0  0  0
   -1.7648   -0.9089    0.3998 N   0  0  0  0  0  0  0  0  0  0  0  0
   -2.5238   -0.4719   -0.1032 H   0  0  0  0  0  0  0  0  0  0  0  0
   -0.4848   -0.1959    0.4138 C   0  0  1  0  0  0  0  0  0  0  0  0
   -0.6512    0.8258    0.0686 H   0  0  0  0  0  0  0  0  0  0  0  0
    0.0347   -0.1367    1.8636 C   0  0  0  0  0  0  0  0  0  0  0  0
    0.0570   -1.1531    2.2621 H   0  0  0  0  0  0  0  0  0  0  0  0
    1.0545    0.2512    1.8612 H   0  0  0  0  0  0  0  0  0  0  0  0
   -0.8256    0.7317    2.7980 C   0  0  0  0  0  0  0  0  0  0  0  0
   -0.8485    1.7568    2.4286 H   0  0  0  0  0  0  0  0  0  0  0  0
   -1.8433    0.3416    2.8060 H   0  0  0  0  0  0  0  0  0  0  0  0
   -0.3101    0.7599    4.2368 C   0  0  0  0  0  0  0  0  0  0  0  0
    0.6383    0.1014    4.6207 O   0  0  0  0  0  0  0  0  0  0  0  0
   -0.9167    1.5411    5.1038 N   0  0  0  0  0  0  0  0  0  0  0  0
   -0.5361    1.5211    6.0340 H   0  0  0  0  0  0  0  0  0  0  0  0
   -1.6992    2.1052    4.8405 H   0  0  0  0  0  0  0  0  0  0  0  0
    0.5158   -0.8649   -0.5413 C   0  0  0  0  0  0  0  0  0  0  0  0
    1.3774   -0.1930   -1.1055 O   0  0  0  0  0  0  0  0  0  0  0  0
    0.3956   -2.1851   -0.7309 N   0  0  0  0  0  0  0  0  0  0  0  0
   -0.3187   -2.6733   -0.2147 H   0  0  0  0  0  0  0  0  0  0  0  0
    1.2599   -2.9641   -1.6167 C   0  0  0  0  0  0  0  0  0  0  0  0
    2.3035   -2.8329   -1.3203 H   0  0  0  0  0  0  0  0  0  0  0  0
    1.0027   -4.0231   -1.5648 H   0  0  0  0  0  0  0  0  0  0  0  0
    1.1466   -2.6137   -2.6440 H   0  0  0  0  0  0  0  0  0  0  0  0
  5  6  2  0  0  0  0
  5  7  1  0  0  0  0
  2  3  1  0  0  0  0
  2  4  1  0  0  0  0
  2  5  1  0  0  0  0
  1  2  1  0  0  0  0
 22 23  2  0  0  0  0
 22 24  1  0  0  0  0
 19 20  1  0  0  0  0
 19 21  1  0  0  0  0
 17 18  2  0  0  0  0
 17 19  1  0  0  0  0
 14 15  1  0  0  0  0
 14 16  1  0  0  0  0
 14 17  1  0  0  0  0
 11 12  1  0  0  0  0
 11 13  1  0  0  0  0
 11 14  1  0  0  0  0
  9 10  1  0  0  0  0
  9 11  1  0  0  0  0
  9 22  1  0  0  0  0
  7  8  1  0  0  0  0
  7  9  1  0  0  0  0
 26 27  1  0  0  0  0
 26 28  1  0  0  0  0
 26 29  1  0  0  0  0
 24 25  1  0  0  0  0
 24 26  1  0  0  0  0
M  END
$$$$
default_name
  -OEChem-01062215323D

 29 28  0     1  0  0  0  0  0999 V2000
   -3.3998   -3.6239    1.3678 H   0  0  0  0  0  0  0  0  0  0  0  0
   -3.3608   -2.6749    0.8348 C   0  0  0  0  0  0  0  0  0  0  0  0
   -4.0988   -1.9909    1.2498 H   0  0  0  0  0  0  0  0  0  0  0  0
   -3.5618   -2.8419   -0.2222 H   0  0  0  0  0  0  0  0  0  0  0  0
   -1.9818   -2.0809    0.9918 C   0  0  0  0  0  0  0  0  0  0  0  0
   -1.1288   -2.6669    1.6468 O   0  0  0  0  0  0  0  0  0  0  0  0
   -1.7648   -0.9089    0.3998 N   0  0  0  0  0  0  0  0  0  0  0  0
   -2.5238   -0.4719   -0.1032 H   0  0  0  0  0  0  0  0  0  0  0  0
   -0.4848   -0.1959    0.4138 C   0  0  1  0  0  0  0  0  0  0  0  0
   -0.6512    0.8258    0.0686 H   0  0  0  0  0  0  0  0  0  0  0  0
    0.0347   -0.1367    1.8636 C   0  0  0  0  0  0  0  0  0  0  0  0
    0.0570   -1.1531    2.2621 H   0  0  0  0  0  0  0  0  0  0  0  0
    1.0545    0.2512    1.8612 H   0  0  0  0  0  0  0  0  0  0  0  0
   -0.8256    0.7317    2.7980 C   0  0  0  0  0  0  0  0  0  0  0  0
   -0.8485    1.7568    2.4286 H   0  0  0  0  0  0  0  0  0  0  0  0
   -1.8433    0.3416    2.8060 H   0  0  0  0  0  0  0  0  0  0  0  0
   -0.3101    0.7599    4.2368 C   0  0  0  0  0  0  0  0  0  0  0  0
    0.6383    0.1014    4.6207 O   0  0  0  0  0  0  0  0  0  0  0  0
   -0.9167    1.5411    5.1038 N   0  0  0  0  0  0  0  0  0  0  0  0
   -0.5361    1.5211    6.0340 H   0  0  0  0  0  0  0  0  0  0  0  0
   -1.6992    2.1052    4.8405 H   0  0  0  0  0  0  0  0  0  0  0  0
    0.5158   -0.8649   -0.5413 C   0  0  0  0  0  0  0  0  0  0  0  0
    1.5334   -0.2686   -0.8890 O   0  0  0  0  0  0  0  0  0  0  0  0
    0.2223   -2.0980   -0.9735 N   0  0  0  0  0  0  0  0  0  0  0  0
   -0.6171   -2.5331   -0.6256 H   0  0  0  0  0  0  0  0  0  0  0  0
    1.0639   -2.8617   -1.8938 C   0  0  0  0  0  0  0  0  0  0  0  0
    2.0694   -2.9593   -1.4770 H   0  0  0  0  0  0  0  0  0  0  0  0
    0.6450   -3.8559   -2.0567 H   0  0  0  0  0  0  0  0  0  0  0  0
    1.1357   -2.3380   -2.8485 H   0  0  0  0  0  0  0  0  0  0  0  0
  5  6  2  0  0  0  0
  5  7  1  0  0  0  0
  2  3  1  0  0  0  0
  2  4  1  0  0  0  0
  2  5  1  0  0  0  0
  1  2  1  0  0  0  0
 22 23  2  0  0  0  0
 22 24  1  0  0  0  0
 19 20  1  0  0  0  0
 19 21  1  0  0  0  0
 17 18  2  0  0  0  0
 17 19  1  0  0  0  0
 14 15  1  0  0  0  0
 14 16  1  0  0  0  0
 14 17  1  0  0  0  0
 11 12  1  0  0  0  0
 11 13  1  0  0  0  0
 11 14  1  0  0  0  0
  9 10  1  0  0  0  0
  9 11  1  0  0  0  0
  9 22  1  0  0  0  0
  7  8  1  0  0  0  0
  7  9  1  0  0  0  0
 26 27  1  0  0  0  0
 26 28  1  0  0  0  0
 26 29  1  0  0  0  0
 24 25  1  0  0  0  0
 24 26  1  0  0  0  0
M  END
$$$$
default_name
  -OEChem-01062215323D

 29 28  0     1  0  0  0  0  0999 V2000
   -3.3998   -3.6239    1.3678 H   0  0  0  0  0  0  0  0  0  0  0  0
   -3.3608   -2.6749    0.8348 C   0  0  0  0  0  0  0  0  0  0  0  0
   -4.0988   -1.9909    1.2498 H   0  0  0  0  0  0  0  0  0  0  0  0
   -3.5618   -2.8419   -0.2222 H   0  0  0  0  0  0  0  0  0  0  0  0
   -1.9818   -2.0809    0.9918 C   0  0  0  0  0  0  0  0  0  0  0  0
   -1.1288   -2.6669    1.6468 O   0  0  0  0  0  0  0  0  0  0  0  0
   -1.7648   -0.9089    0.3998 N   0  0  0  0  0  0  0  0  0  0  0  0
   -2.5238   -0.4719   -0.1032 H   0  0  0  0  0  0  0  0  0  0  0  0
   -0.4848   -0.1959    0.4138 C   0  0  1  0  0  0  0  0  0  0  0  0
   -0.6512    0.8258    0.0686 H   0  0  0  0  0  0  0  0  0  0  0  0
    0.0347   -0.1367    1.8636 C   0  0  0  0  0  0  0  0  0  0  0  0
    0.0570   -1.1531    2.2621 H   0  0  0  0  0  0  0  0  0  0  0  0
    1.0545    0.2512    1.8612 H   0  0  0  0  0  0  0  0  0  0  0  0
   -0.8256    0.7317    2.7980 C   0  0  0  0  0  0  0  0  0  0  0  0
   -0.8485    1.7568    2.4286 H   0  0  0  0  0  0  0  0  0  0  0  0
   -1.8433    0.3416    2.8060 H   0  0  0  0  0  0  0  0  0  0  0  0
   -0.3101    0.7599    4.2368 C   0  0  0  0  0  0  0  0  0  0  0  0
    0.6383    0.1014    4.6207 O   0  0  0  0  0  0  0  0  0  0  0  0
   -0.9167    1.5411    5.1038 N   0  0  0  0  0  0  0  0  0  0  0  0
   -0.5361    1.5211    6.0340 H   0  0  0  0  0  0  0  0  0  0  0  0
   -1.6992    2.1052    4.8405 H   0  0  0  0  0  0  0  0  0  0  0  0
    0.5158   -0.8649   -0.5413 C   0  0  0  0  0  0  0  0  0  0  0  0
    1.6476   -0.4032   -0.6751 O   0  0  0  0  0  0  0  0  0  0  0  0
    0.0963   -1.9450   -1.2127 N   0  0  0  0  0  0  0  0  0  0  0  0
   -0.8365   -2.2804   -1.0324 H   0  0  0  0  0  0  0  0  0  0  0  0
    0.9222   -2.6846   -2.1663 C   0  0  0  0  0  0  0  0  0  0  0  0
    1.8405   -3.0174   -1.6761 H   0  0  0  0  0  0  0  0  0  0  0  0
    0.3818   -3.5539   -2.5439 H   0  0  0  0  0  0  0  0  0  0  0  0
    1.1926   -2.0354   -3.0008 H   0  0  0  0  0  0  0  0  0  0  0  0
  5  6  2  0  0  0  0
  5  7  1  0  0  0  0
  2  3  1  0  0  0  0
  2  4  1  0  0  0  0
  2  5  1  0  0  0  0
  1  2  1  0  0  0  0
 22 23  2  0  0  0  0
 22 24  1  0  0  0  0
 19 20  1  0  0  0  0
 19 21  1  0  0  0  0
 17 18  2  0  0  0  0
 17 19  1  0  0  0  0
 14 15  1  0  0  0  0
 14 16  1  0  0  0  0
 14 17  1  0  0  0  0
 11 12  1  0  0  0  0
 11 13  1  0  0  0  0
 11 14  1  0  0  0  0
  9 10  1  0  0  0  0
  9 11  1  0  0  0  0
  9 22  1  0  0  0  0
  7  8  1  0  0  0  0
  7  9  1  0  0  0  0
 26 27  1  0  0  0  0
 26 28  1  0  0  0  0
 26 29  1  0  0  0  0
 24 25  1  0  0  0  0
 24 26  1  0  0  0  0
M  END
$$$$
default_name
  -OEChem-01062215323D

 29 28  0     1  0  0  0  0  0999 V2000
   -3.3998   -3.6239    1.3678 H   0  0  0  0  0  0  0  0  0  0  0  0
   -3.3608   -2.6749    0.8348 C   0  0  0  0  0  0  0  0  0  0  0  0
   -4.0988   -1.9909    1.2498 H   0  0  0  0  0  0  0  0  0  0  0  0
   -3.5618   -2.8419   -0.2222 H   0  0  0  0  0  0  0  0  0  0  0  0
   -1.9818   -2.0809    0.9918 C   0  0  0  0  0  0  0  0  0  0  0  0
   -1.1288   -2.6669    1.6468 O   0  0  0  0  0  0  0  0  0  0  0  0
   -1.7648   -0.9089    0.3998 N   0  0  0  0  0  0  0  0  0  0  0  0
   -2.5238   -0.4719   -0.1032 H   0  0  0  0  0  0  0  0  0  0  0  0
   -0.4848   -0.1959    0.4138 C   0  0  1  0  0  0  0  0  0  0  0  0
   -0.6512    0.8258    0.0686 H   0  0  0  0  0  0  0  0  0  0  0  0
    0.0347   -0.1367    1.8636 C   0  0  0  0  0  0  0  0  0  0  0  0
    0.0570   -1.1531    2.2621 H   0  0  0  0  0  0  0  0  0  0  0  0
    1.0545    0.2512    1.8612 H   0  0  0  0  0  0  0  0  0  0  0  0
   -0.8256    0.7317    2.7980 C   0  0  0  0  0  0  0  0  0  0  0  0
   -0.8485    1.7568    2.4286 H   0  0  0  0  0  0  0  0  0  0  0  0
   -1.8433    0.3416    2.8060 H   0  0  0  0  0  0  0  0  0  0  0  0
   -0.3101    0.7599    4.2368 C   0  0  0  0  0  0  0  0  0  0  0  0
    0.6383    0.1014    4.6207 O   0  0  0  0  0  0  0  0  0  0  0  0
   -0.9167    1.5411    5.1038 N   0  0  0  0  0  0  0  0  0  0  0  0
   -0.5361    1.5211    6.0340 H   0  0  0  0  0  0  0  0  0  0  0  0
   -1.6992    2.1052    4.8405 H   0  0  0  0  0  0  0  0  0  0  0  0
    0.5158   -0.8649   -0.5413 C   0  0  0  0  0  0  0  0  0  0  0  0
    1.7122   -0.5877   -0.4784 O   0  0  0  0  0  0  0  0  0  0  0  0
    0.0261   -1.7367   -1.4322 N   0  0  0  0  0  0  0  0  0  0  0  0
   -0.9619   -1.9324   -1.4075 H   0  0  0  0  0  0  0  0  0  0  0  0
    0.8446   -2.4448   -2.4156 C   0  0  0  0  0  0  0  0  0  0  0  0
    1.6325   -3.0030   -1.9040 H   0  0  0  0  0  0  0  0  0  0  0  0
    0.2311   -3.1377   -2.9933 H   0  0  0  0  0  0  0  0  0  0  0  0
    1.3134   -1.7267   -3.0905 H   0  0  0  0  0  0  0  0  0  0  0  0
  5  6  2  0  0  0  0
  5  7  1  0  0  0  0
  2  3  1  0  0  0  0
  2  4  1  0  0  0  0
  2  5  1  0  0  0  0
  1  2  1  0  0  0  0
 22 23  2  0  0  0  0
 22 24  1  0  0  0  0
 19 20  1  0  0  0  0
 19 21  1  0  0  0  0
 17 18  2  0  0  0  0
 17 19  1  0  0  0  0
 14 15  1  0  0  0  0
 14 16  1  0  0  0  0
 14 17  1  0  0  0  0
 11 12  1  0  0  0  0
 11 13  1  0  0  0  0
 11 14  1  0  0  0  0
  9 10  1  0  0  0  0
  9 11  1  0  0  0  0
  9 22  1  0  0  0  0
  7  8  1  0  0  0  0
  7  9  1  0  0  0  0
 26 27  1  0  0  0  0
 26 28  1  0  0  0  0
 26 29  1  0  0  0  0
 24 25  1  0  0  0  0
 24 26  1  0  0  0  0
M  END
$$$$
default_name
  -OEChem-01062215323D

 29 28  0     1  0  0  0  0  0999 V2000
   -3.3998   -3.6239    1.3678 H   0  0  0  0  0  0  0  0  0  0  0  0
   -3.3608   -2.6749    0.8348 C   0  0  0  0  0  0  0  0  0  0  0  0
   -4.0988   -1.9909    1.2498 H   0  0  0  0  0  0  0  0  0  0  0  0
   -3.5618   -2.8419   -0.2222 H   0  0  0  0  0  0  0  0  0  0  0  0
   -1.9818   -2.0809    0.9918 C   0  0  0  0  0  0  0  0  0  0  0  0
   -1.1288   -2.6669    1.6468 O   0  0  0  0  0  0  0  0  0  0  0  0
   -1.7648   -0.9089    0.3998 N   0  0  0  0  0  0  0  0  0  0  0  0
   -2.5238   -0.4719   -0.1032 H   0  0  0  0  0  0  0  0  0  0  0  0
   -0.4848   -0.1959    0.4138 C   0  0  1  0  0  0  0  0  0  0  0  0
   -0.6512    0.8258    0.0686 H   0  0  0  0  0  0  0  0  0  0  0  0
    0.0347   -0.1367    1.8636 C   0  0  0  0  0  0  0  0  0  0  0  0
    0.0570   -1.1531    2.2621 H   0  0  0  0  0  0  0  0  0  0  0  0
    1.0545    0.2512    1.8612 H   0  0  0  0  0  0  0  0  0  0  0  0
   -0.8256    0.7317    2.7980 C   0  0  0  0  0  0  0  0  0  0  0  0
   -0.8485    1.7568    2.4286 H   0  0  0  0  0  0  0  0  0  0  0  0
   -1.8433    0.3416    2.8060 H   0  0  0  0  0  0  0  0  0  0  0  0
   -0.3101    0.7599    4.2368 C   0  0  0  0  0  0  0  0  0  0  0  0
    0.6383    0.1014    4.6207 O   0  0  0  0  0  0  0  0  0  0  0  0
   -0.9167    1.5411    5.1038 N   0  0  0  0  0  0  0  0  0  0  0  0
   -0.5361    1.5211    6.0340 H   0  0  0  0  0  0  0  0  0  0  0  0
   -1.6992    2.1052    4.8405 H   0  0  0  0  0  0  0  0  0  0  0  0
    0.5158   -0.8649   -0.5413 C   0  0  0  0  0  0  0  0  0  0  0  0
    1.7226   -0.8094   -0.3121 O   0  0  0  0  0  0  0  0  0  0  0  0
    0.0165   -1.4872   -1.6170 N   0  0  0  0  0  0  0  0  0  0  0  0
   -0.9848   -1.5129   -1.7253 H   0  0  0  0  0  0  0  0  0  0  0  0
    0.8363   -2.1586   -2.6247 C   0  0  0  0  0  0  0  0  0  0  0  0
    1.4596   -2.9173   -2.1452 H   0  0  0  0  0  0  0  0  0  0  0  0
    0.2031   -2.6358   -3.3742 H   0  0  0  0  0  0  0  0  0  0  0  0
    1.4898   -1.4328   -3.1116 H   0  0  0  0  0  0  0  0  0  0  0  0
  5  6  2  0  0  0  0
  5  7  1  0  0  0  0
  2  3  1  0  0  0  0
  2  4  1  0  0  0  0
  2  5  1  0  0  0  0
  1  2  1  0  0  0  0
 22 23  2  0  0  0  0
 22 24  1  0  0  0  0
 19 20  1  0  0  0  0
 19 21  1  0  0  0  0
 17 18  2  0  0  0  0
 17 19  1  0  0  0  0
 14 15  1  0  0  0  0
 14 16  1  0  0  0  0
 14 17  1  0  0  0  0
 11 12  1  0  0  0  0
 11 13  1  0  0  0  0
 11 14  1  0  0  0  0
  9 10  1  0  0  0  0
  9 11  1  0  0  0  0
  9 22  1  0  0  0  0
  7  8  1  0  0  0  0
  7  9  1  0  0  0  0
 26 27  1  0  0  0  0
 26 28  1  0  0  0  0
 26 29  1  0  0  0  0
 24 25  1  0  0  0  0
 24 26  1  0  0  0  0
M  END
$$$$
default_name
  -OEChem-01062215323D

 29 28  0     1  0  0  0  0  0999 V2000
   -3.3998   -3.6239    1.3678 H   0  0  0  0  0  0  0  0  0  0  0  0
   -3.3608   -2.6749    0.8348 C   0  0  0  0  0  0  0  0  0  0  0  0
   -4.0988   -1.9909    1.2498 H   0  0  0  0  0  0  0  0  0  0  0  0
   -3.5618   -2.8419   -0.2222 H   0  0  0  0  0  0  0  0  0  0  0  0
   -1.9818   -2.0809    0.9918 C   0  0  0  0  0  0  0  0  0  0  0  0
   -1.1288   -2.6669    1.6468 O   0  0  0  0  0  0  0  0  0  0  0  0
   -1.7648   -0.9089    0.3998 N   0  0  0  0  0  0  0  0  0  0  0  0
   -2.5238   -0.4719   -0.1032 H   0  0  0  0  0  0  0  0  0  0  0  0
   -0.4848   -0.1959    0.4138 C   0  0  1  0  0  0  0  0  0  0  0  0
   -0.6512    0.8258    0.0686 H   0  0  0  0  0  0  0  0  0  0  0  0
    0.0347   -0.1367    1.8636 C   0  0  0  0  0  0  0  0  0  0  0  0
    0.0570   -1.1531    2.2621 H   0  0  0  0  0  0  0  0  0  0  0  0
    1.0545    0.2512    1.8612 H   0  0  0  0  0  0  0  0  0  0  0  0
   -0.8256    0.7317    2.7980 C   0  0  0  0  0  0  0  0  0  0  0  0
   -0.8485    1.7568    2.4286 H   0  0  0  0  0  0  0  0  0  0  0  0
   -1.8433    0.3416    2.8060 H   0  0  0  0  0  0  0  0  0  0  0  0
   -0.3101    0.7599    4.2368 C   0  0  0  0  0  0  0  0  0  0  0  0
    0.6383    0.1014    4.6207 O   0  0  0  0  0  0  0  0  0  0  0  0
   -0.9167    1.5411    5.1038 N   0  0  0  0  0  0  0  0  0  0  0  0
   -0.5361    1.5211    6.0340 H   0  0  0  0  0  0  0  0  0  0  0  0
   -1.6992    2.1052    4.8405 H   0  0  0  0  0  0  0  0  0  0  0  0
    0.5158   -0.8649   -0.5413 C   0  0  0  0  0  0  0  0  0  0  0  0
    1.6783   -1.0533   -0.1877 O   0  0  0  0  0  0  0  0  0  0  0  0
    0.0683   -1.2134   -1.7545 N   0  0  0  0  0  0  0  0  0  0  0  0
   -0.9036   -1.0505   -1.9641 H   0  0  0  0  0  0  0  0  0  0  0  0
    0.8978   -1.8456   -2.7794 C   0  0  0  0  0  0  0  0  0  0  0  0
    1.3336   -2.7661   -2.3832 H   0  0  0  0  0  0  0  0  0  0  0  0
    0.2997   -2.0822   -3.6607 H   0  0  0  0  0  0  0  0  0  0  0  0
    1.7099   -1.1737   -3.0625 H   0  0  0  0  0  0  0  0  0  0  0  0
  5  6  2  0  0  0  0
  5  7  1  0  0  0  0
  2  3  1  0  0  0  0
  2  4  1  0  0  0  0
  2  5  1  0  0  0  0
  1  2  1  0  0  0  0
 22 23  2  0  0  0  0
 22 24  1  0  0  0  0
 19 20  1  0  0  0  0
 19 21  1  0  0  0  0
 17 18  2  0  0  0  0
 17 19  1  0  0  0  0
 14 15  1  0  0  0  0
 14 16  1  0  0  0  0
 14 17  1  0  0  0  0
 11 12  1  0  0  0  0
 11 13  1  0  0  0  0
 11 14  1  0  0  0  0
  9 10  1  0  0  0  0
  9 11  1  0  0  0  0
  9 22  1  0  0  0  0
  7  8  1  0  0  0  0
  7  9  1  0  0  0  0
 26 27  1  0  0  0  0
 26 28  1  0  0  0  0
 26 29  1  0  0  0  0
 24 25  1  0  0  0  0
 24 26  1  0  0  0  0
M  END
$$$$
default_name
  -OEChem-01062215323D

 29 28  0     1  0  0  0  0  0999 V2000
   -3.3998   -3.6239    1.3678 H   0  0  0  0  0  0  0  0  0  0  0  0
   -3.3608   -2.6749    0.8348 C   0  0  0  0  0  0  0  0  0  0  0  0
   -4.0988   -1.9909    1.2498 H   0  0  0  0  0  0  0  0  0  0  0  0
   -3.5618   -2.8419   -0.2222 H   0  0  0  0  0  0  0  0  0  0  0  0
   -1.9818   -2.0809    0.9918 C   0  0  0  0  0  0  0  0  0  0  0  0
   -1.1288   -2.6669    1.6468 O   0  0  0  0  0  0  0  0  0  0  0  0
   -1.7648   -0.9089    0.3998 N   0  0  0  0  0  0  0  0  0  0  0  0
   -2.5238   -0.4719   -0.1032 H   0  0  0  0  0  0  0  0  0  0  0  0
   -0.4848   -0.1959    0.4138 C   0  0  1  0  0  0  0  0  0  0  0  0
   -0.6512    0.8258    0.0686 H   0  0  0  0  0  0  0  0  0  0  0  0
    0.0347   -0.1367    1.8636 C   0  0  0  0  0  0  0  0  0  0  0  0
    0.0570   -1.1531    2.2621 H   0  0  0  0  0  0  0  0  0  0  0  0
    1.0545    0.2512    1.8612 H   0  0  0  0  0  0  0  0  0  0  0  0
   -0.8256    0.7317    2.7980 C   0  0  0  0  0  0  0  0  0  0  0  0
   -0.8485    1.7568    2.4286 H   0  0  0  0  0  0  0  0  0  0  0  0
   -1.8433    0.3416    2.8060 H   0  0  0  0  0  0  0  0  0  0  0  0
   -0.3101    0.7599    4.2368 C   0  0  0  0  0  0  0  0  0  0  0  0
    0.6383    0.1014    4.6207 O   0  0  0  0  0  0  0  0  0  0  0  0
   -0.9167    1.5411    5.1038 N   0  0  0  0  0  0  0  0  0  0  0  0
   -0.5361    1.5211    6.0340 H   0  0  0  0  0  0  0  0  0  0  0  0
   -1.6992    2.1052    4.8405 H   0  0  0  0  0  0  0  0  0  0  0  0
    0.5158   -0.8649   -0.5413 C   0  0  0  0  0  0  0  0  0  0  0  0
    1.5823   -1.3027   -0.1136 O   0  0  0  0  0  0  0  0  0  0  0  0
    0.1778   -0.9342   -1.8353 N   0  0  0  0  0  0  0  0  0  0  0  0
   -0.7239   -0.5766   -2.1077 H   0  0  0  0  0  0  0  0  0  0  0  0
    1.0251   -1.5271   -2.8692 C   0  0  0  0  0  0  0  0  0  0  0  0
    1.2629   -2.5596   -2.6018 H   0  0  0  0  0  0  0  0  0  0  0  0
    0.5144   -1.5147   -3.8333 H   0  0  0  0  0  0  0  0  0  0  0  0
    1.9586   -0.9672   -2.9466 H   0  0  0  0  0  0  0  0  0  0  0  0
  5  6  2  0  0  0  0
  5  7  1  0  0  0  0
  2  3  1  0  0  0  0
  2  4  1  0  0  0  0
  2  5  1  0  0  0  0
  1  2  1  0  0  0  0
 22 23  2  0  0  0  0
 22 24  1  0  0  0  0
 19 20  1  0  0  0  0
 19 21  1  0  0  0  0
 17 18  2  0  0  0  0
 17 19  1  0  0  0  0
 14 15  1  0  0  0  0
 14 16  1  0  0  0  0
 14 17  1  0  0  0  0
 11 12  1  0  0  0  0
 11 13  1  0  0  0  0
 11 14  1  0  0  0  0
  9 10  1  0  0  0  0
  9 11  1  0  0  0  0
  9 22  1  0  0  0  0
  7  8  1  0  0  0  0
  7  9  1  0  0  0  0
 26 27  1  0  0  0  0
 26 28  1  0  0  0  0
 26 29  1  0  0  0  0
 24 25  1  0  0  0  0
 24 26  1  0  0  0  0
M  END
$$$$
default_name
  -OEChem-01062215323D

 29 28  0     1  0  0  0  0  0999 V2000
   -3.3998   -3.6239    1.3678 H   0  0  0  0  0  0  0  0  0  0  0  0
   -3.3608   -2.6749    0.8348 C   0  0  0  0  0  0  0  0  0  0  0  0
   -4.0988   -1.9909    1.2498 H   0  0  0  0  0  0  0  0  0  0  0  0
   -3.5618   -2.8419   -0.2222 H   0  0  0  0  0  0  0  0  0  0  0  0
   -1.9818   -2.0809    0.9918 C   0  0  0  0  0  0  0  0  0  0  0  0
   -1.1288   -2.6669    1.6468 O   0  0  0  0  0  0  0  0  0  0  0  0
   -1.7648   -0.9089    0.3998 N   0  0  0  0  0  0  0  0  0  0  0  0
   -2.5238   -0.4719   -0.1032 H   0  0  0  0  0  0  0  0  0  0  0  0
   -0.4848   -0.1959    0.4138 C   0  0  1  0  0  0  0  0  0  0  0  0
   -0.6512    0.8258    0.0686 H   0  0  0  0  0  0  0  0  0  0  0  0
    0.0347   -0.1367    1.8636 C   0  0  0  0  0  0  0  0  0  0  0  0
    0.0570   -1.1531    2.2621 H   0  0  0  0  0  0  0  0  0  0  0  0
    1.0545    0.2512    1.8612 H   0  0  0  0  0  0  0  0  0  0  0  0
   -0.8256    0.7317    2.7980 C   0  0  0  0  0  0  0  0  0  0  0  0
   -0.8485    1.7568    2.4286 H   0  0  0  0  0  0  0  0  0  0  0  0
   -1.8433    0.3416    2.8060 H   0  0  0  0  0  0  0  0  0  0  0  0
   -0.3101    0.7599    4.2368 C   0  0  0  0  0  0  0  0  0  0  0  0
    0.6383    0.1014    4.6207 O   0  0  0  0  0  0  0  0  0  0  0  0
   -0.9167    1.5411    5.1038 N   0  0  0  0  0  0  0  0  0  0  0  0
   -0.5361    1.5211    6.0340 H   0  0  0  0  0  0  0  0  0  0  0  0
   -1.6992    2.1052    4.8405 H   0  0  0  0  0  0  0  0  0  0  0  0
    0.5158   -0.8649   -0.5413 C   0  0  0  0  0  0  0  0  0  0  0  0
    1.4411   -1.5406   -0.0949 O   0  0  0  0  0  0  0  0  0  0  0  0
    0.3376   -0.6685   -1.8540 N   0  0  0  0  0  0  0  0  0  0  0  0
   -0.4579   -0.1236   -2.1463 H   0  0  0  0  0  0  0  0  0  0  0  0
    1.2094   -1.2248   -2.8879 C   0  0  0  0  0  0  0  0  0  0  0  0
    1.2526   -2.3120   -2.7861 H   0  0  0  0  0  0  0  0  0  0  0  0
    0.8325   -0.9721   -3.8801 H   0  0  0  0  0  0  0  0  0  0  0  0
    2.2190   -0.8272   -2.7718 H   0  0  0  0  0  0  0  0  0  0  0  0
  5  6  2  0  0  0  0
  5  7  1  0  0  0  0
  2  3  1  0  0  0  0
  2  4  1  0  0  0  0
  2  5  1  0  0  0  0
  1  2  1  0  0  0  0
 22 23  2  0  0  0  0
 22 24  1  0  0  0  0
 19 20  1  0  0  0  0
 19 21  1  0  0  0  0
 17 18  2  0  0  0  0
 17 19  1  0  0  0  0
 14 15  1  0  0  0  0
 14 16  1  0  0  0  0
 14 17  1  0  0  0  0
 11 12  1  0  0  0  0
 11 13  1  0  0  0  0
 11 14  1  0  0  0  0
  9 10  1  0  0  0  0
  9 11  1  0  0  0  0
  9 22  1  0  0  0  0
  7  8  1  0  0  0  0
  7  9  1  0  0  0  0
 26 27  1  0  0  0  0
 26 28  1  0  0  0  0
 26 29  1  0  0  0  0
 24 25  1  0  0  0  0
 24 26  1  0  0  0  0
M  END
$$$$
default_name
  -OEChem-01062215323D

 29 28  0     1  0  0  0  0  0999 V2000
   -3.3998   -3.6239    1.3678 H   0  0  0  0  0  0  0  0  0  0  0  0
   -3.3608   -2.6749    0.8348 C   0  0  0  0  0  0  0  0  0  0  0  0
   -4.0988   -1.9909    1.2498 H   0  0  0  0  0  0  0  0  0  0  0  0
   -3.5618   -2.8419   -0.2222 H   0  0  0  0  0  0  0  0  0  0  0  0
   -1.9818   -2.0809    0.9918 C   0  0  0  0  0  0  0  0  0  0  0  0
   -1.1288   -2.6669    1.6468 O   0  0  0  0  0  0  0  0  0  0  0  0
   -1.7648   -0.9089    0.3998 N   0  0  0  0  0  0  0  0  0  0  0  0
   -2.5238   -0.4719   -0.1032 H   0  0  0  0  0  0  0  0  0  0  0  0
   -0.4848   -0.1959    0.4138 C   0  0  1  0  0  0  0  0  0  0  0  0
   -0.6512    0.8258    0.0686 H   0  0  0  0  0  0  0  0  0  0  0  0
    0.0347   -0.1367    1.8636 C   0  0  0  0  0  0  0  0  0  0  0  0
    0.0570   -1.1531    2.2621 H   0  0  0  0  0  0  0  0  0  0  0  0
    1.0545    0.2512    1.8612 H   0  0  0  0  0  0  0  0  0  0  0  0
   -0.8256    0.7317    2.7980 C   0  0  0  0  0  0  0  0  0  0  0  0
   -0.8485    1.7568    2.4286 H   0  0  0  0  0  0  0  0  0  0  0  0
   -1.8433    0.3416    2.8060 H   0  0  0  0  0  0  0  0  0  0  0  0
   -0.3101    0.7599    4.2368 C   0  0  0  0  0  0  0  0  0  0  0  0
    0.6383    0.1014    4.6207 O   0  0  0  0  0  0  0  0  0  0  0  0
   -0.9167    1.5411    5.1038 N   0  0  0  0  0  0  0  0  0  0  0  0
   -0.5361    1.5211    6.0340 H   0  0  0  0  0  0  0  0  0  0  0  0
   -1.6992    2.1052    4.8405 H   0  0  0  0  0  0  0  0  0  0  0  0
    0.5158   -0.8649   -0.5413 C   0  0  0  0  0  0  0  0  0  0  0  0
    1.2643   -1.7509   -0.1329 O   0  0  0  0  0  0  0  0  0  0  0  0
    0.5368   -0.4344   -1.8093 N   0  0  0  0  0  0  0  0  0  0  0  0
   -0.1237    0.2777   -2.0773 H   0  0  0  0  0  0  0  0  0  0  0  0
    1.4381   -0.9593   -2.8342 C   0  0  0  0  0  0  0  0  0  0  0  0
    1.3032   -2.0400   -2.9235 H   0  0  0  0  0  0  0  0  0  0  0  0
    1.2323   -0.4912   -3.7980 H   0  0  0  0  0  0  0  0  0  0  0  0
    2.4734   -0.7634   -2.5500 H   0  0  0  0  0  0  0  0  0  0  0  0
  5  6  2  0  0  0  0
  5  7  1  0  0  0  0
  2  3  1  0  0  0  0
  2  4  1  0  0  0  0
  2  5  1  0  0  0  0
  1  2  1  0  0  0  0
 22 23  2  0  0  0  0
 22 24  1  0  0  0  0
 19 20  1  0  0  0  0
 19 21  1  0  0  0  0
 17 18  2  0  0  0  0
 17 19  1  0  0  0  0
 14 15  1  0  0  0  0
 14 16  1  0  0  0  0
 14 17  1  0  0  0  0
 11 12  1  0  0  0  0
 11 13  1  0  0  0  0
 11 14  1  0  0  0  0
  9 10  1  0  0  0  0
  9 11  1  0  0  0  0
  9 22  1  0  0  0  0
  7  8  1  0  0  0  0
  7  9  1  0  0  0  0
 26 27  1  0  0  0  0
 26 28  1  0  0  0  0
 26 29  1  0  0  0  0
 24 25  1  0  0  0  0
 24 26  1  0  0  0  0
M  END
$$$$
default_name
  -OEChem-01062215323D

 29 28  0     1  0  0  0  0  0999 V2000
   -3.3998   -3.6239    1.3678 H   0  0  0  0  0  0  0  0  0  0  0  0
   -3.3608   -2.6749    0.8348 C   0  0  0  0  0  0  0  0  0  0  0  0
   -4.0988   -1.9909    1.2498 H   0  0  0  0  0  0  0  0  0  0  0  0
   -3.5618   -2.8419   -0.2222 H   0  0  0  0  0  0  0  0  0  0  0  0
   -1.9818   -2.0809    0.9918 C   0  0  0  0  0  0  0  0  0  0  0  0
   -1.1288   -2.6669    1.6468 O   0  0  0  0  0  0  0  0  0  0  0  0
   -1.7648   -0.9089    0.3998 N   0  0  0  0  0  0  0  0  0  0  0  0
   -2.5238   -0.4719   -0.1032 H   0  0  0  0  0  0  0  0  0  0  0  0
   -0.4848   -0.1959    0.4138 C   0  0  1  0  0  0  0  0  0  0  0  0
   -0.6512    0.8258    0.0686 H   0  0  0  0  0  0  0  0  0  0  0  0
    0.0347   -0.1367    1.8636 C   0  0  0  0  0  0  0  0  0  0  0  0
    0.0570   -1.1531    2.2621 H   0  0  0  0  0  0  0  0  0  0  0  0
    1.0545    0.2512    1.8612 H   0  0  0  0  0  0  0  0  0  0  0  0
   -0.8256    0.7317    2.7980 C   0  0  0  0  0  0  0  0  0  0  0  0
   -0.8485    1.7568    2.4286 H   0  0  0  0  0  0  0  0  0  0  0  0
   -1.8433    0.3416    2.8060 H   0  0  0  0  0  0  0  0  0  0  0  0
   -0.3101    0.7599    4.2368 C   0  0  0  0  0  0  0  0  0  0  0  0
    0.6383    0.1014    4.6207 O   0  0  0  0  0  0  0  0  0  0  0  0
   -0.9167    1.5411    5.1038 N   0  0  0  0  0  0  0  0  0  0  0  0
   -0.5361    1.5211    6.0340 H   0  0  0  0  0  0  0  0  0  0  0  0
   -1.6992    2.1052    4.8405 H   0  0  0  0  0  0  0  0  0  0  0  0
    0.5158   -0.8649   -0.5413 C   0  0  0  0  0  0  0  0  0  0  0  0
    1.0639   -1.9191   -0.2249 O   0  0  0  0  0  0  0  0  0  0  0  0
    0.7619   -0.2479   -1.7042 N   0  0  0  0  0  0  0  0  0  0  0  0
    0.2559    0.5999   -1.9053 H   0  0  0  0  0  0  0  0  0  0  0  0
    1.6957   -0.7487   -2.7118 C   0  0  0  0  0  0  0  0  0  0  0  0
    1.4113   -1.7623   -3.0047 H   0  0  0  0  0  0  0  0  0  0  0  0
    1.6867   -0.1049   -3.5927 H   0  0  0  0  0  0  0  0  0  0  0  0
    2.7044   -0.7800   -2.2964 H   0  0  0  0  0  0  0  0  0  0  0  0
  5  6  2  0  0  0  0
  5  7  1  0  0  0  0
  2  3  1  0  0  0  0
  2  4  1  0  0  0  0
  2  5  1  0  0  0  0
  1  2  1  0  0  0  0
 22 23  2  0  0  0  0
 22 24  1  0  0  0  0
 19 20  1  0  0  0  0
 19 21  1  0  0  0  0
 17 18  2  0  0  0  0
 17 19  1  0  0  0  0
 14 15  1  0  0  0  0
 14 16  1  0  0  0  0
 14 17  1  0  0  0  0
 11 12  1  0  0  0  0
 11 13  1  0  0  0  0
 11 14  1  0  0  0  0
  9 10  1  0  0  0  0
  9 11  1  0  0  0  0
  9 22  1  0  0  0  0
  7  8  1  0  0  0  0
  7  9  1  0  0  0  0
 26 27  1  0  0  0  0
 26 28  1  0  0  0  0
 26 29  1  0  0  0  0
 24 25  1  0  0  0  0
 24 26  1  0  0  0  0
M  END
$$$$
default_name
  -OEChem-01062215323D

 29 28  0     1  0  0  0  0  0999 V2000
   -3.3998   -3.6239    1.3678 H   0  0  0  0  0  0  0  0  0  0  0  0
   -3.3608   -2.6749    0.8348 C   0  0  0  0  0  0  0  0  0  0  0  0
   -4.0988   -1.9909    1.2498 H   0  0  0  0  0  0  0  0  0  0  0  0
   -3.5618   -2.8419   -0.2222 H   0  0  0  0  0  0  0  0  0  0  0  0
   -1.9818   -2.0809    0.9918 C   0  0  0  0  0  0  0  0  0  0  0  0
   -1.1288   -2.6669    1.6468 O   0  0  0  0  0  0  0  0  0  0  0  0
   -1.7648   -0.9089    0.3998 N   0  0  0  0  0  0  0  0  0  0  0  0
   -2.5238   -0.4719   -0.1032 H   0  0  0  0  0  0  0  0  0  0  0  0
   -0.4848   -0.1959    0.4138 C   0  0  1  0  0  0  0  0  0  0  0  0
   -0.6512    0.8258    0.0686 H   0  0  0  0  0  0  0  0  0  0  0  0
    0.0347   -0.1367    1.8636 C   0  0  0  0  0  0  0  0  0  0  0  0
    0.0570   -1.1531    2.2621 H   0  0  0  0  0  0  0  0  0  0  0  0
    1.0545    0.2512    1.8612 H   0  0  0  0  0  0  0  0  0  0  0  0
   -0.8256    0.7317    2.7980 C   0  0  0  0  0  0  0  0  0  0  0  0
   -0.8485    1.7568    2.4286 H   0  0  0  0  0  0  0  0  0  0  0  0
   -1.8433    0.3416    2.8060 H   0  0  0  0  0  0  0  0  0  0  0  0
   -0.3101    0.7599    4.2368 C   0  0  0  0  0  0  0  0  0  0  0  0
    0.6383    0.1014    4.6207 O   0  0  0  0  0  0  0  0  0  0  0  0
   -0.9167    1.5411    5.1038 N   0  0  0  0  0  0  0  0  0  0  0  0
   -0.5361    1.5211    6.0340 H   0  0  0  0  0  0  0  0  0  0  0  0
   -1.6992    2.1052    4.8405 H   0  0  0  0  0  0  0  0  0  0  0  0
    0.5158   -0.8649   -0.5413 C   0  0  0  0  0  0  0  0  0  0  0  0
    0.8537   -2.0339   -0.3647 O   0  0  0  0  0  0  0  0  0  0  0  0
    0.9974   -0.1216   -1.5458 N   0  0  0  0  0  0  0  0  0  0  0  0
    0.6550    0.8211   -1.6421 H   0  0  0  0  0  0  0  0  0  0  0  0
    1.9647   -0.6073   -2.5291 C   0  0  0  0  0  0  0  0  0  0  0  0
    1.5696   -1.4978   -3.0242 H   0  0  0  0  0  0  0  0  0  0  0  0
    2.1646    0.1606   -3.2780 H   0  0  0  0  0  0  0  0  0  0  0  0
    2.8962   -0.8760   -2.0282 H   0  0  0  0  0  0  0  0  0  0  0  0
  5  6  2  0  0  0  0
  5  7  1  0  0  0  0
  2  3  1  0  0  0  0
  2  4  1  0  0  0  0
  2  5  1  0  0  0  0
  1  2  1  0  0  0  0
 22 23  2  0  0  0  0
 22 24  1  0  0  0  0
 19 20  1  0  0  0  0
 19 21  1  0  0  0  0
 17 18  2  0  0  0  0
 17 19  1  0  0  0  0
 14 15  1  0  0  0  0
 14 16  1  0  0  0  0
 14 17  1  0  0  0  0
 11 12  1  0  0  0  0
 11 13  1  0  0  0  0
 11 14  1  0  0  0  0
  9 10  1  0  0  0  0
  9 11  1  0  0  0  0
  9 22  1  0  0  0  0
  7  8  1  0  0  0  0
  7  9  1  0  0  0  0
 26 27  1  0  0  0  0
 26 28  1  0  0  0  0
 26 29  1  0  0  0  0
 24 25  1  0  0  0  0
 24 26  1  0  0  0  0
M  END
$$$$
default_name
  -OEChem-01062215323D

 29 28  0     1  0  0  0  0  0999 V2000
   -3.3998   -3.6239    1.3678 H   0  0  0  0  0  0  0  0  0  0  0  0
   -3.3608   -2.6749    0.8348 C   0  0  0  0  0  0  0  0  0  0  0  0
   -4.0988   -1.9909    1.2498 H   0  0  0  0  0  0  0  0  0  0  0  0
   -3.5618   -2.8419   -0.2222 H   0  0  0  0  0  0  0  0  0  0  0  0
   -1.9818   -2.0809    0.9918 C   0  0  0  0  0  0  0  0  0  0  0  0
   -1.1288   -2.6669    1.6468 O   0  0  0  0  0  0  0  0  0  0  0  0
   -1.7648   -0.9089    0.3998 N   0  0  0  0  0  0  0  0  0  0  0  0
   -2.5238   -0.4719   -0.1032 H   0  0  0  0  0  0  0  0  0  0  0  0
   -0.4848   -0.1959    0.4138 C   0  0  1  0  0  0  0  0  0  0  0  0
   -0.6512    0.8258    0.0686 H   0  0  0  0  0  0  0  0  0  0  0  0
    0.0347   -0.1367    1.8636 C   0  0  0  0  0  0  0  0  0  0  0  0
    0.0570   -1.1531    2.2621 H   0  0  0  0  0  0  0  0  0  0  0  0
    1.0545    0.2512    1.8612 H   0  0  0  0  0  0  0  0  0  0  0  0
   -0.8256    0.7317    2.7980 C   0  0  0  0  0  0  0  0  0  0  0  0
   -0.8485    1.7568    2.4286 H   0  0  0  0  0  0  0  0  0  0  0  0
   -1.8433    0.3416    2.8060 H   0  0  0  0  0  0  0  0  0  0  0  0
   -0.3101    0.7599    4.2368 C   0  0  0  0  0  0  0  0  0  0  0  0
    0.6383    0.1014    4.6207 O   0  0  0  0  0  0  0  0  0  0  0  0
   -0.9167    1.5411    5.1038 N   0  0  0  0  0  0  0  0  0  0  0  0
   -0.5361    1.5211    6.0340 H   0  0  0  0  0  0  0  0  0  0  0  0
   -1.6992    2.1052    4.8405 H   0  0  0  0  0  0  0  0  0  0  0  0
    0.5158   -0.8649   -0.5413 C   0  0  0  0  0  0  0  0  0  0  0  0
    0.6480   -2.0874   -0.5428 O   0  0  0  0  0  0  0  0  0  0  0  0
    1.2274   -0.0642   -1.3451 N   0  0  0  0  0  0  0  0  0  0  0  0
    1.0465    0.9261   -1.3056 H   0  0  0  0  0  0  0  0  0  0  0  0
    2.2266   -0.5448   -2.2985 C   0  0  0  0  0  0  0  0  0  0  0  0
    1.7672   -1.2645   -2.9806 H   0  0  0  0  0  0  0  0  0  0  0  0
    2.6334    0.2871   -2.8754 H   0  0  0  0  0  0  0  0  0  0  0  0
    3.0359   -1.0448   -1.7637 H   0  0  0  0  0  0  0  0  0  0  0  0
  5  6  2  0  0  0  0
  5  7  1  0  0  0  0
  2  3  1  0  0  0  0
  2  4  1  0  0  0  0
  2  5  1  0  0  0  0
  1  2  1  0  0  0  0
 22 23  2  0  0  0  0
 22 24  1  0  0  0  0
 19 20  1  0  0  0  0
 19 21  1  0  0  0  0
 17 18  2  0  0  0  0
 17 19  1  0  0  0  0
 14 15  1  0  0  0  0
 14 16  1  0  0  0  0
 14 17  1  0  0  0  0
 11 12  1  0  0  0  0
 11 13  1  0  0  0  0
 11 14  1  0  0  0  0
  9 10  1  0  0  0  0
  9 11  1  0  0  0  0
  9 22  1  0  0  0  0
  7  8  1  0  0  0  0
  7  9  1  0  0  0  0
 26 27  1  0  0  0  0
 26 28  1  0  0  0  0
 26 29  1  0  0  0  0
 24 25  1  0  0  0  0
 24 26  1  0  0  0  0
M  END
$$$$
default_name
  -OEChem-01062215323D

 29 28  0     1  0  0  0  0  0999 V2000
   -3.3998   -3.6239    1.3678 H   0  0  0  0  0  0  0  0  0  0  0  0
   -3.3608   -2.6749    0.8348 C   0  0  0  0  0  0  0  0  0  0  0  0
   -4.0988   -1.9909    1.2498 H   0  0  0  0  0  0  0  0  0  0  0  0
   -3.5618   -2.8419   -0.2222 H   0  0  0  0  0  0  0  0  0  0  0  0
   -1.9818   -2.0809    0.9918 C   0  0  0  0  0  0  0  0  0  0  0  0
   -1.1288   -2.6669    1.6468 O   0  0  0  0  0  0  0  0  0  0  0  0
   -1.7648   -0.9089    0.3998 N   0  0  0  0  0  0  0  0  0  0  0  0
   -2.5238   -0.4719   -0.1032 H   0  0  0  0  0  0  0  0  0  0  0  0
   -0.4848   -0.1959    0.4138 C   0  0  1  0  0  0  0  0  0  0  0  0
   -0.6512    0.8258    0.0686 H   0  0  0  0  0  0  0  0  0  0  0  0
    0.0347   -0.1367    1.8636 C   0  0  0  0  0  0  0  0  0  0  0  0
    0.0570   -1.1531    2.2621 H   0  0  0  0  0  0  0  0  0  0  0  0
    1.0545    0.2512    1.8612 H   0  0  0  0  0  0  0  0  0  0  0  0
   -0.8256    0.7317    2.7980 C   0  0  0  0  0  0  0  0  0  0  0  0
   -0.8485    1.7568    2.4286 H   0  0  0  0  0  0  0  0  0  0  0  0
   -1.8433    0.3416    2.8060 H   0  0  0  0  0  0  0  0  0  0  0  0
   -0.3101    0.7599    4.2368 C   0  0  0  0  0  0  0  0  0  0  0  0
    0.6383    0.1014    4.6207 O   0  0  0  0  0  0  0  0  0  0  0  0
   -0.9167    1.5411    5.1038 N   0  0  0  0  0  0  0  0  0  0  0  0
   -0.5361    1.5211    6.0340 H   0  0  0  0  0  0  0  0  0  0  0  0
   -1.6992    2.1052    4.8405 H   0  0  0  0  0  0  0  0  0  0  0  0
    0.5158   -0.8649   -0.5413 C   0  0  0  0  0  0  0  0  0  0  0  0
    0.4607   -2.0760   -0.7470 O   0  0  0  0  0  0  0  0  0  0  0  0
    1.4362   -0.0796   -1.1156 N   0  0  0  0  0  0  0  0  0  0  0  0
    1.4036    0.9079   -0.9188 H   0  0  0  0  0  0  0  0  0  0  0  0
    2.4637   -0.5655   -2.0357 C   0  0  0  0  0  0  0  0  0  0  0  0
    1.9907   -1.0783   -2.8769 H   0  0  0  0  0  0  0  0  0  0  0  0
    3.0613    0.2660   -2.4124 H   0  0  0  0  0  0  0  0  0  0  0  0
    3.1138   -1.2749   -1.5209 H   0  0  0  0  0  0  0  0  0  0  0  0
  5  6  2  0  0  0  0
  5  7  1  0  0  0  0
  2  3  1  0  0  0  0
  2  4  1  0  0  0  0
  2  5  1  0  0  0  0
  1  2  1  0  0  0  0
 22 23  2  0  0  0  0
 22 24  1  0  0  0  0
 19 20  1  0  0  0  0
 19 21  1  0  0  0  0
 17 18  2  0  0  0  0
 17 19  1  0  0  0  0
 14 15  1  0  0  0  0
 14 16  1  0  0  0  0
 14 17  1  0  0  0  0
 11 12  1  0  0  0  0
 11 13  1  0  0  0  0
 11 14  1  0  0  0  0
  9 10  1  0  0  0  0
  9 11  1  0  0  0  0
  9 22  1  0  0  0  0
  7  8  1  0  0  0  0
  7  9  1  0  0  0  0
 26 27  1  0  0  0  0
 26 28  1  0  0  0  0
 26 29  1  0  0  0  0
 24 25  1  0  0  0  0
 24 26  1  0  0  0  0
M  END
$$$$
default_name
  -OEChem-01062215323D

 29 28  0     1  0  0  0  0  0999 V2000
   -3.3998   -3.6239    1.3678 H   0  0  0  0  0  0  0  0  0  0  0  0
   -3.3608   -2.6749    0.8348 C   0  0  0  0  0  0  0  0  0  0  0  0
   -4.0988   -1.9909    1.2498 H   0  0  0  0  0  0  0  0  0  0  0  0
   -3.5618   -2.8419   -0.2222 H   0  0  0  0  0  0  0  0  0  0  0  0
   -1.9818   -2.0809    0.9918 C   0  0  0  0  0  0  0  0  0  0  0  0
   -1.1288   -2.6669    1.6468 O   0  0  0  0  0  0  0  0  0  0  0  0
   -1.7648   -0.9089    0.3998 N   0  0  0  0  0  0  0  0  0  0  0  0
   -2.5238   -0.4719   -0.1032 H   0  0  0  0  0  0  0  0  0  0  0  0
   -0.4848   -0.1959    0.4138 C   0  0  1  0  0  0  0  0  0  0  0  0
   -0.6512    0.8258    0.0686 H   0  0  0  0  0  0  0  0  0  0  0  0
    0.0347   -0.1367    1.8636 C   0  0  0  0  0  0  0  0  0  0  0  0
    0.0570   -1.1531    2.2621 H   0  0  0  0  0  0  0  0  0  0  0  0
    1.0545    0.2512    1.8612 H   0  0  0  0  0  0  0  0  0  0  0  0
   -0.8256    0.7317    2.7980 C   0  0  0  0  0  0  0  0  0  0  0  0
   -0.8485    1.7568    2.4286 H   0  0  0  0  0  0  0  0  0  0  0  0
   -1.8433    0.3416    2.8060 H   0  0  0  0  0  0  0  0  0  0  0  0
   -0.3101    0.7599    4.2368 C   0  0  0  0  0  0  0  0  0  0  0  0
    0.6383    0.1014    4.6207 O   0  0  0  0  0  0  0  0  0  0  0  0
   -0.9167    1.5411    5.1038 N   0  0  0  0  0  0  0  0  0  0  0  0
   -0.5361    1.5211    6.0340 H   0  0  0  0  0  0  0  0  0  0  0  0
   -1.6992    2.1052    4.8405 H   0  0  0  0  0  0  0  0  0  0  0  0
    0.5158   -0.8649   -0.5413 C   0  0  0  0  0  0  0  0  0  0  0  0
    0.3046   -2.0003   -0.9634 O   0  0  0  0  0  0  0  0  0  0  0  0
    1.6095   -0.1668   -0.8730 N   0  0  0  0  0  0  0  0  0  0  0  0
    1.7020    0.7677   -0.5079 H   0  0  0  0  0  0  0  0  0  0  0  0
    2.6597   -0.6679   -1.7586 C   0  0  0  0  0  0  0  0  0  0  0  0
    2.2249   -0.9518   -2.7201 H   0  0  0  0  0  0  0  0  0  0  0  0
    3.4190    0.0987   -1.9206 H   0  0  0  0  0  0  0  0  0  0  0  0
    3.1247   -1.5506   -1.3163 H   0  0  0  0  0  0  0  0  0  0  0  0
  5  6  2  0  0  0  0
  5  7  1  0  0  0  0
  2  3  1  0  0  0  0
  2  4  1  0  0  0  0
  2  5  1  0  0  0  0
  1  2  1  0  0  0  0
 22 23  2  0  0  0  0
 22 24  1  0  0  0  0
 19 20  1  0  0  0  0
 19 21  1  0  0  0  0
 17 18  2  0  0  0  0
 17 19  1  0  0  0  0
 14 15  1  0  0  0  0
 14 16  1  0  0  0  0
 14 17  1  0  0  0  0
 11 12  1  0  0  0  0
 11 13  1  0  0  0  0
 11 14  1  0  0  0  0
  9 10  1  0  0  0  0
  9 11  1  0  0  0  0
  9 22  1  0  0  0  0
  7  8  1  0  0  0  0
  7  9  1  0  0  0  0
 26 27  1  0  0  0  0
 26 28  1  0  0  0  0
 26 29  1  0  0  0  0
 24 25  1  0  0  0  0
 24 26  1  0  0  0  0
M  END
$$$$
default_name
  -OEChem-01062215323D

 29 28  0     1  0  0  0  0  0999 V2000
   -3.3998   -3.6239    1.3678 H   0  0  0  0  0  0  0  0  0  0  0  0
   -3.3608   -2.6749    0.8348 C   0  0  0  0  0  0  0  0  0  0  0  0
   -4.0988   -1.9909    1.2498 H   0  0  0  0  0  0  0  0  0  0  0  0
   -3.5618   -2.8419   -0.2222 H   0  0  0  0  0  0  0  0  0  0  0  0
   -1.9818   -2.0809    0.9918 C   0  0  0  0  0  0  0  0  0  0  0  0
   -1.1288   -2.6669    1.6468 O   0  0  0  0  0  0  0  0  0  0  0  0
   -1.7648   -0.9089    0.3998 N   0  0  0  0  0  0  0  0  0  0  0  0
   -2.5238   -0.4719   -0.1032 H   0  0  0  0  0  0  0  0  0  0  0  0
   -0.4848   -0.1959    0.4138 C   0  0  1  0  0  0  0  0  0  0  0  0
   -0.6812    0.8744    0.3324 H   0  0  0  0  0  0  0  0  0  0  0  0
    0.2142   -0.4570    1.7623 C   0  0  0  0  0  0  0  0  0  0  0  0
    0.2744   -1.5367    1.9145 H   0  0  0  0  0  0  0  0  0  0  0  0
    1.2301   -0.0614    1.7197 H   0  0  0  0  0  0  0  0  0  0  0  0
   -0.5107    0.1632    2.9695 C   0  0  0  0  0  0  0  0  0  0  0  0
   -0.5678    1.2446    2.8475 H   0  0  0  0  0  0  0  0  0  0  0  0
   -1.5239   -0.2359    3.0169 H   0  0  0  0  0  0  0  0  0  0  0  0
    0.1826   -0.1258    4.3008 C   0  0  0  0  0  0  0  0  0  0  0  0
    1.1639   -0.8378    4.4035 O   0  0  0  0  0  0  0  0  0  0  0  0
   -0.3003    0.4290    5.3913 N   0  0  0  0  0  0  0  0  0  0  0  0
    0.1944    0.2058    6.2375 H   0  0  0  0  0  0  0  0  0  0  0  0
   -1.1029    1.0246    5.3630 H   0  0  0  0  0  0  0  0  0  0  0  0
    0.3791   -0.6147   -0.7859 C   0  0  0  0  0  0  0  0  0  0  0  0
   -0.0359   -1.4514   -1.5858 O   0  0  0  0  0  0  0  0  0  0  0  0
    1.5839   -0.0422   -0.9051 N   0  0  0  0  0  0  0  0  0  0  0  0
    1.8455    0.6537   -0.2251 H   0  0  0  0  0  0  0  0  0  0  0  0
    2.5272   -0.3431   -1.9812 C   0  0  0  0  0  0  0  0  0  0  0  0
    2.0512   -0.1627   -2.9481 H   0  0  0  0  0  0  0  0  0  0  0  0
    3.4153    0.2849   -1.8957 H   0  0  0  0  0  0  0  0  0  0  0  0
    2.8201   -1.3933   -1.9316 H   0  0  0  0  0  0  0  0  0  0  0  0
  5  6  2  0  0  0  0
  5  7  1  0  0  0  0
  2  3  1  0  0  0  0
  2  4  1  0  0  0  0
  2  5  1  0  0  0  0
  1  2  1  0  0  0  0
 22 23  2  0  0  0  0
 22 24  1  0  0  0  0
 19 20  1  0  0  0  0
 19 21  1  0  0  0  0
 17 18  2  0  0  0  0
 17 19  1  0  0  0  0
 14 15  1  0  0  0  0
 14 16  1  0  0  0  0
 14 17  1  0  0  0  0
 11 12  1  0  0  0  0
 11 13  1  0  0  0  0
 11 14  1  0  0  0  0
  9 10  1  0  0  0  0
  9 11  1  0  0  0  0
  9 22  1  0  0  0  0
  7  8  1  0  0  0  0
  7  9  1  0  0  0  0
 26 27  1  0  0  0  0
 26 28  1  0  0  0  0
 26 29  1  0  0  0  0
 24 25  1  0  0  0  0
 24 26  1  0  0  0  0
M  END
$$$$
default_name
  -OEChem-01062215323D

 29 28  0     1  0  0  0  0  0999 V2000
   -3.3998   -3.6239    1.3678 H   0  0  0  0  0  0  0  0  0  0  0  0
   -3.3608   -2.6749    0.8348 C   0  0  0  0  0  0  0  0  0  0  0  0
   -4.0988   -1.9909    1.2498 H   0  0  0  0  0  0  0  0  0  0  0  0
   -3.5618   -2.8419   -0.2222 H   0  0  0  0  0  0  0  0  0  0  0  0
   -1.9818   -2.0809    0.9918 C   0  0  0  0  0  0  0  0  0  0  0  0
   -1.1288   -2.6669    1.6468 O   0  0  0  0  0  0  0  0  0  0  0  0
   -1.7648   -0.9089    0.3998 N   0  0  0  0  0  0  0  0  0  0  0  0
   -2.5238   -0.4719   -0.1032 H   0  0  0  0  0  0  0  0  0  0  0  0
   -0.4848   -0.1959    0.4138 C   0  0  1  0  0  0  0  0  0  0  0  0
   -0.6812    0.8744    0.3324 H   0  0  0  0  0  0  0  0  0  0  0  0
    0.2142   -0.4570    1.7623 C   0  0  0  0  0  0  0  0  0  0  0  0
    0.2744   -1.5367    1.9145 H   0  0  0  0  0  0  0  0  0  0  0  0
    1.2301   -0.0614    1.7197 H   0  0  0  0  0  0  0  0  0  0  0  0
   -0.5107    0.1632    2.9695 C   0  0  0  0  0  0  0  0  0  0  0  0
   -0.5678    1.2446    2.8475 H   0  0  0  0  0  0  0  0  0  0  0  0
   -1.5239   -0.2359    3.0169 H   0  0  0  0  0  0  0  0  0  0  0  0
    0.1826   -0.1258    4.3008 C   0  0  0  0  0  0  0  0  0  0  0  0
    1.1639   -0.8378    4.4035 O   0  0  0  0  0  0  0  0  0  0  0  0
   -0.3003    0.4290    5.3913 N   0  0  0  0  0  0  0  0  0  0  0  0
    0.1944    0.2058    6.2375 H   0  0  0  0  0  0  0  0  0  0  0  0
   -1.1029    1.0246    5.3630 H   0  0  0  0  0  0  0  0  0  0  0  0
    0.3791   -0.6147   -0.7859 C   0  0  0  0  0  0  0  0  0  0  0  0
   -0.1225   -1.2283   -1.7260 O   0  0  0  0  0  0  0  0  0  0  0  0
    1.6787   -0.2935   -0.7491 N   0  0  0  0  0  0  0  0  0  0  0  0
    2.0131    0.2321    0.0428 H   0  0  0  0  0  0  0  0  0  0  0  0
    2.6328   -0.6317   -1.8044 C   0  0  0  0  0  0  0  0  0  0  0  0
    2.2861   -0.2246   -2.7574 H   0  0  0  0  0  0  0  0  0  0  0  0
    3.6165   -0.2194   -1.5747 H   0  0  0  0  0  0  0  0  0  0  0  0
    2.7080   -1.7163   -1.8996 H   0  0  0  0  0  0  0  0  0  0  0  0
  5  6  2  0  0  0  0
  5  7  1  0  0  0  0
  2  3  1  0  0  0  0
  2  4  1  0  0  0  0
  2  5  1  0  0  0  0
  1  2  1  0  0  0  0
 22 23  2  0  0  0  0
 22 24  1  0  0  0  0
 19 20  1  0  0  0  0
 19 21  1  0  0  0  0
 17 18  2  0  0  0  0
 17 19  1  0  0  0  0
 14 15  1  0  0  0  0
 14 16  1  0  0  0  0
 14 17  1  0  0  0  0
 11 12  1  0  0  0  0
 11 13  1  0  0  0  0
 11 14  1  0  0  0  0
  9 10  1  0  0  0  0
  9 11  1  0  0  0  0
  9 22  1  0  0  0  0
  7  8  1  0  0  0  0
  7  9  1  0  0  0  0
 26 27  1  0  0  0  0
 26 28  1  0  0  0  0
 26 29  1  0  0  0  0
 24 25  1  0  0  0  0
 24 26  1  0  0  0  0
M  END
$$$$
default_name
  -OEChem-01062215323D

 29 28  0     1  0  0  0  0  0999 V2000
   -3.3998   -3.6239    1.3678 H   0  0  0  0  0  0  0  0  0  0  0  0
   -3.3608   -2.6749    0.8348 C   0  0  0  0  0  0  0  0  0  0  0  0
   -4.0988   -1.9909    1.2498 H   0  0  0  0  0  0  0  0  0  0  0  0
   -3.5618   -2.8419   -0.2222 H   0  0  0  0  0  0  0  0  0  0  0  0
   -1.9818   -2.0809    0.9918 C   0  0  0  0  0  0  0  0  0  0  0  0
   -1.1288   -2.6669    1.6468 O   0  0  0  0  0  0  0  0  0  0  0  0
   -1.7648   -0.9089    0.3998 N   0  0  0  0  0  0  0  0  0  0  0  0
   -2.5238   -0.4719   -0.1032 H   0  0  0  0  0  0  0  0  0  0  0  0
   -0.4848   -0.1959    0.4138 C   0  0  1  0  0  0  0  0  0  0  0  0
   -0.6812    0.8744    0.3324 H   0  0  0  0  0  0  0  0  0  0  0  0
    0.2142   -0.4570    1.7623 C   0  0  0  0  0  0  0  0  0  0  0  0
    0.2744   -1.5367    1.9145 H   0  0  0  0  0  0  0  0  0  0  0  0
    1.2301   -0.0614    1.7197 H   0  0  0  0  0  0  0  0  0  0  0  0
   -0.5107    0.1632    2.9695 C   0  0  0  0  0  0  0  0  0  0  0  0
   -0.5678    1.2446    2.8475 H   0  0  0  0  0  0  0  0  0  0  0  0
   -1.5239   -0.2359    3.0169 H   0  0  0  0  0  0  0  0  0  0  0  0
    0.1826   -0.1258    4.3008 C   0  0  0  0  0  0  0  0  0  0  0  0
    1.1639   -0.8378    4.4035 O   0  0  0  0  0  0  0  0  0  0  0  0
   -0.3003    0.4290    5.3913 N   0  0  0  0  0  0  0  0  0  0  0  0
    0.1944    0.2058    6.2375 H   0  0  0  0  0  0  0  0  0  0  0  0
   -1.1029    1.0246    5.3630 H   0  0  0  0  0  0  0  0  0  0  0  0
    0.3791   -0.6147   -0.7859 C   0  0  0  0  0  0  0  0  0  0  0  0
   -0.1512   -0.9750   -1.8351 O   0  0  0  0  0  0  0  0  0  0  0  0
    1.7085   -0.5781   -0.6283 N   0  0  0  0  0  0  0  0  0  0  0  0
    2.0709   -0.2479    0.2519 H   0  0  0  0  0  0  0  0  0  0  0  0
    2.6641   -0.9576   -1.6681 C   0  0  0  0  0  0  0  0  0  0  0  0
    2.4871   -0.3597   -2.5656 H   0  0  0  0  0  0  0  0  0  0  0  0
    3.6863   -0.7939   -1.3238 H   0  0  0  0  0  0  0  0  0  0  0  0
    2.5321   -2.0103   -1.9237 H   0  0  0  0  0  0  0  0  0  0  0  0
  5  6  2  0  0  0  0
  5  7  1  0  0  0  0
  2  3  1  0  0  0  0
  2  4  1  0  0  0  0
  2  5  1  0  0  0  0
  1  2  1  0  0  0  0
 22 23  2  0  0  0  0
 22 24  1  0  0  0  0
 19 20  1  0  0  0  0
 19 21  1  0  0  0  0
 17 18  2  0  0  0  0
 17 19  1  0  0  0  0
 14 15  1  0  0  0  0
 14 16  1  0  0  0  0
 14 17  1  0  0  0  0
 11 12  1  0  0  0  0
 11 13  1  0  0  0  0
 11 14  1  0  0  0  0
  9 10  1  0  0  0  0
  9 11  1  0  0  0  0
  9 22  1  0  0  0  0
  7  8  1  0  0  0  0
  7  9  1  0  0  0  0
 26 27  1  0  0  0  0
 26 28  1  0  0  0  0
 26 29  1  0  0  0  0
 24 25  1  0  0  0  0
 24 26  1  0  0  0  0
M  END
$$$$
default_name
  -OEChem-01062215323D

 29 28  0     1  0  0  0  0  0999 V2000
   -3.3998   -3.6239    1.3678 H   0  0  0  0  0  0  0  0  0  0  0  0
   -3.3608   -2.6749    0.8348 C   0  0  0  0  0  0  0  0  0  0  0  0
   -4.0988   -1.9909    1.2498 H   0  0  0  0  0  0  0  0  0  0  0  0
   -3.5618   -2.8419   -0.2222 H   0  0  0  0  0  0  0  0  0  0  0  0
   -1.9818   -2.0809    0.9918 C   0  0  0  0  0  0  0  0  0  0  0  0
   -1.1288   -2.6669    1.6468 O   0  0  0  0  0  0  0  0  0  0  0  0
   -1.7648   -0.9089    0.3998 N   0  0  0  0  0  0  0  0  0  0  0  0
   -2.5238   -0.4719   -0.1032 H   0  0  0  0  0  0  0  0  0  0  0  0
   -0.4848   -0.1959    0.4138 C   0  0  1  0  0  0  0  0  0  0  0  0
   -0.6812    0.8744    0.3324 H   0  0  0  0  0  0  0  0  0  0  0  0
    0.2142   -0.4570    1.7623 C   0  0  0  0  0  0  0  0  0  0  0  0
    0.2744   -1.5367    1.9145 H   0  0  0  0  0  0  0  0  0  0  0  0
    1.2301   -0.0614    1.7197 H   0  0  0  0  0  0  0  0  0  0  0  0
   -0.5107    0.1632    2.9695 C   0  0  0  0  0  0  0  0  0  0  0  0
   -0.5678    1.2446    2.8475 H   0  0  0  0  0  0  0  0  0  0  0  0
   -1.5239   -0.2359    3.0169 H   0  0  0  0  0  0  0  0  0  0  0  0
    0.1826   -0.1258    4.3008 C   0  0  0  0  0  0  0  0  0  0  0  0
    1.1639   -0.8378    4.4035 O   0  0  0  0  0  0  0  0  0  0  0  0
   -0.3003    0.4290    5.3913 N   0  0  0  0  0  0  0  0  0  0  0  0
    0.1944    0.2058    6.2375 H   0  0  0  0  0  0  0  0  0  0  0  0
   -1.1029    1.0246    5.3630 H   0  0  0  0  0  0  0  0  0  0  0  0
    0.3791   -0.6147   -0.7859 C   0  0  0  0  0  0  0  0  0  0  0  0
   -0.1201   -0.7086   -1.9057 O   0  0  0  0  0  0  0  0  0  0  0  0
    1.6713   -0.8767   -0.5509 N   0  0  0  0  0  0  0  0  0  0  0  0
    2.0149   -0.7536    0.3882 H   0  0  0  0  0  0  0  0  0  0  0  0
    2.6188   -1.2984   -1.5818 C   0  0  0  0  0  0  0  0  0  0  0  0
    2.6403   -0.5586   -2.3857 H   0  0  0  0  0  0  0  0  0  0  0  0
    3.6200   -1.3994   -1.1602 H   0  0  0  0  0  0  0  0  0  0  0  0
    2.3044   -2.2553   -2.0020 H   0  0  0  0  0  0  0  0  0  0  0  0
  5  6  2  0  0  0  0
  5  7  1  0  0  0  0
  2  3  1  0  0  0  0
  2  4  1  0  0  0  0
  2  5  1  0  0  0  0
  1  2  1  0  0  0  0
 22 23  2  0  0  0  0
 22 24  1  0  0  0  0
 19 20  1  0  0  0  0
 19 21  1  0  0  0  0
 17 18  2  0  0  0  0
 17 19  1  0  0  0  0
 14 15  1  0  0  0  0
 14 16  1  0  0  0  0
 14 17  1  0  0  0  0
 11 12  1  0  0  0  0
 11 13  1  0  0  0  0
 11 14  1  0  0  0  0
  9 10  1  0  0  0  0
  9 11  1  0  0  0  0
  9 22  1  0  0  0  0
  7  8  1  0  0  0  0
  7  9  1  0  0  0  0
 26 27  1  0  0  0  0
 26 28  1  0  0  0  0
 26 29  1  0  0  0  0
 24 25  1  0  0  0  0
 24 26  1  0  0  0  0
M  END
$$$$
default_name
  -OEChem-01062215323D

 29 28  0     1  0  0  0  0  0999 V2000
   -3.3998   -3.6239    1.3678 H   0  0  0  0  0  0  0  0  0  0  0  0
   -3.3608   -2.6749    0.8348 C   0  0  0  0  0  0  0  0  0  0  0  0
   -4.0988   -1.9909    1.2498 H   0  0  0  0  0  0  0  0  0  0  0  0
   -3.5618   -2.8419   -0.2222 H   0  0  0  0  0  0  0  0  0  0  0  0
   -1.9818   -2.0809    0.9918 C   0  0  0  0  0  0  0  0  0  0  0  0
   -1.1288   -2.6669    1.6468 O   0  0  0  0  0  0  0  0  0  0  0  0
   -1.7648   -0.9089    0.3998 N   0  0  0  0  0  0  0  0  0  0  0  0
   -2.5238   -0.4719   -0.1032 H   0  0  0  0  0  0  0  0  0  0  0  0
   -0.4848   -0.1959    0.4138 C   0  0  1  0  0  0  0  0  0  0  0  0
   -0.6812    0.8744    0.3324 H   0  0  0  0  0  0  0  0  0  0  0  0
    0.2142   -0.4570    1.7623 C   0  0  0  0  0  0  0  0  0  0  0  0
    0.2744   -1.5367    1.9145 H   0  0  0  0  0  0  0  0  0  0  0  0
    1.2301   -0.0614    1.7197 H   0  0  0  0  0  0  0  0  0  0  0  0
   -0.5107    0.1632    2.9695 C   0  0  0  0  0  0  0  0  0  0  0  0
   -0.5678    1.2446    2.8475 H   0  0  0  0  0  0  0  0  0  0  0  0
   -1.5239   -0.2359    3.0169 H   0  0  0  0  0  0  0  0  0  0  0  0
    0.1826   -0.1258    4.3008 C   0  0  0  0  0  0  0  0  0  0  0  0
    1.1639   -0.8378    4.4035 O   0  0  0  0  0  0  0  0  0  0  0  0
   -0.3003    0.4290    5.3913 N   0  0  0  0  0  0  0  0  0  0  0  0
    0.1944    0.2058    6.2375 H   0  0  0  0  0  0  0  0  0  0  0  0
   -1.1029    1.0246    5.3630 H   0  0  0  0  0  0  0  0  0  0  0  0
    0.3791   -0.6147   -0.7859 C   0  0  0  0  0  0  0  0  0  0  0  0
   -0.0312   -0.4473   -1.9329 O   0  0  0  0  0  0  0  0  0  0  0  0
    1.5695   -1.1688   -0.5222 N   0  0  0  0  0  0  0  0  0  0  0  0
    1.8491   -1.2507    0.4423 H   0  0  0  0  0  0  0  0  0  0  0  0
    2.5000   -1.6311   -1.5511 C   0  0  0  0  0  0  0  0  0  0  0  0
    2.7355   -0.8079   -2.2302 H   0  0  0  0  0  0  0  0  0  0  0  0
    3.4220   -1.9947   -1.0950 H   0  0  0  0  0  0  0  0  0  0  0  0
    2.0406   -2.4345   -2.1295 H   0  0  0  0  0  0  0  0  0  0  0  0
  5  6  2  0  0  0  0
  5  7  1  0  0  0  0
  2  3  1  0  0  0  0
  2  4  1  0  0  0  0
  2  5  1  0  0  0  0
  1  2  1  0  0  0  0
 22 23  2  0  0  0  0
 22 24  1  0  0  0  0
 19 20  1  0  0  0  0
 19 21  1  0  0  0  0
 17 18  2  0  0  0  0
 17 19  1  0  0  0  0
 14 15  1  0  0  0  0
 14 16  1  0  0  0  0
 14 17  1  0  0  0  0
 11 12  1  0  0  0  0
 11 13  1  0  0  0  0
 11 14  1  0  0  0  0
  9 10  1  0  0  0  0
  9 11  1  0  0  0  0
  9 22  1  0  0  0  0
  7  8  1  0  0  0  0
  7  9  1  0  0  0  0
 26 27  1  0  0  0  0
 26 28  1  0  0  0  0
 26 29  1  0  0  0  0
 24 25  1  0  0  0  0
 24 26  1  0  0  0  0
M  END
$$$$
default_name
  -OEChem-01062215323D

 29 28  0     1  0  0  0  0  0999 V2000
   -3.3998   -3.6239    1.3678 H   0  0  0  0  0  0  0  0  0  0  0  0
   -3.3608   -2.6749    0.8348 C   0  0  0  0  0  0  0  0  0  0  0  0
   -4.0988   -1.9909    1.2498 H   0  0  0  0  0  0  0  0  0  0  0  0
   -3.5618   -2.8419   -0.2222 H   0  0  0  0  0  0  0  0  0  0  0  0
   -1.9818   -2.0809    0.9918 C   0  0  0  0  0  0  0  0  0  0  0  0
   -1.1288   -2.6669    1.6468 O   0  0  0  0  0  0  0  0  0  0  0  0
   -1.7648   -0.9089    0.3998 N   0  0  0  0  0  0  0  0  0  0  0  0
   -2.5238   -0.4719   -0.1032 H   0  0  0  0  0  0  0  0  0  0  0  0
   -0.4848   -0.1959    0.4138 C   0  0  1  0  0  0  0  0  0  0  0  0
   -0.6812    0.8744    0.3324 H   0  0  0  0  0  0  0  0  0  0  0  0
    0.2142   -0.4570    1.7623 C   0  0  0  0  0  0  0  0  0  0  0  0
    0.2744   -1.5367    1.9145 H   0  0  0  0  0  0  0  0  0  0  0  0
    1.2301   -0.0614    1.7197 H   0  0  0  0  0  0  0  0  0  0  0  0
   -0.5107    0.1632    2.9695 C   0  0  0  0  0  0  0  0  0  0  0  0
   -0.5678    1.2446    2.8475 H   0  0  0  0  0  0  0  0  0  0  0  0
   -1.5239   -0.2359    3.0169 H   0  0  0  0  0  0  0  0  0  0  0  0
    0.1826   -0.1258    4.3008 C   0  0  0  0  0  0  0  0  0  0  0  0
    1.1639   -0.8378    4.4035 O   0  0  0  0  0  0  0  0  0  0  0  0
   -0.3003    0.4290    5.3913 N   0  0  0  0  0  0  0  0  0  0  0  0
    0.1944    0.2058    6.2375 H   0  0  0  0  0  0  0  0  0  0  0  0
   -1.1029    1.0246    5.3630 H   0  0  0  0  0  0  0  0  0  0  0  0
    0.3791   -0.6147   -0.7859 C   0  0  0  0  0  0  0  0  0  0  0  0
    0.1094   -0.2089   -1.9149 O   0  0  0  0  0  0  0  0  0  0  0  0
    1.4102   -1.4345   -0.5442 N   0  0  0  0  0  0  0  0  0  0  0  0
    1.5846   -1.7052    0.4105 H   0  0  0  0  0  0  0  0  0  0  0  0
    2.3160   -1.9329   -1.5783 C   0  0  0  0  0  0  0  0  0  0  0  0
    2.7660   -1.0906   -2.1095 H   0  0  0  0  0  0  0  0  0  0  0  0
    3.1059   -2.5393   -1.1325 H   0  0  0  0  0  0  0  0  0  0  0  0
    1.7586   -2.5357   -2.2973 H   0  0  0  0  0  0  0  0  0  0  0  0
  5  6  2  0  0  0  0
  5  7  1  0  0  0  0
  2  3  1  0  0  0  0
  2  4  1  0  0  0  0
  2  5  1  0  0  0  0
  1  2  1  0  0  0  0
 22 23  2  0  0  0  0
 22 24  1  0  0  0  0
 19 20  1  0  0  0  0
 19 21  1  0  0  0  0
 17 18  2  0  0  0  0
 17 19  1  0  0  0  0
 14 15  1  0  0  0  0
 14 16  1  0  0  0  0
 14 17  1  0  0  0  0
 11 12  1  0  0  0  0
 11 13  1  0  0  0  0
 11 14  1  0  0  0  0
  9 10  1  0  0  0  0
  9 11  1  0  0  0  0
  9 22  1  0  0  0  0
  7  8  1  0  0  0  0
  7  9  1  0  0  0  0
 26 27  1  0  0  0  0
 26 28  1  0  0  0  0
 26 29  1  0  0  0  0
 24 25  1  0  0  0  0
 24 26  1  0  0  0  0
M  END
$$$$
default_name
  -OEChem-01062215323D

 29 28  0     1  0  0  0  0  0999 V2000
   -3.3998   -3.6239    1.3678 H   0  0  0  0  0  0  0  0  0  0  0  0
   -3.3608   -2.6749    0.8348 C   0  0  0  0  0  0  0  0  0  0  0  0
   -4.0988   -1.9909    1.2498 H   0  0  0  0  0  0  0  0  0  0  0  0
   -3.5618   -2.8419   -0.2222 H   0  0  0  0  0  0  0  0  0  0  0  0
   -1.9818   -2.0809    0.9918 C   0  0  0  0  0  0  0  0  0  0  0  0
   -1.1288   -2.6669    1.6468 O   0  0  0  0  0  0  0  0  0  0  0  0
   -1.7648   -0.9089    0.3998 N   0  0  0  0  0  0  0  0  0  0  0  0
   -2.5238   -0.4719   -0.1032 H   0  0  0  0  0  0  0  0  0  0  0  0
   -0.4848   -0.1959    0.4138 C   0  0  1  0  0  0  0  0  0  0  0  0
   -0.6812    0.8744    0.3324 H   0  0  0  0  0  0  0  0  0  0  0  0
    0.2142   -0.4570    1.7623 C   0  0  0  0  0  0  0  0  0  0  0  0
    0.2744   -1.5367    1.9145 H   0  0  0  0  0  0  0  0  0  0  0  0
    1.2301   -0.0614    1.7197 H   0  0  0  0  0  0  0  0  0  0  0  0
   -0.5107    0.1632    2.9695 C   0  0  0  0  0  0  0  0  0  0  0  0
   -0.5678    1.2446    2.8475 H   0  0  0  0  0  0  0  0  0  0  0  0
   -1.5239   -0.2359    3.0169 H   0  0  0  0  0  0  0  0  0  0  0  0
    0.1826   -0.1258    4.3008 C   0  0  0  0  0  0  0  0  0  0  0  0
    1.1639   -0.8378    4.4035 O   0  0  0  0  0  0  0  0  0  0  0  0
   -0.3003    0.4290    5.3913 N   0  0  0  0  0  0  0  0  0  0  0  0
    0.1944    0.2058    6.2375 H   0  0  0  0  0  0  0  0  0  0  0  0
   -1.1029    1.0246    5.3630 H   0  0  0  0  0  0  0  0  0  0  0  0
    0.3791   -0.6147   -0.7859 C   0  0  0  0  0  0  0  0  0  0  0  0
    0.2921   -0.0097   -1.8528 O   0  0  0  0  0  0  0  0  0  0  0  0
    1.2041   -1.6558   -0.6153 N   0  0  0  0  0  0  0  0  0  0  0  0
    1.2396   -2.0861    0.2950 H   0  0  0  0  0  0  0  0  0  0  0  0
    2.0791   -2.1832   -1.6615 C   0  0  0  0  0  0  0  0  0  0  0  0
    2.7299   -1.3873   -2.0319 H   0  0  0  0  0  0  0  0  0  0  0  0
    2.6931   -2.9959   -1.2704 H   0  0  0  0  0  0  0  0  0  0  0  0
    1.4775   -2.5521   -2.4939 H   0  0  0  0  0  0  0  0  0  0  0  0
  5  6  2  0  0  0  0
  5  7  1  0  0  0  0
  2  3  1  0  0  0  0
  2  4  1  0  0  0  0
  2  5  1  0  0  0  0
  1  2  1  0  0  0  0
 22 23  2  0  0  0  0
 22 24  1  0  0  0  0
 19 20  1  0  0  0  0
 19 21  1  0  0  0  0
 17 18  2  0  0  0  0
 17 19  1  0  0  0  0
 14 15  1  0  0  0  0
 14 16  1  0  0  0  0
 14 17  1  0  0  0  0
 11 12  1  0  0  0  0
 11 13  1  0  0  0  0
 11 14  1  0  0  0  0
  9 10  1  0  0  0  0
  9 11  1  0  0  0  0
  9 22  1  0  0  0  0
  7  8  1  0  0  0  0
  7  9  1  0  0  0  0
 26 27  1  0  0  0  0
 26 28  1  0  0  0  0
 26 29  1  0  0  0  0
 24 25  1  0  0  0  0
 24 26  1  0  0  0  0
M  END
$$$$
default_name
  -OEChem-01062215323D

 29 28  0     1  0  0  0  0  0999 V2000
   -3.3998   -3.6239    1.3678 H   0  0  0  0  0  0  0  0  0  0  0  0
   -3.3608   -2.6749    0.8348 C   0  0  0  0  0  0  0  0  0  0  0  0
   -4.0988   -1.9909    1.2498 H   0  0  0  0  0  0  0  0  0  0  0  0
   -3.5618   -2.8419   -0.2222 H   0  0  0  0  0  0  0  0  0  0  0  0
   -1.9818   -2.0809    0.9918 C   0  0  0  0  0  0  0  0  0  0  0  0
   -1.1288   -2.6669    1.6468 O   0  0  0  0  0  0  0  0  0  0  0  0
   -1.7648   -0.9089    0.3998 N   0  0  0  0  0  0  0  0  0  0  0  0
   -2.5238   -0.4719   -0.1032 H   0  0  0  0  0  0  0  0  0  0  0  0
   -0.4848   -0.1959    0.4138 C   0  0  1  0  0  0  0  0  0  0  0  0
   -0.6812    0.8744    0.3324 H   0  0  0  0  0  0  0  0  0  0  0  0
    0.2142   -0.4570    1.7623 C   0  0  0  0  0  0  0  0  0  0  0  0
    0.2744   -1.5367    1.9145 H   0  0  0  0  0  0  0  0  0  0  0  0
    1.2301   -0.0614    1.7197 H   0  0  0  0  0  0  0  0  0  0  0  0
   -0.5107    0.1632    2.9695 C   0  0  0  0  0  0  0  0  0  0  0  0
   -0.5678    1.2446    2.8475 H   0  0  0  0  0  0  0  0  0  0  0  0
   -1.5239   -0.2359    3.0169 H   0  0  0  0  0  0  0  0  0  0  0  0
    0.1826   -0.1258    4.3008 C   0  0  0  0  0  0  0  0  0  0  0  0
    1.1639   -0.8378    4.4035 O   0  0  0  0  0  0  0  0  0  0  0  0
   -0.3003    0.4290    5.3913 N   0  0  0  0  0  0  0  0  0  0  0  0
    0.1944    0.2058    6.2375 H   0  0  0  0  0  0  0  0  0  0  0  0
   -1.1029    1.0246    5.3630 H   0  0  0  0  0  0  0  0  0  0  0  0
    0.3791   -0.6147   -0.7859 C   0  0  0  0  0  0  0  0  0  0  0  0
    0.5045    0.1368   -1.7511 O   0  0  0  0  0  0  0  0  0  0  0  0
    0.9653   -1.8176   -0.7308 N   0  0  0  0  0  0  0  0  0  0  0  0
    0.8375   -2.3675    0.1037 H   0  0  0  0  0  0  0  0  0  0  0  0
    1.8056   -2.3651   -1.7950 C   0  0  0  0  0  0  0  0  0  0  0  0
    2.6296   -1.6780   -2.0027 H   0  0  0  0  0  0  0  0  0  0  0  0
    2.2119   -3.3335   -1.4991 H   0  0  0  0  0  0  0  0  0  0  0  0
    1.2165   -2.4825   -2.7061 H   0  0  0  0  0  0  0  0  0  0  0  0
  5  6  2  0  0  0  0
  5  7  1  0  0  0  0
  2  3  1  0  0  0  0
  2  4  1  0  0  0  0
  2  5  1  0  0  0  0
  1  2  1  0  0  0  0
 22 23  2  0  0  0  0
 22 24  1  0  0  0  0
 19 20  1  0  0  0  0
 19 21  1  0  0  0  0
 17 18  2  0  0  0  0
 17 19  1  0  0  0  0
 14 15  1  0  0  0  0
 14 16  1  0  0  0  0
 14 17  1  0  0  0  0
 11 12  1  0  0  0  0
 11 13  1  0  0  0  0
 11 14  1  0  0  0  0
  9 10  1  0  0  0  0
  9 11  1  0  0  0  0
  9 22  1  0  0  0  0
  7  8  1  0  0  0  0
  7  9  1  0  0  0  0
 26 27  1  0  0  0  0
 26 28  1  0  0  0  0
 26 29  1  0  0  0  0
 24 25  1  0  0  0  0
 24 26  1  0  0  0  0
M  END
$$$$
default_name
  -OEChem-01062215323D

 29 28  0     1  0  0  0  0  0999 V2000
   -3.3998   -3.6239    1.3678 H   0  0  0  0  0  0  0  0  0  0  0  0
   -3.3608   -2.6749    0.8348 C   0  0  0  0  0  0  0  0  0  0  0  0
   -4.0988   -1.9909    1.2498 H   0  0  0  0  0  0  0  0  0  0  0  0
   -3.5618   -2.8419   -0.2222 H   0  0  0  0  0  0  0  0  0  0  0  0
   -1.9818   -2.0809    0.9918 C   0  0  0  0  0  0  0  0  0  0  0  0
   -1.1288   -2.6669    1.6468 O   0  0  0  0  0  0  0  0  0  0  0  0
   -1.7648   -0.9089    0.3998 N   0  0  0  0  0  0  0  0  0  0  0  0
   -2.5238   -0.4719   -0.1032 H   0  0  0  0  0  0  0  0  0  0  0  0
   -0.4848   -0.1959    0.4138 C   0  0  1  0  0  0  0  0  0  0  0  0
   -0.6812    0.8744    0.3324 H   0  0  0  0  0  0  0  0  0  0  0  0
    0.2142   -0.4570    1.7623 C   0  0  0  0  0  0  0  0  0  0  0  0
    0.2744   -1.5367    1.9145 H   0  0  0  0  0  0  0  0  0  0  0  0
    1.2301   -0.0614    1.7197 H   0  0  0  0  0  0  0  0  0  0  0  0
   -0.5107    0.1632    2.9695 C   0  0  0  0  0  0  0  0  0  0  0  0
   -0.5678    1.2446    2.8475 H   0  0  0  0  0  0  0  0  0  0  0  0
   -1.5239   -0.2359    3.0169 H   0  0  0  0  0  0  0  0  0  0  0  0
    0.1826   -0.1258    4.3008 C   0  0  0  0  0  0  0  0  0  0  0  0
    1.1639   -0.8378    4.4035 O   0  0  0  0  0  0  0  0  0  0  0  0
   -0.3003    0.4290    5.3913 N   0  0  0  0  0  0  0  0  0  0  0  0
    0.1944    0.2058    6.2375 H   0  0  0  0  0  0  0  0  0  0  0  0
   -1.1029    1.0246    5.3630 H   0  0  0  0  0  0  0  0  0  0  0  0
    0.3791   -0.6147   -0.7859 C   0  0  0  0  0  0  0  0  0  0  0  0
    0.7320    0.2205   -1.6164 O   0  0  0  0  0  0  0  0  0  0  0  0
    0.7102   -1.9088   -0.8827 N   0  0  0  0  0  0  0  0  0  0  0  0
    0.4057   -2.5302   -0.1504 H   0  0  0  0  0  0  0  0  0  0  0  0
    1.5141   -2.4660   -1.9697 C   0  0  0  0  0  0  0  0  0  0  0  0
    2.4719   -1.9427   -2.0239 H   0  0  0  0  0  0  0  0  0  0  0  0
    1.6950   -3.5290   -1.8031 H   0  0  0  0  0  0  0  0  0  0  0  0
    0.9935   -2.3317   -2.9194 H   0  0  0  0  0  0  0  0  0  0  0  0
  5  6  2  0  0  0  0
  5  7  1  0  0  0  0
  2  3  1  0  0  0  0
  2  4  1  0  0  0  0
  2  5  1  0  0  0  0
  1  2  1  0  0  0  0
 22 23  2  0  0  0  0
 22 24  1  0  0  0  0
 19 20  1  0  0  0  0
 19 21  1  0  0  0  0
 17 18  2  0  0  0  0
 17 19  1  0  0  0  0
 14 15  1  0  0  0  0
 14 16  1  0  0  0  0
 14 17  1  0  0  0  0
 11 12  1  0  0  0  0
 11 13  1  0  0  0  0
 11 14  1  0  0  0  0
  9 10  1  0  0  0  0
  9 11  1  0  0  0  0
  9 22  1  0  0  0  0
  7  8  1  0  0  0  0
  7  9  1  0  0  0  0
 26 27  1  0  0  0  0
 26 28  1  0  0  0  0
 26 29  1  0  0  0  0
 24 25  1  0  0  0  0
 24 26  1  0  0  0  0
M  END
$$$$
default_name
  -OEChem-01062215323D

 29 28  0     1  0  0  0  0  0999 V2000
   -3.3998   -3.6239    1.3678 H   0  0  0  0  0  0  0  0  0  0  0  0
   -3.3608   -2.6749    0.8348 C   0  0  0  0  0  0  0  0  0  0  0  0
   -4.0988   -1.9909    1.2498 H   0  0  0  0  0  0  0  0  0  0  0  0
   -3.5618   -2.8419   -0.2222 H   0  0  0  0  0  0  0  0  0  0  0  0
   -1.9818   -2.0809    0.9918 C   0  0  0  0  0  0  0  0  0  0  0  0
   -1.1288   -2.6669    1.6468 O   0  0  0  0  0  0  0  0  0  0  0  0
   -1.7648   -0.9089    0.3998 N   0  0  0  0  0  0  0  0  0  0  0  0
   -2.5238   -0.4719   -0.1032 H   0  0  0  0  0  0  0  0  0  0  0  0
   -0.4848   -0.1959    0.4138 C   0  0  1  0  0  0  0  0  0  0  0  0
   -0.6812    0.8744    0.3324 H   0  0  0  0  0  0  0  0  0  0  0  0
    0.2142   -0.4570    1.7623 C   0  0  0  0  0  0  0  0  0  0  0  0
    0.2744   -1.5367    1.9145 H   0  0  0  0  0  0  0  0  0  0  0  0
    1.2301   -0.0614    1.7197 H   0  0  0  0  0  0  0  0  0  0  0  0
   -0.5107    0.1632    2.9695 C   0  0  0  0  0  0  0  0  0  0  0  0
   -0.5678    1.2446    2.8475 H   0  0  0  0  0  0  0  0  0  0  0  0
   -1.5239   -0.2359    3.0169 H   0  0  0  0  0  0  0  0  0  0  0  0
    0.1826   -0.1258    4.3008 C   0  0  0  0  0  0  0  0  0  0  0  0
    1.1639   -0.8378    4.4035 O   0  0  0  0  0  0  0  0  0  0  0  0
   -0.3003    0.4290    5.3913 N   0  0  0  0  0  0  0  0  0  0  0  0
    0.1944    0.2058    6.2375 H   0  0  0  0  0  0  0  0  0  0  0  0
   -1.1029    1.0246    5.3630 H   0  0  0  0  0  0  0  0  0  0  0  0
    0.3791   -0.6147   -0.7859 C   0  0  0  0  0  0  0  0  0  0  0  0
    0.9592    0.2359   -1.4582 O   0  0  0  0  0  0  0  0  0  0  0  0
    0.4560   -1.9232   -1.0607 N   0  0  0  0  0  0  0  0  0  0  0  0
   -0.0263   -2.5631   -0.4500 H   0  0  0  0  0  0  0  0  0  0  0  0
    1.2244   -2.4792   -2.1737 C   0  0  0  0  0  0  0  0  0  0  0  0
    2.2675   -2.1635   -2.0939 H   0  0  0  0  0  0  0  0  0  0  0  0
    1.1776   -3.5692   -2.1616 H   0  0  0  0  0  0  0  0  0  0  0  0
    0.8236   -2.1099   -3.1192 H   0  0  0  0  0  0  0  0  0  0  0  0
  5  6  2  0  0  0  0
  5  7  1  0  0  0  0
  2  3  1  0  0  0  0
  2  4  1  0  0  0  0
  2  5  1  0  0  0  0
  1  2  1  0  0  0  0
 22 23  2  0  0  0  0
 22 24  1  0  0  0  0
 19 20  1  0  0  0  0
 19 21  1  0  0  0  0
 17 18  2  0  0  0  0
 17 19  1  0  0  0  0
 14 15  1  0  0  0  0
 14 16  1  0  0  0  0
 14 17  1  0  0  0  0
 11 12  1  0  0  0  0
 11 13  1  0  0  0  0
 11 14  1  0  0  0  0
  9 10  1  0  0  0  0
  9 11  1  0  0  0  0
  9 22  1  0  0  0  0
  7  8  1  0  0  0  0
  7  9  1  0  0  0  0
 26 27  1  0  0  0  0
 26 28  1  0  0  0  0
 26 29  1  0  0  0  0
 24 25  1  0  0  0  0
 24 26  1  0  0  0  0
M  END
$$$$
default_name
  -OEChem-01062215323D

 29 28  0     1  0  0  0  0  0999 V2000
   -3.3998   -3.6239    1.3678 H   0  0  0  0  0  0  0  0  0  0  0  0
   -3.3608   -2.6749    0.8348 C   0  0  0  0  0  0  0  0  0  0  0  0
   -4.0988   -1.9909    1.2498 H   0  0  0  0  0  0  0  0  0  0  0  0
   -3.5618   -2.8419   -0.2222 H   0  0  0  0  0  0  0  0  0  0  0  0
   -1.9818   -2.0809    0.9918 C   0  0  0  0  0  0  0  0  0  0  0  0
   -1.1288   -2.6669    1.6468 O   0  0  0  0  0  0  0  0  0  0  0  0
   -1.7648   -0.9089    0.3998 N   0  0  0  0  0  0  0  0  0  0  0  0
   -2.5238   -0.4719   -0.1032 H   0  0  0  0  0  0  0  0  0  0  0  0
   -0.4848   -0.1959    0.4138 C   0  0  1  0  0  0  0  0  0  0  0  0
   -0.6812    0.8744    0.3324 H   0  0  0  0  0  0  0  0  0  0  0  0
    0.2142   -0.4570    1.7623 C   0  0  0  0  0  0  0  0  0  0  0  0
    0.2744   -1.5367    1.9145 H   0  0  0  0  0  0  0  0  0  0  0  0
    1.2301   -0.0614    1.7197 H   0  0  0  0  0  0  0  0  0  0  0  0
   -0.5107    0.1632    2.9695 C   0  0  0  0  0  0  0  0  0  0  0  0
   -0.5678    1.2446    2.8475 H   0  0  0  0  0  0  0  0  0  0  0  0
   -1.5239   -0.2359    3.0169 H   0  0  0  0  0  0  0  0  0  0  0  0
    0.1826   -0.1258    4.3008 C   0  0  0  0  0  0  0  0  0  0  0  0
    1.1639   -0.8378    4.4035 O   0  0  0  0  0  0  0  0  0  0  0  0
   -0.3003    0.4290    5.3913 N   0  0  0  0  0  0  0  0  0  0  0  0
    0.1944    0.2058    6.2375 H   0  0  0  0  0  0  0  0  0  0  0  0
   -1.1029    1.0246    5.3630 H   0  0  0  0  0  0  0  0  0  0  0  0
    0.3791   -0.6147   -0.7859 C   0  0  0  0  0  0  0  0  0  0  0  0
    1.1706    0.1818   -1.2870 O   0  0  0  0  0  0  0  0  0  0  0  0
    0.2202   -1.8598   -1.2526 N   0  0  0  0  0  0  0  0  0  0  0  0
   -0.4292   -2.4641   -0.7747 H   0  0  0  0  0  0  0  0  0  0  0  0
    0.9563   -2.4038   -2.3931 C   0  0  0  0  0  0  0  0  0  0  0  0
    2.0305   -2.3252   -2.2082 H   0  0  0  0  0  0  0  0  0  0  0  0
    0.6950   -3.4513   -2.5503 H   0  0  0  0  0  0  0  0  0  0  0  0
    0.7184   -1.8323   -3.2918 H   0  0  0  0  0  0  0  0  0  0  0  0
  5  6  2  0  0  0  0
  5  7  1  0  0  0  0
  2  3  1  0  0  0  0
  2  4  1  0  0  0  0
  2  5  1  0  0  0  0
  1  2  1  0  0  0  0
 22 23  2  0  0  0  0
 22 24  1  0  0  0  0
 19 20  1  0  0  0  0
 19 21  1  0  0  0  0
 17 18  2  0  0  0  0
 17 19  1  0  0  0  0
 14 15  1  0  0  0  0
 14 16  1  0  0  0  0
 14 17  1  0  0  0  0
 11 12  1  0  0  0  0
 11 13  1  0  0  0  0
 11 14  1  0  0  0  0
  9 10  1  0  0  0  0
  9 11  1  0  0  0  0
  9 22  1  0  0  0  0
  7  8  1  0  0  0  0
  7  9  1  0  0  0  0
 26 27  1  0  0  0  0
 26 28  1  0  0  0  0
 26 29  1  0  0  0  0
 24 25  1  0  0  0  0
 24 26  1  0  0  0  0
M  END
$$$$
default_name
  -OEChem-01062215323D

 29 28  0     1  0  0  0  0  0999 V2000
   -3.3998   -3.6239    1.3678 H   0  0  0  0  0  0  0  0  0  0  0  0
   -3.3608   -2.6749    0.8348 C   0  0  0  0  0  0  0  0  0  0  0  0
   -4.0988   -1.9909    1.2498 H   0  0  0  0  0  0  0  0  0  0  0  0
   -3.5618   -2.8419   -0.2222 H   0  0  0  0  0  0  0  0  0  0  0  0
   -1.9818   -2.0809    0.9918 C   0  0  0  0  0  0  0  0  0  0  0  0
   -1.1288   -2.6669    1.6468 O   0  0  0  0  0  0  0  0  0  0  0  0
   -1.7648   -0.9089    0.3998 N   0  0  0  0  0  0  0  0  0  0  0  0
   -2.5238   -0.4719   -0.1032 H   0  0  0  0  0  0  0  0  0  0  0  0
   -0.4848   -0.1959    0.4138 C   0  0  1  0  0  0  0  0  0  0  0  0
   -0.6812    0.8744    0.3324 H   0  0  0  0  0  0  0  0  0  0  0  0
    0.2142   -0.4570    1.7623 C   0  0  0  0  0  0  0  0  0  0  0  0
    0.2744   -1.5367    1.9145 H   0  0  0  0  0  0  0  0  0  0  0  0
    1.2301   -0.0614    1.7197 H   0  0  0  0  0  0  0  0  0  0  0  0
   -0.5107    0.1632    2.9695 C   0  0  0  0  0  0  0  0  0  0  0  0
   -0.5678    1.2446    2.8475 H   0  0  0  0  0  0  0  0  0  0  0  0
   -1.5239   -0.2359    3.0169 H   0  0  0  0  0  0  0  0  0  0  0  0
    0.1826   -0.1258    4.3008 C   0  0  0  0  0  0  0  0  0  0  0  0
    1.1639   -0.8378    4.4035 O   0  0  0  0  0  0  0  0  0  0  0  0
   -0.3003    0.4290    5.3913 N   0  0  0  0  0  0  0  0  0  0  0  0
    0.1944    0.2058    6.2375 H   0  0  0  0  0  0  0  0  0  0  0  0
   -1.1029    1.0246    5.3630 H   0  0  0  0  0  0  0  0  0  0  0  0
    0.3791   -0.6147   -0.7859 C   0  0  0  0  0  0  0  0  0  0  0  0
    1.3518    0.0619   -1.1147 O   0  0  0  0  0  0  0  0  0  0  0  0
    0.0187   -1.7231   -1.4455 N   0  0  0  0  0  0  0  0  0  0  0  0
   -0.7753   -2.2397   -1.1023 H   0  0  0  0  0  0  0  0  0  0  0  0
    0.7281   -2.2448   -2.6129 C   0  0  0  0  0  0  0  0  0  0  0  0
    1.7769   -2.4169   -2.3588 H   0  0  0  0  0  0  0  0  0  0  0  0
    0.2801   -3.1834   -2.9426 H   0  0  0  0  0  0  0  0  0  0  0  0
    0.6851   -1.5177   -3.4256 H   0  0  0  0  0  0  0  0  0  0  0  0
  5  6  2  0  0  0  0
  5  7  1  0  0  0  0
  2  3  1  0  0  0  0
  2  4  1  0  0  0  0
  2  5  1  0  0  0  0
  1  2  1  0  0  0  0
 22 23  2  0  0  0  0
 22 24  1  0  0  0  0
 19 20  1  0  0  0  0
 19 21  1  0  0  0  0
 17 18  2  0  0  0  0
 17 19  1  0  0  0  0
 14 15  1  0  0  0  0
 14 16  1  0  0  0  0
 14 17  1  0  0  0  0
 11 12  1  0  0  0  0
 11 13  1  0  0  0  0
 11 14  1  0  0  0  0
  9 10  1  0  0  0  0
  9 11  1  0  0  0  0
  9 22  1  0  0  0  0
  7  8  1  0  0  0  0
  7  9  1  0  0  0  0
 26 27  1  0  0  0  0
 26 28  1  0  0  0  0
 26 29  1  0  0  0  0
 24 25  1  0  0  0  0
 24 26  1  0  0  0  0
M  END
$$$$
default_name
  -OEChem-01062215323D

 29 28  0     1  0  0  0  0  0999 V2000
   -3.3998   -3.6239    1.3678 H   0  0  0  0  0  0  0  0  0  0  0  0
   -3.3608   -2.6749    0.8348 C   0  0  0  0  0  0  0  0  0  0  0  0
   -4.0988   -1.9909    1.2498 H   0  0  0  0  0  0  0  0  0  0  0  0
   -3.5618   -2.8419   -0.2222 H   0  0  0  0  0  0  0  0  0  0  0  0
   -1.9818   -2.0809    0.9918 C   0  0  0  0  0  0  0  0  0  0  0  0
   -1.1288   -2.6669    1.6468 O   0  0  0  0  0  0  0  0  0  0  0  0
   -1.7648   -0.9089    0.3998 N   0  0  0  0  0  0  0  0  0  0  0  0
   -2.5238   -0.4719   -0.1032 H   0  0  0  0  0  0  0  0  0  0  0  0
   -0.4848   -0.1959    0.4138 C   0  0  1  0  0  0  0  0  0  0  0  0
   -0.6812    0.8744    0.3324 H   0  0  0  0  0  0  0  0  0  0  0  0
    0.2142   -0.4570    1.7623 C   0  0  0  0  0  0  0  0  0  0  0  0
    0.2744   -1.5367    1.9145 H   0  0  0  0  0  0  0  0  0  0  0  0
    1.2301   -0.0614    1.7197 H   0  0  0  0  0  0  0  0  0  0  0  0
   -0.5107    0.1632    2.9695 C   0  0  0  0  0  0  0  0  0  0  0  0
   -0.5678    1.2446    2.8475 H   0  0  0  0  0  0  0  0  0  0  0  0
   -1.5239   -0.2359    3.0169 H   0  0  0  0  0  0  0  0  0  0  0  0
    0.1826   -0.1258    4.3008 C   0  0  0  0  0  0  0  0  0  0  0  0
    1.1639   -0.8378    4.4035 O   0  0  0  0  0  0  0  0  0  0  0  0
   -0.3003    0.4290    5.3913 N   0  0  0  0  0  0  0  0  0  0  0  0
    0.1944    0.2058    6.2375 H   0  0  0  0  0  0  0  0  0  0  0  0
   -1.1029    1.0246    5.3630 H   0  0  0  0  0  0  0  0  0  0  0  0
    0.3791   -0.6147   -0.7859 C   0  0  0  0  0  0  0  0  0  0  0  0
    1.4905   -0.1157   -0.9529 O   0  0  0  0  0  0  0  0  0  0  0  0
   -0.1347   -1.5222   -1.6261 N   0  0  0  0  0  0  0  0  0  0  0  0
   -1.0413   -1.9054   -1.4105 H   0  0  0  0  0  0  0  0  0  0  0  0
    0.5553   -2.0131   -2.8182 C   0  0  0  0  0  0  0  0  0  0  0  0
    1.5240   -2.4324   -2.5355 H   0  0  0  0  0  0  0  0  0  0  0  0
   -0.0389   -2.7836   -3.3118 H   0  0  0  0  0  0  0  0  0  0  0  0
    0.7259   -1.1877   -3.5115 H   0  0  0  0  0  0  0  0  0  0  0  0
  5  6  2  0  0  0  0
  5  7  1  0  0  0  0
  2  3  1  0  0  0  0
  2  4  1  0  0  0  0
  2  5  1  0  0  0  0
  1  2  1  0  0  0  0
 22 23  2  0  0  0  0
 22 24  1  0  0  0  0
 19 20  1  0  0  0  0
 19 21  1  0  0  0  0
 17 18  2  0  0  0  0
 17 19  1  0  0  0  0
 14 15  1  0  0  0  0
 14 16  1  0  0  0  0
 14 17  1  0  0  0  0
 11 12  1  0  0  0  0
 11 13  1  0  0  0  0
 11 14  1  0  0  0  0
  9 10  1  0  0  0  0
  9 11  1  0  0  0  0
  9 22  1  0  0  0  0
  7  8  1  0  0  0  0
  7  9  1  0  0  0  0
 26 27  1  0  0  0  0
 26 28  1  0  0  0  0
 26 29  1  0  0  0  0
 24 25  1  0  0  0  0
 24 26  1  0  0  0  0
M  END
$$$$
default_name
  -OEChem-01062215323D

 29 28  0     1  0  0  0  0  0999 V2000
   -3.3998   -3.6239    1.3678 H   0  0  0  0  0  0  0  0  0  0  0  0
   -3.3608   -2.6749    0.8348 C   0  0  0  0  0  0  0  0  0  0  0  0
   -4.0988   -1.9909    1.2498 H   0  0  0  0  0  0  0  0  0  0  0  0
   -3.5618   -2.8419   -0.2222 H   0  0  0  0  0  0  0  0  0  0  0  0
   -1.9818   -2.0809    0.9918 C   0  0  0  0  0  0  0  0  0  0  0  0
   -1.1288   -2.6669    1.6468 O   0  0  0  0  0  0  0  0  0  0  0  0
   -1.7648   -0.9089    0.3998 N   0  0  0  0  0  0  0  0  0  0  0  0
   -2.5238   -0.4719   -0.1032 H   0  0  0  0  0  0  0  0  0  0  0  0
   -0.4848   -0.1959    0.4138 C   0  0  1  0  0  0  0  0  0  0  0  0
   -0.6812    0.8744    0.3324 H   0  0  0  0  0  0  0  0  0  0  0  0
    0.2142   -0.4570    1.7623 C   0  0  0  0  0  0  0  0  0  0  0  0
    0.2744   -1.5367    1.9145 H   0  0  0  0  0  0  0  0  0  0  0  0
    1.2301   -0.0614    1.7197 H   0  0  0  0  0  0  0  0  0  0  0  0
   -0.5107    0.1632    2.9695 C   0  0  0  0  0  0  0  0  0  0  0  0
   -0.5678    1.2446    2.8475 H   0  0  0  0  0  0  0  0  0  0  0  0
   -1.5239   -0.2359    3.0169 H   0  0  0  0  0  0  0  0  0  0  0  0
    0.1826   -0.1258    4.3008 C   0  0  0  0  0  0  0  0  0  0  0  0
    1.1639   -0.8378    4.4035 O   0  0  0  0  0  0  0  0  0  0  0  0
   -0.3003    0.4290    5.3913 N   0  0  0  0  0  0  0  0  0  0  0  0
    0.1944    0.2058    6.2375 H   0  0  0  0  0  0  0  0  0  0  0  0
   -1.1029    1.0246    5.3630 H   0  0  0  0  0  0  0  0  0  0  0  0
    0.3791   -0.6147   -0.7859 C   0  0  0  0  0  0  0  0  0  0  0  0
    1.5771   -0.3387   -0.8127 O   0  0  0  0  0  0  0  0  0  0  0  0
   -0.2296   -1.2709   -1.7821 N   0  0  0  0  0  0  0  0  0  0  0  0
   -1.2088   -1.4839   -1.6783 H   0  0  0  0  0  0  0  0  0  0  0  0
    0.4497   -1.7245   -2.9950 C   0  0  0  0  0  0  0  0  0  0  0  0
    1.2891   -2.3704   -2.7262 H   0  0  0  0  0  0  0  0  0  0  0  0
   -0.2401   -2.2793   -3.6328 H   0  0  0  0  0  0  0  0  0  0  0  0
    0.8381   -0.8646   -3.5434 H   0  0  0  0  0  0  0  0  0  0  0  0
  5  6  2  0  0  0  0
  5  7  1  0  0  0  0
  2  3  1  0  0  0  0
  2  4  1  0  0  0  0
  2  5  1  0  0  0  0
  1  2  1  0  0  0  0
 22 23  2  0  0  0  0
 22 24  1  0  0  0  0
 19 20  1  0  0  0  0
 19 21  1  0  0  0  0
 17 18  2  0  0  0  0
 17 19  1  0  0  0  0
 14 15  1  0  0  0  0
 14 16  1  0  0  0  0
 14 17  1  0  0  0  0
 11 12  1  0  0  0  0
 11 13  1  0  0  0  0
 11 14  1  0  0  0  0
  9 10  1  0  0  0  0
  9 11  1  0  0  0  0
  9 22  1  0  0  0  0
  7  8  1  0  0  0  0
  7  9  1  0  0  0  0
 26 27  1  0  0  0  0
 26 28  1  0  0  0  0
 26 29  1  0  0  0  0
 24 25  1  0  0  0  0
 24 26  1  0  0  0  0
M  END
$$$$
default_name
  -OEChem-01062215323D

 29 28  0     1  0  0  0  0  0999 V2000
   -3.3998   -3.6239    1.3678 H   0  0  0  0  0  0  0  0  0  0  0  0
   -3.3608   -2.6749    0.8348 C   0  0  0  0  0  0  0  0  0  0  0  0
   -4.0988   -1.9909    1.2498 H   0  0  0  0  0  0  0  0  0  0  0  0
   -3.5618   -2.8419   -0.2222 H   0  0  0  0  0  0  0  0  0  0  0  0
   -1.9818   -2.0809    0.9918 C   0  0  0  0  0  0  0  0  0  0  0  0
   -1.1288   -2.6669    1.6468 O   0  0  0  0  0  0  0  0  0  0  0  0
   -1.7648   -0.9089    0.3998 N   0  0  0  0  0  0  0  0  0  0  0  0
   -2.5238   -0.4719   -0.1032 H   0  0  0  0  0  0  0  0  0  0  0  0
   -0.4848   -0.1959    0.4138 C   0  0  1  0  0  0  0  0  0  0  0  0
   -0.6812    0.8744    0.3324 H   0  0  0  0  0  0  0  0  0  0  0  0
    0.2142   -0.4570    1.7623 C   0  0  0  0  0  0  0  0  0  0  0  0
    0.2744   -1.5367    1.9145 H   0  0  0  0  0  0  0  0  0  0  0  0
    1.2301   -0.0614    1.7197 H   0  0  0  0  0  0  0  0  0  0  0  0
   -0.5107    0.1632    2.9695 C   0  0  0  0  0  0  0  0  0  0  0  0
   -0.5678    1.2446    2.8475 H   0  0  0  0  0  0  0  0  0  0  0  0
   -1.5239   -0.2359    3.0169 H   0  0  0  0  0  0  0  0  0  0  0  0
    0.1826   -0.1258    4.3008 C   0  0  0  0  0  0  0  0  0  0  0  0
    1.1639   -0.8378    4.4035 O   0  0  0  0  0  0  0  0  0  0  0  0
   -0.3003    0.4290    5.3913 N   0  0  0  0  0  0  0  0  0  0  0  0
    0.1944    0.2058    6.2375 H   0  0  0  0  0  0  0  0  0  0  0  0
   -1.1029    1.0246    5.3630 H   0  0  0  0  0  0  0  0  0  0  0  0
    0.3791   -0.6147   -0.7859 C   0  0  0  0  0  0  0  0  0  0  0  0
    1.6058   -0.5920   -0.7035 O   0  0  0  0  0  0  0  0  0  0  0  0
   -0.2594   -0.9862   -1.9029 N   0  0  0  0  0  0  0  0  0  0  0  0
   -1.2666   -1.0039   -1.8875 H   0  0  0  0  0  0  0  0  0  0  0  0
    0.4185   -1.3986   -3.1312 C   0  0  0  0  0  0  0  0  0  0  0  0
    1.0882   -2.2354   -2.9181 H   0  0  0  0  0  0  0  0  0  0  0  0
   -0.3099   -1.7048   -3.8836 H   0  0  0  0  0  0  0  0  0  0  0  0
    1.0140   -0.5706   -3.5194 H   0  0  0  0  0  0  0  0  0  0  0  0
  5  6  2  0  0  0  0
  5  7  1  0  0  0  0
  2  3  1  0  0  0  0
  2  4  1  0  0  0  0
  2  5  1  0  0  0  0
  1  2  1  0  0  0  0
 22 23  2  0  0  0  0
 22 24  1  0  0  0  0
 19 20  1  0  0  0  0
 19 21  1  0  0  0  0
 17 18  2  0  0  0  0
 17 19  1  0  0  0  0
 14 15  1  0  0  0  0
 14 16  1  0  0  0  0
 14 17  1  0  0  0  0
 11 12  1  0  0  0  0
 11 13  1  0  0  0  0
 11 14  1  0  0  0  0
  9 10  1  0  0  0  0
  9 11  1  0  0  0  0
  9 22  1  0  0  0  0
  7  8  1  0  0  0  0
  7  9  1  0  0  0  0
 26 27  1  0  0  0  0
 26 28  1  0  0  0  0
 26 29  1  0  0  0  0
 24 25  1  0  0  0  0
 24 26  1  0  0  0  0
M  END
$$$$
default_name
  -OEChem-01062215323D

 29 28  0     1  0  0  0  0  0999 V2000
   -3.3998   -3.6239    1.3678 H   0  0  0  0  0  0  0  0  0  0  0  0
   -3.3608   -2.6749    0.8348 C   0  0  0  0  0  0  0  0  0  0  0  0
   -4.0988   -1.9909    1.2498 H   0  0  0  0  0  0  0  0  0  0  0  0
   -3.5618   -2.8419   -0.2222 H   0  0  0  0  0  0  0  0  0  0  0  0
   -1.9818   -2.0809    0.9918 C   0  0  0  0  0  0  0  0  0  0  0  0
   -1.1288   -2.6669    1.6468 O   0  0  0  0  0  0  0  0  0  0  0  0
   -1.7648   -0.9089    0.3998 N   0  0  0  0  0  0  0  0  0  0  0  0
   -2.5238   -0.4719   -0.1032 H   0  0  0  0  0  0  0  0  0  0  0  0
   -0.4848   -0.1959    0.4138 C   0  0  1  0  0  0  0  0  0  0  0  0
   -0.6812    0.8744    0.3324 H   0  0  0  0  0  0  0  0  0  0  0  0
    0.2142   -0.4570    1.7623 C   0  0  0  0  0  0  0  0  0  0  0  0
    0.2744   -1.5367    1.9145 H   0  0  0  0  0  0  0  0  0  0  0  0
    1.2301   -0.0614    1.7197 H   0  0  0  0  0  0  0  0  0  0  0  0
   -0.5107    0.1632    2.9695 C   0  0  0  0  0  0  0  0  0  0  0  0
   -0.5678    1.2446    2.8475 H   0  0  0  0  0  0  0  0  0  0  0  0
   -1.5239   -0.2359    3.0169 H   0  0  0  0  0  0  0  0  0  0  0  0
    0.1826   -0.1258    4.3008 C   0  0  0  0  0  0  0  0  0  0  0  0
    1.1639   -0.8378    4.4035 O   0  0  0  0  0  0  0  0  0  0  0  0
   -0.3003    0.4290    5.3913 N   0  0  0  0  0  0  0  0  0  0  0  0
    0.1944    0.2058    6.2375 H   0  0  0  0  0  0  0  0  0  0  0  0
   -1.1029    1.0246    5.3630 H   0  0  0  0  0  0  0  0  0  0  0  0
    0.3791   -0.6147   -0.7859 C   0  0  0  0  0  0  0  0  0  0  0  0
    1.5747   -0.8584   -0.6330 O   0  0  0  0  0  0  0  0  0  0  0  0
   -0.2221   -0.6877   -1.9803 N   0  0  0  0  0  0  0  0  0  0  0  0
   -1.2107   -0.4981   -2.0238 H   0  0  0  0  0  0  0  0  0  0  0  0
    0.4638   -1.0578   -3.2176 C   0  0  0  0  0  0  0  0  0  0  0  0
    0.9350   -2.0365   -3.0979 H   0  0  0  0  0  0  0  0  0  0  0  0
   -0.2436   -1.0992   -4.0473 H   0  0  0  0  0  0  0  0  0  0  0  0
    1.2416   -0.3256   -3.4410 H   0  0  0  0  0  0  0  0  0  0  0  0
  5  6  2  0  0  0  0
  5  7  1  0  0  0  0
  2  3  1  0  0  0  0
  2  4  1  0  0  0  0
  2  5  1  0  0  0  0
  1  2  1  0  0  0  0
 22 23  2  0  0  0  0
 22 24  1  0  0  0  0
 19 20  1  0  0  0  0
 19 21  1  0  0  0  0
 17 18  2  0  0  0  0
 17 19  1  0  0  0  0
 14 15  1  0  0  0  0
 14 16  1  0  0  0  0
 14 17  1  0  0  0  0
 11 12  1  0  0  0  0
 11 13  1  0  0  0  0
 11 14  1  0  0  0  0
  9 10  1  0  0  0  0
  9 11  1  0  0  0  0
  9 22  1  0  0  0  0
  7  8  1  0  0  0  0
  7  9  1  0  0  0  0
 26 27  1  0  0  0  0
 26 28  1  0  0  0  0
 26 29  1  0  0  0  0
 24 25  1  0  0  0  0
 24 26  1  0  0  0  0
M  END
$$$$
default_name
  -OEChem-01062215323D

 29 28  0     1  0  0  0  0  0999 V2000
   -3.3998   -3.6239    1.3678 H   0  0  0  0  0  0  0  0  0  0  0  0
   -3.3608   -2.6749    0.8348 C   0  0  0  0  0  0  0  0  0  0  0  0
   -4.0988   -1.9909    1.2498 H   0  0  0  0  0  0  0  0  0  0  0  0
   -3.5618   -2.8419   -0.2222 H   0  0  0  0  0  0  0  0  0  0  0  0
   -1.9818   -2.0809    0.9918 C   0  0  0  0  0  0  0  0  0  0  0  0
   -1.1288   -2.6669    1.6468 O   0  0  0  0  0  0  0  0  0  0  0  0
   -1.7648   -0.9089    0.3998 N   0  0  0  0  0  0  0  0  0  0  0  0
   -2.5238   -0.4719   -0.1032 H   0  0  0  0  0  0  0  0  0  0  0  0
   -0.4848   -0.1959    0.4138 C   0  0  1  0  0  0  0  0  0  0  0  0
   -0.6812    0.8744    0.3324 H   0  0  0  0  0  0  0  0  0  0  0  0
    0.2142   -0.4570    1.7623 C   0  0  0  0  0  0  0  0  0  0  0  0
    0.2744   -1.5367    1.9145 H   0  0  0  0  0  0  0  0  0  0  0  0
    1.2301   -0.0614    1.7197 H   0  0  0  0  0  0  0  0  0  0  0  0
   -0.5107    0.1632    2.9695 C   0  0  0  0  0  0  0  0  0  0  0  0
   -0.5678    1.2446    2.8475 H   0  0  0  0  0  0  0  0  0  0  0  0
   -1.5239   -0.2359    3.0169 H   0  0  0  0  0  0  0  0  0  0  0  0
    0.1826   -0.1258    4.3008 C   0  0  0  0  0  0  0  0  0  0  0  0
    1.1639   -0.8378    4.4035 O   0  0  0  0  0  0  0  0  0  0  0  0
   -0.3003    0.4290    5.3913 N   0  0  0  0  0  0  0  0  0  0  0  0
    0.1944    0.2058    6.2375 H   0  0  0  0  0  0  0  0  0  0  0  0
   -1.1029    1.0246    5.3630 H   0  0  0  0  0  0  0  0  0  0  0  0
    0.3791   -0.6147   -0.7859 C   0  0  0  0  0  0  0  0  0  0  0  0
    1.4858   -1.1197   -0.6058 O   0  0  0  0  0  0  0  0  0  0  0  0
   -0.1203   -0.3956   -2.0090 N   0  0  0  0  0  0  0  0  0  0  0  0
   -1.0448   -0.0011   -2.0779 H   0  0  0  0  0  0  0  0  0  0  0  0
    0.5825   -0.7251   -3.2482 C   0  0  0  0  0  0  0  0  0  0  0  0
    0.8398   -1.7872   -3.2534 H   0  0  0  0  0  0  0  0  0  0  0  0
   -0.0456   -0.5039   -4.1125 H   0  0  0  0  0  0  0  0  0  0  0  0
    1.5055   -0.1464   -3.3136 H   0  0  0  0  0  0  0  0  0  0  0  0
  5  6  2  0  0  0  0
  5  7  1  0  0  0  0
  2  3  1  0  0  0  0
  2  4  1  0  0  0  0
  2  5  1  0  0  0  0
  1  2  1  0  0  0  0
 22 23  2  0  0  0  0
 22 24  1  0  0  0  0
 19 20  1  0  0  0  0
 19 21  1  0  0  0  0
 17 18  2  0  0  0  0
 17 19  1  0  0  0  0
 14 15  1  0  0  0  0
 14 16  1  0  0  0  0
 14 17  1  0  0  0  0
 11 12  1  0  0  0  0
 11 13  1  0  0  0  0
 11 14  1  0  0  0  0
  9 10  1  0  0  0  0
  9 11  1  0  0  0  0
  9 22  1  0  0  0  0
  7  8  1  0  0  0  0
  7  9  1  0  0  0  0
 26 27  1  0  0  0  0
 26 28  1  0  0  0  0
 26 29  1  0  0  0  0
 24 25  1  0  0  0  0
 24 26  1  0  0  0  0
M  END
$$$$
default_name
  -OEChem-01062215323D

 29 28  0     1  0  0  0  0  0999 V2000
   -3.3998   -3.6239    1.3678 H   0  0  0  0  0  0  0  0  0  0  0  0
   -3.3608   -2.6749    0.8348 C   0  0  0  0  0  0  0  0  0  0  0  0
   -4.0988   -1.9909    1.2498 H   0  0  0  0  0  0  0  0  0  0  0  0
   -3.5618   -2.8419   -0.2222 H   0  0  0  0  0  0  0  0  0  0  0  0
   -1.9818   -2.0809    0.9918 C   0  0  0  0  0  0  0  0  0  0  0  0
   -1.1288   -2.6669    1.6468 O   0  0  0  0  0  0  0  0  0  0  0  0
   -1.7648   -0.9089    0.3998 N   0  0  0  0  0  0  0  0  0  0  0  0
   -2.5238   -0.4719   -0.1032 H   0  0  0  0  0  0  0  0  0  0  0  0
   -0.4848   -0.1959    0.4138 C   0  0  1  0  0  0  0  0  0  0  0  0
   -0.6812    0.8744    0.3324 H   0  0  0  0  0  0  0  0  0  0  0  0
    0.2142   -0.4570    1.7623 C   0  0  0  0  0  0  0  0  0  0  0  0
    0.2744   -1.5367    1.9145 H   0  0  0  0  0  0  0  0  0  0  0  0
    1.2301   -0.0614    1.7197 H   0  0  0  0  0  0  0  0  0  0  0  0
   -0.5107    0.1632    2.9695 C   0  0  0  0  0  0  0  0  0  0  0  0
   -0.5678    1.2446    2.8475 H   0  0  0  0  0  0  0  0  0  0  0  0
   -1.5239   -0.2359    3.0169 H   0  0  0  0  0  0  0  0  0  0  0  0
    0.1826   -0.1258    4.3008 C   0  0  0  0  0  0  0  0  0  0  0  0
    1.1639   -0.8378    4.4035 O   0  0  0  0  0  0  0  0  0  0  0  0
   -0.3003    0.4290    5.3913 N   0  0  0  0  0  0  0  0  0  0  0  0
    0.1944    0.2058    6.2375 H   0  0  0  0  0  0  0  0  0  0  0  0
   -1.1029    1.0246    5.3630 H   0  0  0  0  0  0  0  0  0  0  0  0
    0.3791   -0.6147   -0.7859 C   0  0  0  0  0  0  0  0  0  0  0  0
    1.3452   -1.3581   -0.6238 O   0  0  0  0  0  0  0  0  0  0  0  0
    0.0390   -0.1299   -1.9870 N   0  0  0  0  0  0  0  0  0  0  0  0
   -0.7804    0.4534   -2.0461 H   0  0  0  0  0  0  0  0  0  0  0  0
    0.7666   -0.4233   -3.2210 C   0  0  0  0  0  0  0  0  0  0  0  0
    0.8092   -1.5045   -3.3741 H   0  0  0  0  0  0  0  0  0  0  0  0
    0.2705    0.0406   -4.0749 H   0  0  0  0  0  0  0  0  0  0  0  0
    1.7875   -0.0452   -3.1458 H   0  0  0  0  0  0  0  0  0  0  0  0
  5  6  2  0  0  0  0
  5  7  1  0  0  0  0
  2  3  1  0  0  0  0
  2  4  1  0  0  0  0
  2  5  1  0  0  0  0
  1  2  1  0  0  0  0
 22 23  2  0  0  0  0
 22 24  1  0  0  0  0
 19 20  1  0  0  0  0
 19 21  1  0  0  0  0
 17 18  2  0  0  0  0
 17 19  1  0  0  0  0
 14 15  1  0  0  0  0
 14 16  1  0  0  0  0
 14 17  1  0  0  0  0
 11 12  1  0  0  0  0
 11 13  1  0  0  0  0
 11 14  1  0  0  0  0
  9 10  1  0  0  0  0
  9 11  1  0  0  0  0
  9 22  1  0  0  0  0
  7  8  1  0  0  0  0
  7  9  1  0  0  0  0
 26 27  1  0  0  0  0
 26 28  1  0  0  0  0
 26 29  1  0  0  0  0
 24 25  1  0  0  0  0
 24 26  1  0  0  0  0
M  END
$$$$
default_name
  -OEChem-01062215323D

 29 28  0     1  0  0  0  0  0999 V2000
   -3.3998   -3.6239    1.3678 H   0  0  0  0  0  0  0  0  0  0  0  0
   -3.3608   -2.6749    0.8348 C   0  0  0  0  0  0  0  0  0  0  0  0
   -4.0988   -1.9909    1.2498 H   0  0  0  0  0  0  0  0  0  0  0  0
   -3.5618   -2.8419   -0.2222 H   0  0  0  0  0  0  0  0  0  0  0  0
   -1.9818   -2.0809    0.9918 C   0  0  0  0  0  0  0  0  0  0  0  0
   -1.1288   -2.6669    1.6468 O   0  0  0  0  0  0  0  0  0  0  0  0
   -1.7648   -0.9089    0.3998 N   0  0  0  0  0  0  0  0  0  0  0  0
   -2.5238   -0.4719   -0.1032 H   0  0  0  0  0  0  0  0  0  0  0  0
   -0.4848   -0.1959    0.4138 C   0  0  1  0  0  0  0  0  0  0  0  0
   -0.6812    0.8744    0.3324 H   0  0  0  0  0  0  0  0  0  0  0  0
    0.2142   -0.4570    1.7623 C   0  0  0  0  0  0  0  0  0  0  0  0
    0.2744   -1.5367    1.9145 H   0  0  0  0  0  0  0  0  0  0  0  0
    1.2301   -0.0614    1.7197 H   0  0  0  0  0  0  0  0  0  0  0  0
   -0.5107    0.1632    2.9695 C   0  0  0  0  0  0  0  0  0  0  0  0
   -0.5678    1.2446    2.8475 H   0  0  0  0  0  0  0  0  0  0  0  0
   -1.5239   -0.2359    3.0169 H   0  0  0  0  0  0  0  0  0  0  0  0
    0.1826   -0.1258    4.3008 C   0  0  0  0  0  0  0  0  0  0  0  0
    1.1639   -0.8378    4.4035 O   0  0  0  0  0  0  0  0  0  0  0  0
   -0.3003    0.4290    5.3913 N   0  0  0  0  0  0  0  0  0  0  0  0
    0.1944    0.2058    6.2375 H   0  0  0  0  0  0  0  0  0  0  0  0
   -1.1029    1.0246    5.3630 H   0  0  0  0  0  0  0  0  0  0  0  0
    0.3791   -0.6147   -0.7859 C   0  0  0  0  0  0  0  0  0  0  0  0
    1.1625   -1.5573   -0.6858 O   0  0  0  0  0  0  0  0  0  0  0  0
    0.2451    0.0914   -1.9159 N   0  0  0  0  0  0  0  0  0  0  0  0
   -0.4353    0.8343   -1.9306 H   0  0  0  0  0  0  0  0  0  0  0  0
    1.0034   -0.1730   -3.1379 C   0  0  0  0  0  0  0  0  0  0  0  0
    0.8454   -1.2077   -3.4517 H   0  0  0  0  0  0  0  0  0  0  0  0
    0.6833    0.4972   -3.9371 H   0  0  0  0  0  0  0  0  0  0  0  0
    2.0686   -0.0288   -2.9491 H   0  0  0  0  0  0  0  0  0  0  0  0
  5  6  2  0  0  0  0
  5  7  1  0  0  0  0
  2  3  1  0  0  0  0
  2  4  1  0  0  0  0
  2  5  1  0  0  0  0
  1  2  1  0  0  0  0
 22 23  2  0  0  0  0
 22 24  1  0  0  0  0
 19 20  1  0  0  0  0
 19 21  1  0  0  0  0
 17 18  2  0  0  0  0
 17 19  1  0  0  0  0
 14 15  1  0  0  0  0
 14 16  1  0  0  0  0
 14 17  1  0  0  0  0
 11 12  1  0  0  0  0
 11 13  1  0  0  0  0
 11 14  1  0  0  0  0
  9 10  1  0  0  0  0
  9 11  1  0  0  0  0
  9 22  1  0  0  0  0
  7  8  1  0  0  0  0
  7  9  1  0  0  0  0
 26 27  1  0  0  0  0
 26 28  1  0  0  0  0
 26 29  1  0  0  0  0
 24 25  1  0  0  0  0
 24 26  1  0  0  0  0
M  END
$$$$
default_name
  -OEChem-01062215323D

 29 28  0     1  0  0  0  0  0999 V2000
   -3.3998   -3.6239    1.3678 H   0  0  0  0  0  0  0  0  0  0  0  0
   -3.3608   -2.6749    0.8348 C   0  0  0  0  0  0  0  0  0  0  0  0
   -4.0988   -1.9909    1.2498 H   0  0  0  0  0  0  0  0  0  0  0  0
   -3.5618   -2.8419   -0.2222 H   0  0  0  0  0  0  0  0  0  0  0  0
   -1.9818   -2.0809    0.9918 C   0  0  0  0  0  0  0  0  0  0  0  0
   -1.1288   -2.6669    1.6468 O   0  0  0  0  0  0  0  0  0  0  0  0
   -1.7648   -0.9089    0.3998 N   0  0  0  0  0  0  0  0  0  0  0  0
   -2.5238   -0.4719   -0.1032 H   0  0  0  0  0  0  0  0  0  0  0  0
   -0.4848   -0.1959    0.4138 C   0  0  1  0  0  0  0  0  0  0  0  0
   -0.6812    0.8744    0.3324 H   0  0  0  0  0  0  0  0  0  0  0  0
    0.2142   -0.4570    1.7623 C   0  0  0  0  0  0  0  0  0  0  0  0
    0.2744   -1.5367    1.9145 H   0  0  0  0  0  0  0  0  0  0  0  0
    1.2301   -0.0614    1.7197 H   0  0  0  0  0  0  0  0  0  0  0  0
   -0.5107    0.1632    2.9695 C   0  0  0  0  0  0  0  0  0  0  0  0
   -0.5678    1.2446    2.8475 H   0  0  0  0  0  0  0  0  0  0  0  0
   -1.5239   -0.2359    3.0169 H   0  0  0  0  0  0  0  0  0  0  0  0
    0.1826   -0.1258    4.3008 C   0  0  0  0  0  0  0  0  0  0  0  0
    1.1639   -0.8378    4.4035 O   0  0  0  0  0  0  0  0  0  0  0  0
   -0.3003    0.4290    5.3913 N   0  0  0  0  0  0  0  0  0  0  0  0
    0.1944    0.2058    6.2375 H   0  0  0  0  0  0  0  0  0  0  0  0
   -1.1029    1.0246    5.3630 H   0  0  0  0  0  0  0  0  0  0  0  0
    0.3791   -0.6147   -0.7859 C   0  0  0  0  0  0  0  0  0  0  0  0
    0.9501   -1.7038   -0.7876 O   0  0  0  0  0  0  0  0  0  0  0  0
    0.4838    0.2532   -1.8004 N   0  0  0  0  0  0  0  0  0  0  0  0
   -0.0332    1.1157   -1.7393 H   0  0  0  0  0  0  0  0  0  0  0  0
    1.2769    0.0089   -3.0044 C   0  0  0  0  0  0  0  0  0  0  0  0
    0.9457   -0.9171   -3.4809 H   0  0  0  0  0  0  0  0  0  0  0  0
    1.1645    0.8348   -3.7084 H   0  0  0  0  0  0  0  0  0  0  0  0
    2.3295   -0.0984   -2.7369 H   0  0  0  0  0  0  0  0  0  0  0  0
  5  6  2  0  0  0  0
  5  7  1  0  0  0  0
  2  3  1  0  0  0  0
  2  4  1  0  0  0  0
  2  5  1  0  0  0  0
  1  2  1  0  0  0  0
 22 23  2  0  0  0  0
 22 24  1  0  0  0  0
 19 20  1  0  0  0  0
 19 21  1  0  0  0  0
 17 18  2  0  0  0  0
 17 19  1  0  0  0  0
 14 15  1  0  0  0  0
 14 16  1  0  0  0  0
 14 17  1  0  0  0  0
 11 12  1  0  0  0  0
 11 13  1  0  0  0  0
 11 14  1  0  0  0  0
  9 10  1  0  0  0  0
  9 11  1  0  0  0  0
  9 22  1  0  0  0  0
  7  8  1  0  0  0  0
  7  9  1  0  0  0  0
 26 27  1  0  0  0  0
 26 28  1  0  0  0  0
 26 29  1  0  0  0  0
 24 25  1  0  0  0  0
 24 26  1  0  0  0  0
M  END
$$$$
default_name
  -OEChem-01062215323D

 29 28  0     1  0  0  0  0  0999 V2000
   -3.3998   -3.6239    1.3678 H   0  0  0  0  0  0  0  0  0  0  0  0
   -3.3608   -2.6749    0.8348 C   0  0  0  0  0  0  0  0  0  0  0  0
   -4.0988   -1.9909    1.2498 H   0  0  0  0  0  0  0  0  0  0  0  0
   -3.5618   -2.8419   -0.2222 H   0  0  0  0  0  0  0  0  0  0  0  0
   -1.9818   -2.0809    0.9918 C   0  0  0  0  0  0  0  0  0  0  0  0
   -1.1288   -2.6669    1.6468 O   0  0  0  0  0  0  0  0  0  0  0  0
   -1.7648   -0.9089    0.3998 N   0  0  0  0  0  0  0  0  0  0  0  0
   -2.5238   -0.4719   -0.1032 H   0  0  0  0  0  0  0  0  0  0  0  0
   -0.4848   -0.1959    0.4138 C   0  0  1  0  0  0  0  0  0  0  0  0
   -0.6812    0.8744    0.3324 H   0  0  0  0  0  0  0  0  0  0  0  0
    0.2142   -0.4570    1.7623 C   0  0  0  0  0  0  0  0  0  0  0  0
    0.2744   -1.5367    1.9145 H   0  0  0  0  0  0  0  0  0  0  0  0
    1.2301   -0.0614    1.7197 H   0  0  0  0  0  0  0  0  0  0  0  0
   -0.5107    0.1632    2.9695 C   0  0  0  0  0  0  0  0  0  0  0  0
   -0.5678    1.2446    2.8475 H   0  0  0  0  0  0  0  0  0  0  0  0
   -1.5239   -0.2359    3.0169 H   0  0  0  0  0  0  0  0  0  0  0  0
    0.1826   -0.1258    4.3008 C   0  0  0  0  0  0  0  0  0  0  0  0
    1.1639   -0.8378    4.4035 O   0  0  0  0  0  0  0  0  0  0  0  0
   -0.3003    0.4290    5.3913 N   0  0  0  0  0  0  0  0  0  0  0  0
    0.1944    0.2058    6.2375 H   0  0  0  0  0  0  0  0  0  0  0  0
   -1.1029    1.0246    5.3630 H   0  0  0  0  0  0  0  0  0  0  0  0
    0.3791   -0.6147   -0.7859 C   0  0  0  0  0  0  0  0  0  0  0  0
    0.7226   -1.7875   -0.9222 O   0  0  0  0  0  0  0  0  0  0  0  0
    0.7390    0.3444   -1.6485 N   0  0  0  0  0  0  0  0  0  0  0  0
    0.3986    1.2785   -1.4851 H   0  0  0  0  0  0  0  0  0  0  0  0
    1.5685    0.1098   -2.8297 C   0  0  0  0  0  0  0  0  0  0  0  0
    1.1034   -0.6524   -3.4598 H   0  0  0  0  0  0  0  0  0  0  0  0
    1.6815    1.0304   -3.4044 H   0  0  0  0  0  0  0  0  0  0  0  0
    2.5525   -0.2492   -2.5237 H   0  0  0  0  0  0  0  0  0  0  0  0
  5  6  2  0  0  0  0
  5  7  1  0  0  0  0
  2  3  1  0  0  0  0
  2  4  1  0  0  0  0
  2  5  1  0  0  0  0
  1  2  1  0  0  0  0
 22 23  2  0  0  0  0
 22 24  1  0  0  0  0
 19 20  1  0  0  0  0
 19 21  1  0  0  0  0
 17 18  2  0  0  0  0
 17 19  1  0  0  0  0
 14 15  1  0  0  0  0
 14 16  1  0  0  0  0
 14 17  1  0  0  0  0
 11 12  1  0  0  0  0
 11 13  1  0  0  0  0
 11 14  1  0  0  0  0
  9 10  1  0  0  0  0
  9 11  1  0  0  0  0
  9 22  1  0  0  0  0
  7  8  1  0  0  0  0
  7  9  1  0  0  0  0
 26 27  1  0  0  0  0
 26 28  1  0  0  0  0
 26 29  1  0  0  0  0
 24 25  1  0  0  0  0
 24 26  1  0  0  0  0
M  END
$$$$
default_name
  -OEChem-01062215323D

 29 28  0     1  0  0  0  0  0999 V2000
   -3.3998   -3.6239    1.3678 H   0  0  0  0  0  0  0  0  0  0  0  0
   -3.3608   -2.6749    0.8348 C   0  0  0  0  0  0  0  0  0  0  0  0
   -4.0988   -1.9909    1.2498 H   0  0  0  0  0  0  0  0  0  0  0  0
   -3.5618   -2.8419   -0.2222 H   0  0  0  0  0  0  0  0  0  0  0  0
   -1.9818   -2.0809    0.9918 C   0  0  0  0  0  0  0  0  0  0  0  0
   -1.1288   -2.6669    1.6468 O   0  0  0  0  0  0  0  0  0  0  0  0
   -1.7648   -0.9089    0.3998 N   0  0  0  0  0  0  0  0  0  0  0  0
   -2.5238   -0.4719   -0.1032 H   0  0  0  0  0  0  0  0  0  0  0  0
   -0.4848   -0.1959    0.4138 C   0  0  1  0  0  0  0  0  0  0  0  0
   -0.6812    0.8744    0.3324 H   0  0  0  0  0  0  0  0  0  0  0  0
    0.2142   -0.4570    1.7623 C   0  0  0  0  0  0  0  0  0  0  0  0
    0.2744   -1.5367    1.9145 H   0  0  0  0  0  0  0  0  0  0  0  0
    1.2301   -0.0614    1.7197 H   0  0  0  0  0  0  0  0  0  0  0  0
   -0.5107    0.1632    2.9695 C   0  0  0  0  0  0  0  0  0  0  0  0
   -0.5678    1.2446    2.8475 H   0  0  0  0  0  0  0  0  0  0  0  0
   -1.5239   -0.2359    3.0169 H   0  0  0  0  0  0  0  0  0  0  0  0
    0.1826   -0.1258    4.3008 C   0  0  0  0  0  0  0  0  0  0  0  0
    1.1639   -0.8378    4.4035 O   0  0  0  0  0  0  0  0  0  0  0  0
   -0.3003    0.4290    5.3913 N   0  0  0  0  0  0  0  0  0  0  0  0
    0.1944    0.2058    6.2375 H   0  0  0  0  0  0  0  0  0  0  0  0
   -1.1029    1.0246    5.3630 H   0  0  0  0  0  0  0  0  0  0  0  0
    0.3791   -0.6147   -0.7859 C   0  0  0  0  0  0  0  0  0  0  0  0
    0.4954   -1.8029   -1.0805 O   0  0  0  0  0  0  0  0  0  0  0  0
    0.9931    0.3588   -1.4705 N   0  0  0  0  0  0  0  0  0  0  0  0
    0.8306    1.3114   -1.1855 H   0  0  0  0  0  0  0  0  0  0  0  0
    1.8581    0.1230   -2.6257 C   0  0  0  0  0  0  0  0  0  0  0  0
    1.3077   -0.4316   -3.3897 H   0  0  0  0  0  0  0  0  0  0  0  0
    2.1988    1.0706   -3.0459 H   0  0  0  0  0  0  0  0  0  0  0  0
    2.7224   -0.4710   -2.3239 H   0  0  0  0  0  0  0  0  0  0  0  0
  5  6  2  0  0  0  0
  5  7  1  0  0  0  0
  2  3  1  0  0  0  0
  2  4  1  0  0  0  0
  2  5  1  0  0  0  0
  1  2  1  0  0  0  0
 22 23  2  0  0  0  0
 22 24  1  0  0  0  0
 19 20  1  0  0  0  0
 19 21  1  0  0  0  0
 17 18  2  0  0  0  0
 17 19  1  0  0  0  0
 14 15  1  0  0  0  0
 14 16  1  0  0  0  0
 14 17  1  0  0  0  0
 11 12  1  0  0  0  0
 11 13  1  0  0  0  0
 11 14  1  0  0  0  0
  9 10  1  0  0  0  0
  9 11  1  0  0  0  0
  9 22  1  0  0  0  0
  7  8  1  0  0  0  0
  7  9  1  0  0  0  0
 26 27  1  0  0  0  0
 26 28  1  0  0  0  0
 26 29  1  0  0  0  0
 24 25  1  0  0  0  0
 24 26  1  0  0  0  0
M  END
$$$$
default_name
  -OEChem-01062215323D

 29 28  0     1  0  0  0  0  0999 V2000
   -3.3998   -3.6239    1.3678 H   0  0  0  0  0  0  0  0  0  0  0  0
   -3.3608   -2.6749    0.8348 C   0  0  0  0  0  0  0  0  0  0  0  0
   -4.0988   -1.9909    1.2498 H   0  0  0  0  0  0  0  0  0  0  0  0
   -3.5618   -2.8419   -0.2222 H   0  0  0  0  0  0  0  0  0  0  0  0
   -1.9818   -2.0809    0.9918 C   0  0  0  0  0  0  0  0  0  0  0  0
   -1.1288   -2.6669    1.6468 O   0  0  0  0  0  0  0  0  0  0  0  0
   -1.7648   -0.9089    0.3998 N   0  0  0  0  0  0  0  0  0  0  0  0
   -2.5238   -0.4719   -0.1032 H   0  0  0  0  0  0  0  0  0  0  0  0
   -0.4848   -0.1959    0.4138 C   0  0  1  0  0  0  0  0  0  0  0  0
   -0.6812    0.8744    0.3324 H   0  0  0  0  0  0  0  0  0  0  0  0
    0.2142   -0.4570    1.7623 C   0  0  0  0  0  0  0  0  0  0  0  0
    0.2744   -1.5367    1.9145 H   0  0  0  0  0  0  0  0  0  0  0  0
    1.2301   -0.0614    1.7197 H   0  0  0  0  0  0  0  0  0  0  0  0
   -0.5107    0.1632    2.9695 C   0  0  0  0  0  0  0  0  0  0  0  0
   -0.5678    1.2446    2.8475 H   0  0  0  0  0  0  0  0  0  0  0  0
   -1.5239   -0.2359    3.0169 H   0  0  0  0  0  0  0  0  0  0  0  0
    0.1826   -0.1258    4.3008 C   0  0  0  0  0  0  0  0  0  0  0  0
    1.1639   -0.8378    4.4035 O   0  0  0  0  0  0  0  0  0  0  0  0
   -0.3003    0.4290    5.3913 N   0  0  0  0  0  0  0  0  0  0  0  0
    0.1944    0.2058    6.2375 H   0  0  0  0  0  0  0  0  0  0  0  0
   -1.1029    1.0246    5.3630 H   0  0  0  0  0  0  0  0  0  0  0  0
    0.3791   -0.6147   -0.7859 C   0  0  0  0  0  0  0  0  0  0  0  0
    0.2839   -1.7488   -1.2516 O   0  0  0  0  0  0  0  0  0  0  0  0
    1.2290    0.2955   -1.2785 N   0  0  0  0  0  0  0  0  0  0  0  0
    1.2334    1.2123   -0.8609 H   0  0  0  0  0  0  0  0  0  0  0  0
    2.1262    0.0476   -2.4063 C   0  0  0  0  0  0  0  0  0  0  0  0
    1.5448   -0.2698   -3.2754 H   0  0  0  0  0  0  0  0  0  0  0  0
    2.6814    0.9527   -2.6572 H   0  0  0  0  0  0  0  0  0  0  0  0
    2.8276   -0.7487   -2.1513 H   0  0  0  0  0  0  0  0  0  0  0  0
  5  6  2  0  0  0  0
  5  7  1  0  0  0  0
  2  3  1  0  0  0  0
  2  4  1  0  0  0  0
  2  5  1  0  0  0  0
  1  2  1  0  0  0  0
 22 23  2  0  0  0  0
 22 24  1  0  0  0  0
 19 20  1  0  0  0  0
 19 21  1  0  0  0  0
 17 18  2  0  0  0  0
 17 19  1  0  0  0  0
 14 15  1  0  0  0  0
 14 16  1  0  0  0  0
 14 17  1  0  0  0  0
 11 12  1  0  0  0  0
 11 13  1  0  0  0  0
 11 14  1  0  0  0  0
  9 10  1  0  0  0  0
  9 11  1  0  0  0  0
  9 22  1  0  0  0  0
  7  8  1  0  0  0  0
  7  9  1  0  0  0  0
 26 27  1  0  0  0  0
 26 28  1  0  0  0  0
 26 29  1  0  0  0  0
 24 25  1  0  0  0  0
 24 26  1  0  0  0  0
M  END
$$$$
default_name
  -OEChem-01062215323D

 29 28  0     1  0  0  0  0  0999 V2000
   -3.3998   -3.6239    1.3678 H   0  0  0  0  0  0  0  0  0  0  0  0
   -3.3608   -2.6749    0.8348 C   0  0  0  0  0  0  0  0  0  0  0  0
   -4.0988   -1.9909    1.2498 H   0  0  0  0  0  0  0  0  0  0  0  0
   -3.5618   -2.8419   -0.2222 H   0  0  0  0  0  0  0  0  0  0  0  0
   -1.9818   -2.0809    0.9918 C   0  0  0  0  0  0  0  0  0  0  0  0
   -1.1288   -2.6669    1.6468 O   0  0  0  0  0  0  0  0  0  0  0  0
   -1.7648   -0.9089    0.3998 N   0  0  0  0  0  0  0  0  0  0  0  0
   -2.5238   -0.4719   -0.1032 H   0  0  0  0  0  0  0  0  0  0  0  0
   -0.4848   -0.1959    0.4138 C   0  0  1  0  0  0  0  0  0  0  0  0
   -0.6812    0.8744    0.3324 H   0  0  0  0  0  0  0  0  0  0  0  0
    0.2142   -0.4570    1.7623 C   0  0  0  0  0  0  0  0  0  0  0  0
    0.2744   -1.5367    1.9145 H   0  0  0  0  0  0  0  0  0  0  0  0
    1.2301   -0.0614    1.7197 H   0  0  0  0  0  0  0  0  0  0  0  0
   -0.5107    0.1632    2.9695 C   0  0  0  0  0  0  0  0  0  0  0  0
   -0.5678    1.2446    2.8475 H   0  0  0  0  0  0  0  0  0  0  0  0
   -1.5239   -0.2359    3.0169 H   0  0  0  0  0  0  0  0  0  0  0  0
    0.1826   -0.1258    4.3008 C   0  0  0  0  0  0  0  0  0  0  0  0
    1.1639   -0.8378    4.4035 O   0  0  0  0  0  0  0  0  0  0  0  0
   -0.3003    0.4290    5.3913 N   0  0  0  0  0  0  0  0  0  0  0  0
    0.1944    0.2058    6.2375 H   0  0  0  0  0  0  0  0  0  0  0  0
   -1.1029    1.0246    5.3630 H   0  0  0  0  0  0  0  0  0  0  0  0
    0.3791   -0.6147   -0.7859 C   0  0  0  0  0  0  0  0  0  0  0  0
    0.1027   -1.6289   -1.4240 O   0  0  0  0  0  0  0  0  0  0  0  0
    1.4305    0.1587   -1.0857 N   0  0  0  0  0  0  0  0  0  0  0  0
    1.5796    0.9880   -0.5333 H   0  0  0  0  0  0  0  0  0  0  0  0
    2.3544   -0.1114   -2.1865 C   0  0  0  0  0  0  0  0  0  0  0  0
    1.7984   -0.1781   -3.1248 H   0  0  0  0  0  0  0  0  0  0  0  0
    3.0963    0.6847   -2.2649 H   0  0  0  0  0  0  0  0  0  0  0  0
    2.8609   -1.0632   -2.0174 H   0  0  0  0  0  0  0  0  0  0  0  0
  5  6  2  0  0  0  0
  5  7  1  0  0  0  0
  2  3  1  0  0  0  0
  2  4  1  0  0  0  0
  2  5  1  0  0  0  0
  1  2  1  0  0  0  0
 22 23  2  0  0  0  0
 22 24  1  0  0  0  0
 19 20  1  0  0  0  0
 19 21  1  0  0  0  0
 17 18  2  0  0  0  0
 17 19  1  0  0  0  0
 14 15  1  0  0  0  0
 14 16  1  0  0  0  0
 14 17  1  0  0  0  0
 11 12  1  0  0  0  0
 11 13  1  0  0  0  0
 11 14  1  0  0  0  0
  9 10  1  0  0  0  0
  9 11  1  0  0  0  0
  9 22  1  0  0  0  0
  7  8  1  0  0  0  0
  7  9  1  0  0  0  0
 26 27  1  0  0  0  0
 26 28  1  0  0  0  0
 26 29  1  0  0  0  0
 24 25  1  0  0  0  0
 24 26  1  0  0  0  0
M  END
$$$$
default_name
  -OEChem-01062215323D

 29 28  0     1  0  0  0  0  0999 V2000
   -3.3998   -3.6239    1.3678 H   0  0  0  0  0  0  0  0  0  0  0  0
   -3.3608   -2.6749    0.8348 C   0  0  0  0  0  0  0  0  0  0  0  0
   -4.0988   -1.9909    1.2498 H   0  0  0  0  0  0  0  0  0  0  0  0
   -3.5618   -2.8419   -0.2222 H   0  0  0  0  0  0  0  0  0  0  0  0
   -1.9818   -2.0809    0.9918 C   0  0  0  0  0  0  0  0  0  0  0  0
   -1.1288   -2.6669    1.6468 O   0  0  0  0  0  0  0  0  0  0  0  0
   -1.7648   -0.9089    0.3998 N   0  0  0  0  0  0  0  0  0  0  0  0
   -2.5238   -0.4719   -0.1032 H   0  0  0  0  0  0  0  0  0  0  0  0
   -0.4848   -0.1959    0.4138 C   0  0  1  0  0  0  0  0  0  0  0  0
   -0.6770    0.8616    0.6021 H   0  0  0  0  0  0  0  0  0  0  0  0
    0.3757   -0.7430    1.5695 C   0  0  0  0  0  0  0  0  0  0  0  0
    0.4416   -1.8280    1.4646 H   0  0  0  0  0  0  0  0  0  0  0  0
    1.3827   -0.3308    1.4901 H   0  0  0  0  0  0  0  0  0  0  0  0
   -0.1836   -0.4240    2.9669 C   0  0  0  0  0  0  0  0  0  0  0  0
   -0.2427    0.6559    3.1009 H   0  0  0  0  0  0  0  0  0  0  0  0
   -1.1874   -0.8406    3.0497 H   0  0  0  0  0  0  0  0  0  0  0  0
    0.6687   -0.9945    4.1004 C   0  0  0  0  0  0  0  0  0  0  0  0
    1.6465   -1.6946    3.9152 O   0  0  0  0  0  0  0  0  0  0  0  0
    0.3340   -0.7088    5.3400 N   0  0  0  0  0  0  0  0  0  0  0  0
    0.9288   -1.1089    6.0446 H   0  0  0  0  0  0  0  0  0  0  0  0
   -0.4586   -0.1359    5.5482 H   0  0  0  0  0  0  0  0  0  0  0  0
    0.2157   -0.3181   -0.9483 C   0  0  0  0  0  0  0  0  0  0  0  0
   -0.3070   -0.9593   -1.8581 O   0  0  0  0  0  0  0  0  0  0  0  0
    1.4026    0.2869   -1.0853 N   0  0  0  0  0  0  0  0  0  0  0  0
    1.7563    0.8154   -0.3039 H   0  0  0  0  0  0  0  0  0  0  0  0
    2.1989    0.2529   -2.3113 C   0  0  0  0  0  0  0  0  0  0  0  0
    1.6068    0.6390   -3.1448 H   0  0  0  0  0  0  0  0  0  0  0  0
    3.0981    0.8604   -2.1983 H   0  0  0  0  0  0  0  0  0  0  0  0
    2.4830   -0.7762   -2.5379 H   0  0  0  0  0  0  0  0  0  0  0  0
  5  6  2  0  0  0  0
  5  7  1  0  0  0  0
  2  3  1  0  0  0  0
  2  4  1  0  0  0  0
  2  5  1  0  0  0  0
  1  2  1  0  0  0  0
 22 23  2  0  0  0  0
 22 24  1  0  0  0  0
 19 20  1  0  0  0  0
 19 21  1  0  0  0  0
 17 18  2  0  0  0  0
 17 19  1  0  0  0  0
 14 15  1  0  0  0  0
 14 16  1  0  0  0  0
 14 17  1  0  0  0  0
 11 12  1  0  0  0  0
 11 13  1  0  0  0  0
 11 14  1  0  0  0  0
  9 10  1  0  0  0  0
  9 11  1  0  0  0  0
  9 22  1  0  0  0  0
  7  8  1  0  0  0  0
  7  9  1  0  0  0  0
 26 27  1  0  0  0  0
 26 28  1  0  0  0  0
 26 29  1  0  0  0  0
 24 25  1  0  0  0  0
 24 26  1  0  0  0  0
M  END
$$$$
default_name
  -OEChem-01062215323D

 29 28  0     1  0  0  0  0  0999 V2000
   -3.3998   -3.6239    1.3678 H   0  0  0  0  0  0  0  0  0  0  0  0
   -3.3608   -2.6749    0.8348 C   0  0  0  0  0  0  0  0  0  0  0  0
   -4.0988   -1.9909    1.2498 H   0  0  0  0  0  0  0  0  0  0  0  0
   -3.5618   -2.8419   -0.2222 H   0  0  0  0  0  0  0  0  0  0  0  0
   -1.9818   -2.0809    0.9918 C   0  0  0  0  0  0  0  0  0  0  0  0
   -1.1288   -2.6669    1.6468 O   0  0  0  0  0  0  0  0  0  0  0  0
   -1.7648   -0.9089    0.3998 N   0  0  0  0  0  0  0  0  0  0  0  0
   -2.5238   -0.4719   -0.1032 H   0  0  0  0  0  0  0  0  0  0  0  0
   -0.4848   -0.1959    0.4138 C   0  0  1  0  0  0  0  0  0  0  0  0
   -0.6770    0.8616    0.6021 H   0  0  0  0  0  0  0  0  0  0  0  0
    0.3757   -0.7430    1.5695 C   0  0  0  0  0  0  0  0  0  0  0  0
    0.4416   -1.8280    1.4646 H   0  0  0  0  0  0  0  0  0  0  0  0
    1.3827   -0.3308    1.4901 H   0  0  0  0  0  0  0  0  0  0  0  0
   -0.1836   -0.4240    2.9669 C   0  0  0  0  0  0  0  0  0  0  0  0
   -0.2427    0.6559    3.1009 H   0  0  0  0  0  0  0  0  0  0  0  0
   -1.1874   -0.8406    3.0497 H   0  0  0  0  0  0  0  0  0  0  0  0
    0.6687   -0.9945    4.1004 C   0  0  0  0  0  0  0  0  0  0  0  0
    1.6465   -1.6946    3.9152 O   0  0  0  0  0  0  0  0  0  0  0  0
    0.3340   -0.7088    5.3400 N   0  0  0  0  0  0  0  0  0  0  0  0
    0.9288   -1.1089    6.0446 H   0  0  0  0  0  0  0  0  0  0  0  0
   -0.4586   -0.1359    5.5482 H   0  0  0  0  0  0  0  0  0  0  0  0
    0.2157   -0.3181   -0.9483 C   0  0  0  0  0  0  0  0  0  0  0  0
   -0.4080   -0.7119   -1.9322 O   0  0  0  0  0  0  0  0  0  0  0  0
    1.5133    0.0084   -1.0034 N   0  0  0  0  0  0  0  0  0  0  0  0
    1.9512    0.3472   -0.1616 H   0  0  0  0  0  0  0  0  0  0  0  0
    2.3225   -0.0664   -2.2191 C   0  0  0  0  0  0  0  0  0  0  0  0
    1.8631    0.5396   -3.0040 H   0  0  0  0  0  0  0  0  0  0  0  0
    3.3321    0.3001   -2.0276 H   0  0  0  0  0  0  0  0  0  0  0  0
    2.3719   -1.0999   -2.5660 H   0  0  0  0  0  0  0  0  0  0  0  0
  5  6  2  0  0  0  0
  5  7  1  0  0  0  0
  2  3  1  0  0  0  0
  2  4  1  0  0  0  0
  2  5  1  0  0  0  0
  1  2  1  0  0  0  0
 22 23  2  0  0  0  0
 22 24  1  0  0  0  0
 19 20  1  0  0  0  0
 19 21  1  0  0  0  0
 17 18  2  0  0  0  0
 17 19  1  0  0  0  0
 14 15  1  0  0  0  0
 14 16  1  0  0  0  0
 14 17  1  0  0  0  0
 11 12  1  0  0  0  0
 11 13  1  0  0  0  0
 11 14  1  0  0  0  0
  9 10  1  0  0  0  0
  9 11  1  0  0  0  0
  9 22  1  0  0  0  0
  7  8  1  0  0  0  0
  7  9  1  0  0  0  0
 26 27  1  0  0  0  0
 26 28  1  0  0  0  0
 26 29  1  0  0  0  0
 24 25  1  0  0  0  0
 24 26  1  0  0  0  0
M  END
$$$$
default_name
  -OEChem-01062215323D

 29 28  0     1  0  0  0  0  0999 V2000
   -3.3998   -3.6239    1.3678 H   0  0  0  0  0  0  0  0  0  0  0  0
   -3.3608   -2.6749    0.8348 C   0  0  0  0  0  0  0  0  0  0  0  0
   -4.0988   -1.9909    1.2498 H   0  0  0  0  0  0  0  0  0  0  0  0
   -3.5618   -2.8419   -0.2222 H   0  0  0  0  0  0  0  0  0  0  0  0
   -1.9818   -2.0809    0.9918 C   0  0  0  0  0  0  0  0  0  0  0  0
   -1.1288   -2.6669    1.6468 O   0  0  0  0  0  0  0  0  0  0  0  0
   -1.7648   -0.9089    0.3998 N   0  0  0  0  0  0  0  0  0  0  0  0
   -2.5238   -0.4719   -0.1032 H   0  0  0  0  0  0  0  0  0  0  0  0
   -0.4848   -0.1959    0.4138 C   0  0  1  0  0  0  0  0  0  0  0  0
   -0.6770    0.8616    0.6021 H   0  0  0  0  0  0  0  0  0  0  0  0
    0.3757   -0.7430    1.5695 C   0  0  0  0  0  0  0  0  0  0  0  0
    0.4416   -1.8280    1.4646 H   0  0  0  0  0  0  0  0  0  0  0  0
    1.3827   -0.3308    1.4901 H   0  0  0  0  0  0  0  0  0  0  0  0
   -0.1836   -0.4240    2.9669 C   0  0  0  0  0  0  0  0  0  0  0  0
   -0.2427    0.6559    3.1009 H   0  0  0  0  0  0  0  0  0  0  0  0
   -1.1874   -0.8406    3.0497 H   0  0  0  0  0  0  0  0  0  0  0  0
    0.6687   -0.9945    4.1004 C   0  0  0  0  0  0  0  0  0  0  0  0
    1.6465   -1.6946    3.9152 O   0  0  0  0  0  0  0  0  0  0  0  0
    0.3340   -0.7088    5.3400 N   0  0  0  0  0  0  0  0  0  0  0  0
    0.9288   -1.1089    6.0446 H   0  0  0  0  0  0  0  0  0  0  0  0
   -0.4586   -0.1359    5.5482 H   0  0  0  0  0  0  0  0  0  0  0  0
    0.2157   -0.3181   -0.9483 C   0  0  0  0  0  0  0  0  0  0  0  0
   -0.4472   -0.4410   -1.9767 O   0  0  0  0  0  0  0  0  0  0  0  0
    1.5547   -0.2956   -0.9548 N   0  0  0  0  0  0  0  0  0  0  0  0
    2.0292   -0.1666   -0.0754 H   0  0  0  0  0  0  0  0  0  0  0  0
    2.3667   -0.4140   -2.1652 C   0  0  0  0  0  0  0  0  0  0  0  0
    2.0850    0.3681   -2.8745 H   0  0  0  0  0  0  0  0  0  0  0  0
    3.4262   -0.3150   -1.9241 H   0  0  0  0  0  0  0  0  0  0  0  0
    2.1909   -1.3839   -2.6336 H   0  0  0  0  0  0  0  0  0  0  0  0
  5  6  2  0  0  0  0
  5  7  1  0  0  0  0
  2  3  1  0  0  0  0
  2  4  1  0  0  0  0
  2  5  1  0  0  0  0
  1  2  1  0  0  0  0
 22 23  2  0  0  0  0
 22 24  1  0  0  0  0
 19 20  1  0  0  0  0
 19 21  1  0  0  0  0
 17 18  2  0  0  0  0
 17 19  1  0  0  0  0
 14 15  1  0  0  0  0
 14 16  1  0  0  0  0
 14 17  1  0  0  0  0
 11 12  1  0  0  0  0
 11 13  1  0  0  0  0
 11 14  1  0  0  0  0
  9 10  1  0  0  0  0
  9 11  1  0  0  0  0
  9 22  1  0  0  0  0
  7  8  1  0  0  0  0
  7  9  1  0  0  0  0
 26 27  1  0  0  0  0
 26 28  1  0  0  0  0
 26 29  1  0  0  0  0
 24 25  1  0  0  0  0
 24 26  1  0  0  0  0
M  END
$$$$
default_name
  -OEChem-01062215323D

 29 28  0     1  0  0  0  0  0999 V2000
   -3.3998   -3.6239    1.3678 H   0  0  0  0  0  0  0  0  0  0  0  0
   -3.3608   -2.6749    0.8348 C   0  0  0  0  0  0  0  0  0  0  0  0
   -4.0988   -1.9909    1.2498 H   0  0  0  0  0  0  0  0  0  0  0  0
   -3.5618   -2.8419   -0.2222 H   0  0  0  0  0  0  0  0  0  0  0  0
   -1.9818   -2.0809    0.9918 C   0  0  0  0  0  0  0  0  0  0  0  0
   -1.1288   -2.6669    1.6468 O   0  0  0  0  0  0  0  0  0  0  0  0
   -1.7648   -0.9089    0.3998 N   0  0  0  0  0  0  0  0  0  0  0  0
   -2.5238   -0.4719   -0.1032 H   0  0  0  0  0  0  0  0  0  0  0  0
   -0.4848   -0.1959    0.4138 C   0  0  1  0  0  0  0  0  0  0  0  0
   -0.6770    0.8616    0.6021 H   0  0  0  0  0  0  0  0  0  0  0  0
    0.3757   -0.7430    1.5695 C   0  0  0  0  0  0  0  0  0  0  0  0
    0.4416   -1.8280    1.4646 H   0  0  0  0  0  0  0  0  0  0  0  0
    1.3827   -0.3308    1.4901 H   0  0  0  0  0  0  0  0  0  0  0  0
   -0.1836   -0.4240    2.9669 C   0  0  0  0  0  0  0  0  0  0  0  0
   -0.2427    0.6559    3.1009 H   0  0  0  0  0  0  0  0  0  0  0  0
   -1.1874   -0.8406    3.0497 H   0  0  0  0  0  0  0  0  0  0  0  0
    0.6687   -0.9945    4.1004 C   0  0  0  0  0  0  0  0  0  0  0  0
    1.6465   -1.6946    3.9152 O   0  0  0  0  0  0  0  0  0  0  0  0
    0.3340   -0.7088    5.3400 N   0  0  0  0  0  0  0  0  0  0  0  0
    0.9288   -1.1089    6.0446 H   0  0  0  0  0  0  0  0  0  0  0  0
   -0.4586   -0.1359    5.5482 H   0  0  0  0  0  0  0  0  0  0  0  0
    0.2157   -0.3181   -0.9483 C   0  0  0  0  0  0  0  0  0  0  0  0
   -0.4220   -0.1650   -1.9885 O   0  0  0  0  0  0  0  0  0  0  0  0
    1.5239   -0.6044   -0.9430 N   0  0  0  0  0  0  0  0  0  0  0  0
    1.9848   -0.6910   -0.0512 H   0  0  0  0  0  0  0  0  0  0  0  0
    2.3286   -0.7663   -2.1532 C   0  0  0  0  0  0  0  0  0  0  0  0
    2.2574    0.1364   -2.7651 H   0  0  0  0  0  0  0  0  0  0  0  0
    3.3737   -0.9429   -1.8947 H   0  0  0  0  0  0  0  0  0  0  0  0
    1.9523   -1.6086   -2.7362 H   0  0  0  0  0  0  0  0  0  0  0  0
  5  6  2  0  0  0  0
  5  7  1  0  0  0  0
  2  3  1  0  0  0  0
  2  4  1  0  0  0  0
  2  5  1  0  0  0  0
  1  2  1  0  0  0  0
 22 23  2  0  0  0  0
 22 24  1  0  0  0  0
 19 20  1  0  0  0  0
 19 21  1  0  0  0  0
 17 18  2  0  0  0  0
 17 19  1  0  0  0  0
 14 15  1  0  0  0  0
 14 16  1  0  0  0  0
 14 17  1  0  0  0  0
 11 12  1  0  0  0  0
 11 13  1  0  0  0  0
 11 14  1  0  0  0  0
  9 10  1  0  0  0  0
  9 11  1  0  0  0  0
  9 22  1  0  0  0  0
  7  8  1  0  0  0  0
  7  9  1  0  0  0  0
 26 27  1  0  0  0  0
 26 28  1  0  0  0  0
 26 29  1  0  0  0  0
 24 25  1  0  0  0  0
 24 26  1  0  0  0  0
M  END
$$$$
default_name
  -OEChem-01062215323D

 29 28  0     1  0  0  0  0  0999 V2000
   -3.3998   -3.6239    1.3678 H   0  0  0  0  0  0  0  0  0  0  0  0
   -3.3608   -2.6749    0.8348 C   0  0  0  0  0  0  0  0  0  0  0  0
   -4.0988   -1.9909    1.2498 H   0  0  0  0  0  0  0  0  0  0  0  0
   -3.5618   -2.8419   -0.2222 H   0  0  0  0  0  0  0  0  0  0  0  0
   -1.9818   -2.0809    0.9918 C   0  0  0  0  0  0  0  0  0  0  0  0
   -1.1288   -2.6669    1.6468 O   0  0  0  0  0  0  0  0  0  0  0  0
   -1.7648   -0.9089    0.3998 N   0  0  0  0  0  0  0  0  0  0  0  0
   -2.5238   -0.4719   -0.1032 H   0  0  0  0  0  0  0  0  0  0  0  0
   -0.4848   -0.1959    0.4138 C   0  0  1  0  0  0  0  0  0  0  0  0
   -0.6770    0.8616    0.6021 H   0  0  0  0  0  0  0  0  0  0  0  0
    0.3757   -0.7430    1.5695 C   0  0  0  0  0  0  0  0  0  0  0  0
    0.4416   -1.8280    1.4646 H   0  0  0  0  0  0  0  0  0  0  0  0
    1.3827   -0.3308    1.4901 H   0  0  0  0  0  0  0  0  0  0  0  0
   -0.1836   -0.4240    2.9669 C   0  0  0  0  0  0  0  0  0  0  0  0
   -0.2427    0.6559    3.1009 H   0  0  0  0  0  0  0  0  0  0  0  0
   -1.1874   -0.8406    3.0497 H   0  0  0  0  0  0  0  0  0  0  0  0
    0.6687   -0.9945    4.1004 C   0  0  0  0  0  0  0  0  0  0  0  0
    1.6465   -1.6946    3.9152 O   0  0  0  0  0  0  0  0  0  0  0  0
    0.3340   -0.7088    5.3400 N   0  0  0  0  0  0  0  0  0  0  0  0
    0.9288   -1.1089    6.0446 H   0  0  0  0  0  0  0  0  0  0  0  0
   -0.4586   -0.1359    5.5482 H   0  0  0  0  0  0  0  0  0  0  0  0
    0.2157   -0.3181   -0.9483 C   0  0  0  0  0  0  0  0  0  0  0  0
   -0.3341    0.0971   -1.9668 O   0  0  0  0  0  0  0  0  0  0  0  0
    1.4231   -0.8971   -0.9685 N   0  0  0  0  0  0  0  0  0  0  0  0
    1.8212   -1.1901   -0.0906 H   0  0  0  0  0  0  0  0  0  0  0  0
    2.2107   -1.0992   -2.1840 C   0  0  0  0  0  0  0  0  0  0  0  0
    2.3684   -0.1400   -2.6832 H   0  0  0  0  0  0  0  0  0  0  0  0
    3.1784   -1.5408   -1.9415 H   0  0  0  0  0  0  0  0  0  0  0  0
    1.6723   -1.7588   -2.8666 H   0  0  0  0  0  0  0  0  0  0  0  0
  5  6  2  0  0  0  0
  5  7  1  0  0  0  0
  2  3  1  0  0  0  0
  2  4  1  0  0  0  0
  2  5  1  0  0  0  0
  1  2  1  0  0  0  0
 22 23  2  0  0  0  0
 22 24  1  0  0  0  0
 19 20  1  0  0  0  0
 19 21  1  0  0  0  0
 17 18  2  0  0  0  0
 17 19  1  0  0  0  0
 14 15  1  0  0  0  0
 14 16  1  0  0  0  0
 14 17  1  0  0  0  0
 11 12  1  0  0  0  0
 11 13  1  0  0  0  0
 11 14  1  0  0  0  0
  9 10  1  0  0  0  0
  9 11  1  0  0  0  0
  9 22  1  0  0  0  0
  7  8  1  0  0  0  0
  7  9  1  0  0  0  0
 26 27  1  0  0  0  0
 26 28  1  0  0  0  0
 26 29  1  0  0  0  0
 24 25  1  0  0  0  0
 24 26  1  0  0  0  0
M  END
$$$$
default_name
  -OEChem-01062215323D

 29 28  0     1  0  0  0  0  0999 V2000
   -3.3998   -3.6239    1.3678 H   0  0  0  0  0  0  0  0  0  0  0  0
   -3.3608   -2.6749    0.8348 C   0  0  0  0  0  0  0  0  0  0  0  0
   -4.0988   -1.9909    1.2498 H   0  0  0  0  0  0  0  0  0  0  0  0
   -3.5618   -2.8419   -0.2222 H   0  0  0  0  0  0  0  0  0  0  0  0
   -1.9818   -2.0809    0.9918 C   0  0  0  0  0  0  0  0  0  0  0  0
   -1.1288   -2.6669    1.6468 O   0  0  0  0  0  0  0  0  0  0  0  0
   -1.7648   -0.9089    0.3998 N   0  0  0  0  0  0  0  0  0  0  0  0
   -2.5238   -0.4719   -0.1032 H   0  0  0  0  0  0  0  0  0  0  0  0
   -0.4848   -0.1959    0.4138 C   0  0  1  0  0  0  0  0  0  0  0  0
   -0.6770    0.8616    0.6021 H   0  0  0  0  0  0  0  0  0  0  0  0
    0.3757   -0.7430    1.5695 C   0  0  0  0  0  0  0  0  0  0  0  0
    0.4416   -1.8280    1.4646 H   0  0  0  0  0  0  0  0  0  0  0  0
    1.3827   -0.3308    1.4901 H   0  0  0  0  0  0  0  0  0  0  0  0
   -0.1836   -0.4240    2.9669 C   0  0  0  0  0  0  0  0  0  0  0  0
   -0.2427    0.6559    3.1009 H   0  0  0  0  0  0  0  0  0  0  0  0
   -1.1874   -0.8406    3.0497 H   0  0  0  0  0  0  0  0  0  0  0  0
    0.6687   -0.9945    4.1004 C   0  0  0  0  0  0  0  0  0  0  0  0
    1.6465   -1.6946    3.9152 O   0  0  0  0  0  0  0  0  0  0  0  0
    0.3340   -0.7088    5.3400 N   0  0  0  0  0  0  0  0  0  0  0  0
    0.9288   -1.1089    6.0446 H   0  0  0  0  0  0  0  0  0  0  0  0
   -0.4586   -0.1359    5.5482 H   0  0  0  0  0  0  0  0  0  0  0  0
    0.2157   -0.3181   -0.9483 C   0  0  0  0  0  0  0  0  0  0  0  0
   -0.1895    0.3276   -1.9131 O   0  0  0  0  0  0  0  0  0  0  0  0
    1.2591   -1.1537   -1.0299 N   0  0  0  0  0  0  0  0  0  0  0  0
    1.5494   -1.6301   -0.1909 H   0  0  0  0  0  0  0  0  0  0  0  0
    2.0210   -1.3901   -2.2554 C   0  0  0  0  0  0  0  0  0  0  0  0
    2.4105   -0.4421   -2.6344 H   0  0  0  0  0  0  0  0  0  0  0  0
    2.8536   -2.0681   -2.0612 H   0  0  0  0  0  0  0  0  0  0  0  0
    1.3701   -1.8243   -3.0162 H   0  0  0  0  0  0  0  0  0  0  0  0
  5  6  2  0  0  0  0
  5  7  1  0  0  0  0
  2  3  1  0  0  0  0
  2  4  1  0  0  0  0
  2  5  1  0  0  0  0
  1  2  1  0  0  0  0
 22 23  2  0  0  0  0
 22 24  1  0  0  0  0
 19 20  1  0  0  0  0
 19 21  1  0  0  0  0
 17 18  2  0  0  0  0
 17 19  1  0  0  0  0
 14 15  1  0  0  0  0
 14 16  1  0  0  0  0
 14 17  1  0  0  0  0
 11 12  1  0  0  0  0
 11 13  1  0  0  0  0
 11 14  1  0  0  0  0
  9 10  1  0  0  0  0
  9 11  1  0  0  0  0
  9 22  1  0  0  0  0
  7  8  1  0  0  0  0
  7  9  1  0  0  0  0
 26 27  1  0  0  0  0
 26 28  1  0  0  0  0
 26 29  1  0  0  0  0
 24 25  1  0  0  0  0
 24 26  1  0  0  0  0
M  END
$$$$
default_name
  -OEChem-01062215323D

 29 28  0     1  0  0  0  0  0999 V2000
   -3.3998   -3.6239    1.3678 H   0  0  0  0  0  0  0  0  0  0  0  0
   -3.3608   -2.6749    0.8348 C   0  0  0  0  0  0  0  0  0  0  0  0
   -4.0988   -1.9909    1.2498 H   0  0  0  0  0  0  0  0  0  0  0  0
   -3.5618   -2.8419   -0.2222 H   0  0  0  0  0  0  0  0  0  0  0  0
   -1.9818   -2.0809    0.9918 C   0  0  0  0  0  0  0  0  0  0  0  0
   -1.1288   -2.6669    1.6468 O   0  0  0  0  0  0  0  0  0  0  0  0
   -1.7648   -0.9089    0.3998 N   0  0  0  0  0  0  0  0  0  0  0  0
   -2.5238   -0.4719   -0.1032 H   0  0  0  0  0  0  0  0  0  0  0  0
   -0.4848   -0.1959    0.4138 C   0  0  1  0  0  0  0  0  0  0  0  0
   -0.6770    0.8616    0.6021 H   0  0  0  0  0  0  0  0  0  0  0  0
    0.3757   -0.7430    1.5695 C   0  0  0  0  0  0  0  0  0  0  0  0
    0.4416   -1.8280    1.4646 H   0  0  0  0  0  0  0  0  0  0  0  0
    1.3827   -0.3308    1.4901 H   0  0  0  0  0  0  0  0  0  0  0  0
   -0.1836   -0.4240    2.9669 C   0  0  0  0  0  0  0  0  0  0  0  0
   -0.2427    0.6559    3.1009 H   0  0  0  0  0  0  0  0  0  0  0  0
   -1.1874   -0.8406    3.0497 H   0  0  0  0  0  0  0  0  0  0  0  0
    0.6687   -0.9945    4.1004 C   0  0  0  0  0  0  0  0  0  0  0  0
    1.6465   -1.6946    3.9152 O   0  0  0  0  0  0  0  0  0  0  0  0
    0.3340   -0.7088    5.3400 N   0  0  0  0  0  0  0  0  0  0  0  0
    0.9288   -1.1089    6.0446 H   0  0  0  0  0  0  0  0  0  0  0  0
   -0.4586   -0.1359    5.5482 H   0  0  0  0  0  0  0  0  0  0  0  0
    0.2157   -0.3181   -0.9483 C   0  0  0  0  0  0  0  0  0  0  0  0
    0.0020    0.5107   -1.8311 O   0  0  0  0  0  0  0  0  0  0  0  0
    1.0430   -1.3567   -1.1228 N   0  0  0  0  0  0  0  0  0  0  0  0
    1.1880   -1.9808   -0.3453 H   0  0  0  0  0  0  0  0  0  0  0  0
    1.7726   -1.6192   -2.3626 C   0  0  0  0  0  0  0  0  0  0  0  0
    2.3809   -0.7493   -2.6221 H   0  0  0  0  0  0  0  0  0  0  0  0
    2.4213   -2.4887   -2.2458 H   0  0  0  0  0  0  0  0  0  0  0  0
    1.0663   -1.8006   -3.1745 H   0  0  0  0  0  0  0  0  0  0  0  0
  5  6  2  0  0  0  0
  5  7  1  0  0  0  0
  2  3  1  0  0  0  0
  2  4  1  0  0  0  0
  2  5  1  0  0  0  0
  1  2  1  0  0  0  0
 22 23  2  0  0  0  0
 22 24  1  0  0  0  0
 19 20  1  0  0  0  0
 19 21  1  0  0  0  0
 17 18  2  0  0  0  0
 17 19  1  0  0  0  0
 14 15  1  0  0  0  0
 14 16  1  0  0  0  0
 14 17  1  0  0  0  0
 11 12  1  0  0  0  0
 11 13  1  0  0  0  0
 11 14  1  0  0  0  0
  9 10  1  0  0  0  0
  9 11  1  0  0  0  0
  9 22  1  0  0  0  0
  7  8  1  0  0  0  0
  7  9  1  0  0  0  0
 26 27  1  0  0  0  0
 26 28  1  0  0  0  0
 26 29  1  0  0  0  0
 24 25  1  0  0  0  0
 24 26  1  0  0  0  0
M  END
$$$$
default_name
  -OEChem-01062215323D

 29 28  0     1  0  0  0  0  0999 V2000
   -3.3998   -3.6239    1.3678 H   0  0  0  0  0  0  0  0  0  0  0  0
   -3.3608   -2.6749    0.8348 C   0  0  0  0  0  0  0  0  0  0  0  0
   -4.0988   -1.9909    1.2498 H   0  0  0  0  0  0  0  0  0  0  0  0
   -3.5618   -2.8419   -0.2222 H   0  0  0  0  0  0  0  0  0  0  0  0
   -1.9818   -2.0809    0.9918 C   0  0  0  0  0  0  0  0  0  0  0  0
   -1.1288   -2.6669    1.6468 O   0  0  0  0  0  0  0  0  0  0  0  0
   -1.7648   -0.9089    0.3998 N   0  0  0  0  0  0  0  0  0  0  0  0
   -2.5238   -0.4719   -0.1032 H   0  0  0  0  0  0  0  0  0  0  0  0
   -0.4848   -0.1959    0.4138 C   0  0  1  0  0  0  0  0  0  0  0  0
   -0.6770    0.8616    0.6021 H   0  0  0  0  0  0  0  0  0  0  0  0
    0.3757   -0.7430    1.5695 C   0  0  0  0  0  0  0  0  0  0  0  0
    0.4416   -1.8280    1.4646 H   0  0  0  0  0  0  0  0  0  0  0  0
    1.3827   -0.3308    1.4901 H   0  0  0  0  0  0  0  0  0  0  0  0
   -0.1836   -0.4240    2.9669 C   0  0  0  0  0  0  0  0  0  0  0  0
   -0.2427    0.6559    3.1009 H   0  0  0  0  0  0  0  0  0  0  0  0
   -1.1874   -0.8406    3.0497 H   0  0  0  0  0  0  0  0  0  0  0  0
    0.6687   -0.9945    4.1004 C   0  0  0  0  0  0  0  0  0  0  0  0
    1.6465   -1.6946    3.9152 O   0  0  0  0  0  0  0  0  0  0  0  0
    0.3340   -0.7088    5.3400 N   0  0  0  0  0  0  0  0  0  0  0  0
    0.9288   -1.1089    6.0446 H   0  0  0  0  0  0  0  0  0  0  0  0
   -0.4586   -0.1359    5.5482 H   0  0  0  0  0  0  0  0  0  0  0  0
    0.2157   -0.3181   -0.9483 C   0  0  0  0  0  0  0  0  0  0  0  0
    0.2272    0.6340   -1.7263 O   0  0  0  0  0  0  0  0  0  0  0  0
    0.7897   -1.4922   -1.2409 N   0  0  0  0  0  0  0  0  0  0  0  0
    0.7616   -2.2185   -0.5432 H   0  0  0  0  0  0  0  0  0  0  0  0
    1.4822   -1.7708   -2.4983 C   0  0  0  0  0  0  0  0  0  0  0  0
    2.2816   -1.0407   -2.6470 H   0  0  0  0  0  0  0  0  0  0  0  0
    1.9110   -2.7740   -2.4826 H   0  0  0  0  0  0  0  0  0  0  0  0
    0.7815   -1.6893   -3.3310 H   0  0  0  0  0  0  0  0  0  0  0  0
  5  6  2  0  0  0  0
  5  7  1  0  0  0  0
  2  3  1  0  0  0  0
  2  4  1  0  0  0  0
  2  5  1  0  0  0  0
  1  2  1  0  0  0  0
 22 23  2  0  0  0  0
 22 24  1  0  0  0  0
 19 20  1  0  0  0  0
 19 21  1  0  0  0  0
 17 18  2  0  0  0  0
 17 19  1  0  0  0  0
 14 15  1  0  0  0  0
 14 16  1  0  0  0  0
 14 17  1  0  0  0  0
 11 12  1  0  0  0  0
 11 13  1  0  0  0  0
 11 14  1  0  0  0  0
  9 10  1  0  0  0  0
  9 11  1  0  0  0  0
  9 22  1  0  0  0  0
  7  8  1  0  0  0  0
  7  9  1  0  0  0  0
 26 27  1  0  0  0  0
 26 28  1  0  0  0  0
 26 29  1  0  0  0  0
 24 25  1  0  0  0  0
 24 26  1  0  0  0  0
M  END
$$$$
default_name
  -OEChem-01062215323D

 29 28  0     1  0  0  0  0  0999 V2000
   -3.3998   -3.6239    1.3678 H   0  0  0  0  0  0  0  0  0  0  0  0
   -3.3608   -2.6749    0.8348 C   0  0  0  0  0  0  0  0  0  0  0  0
   -4.0988   -1.9909    1.2498 H   0  0  0  0  0  0  0  0  0  0  0  0
   -3.5618   -2.8419   -0.2222 H   0  0  0  0  0  0  0  0  0  0  0  0
   -1.9818   -2.0809    0.9918 C   0  0  0  0  0  0  0  0  0  0  0  0
   -1.1288   -2.6669    1.6468 O   0  0  0  0  0  0  0  0  0  0  0  0
   -1.7648   -0.9089    0.3998 N   0  0  0  0  0  0  0  0  0  0  0  0
   -2.5238   -0.4719   -0.1032 H   0  0  0  0  0  0  0  0  0  0  0  0
   -0.4848   -0.1959    0.4138 C   0  0  1  0  0  0  0  0  0  0  0  0
   -0.6770    0.8616    0.6021 H   0  0  0  0  0  0  0  0  0  0  0  0
    0.3757   -0.7430    1.5695 C   0  0  0  0  0  0  0  0  0  0  0  0
    0.4416   -1.8280    1.4646 H   0  0  0  0  0  0  0  0  0  0  0  0
    1.3827   -0.3308    1.4901 H   0  0  0  0  0  0  0  0  0  0  0  0
   -0.1836   -0.4240    2.9669 C   0  0  0  0  0  0  0  0  0  0  0  0
   -0.2427    0.6559    3.1009 H   0  0  0  0  0  0  0  0  0  0  0  0
   -1.1874   -0.8406    3.0497 H   0  0  0  0  0  0  0  0  0  0  0  0
    0.6687   -0.9945    4.1004 C   0  0  0  0  0  0  0  0  0  0  0  0
    1.6465   -1.6946    3.9152 O   0  0  0  0  0  0  0  0  0  0  0  0
    0.3340   -0.7088    5.3400 N   0  0  0  0  0  0  0  0  0  0  0  0
    0.9288   -1.1089    6.0446 H   0  0  0  0  0  0  0  0  0  0  0  0
   -0.4586   -0.1359    5.5482 H   0  0  0  0  0  0  0  0  0  0  0  0
    0.2157   -0.3181   -0.9483 C   0  0  0  0  0  0  0  0  0  0  0  0
    0.4709    0.6891   -1.6059 O   0  0  0  0  0  0  0  0  0  0  0  0
    0.5163   -1.5510   -1.3762 N   0  0  0  0  0  0  0  0  0  0  0  0
    0.2992   -2.3269   -0.7712 H   0  0  0  0  0  0  0  0  0  0  0  0
    1.1698   -1.8346   -2.6533 C   0  0  0  0  0  0  0  0  0  0  0  0
    2.1193   -1.2964   -2.7075 H   0  0  0  0  0  0  0  0  0  0  0  0
    1.3575   -2.9045   -2.7556 H   0  0  0  0  0  0  0  0  0  0  0  0
    0.5352   -1.4980   -3.4748 H   0  0  0  0  0  0  0  0  0  0  0  0
  5  6  2  0  0  0  0
  5  7  1  0  0  0  0
  2  3  1  0  0  0  0
  2  4  1  0  0  0  0
  2  5  1  0  0  0  0
  1  2  1  0  0  0  0
 22 23  2  0  0  0  0
 22 24  1  0  0  0  0
 19 20  1  0  0  0  0
 19 21  1  0  0  0  0
 17 18  2  0  0  0  0
 17 19  1  0  0  0  0
 14 15  1  0  0  0  0
 14 16  1  0  0  0  0
 14 17  1  0  0  0  0
 11 12  1  0  0  0  0
 11 13  1  0  0  0  0
 11 14  1  0  0  0  0
  9 10  1  0  0  0  0
  9 11  1  0  0  0  0
  9 22  1  0  0  0  0
  7  8  1  0  0  0  0
  7  9  1  0  0  0  0
 26 27  1  0  0  0  0
 26 28  1  0  0  0  0
 26 29  1  0  0  0  0
 24 25  1  0  0  0  0
 24 26  1  0  0  0  0
M  END
$$$$
default_name
  -OEChem-01062215323D

 29 28  0     1  0  0  0  0  0999 V2000
   -3.3998   -3.6239    1.3678 H   0  0  0  0  0  0  0  0  0  0  0  0
   -3.3608   -2.6749    0.8348 C   0  0  0  0  0  0  0  0  0  0  0  0
   -4.0988   -1.9909    1.2498 H   0  0  0  0  0  0  0  0  0  0  0  0
   -3.5618   -2.8419   -0.2222 H   0  0  0  0  0  0  0  0  0  0  0  0
   -1.9818   -2.0809    0.9918 C   0  0  0  0  0  0  0  0  0  0  0  0
   -1.1288   -2.6669    1.6468 O   0  0  0  0  0  0  0  0  0  0  0  0
   -1.7648   -0.9089    0.3998 N   0  0  0  0  0  0  0  0  0  0  0  0
   -2.5238   -0.4719   -0.1032 H   0  0  0  0  0  0  0  0  0  0  0  0
   -0.4848   -0.1959    0.4138 C   0  0  1  0  0  0  0  0  0  0  0  0
   -0.6770    0.8616    0.6021 H   0  0  0  0  0  0  0  0  0  0  0  0
    0.3757   -0.7430    1.5695 C   0  0  0  0  0  0  0  0  0  0  0  0
    0.4416   -1.8280    1.4646 H   0  0  0  0  0  0  0  0  0  0  0  0
    1.3827   -0.3308    1.4901 H   0  0  0  0  0  0  0  0  0  0  0  0
   -0.1836   -0.4240    2.9669 C   0  0  0  0  0  0  0  0  0  0  0  0
   -0.2427    0.6559    3.1009 H   0  0  0  0  0  0  0  0  0  0  0  0
   -1.1874   -0.8406    3.0497 H   0  0  0  0  0  0  0  0  0  0  0  0
    0.6687   -0.9945    4.1004 C   0  0  0  0  0  0  0  0  0  0  0  0
    1.6465   -1.6946    3.9152 O   0  0  0  0  0  0  0  0  0  0  0  0
    0.3340   -0.7088    5.3400 N   0  0  0  0  0  0  0  0  0  0  0  0
    0.9288   -1.1089    6.0446 H   0  0  0  0  0  0  0  0  0  0  0  0
   -0.4586   -0.1359    5.5482 H   0  0  0  0  0  0  0  0  0  0  0  0
    0.2157   -0.3181   -0.9483 C   0  0  0  0  0  0  0  0  0  0  0  0
    0.7165    0.6721   -1.4781 O   0  0  0  0  0  0  0  0  0  0  0  0
    0.2416   -1.5292   -1.5194 N   0  0  0  0  0  0  0  0  0  0  0  0
   -0.1675   -2.2986   -1.0138 H   0  0  0  0  0  0  0  0  0  0  0  0
    0.8566   -1.8063   -2.8169 C   0  0  0  0  0  0  0  0  0  0  0  0
    1.9051   -1.4990   -2.7995 H   0  0  0  0  0  0  0  0  0  0  0  0
    0.7986   -2.8714   -3.0460 H   0  0  0  0  0  0  0  0  0  0  0  0
    0.3441   -1.2397   -3.5962 H   0  0  0  0  0  0  0  0  0  0  0  0
  5  6  2  0  0  0  0
  5  7  1  0  0  0  0
  2  3  1  0  0  0  0
  2  4  1  0  0  0  0
  2  5  1  0  0  0  0
  1  2  1  0  0  0  0
 22 23  2  0  0  0  0
 22 24  1  0  0  0  0
 19 20  1  0  0  0  0
 19 21  1  0  0  0  0
 17 18  2  0  0  0  0
 17 19  1  0  0  0  0
 14 15  1  0  0  0  0
 14 16  1  0  0  0  0
 14 17  1  0  0  0  0
 11 12  1  0  0  0  0
 11 13  1  0  0  0  0
 11 14  1  0  0  0  0
  9 10  1  0  0  0  0
  9 11  1  0  0  0  0
  9 22  1  0  0  0  0
  7  8  1  0  0  0  0
  7  9  1  0  0  0  0
 26 27  1  0  0  0  0
 26 28  1  0  0  0  0
 26 29  1  0  0  0  0
 24 25  1  0  0  0  0
 24 26  1  0  0  0  0
M  END
$$$$
default_name
  -OEChem-01062215323D

 29 28  0     1  0  0  0  0  0999 V2000
   -3.3998   -3.6239    1.3678 H   0  0  0  0  0  0  0  0  0  0  0  0
   -3.3608   -2.6749    0.8348 C   0  0  0  0  0  0  0  0  0  0  0  0
   -4.0988   -1.9909    1.2498 H   0  0  0  0  0  0  0  0  0  0  0  0
   -3.5618   -2.8419   -0.2222 H   0  0  0  0  0  0  0  0  0  0  0  0
   -1.9818   -2.0809    0.9918 C   0  0  0  0  0  0  0  0  0  0  0  0
   -1.1288   -2.6669    1.6468 O   0  0  0  0  0  0  0  0  0  0  0  0
   -1.7648   -0.9089    0.3998 N   0  0  0  0  0  0  0  0  0  0  0  0
   -2.5238   -0.4719   -0.1032 H   0  0  0  0  0  0  0  0  0  0  0  0
   -0.4848   -0.1959    0.4138 C   0  0  1  0  0  0  0  0  0  0  0  0
   -0.6770    0.8616    0.6021 H   0  0  0  0  0  0  0  0  0  0  0  0
    0.3757   -0.7430    1.5695 C   0  0  0  0  0  0  0  0  0  0  0  0
    0.4416   -1.8280    1.4646 H   0  0  0  0  0  0  0  0  0  0  0  0
    1.3827   -0.3308    1.4901 H   0  0  0  0  0  0  0  0  0  0  0  0
   -0.1836   -0.4240    2.9669 C   0  0  0  0  0  0  0  0  0  0  0  0
   -0.2427    0.6559    3.1009 H   0  0  0  0  0  0  0  0  0  0  0  0
   -1.1874   -0.8406    3.0497 H   0  0  0  0  0  0  0  0  0  0  0  0
    0.6687   -0.9945    4.1004 C   0  0  0  0  0  0  0  0  0  0  0  0
    1.6465   -1.6946    3.9152 O   0  0  0  0  0  0  0  0  0  0  0  0
    0.3340   -0.7088    5.3400 N   0  0  0  0  0  0  0  0  0  0  0  0
    0.9288   -1.1089    6.0446 H   0  0  0  0  0  0  0  0  0  0  0  0
   -0.4586   -0.1359    5.5482 H   0  0  0  0  0  0  0  0  0  0  0  0
    0.2157   -0.3181   -0.9483 C   0  0  0  0  0  0  0  0  0  0  0  0
    0.9471    0.5843   -1.3517 O   0  0  0  0  0  0  0  0  0  0  0  0
   -0.0159   -1.4281   -1.6609 N   0  0  0  0  0  0  0  0  0  0  0  0
   -0.6069   -2.1356   -1.2544 H   0  0  0  0  0  0  0  0  0  0  0  0
    0.5639   -1.6877   -2.9780 C   0  0  0  0  0  0  0  0  0  0  0  0
    1.6536   -1.6348   -2.9167 H   0  0  0  0  0  0  0  0  0  0  0  0
    0.2722   -2.6770   -3.3341 H   0  0  0  0  0  0  0  0  0  0  0  0
    0.2213   -0.9321   -3.6870 H   0  0  0  0  0  0  0  0  0  0  0  0
  5  6  2  0  0  0  0
  5  7  1  0  0  0  0
  2  3  1  0  0  0  0
  2  4  1  0  0  0  0
  2  5  1  0  0  0  0
  1  2  1  0  0  0  0
 22 23  2  0  0  0  0
 22 24  1  0  0  0  0
 19 20  1  0  0  0  0
 19 21  1  0  0  0  0
 17 18  2  0  0  0  0
 17 19  1  0  0  0  0
 14 15  1  0  0  0  0
 14 16  1  0  0  0  0
 14 17  1  0  0  0  0
 11 12  1  0  0  0  0
 11 13  1  0  0  0  0
 11 14  1  0  0  0  0
  9 10  1  0  0  0  0
  9 11  1  0  0  0  0
  9 22  1  0  0  0  0
  7  8  1  0  0  0  0
  7  9  1  0  0  0  0
 26 27  1  0  0  0  0
 26 28  1  0  0  0  0
 26 29  1  0  0  0  0
 24 25  1  0  0  0  0
 24 26  1  0  0  0  0
M  END
$$$$
default_name
  -OEChem-01062215323D

 29 28  0     1  0  0  0  0  0999 V2000
   -3.3998   -3.6239    1.3678 H   0  0  0  0  0  0  0  0  0  0  0  0
   -3.3608   -2.6749    0.8348 C   0  0  0  0  0  0  0  0  0  0  0  0
   -4.0988   -1.9909    1.2498 H   0  0  0  0  0  0  0  0  0  0  0  0
   -3.5618   -2.8419   -0.2222 H   0  0  0  0  0  0  0  0  0  0  0  0
   -1.9818   -2.0809    0.9918 C   0  0  0  0  0  0  0  0  0  0  0  0
   -1.1288   -2.6669    1.6468 O   0  0  0  0  0  0  0  0  0  0  0  0
   -1.7648   -0.9089    0.3998 N   0  0  0  0  0  0  0  0  0  0  0  0
   -2.5238   -0.4719   -0.1032 H   0  0  0  0  0  0  0  0  0  0  0  0
   -0.4848   -0.1959    0.4138 C   0  0  1  0  0  0  0  0  0  0  0  0
   -0.6770    0.8616    0.6021 H   0  0  0  0  0  0  0  0  0  0  0  0
    0.3757   -0.7430    1.5695 C   0  0  0  0  0  0  0  0  0  0  0  0
    0.4416   -1.8280    1.4646 H   0  0  0  0  0  0  0  0  0  0  0  0
    1.3827   -0.3308    1.4901 H   0  0  0  0  0  0  0  0  0  0  0  0
   -0.1836   -0.4240    2.9669 C   0  0  0  0  0  0  0  0  0  0  0  0
   -0.2427    0.6559    3.1009 H   0  0  0  0  0  0  0  0  0  0  0  0
   -1.1874   -0.8406    3.0497 H   0  0  0  0  0  0  0  0  0  0  0  0
    0.6687   -0.9945    4.1004 C   0  0  0  0  0  0  0  0  0  0  0  0
    1.6465   -1.6946    3.9152 O   0  0  0  0  0  0  0  0  0  0  0  0
    0.3340   -0.7088    5.3400 N   0  0  0  0  0  0  0  0  0  0  0  0
    0.9288   -1.1089    6.0446 H   0  0  0  0  0  0  0  0  0  0  0  0
   -0.4586   -0.1359    5.5482 H   0  0  0  0  0  0  0  0  0  0  0  0
    0.2157   -0.3181   -0.9483 C   0  0  0  0  0  0  0  0  0  0  0  0
    1.1472    0.4316   -1.2351 O   0  0  0  0  0  0  0  0  0  0  0  0
   -0.2384   -1.2547   -1.7909 N   0  0  0  0  0  0  0  0  0  0  0  0
   -0.9889   -1.8490   -1.4766 H   0  0  0  0  0  0  0  0  0  0  0  0
    0.3116   -1.4871   -3.1257 C   0  0  0  0  0  0  0  0  0  0  0  0
    1.3820   -1.6944   -3.0510 H   0  0  0  0  0  0  0  0  0  0  0  0
   -0.1856   -2.3344   -3.6003 H   0  0  0  0  0  0  0  0  0  0  0  0
    0.1752   -0.5960   -3.7409 H   0  0  0  0  0  0  0  0  0  0  0  0
  5  6  2  0  0  0  0
  5  7  1  0  0  0  0
  2  3  1  0  0  0  0
  2  4  1  0  0  0  0
  2  5  1  0  0  0  0
  1  2  1  0  0  0  0
 22 23  2  0  0  0  0
 22 24  1  0  0  0  0
 19 20  1  0  0  0  0
 19 21  1  0  0  0  0
 17 18  2  0  0  0  0
 17 19  1  0  0  0  0
 14 15  1  0  0  0  0
 14 16  1  0  0  0  0
 14 17  1  0  0  0  0
 11 12  1  0  0  0  0
 11 13  1  0  0  0  0
 11 14  1  0  0  0  0
  9 10  1  0  0  0  0
  9 11  1  0  0  0  0
  9 22  1  0  0  0  0
  7  8  1  0  0  0  0
  7  9  1  0  0  0  0
 26 27  1  0  0  0  0
 26 28  1  0  0  0  0
 26 29  1  0  0  0  0
 24 25  1  0  0  0  0
 24 26  1  0  0  0  0
M  END
$$$$
default_name
  -OEChem-01062215323D

 29 28  0     1  0  0  0  0  0999 V2000
   -3.3998   -3.6239    1.3678 H   0  0  0  0  0  0  0  0  0  0  0  0
   -3.3608   -2.6749    0.8348 C   0  0  0  0  0  0  0  0  0  0  0  0
   -4.0988   -1.9909    1.2498 H   0  0  0  0  0  0  0  0  0  0  0  0
   -3.5618   -2.8419   -0.2222 H   0  0  0  0  0  0  0  0  0  0  0  0
   -1.9818   -2.0809    0.9918 C   0  0  0  0  0  0  0  0  0  0  0  0
   -1.1288   -2.6669    1.6468 O   0  0  0  0  0  0  0  0  0  0  0  0
   -1.7648   -0.9089    0.3998 N   0  0  0  0  0  0  0  0  0  0  0  0
   -2.5238   -0.4719   -0.1032 H   0  0  0  0  0  0  0  0  0  0  0  0
   -0.4848   -0.1959    0.4138 C   0  0  1  0  0  0  0  0  0  0  0  0
   -0.6770    0.8616    0.6021 H   0  0  0  0  0  0  0  0  0  0  0  0
    0.3757   -0.7430    1.5695 C   0  0  0  0  0  0  0  0  0  0  0  0
    0.4416   -1.8280    1.4646 H   0  0  0  0  0  0  0  0  0  0  0  0
    1.3827   -0.3308    1.4901 H   0  0  0  0  0  0  0  0  0  0  0  0
   -0.1836   -0.4240    2.9669 C   0  0  0  0  0  0  0  0  0  0  0  0
   -0.2427    0.6559    3.1009 H   0  0  0  0  0  0  0  0  0  0  0  0
   -1.1874   -0.8406    3.0497 H   0  0  0  0  0  0  0  0  0  0  0  0
    0.6687   -0.9945    4.1004 C   0  0  0  0  0  0  0  0  0  0  0  0
    1.6465   -1.6946    3.9152 O   0  0  0  0  0  0  0  0  0  0  0  0
    0.3340   -0.7088    5.3400 N   0  0  0  0  0  0  0  0  0  0  0  0
    0.9288   -1.1089    6.0446 H   0  0  0  0  0  0  0  0  0  0  0  0
   -0.4586   -0.1359    5.5482 H   0  0  0  0  0  0  0  0  0  0  0  0
    0.2157   -0.3181   -0.9483 C   0  0  0  0  0  0  0  0  0  0  0  0
    1.3030    0.2245   -1.1364 O   0  0  0  0  0  0  0  0  0  0  0  0
   -0.4110   -1.0209   -1.9006 N   0  0  0  0  0  0  0  0  0  0  0  0
   -1.2876   -1.4582   -1.6652 H   0  0  0  0  0  0  0  0  0  0  0  0
    0.1171   -1.2179   -3.2499 C   0  0  0  0  0  0  0  0  0  0  0  0
    1.1087   -1.6738   -3.1934 H   0  0  0  0  0  0  0  0  0  0  0  0
   -0.5438   -1.8670   -3.8264 H   0  0  0  0  0  0  0  0  0  0  0  0
    0.2088   -0.2545   -3.7542 H   0  0  0  0  0  0  0  0  0  0  0  0
  5  6  2  0  0  0  0
  5  7  1  0  0  0  0
  2  3  1  0  0  0  0
  2  4  1  0  0  0  0
  2  5  1  0  0  0  0
  1  2  1  0  0  0  0
 22 23  2  0  0  0  0
 22 24  1  0  0  0  0
 19 20  1  0  0  0  0
 19 21  1  0  0  0  0
 17 18  2  0  0  0  0
 17 19  1  0  0  0  0
 14 15  1  0  0  0  0
 14 16  1  0  0  0  0
 14 17  1  0  0  0  0
 11 12  1  0  0  0  0
 11 13  1  0  0  0  0
 11 14  1  0  0  0  0
  9 10  1  0  0  0  0
  9 11  1  0  0  0  0
  9 22  1  0  0  0  0
  7  8  1  0  0  0  0
  7  9  1  0  0  0  0
 26 27  1  0  0  0  0
 26 28  1  0  0  0  0
 26 29  1  0  0  0  0
 24 25  1  0  0  0  0
 24 26  1  0  0  0  0
M  END
$$$$
default_name
  -OEChem-01062215323D

 29 28  0     1  0  0  0  0  0999 V2000
   -3.3998   -3.6239    1.3678 H   0  0  0  0  0  0  0  0  0  0  0  0
   -3.3608   -2.6749    0.8348 C   0  0  0  0  0  0  0  0  0  0  0  0
   -4.0988   -1.9909    1.2498 H   0  0  0  0  0  0  0  0  0  0  0  0
   -3.5618   -2.8419   -0.2222 H   0  0  0  0  0  0  0  0  0  0  0  0
   -1.9818   -2.0809    0.9918 C   0  0  0  0  0  0  0  0  0  0  0  0
   -1.1288   -2.6669    1.6468 O   0  0  0  0  0  0  0  0  0  0  0  0
   -1.7648   -0.9089    0.3998 N   0  0  0  0  0  0  0  0  0  0  0  0
   -2.5238   -0.4719   -0.1032 H   0  0  0  0  0  0  0  0  0  0  0  0
   -0.4848   -0.1959    0.4138 C   0  0  1  0  0  0  0  0  0  0  0  0
   -0.6770    0.8616    0.6021 H   0  0  0  0  0  0  0  0  0  0  0  0
    0.3757   -0.7430    1.5695 C   0  0  0  0  0  0  0  0  0  0  0  0
    0.4416   -1.8280    1.4646 H   0  0  0  0  0  0  0  0  0  0  0  0
    1.3827   -0.3308    1.4901 H   0  0  0  0  0  0  0  0  0  0  0  0
   -0.1836   -0.4240    2.9669 C   0  0  0  0  0  0  0  0  0  0  0  0
   -0.2427    0.6559    3.1009 H   0  0  0  0  0  0  0  0  0  0  0  0
   -1.1874   -0.8406    3.0497 H   0  0  0  0  0  0  0  0  0  0  0  0
    0.6687   -0.9945    4.1004 C   0  0  0  0  0  0  0  0  0  0  0  0
    1.6465   -1.6946    3.9152 O   0  0  0  0  0  0  0  0  0  0  0  0
    0.3340   -0.7088    5.3400 N   0  0  0  0  0  0  0  0  0  0  0  0
    0.9288   -1.1089    6.0446 H   0  0  0  0  0  0  0  0  0  0  0  0
   -0.4586   -0.1359    5.5482 H   0  0  0  0  0  0  0  0  0  0  0  0
    0.2157   -0.3181   -0.9483 C   0  0  0  0  0  0  0  0  0  0  0  0
    1.4039   -0.0229   -1.0623 O   0  0  0  0  0  0  0  0  0  0  0  0
   -0.5217   -0.7425   -1.9825 N   0  0  0  0  0  0  0  0  0  0  0  0
   -1.4825   -0.9900   -1.8075 H   0  0  0  0  0  0  0  0  0  0  0  0
   -0.0065   -0.8987   -3.3421 C   0  0  0  0  0  0  0  0  0  0  0  0
    0.8523   -1.5744   -3.3342 H   0  0  0  0  0  0  0  0  0  0  0  0
   -0.7779   -1.3067   -3.9970 H   0  0  0  0  0  0  0  0  0  0  0  0
    0.3199    0.0693   -3.7261 H   0  0  0  0  0  0  0  0  0  0  0  0
  5  6  2  0  0  0  0
  5  7  1  0  0  0  0
  2  3  1  0  0  0  0
  2  4  1  0  0  0  0
  2  5  1  0  0  0  0
  1  2  1  0  0  0  0
 22 23  2  0  0  0  0
 22 24  1  0  0  0  0
 19 20  1  0  0  0  0
 19 21  1  0  0  0  0
 17 18  2  0  0  0  0
 17 19  1  0  0  0  0
 14 15  1  0  0  0  0
 14 16  1  0  0  0  0
 14 17  1  0  0  0  0
 11 12  1  0  0  0  0
 11 13  1  0  0  0  0
 11 14  1  0  0  0  0
  9 10  1  0  0  0  0
  9 11  1  0  0  0  0
  9 22  1  0  0  0  0
  7  8  1  0  0  0  0
  7  9  1  0  0  0  0
 26 27  1  0  0  0  0
 26 28  1  0  0  0  0
 26 29  1  0  0  0  0
 24 25  1  0  0  0  0
 24 26  1  0  0  0  0
M  END
$$$$
default_name
  -OEChem-01062215323D

 29 28  0     1  0  0  0  0  0999 V2000
   -3.3998   -3.6239    1.3678 H   0  0  0  0  0  0  0  0  0  0  0  0
   -3.3608   -2.6749    0.8348 C   0  0  0  0  0  0  0  0  0  0  0  0
   -4.0988   -1.9909    1.2498 H   0  0  0  0  0  0  0  0  0  0  0  0
   -3.5618   -2.8419   -0.2222 H   0  0  0  0  0  0  0  0  0  0  0  0
   -1.9818   -2.0809    0.9918 C   0  0  0  0  0  0  0  0  0  0  0  0
   -1.1288   -2.6669    1.6468 O   0  0  0  0  0  0  0  0  0  0  0  0
   -1.7648   -0.9089    0.3998 N   0  0  0  0  0  0  0  0  0  0  0  0
   -2.5238   -0.4719   -0.1032 H   0  0  0  0  0  0  0  0  0  0  0  0
   -0.4848   -0.1959    0.4138 C   0  0  1  0  0  0  0  0  0  0  0  0
   -0.6770    0.8616    0.6021 H   0  0  0  0  0  0  0  0  0  0  0  0
    0.3757   -0.7430    1.5695 C   0  0  0  0  0  0  0  0  0  0  0  0
    0.4416   -1.8280    1.4646 H   0  0  0  0  0  0  0  0  0  0  0  0
    1.3827   -0.3308    1.4901 H   0  0  0  0  0  0  0  0  0  0  0  0
   -0.1836   -0.4240    2.9669 C   0  0  0  0  0  0  0  0  0  0  0  0
   -0.2427    0.6559    3.1009 H   0  0  0  0  0  0  0  0  0  0  0  0
   -1.1874   -0.8406    3.0497 H   0  0  0  0  0  0  0  0  0  0  0  0
    0.6687   -0.9945    4.1004 C   0  0  0  0  0  0  0  0  0  0  0  0
    1.6465   -1.6946    3.9152 O   0  0  0  0  0  0  0  0  0  0  0  0
    0.3340   -0.7088    5.3400 N   0  0  0  0  0  0  0  0  0  0  0  0
    0.9288   -1.1089    6.0446 H   0  0  0  0  0  0  0  0  0  0  0  0
   -0.4586   -0.1359    5.5482 H   0  0  0  0  0  0  0  0  0  0  0  0
    0.2157   -0.3181   -0.9483 C   0  0  0  0  0  0  0  0  0  0  0  0
    1.4431   -0.2938   -1.0178 O   0  0  0  0  0  0  0  0  0  0  0  0
   -0.5631   -0.4384   -2.0311 N   0  0  0  0  0  0  0  0  0  0  0  0
   -1.5605   -0.4762   -1.8937 H   0  0  0  0  0  0  0  0  0  0  0  0
   -0.0507   -0.5511   -3.3961 C   0  0  0  0  0  0  0  0  0  0  0  0
    0.6304   -1.4029   -3.4636 H   0  0  0  0  0  0  0  0  0  0  0  0
   -0.8719   -0.6916   -4.1006 H   0  0  0  0  0  0  0  0  0  0  0  0
    0.5009    0.3532   -3.6585 H   0  0  0  0  0  0  0  0  0  0  0  0
  5  6  2  0  0  0  0
  5  7  1  0  0  0  0
  2  3  1  0  0  0  0
  2  4  1  0  0  0  0
  2  5  1  0  0  0  0
  1  2  1  0  0  0  0
 22 23  2  0  0  0  0
 22 24  1  0  0  0  0
 19 20  1  0  0  0  0
 19 21  1  0  0  0  0
 17 18  2  0  0  0  0
 17 19  1  0  0  0  0
 14 15  1  0  0  0  0
 14 16  1  0  0  0  0
 14 17  1  0  0  0  0
 11 12  1  0  0  0  0
 11 13  1  0  0  0  0
 11 14  1  0  0  0  0
  9 10  1  0  0  0  0
  9 11  1  0  0  0  0
  9 22  1  0  0  0  0
  7  8  1  0  0  0  0
  7  9  1  0  0  0  0
 26 27  1  0  0  0  0
 26 28  1  0  0  0  0
 26 29  1  0  0  0  0
 24 25  1  0  0  0  0
 24 26  1  0  0  0  0
M  END
$$$$
default_name
  -OEChem-01062215323D

 29 28  0     1  0  0  0  0  0999 V2000
   -3.3998   -3.6239    1.3678 H   0  0  0  0  0  0  0  0  0  0  0  0
   -3.3608   -2.6749    0.8348 C   0  0  0  0  0  0  0  0  0  0  0  0
   -4.0988   -1.9909    1.2498 H   0  0  0  0  0  0  0  0  0  0  0  0
   -3.5618   -2.8419   -0.2222 H   0  0  0  0  0  0  0  0  0  0  0  0
   -1.9818   -2.0809    0.9918 C   0  0  0  0  0  0  0  0  0  0  0  0
   -1.1288   -2.6669    1.6468 O   0  0  0  0  0  0  0  0  0  0  0  0
   -1.7648   -0.9089    0.3998 N   0  0  0  0  0  0  0  0  0  0  0  0
   -2.5238   -0.4719   -0.1032 H   0  0  0  0  0  0  0  0  0  0  0  0
   -0.4848   -0.1959    0.4138 C   0  0  1  0  0  0  0  0  0  0  0  0
   -0.6770    0.8616    0.6021 H   0  0  0  0  0  0  0  0  0  0  0  0
    0.3757   -0.7430    1.5695 C   0  0  0  0  0  0  0  0  0  0  0  0
    0.4416   -1.8280    1.4646 H   0  0  0  0  0  0  0  0  0  0  0  0
    1.3827   -0.3308    1.4901 H   0  0  0  0  0  0  0  0  0  0  0  0
   -0.1836   -0.4240    2.9669 C   0  0  0  0  0  0  0  0  0  0  0  0
   -0.2427    0.6559    3.1009 H   0  0  0  0  0  0  0  0  0  0  0  0
   -1.1874   -0.8406    3.0497 H   0  0  0  0  0  0  0  0  0  0  0  0
    0.6687   -0.9945    4.1004 C   0  0  0  0  0  0  0  0  0  0  0  0
    1.6465   -1.6946    3.9152 O   0  0  0  0  0  0  0  0  0  0  0  0
    0.3340   -0.7088    5.3400 N   0  0  0  0  0  0  0  0  0  0  0  0
    0.9288   -1.1089    6.0446 H   0  0  0  0  0  0  0  0  0  0  0  0
   -0.4586   -0.1359    5.5482 H   0  0  0  0  0  0  0  0  0  0  0  0
    0.2157   -0.3181   -0.9483 C   0  0  0  0  0  0  0  0  0  0  0  0
    1.4180   -0.5698   -1.0060 O   0  0  0  0  0  0  0  0  0  0  0  0
   -0.5323   -0.1296   -2.0430 N   0  0  0  0  0  0  0  0  0  0  0  0
   -1.5161    0.0482   -1.9179 H   0  0  0  0  0  0  0  0  0  0  0  0
   -0.0126   -0.1988   -3.4081 C   0  0  0  0  0  0  0  0  0  0  0  0
    0.4581   -1.1711   -3.5731 H   0  0  0  0  0  0  0  0  0  0  0  0
   -0.8195   -0.0637   -4.1299 H   0  0  0  0  0  0  0  0  0  0  0  0
    0.7395    0.5780   -3.5560 H   0  0  0  0  0  0  0  0  0  0  0  0
  5  6  2  0  0  0  0
  5  7  1  0  0  0  0
  2  3  1  0  0  0  0
  2  4  1  0  0  0  0
  2  5  1  0  0  0  0
  1  2  1  0  0  0  0
 22 23  2  0  0  0  0
 22 24  1  0  0  0  0
 19 20  1  0  0  0  0
 19 21  1  0  0  0  0
 17 18  2  0  0  0  0
 17 19  1  0  0  0  0
 14 15  1  0  0  0  0
 14 16  1  0  0  0  0
 14 17  1  0  0  0  0
 11 12  1  0  0  0  0
 11 13  1  0  0  0  0
 11 14  1  0  0  0  0
  9 10  1  0  0  0  0
  9 11  1  0  0  0  0
  9 22  1  0  0  0  0
  7  8  1  0  0  0  0
  7  9  1  0  0  0  0
 26 27  1  0  0  0  0
 26 28  1  0  0  0  0
 26 29  1  0  0  0  0
 24 25  1  0  0  0  0
 24 26  1  0  0  0  0
M  END
$$$$
default_name
  -OEChem-01062215323D

 29 28  0     1  0  0  0  0  0999 V2000
   -3.3998   -3.6239    1.3678 H   0  0  0  0  0  0  0  0  0  0  0  0
   -3.3608   -2.6749    0.8348 C   0  0  0  0  0  0  0  0  0  0  0  0
   -4.0988   -1.9909    1.2498 H   0  0  0  0  0  0  0  0  0  0  0  0
   -3.5618   -2.8419   -0.2222 H   0  0  0  0  0  0  0  0  0  0  0  0
   -1.9818   -2.0809    0.9918 C   0  0  0  0  0  0  0  0  0  0  0  0
   -1.1288   -2.6669    1.6468 O   0  0  0  0  0  0  0  0  0  0  0  0
   -1.7648   -0.9089    0.3998 N   0  0  0  0  0  0  0  0  0  0  0  0
   -2.5238   -0.4719   -0.1032 H   0  0  0  0  0  0  0  0  0  0  0  0
   -0.4848   -0.1959    0.4138 C   0  0  1  0  0  0  0  0  0  0  0  0
   -0.6770    0.8616    0.6021 H   0  0  0  0  0  0  0  0  0  0  0  0
    0.3757   -0.7430    1.5695 C   0  0  0  0  0  0  0  0  0  0  0  0
    0.4416   -1.8280    1.4646 H   0  0  0  0  0  0  0  0  0  0  0  0
    1.3827   -0.3308    1.4901 H   0  0  0  0  0  0  0  0  0  0  0  0
   -0.1836   -0.4240    2.9669 C   0  0  0  0  0  0  0  0  0  0  0  0
   -0.2427    0.6559    3.1009 H   0  0  0  0  0  0  0  0  0  0  0  0
   -1.1874   -0.8406    3.0497 H   0  0  0  0  0  0  0  0  0  0  0  0
    0.6687   -0.9945    4.1004 C   0  0  0  0  0  0  0  0  0  0  0  0
    1.6465   -1.6946    3.9152 O   0  0  0  0  0  0  0  0  0  0  0  0
    0.3340   -0.7088    5.3400 N   0  0  0  0  0  0  0  0  0  0  0  0
    0.9288   -1.1089    6.0446 H   0  0  0  0  0  0  0  0  0  0  0  0
   -0.4586   -0.1359    5.5482 H   0  0  0  0  0  0  0  0  0  0  0  0
    0.2157   -0.3181   -0.9483 C   0  0  0  0  0  0  0  0  0  0  0  0
    1.3301   -0.8319   -1.0277 O   0  0  0  0  0  0  0  0  0  0  0  0
   -0.4315    0.1631   -2.0174 N   0  0  0  0  0  0  0  0  0  0  0  0
   -1.3525    0.5473   -1.8785 H   0  0  0  0  0  0  0  0  0  0  0  0
    0.1053    0.1341   -3.3773 C   0  0  0  0  0  0  0  0  0  0  0  0
    0.3471   -0.8948   -3.6549 H   0  0  0  0  0  0  0  0  0  0  0  0
   -0.6242    0.5342   -4.0832 H   0  0  0  0  0  0  0  0  0  0  0  0
    1.0195    0.7282   -3.4255 H   0  0  0  0  0  0  0  0  0  0  0  0
  5  6  2  0  0  0  0
  5  7  1  0  0  0  0
  2  3  1  0  0  0  0
  2  4  1  0  0  0  0
  2  5  1  0  0  0  0
  1  2  1  0  0  0  0
 22 23  2  0  0  0  0
 22 24  1  0  0  0  0
 19 20  1  0  0  0  0
 19 21  1  0  0  0  0
 17 18  2  0  0  0  0
 17 19  1  0  0  0  0
 14 15  1  0  0  0  0
 14 16  1  0  0  0  0
 14 17  1  0  0  0  0
 11 12  1  0  0  0  0
 11 13  1  0  0  0  0
 11 14  1  0  0  0  0
  9 10  1  0  0  0  0
  9 11  1  0  0  0  0
  9 22  1  0  0  0  0
  7  8  1  0  0  0  0
  7  9  1  0  0  0  0
 26 27  1  0  0  0  0
 26 28  1  0  0  0  0
 26 29  1  0  0  0  0
 24 25  1  0  0  0  0
 24 26  1  0  0  0  0
M  END
$$$$
default_name
  -OEChem-01062215323D

 29 28  0     1  0  0  0  0  0999 V2000
   -3.3998   -3.6239    1.3678 H   0  0  0  0  0  0  0  0  0  0  0  0
   -3.3608   -2.6749    0.8348 C   0  0  0  0  0  0  0  0  0  0  0  0
   -4.0988   -1.9909    1.2498 H   0  0  0  0  0  0  0  0  0  0  0  0
   -3.5618   -2.8419   -0.2222 H   0  0  0  0  0  0  0  0  0  0  0  0
   -1.9818   -2.0809    0.9918 C   0  0  0  0  0  0  0  0  0  0  0  0
   -1.1288   -2.6669    1.6468 O   0  0  0  0  0  0  0  0  0  0  0  0
   -1.7648   -0.9089    0.3998 N   0  0  0  0  0  0  0  0  0  0  0  0
   -2.5238   -0.4719   -0.1032 H   0  0  0  0  0  0  0  0  0  0  0  0
   -0.4848   -0.1959    0.4138 C   0  0  1  0  0  0  0  0  0  0  0  0
   -0.6770    0.8616    0.6021 H   0  0  0  0  0  0  0  0  0  0  0  0
    0.3757   -0.7430    1.5695 C   0  0  0  0  0  0  0  0  0  0  0  0
    0.4416   -1.8280    1.4646 H   0  0  0  0  0  0  0  0  0  0  0  0
    1.3827   -0.3308    1.4901 H   0  0  0  0  0  0  0  0  0  0  0  0
   -0.1836   -0.4240    2.9669 C   0  0  0  0  0  0  0  0  0  0  0  0
   -0.2427    0.6559    3.1009 H   0  0  0  0  0  0  0  0  0  0  0  0
   -1.1874   -0.8406    3.0497 H   0  0  0  0  0  0  0  0  0  0  0  0
    0.6687   -0.9945    4.1004 C   0  0  0  0  0  0  0  0  0  0  0  0
    1.6465   -1.6946    3.9152 O   0  0  0  0  0  0  0  0  0  0  0  0
    0.3340   -0.7088    5.3400 N   0  0  0  0  0  0  0  0  0  0  0  0
    0.9288   -1.1089    6.0446 H   0  0  0  0  0  0  0  0  0  0  0  0
   -0.4586   -0.1359    5.5482 H   0  0  0  0  0  0  0  0  0  0  0  0
    0.2157   -0.3181   -0.9483 C   0  0  0  0  0  0  0  0  0  0  0  0
    1.1855   -1.0624   -1.0813 O   0  0  0  0  0  0  0  0  0  0  0  0
   -0.2675    0.4197   -1.9561 N   0  0  0  0  0  0  0  0  0  0  0  0
   -1.0807    0.9873   -1.7782 H   0  0  0  0  0  0  0  0  0  0  0  0
    0.2949    0.4251   -3.3059 C   0  0  0  0  0  0  0  0  0  0  0  0
    0.3049   -0.5927   -3.7037 H   0  0  0  0  0  0  0  0  0  0  0  0
   -0.2993    1.0614   -3.9634 H   0  0  0  0  0  0  0  0  0  0  0  0
    1.3217    0.7937   -3.2760 H   0  0  0  0  0  0  0  0  0  0  0  0
  5  6  2  0  0  0  0
  5  7  1  0  0  0  0
  2  3  1  0  0  0  0
  2  4  1  0  0  0  0
  2  5  1  0  0  0  0
  1  2  1  0  0  0  0
 22 23  2  0  0  0  0
 22 24  1  0  0  0  0
 19 20  1  0  0  0  0
 19 21  1  0  0  0  0
 17 18  2  0  0  0  0
 17 19  1  0  0  0  0
 14 15  1  0  0  0  0
 14 16  1  0  0  0  0
 14 17  1  0  0  0  0
 11 12  1  0  0  0  0
 11 13  1  0  0  0  0
 11 14  1  0  0  0  0
  9 10  1  0  0  0  0
  9 11  1  0  0  0  0
  9 22  1  0  0  0  0
  7  8  1  0  0  0  0
  7  9  1  0  0  0  0
 26 27  1  0  0  0  0
 26 28  1  0  0  0  0
 26 29  1  0  0  0  0
 24 25  1  0  0  0  0
 24 26  1  0  0  0  0
M  END
$$$$
default_name
  -OEChem-01062215323D

 29 28  0     1  0  0  0  0  0999 V2000
   -3.3998   -3.6239    1.3678 H   0  0  0  0  0  0  0  0  0  0  0  0
   -3.3608   -2.6749    0.8348 C   0  0  0  0  0  0  0  0  0  0  0  0
   -4.0988   -1.9909    1.2498 H   0  0  0  0  0  0  0  0  0  0  0  0
   -3.5618   -2.8419   -0.2222 H   0  0  0  0  0  0  0  0  0  0  0  0
   -1.9818   -2.0809    0.9918 C   0  0  0  0  0  0  0  0  0  0  0  0
   -1.1288   -2.6669    1.6468 O   0  0  0  0  0  0  0  0  0  0  0  0
   -1.7648   -0.9089    0.3998 N   0  0  0  0  0  0  0  0  0  0  0  0
   -2.5238   -0.4719   -0.1032 H   0  0  0  0  0  0  0  0  0  0  0  0
   -0.4848   -0.1959    0.4138 C   0  0  1  0  0  0  0  0  0  0  0  0
   -0.6770    0.8616    0.6021 H   0  0  0  0  0  0  0  0  0  0  0  0
    0.3757   -0.7430    1.5695 C   0  0  0  0  0  0  0  0  0  0  0  0
    0.4416   -1.8280    1.4646 H   0  0  0  0  0  0  0  0  0  0  0  0
    1.3827   -0.3308    1.4901 H   0  0  0  0  0  0  0  0  0  0  0  0
   -0.1836   -0.4240    2.9669 C   0  0  0  0  0  0  0  0  0  0  0  0
   -0.2427    0.6559    3.1009 H   0  0  0  0  0  0  0  0  0  0  0  0
   -1.1874   -0.8406    3.0497 H   0  0  0  0  0  0  0  0  0  0  0  0
    0.6687   -0.9945    4.1004 C   0  0  0  0  0  0  0  0  0  0  0  0
    1.6465   -1.6946    3.9152 O   0  0  0  0  0  0  0  0  0  0  0  0
    0.3340   -0.7088    5.3400 N   0  0  0  0  0  0  0  0  0  0  0  0
    0.9288   -1.1089    6.0446 H   0  0  0  0  0  0  0  0  0  0  0  0
   -0.4586   -0.1359    5.5482 H   0  0  0  0  0  0  0  0  0  0  0  0
    0.2157   -0.3181   -0.9483 C   0  0  0  0  0  0  0  0  0  0  0  0
    0.9940   -1.2455   -1.1634 O   0  0  0  0  0  0  0  0  0  0  0  0
   -0.0514    0.6227   -1.8632 N   0  0  0  0  0  0  0  0  0  0  0  0
   -0.7193    1.3381   -1.6238 H   0  0  0  0  0  0  0  0  0  0  0  0
    0.5434    0.6541   -3.1987 C   0  0  0  0  0  0  0  0  0  0  0  0
    0.3345   -0.2855   -3.7161 H   0  0  0  0  0  0  0  0  0  0  0  0
    0.1330    1.4820   -3.7788 H   0  0  0  0  0  0  0  0  0  0  0  0
    1.6255    0.7700   -3.1176 H   0  0  0  0  0  0  0  0  0  0  0  0
  5  6  2  0  0  0  0
  5  7  1  0  0  0  0
  2  3  1  0  0  0  0
  2  4  1  0  0  0  0
  2  5  1  0  0  0  0
  1  2  1  0  0  0  0
 22 23  2  0  0  0  0
 22 24  1  0  0  0  0
 19 20  1  0  0  0  0
 19 21  1  0  0  0  0
 17 18  2  0  0  0  0
 17 19  1  0  0  0  0
 14 15  1  0  0  0  0
 14 16  1  0  0  0  0
 14 17  1  0  0  0  0
 11 12  1  0  0  0  0
 11 13  1  0  0  0  0
 11 14  1  0  0  0  0
  9 10  1  0  0  0  0
  9 11  1  0  0  0  0
  9 22  1  0  0  0  0
  7  8  1  0  0  0  0
  7  9  1  0  0  0  0
 26 27  1  0  0  0  0
 26 28  1  0  0  0  0
 26 29  1  0  0  0  0
 24 25  1  0  0  0  0
 24 26  1  0  0  0  0
M  END
$$$$
default_name
  -OEChem-01062215323D

 29 28  0     1  0  0  0  0  0999 V2000
   -3.3998   -3.6239    1.3678 H   0  0  0  0  0  0  0  0  0  0  0  0
   -3.3608   -2.6749    0.8348 C   0  0  0  0  0  0  0  0  0  0  0  0
   -4.0988   -1.9909    1.2498 H   0  0  0  0  0  0  0  0  0  0  0  0
   -3.5618   -2.8419   -0.2222 H   0  0  0  0  0  0  0  0  0  0  0  0
   -1.9818   -2.0809    0.9918 C   0  0  0  0  0  0  0  0  0  0  0  0
   -1.1288   -2.6669    1.6468 O   0  0  0  0  0  0  0  0  0  0  0  0
   -1.7648   -0.9089    0.3998 N   0  0  0  0  0  0  0  0  0  0  0  0
   -2.5238   -0.4719   -0.1032 H   0  0  0  0  0  0  0  0  0  0  0  0
   -0.4848   -0.1959    0.4138 C   0  0  1  0  0  0  0  0  0  0  0  0
   -0.6770    0.8616    0.6021 H   0  0  0  0  0  0  0  0  0  0  0  0
    0.3757   -0.7430    1.5695 C   0  0  0  0  0  0  0  0  0  0  0  0
    0.4416   -1.8280    1.4646 H   0  0  0  0  0  0  0  0  0  0  0  0
    1.3827   -0.3308    1.4901 H   0  0  0  0  0  0  0  0  0  0  0  0
   -0.1836   -0.4240    2.9669 C   0  0  0  0  0  0  0  0  0  0  0  0
   -0.2427    0.6559    3.1009 H   0  0  0  0  0  0  0  0  0  0  0  0
   -1.1874   -0.8406    3.0497 H   0  0  0  0  0  0  0  0  0  0  0  0
    0.6687   -0.9945    4.1004 C   0  0  0  0  0  0  0  0  0  0  0  0
    1.6465   -1.6946    3.9152 O   0  0  0  0  0  0  0  0  0  0  0  0
    0.3340   -0.7088    5.3400 N   0  0  0  0  0  0  0  0  0  0  0  0
    0.9288   -1.1089    6.0446 H   0  0  0  0  0  0  0  0  0  0  0  0
   -0.4586   -0.1359    5.5482 H   0  0  0  0  0  0  0  0  0  0  0  0
    0.2157   -0.3181   -0.9483 C   0  0  0  0  0  0  0  0  0  0  0  0
    0.7688   -1.3688   -1.2681 O   0  0  0  0  0  0  0  0  0  0  0  0
    0.2019    0.7582   -1.7451 N   0  0  0  0  0  0  0  0  0  0  0  0
   -0.2929    1.5757   -1.4259 H   0  0  0  0  0  0  0  0  0  0  0  0
    0.8337    0.8057   -3.0630 C   0  0  0  0  0  0  0  0  0  0  0  0
    0.4339    0.0059   -3.6911 H   0  0  0  0  0  0  0  0  0  0  0  0
    0.6433    1.7673   -3.5420 H   0  0  0  0  0  0  0  0  0  0  0  0
    1.9103    0.6587   -2.9612 H   0  0  0  0  0  0  0  0  0  0  0  0
  5  6  2  0  0  0  0
  5  7  1  0  0  0  0
  2  3  1  0  0  0  0
  2  4  1  0  0  0  0
  2  5  1  0  0  0  0
  1  2  1  0  0  0  0
 22 23  2  0  0  0  0
 22 24  1  0  0  0  0
 19 20  1  0  0  0  0
 19 21  1  0  0  0  0
 17 18  2  0  0  0  0
 17 19  1  0  0  0  0
 14 15  1  0  0  0  0
 14 16  1  0  0  0  0
 14 17  1  0  0  0  0
 11 12  1  0  0  0  0
 11 13  1  0  0  0  0
 11 14  1  0  0  0  0
  9 10  1  0  0  0  0
  9 11  1  0  0  0  0
  9 22  1  0  0  0  0
  7  8  1  0  0  0  0
  7  9  1  0  0  0  0
 26 27  1  0  0  0  0
 26 28  1  0  0  0  0
 26 29  1  0  0  0  0
 24 25  1  0  0  0  0
 24 26  1  0  0  0  0
M  END
$$$$
default_name
  -OEChem-01062215323D

 29 28  0     1  0  0  0  0  0999 V2000
   -3.3998   -3.6239    1.3678 H   0  0  0  0  0  0  0  0  0  0  0  0
   -3.3608   -2.6749    0.8348 C   0  0  0  0  0  0  0  0  0  0  0  0
   -4.0988   -1.9909    1.2498 H   0  0  0  0  0  0  0  0  0  0  0  0
   -3.5618   -2.8419   -0.2222 H   0  0  0  0  0  0  0  0  0  0  0  0
   -1.9818   -2.0809    0.9918 C   0  0  0  0  0  0  0  0  0  0  0  0
   -1.1288   -2.6669    1.6468 O   0  0  0  0  0  0  0  0  0  0  0  0
   -1.7648   -0.9089    0.3998 N   0  0  0  0  0  0  0  0  0  0  0  0
   -2.5238   -0.4719   -0.1032 H   0  0  0  0  0  0  0  0  0  0  0  0
   -0.4848   -0.1959    0.4138 C   0  0  1  0  0  0  0  0  0  0  0  0
   -0.6770    0.8616    0.6021 H   0  0  0  0  0  0  0  0  0  0  0  0
    0.3757   -0.7430    1.5695 C   0  0  0  0  0  0  0  0  0  0  0  0
    0.4416   -1.8280    1.4646 H   0  0  0  0  0  0  0  0  0  0  0  0
    1.3827   -0.3308    1.4901 H   0  0  0  0  0  0  0  0  0  0  0  0
   -0.1836   -0.4240    2.9669 C   0  0  0  0  0  0  0  0  0  0  0  0
   -0.2427    0.6559    3.1009 H   0  0  0  0  0  0  0  0  0  0  0  0
   -1.1874   -0.8406    3.0497 H   0  0  0  0  0  0  0  0  0  0  0  0
    0.6687   -0.9945    4.1004 C   0  0  0  0  0  0  0  0  0  0  0  0
    1.6465   -1.6946    3.9152 O   0  0  0  0  0  0  0  0  0  0  0  0
    0.3340   -0.7088    5.3400 N   0  0  0  0  0  0  0  0  0  0  0  0
    0.9288   -1.1089    6.0446 H   0  0  0  0  0  0  0  0  0  0  0  0
   -0.4586   -0.1359    5.5482 H   0  0  0  0  0  0  0  0  0  0  0  0
    0.2157   -0.3181   -0.9483 C   0  0  0  0  0  0  0  0  0  0  0  0
    0.5251   -1.4238   -1.3885 O   0  0  0  0  0  0  0  0  0  0  0  0
    0.4753    0.8170   -1.6098 N   0  0  0  0  0  0  0  0  0  0  0  0
    0.1694    1.6841   -1.1979 H   0  0  0  0  0  0  0  0  0  0  0  0
    1.1462    0.8695   -2.9080 C   0  0  0  0  0  0  0  0  0  0  0  0
    0.5962    0.2616   -3.6306 H   0  0  0  0  0  0  0  0  0  0  0  0
    1.1967    1.8979   -3.2691 H   0  0  0  0  0  0  0  0  0  0  0  0
    2.1566    0.4673   -2.8173 H   0  0  0  0  0  0  0  0  0  0  0  0
  5  6  2  0  0  0  0
  5  7  1  0  0  0  0
  2  3  1  0  0  0  0
  2  4  1  0  0  0  0
  2  5  1  0  0  0  0
  1  2  1  0  0  0  0
 22 23  2  0  0  0  0
 22 24  1  0  0  0  0
 19 20  1  0  0  0  0
 19 21  1  0  0  0  0
 17 18  2  0  0  0  0
 17 19  1  0  0  0  0
 14 15  1  0  0  0  0
 14 16  1  0  0  0  0
 14 17  1  0  0  0  0
 11 12  1  0  0  0  0
 11 13  1  0  0  0  0
 11 14  1  0  0  0  0
  9 10  1  0  0  0  0
  9 11  1  0  0  0  0
  9 22  1  0  0  0  0
  7  8  1  0  0  0  0
  7  9  1  0  0  0  0
 26 27  1  0  0  0  0
 26 28  1  0  0  0  0
 26 29  1  0  0  0  0
 24 25  1  0  0  0  0
 24 26  1  0  0  0  0
M  END
$$$$
default_name
  -OEChem-01062215323D

 29 28  0     1  0  0  0  0  0999 V2000
   -3.3998   -3.6239    1.3678 H   0  0  0  0  0  0  0  0  0  0  0  0
   -3.3608   -2.6749    0.8348 C   0  0  0  0  0  0  0  0  0  0  0  0
   -4.0988   -1.9909    1.2498 H   0  0  0  0  0  0  0  0  0  0  0  0
   -3.5618   -2.8419   -0.2222 H   0  0  0  0  0  0  0  0  0  0  0  0
   -1.9818   -2.0809    0.9918 C   0  0  0  0  0  0  0  0  0  0  0  0
   -1.1288   -2.6669    1.6468 O   0  0  0  0  0  0  0  0  0  0  0  0
   -1.7648   -0.9089    0.3998 N   0  0  0  0  0  0  0  0  0  0  0  0
   -2.5238   -0.4719   -0.1032 H   0  0  0  0  0  0  0  0  0  0  0  0
   -0.4848   -0.1959    0.4138 C   0  0  1  0  0  0  0  0  0  0  0  0
   -0.6770    0.8616    0.6021 H   0  0  0  0  0  0  0  0  0  0  0  0
    0.3757   -0.7430    1.5695 C   0  0  0  0  0  0  0  0  0  0  0  0
    0.4416   -1.8280    1.4646 H   0  0  0  0  0  0  0  0  0  0  0  0
    1.3827   -0.3308    1.4901 H   0  0  0  0  0  0  0  0  0  0  0  0
   -0.1836   -0.4240    2.9669 C   0  0  0  0  0  0  0  0  0  0  0  0
   -0.2427    0.6559    3.1009 H   0  0  0  0  0  0  0  0  0  0  0  0
   -1.1874   -0.8406    3.0497 H   0  0  0  0  0  0  0  0  0  0  0  0
    0.6687   -0.9945    4.1004 C   0  0  0  0  0  0  0  0  0  0  0  0
    1.6465   -1.6946    3.9152 O   0  0  0  0  0  0  0  0  0  0  0  0
    0.3340   -0.7088    5.3400 N   0  0  0  0  0  0  0  0  0  0  0  0
    0.9288   -1.1089    6.0446 H   0  0  0  0  0  0  0  0  0  0  0  0
   -0.4586   -0.1359    5.5482 H   0  0  0  0  0  0  0  0  0  0  0  0
    0.2157   -0.3181   -0.9483 C   0  0  0  0  0  0  0  0  0  0  0  0
    0.2795   -1.4069   -1.5163 O   0  0  0  0  0  0  0  0  0  0  0  0
    0.7500    0.7952   -1.4665 N   0  0  0  0  0  0  0  0  0  0  0  0
    0.6362    1.6559   -0.9553 H   0  0  0  0  0  0  0  0  0  0  0  0
    1.4594    0.8412   -2.7444 C   0  0  0  0  0  0  0  0  0  0  0  0
    0.8103    0.4643   -3.5387 H   0  0  0  0  0  0  0  0  0  0  0  0
    1.7557    1.8648   -2.9787 H   0  0  0  0  0  0  0  0  0  0  0  0
    2.3477    0.2091   -2.6959 H   0  0  0  0  0  0  0  0  0  0  0  0
  5  6  2  0  0  0  0
  5  7  1  0  0  0  0
  2  3  1  0  0  0  0
  2  4  1  0  0  0  0
  2  5  1  0  0  0  0
  1  2  1  0  0  0  0
 22 23  2  0  0  0  0
 22 24  1  0  0  0  0
 19 20  1  0  0  0  0
 19 21  1  0  0  0  0
 17 18  2  0  0  0  0
 17 19  1  0  0  0  0
 14 15  1  0  0  0  0
 14 16  1  0  0  0  0
 14 17  1  0  0  0  0
 11 12  1  0  0  0  0
 11 13  1  0  0  0  0
 11 14  1  0  0  0  0
  9 10  1  0  0  0  0
  9 11  1  0  0  0  0
  9 22  1  0  0  0  0
  7  8  1  0  0  0  0
  7  9  1  0  0  0  0
 26 27  1  0  0  0  0
 26 28  1  0  0  0  0
 26 29  1  0  0  0  0
 24 25  1  0  0  0  0
 24 26  1  0  0  0  0
M  END
$$$$
default_name
  -OEChem-01062215323D

 29 28  0     1  0  0  0  0  0999 V2000
   -3.3998   -3.6239    1.3678 H   0  0  0  0  0  0  0  0  0  0  0  0
   -3.3608   -2.6749    0.8348 C   0  0  0  0  0  0  0  0  0  0  0  0
   -4.0988   -1.9909    1.2498 H   0  0  0  0  0  0  0  0  0  0  0  0
   -3.5618   -2.8419   -0.2222 H   0  0  0  0  0  0  0  0  0  0  0  0
   -1.9818   -2.0809    0.9918 C   0  0  0  0  0  0  0  0  0  0  0  0
   -1.1288   -2.6669    1.6468 O   0  0  0  0  0  0  0  0  0  0  0  0
   -1.7648   -0.9089    0.3998 N   0  0  0  0  0  0  0  0  0  0  0  0
   -2.5238   -0.4719   -0.1032 H   0  0  0  0  0  0  0  0  0  0  0  0
   -0.4848   -0.1959    0.4138 C   0  0  1  0  0  0  0  0  0  0  0  0
   -0.6770    0.8616    0.6021 H   0  0  0  0  0  0  0  0  0  0  0  0
    0.3757   -0.7430    1.5695 C   0  0  0  0  0  0  0  0  0  0  0  0
    0.4416   -1.8280    1.4646 H   0  0  0  0  0  0  0  0  0  0  0  0
    1.3827   -0.3308    1.4901 H   0  0  0  0  0  0  0  0  0  0  0  0
   -0.1836   -0.4240    2.9669 C   0  0  0  0  0  0  0  0  0  0  0  0
   -0.2427    0.6559    3.1009 H   0  0  0  0  0  0  0  0  0  0  0  0
   -1.1874   -0.8406    3.0497 H   0  0  0  0  0  0  0  0  0  0  0  0
    0.6687   -0.9945    4.1004 C   0  0  0  0  0  0  0  0  0  0  0  0
    1.6465   -1.6946    3.9152 O   0  0  0  0  0  0  0  0  0  0  0  0
    0.3340   -0.7088    5.3400 N   0  0  0  0  0  0  0  0  0  0  0  0
    0.9288   -1.1089    6.0446 H   0  0  0  0  0  0  0  0  0  0  0  0
   -0.4586   -0.1359    5.5482 H   0  0  0  0  0  0  0  0  0  0  0  0
    0.2157   -0.3181   -0.9483 C   0  0  0  0  0  0  0  0  0  0  0  0
    0.0489   -1.3191   -1.6428 O   0  0  0  0  0  0  0  0  0  0  0  0
    1.0075    0.6941   -1.3250 N   0  0  0  0  0  0  0  0  0  0  0  0
    1.0756    1.4928   -0.7147 H   0  0  0  0  0  0  0  0  0  0  0  0
    1.7521    0.7227   -2.5832 C   0  0  0  0  0  0  0  0  0  0  0  0
    1.0618    0.6000   -3.4215 H   0  0  0  0  0  0  0  0  0  0  0  0
    2.2820    1.6703   -2.6906 H   0  0  0  0  0  0  0  0  0  0  0  0
    2.4705   -0.0986   -2.6051 H   0  0  0  0  0  0  0  0  0  0  0  0
  5  6  2  0  0  0  0
  5  7  1  0  0  0  0
  2  3  1  0  0  0  0
  2  4  1  0  0  0  0
  2  5  1  0  0  0  0
  1  2  1  0  0  0  0
 22 23  2  0  0  0  0
 22 24  1  0  0  0  0
 19 20  1  0  0  0  0
 19 21  1  0  0  0  0
 17 18  2  0  0  0  0
 17 19  1  0  0  0  0
 14 15  1  0  0  0  0
 14 16  1  0  0  0  0
 14 17  1  0  0  0  0
 11 12  1  0  0  0  0
 11 13  1  0  0  0  0
 11 14  1  0  0  0  0
  9 10  1  0  0  0  0
  9 11  1  0  0  0  0
  9 22  1  0  0  0  0
  7  8  1  0  0  0  0
  7  9  1  0  0  0  0
 26 27  1  0  0  0  0
 26 28  1  0  0  0  0
 26 29  1  0  0  0  0
 24 25  1  0  0  0  0
 24 26  1  0  0  0  0
M  END
$$$$
default_name
  -OEChem-01062215323D

 29 28  0     1  0  0  0  0  0999 V2000
   -3.3998   -3.6239    1.3678 H   0  0  0  0  0  0  0  0  0  0  0  0
   -3.3608   -2.6749    0.8348 C   0  0  0  0  0  0  0  0  0  0  0  0
   -4.0988   -1.9909    1.2498 H   0  0  0  0  0  0  0  0  0  0  0  0
   -3.5618   -2.8419   -0.2222 H   0  0  0  0  0  0  0  0  0  0  0  0
   -1.9818   -2.0809    0.9918 C   0  0  0  0  0  0  0  0  0  0  0  0
   -1.1288   -2.6669    1.6468 O   0  0  0  0  0  0  0  0  0  0  0  0
   -1.7648   -0.9089    0.3998 N   0  0  0  0  0  0  0  0  0  0  0  0
   -2.5238   -0.4719   -0.1032 H   0  0  0  0  0  0  0  0  0  0  0  0
   -0.4848   -0.1959    0.4138 C   0  0  1  0  0  0  0  0  0  0  0  0
   -0.6770    0.8616    0.6021 H   0  0  0  0  0  0  0  0  0  0  0  0
    0.3757   -0.7430    1.5695 C   0  0  0  0  0  0  0  0  0  0  0  0
    0.4416   -1.8280    1.4646 H   0  0  0  0  0  0  0  0  0  0  0  0
    1.3827   -0.3308    1.4901 H   0  0  0  0  0  0  0  0  0  0  0  0
   -0.1836   -0.4240    2.9669 C   0  0  0  0  0  0  0  0  0  0  0  0
   -0.2427    0.6559    3.1009 H   0  0  0  0  0  0  0  0  0  0  0  0
   -1.1874   -0.8406    3.0497 H   0  0  0  0  0  0  0  0  0  0  0  0
    0.6687   -0.9945    4.1004 C   0  0  0  0  0  0  0  0  0  0  0  0
    1.6465   -1.6946    3.9152 O   0  0  0  0  0  0  0  0  0  0  0  0
    0.3340   -0.7088    5.3400 N   0  0  0  0  0  0  0  0  0  0  0  0
    0.9288   -1.1089    6.0446 H   0  0  0  0  0  0  0  0  0  0  0  0
   -0.4586   -0.1359    5.5482 H   0  0  0  0  0  0  0  0  0  0  0  0
    0.2157   -0.3181   -0.9483 C   0  0  0  0  0  0  0  0  0  0  0  0
   -0.1512   -1.1664   -1.7594 O   0  0  0  0  0  0  0  0  0  0  0  0
    1.2300    0.5207   -1.1950 N   0  0  0  0  0  0  0  0  0  0  0  0
    1.4576    1.2062   -0.4925 H   0  0  0  0  0  0  0  0  0  0  0  0
    2.0043    0.5220   -2.4355 C   0  0  0  0  0  0  0  0  0  0  0  0
    1.3335    0.6596   -3.2872 H   0  0  0  0  0  0  0  0  0  0  0  0
    2.7399    1.3277   -2.4244 H   0  0  0  0  0  0  0  0  0  0  0  0
    2.5166   -0.4346   -2.5513 H   0  0  0  0  0  0  0  0  0  0  0  0
  5  6  2  0  0  0  0
  5  7  1  0  0  0  0
  2  3  1  0  0  0  0
  2  4  1  0  0  0  0
  2  5  1  0  0  0  0
  1  2  1  0  0  0  0
 22 23  2  0  0  0  0
 22 24  1  0  0  0  0
 19 20  1  0  0  0  0
 19 21  1  0  0  0  0
 17 18  2  0  0  0  0
 17 19  1  0  0  0  0
 14 15  1  0  0  0  0
 14 16  1  0  0  0  0
 14 17  1  0  0  0  0
 11 12  1  0  0  0  0
 11 13  1  0  0  0  0
 11 14  1  0  0  0  0
  9 10  1  0  0  0  0
  9 11  1  0  0  0  0
  9 22  1  0  0  0  0
  7  8  1  0  0  0  0
  7  9  1  0  0  0  0
 26 27  1  0  0  0  0
 26 28  1  0  0  0  0
 26 29  1  0  0  0  0
 24 25  1  0  0  0  0
 24 26  1  0  0  0  0
M  END
$$$$
default_name
  -OEChem-01062215323D

 29 28  0     1  0  0  0  0  0999 V2000
   -3.3998   -3.6239    1.3678 H   0  0  0  0  0  0  0  0  0  0  0  0
   -3.3608   -2.6749    0.8348 C   0  0  0  0  0  0  0  0  0  0  0  0
   -4.0988   -1.9909    1.2498 H   0  0  0  0  0  0  0  0  0  0  0  0
   -3.5618   -2.8419   -0.2222 H   0  0  0  0  0  0  0  0  0  0  0  0
   -1.9818   -2.0809    0.9918 C   0  0  0  0  0  0  0  0  0  0  0  0
   -1.1288   -2.6669    1.6468 O   0  0  0  0  0  0  0  0  0  0  0  0
   -1.7648   -0.9089    0.3998 N   0  0  0  0  0  0  0  0  0  0  0  0
   -2.5238   -0.4719   -0.1032 H   0  0  0  0  0  0  0  0  0  0  0  0
   -0.4848   -0.1959    0.4138 C   0  0  1  0  0  0  0  0  0  0  0  0
   -0.6390    0.7883    0.8591 H   0  0  0  0  0  0  0  0  0  0  0  0
    0.5080   -0.9753    1.2982 C   0  0  0  0  0  0  0  0  0  0  0  0
    0.5472   -2.0072    0.9431 H   0  0  0  0  0  0  0  0  0  0  0  0
    1.5019   -0.5388    1.1883 H   0  0  0  0  0  0  0  0  0  0  0  0
    0.1335   -0.9898    2.7904 C   0  0  0  0  0  0  0  0  0  0  0  0
    0.1048    0.0307    3.1717 H   0  0  0  0  0  0  0  0  0  0  0  0
   -0.8568   -1.4313    2.9023 H   0  0  0  0  0  0  0  0  0  0  0  0
    1.1151   -1.7871    3.6492 C   0  0  0  0  0  0  0  0  0  0  0  0
    2.0532   -2.4106    3.1890 O   0  0  0  0  0  0  0  0  0  0  0  0
    0.9430   -1.7946    4.9532 N   0  0  0  0  0  0  0  0  0  0  0  0
    1.6172   -2.3334    5.4686 H   0  0  0  0  0  0  0  0  0  0  0  0
    0.1900   -1.2970    5.3835 H   0  0  0  0  0  0  0  0  0  0  0  0
    0.0366    0.0047   -1.0176 C   0  0  0  0  0  0  0  0  0  0  0  0
   -0.6044   -0.4231   -1.9757 O   0  0  0  0  0  0  0  0  0  0  0  0
    1.2039    0.6450   -1.1622 N   0  0  0  0  0  0  0  0  0  0  0  0
    1.6597    0.9893   -0.3322 H   0  0  0  0  0  0  0  0  0  0  0  0
    1.8386    0.9024   -2.4542 C   0  0  0  0  0  0  0  0  0  0  0  0
    1.1508    1.4568   -3.0974 H   0  0  0  0  0  0  0  0  0  0  0  0
    2.7521    1.4838   -2.3205 H   0  0  0  0  0  0  0  0  0  0  0  0
    2.0795   -0.0438   -2.9415 H   0  0  0  0  0  0  0  0  0  0  0  0
  5  6  2  0  0  0  0
  5  7  1  0  0  0  0
  2  3  1  0  0  0  0
  2  4  1  0  0  0  0
  2  5  1  0  0  0  0
  1  2  1  0  0  0  0
 22 23  2  0  0  0  0
 22 24  1  0  0  0  0
 19 20  1  0  0  0  0
 19 21  1  0  0  0  0
 17 18  2  0  0  0  0
 17 19  1  0  0  0  0
 14 15  1  0  0  0  0
 14 16  1  0  0  0  0
 14 17  1  0  0  0  0
 11 12  1  0  0  0  0
 11 13  1  0  0  0  0
 11 14  1  0  0  0  0
  9 10  1  0  0  0  0
  9 11  1  0  0  0  0
  9 22  1  0  0  0  0
  7  8  1  0  0  0  0
  7  9  1  0  0  0  0
 26 27  1  0  0  0  0
 26 28  1  0  0  0  0
 26 29  1  0  0  0  0
 24 25  1  0  0  0  0
 24 26  1  0  0  0  0
M  END
$$$$
default_name
  -OEChem-01062215323D

 29 28  0     1  0  0  0  0  0999 V2000
   -3.3998   -3.6239    1.3678 H   0  0  0  0  0  0  0  0  0  0  0  0
   -3.3608   -2.6749    0.8348 C   0  0  0  0  0  0  0  0  0  0  0  0
   -4.0988   -1.9909    1.2498 H   0  0  0  0  0  0  0  0  0  0  0  0
   -3.5618   -2.8419   -0.2222 H   0  0  0  0  0  0  0  0  0  0  0  0
   -1.9818   -2.0809    0.9918 C   0  0  0  0  0  0  0  0  0  0  0  0
   -1.1288   -2.6669    1.6468 O   0  0  0  0  0  0  0  0  0  0  0  0
   -1.7648   -0.9089    0.3998 N   0  0  0  0  0  0  0  0  0  0  0  0
   -2.5238   -0.4719   -0.1032 H   0  0  0  0  0  0  0  0  0  0  0  0
   -0.4848   -0.1959    0.4138 C   0  0  1  0  0  0  0  0  0  0  0  0
   -0.6390    0.7883    0.8591 H   0  0  0  0  0  0  0  0  0  0  0  0
    0.5080   -0.9753    1.2982 C   0  0  0  0  0  0  0  0  0  0  0  0
    0.5472   -2.0072    0.9431 H   0  0  0  0  0  0  0  0  0  0  0  0
    1.5019   -0.5388    1.1883 H   0  0  0  0  0  0  0  0  0  0  0  0
    0.1335   -0.9898    2.7904 C   0  0  0  0  0  0  0  0  0  0  0  0
    0.1048    0.0307    3.1717 H   0  0  0  0  0  0  0  0  0  0  0  0
   -0.8568   -1.4313    2.9023 H   0  0  0  0  0  0  0  0  0  0  0  0
    1.1151   -1.7871    3.6492 C   0  0  0  0  0  0  0  0  0  0  0  0
    2.0532   -2.4106    3.1890 O   0  0  0  0  0  0  0  0  0  0  0  0
    0.9430   -1.7946    4.9532 N   0  0  0  0  0  0  0  0  0  0  0  0
    1.6172   -2.3334    5.4686 H   0  0  0  0  0  0  0  0  0  0  0  0
    0.1900   -1.2970    5.3835 H   0  0  0  0  0  0  0  0  0  0  0  0
    0.0366    0.0047   -1.0176 C   0  0  0  0  0  0  0  0  0  0  0  0
   -0.7109   -0.1671   -1.9787 O   0  0  0  0  0  0  0  0  0  0  0  0
    1.3207    0.3572   -1.1600 N   0  0  0  0  0  0  0  0  0  0  0  0
    1.8654    0.5044   -0.3252 H   0  0  0  0  0  0  0  0  0  0  0  0
    1.9690    0.5727   -2.4529 C   0  0  0  0  0  0  0  0  0  0  0  0
    1.4216    1.3325   -3.0162 H   0  0  0  0  0  0  0  0  0  0  0  0
    2.9991    0.9035   -2.3118 H   0  0  0  0  0  0  0  0  0  0  0  0
    1.9619   -0.3547   -3.0280 H   0  0  0  0  0  0  0  0  0  0  0  0
  5  6  2  0  0  0  0
  5  7  1  0  0  0  0
  2  3  1  0  0  0  0
  2  4  1  0  0  0  0
  2  5  1  0  0  0  0
  1  2  1  0  0  0  0
 22 23  2  0  0  0  0
 22 24  1  0  0  0  0
 19 20  1  0  0  0  0
 19 21  1  0  0  0  0
 17 18  2  0  0  0  0
 17 19  1  0  0  0  0
 14 15  1  0  0  0  0
 14 16  1  0  0  0  0
 14 17  1  0  0  0  0
 11 12  1  0  0  0  0
 11 13  1  0  0  0  0
 11 14  1  0  0  0  0
  9 10  1  0  0  0  0
  9 11  1  0  0  0  0
  9 22  1  0  0  0  0
  7  8  1  0  0  0  0
  7  9  1  0  0  0  0
 26 27  1  0  0  0  0
 26 28  1  0  0  0  0
 26 29  1  0  0  0  0
 24 25  1  0  0  0  0
 24 26  1  0  0  0  0
M  END
$$$$
default_name
  -OEChem-01062215323D

 29 28  0     1  0  0  0  0  0999 V2000
   -3.3998   -3.6239    1.3678 H   0  0  0  0  0  0  0  0  0  0  0  0
   -3.3608   -2.6749    0.8348 C   0  0  0  0  0  0  0  0  0  0  0  0
   -4.0988   -1.9909    1.2498 H   0  0  0  0  0  0  0  0  0  0  0  0
   -3.5618   -2.8419   -0.2222 H   0  0  0  0  0  0  0  0  0  0  0  0
   -1.9818   -2.0809    0.9918 C   0  0  0  0  0  0  0  0  0  0  0  0
   -1.1288   -2.6669    1.6468 O   0  0  0  0  0  0  0  0  0  0  0  0
   -1.7648   -0.9089    0.3998 N   0  0  0  0  0  0  0  0  0  0  0  0
   -2.5238   -0.4719   -0.1032 H   0  0  0  0  0  0  0  0  0  0  0  0
   -0.4848   -0.1959    0.4138 C   0  0  1  0  0  0  0  0  0  0  0  0
   -0.6390    0.7883    0.8591 H   0  0  0  0  0  0  0  0  0  0  0  0
    0.5080   -0.9753    1.2982 C   0  0  0  0  0  0  0  0  0  0  0  0
    0.5472   -2.0072    0.9431 H   0  0  0  0  0  0  0  0  0  0  0  0
    1.5019   -0.5388    1.1883 H   0  0  0  0  0  0  0  0  0  0  0  0
    0.1335   -0.9898    2.7904 C   0  0  0  0  0  0  0  0  0  0  0  0
    0.1048    0.0307    3.1717 H   0  0  0  0  0  0  0  0  0  0  0  0
   -0.8568   -1.4313    2.9023 H   0  0  0  0  0  0  0  0  0  0  0  0
    1.1151   -1.7871    3.6492 C   0  0  0  0  0  0  0  0  0  0  0  0
    2.0532   -2.4106    3.1890 O   0  0  0  0  0  0  0  0  0  0  0  0
    0.9430   -1.7946    4.9532 N   0  0  0  0  0  0  0  0  0  0  0  0
    1.6172   -2.3334    5.4686 H   0  0  0  0  0  0  0  0  0  0  0  0
    0.1900   -1.2970    5.3835 H   0  0  0  0  0  0  0  0  0  0  0  0
    0.0366    0.0047   -1.0176 C   0  0  0  0  0  0  0  0  0  0  0  0
   -0.7522    0.1062   -1.9554 O   0  0  0  0  0  0  0  0  0  0  0  0
    1.3643    0.0508   -1.1870 N   0  0  0  0  0  0  0  0  0  0  0  0
    1.9475   -0.0142   -0.3680 H   0  0  0  0  0  0  0  0  0  0  0  0
    2.0155    0.2227   -2.4850 C   0  0  0  0  0  0  0  0  0  0  0  0
    1.6560    1.1400   -2.9578 H   0  0  0  0  0  0  0  0  0  0  0  0
    3.0981    0.2826   -2.3628 H   0  0  0  0  0  0  0  0  0  0  0  0
    1.7703   -0.6191   -3.1348 H   0  0  0  0  0  0  0  0  0  0  0  0
  5  6  2  0  0  0  0
  5  7  1  0  0  0  0
  2  3  1  0  0  0  0
  2  4  1  0  0  0  0
  2  5  1  0  0  0  0
  1  2  1  0  0  0  0
 22 23  2  0  0  0  0
 22 24  1  0  0  0  0
 19 20  1  0  0  0  0
 19 21  1  0  0  0  0
 17 18  2  0  0  0  0
 17 19  1  0  0  0  0
 14 15  1  0  0  0  0
 14 16  1  0  0  0  0
 14 17  1  0  0  0  0
 11 12  1  0  0  0  0
 11 13  1  0  0  0  0
 11 14  1  0  0  0  0
  9 10  1  0  0  0  0
  9 11  1  0  0  0  0
  9 22  1  0  0  0  0
  7  8  1  0  0  0  0
  7  9  1  0  0  0  0
 26 27  1  0  0  0  0
 26 28  1  0  0  0  0
 26 29  1  0  0  0  0
 24 25  1  0  0  0  0
 24 26  1  0  0  0  0
M  END
$$$$
default_name
  -OEChem-01062215323D

 29 28  0     1  0  0  0  0  0999 V2000
   -3.3998   -3.6239    1.3678 H   0  0  0  0  0  0  0  0  0  0  0  0
   -3.3608   -2.6749    0.8348 C   0  0  0  0  0  0  0  0  0  0  0  0
   -4.0988   -1.9909    1.2498 H   0  0  0  0  0  0  0  0  0  0  0  0
   -3.5618   -2.8419   -0.2222 H   0  0  0  0  0  0  0  0  0  0  0  0
   -1.9818   -2.0809    0.9918 C   0  0  0  0  0  0  0  0  0  0  0  0
   -1.1288   -2.6669    1.6468 O   0  0  0  0  0  0  0  0  0  0  0  0
   -1.7648   -0.9089    0.3998 N   0  0  0  0  0  0  0  0  0  0  0  0
   -2.5238   -0.4719   -0.1032 H   0  0  0  0  0  0  0  0  0  0  0  0
   -0.4848   -0.1959    0.4138 C   0  0  1  0  0  0  0  0  0  0  0  0
   -0.6390    0.7883    0.8591 H   0  0  0  0  0  0  0  0  0  0  0  0
    0.5080   -0.9753    1.2982 C   0  0  0  0  0  0  0  0  0  0  0  0
    0.5472   -2.0072    0.9431 H   0  0  0  0  0  0  0  0  0  0  0  0
    1.5019   -0.5388    1.1883 H   0  0  0  0  0  0  0  0  0  0  0  0
    0.1335   -0.9898    2.7904 C   0  0  0  0  0  0  0  0  0  0  0  0
    0.1048    0.0307    3.1717 H   0  0  0  0  0  0  0  0  0  0  0  0
   -0.8568   -1.4313    2.9023 H   0  0  0  0  0  0  0  0  0  0  0  0
    1.1151   -1.7871    3.6492 C   0  0  0  0  0  0  0  0  0  0  0  0
    2.0532   -2.4106    3.1890 O   0  0  0  0  0  0  0  0  0  0  0  0
    0.9430   -1.7946    4.9532 N   0  0  0  0  0  0  0  0  0  0  0  0
    1.6172   -2.3334    5.4686 H   0  0  0  0  0  0  0  0  0  0  0  0
    0.1900   -1.2970    5.3835 H   0  0  0  0  0  0  0  0  0  0  0  0
    0.0366    0.0047   -1.0176 C   0  0  0  0  0  0  0  0  0  0  0  0
   -0.7253    0.3780   -1.9075 O   0  0  0  0  0  0  0  0  0  0  0  0
    1.3316   -0.2532   -1.2416 N   0  0  0  0  0  0  0  0  0  0  0  0
    1.9002   -0.5311   -0.4577 H   0  0  0  0  0  0  0  0  0  0  0  0
    1.9750   -0.1237   -2.5483 C   0  0  0  0  0  0  0  0  0  0  0  0
    1.8380    0.8924   -2.9262 H   0  0  0  0  0  0  0  0  0  0  0  0
    3.0422   -0.3365   -2.4699 H   0  0  0  0  0  0  0  0  0  0  0  0
    1.5180   -0.8188   -3.2547 H   0  0  0  0  0  0  0  0  0  0  0  0
  5  6  2  0  0  0  0
  5  7  1  0  0  0  0
  2  3  1  0  0  0  0
  2  4  1  0  0  0  0
  2  5  1  0  0  0  0
  1  2  1  0  0  0  0
 22 23  2  0  0  0  0
 22 24  1  0  0  0  0
 19 20  1  0  0  0  0
 19 21  1  0  0  0  0
 17 18  2  0  0  0  0
 17 19  1  0  0  0  0
 14 15  1  0  0  0  0
 14 16  1  0  0  0  0
 14 17  1  0  0  0  0
 11 12  1  0  0  0  0
 11 13  1  0  0  0  0
 11 14  1  0  0  0  0
  9 10  1  0  0  0  0
  9 11  1  0  0  0  0
  9 22  1  0  0  0  0
  7  8  1  0  0  0  0
  7  9  1  0  0  0  0
 26 27  1  0  0  0  0
 26 28  1  0  0  0  0
 26 29  1  0  0  0  0
 24 25  1  0  0  0  0
 24 26  1  0  0  0  0
M  END
$$$$
default_name
  -OEChem-01062215323D

 29 28  0     1  0  0  0  0  0999 V2000
   -3.3998   -3.6239    1.3678 H   0  0  0  0  0  0  0  0  0  0  0  0
   -3.3608   -2.6749    0.8348 C   0  0  0  0  0  0  0  0  0  0  0  0
   -4.0988   -1.9909    1.2498 H   0  0  0  0  0  0  0  0  0  0  0  0
   -3.5618   -2.8419   -0.2222 H   0  0  0  0  0  0  0  0  0  0  0  0
   -1.9818   -2.0809    0.9918 C   0  0  0  0  0  0  0  0  0  0  0  0
   -1.1288   -2.6669    1.6468 O   0  0  0  0  0  0  0  0  0  0  0  0
   -1.7648   -0.9089    0.3998 N   0  0  0  0  0  0  0  0  0  0  0  0
   -2.5238   -0.4719   -0.1032 H   0  0  0  0  0  0  0  0  0  0  0  0
   -0.4848   -0.1959    0.4138 C   0  0  1  0  0  0  0  0  0  0  0  0
   -0.6390    0.7883    0.8591 H   0  0  0  0  0  0  0  0  0  0  0  0
    0.5080   -0.9753    1.2982 C   0  0  0  0  0  0  0  0  0  0  0  0
    0.5472   -2.0072    0.9431 H   0  0  0  0  0  0  0  0  0  0  0  0
    1.5019   -0.5388    1.1883 H   0  0  0  0  0  0  0  0  0  0  0  0
    0.1335   -0.9898    2.7904 C   0  0  0  0  0  0  0  0  0  0  0  0
    0.1048    0.0307    3.1717 H   0  0  0  0  0  0  0  0  0  0  0  0
   -0.8568   -1.4313    2.9023 H   0  0  0  0  0  0  0  0  0  0  0  0
    1.1151   -1.7871    3.6492 C   0  0  0  0  0  0  0  0  0  0  0  0
    2.0532   -2.4106    3.1890 O   0  0  0  0  0  0  0  0  0  0  0  0
    0.9430   -1.7946    4.9532 N   0  0  0  0  0  0  0  0  0  0  0  0
    1.6172   -2.3334    5.4686 H   0  0  0  0  0  0  0  0  0  0  0  0
    0.1900   -1.2970    5.3835 H   0  0  0  0  0  0  0  0  0  0  0  0
    0.0366    0.0047   -1.0176 C   0  0  0  0  0  0  0  0  0  0  0  0
   -0.6323    0.6299   -1.8383 O   0  0  0  0  0  0  0  0  0  0  0  0
    1.2248   -0.5342   -1.3198 N   0  0  0  0  0  0  0  0  0  0  0  0
    1.7269   -1.0112   -0.5881 H   0  0  0  0  0  0  0  0  0  0  0  0
    1.8502   -0.4431   -2.6385 C   0  0  0  0  0  0  0  0  0  0  0  0
    1.9551    0.6067   -2.9236 H   0  0  0  0  0  0  0  0  0  0  0  0
    2.8354   -0.9116   -2.6258 H   0  0  0  0  0  0  0  0  0  0  0  0
    1.2221   -0.9404   -3.3795 H   0  0  0  0  0  0  0  0  0  0  0  0
  5  6  2  0  0  0  0
  5  7  1  0  0  0  0
  2  3  1  0  0  0  0
  2  4  1  0  0  0  0
  2  5  1  0  0  0  0
  1  2  1  0  0  0  0
 22 23  2  0  0  0  0
 22 24  1  0  0  0  0
 19 20  1  0  0  0  0
 19 21  1  0  0  0  0
 17 18  2  0  0  0  0
 17 19  1  0  0  0  0
 14 15  1  0  0  0  0
 14 16  1  0  0  0  0
 14 17  1  0  0  0  0
 11 12  1  0  0  0  0
 11 13  1  0  0  0  0
 11 14  1  0  0  0  0
  9 10  1  0  0  0  0
  9 11  1  0  0  0  0
  9 22  1  0  0  0  0
  7  8  1  0  0  0  0
  7  9  1  0  0  0  0
 26 27  1  0  0  0  0
 26 28  1  0  0  0  0
 26 29  1  0  0  0  0
 24 25  1  0  0  0  0
 24 26  1  0  0  0  0
M  END
$$$$
default_name
  -OEChem-01062215323D

 29 28  0     1  0  0  0  0  0999 V2000
   -3.3998   -3.6239    1.3678 H   0  0  0  0  0  0  0  0  0  0  0  0
   -3.3608   -2.6749    0.8348 C   0  0  0  0  0  0  0  0  0  0  0  0
   -4.0988   -1.9909    1.2498 H   0  0  0  0  0  0  0  0  0  0  0  0
   -3.5618   -2.8419   -0.2222 H   0  0  0  0  0  0  0  0  0  0  0  0
   -1.9818   -2.0809    0.9918 C   0  0  0  0  0  0  0  0  0  0  0  0
   -1.1288   -2.6669    1.6468 O   0  0  0  0  0  0  0  0  0  0  0  0
   -1.7648   -0.9089    0.3998 N   0  0  0  0  0  0  0  0  0  0  0  0
   -2.5238   -0.4719   -0.1032 H   0  0  0  0  0  0  0  0  0  0  0  0
   -0.4848   -0.1959    0.4138 C   0  0  1  0  0  0  0  0  0  0  0  0
   -0.6390    0.7883    0.8591 H   0  0  0  0  0  0  0  0  0  0  0  0
    0.5080   -0.9753    1.2982 C   0  0  0  0  0  0  0  0  0  0  0  0
    0.5472   -2.0072    0.9431 H   0  0  0  0  0  0  0  0  0  0  0  0
    1.5019   -0.5388    1.1883 H   0  0  0  0  0  0  0  0  0  0  0  0
    0.1335   -0.9898    2.7904 C   0  0  0  0  0  0  0  0  0  0  0  0
    0.1048    0.0307    3.1717 H   0  0  0  0  0  0  0  0  0  0  0  0
   -0.8568   -1.4313    2.9023 H   0  0  0  0  0  0  0  0  0  0  0  0
    1.1151   -1.7871    3.6492 C   0  0  0  0  0  0  0  0  0  0  0  0
    2.0532   -2.4106    3.1890 O   0  0  0  0  0  0  0  0  0  0  0  0
    0.9430   -1.7946    4.9532 N   0  0  0  0  0  0  0  0  0  0  0  0
    1.6172   -2.3334    5.4686 H   0  0  0  0  0  0  0  0  0  0  0  0
    0.1900   -1.2970    5.3835 H   0  0  0  0  0  0  0  0  0  0  0  0
    0.0366    0.0047   -1.0176 C   0  0  0  0  0  0  0  0  0  0  0  0
   -0.4793    0.8447   -1.7525 O   0  0  0  0  0  0  0  0  0  0  0  0
    1.0513   -0.7731   -1.4165 N   0  0  0  0  0  0  0  0  0  0  0  0
    1.4394   -1.4217   -0.7504 H   0  0  0  0  0  0  0  0  0  0  0  0
    1.6495   -0.7135   -2.7495 C   0  0  0  0  0  0  0  0  0  0  0  0
    1.9994    0.3021   -2.9501 H   0  0  0  0  0  0  0  0  0  0  0  0
    2.4917   -1.4036   -2.8200 H   0  0  0  0  0  0  0  0  0  0  0  0
    0.9027   -0.9756   -3.5008 H   0  0  0  0  0  0  0  0  0  0  0  0
  5  6  2  0  0  0  0
  5  7  1  0  0  0  0
  2  3  1  0  0  0  0
  2  4  1  0  0  0  0
  2  5  1  0  0  0  0
  1  2  1  0  0  0  0
 22 23  2  0  0  0  0
 22 24  1  0  0  0  0
 19 20  1  0  0  0  0
 19 21  1  0  0  0  0
 17 18  2  0  0  0  0
 17 19  1  0  0  0  0
 14 15  1  0  0  0  0
 14 16  1  0  0  0  0
 14 17  1  0  0  0  0
 11 12  1  0  0  0  0
 11 13  1  0  0  0  0
 11 14  1  0  0  0  0
  9 10  1  0  0  0  0
  9 11  1  0  0  0  0
  9 22  1  0  0  0  0
  7  8  1  0  0  0  0
  7  9  1  0  0  0  0
 26 27  1  0  0  0  0
 26 28  1  0  0  0  0
 26 29  1  0  0  0  0
 24 25  1  0  0  0  0
 24 26  1  0  0  0  0
M  END
$$$$
default_name
  -OEChem-01062215323D

 29 28  0     1  0  0  0  0  0999 V2000
   -3.3998   -3.6239    1.3678 H   0  0  0  0  0  0  0  0  0  0  0  0
   -3.3608   -2.6749    0.8348 C   0  0  0  0  0  0  0  0  0  0  0  0
   -4.0988   -1.9909    1.2498 H   0  0  0  0  0  0  0  0  0  0  0  0
   -3.5618   -2.8419   -0.2222 H   0  0  0  0  0  0  0  0  0  0  0  0
   -1.9818   -2.0809    0.9918 C   0  0  0  0  0  0  0  0  0  0  0  0
   -1.1288   -2.6669    1.6468 O   0  0  0  0  0  0  0  0  0  0  0  0
   -1.7648   -0.9089    0.3998 N   0  0  0  0  0  0  0  0  0  0  0  0
   -2.5238   -0.4719   -0.1032 H   0  0  0  0  0  0  0  0  0  0  0  0
   -0.4848   -0.1959    0.4138 C   0  0  1  0  0  0  0  0  0  0  0  0
   -0.6390    0.7883    0.8591 H   0  0  0  0  0  0  0  0  0  0  0  0
    0.5080   -0.9753    1.2982 C   0  0  0  0  0  0  0  0  0  0  0  0
    0.5472   -2.0072    0.9431 H   0  0  0  0  0  0  0  0  0  0  0  0
    1.5019   -0.5388    1.1883 H   0  0  0  0  0  0  0  0  0  0  0  0
    0.1335   -0.9898    2.7904 C   0  0  0  0  0  0  0  0  0  0  0  0
    0.1048    0.0307    3.1717 H   0  0  0  0  0  0  0  0  0  0  0  0
   -0.8568   -1.4313    2.9023 H   0  0  0  0  0  0  0  0  0  0  0  0
    1.1151   -1.7871    3.6492 C   0  0  0  0  0  0  0  0  0  0  0  0
    2.0532   -2.4106    3.1890 O   0  0  0  0  0  0  0  0  0  0  0  0
    0.9430   -1.7946    4.9532 N   0  0  0  0  0  0  0  0  0  0  0  0
    1.6172   -2.3334    5.4686 H   0  0  0  0  0  0  0  0  0  0  0  0
    0.1900   -1.2970    5.3835 H   0  0  0  0  0  0  0  0  0  0  0  0
    0.0366    0.0047   -1.0176 C   0  0  0  0  0  0  0  0  0  0  0  0
   -0.2769    1.0078   -1.6559 O   0  0  0  0  0  0  0  0  0  0  0  0
    0.8228   -0.9534   -1.5250 N   0  0  0  0  0  0  0  0  0  0  0  0
    1.0572   -1.7346   -0.9334 H   0  0  0  0  0  0  0  0  0  0  0  0
    1.3868   -0.9166   -2.8737 C   0  0  0  0  0  0  0  0  0  0  0  0
    1.9679   -0.0004   -3.0040 H   0  0  0  0  0  0  0  0  0  0  0  0
    2.0345   -1.7788   -3.0391 H   0  0  0  0  0  0  0  0  0  0  0  0
    0.5816   -0.9218   -3.6102 H   0  0  0  0  0  0  0  0  0  0  0  0
  5  6  2  0  0  0  0
  5  7  1  0  0  0  0
  2  3  1  0  0  0  0
  2  4  1  0  0  0  0
  2  5  1  0  0  0  0
  1  2  1  0  0  0  0
 22 23  2  0  0  0  0
 22 24  1  0  0  0  0
 19 20  1  0  0  0  0
 19 21  1  0  0  0  0
 17 18  2  0  0  0  0
 17 19  1  0  0  0  0
 14 15  1  0  0  0  0
 14 16  1  0  0  0  0
 14 17  1  0  0  0  0
 11 12  1  0  0  0  0
 11 13  1  0  0  0  0
 11 14  1  0  0  0  0
  9 10  1  0  0  0  0
  9 11  1  0  0  0  0
  9 22  1  0  0  0  0
  7  8  1  0  0  0  0
  7  9  1  0  0  0  0
 26 27  1  0  0  0  0
 26 28  1  0  0  0  0
 26 29  1  0  0  0  0
 24 25  1  0  0  0  0
 24 26  1  0  0  0  0
M  END
$$$$
default_name
  -OEChem-01062215323D

 29 28  0     1  0  0  0  0  0999 V2000
   -3.3998   -3.6239    1.3678 H   0  0  0  0  0  0  0  0  0  0  0  0
   -3.3608   -2.6749    0.8348 C   0  0  0  0  0  0  0  0  0  0  0  0
   -4.0988   -1.9909    1.2498 H   0  0  0  0  0  0  0  0  0  0  0  0
   -3.5618   -2.8419   -0.2222 H   0  0  0  0  0  0  0  0  0  0  0  0
   -1.9818   -2.0809    0.9918 C   0  0  0  0  0  0  0  0  0  0  0  0
   -1.1288   -2.6669    1.6468 O   0  0  0  0  0  0  0  0  0  0  0  0
   -1.7648   -0.9089    0.3998 N   0  0  0  0  0  0  0  0  0  0  0  0
   -2.5238   -0.4719   -0.1032 H   0  0  0  0  0  0  0  0  0  0  0  0
   -0.4848   -0.1959    0.4138 C   0  0  1  0  0  0  0  0  0  0  0  0
   -0.6390    0.7883    0.8591 H   0  0  0  0  0  0  0  0  0  0  0  0
    0.5080   -0.9753    1.2982 C   0  0  0  0  0  0  0  0  0  0  0  0
    0.5472   -2.0072    0.9431 H   0  0  0  0  0  0  0  0  0  0  0  0
    1.5019   -0.5388    1.1883 H   0  0  0  0  0  0  0  0  0  0  0  0
    0.1335   -0.9898    2.7904 C   0  0  0  0  0  0  0  0  0  0  0  0
    0.1048    0.0307    3.1717 H   0  0  0  0  0  0  0  0  0  0  0  0
   -0.8568   -1.4313    2.9023 H   0  0  0  0  0  0  0  0  0  0  0  0
    1.1151   -1.7871    3.6492 C   0  0  0  0  0  0  0  0  0  0  0  0
    2.0532   -2.4106    3.1890 O   0  0  0  0  0  0  0  0  0  0  0  0
    0.9430   -1.7946    4.9532 N   0  0  0  0  0  0  0  0  0  0  0  0
    1.6172   -2.3334    5.4686 H   0  0  0  0  0  0  0  0  0  0  0  0
    0.1900   -1.2970    5.3835 H   0  0  0  0  0  0  0  0  0  0  0  0
    0.0366    0.0047   -1.0176 C   0  0  0  0  0  0  0  0  0  0  0  0
   -0.0387    1.1080   -1.5551 O   0  0  0  0  0  0  0  0  0  0  0  0
    0.5550   -1.0630   -1.6379 N   0  0  0  0  0  0  0  0  0  0  0  0
    0.6064   -1.9286   -1.1248 H   0  0  0  0  0  0  0  0  0  0  0  0
    1.0799   -1.0385   -3.0026 C   0  0  0  0  0  0  0  0  0  0  0  0
    1.8628   -0.2802   -3.0815 H   0  0  0  0  0  0  0  0  0  0  0  0
    1.4951   -2.0119   -3.2683 H   0  0  0  0  0  0  0  0  0  0  0  0
    0.2807   -0.7829   -3.7004 H   0  0  0  0  0  0  0  0  0  0  0  0
  5  6  2  0  0  0  0
  5  7  1  0  0  0  0
  2  3  1  0  0  0  0
  2  4  1  0  0  0  0
  2  5  1  0  0  0  0
  1  2  1  0  0  0  0
 22 23  2  0  0  0  0
 22 24  1  0  0  0  0
 19 20  1  0  0  0  0
 19 21  1  0  0  0  0
 17 18  2  0  0  0  0
 17 19  1  0  0  0  0
 14 15  1  0  0  0  0
 14 16  1  0  0  0  0
 14 17  1  0  0  0  0
 11 12  1  0  0  0  0
 11 13  1  0  0  0  0
 11 14  1  0  0  0  0
  9 10  1  0  0  0  0
  9 11  1  0  0  0  0
  9 22  1  0  0  0  0
  7  8  1  0  0  0  0
  7  9  1  0  0  0  0
 26 27  1  0  0  0  0
 26 28  1  0  0  0  0
 26 29  1  0  0  0  0
 24 25  1  0  0  0  0
 24 26  1  0  0  0  0
M  END
$$$$
default_name
  -OEChem-01062215323D

 29 28  0     1  0  0  0  0  0999 V2000
   -3.3998   -3.6239    1.3678 H   0  0  0  0  0  0  0  0  0  0  0  0
   -3.3608   -2.6749    0.8348 C   0  0  0  0  0  0  0  0  0  0  0  0
   -4.0988   -1.9909    1.2498 H   0  0  0  0  0  0  0  0  0  0  0  0
   -3.5618   -2.8419   -0.2222 H   0  0  0  0  0  0  0  0  0  0  0  0
   -1.9818   -2.0809    0.9918 C   0  0  0  0  0  0  0  0  0  0  0  0
   -1.1288   -2.6669    1.6468 O   0  0  0  0  0  0  0  0  0  0  0  0
   -1.7648   -0.9089    0.3998 N   0  0  0  0  0  0  0  0  0  0  0  0
   -2.5238   -0.4719   -0.1032 H   0  0  0  0  0  0  0  0  0  0  0  0
   -0.4848   -0.1959    0.4138 C   0  0  1  0  0  0  0  0  0  0  0  0
   -0.6390    0.7883    0.8591 H   0  0  0  0  0  0  0  0  0  0  0  0
    0.5080   -0.9753    1.2982 C   0  0  0  0  0  0  0  0  0  0  0  0
    0.5472   -2.0072    0.9431 H   0  0  0  0  0  0  0  0  0  0  0  0
    1.5019   -0.5388    1.1883 H   0  0  0  0  0  0  0  0  0  0  0  0
    0.1335   -0.9898    2.7904 C   0  0  0  0  0  0  0  0  0  0  0  0
    0.1048    0.0307    3.1717 H   0  0  0  0  0  0  0  0  0  0  0  0
   -0.8568   -1.4313    2.9023 H   0  0  0  0  0  0  0  0  0  0  0  0
    1.1151   -1.7871    3.6492 C   0  0  0  0  0  0  0  0  0  0  0  0
    2.0532   -2.4106    3.1890 O   0  0  0  0  0  0  0  0  0  0  0  0
    0.9430   -1.7946    4.9532 N   0  0  0  0  0  0  0  0  0  0  0  0
    1.6172   -2.3334    5.4686 H   0  0  0  0  0  0  0  0  0  0  0  0
    0.1900   -1.2970    5.3835 H   0  0  0  0  0  0  0  0  0  0  0  0
    0.0366    0.0047   -1.0176 C   0  0  0  0  0  0  0  0  0  0  0  0
    0.2189    1.1386   -1.4570 O   0  0  0  0  0  0  0  0  0  0  0  0
    0.2660   -1.0944   -1.7476 N   0  0  0  0  0  0  0  0  0  0  0  0
    0.1177   -1.9905   -1.3115 H   0  0  0  0  0  0  0  0  0  0  0  0
    0.7496   -1.0710   -3.1274 C   0  0  0  0  0  0  0  0  0  0  0  0
    1.6911   -0.5184   -3.1774 H   0  0  0  0  0  0  0  0  0  0  0  0
    0.9100   -2.0868   -3.4919 H   0  0  0  0  0  0  0  0  0  0  0  0
    0.0205   -0.5682   -3.7651 H   0  0  0  0  0  0  0  0  0  0  0  0
  5  6  2  0  0  0  0
  5  7  1  0  0  0  0
  2  3  1  0  0  0  0
  2  4  1  0  0  0  0
  2  5  1  0  0  0  0
  1  2  1  0  0  0  0
 22 23  2  0  0  0  0
 22 24  1  0  0  0  0
 19 20  1  0  0  0  0
 19 21  1  0  0  0  0
 17 18  2  0  0  0  0
 17 19  1  0  0  0  0
 14 15  1  0  0  0  0
 14 16  1  0  0  0  0
 14 17  1  0  0  0  0
 11 12  1  0  0  0  0
 11 13  1  0  0  0  0
 11 14  1  0  0  0  0
  9 10  1  0  0  0  0
  9 11  1  0  0  0  0
  9 22  1  0  0  0  0
  7  8  1  0  0  0  0
  7  9  1  0  0  0  0
 26 27  1  0  0  0  0
 26 28  1  0  0  0  0
 26 29  1  0  0  0  0
 24 25  1  0  0  0  0
 24 26  1  0  0  0  0
M  END
$$$$
default_name
  -OEChem-01062215323D

 29 28  0     1  0  0  0  0  0999 V2000
   -3.3998   -3.6239    1.3678 H   0  0  0  0  0  0  0  0  0  0  0  0
   -3.3608   -2.6749    0.8348 C   0  0  0  0  0  0  0  0  0  0  0  0
   -4.0988   -1.9909    1.2498 H   0  0  0  0  0  0  0  0  0  0  0  0
   -3.5618   -2.8419   -0.2222 H   0  0  0  0  0  0  0  0  0  0  0  0
   -1.9818   -2.0809    0.9918 C   0  0  0  0  0  0  0  0  0  0  0  0
   -1.1288   -2.6669    1.6468 O   0  0  0  0  0  0  0  0  0  0  0  0
   -1.7648   -0.9089    0.3998 N   0  0  0  0  0  0  0  0  0  0  0  0
   -2.5238   -0.4719   -0.1032 H   0  0  0  0  0  0  0  0  0  0  0  0
   -0.4848   -0.1959    0.4138 C   0  0  1  0  0  0  0  0  0  0  0  0
   -0.6390    0.7883    0.8591 H   0  0  0  0  0  0  0  0  0  0  0  0
    0.5080   -0.9753    1.2982 C   0  0  0  0  0  0  0  0  0  0  0  0
    0.5472   -2.0072    0.9431 H   0  0  0  0  0  0  0  0  0  0  0  0
    1.5019   -0.5388    1.1883 H   0  0  0  0  0  0  0  0  0  0  0  0
    0.1335   -0.9898    2.7904 C   0  0  0  0  0  0  0  0  0  0  0  0
    0.1048    0.0307    3.1717 H   0  0  0  0  0  0  0  0  0  0  0  0
   -0.8568   -1.4313    2.9023 H   0  0  0  0  0  0  0  0  0  0  0  0
    1.1151   -1.7871    3.6492 C   0  0  0  0  0  0  0  0  0  0  0  0
    2.0532   -2.4106    3.1890 O   0  0  0  0  0  0  0  0  0  0  0  0
    0.9430   -1.7946    4.9532 N   0  0  0  0  0  0  0  0  0  0  0  0
    1.6172   -2.3334    5.4686 H   0  0  0  0  0  0  0  0  0  0  0  0
    0.1900   -1.2970    5.3835 H   0  0  0  0  0  0  0  0  0  0  0  0
    0.0366    0.0047   -1.0176 C   0  0  0  0  0  0  0  0  0  0  0  0
    0.4784    1.0974   -1.3682 O   0  0  0  0  0  0  0  0  0  0  0  0
   -0.0243   -1.0454   -1.8465 N   0  0  0  0  0  0  0  0  0  0  0  0
   -0.3755   -1.9160   -1.4808 H   0  0  0  0  0  0  0  0  0  0  0  0
    0.4186   -1.0117   -3.2397 C   0  0  0  0  0  0  0  0  0  0  0  0
    1.4646   -0.6986   -3.2852 H   0  0  0  0  0  0  0  0  0  0  0  0
    0.3193   -1.9984   -3.6947 H   0  0  0  0  0  0  0  0  0  0  0  0
   -0.1813   -0.2925   -3.7999 H   0  0  0  0  0  0  0  0  0  0  0  0
  5  6  2  0  0  0  0
  5  7  1  0  0  0  0
  2  3  1  0  0  0  0
  2  4  1  0  0  0  0
  2  5  1  0  0  0  0
  1  2  1  0  0  0  0
 22 23  2  0  0  0  0
 22 24  1  0  0  0  0
 19 20  1  0  0  0  0
 19 21  1  0  0  0  0
 17 18  2  0  0  0  0
 17 19  1  0  0  0  0
 14 15  1  0  0  0  0
 14 16  1  0  0  0  0
 14 17  1  0  0  0  0
 11 12  1  0  0  0  0
 11 13  1  0  0  0  0
 11 14  1  0  0  0  0
  9 10  1  0  0  0  0
  9 11  1  0  0  0  0
  9 22  1  0  0  0  0
  7  8  1  0  0  0  0
  7  9  1  0  0  0  0
 26 27  1  0  0  0  0
 26 28  1  0  0  0  0
 26 29  1  0  0  0  0
 24 25  1  0  0  0  0
 24 26  1  0  0  0  0
M  END
$$$$
default_name
  -OEChem-01062215323D

 29 28  0     1  0  0  0  0  0999 V2000
   -3.3998   -3.6239    1.3678 H   0  0  0  0  0  0  0  0  0  0  0  0
   -3.3608   -2.6749    0.8348 C   0  0  0  0  0  0  0  0  0  0  0  0
   -4.0988   -1.9909    1.2498 H   0  0  0  0  0  0  0  0  0  0  0  0
   -3.5618   -2.8419   -0.2222 H   0  0  0  0  0  0  0  0  0  0  0  0
   -1.9818   -2.0809    0.9918 C   0  0  0  0  0  0  0  0  0  0  0  0
   -1.1288   -2.6669    1.6468 O   0  0  0  0  0  0  0  0  0  0  0  0
   -1.7648   -0.9089    0.3998 N   0  0  0  0  0  0  0  0  0  0  0  0
   -2.5238   -0.4719   -0.1032 H   0  0  0  0  0  0  0  0  0  0  0  0
   -0.4848   -0.1959    0.4138 C   0  0  1  0  0  0  0  0  0  0  0  0
   -0.6390    0.7883    0.8591 H   0  0  0  0  0  0  0  0  0  0  0  0
    0.5080   -0.9753    1.2982 C   0  0  0  0  0  0  0  0  0  0  0  0
    0.5472   -2.0072    0.9431 H   0  0  0  0  0  0  0  0  0  0  0  0
    1.5019   -0.5388    1.1883 H   0  0  0  0  0  0  0  0  0  0  0  0
    0.1335   -0.9898    2.7904 C   0  0  0  0  0  0  0  0  0  0  0  0
    0.1048    0.0307    3.1717 H   0  0  0  0  0  0  0  0  0  0  0  0
   -0.8568   -1.4313    2.9023 H   0  0  0  0  0  0  0  0  0  0  0  0
    1.1151   -1.7871    3.6492 C   0  0  0  0  0  0  0  0  0  0  0  0
    2.0532   -2.4106    3.1890 O   0  0  0  0  0  0  0  0  0  0  0  0
    0.9430   -1.7946    4.9532 N   0  0  0  0  0  0  0  0  0  0  0  0
    1.6172   -2.3334    5.4686 H   0  0  0  0  0  0  0  0  0  0  0  0
    0.1900   -1.2970    5.3835 H   0  0  0  0  0  0  0  0  0  0  0  0
    0.0366    0.0047   -1.0176 C   0  0  0  0  0  0  0  0  0  0  0  0
    0.7221    0.9872   -1.2949 O   0  0  0  0  0  0  0  0  0  0  0  0
   -0.2963   -0.9194   -1.9279 N   0  0  0  0  0  0  0  0  0  0  0  0
   -0.8398   -1.7103   -1.6211 H   0  0  0  0  0  0  0  0  0  0  0  0
    0.1093   -0.8648   -3.3318 C   0  0  0  0  0  0  0  0  0  0  0  0
    1.1987   -0.8086   -3.3974 H   0  0  0  0  0  0  0  0  0  0  0  0
   -0.2368   -1.7528   -3.8629 H   0  0  0  0  0  0  0  0  0  0  0  0
   -0.3108    0.0256   -3.8026 H   0  0  0  0  0  0  0  0  0  0  0  0
  5  6  2  0  0  0  0
  5  7  1  0  0  0  0
  2  3  1  0  0  0  0
  2  4  1  0  0  0  0
  2  5  1  0  0  0  0
  1  2  1  0  0  0  0
 22 23  2  0  0  0  0
 22 24  1  0  0  0  0
 19 20  1  0  0  0  0
 19 21  1  0  0  0  0
 17 18  2  0  0  0  0
 17 19  1  0  0  0  0
 14 15  1  0  0  0  0
 14 16  1  0  0  0  0
 14 17  1  0  0  0  0
 11 12  1  0  0  0  0
 11 13  1  0  0  0  0
 11 14  1  0  0  0  0
  9 10  1  0  0  0  0
  9 11  1  0  0  0  0
  9 22  1  0  0  0  0
  7  8  1  0  0  0  0
  7  9  1  0  0  0  0
 26 27  1  0  0  0  0
 26 28  1  0  0  0  0
 26 29  1  0  0  0  0
 24 25  1  0  0  0  0
 24 26  1  0  0  0  0
M  END
$$$$
default_name
  -OEChem-01062215323D

 29 28  0     1  0  0  0  0  0999 V2000
   -3.3998   -3.6239    1.3678 H   0  0  0  0  0  0  0  0  0  0  0  0
   -3.3608   -2.6749    0.8348 C   0  0  0  0  0  0  0  0  0  0  0  0
   -4.0988   -1.9909    1.2498 H   0  0  0  0  0  0  0  0  0  0  0  0
   -3.5618   -2.8419   -0.2222 H   0  0  0  0  0  0  0  0  0  0  0  0
   -1.9818   -2.0809    0.9918 C   0  0  0  0  0  0  0  0  0  0  0  0
   -1.1288   -2.6669    1.6468 O   0  0  0  0  0  0  0  0  0  0  0  0
   -1.7648   -0.9089    0.3998 N   0  0  0  0  0  0  0  0  0  0  0  0
   -2.5238   -0.4719   -0.1032 H   0  0  0  0  0  0  0  0  0  0  0  0
   -0.4848   -0.1959    0.4138 C   0  0  1  0  0  0  0  0  0  0  0  0
   -0.6390    0.7883    0.8591 H   0  0  0  0  0  0  0  0  0  0  0  0
    0.5080   -0.9753    1.2982 C   0  0  0  0  0  0  0  0  0  0  0  0
    0.5472   -2.0072    0.9431 H   0  0  0  0  0  0  0  0  0  0  0  0
    1.5019   -0.5388    1.1883 H   0  0  0  0  0  0  0  0  0  0  0  0
    0.1335   -0.9898    2.7904 C   0  0  0  0  0  0  0  0  0  0  0  0
    0.1048    0.0307    3.1717 H   0  0  0  0  0  0  0  0  0  0  0  0
   -0.8568   -1.4313    2.9023 H   0  0  0  0  0  0  0  0  0  0  0  0
    1.1151   -1.7871    3.6492 C   0  0  0  0  0  0  0  0  0  0  0  0
    2.0532   -2.4106    3.1890 O   0  0  0  0  0  0  0  0  0  0  0  0
    0.9430   -1.7946    4.9532 N   0  0  0  0  0  0  0  0  0  0  0  0
    1.6172   -2.3334    5.4686 H   0  0  0  0  0  0  0  0  0  0  0  0
    0.1900   -1.2970    5.3835 H   0  0  0  0  0  0  0  0  0  0  0  0
    0.0366    0.0047   -1.0176 C   0  0  0  0  0  0  0  0  0  0  0  0
    0.9334    0.8155   -1.2420 O   0  0  0  0  0  0  0  0  0  0  0  0
   -0.5314   -0.7249   -1.9863 N   0  0  0  0  0  0  0  0  0  0  0  0
   -1.2433   -1.3874   -1.7228 H   0  0  0  0  0  0  0  0  0  0  0  0
   -0.1571   -0.6403   -3.3973 C   0  0  0  0  0  0  0  0  0  0  0  0
    0.9116   -0.8409   -3.5066 H   0  0  0  0  0  0  0  0  0  0  0  0
   -0.7204   -1.3668   -3.9849 H   0  0  0  0  0  0  0  0  0  0  0  0
   -0.3594    0.3643   -3.7728 H   0  0  0  0  0  0  0  0  0  0  0  0
  5  6  2  0  0  0  0
  5  7  1  0  0  0  0
  2  3  1  0  0  0  0
  2  4  1  0  0  0  0
  2  5  1  0  0  0  0
  1  2  1  0  0  0  0
 22 23  2  0  0  0  0
 22 24  1  0  0  0  0
 19 20  1  0  0  0  0
 19 21  1  0  0  0  0
 17 18  2  0  0  0  0
 17 19  1  0  0  0  0
 14 15  1  0  0  0  0
 14 16  1  0  0  0  0
 14 17  1  0  0  0  0
 11 12  1  0  0  0  0
 11 13  1  0  0  0  0
 11 14  1  0  0  0  0
  9 10  1  0  0  0  0
  9 11  1  0  0  0  0
  9 22  1  0  0  0  0
  7  8  1  0  0  0  0
  7  9  1  0  0  0  0
 26 27  1  0  0  0  0
 26 28  1  0  0  0  0
 26 29  1  0  0  0  0
 24 25  1  0  0  0  0
 24 26  1  0  0  0  0
M  END
$$$$
default_name
  -OEChem-01062215323D

 29 28  0     1  0  0  0  0  0999 V2000
   -3.3998   -3.6239    1.3678 H   0  0  0  0  0  0  0  0  0  0  0  0
   -3.3608   -2.6749    0.8348 C   0  0  0  0  0  0  0  0  0  0  0  0
   -4.0988   -1.9909    1.2498 H   0  0  0  0  0  0  0  0  0  0  0  0
   -3.5618   -2.8419   -0.2222 H   0  0  0  0  0  0  0  0  0  0  0  0
   -1.9818   -2.0809    0.9918 C   0  0  0  0  0  0  0  0  0  0  0  0
   -1.1288   -2.6669    1.6468 O   0  0  0  0  0  0  0  0  0  0  0  0
   -1.7648   -0.9089    0.3998 N   0  0  0  0  0  0  0  0  0  0  0  0
   -2.5238   -0.4719   -0.1032 H   0  0  0  0  0  0  0  0  0  0  0  0
   -0.4848   -0.1959    0.4138 C   0  0  1  0  0  0  0  0  0  0  0  0
   -0.6390    0.7883    0.8591 H   0  0  0  0  0  0  0  0  0  0  0  0
    0.5080   -0.9753    1.2982 C   0  0  0  0  0  0  0  0  0  0  0  0
    0.5472   -2.0072    0.9431 H   0  0  0  0  0  0  0  0  0  0  0  0
    1.5019   -0.5388    1.1883 H   0  0  0  0  0  0  0  0  0  0  0  0
    0.1335   -0.9898    2.7904 C   0  0  0  0  0  0  0  0  0  0  0  0
    0.1048    0.0307    3.1717 H   0  0  0  0  0  0  0  0  0  0  0  0
   -0.8568   -1.4313    2.9023 H   0  0  0  0  0  0  0  0  0  0  0  0
    1.1151   -1.7871    3.6492 C   0  0  0  0  0  0  0  0  0  0  0  0
    2.0532   -2.4106    3.1890 O   0  0  0  0  0  0  0  0  0  0  0  0
    0.9430   -1.7946    4.9532 N   0  0  0  0  0  0  0  0  0  0  0  0
    1.6172   -2.3334    5.4686 H   0  0  0  0  0  0  0  0  0  0  0  0
    0.1900   -1.2970    5.3835 H   0  0  0  0  0  0  0  0  0  0  0  0
    0.0366    0.0047   -1.0176 C   0  0  0  0  0  0  0  0  0  0  0  0
    1.0979    0.5942   -1.2131 O   0  0  0  0  0  0  0  0  0  0  0  0
   -0.7136   -0.4753   -2.0177 N   0  0  0  0  0  0  0  0  0  0  0  0
   -1.5587   -0.9693   -1.7791 H   0  0  0  0  0  0  0  0  0  0  0  0
   -0.3625   -0.3534   -3.4320 C   0  0  0  0  0  0  0  0  0  0  0  0
    0.6227   -0.7933   -3.6051 H   0  0  0  0  0  0  0  0  0  0  0  0
   -1.0986   -0.8665   -4.0526 H   0  0  0  0  0  0  0  0  0  0  0  0
   -0.3236    0.7005   -3.7126 H   0  0  0  0  0  0  0  0  0  0  0  0
  5  6  2  0  0  0  0
  5  7  1  0  0  0  0
  2  3  1  0  0  0  0
  2  4  1  0  0  0  0
  2  5  1  0  0  0  0
  1  2  1  0  0  0  0
 22 23  2  0  0  0  0
 22 24  1  0  0  0  0
 19 20  1  0  0  0  0
 19 21  1  0  0  0  0
 17 18  2  0  0  0  0
 17 19  1  0  0  0  0
 14 15  1  0  0  0  0
 14 16  1  0  0  0  0
 14 17  1  0  0  0  0
 11 12  1  0  0  0  0
 11 13  1  0  0  0  0
 11 14  1  0  0  0  0
  9 10  1  0  0  0  0
  9 11  1  0  0  0  0
  9 22  1  0  0  0  0
  7  8  1  0  0  0  0
  7  9  1  0  0  0  0
 26 27  1  0  0  0  0
 26 28  1  0  0  0  0
 26 29  1  0  0  0  0
 24 25  1  0  0  0  0
 24 26  1  0  0  0  0
M  END
$$$$
default_name
  -OEChem-01062215323D

 29 28  0     1  0  0  0  0  0999 V2000
   -3.3998   -3.6239    1.3678 H   0  0  0  0  0  0  0  0  0  0  0  0
   -3.3608   -2.6749    0.8348 C   0  0  0  0  0  0  0  0  0  0  0  0
   -4.0988   -1.9909    1.2498 H   0  0  0  0  0  0  0  0  0  0  0  0
   -3.5618   -2.8419   -0.2222 H   0  0  0  0  0  0  0  0  0  0  0  0
   -1.9818   -2.0809    0.9918 C   0  0  0  0  0  0  0  0  0  0  0  0
   -1.1288   -2.6669    1.6468 O   0  0  0  0  0  0  0  0  0  0  0  0
   -1.7648   -0.9089    0.3998 N   0  0  0  0  0  0  0  0  0  0  0  0
   -2.5238   -0.4719   -0.1032 H   0  0  0  0  0  0  0  0  0  0  0  0
   -0.4848   -0.1959    0.4138 C   0  0  1  0  0  0  0  0  0  0  0  0
   -0.6390    0.7883    0.8591 H   0  0  0  0  0  0  0  0  0  0  0  0
    0.5080   -0.9753    1.2982 C   0  0  0  0  0  0  0  0  0  0  0  0
    0.5472   -2.0072    0.9431 H   0  0  0  0  0  0  0  0  0  0  0  0
    1.5019   -0.5388    1.1883 H   0  0  0  0  0  0  0  0  0  0  0  0
    0.1335   -0.9898    2.7904 C   0  0  0  0  0  0  0  0  0  0  0  0
    0.1048    0.0307    3.1717 H   0  0  0  0  0  0  0  0  0  0  0  0
   -0.8568   -1.4313    2.9023 H   0  0  0  0  0  0  0  0  0  0  0  0
    1.1151   -1.7871    3.6492 C   0  0  0  0  0  0  0  0  0  0  0  0
    2.0532   -2.4106    3.1890 O   0  0  0  0  0  0  0  0  0  0  0  0
    0.9430   -1.7946    4.9532 N   0  0  0  0  0  0  0  0  0  0  0  0
    1.6172   -2.3334    5.4686 H   0  0  0  0  0  0  0  0  0  0  0  0
    0.1900   -1.2970    5.3835 H   0  0  0  0  0  0  0  0  0  0  0  0
    0.0366    0.0047   -1.0176 C   0  0  0  0  0  0  0  0  0  0  0  0
    1.2045    0.3381   -1.2101 O   0  0  0  0  0  0  0  0  0  0  0  0
   -0.8305   -0.1874   -2.0199 N   0  0  0  0  0  0  0  0  0  0  0  0
   -1.7644   -0.4844   -1.7861 H   0  0  0  0  0  0  0  0  0  0  0  0
   -0.4929   -0.0237   -3.4333 C   0  0  0  0  0  0  0  0  0  0  0  0
    0.3519   -0.6690   -3.6864 H   0  0  0  0  0  0  0  0  0  0  0  0
   -1.3456   -0.2862   -4.0612 H   0  0  0  0  0  0  0  0  0  0  0  0
   -0.2060    1.0114   -3.6262 H   0  0  0  0  0  0  0  0  0  0  0  0
  5  6  2  0  0  0  0
  5  7  1  0  0  0  0
  2  3  1  0  0  0  0
  2  4  1  0  0  0  0
  2  5  1  0  0  0  0
  1  2  1  0  0  0  0
 22 23  2  0  0  0  0
 22 24  1  0  0  0  0
 19 20  1  0  0  0  0
 19 21  1  0  0  0  0
 17 18  2  0  0  0  0
 17 19  1  0  0  0  0
 14 15  1  0  0  0  0
 14 16  1  0  0  0  0
 14 17  1  0  0  0  0
 11 12  1  0  0  0  0
 11 13  1  0  0  0  0
 11 14  1  0  0  0  0
  9 10  1  0  0  0  0
  9 11  1  0  0  0  0
  9 22  1  0  0  0  0
  7  8  1  0  0  0  0
  7  9  1  0  0  0  0
 26 27  1  0  0  0  0
 26 28  1  0  0  0  0
 26 29  1  0  0  0  0
 24 25  1  0  0  0  0
 24 26  1  0  0  0  0
M  END
$$$$
default_name
  -OEChem-01062215323D

 29 28  0     1  0  0  0  0  0999 V2000
   -3.3998   -3.6239    1.3678 H   0  0  0  0  0  0  0  0  0  0  0  0
   -3.3608   -2.6749    0.8348 C   0  0  0  0  0  0  0  0  0  0  0  0
   -4.0988   -1.9909    1.2498 H   0  0  0  0  0  0  0  0  0  0  0  0
   -3.5618   -2.8419   -0.2222 H   0  0  0  0  0  0  0  0  0  0  0  0
   -1.9818   -2.0809    0.9918 C   0  0  0  0  0  0  0  0  0  0  0  0
   -1.1288   -2.6669    1.6468 O   0  0  0  0  0  0  0  0  0  0  0  0
   -1.7648   -0.9089    0.3998 N   0  0  0  0  0  0  0  0  0  0  0  0
   -2.5238   -0.4719   -0.1032 H   0  0  0  0  0  0  0  0  0  0  0  0
   -0.4848   -0.1959    0.4138 C   0  0  1  0  0  0  0  0  0  0  0  0
   -0.6390    0.7883    0.8591 H   0  0  0  0  0  0  0  0  0  0  0  0
    0.5080   -0.9753    1.2982 C   0  0  0  0  0  0  0  0  0  0  0  0
    0.5472   -2.0072    0.9431 H   0  0  0  0  0  0  0  0  0  0  0  0
    1.5019   -0.5388    1.1883 H   0  0  0  0  0  0  0  0  0  0  0  0
    0.1335   -0.9898    2.7904 C   0  0  0  0  0  0  0  0  0  0  0  0
    0.1048    0.0307    3.1717 H   0  0  0  0  0  0  0  0  0  0  0  0
   -0.8568   -1.4313    2.9023 H   0  0  0  0  0  0  0  0  0  0  0  0
    1.1151   -1.7871    3.6492 C   0  0  0  0  0  0  0  0  0  0  0  0
    2.0532   -2.4106    3.1890 O   0  0  0  0  0  0  0  0  0  0  0  0
    0.9430   -1.7946    4.9532 N   0  0  0  0  0  0  0  0  0  0  0  0
    1.6172   -2.3334    5.4686 H   0  0  0  0  0  0  0  0  0  0  0  0
    0.1900   -1.2970    5.3835 H   0  0  0  0  0  0  0  0  0  0  0  0
    0.0366    0.0047   -1.0176 C   0  0  0  0  0  0  0  0  0  0  0  0
    1.2457    0.0649   -1.2334 O   0  0  0  0  0  0  0  0  0  0  0  0
   -0.8740    0.1189   -1.9928 N   0  0  0  0  0  0  0  0  0  0  0  0
   -1.8464    0.0342   -1.7433 H   0  0  0  0  0  0  0  0  0  0  0  0
   -0.5394    0.3263   -3.4012 C   0  0  0  0  0  0  0  0  0  0  0  0
    0.1175   -0.4766   -3.7448 H   0  0  0  0  0  0  0  0  0  0  0  0
   -1.4446    0.3347   -4.0103 H   0  0  0  0  0  0  0  0  0  0  0  0
   -0.0145    1.2757   -3.5194 H   0  0  0  0  0  0  0  0  0  0  0  0
  5  6  2  0  0  0  0
  5  7  1  0  0  0  0
  2  3  1  0  0  0  0
  2  4  1  0  0  0  0
  2  5  1  0  0  0  0
  1  2  1  0  0  0  0
 22 23  2  0  0  0  0
 22 24  1  0  0  0  0
 19 20  1  0  0  0  0
 19 21  1  0  0  0  0
 17 18  2  0  0  0  0
 17 19  1  0  0  0  0
 14 15  1  0  0  0  0
 14 16  1  0  0  0  0
 14 17  1  0  0  0  0
 11 12  1  0  0  0  0
 11 13  1  0  0  0  0
 11 14  1  0  0  0  0
  9 10  1  0  0  0  0
  9 11  1  0  0  0  0
  9 22  1  0  0  0  0
  7  8  1  0  0  0  0
  7  9  1  0  0  0  0
 26 27  1  0  0  0  0
 26 28  1  0  0  0  0
 26 29  1  0  0  0  0
 24 25  1  0  0  0  0
 24 26  1  0  0  0  0
M  END
$$$$
default_name
  -OEChem-01062215323D

 29 28  0     1  0  0  0  0  0999 V2000
   -3.3998   -3.6239    1.3678 H   0  0  0  0  0  0  0  0  0  0  0  0
   -3.3608   -2.6749    0.8348 C   0  0  0  0  0  0  0  0  0  0  0  0
   -4.0988   -1.9909    1.2498 H   0  0  0  0  0  0  0  0  0  0  0  0
   -3.5618   -2.8419   -0.2222 H   0  0  0  0  0  0  0  0  0  0  0  0
   -1.9818   -2.0809    0.9918 C   0  0  0  0  0  0  0  0  0  0  0  0
   -1.1288   -2.6669    1.6468 O   0  0  0  0  0  0  0  0  0  0  0  0
   -1.7648   -0.9089    0.3998 N   0  0  0  0  0  0  0  0  0  0  0  0
   -2.5238   -0.4719   -0.1032 H   0  0  0  0  0  0  0  0  0  0  0  0
   -0.4848   -0.1959    0.4138 C   0  0  1  0  0  0  0  0  0  0  0  0
   -0.6390    0.7883    0.8591 H   0  0  0  0  0  0  0  0  0  0  0  0
    0.5080   -0.9753    1.2982 C   0  0  0  0  0  0  0  0  0  0  0  0
    0.5472   -2.0072    0.9431 H   0  0  0  0  0  0  0  0  0  0  0  0
    1.5019   -0.5388    1.1883 H   0  0  0  0  0  0  0  0  0  0  0  0
    0.1335   -0.9898    2.7904 C   0  0  0  0  0  0  0  0  0  0  0  0
    0.1048    0.0307    3.1717 H   0  0  0  0  0  0  0  0  0  0  0  0
   -0.8568   -1.4313    2.9023 H   0  0  0  0  0  0  0  0  0  0  0  0
    1.1151   -1.7871    3.6492 C   0  0  0  0  0  0  0  0  0  0  0  0
    2.0532   -2.4106    3.1890 O   0  0  0  0  0  0  0  0  0  0  0  0
    0.9430   -1.7946    4.9532 N   0  0  0  0  0  0  0  0  0  0  0  0
    1.6172   -2.3334    5.4686 H   0  0  0  0  0  0  0  0  0  0  0  0
    0.1900   -1.2970    5.3835 H   0  0  0  0  0  0  0  0  0  0  0  0
    0.0366    0.0047   -1.0176 C   0  0  0  0  0  0  0  0  0  0  0  0
    1.2189   -0.2070   -1.2813 O   0  0  0  0  0  0  0  0  0  0  0  0
   -0.8413    0.4230   -1.9383 N   0  0  0  0  0  0  0  0  0  0  0  0
   -1.7992    0.5512   -1.6536 H   0  0  0  0  0  0  0  0  0  0  0  0
   -0.4989    0.6728   -3.3378 C   0  0  0  0  0  0  0  0  0  0  0  0
   -0.0645   -0.2290   -3.7763 H   0  0  0  0  0  0  0  0  0  0  0  0
   -1.3887    0.9538   -3.9032 H   0  0  0  0  0  0  0  0  0  0  0  0
    0.2379    1.4755   -3.3995 H   0  0  0  0  0  0  0  0  0  0  0  0
  5  6  2  0  0  0  0
  5  7  1  0  0  0  0
  2  3  1  0  0  0  0
  2  4  1  0  0  0  0
  2  5  1  0  0  0  0
  1  2  1  0  0  0  0
 22 23  2  0  0  0  0
 22 24  1  0  0  0  0
 19 20  1  0  0  0  0
 19 21  1  0  0  0  0
 17 18  2  0  0  0  0
 17 19  1  0  0  0  0
 14 15  1  0  0  0  0
 14 16  1  0  0  0  0
 14 17  1  0  0  0  0
 11 12  1  0  0  0  0
 11 13  1  0  0  0  0
 11 14  1  0  0  0  0
  9 10  1  0  0  0  0
  9 11  1  0  0  0  0
  9 22  1  0  0  0  0
  7  8  1  0  0  0  0
  7  9  1  0  0  0  0
 26 27  1  0  0  0  0
 26 28  1  0  0  0  0
 26 29  1  0  0  0  0
 24 25  1  0  0  0  0
 24 26  1  0  0  0  0
M  END
$$$$
default_name
  -OEChem-01062215323D

 29 28  0     1  0  0  0  0  0999 V2000
   -3.3998   -3.6239    1.3678 H   0  0  0  0  0  0  0  0  0  0  0  0
   -3.3608   -2.6749    0.8348 C   0  0  0  0  0  0  0  0  0  0  0  0
   -4.0988   -1.9909    1.2498 H   0  0  0  0  0  0  0  0  0  0  0  0
   -3.5618   -2.8419   -0.2222 H   0  0  0  0  0  0  0  0  0  0  0  0
   -1.9818   -2.0809    0.9918 C   0  0  0  0  0  0  0  0  0  0  0  0
   -1.1288   -2.6669    1.6468 O   0  0  0  0  0  0  0  0  0  0  0  0
   -1.7648   -0.9089    0.3998 N   0  0  0  0  0  0  0  0  0  0  0  0
   -2.5238   -0.4719   -0.1032 H   0  0  0  0  0  0  0  0  0  0  0  0
   -0.4848   -0.1959    0.4138 C   0  0  1  0  0  0  0  0  0  0  0  0
   -0.6390    0.7883    0.8591 H   0  0  0  0  0  0  0  0  0  0  0  0
    0.5080   -0.9753    1.2982 C   0  0  0  0  0  0  0  0  0  0  0  0
    0.5472   -2.0072    0.9431 H   0  0  0  0  0  0  0  0  0  0  0  0
    1.5019   -0.5388    1.1883 H   0  0  0  0  0  0  0  0  0  0  0  0
    0.1335   -0.9898    2.7904 C   0  0  0  0  0  0  0  0  0  0  0  0
    0.1048    0.0307    3.1717 H   0  0  0  0  0  0  0  0  0  0  0  0
   -0.8568   -1.4313    2.9023 H   0  0  0  0  0  0  0  0  0  0  0  0
    1.1151   -1.7871    3.6492 C   0  0  0  0  0  0  0  0  0  0  0  0
    2.0532   -2.4106    3.1890 O   0  0  0  0  0  0  0  0  0  0  0  0
    0.9430   -1.7946    4.9532 N   0  0  0  0  0  0  0  0  0  0  0  0
    1.6172   -2.3334    5.4686 H   0  0  0  0  0  0  0  0  0  0  0  0
    0.1900   -1.2970    5.3835 H   0  0  0  0  0  0  0  0  0  0  0  0
    0.0366    0.0047   -1.0176 C   0  0  0  0  0  0  0  0  0  0  0  0
    1.1258   -0.4589   -1.3505 O   0  0  0  0  0  0  0  0  0  0  0  0
   -0.7345    0.7040   -1.8600 N   0  0  0  0  0  0  0  0  0  0  0  0
   -1.6259    1.0312   -1.5232 H   0  0  0  0  0  0  0  0  0  0  0  0
   -0.3741    0.9921   -3.2476 C   0  0  0  0  0  0  0  0  0  0  0  0
   -0.1816    0.0568   -3.7790 H   0  0  0  0  0  0  0  0  0  0  0  0
   -1.1819    1.5289   -3.7472 H   0  0  0  0  0  0  0  0  0  0  0  0
    0.5338    1.5971   -3.2746 H   0  0  0  0  0  0  0  0  0  0  0  0
  5  6  2  0  0  0  0
  5  7  1  0  0  0  0
  2  3  1  0  0  0  0
  2  4  1  0  0  0  0
  2  5  1  0  0  0  0
  1  2  1  0  0  0  0
 22 23  2  0  0  0  0
 22 24  1  0  0  0  0
 19 20  1  0  0  0  0
 19 21  1  0  0  0  0
 17 18  2  0  0  0  0
 17 19  1  0  0  0  0
 14 15  1  0  0  0  0
 14 16  1  0  0  0  0
 14 17  1  0  0  0  0
 11 12  1  0  0  0  0
 11 13  1  0  0  0  0
 11 14  1  0  0  0  0
  9 10  1  0  0  0  0
  9 11  1  0  0  0  0
  9 22  1  0  0  0  0
  7  8  1  0  0  0  0
  7  9  1  0  0  0  0
 26 27  1  0  0  0  0
 26 28  1  0  0  0  0
 26 29  1  0  0  0  0
 24 25  1  0  0  0  0
 24 26  1  0  0  0  0
M  END
$$$$
default_name
  -OEChem-01062215323D

 29 28  0     1  0  0  0  0  0999 V2000
   -3.3998   -3.6239    1.3678 H   0  0  0  0  0  0  0  0  0  0  0  0
   -3.3608   -2.6749    0.8348 C   0  0  0  0  0  0  0  0  0  0  0  0
   -4.0988   -1.9909    1.2498 H   0  0  0  0  0  0  0  0  0  0  0  0
   -3.5618   -2.8419   -0.2222 H   0  0  0  0  0  0  0  0  0  0  0  0
   -1.9818   -2.0809    0.9918 C   0  0  0  0  0  0  0  0  0  0  0  0
   -1.1288   -2.6669    1.6468 O   0  0  0  0  0  0  0  0  0  0  0  0
   -1.7648   -0.9089    0.3998 N   0  0  0  0  0  0  0  0  0  0  0  0
   -2.5238   -0.4719   -0.1032 H   0  0  0  0  0  0  0  0  0  0  0  0
   -0.4848   -0.1959    0.4138 C   0  0  1  0  0  0  0  0  0  0  0  0
   -0.6390    0.7883    0.8591 H   0  0  0  0  0  0  0  0  0  0  0  0
    0.5080   -0.9753    1.2982 C   0  0  0  0  0  0  0  0  0  0  0  0
    0.5472   -2.0072    0.9431 H   0  0  0  0  0  0  0  0  0  0  0  0
    1.5019   -0.5388    1.1883 H   0  0  0  0  0  0  0  0  0  0  0  0
    0.1335   -0.9898    2.7904 C   0  0  0  0  0  0  0  0  0  0  0  0
    0.1048    0.0307    3.1717 H   0  0  0  0  0  0  0  0  0  0  0  0
   -0.8568   -1.4313    2.9023 H   0  0  0  0  0  0  0  0  0  0  0  0
    1.1151   -1.7871    3.6492 C   0  0  0  0  0  0  0  0  0  0  0  0
    2.0532   -2.4106    3.1890 O   0  0  0  0  0  0  0  0  0  0  0  0
    0.9430   -1.7946    4.9532 N   0  0  0  0  0  0  0  0  0  0  0  0
    1.6172   -2.3334    5.4686 H   0  0  0  0  0  0  0  0  0  0  0  0
    0.1900   -1.2970    5.3835 H   0  0  0  0  0  0  0  0  0  0  0  0
    0.0366    0.0047   -1.0176 C   0  0  0  0  0  0  0  0  0  0  0  0
    0.9729   -0.6737   -1.4363 O   0  0  0  0  0  0  0  0  0  0  0  0
   -0.5610    0.9428   -1.7633 N   0  0  0  0  0  0  0  0  0  0  0  0
   -1.3384    1.4417   -1.3609 H   0  0  0  0  0  0  0  0  0  0  0  0
   -0.1734    1.2625   -3.1366 C   0  0  0  0  0  0  0  0  0  0  0  0
   -0.2259    0.3613   -3.7524 H   0  0  0  0  0  0  0  0  0  0  0  0
   -0.8382    2.0208   -3.5531 H   0  0  0  0  0  0  0  0  0  0  0  0
    0.8532    1.6322   -3.1533 H   0  0  0  0  0  0  0  0  0  0  0  0
  5  6  2  0  0  0  0
  5  7  1  0  0  0  0
  2  3  1  0  0  0  0
  2  4  1  0  0  0  0
  2  5  1  0  0  0  0
  1  2  1  0  0  0  0
 22 23  2  0  0  0  0
 22 24  1  0  0  0  0
 19 20  1  0  0  0  0
 19 21  1  0  0  0  0
 17 18  2  0  0  0  0
 17 19  1  0  0  0  0
 14 15  1  0  0  0  0
 14 16  1  0  0  0  0
 14 17  1  0  0  0  0
 11 12  1  0  0  0  0
 11 13  1  0  0  0  0
 11 14  1  0  0  0  0
  9 10  1  0  0  0  0
  9 11  1  0  0  0  0
  9 22  1  0  0  0  0
  7  8  1  0  0  0  0
  7  9  1  0  0  0  0
 26 27  1  0  0  0  0
 26 28  1  0  0  0  0
 26 29  1  0  0  0  0
 24 25  1  0  0  0  0
 24 26  1  0  0  0  0
M  END
$$$$
default_name
  -OEChem-01062215323D

 29 28  0     1  0  0  0  0  0999 V2000
   -3.3998   -3.6239    1.3678 H   0  0  0  0  0  0  0  0  0  0  0  0
   -3.3608   -2.6749    0.8348 C   0  0  0  0  0  0  0  0  0  0  0  0
   -4.0988   -1.9909    1.2498 H   0  0  0  0  0  0  0  0  0  0  0  0
   -3.5618   -2.8419   -0.2222 H   0  0  0  0  0  0  0  0  0  0  0  0
   -1.9818   -2.0809    0.9918 C   0  0  0  0  0  0  0  0  0  0  0  0
   -1.1288   -2.6669    1.6468 O   0  0  0  0  0  0  0  0  0  0  0  0
   -1.7648   -0.9089    0.3998 N   0  0  0  0  0  0  0  0  0  0  0  0
   -2.5238   -0.4719   -0.1032 H   0  0  0  0  0  0  0  0  0  0  0  0
   -0.4848   -0.1959    0.4138 C   0  0  1  0  0  0  0  0  0  0  0  0
   -0.6390    0.7883    0.8591 H   0  0  0  0  0  0  0  0  0  0  0  0
    0.5080   -0.9753    1.2982 C   0  0  0  0  0  0  0  0  0  0  0  0
    0.5472   -2.0072    0.9431 H   0  0  0  0  0  0  0  0  0  0  0  0
    1.5019   -0.5388    1.1883 H   0  0  0  0  0  0  0  0  0  0  0  0
    0.1335   -0.9898    2.7904 C   0  0  0  0  0  0  0  0  0  0  0  0
    0.1048    0.0307    3.1717 H   0  0  0  0  0  0  0  0  0  0  0  0
   -0.8568   -1.4313    2.9023 H   0  0  0  0  0  0  0  0  0  0  0  0
    1.1151   -1.7871    3.6492 C   0  0  0  0  0  0  0  0  0  0  0  0
    2.0532   -2.4106    3.1890 O   0  0  0  0  0  0  0  0  0  0  0  0
    0.9430   -1.7946    4.9532 N   0  0  0  0  0  0  0  0  0  0  0  0
    1.6172   -2.3334    5.4686 H   0  0  0  0  0  0  0  0  0  0  0  0
    0.1900   -1.2970    5.3835 H   0  0  0  0  0  0  0  0  0  0  0  0
    0.0366    0.0047   -1.0176 C   0  0  0  0  0  0  0  0  0  0  0  0
    0.7704   -0.8368   -1.5329 O   0  0  0  0  0  0  0  0  0  0  0  0
   -0.3325    1.1232   -1.6548 N   0  0  0  0  0  0  0  0  0  0  0  0
   -0.9562    1.7546   -1.1779 H   0  0  0  0  0  0  0  0  0  0  0  0
    0.0893    1.4656   -3.0125 C   0  0  0  0  0  0  0  0  0  0  0  0
   -0.1944    0.6638   -3.6986 H   0  0  0  0  0  0  0  0  0  0  0  0
   -0.3811    2.3961   -3.3339 H   0  0  0  0  0  0  0  0  0  0  0  0
    1.1743    1.5785   -3.0439 H   0  0  0  0  0  0  0  0  0  0  0  0
  5  6  2  0  0  0  0
  5  7  1  0  0  0  0
  2  3  1  0  0  0  0
  2  4  1  0  0  0  0
  2  5  1  0  0  0  0
  1  2  1  0  0  0  0
 22 23  2  0  0  0  0
 22 24  1  0  0  0  0
 19 20  1  0  0  0  0
 19 21  1  0  0  0  0
 17 18  2  0  0  0  0
 17 19  1  0  0  0  0
 14 15  1  0  0  0  0
 14 16  1  0  0  0  0
 14 17  1  0  0  0  0
 11 12  1  0  0  0  0
 11 13  1  0  0  0  0
 11 14  1  0  0  0  0
  9 10  1  0  0  0  0
  9 11  1  0  0  0  0
  9 22  1  0  0  0  0
  7  8  1  0  0  0  0
  7  9  1  0  0  0  0
 26 27  1  0  0  0  0
 26 28  1  0  0  0  0
 26 29  1  0  0  0  0
 24 25  1  0  0  0  0
 24 26  1  0  0  0  0
M  END
$$$$
default_name
  -OEChem-01062215323D

 29 28  0     1  0  0  0  0  0999 V2000
   -3.3998   -3.6239    1.3678 H   0  0  0  0  0  0  0  0  0  0  0  0
   -3.3608   -2.6749    0.8348 C   0  0  0  0  0  0  0  0  0  0  0  0
   -4.0988   -1.9909    1.2498 H   0  0  0  0  0  0  0  0  0  0  0  0
   -3.5618   -2.8419   -0.2222 H   0  0  0  0  0  0  0  0  0  0  0  0
   -1.9818   -2.0809    0.9918 C   0  0  0  0  0  0  0  0  0  0  0  0
   -1.1288   -2.6669    1.6468 O   0  0  0  0  0  0  0  0  0  0  0  0
   -1.7648   -0.9089    0.3998 N   0  0  0  0  0  0  0  0  0  0  0  0
   -2.5238   -0.4719   -0.1032 H   0  0  0  0  0  0  0  0  0  0  0  0
   -0.4848   -0.1959    0.4138 C   0  0  1  0  0  0  0  0  0  0  0  0
   -0.6390    0.7883    0.8591 H   0  0  0  0  0  0  0  0  0  0  0  0
    0.5080   -0.9753    1.2982 C   0  0  0  0  0  0  0  0  0  0  0  0
    0.5472   -2.0072    0.9431 H   0  0  0  0  0  0  0  0  0  0  0  0
    1.5019   -0.5388    1.1883 H   0  0  0  0  0  0  0  0  0  0  0  0
    0.1335   -0.9898    2.7904 C   0  0  0  0  0  0  0  0  0  0  0  0
    0.1048    0.0307    3.1717 H   0  0  0  0  0  0  0  0  0  0  0  0
   -0.8568   -1.4313    2.9023 H   0  0  0  0  0  0  0  0  0  0  0  0
    1.1151   -1.7871    3.6492 C   0  0  0  0  0  0  0  0  0  0  0  0
    2.0532   -2.4106    3.1890 O   0  0  0  0  0  0  0  0  0  0  0  0
    0.9430   -1.7946    4.9532 N   0  0  0  0  0  0  0  0  0  0  0  0
    1.6172   -2.3334    5.4686 H   0  0  0  0  0  0  0  0  0  0  0  0
    0.1900   -1.2970    5.3835 H   0  0  0  0  0  0  0  0  0  0  0  0
    0.0366    0.0047   -1.0176 C   0  0  0  0  0  0  0  0  0  0  0  0
    0.5323   -0.9370   -1.6337 O   0  0  0  0  0  0  0  0  0  0  0  0
   -0.0647    1.2328   -1.5419 N   0  0  0  0  0  0  0  0  0  0  0  0
   -0.5054    1.9486   -0.9865 H   0  0  0  0  0  0  0  0  0  0  0  0
    0.3962    1.5876   -2.8836 C   0  0  0  0  0  0  0  0  0  0  0  0
   -0.0893    0.9437   -3.6210 H   0  0  0  0  0  0  0  0  0  0  0  0
    0.1584    2.6292   -3.1048 H   0  0  0  0  0  0  0  0  0  0  0  0
    1.4752    1.4396   -2.9538 H   0  0  0  0  0  0  0  0  0  0  0  0
  5  6  2  0  0  0  0
  5  7  1  0  0  0  0
  2  3  1  0  0  0  0
  2  4  1  0  0  0  0
  2  5  1  0  0  0  0
  1  2  1  0  0  0  0
 22 23  2  0  0  0  0
 22 24  1  0  0  0  0
 19 20  1  0  0  0  0
 19 21  1  0  0  0  0
 17 18  2  0  0  0  0
 17 19  1  0  0  0  0
 14 15  1  0  0  0  0
 14 16  1  0  0  0  0
 14 17  1  0  0  0  0
 11 12  1  0  0  0  0
 11 13  1  0  0  0  0
 11 14  1  0  0  0  0
  9 10  1  0  0  0  0
  9 11  1  0  0  0  0
  9 22  1  0  0  0  0
  7  8  1  0  0  0  0
  7  9  1  0  0  0  0
 26 27  1  0  0  0  0
 26 28  1  0  0  0  0
 26 29  1  0  0  0  0
 24 25  1  0  0  0  0
 24 26  1  0  0  0  0
M  END
$$$$
default_name
  -OEChem-01062215323D

 29 28  0     1  0  0  0  0  0999 V2000
   -3.3998   -3.6239    1.3678 H   0  0  0  0  0  0  0  0  0  0  0  0
   -3.3608   -2.6749    0.8348 C   0  0  0  0  0  0  0  0  0  0  0  0
   -4.0988   -1.9909    1.2498 H   0  0  0  0  0  0  0  0  0  0  0  0
   -3.5618   -2.8419   -0.2222 H   0  0  0  0  0  0  0  0  0  0  0  0
   -1.9818   -2.0809    0.9918 C   0  0  0  0  0  0  0  0  0  0  0  0
   -1.1288   -2.6669    1.6468 O   0  0  0  0  0  0  0  0  0  0  0  0
   -1.7648   -0.9089    0.3998 N   0  0  0  0  0  0  0  0  0  0  0  0
   -2.5238   -0.4719   -0.1032 H   0  0  0  0  0  0  0  0  0  0  0  0
   -0.4848   -0.1959    0.4138 C   0  0  1  0  0  0  0  0  0  0  0  0
   -0.6390    0.7883    0.8591 H   0  0  0  0  0  0  0  0  0  0  0  0
    0.5080   -0.9753    1.2982 C   0  0  0  0  0  0  0  0  0  0  0  0
    0.5472   -2.0072    0.9431 H   0  0  0  0  0  0  0  0  0  0  0  0
    1.5019   -0.5388    1.1883 H   0  0  0  0  0  0  0  0  0  0  0  0
    0.1335   -0.9898    2.7904 C   0  0  0  0  0  0  0  0  0  0  0  0
    0.1048    0.0307    3.1717 H   0  0  0  0  0  0  0  0  0  0  0  0
   -0.8568   -1.4313    2.9023 H   0  0  0  0  0  0  0  0  0  0  0  0
    1.1151   -1.7871    3.6492 C   0  0  0  0  0  0  0  0  0  0  0  0
    2.0532   -2.4106    3.1890 O   0  0  0  0  0  0  0  0  0  0  0  0
    0.9430   -1.7946    4.9532 N   0  0  0  0  0  0  0  0  0  0  0  0
    1.6172   -2.3334    5.4686 H   0  0  0  0  0  0  0  0  0  0  0  0
    0.1900   -1.2970    5.3835 H   0  0  0  0  0  0  0  0  0  0  0  0
    0.0366    0.0047   -1.0176 C   0  0  0  0  0  0  0  0  0  0  0  0
    0.2747   -0.9676   -1.7318 O   0  0  0  0  0  0  0  0  0  0  0  0
    0.2243    1.2642   -1.4323 N   0  0  0  0  0  0  0  0  0  0  0  0
   -0.0167    2.0105   -0.7998 H   0  0  0  0  0  0  0  0  0  0  0  0
    0.7265    1.6200   -2.7587 C   0  0  0  0  0  0  0  0  0  0  0  0
    0.0824    1.1819   -3.5251 H   0  0  0  0  0  0  0  0  0  0  0  0
    0.7434    2.7040   -2.8812 H   0  0  0  0  0  0  0  0  0  0  0  0
    1.7354    1.2249   -2.8891 H   0  0  0  0  0  0  0  0  0  0  0  0
  5  6  2  0  0  0  0
  5  7  1  0  0  0  0
  2  3  1  0  0  0  0
  2  4  1  0  0  0  0
  2  5  1  0  0  0  0
  1  2  1  0  0  0  0
 22 23  2  0  0  0  0
 22 24  1  0  0  0  0
 19 20  1  0  0  0  0
 19 21  1  0  0  0  0
 17 18  2  0  0  0  0
 17 19  1  0  0  0  0
 14 15  1  0  0  0  0
 14 16  1  0  0  0  0
 14 17  1  0  0  0  0
 11 12  1  0  0  0  0
 11 13  1  0  0  0  0
 11 14  1  0  0  0  0
  9 10  1  0  0  0  0
  9 11  1  0  0  0  0
  9 22  1  0  0  0  0
  7  8  1  0  0  0  0
  7  9  1  0  0  0  0
 26 27  1  0  0  0  0
 26 28  1  0  0  0  0
 26 29  1  0  0  0  0
 24 25  1  0  0  0  0
 24 26  1  0  0  0  0
M  END
$$$$
default_name
  -OEChem-01062215323D

 29 28  0     1  0  0  0  0  0999 V2000
   -3.3998   -3.6239    1.3678 H   0  0  0  0  0  0  0  0  0  0  0  0
   -3.3608   -2.6749    0.8348 C   0  0  0  0  0  0  0  0  0  0  0  0
   -4.0988   -1.9909    1.2498 H   0  0  0  0  0  0  0  0  0  0  0  0
   -3.5618   -2.8419   -0.2222 H   0  0  0  0  0  0  0  0  0  0  0  0
   -1.9818   -2.0809    0.9918 C   0  0  0  0  0  0  0  0  0  0  0  0
   -1.1288   -2.6669    1.6468 O   0  0  0  0  0  0  0  0  0  0  0  0
   -1.7648   -0.9089    0.3998 N   0  0  0  0  0  0  0  0  0  0  0  0
   -2.5238   -0.4719   -0.1032 H   0  0  0  0  0  0  0  0  0  0  0  0
   -0.4848   -0.1959    0.4138 C   0  0  1  0  0  0  0  0  0  0  0  0
   -0.6390    0.7883    0.8591 H   0  0  0  0  0  0  0  0  0  0  0  0
    0.5080   -0.9753    1.2982 C   0  0  0  0  0  0  0  0  0  0  0  0
    0.5472   -2.0072    0.9431 H   0  0  0  0  0  0  0  0  0  0  0  0
    1.5019   -0.5388    1.1883 H   0  0  0  0  0  0  0  0  0  0  0  0
    0.1335   -0.9898    2.7904 C   0  0  0  0  0  0  0  0  0  0  0  0
    0.1048    0.0307    3.1717 H   0  0  0  0  0  0  0  0  0  0  0  0
   -0.8568   -1.4313    2.9023 H   0  0  0  0  0  0  0  0  0  0  0  0
    1.1151   -1.7871    3.6492 C   0  0  0  0  0  0  0  0  0  0  0  0
    2.0532   -2.4106    3.1890 O   0  0  0  0  0  0  0  0  0  0  0  0
    0.9430   -1.7946    4.9532 N   0  0  0  0  0  0  0  0  0  0  0  0
    1.6172   -2.3334    5.4686 H   0  0  0  0  0  0  0  0  0  0  0  0
    0.1900   -1.2970    5.3835 H   0  0  0  0  0  0  0  0  0  0  0  0
    0.0366    0.0047   -1.0176 C   0  0  0  0  0  0  0  0  0  0  0  0
    0.0152   -0.9263   -1.8206 O   0  0  0  0  0  0  0  0  0  0  0  0
    0.5146    1.2152   -1.3334 N   0  0  0  0  0  0  0  0  0  0  0  0
    0.4766    1.9360   -0.6305 H   0  0  0  0  0  0  0  0  0  0  0  0
    1.0575    1.5608   -2.6464 C   0  0  0  0  0  0  0  0  0  0  0  0
    0.3089    1.3621   -3.4174 H   0  0  0  0  0  0  0  0  0  0  0  0
    1.3341    2.6157   -2.6784 H   0  0  0  0  0  0  0  0  0  0  0  0
    1.9371    0.9492   -2.8542 H   0  0  0  0  0  0  0  0  0  0  0  0
  5  6  2  0  0  0  0
  5  7  1  0  0  0  0
  2  3  1  0  0  0  0
  2  4  1  0  0  0  0
  2  5  1  0  0  0  0
  1  2  1  0  0  0  0
 22 23  2  0  0  0  0
 22 24  1  0  0  0  0
 19 20  1  0  0  0  0
 19 21  1  0  0  0  0
 17 18  2  0  0  0  0
 17 19  1  0  0  0  0
 14 15  1  0  0  0  0
 14 16  1  0  0  0  0
 14 17  1  0  0  0  0
 11 12  1  0  0  0  0
 11 13  1  0  0  0  0
 11 14  1  0  0  0  0
  9 10  1  0  0  0  0
  9 11  1  0  0  0  0
  9 22  1  0  0  0  0
  7  8  1  0  0  0  0
  7  9  1  0  0  0  0
 26 27  1  0  0  0  0
 26 28  1  0  0  0  0
 26 29  1  0  0  0  0
 24 25  1  0  0  0  0
 24 26  1  0  0  0  0
M  END
$$$$
default_name
  -OEChem-01062215323D

 29 28  0     1  0  0  0  0  0999 V2000
   -3.3998   -3.6239    1.3678 H   0  0  0  0  0  0  0  0  0  0  0  0
   -3.3608   -2.6749    0.8348 C   0  0  0  0  0  0  0  0  0  0  0  0
   -4.0988   -1.9909    1.2498 H   0  0  0  0  0  0  0  0  0  0  0  0
   -3.5618   -2.8419   -0.2222 H   0  0  0  0  0  0  0  0  0  0  0  0
   -1.9818   -2.0809    0.9918 C   0  0  0  0  0  0  0  0  0  0  0  0
   -1.1288   -2.6669    1.6468 O   0  0  0  0  0  0  0  0  0  0  0  0
   -1.7648   -0.9089    0.3998 N   0  0  0  0  0  0  0  0  0  0  0  0
   -2.5238   -0.4719   -0.1032 H   0  0  0  0  0  0  0  0  0  0  0  0
   -0.4848   -0.1959    0.4138 C   0  0  1  0  0  0  0  0  0  0  0  0
   -0.6390    0.7883    0.8591 H   0  0  0  0  0  0  0  0  0  0  0  0
    0.5080   -0.9753    1.2982 C   0  0  0  0  0  0  0  0  0  0  0  0
    0.5472   -2.0072    0.9431 H   0  0  0  0  0  0  0  0  0  0  0  0
    1.5019   -0.5388    1.1883 H   0  0  0  0  0  0  0  0  0  0  0  0
    0.1335   -0.9898    2.7904 C   0  0  0  0  0  0  0  0  0  0  0  0
    0.1048    0.0307    3.1717 H   0  0  0  0  0  0  0  0  0  0  0  0
   -0.8568   -1.4313    2.9023 H   0  0  0  0  0  0  0  0  0  0  0  0
    1.1151   -1.7871    3.6492 C   0  0  0  0  0  0  0  0  0  0  0  0
    2.0532   -2.4106    3.1890 O   0  0  0  0  0  0  0  0  0  0  0  0
    0.9430   -1.7946    4.9532 N   0  0  0  0  0  0  0  0  0  0  0  0
    1.6172   -2.3334    5.4686 H   0  0  0  0  0  0  0  0  0  0  0  0
    0.1900   -1.2970    5.3835 H   0  0  0  0  0  0  0  0  0  0  0  0
    0.0366    0.0047   -1.0176 C   0  0  0  0  0  0  0  0  0  0  0  0
   -0.2285   -0.8161   -1.8939 O   0  0  0  0  0  0  0  0  0  0  0  0
    0.7866    1.0891   -1.2519 N   0  0  0  0  0  0  0  0  0  0  0  0
    0.9408    1.7304   -0.4902 H   0  0  0  0  0  0  0  0  0  0  0  0
    1.3668    1.4139   -2.5544 C   0  0  0  0  0  0  0  0  0  0  0  0
    0.5748    1.4721   -3.3051 H   0  0  0  0  0  0  0  0  0  0  0  0
    1.8903    2.3701   -2.5102 H   0  0  0  0  0  0  0  0  0  0  0  0
    2.0667    0.6311   -2.8516 H   0  0  0  0  0  0  0  0  0  0  0  0
  5  6  2  0  0  0  0
  5  7  1  0  0  0  0
  2  3  1  0  0  0  0
  2  4  1  0  0  0  0
  2  5  1  0  0  0  0
  1  2  1  0  0  0  0
 22 23  2  0  0  0  0
 22 24  1  0  0  0  0
 19 20  1  0  0  0  0
 19 21  1  0  0  0  0
 17 18  2  0  0  0  0
 17 19  1  0  0  0  0
 14 15  1  0  0  0  0
 14 16  1  0  0  0  0
 14 17  1  0  0  0  0
 11 12  1  0  0  0  0
 11 13  1  0  0  0  0
 11 14  1  0  0  0  0
  9 10  1  0  0  0  0
  9 11  1  0  0  0  0
  9 22  1  0  0  0  0
  7  8  1  0  0  0  0
  7  9  1  0  0  0  0
 26 27  1  0  0  0  0
 26 28  1  0  0  0  0
 26 29  1  0  0  0  0
 24 25  1  0  0  0  0
 24 26  1  0  0  0  0
M  END
$$$$
default_name
  -OEChem-01062215323D

 29 28  0     1  0  0  0  0  0999 V2000
   -3.3998   -3.6239    1.3678 H   0  0  0  0  0  0  0  0  0  0  0  0
   -3.3608   -2.6749    0.8348 C   0  0  0  0  0  0  0  0  0  0  0  0
   -4.0988   -1.9909    1.2498 H   0  0  0  0  0  0  0  0  0  0  0  0
   -3.5618   -2.8419   -0.2222 H   0  0  0  0  0  0  0  0  0  0  0  0
   -1.9818   -2.0809    0.9918 C   0  0  0  0  0  0  0  0  0  0  0  0
   -1.1288   -2.6669    1.6468 O   0  0  0  0  0  0  0  0  0  0  0  0
   -1.7648   -0.9089    0.3998 N   0  0  0  0  0  0  0  0  0  0  0  0
   -2.5238   -0.4719   -0.1032 H   0  0  0  0  0  0  0  0  0  0  0  0
   -0.4848   -0.1959    0.4138 C   0  0  1  0  0  0  0  0  0  0  0  0
   -0.6390    0.7883    0.8591 H   0  0  0  0  0  0  0  0  0  0  0  0
    0.5080   -0.9753    1.2982 C   0  0  0  0  0  0  0  0  0  0  0  0
    0.5472   -2.0072    0.9431 H   0  0  0  0  0  0  0  0  0  0  0  0
    1.5019   -0.5388    1.1883 H   0  0  0  0  0  0  0  0  0  0  0  0
    0.1335   -0.9898    2.7904 C   0  0  0  0  0  0  0  0  0  0  0  0
    0.1048    0.0307    3.1717 H   0  0  0  0  0  0  0  0  0  0  0  0
   -0.8568   -1.4313    2.9023 H   0  0  0  0  0  0  0  0  0  0  0  0
    1.1151   -1.7871    3.6492 C   0  0  0  0  0  0  0  0  0  0  0  0
    2.0532   -2.4106    3.1890 O   0  0  0  0  0  0  0  0  0  0  0  0
    0.9430   -1.7946    4.9532 N   0  0  0  0  0  0  0  0  0  0  0  0
    1.6172   -2.3334    5.4686 H   0  0  0  0  0  0  0  0  0  0  0  0
    0.1900   -1.2970    5.3835 H   0  0  0  0  0  0  0  0  0  0  0  0
    0.0366    0.0047   -1.0176 C   0  0  0  0  0  0  0  0  0  0  0  0
   -0.4399   -0.6445   -1.9468 O   0  0  0  0  0  0  0  0  0  0  0  0
    1.0217    0.8947   -1.1936 N   0  0  0  0  0  0  0  0  0  0  0  0
    1.3443    1.4074   -0.3885 H   0  0  0  0  0  0  0  0  0  0  0  0
    1.6332    1.1893   -2.4888 C   0  0  0  0  0  0  0  0  0  0  0  0
    0.8619    1.5044   -3.1960 H   0  0  0  0  0  0  0  0  0  0  0  0
    2.3739    1.9840   -2.3881 H   0  0  0  0  0  0  0  0  0  0  0  0
    2.1153    0.2924   -2.8814 H   0  0  0  0  0  0  0  0  0  0  0  0
  5  6  2  0  0  0  0
  5  7  1  0  0  0  0
  2  3  1  0  0  0  0
  2  4  1  0  0  0  0
  2  5  1  0  0  0  0
  1  2  1  0  0  0  0
 22 23  2  0  0  0  0
 22 24  1  0  0  0  0
 19 20  1  0  0  0  0
 19 21  1  0  0  0  0
 17 18  2  0  0  0  0
 17 19  1  0  0  0  0
 14 15  1  0  0  0  0
 14 16  1  0  0  0  0
 14 17  1  0  0  0  0
 11 12  1  0  0  0  0
 11 13  1  0  0  0  0
 11 14  1  0  0  0  0
  9 10  1  0  0  0  0
  9 11  1  0  0  0  0
  9 22  1  0  0  0  0
  7  8  1  0  0  0  0
  7  9  1  0  0  0  0
 26 27  1  0  0  0  0
 26 28  1  0  0  0  0
 26 29  1  0  0  0  0
 24 25  1  0  0  0  0
 24 26  1  0  0  0  0
M  END
$$$$
default_name
  -OEChem-01062215323D

 29 28  0     1  0  0  0  0  0999 V2000
   -3.3998   -3.6239    1.3678 H   0  0  0  0  0  0  0  0  0  0  0  0
   -3.3608   -2.6749    0.8348 C   0  0  0  0  0  0  0  0  0  0  0  0
   -4.0988   -1.9909    1.2498 H   0  0  0  0  0  0  0  0  0  0  0  0
   -3.5618   -2.8419   -0.2222 H   0  0  0  0  0  0  0  0  0  0  0  0
   -1.9818   -2.0809    0.9918 C   0  0  0  0  0  0  0  0  0  0  0  0
   -1.1288   -2.6669    1.6468 O   0  0  0  0  0  0  0  0  0  0  0  0
   -1.7648   -0.9089    0.3998 N   0  0  0  0  0  0  0  0  0  0  0  0
   -2.5238   -0.4719   -0.1032 H   0  0  0  0  0  0  0  0  0  0  0  0
   -0.4848   -0.1959    0.4138 C   0  0  1  0  0  0  0  0  0  0  0  0
   -0.5697    0.6595    1.0860 H   0  0  0  0  0  0  0  0  0  0  0  0
    0.6023   -1.1380    0.9670 C   0  0  0  0  0  0  0  0  0  0  0  0
    0.5839   -2.0622    0.3856 H   0  0  0  0  0  0  0  0  0  0  0  0
    1.5795   -0.6712    0.8346 H   0  0  0  0  0  0  0  0  0  0  0  0
    0.4190   -1.4957    2.4522 C   0  0  0  0  0  0  0  0  0  0  0  0
    0.4509   -0.5883    3.0549 H   0  0  0  0  0  0  0  0  0  0  0  0
   -0.5545   -1.9677    2.5848 H   0  0  0  0  0  0  0  0  0  0  0  0
    1.4915   -2.4496    2.9779 C   0  0  0  0  0  0  0  0  0  0  0  0
    2.3565   -2.9370    2.2745 O   0  0  0  0  0  0  0  0  0  0  0  0
    1.4853   -2.7544    4.2574 N   0  0  0  0  0  0  0  0  0  0  0  0
    2.2126   -3.3843    4.5486 H   0  0  0  0  0  0  0  0  0  0  0  0
    0.7987   -2.3798    4.8803 H   0  0  0  0  0  0  0  0  0  0  0  0
   -0.1458    0.3317   -0.9889 C   0  0  0  0  0  0  0  0  0  0  0  0
   -0.9078    0.1206   -1.9307 O   0  0  0  0  0  0  0  0  0  0  0  0
    1.0014    1.0079   -1.1304 N   0  0  0  0  0  0  0  0  0  0  0  0
    1.5625    1.1634   -0.3081 H   0  0  0  0  0  0  0  0  0  0  0  0
    1.4710    1.5612   -2.3999 C   0  0  0  0  0  0  0  0  0  0  0  0
    0.7142    2.2349   -2.8094 H   0  0  0  0  0  0  0  0  0  0  0  0
    2.4010    2.1128   -2.2540 H   0  0  0  0  0  0  0  0  0  0  0  0
    1.6371    0.7538   -3.1150 H   0  0  0  0  0  0  0  0  0  0  0  0
  5  6  2  0  0  0  0
  5  7  1  0  0  0  0
  2  3  1  0  0  0  0
  2  4  1  0  0  0  0
  2  5  1  0  0  0  0
  1  2  1  0  0  0  0
 22 23  2  0  0  0  0
 22 24  1  0  0  0  0
 19 20  1  0  0  0  0
 19 21  1  0  0  0  0
 17 18  2  0  0  0  0
 17 19  1  0  0  0  0
 14 15  1  0  0  0  0
 14 16  1  0  0  0  0
 14 17  1  0  0  0  0
 11 12  1  0  0  0  0
 11 13  1  0  0  0  0
 11 14  1  0  0  0  0
  9 10  1  0  0  0  0
  9 11  1  0  0  0  0
  9 22  1  0  0  0  0
  7  8  1  0  0  0  0
  7  9  1  0  0  0  0
 26 27  1  0  0  0  0
 26 28  1  0  0  0  0
 26 29  1  0  0  0  0
 24 25  1  0  0  0  0
 24 26  1  0  0  0  0
M  END
$$$$
default_name
  -OEChem-01062215323D

 29 28  0     1  0  0  0  0  0999 V2000
   -3.3998   -3.6239    1.3678 H   0  0  0  0  0  0  0  0  0  0  0  0
   -3.3608   -2.6749    0.8348 C   0  0  0  0  0  0  0  0  0  0  0  0
   -4.0988   -1.9909    1.2498 H   0  0  0  0  0  0  0  0  0  0  0  0
   -3.5618   -2.8419   -0.2222 H   0  0  0  0  0  0  0  0  0  0  0  0
   -1.9818   -2.0809    0.9918 C   0  0  0  0  0  0  0  0  0  0  0  0
   -1.1288   -2.6669    1.6468 O   0  0  0  0  0  0  0  0  0  0  0  0
   -1.7648   -0.9089    0.3998 N   0  0  0  0  0  0  0  0  0  0  0  0
   -2.5238   -0.4719   -0.1032 H   0  0  0  0  0  0  0  0  0  0  0  0
   -0.4848   -0.1959    0.4138 C   0  0  1  0  0  0  0  0  0  0  0  0
   -0.5697    0.6595    1.0860 H   0  0  0  0  0  0  0  0  0  0  0  0
    0.6023   -1.1380    0.9670 C   0  0  0  0  0  0  0  0  0  0  0  0
    0.5839   -2.0622    0.3856 H   0  0  0  0  0  0  0  0  0  0  0  0
    1.5795   -0.6712    0.8346 H   0  0  0  0  0  0  0  0  0  0  0  0
    0.4190   -1.4957    2.4522 C   0  0  0  0  0  0  0  0  0  0  0  0
    0.4509   -0.5883    3.0549 H   0  0  0  0  0  0  0  0  0  0  0  0
   -0.5545   -1.9677    2.5848 H   0  0  0  0  0  0  0  0  0  0  0  0
    1.4915   -2.4496    2.9779 C   0  0  0  0  0  0  0  0  0  0  0  0
    2.3565   -2.9370    2.2745 O   0  0  0  0  0  0  0  0  0  0  0  0
    1.4853   -2.7544    4.2574 N   0  0  0  0  0  0  0  0  0  0  0  0
    2.2126   -3.3843    4.5486 H   0  0  0  0  0  0  0  0  0  0  0  0
    0.7987   -2.3798    4.8803 H   0  0  0  0  0  0  0  0  0  0  0  0
   -0.1458    0.3317   -0.9889 C   0  0  0  0  0  0  0  0  0  0  0  0
   -1.0107    0.3689   -1.8622 O   0  0  0  0  0  0  0  0  0  0  0  0
    1.1142    0.7290   -1.2081 N   0  0  0  0  0  0  0  0  0  0  0  0
    1.7616    0.6930   -0.4369 H   0  0  0  0  0  0  0  0  0  0  0  0
    1.5966    1.2420   -2.4896 C   0  0  0  0  0  0  0  0  0  0  0  0
    0.9916    2.1000   -2.7931 H   0  0  0  0  0  0  0  0  0  0  0  0
    2.6401    1.5498   -2.4080 H   0  0  0  0  0  0  0  0  0  0  0  0
    1.5058    0.4685   -3.2541 H   0  0  0  0  0  0  0  0  0  0  0  0
  5  6  2  0  0  0  0
  5  7  1  0  0  0  0
  2  3  1  0  0  0  0
  2  4  1  0  0  0  0
  2  5  1  0  0  0  0
  1  2  1  0  0  0  0
 22 23  2  0  0  0  0
 22 24  1  0  0  0  0
 19 20  1  0  0  0  0
 19 21  1  0  0  0  0
 17 18  2  0  0  0  0
 17 19  1  0  0  0  0
 14 15  1  0  0  0  0
 14 16  1  0  0  0  0
 14 17  1  0  0  0  0
 11 12  1  0  0  0  0
 11 13  1  0  0  0  0
 11 14  1  0  0  0  0
  9 10  1  0  0  0  0
  9 11  1  0  0  0  0
  9 22  1  0  0  0  0
  7  8  1  0  0  0  0
  7  9  1  0  0  0  0
 26 27  1  0  0  0  0
 26 28  1  0  0  0  0
 26 29  1  0  0  0  0
 24 25  1  0  0  0  0
 24 26  1  0  0  0  0
M  END
$$$$
default_name
  -OEChem-01062215323D

 29 28  0     1  0  0  0  0  0999 V2000
   -3.3998   -3.6239    1.3678 H   0  0  0  0  0  0  0  0  0  0  0  0
   -3.3608   -2.6749    0.8348 C   0  0  0  0  0  0  0  0  0  0  0  0
   -4.0988   -1.9909    1.2498 H   0  0  0  0  0  0  0  0  0  0  0  0
   -3.5618   -2.8419   -0.2222 H   0  0  0  0  0  0  0  0  0  0  0  0
   -1.9818   -2.0809    0.9918 C   0  0  0  0  0  0  0  0  0  0  0  0
   -1.1288   -2.6669    1.6468 O   0  0  0  0  0  0  0  0  0  0  0  0
   -1.7648   -0.9089    0.3998 N   0  0  0  0  0  0  0  0  0  0  0  0
   -2.5238   -0.4719   -0.1032 H   0  0  0  0  0  0  0  0  0  0  0  0
   -0.4848   -0.1959    0.4138 C   0  0  1  0  0  0  0  0  0  0  0  0
   -0.5697    0.6595    1.0860 H   0  0  0  0  0  0  0  0  0  0  0  0
    0.6023   -1.1380    0.9670 C   0  0  0  0  0  0  0  0  0  0  0  0
    0.5839   -2.0622    0.3856 H   0  0  0  0  0  0  0  0  0  0  0  0
    1.5795   -0.6712    0.8346 H   0  0  0  0  0  0  0  0  0  0  0  0
    0.4190   -1.4957    2.4522 C   0  0  0  0  0  0  0  0  0  0  0  0
    0.4509   -0.5883    3.0549 H   0  0  0  0  0  0  0  0  0  0  0  0
   -0.5545   -1.9677    2.5848 H   0  0  0  0  0  0  0  0  0  0  0  0
    1.4915   -2.4496    2.9779 C   0  0  0  0  0  0  0  0  0  0  0  0
    2.3565   -2.9370    2.2745 O   0  0  0  0  0  0  0  0  0  0  0  0
    1.4853   -2.7544    4.2574 N   0  0  0  0  0  0  0  0  0  0  0  0
    2.2126   -3.3843    4.5486 H   0  0  0  0  0  0  0  0  0  0  0  0
    0.7987   -2.3798    4.8803 H   0  0  0  0  0  0  0  0  0  0  0  0
   -0.1458    0.3317   -0.9889 C   0  0  0  0  0  0  0  0  0  0  0  0
   -1.0454    0.6291   -1.7727 O   0  0  0  0  0  0  0  0  0  0  0  0
    1.1503    0.4375   -1.3090 N   0  0  0  0  0  0  0  0  0  0  0  0
    1.8313    0.1990   -0.6059 H   0  0  0  0  0  0  0  0  0  0  0  0
    1.6345    0.9092   -2.6057 C   0  0  0  0  0  0  0  0  0  0  0  0
    1.2292    1.9033   -2.8096 H   0  0  0  0  0  0  0  0  0  0  0  0
    2.7244    0.9583   -2.6101 H   0  0  0  0  0  0  0  0  0  0  0  0
    1.2991    0.2319   -3.3930 H   0  0  0  0  0  0  0  0  0  0  0  0
  5  6  2  0  0  0  0
  5  7  1  0  0  0  0
  2  3  1  0  0  0  0
  2  4  1  0  0  0  0
  2  5  1  0  0  0  0
  1  2  1  0  0  0  0
 22 23  2  0  0  0  0
 22 24  1  0  0  0  0
 19 20  1  0  0  0  0
 19 21  1  0  0  0  0
 17 18  2  0  0  0  0
 17 19  1  0  0  0  0
 14 15  1  0  0  0  0
 14 16  1  0  0  0  0
 14 17  1  0  0  0  0
 11 12  1  0  0  0  0
 11 13  1  0  0  0  0
 11 14  1  0  0  0  0
  9 10  1  0  0  0  0
  9 11  1  0  0  0  0
  9 22  1  0  0  0  0
  7  8  1  0  0  0  0
  7  9  1  0  0  0  0
 26 27  1  0  0  0  0
 26 28  1  0  0  0  0
 26 29  1  0  0  0  0
 24 25  1  0  0  0  0
 24 26  1  0  0  0  0
M  END
$$$$
default_name
  -OEChem-01062215323D

 29 28  0     1  0  0  0  0  0999 V2000
   -3.3998   -3.6239    1.3678 H   0  0  0  0  0  0  0  0  0  0  0  0
   -3.3608   -2.6749    0.8348 C   0  0  0  0  0  0  0  0  0  0  0  0
   -4.0988   -1.9909    1.2498 H   0  0  0  0  0  0  0  0  0  0  0  0
   -3.5618   -2.8419   -0.2222 H   0  0  0  0  0  0  0  0  0  0  0  0
   -1.9818   -2.0809    0.9918 C   0  0  0  0  0  0  0  0  0  0  0  0
   -1.1288   -2.6669    1.6468 O   0  0  0  0  0  0  0  0  0  0  0  0
   -1.7648   -0.9089    0.3998 N   0  0  0  0  0  0  0  0  0  0  0  0
   -2.5238   -0.4719   -0.1032 H   0  0  0  0  0  0  0  0  0  0  0  0
   -0.4848   -0.1959    0.4138 C   0  0  1  0  0  0  0  0  0  0  0  0
   -0.5697    0.6595    1.0860 H   0  0  0  0  0  0  0  0  0  0  0  0
    0.6023   -1.1380    0.9670 C   0  0  0  0  0  0  0  0  0  0  0  0
    0.5839   -2.0622    0.3856 H   0  0  0  0  0  0  0  0  0  0  0  0
    1.5795   -0.6712    0.8346 H   0  0  0  0  0  0  0  0  0  0  0  0
    0.4190   -1.4957    2.4522 C   0  0  0  0  0  0  0  0  0  0  0  0
    0.4509   -0.5883    3.0549 H   0  0  0  0  0  0  0  0  0  0  0  0
   -0.5545   -1.9677    2.5848 H   0  0  0  0  0  0  0  0  0  0  0  0
    1.4915   -2.4496    2.9779 C   0  0  0  0  0  0  0  0  0  0  0  0
    2.3565   -2.9370    2.2745 O   0  0  0  0  0  0  0  0  0  0  0  0
    1.4853   -2.7544    4.2574 N   0  0  0  0  0  0  0  0  0  0  0  0
    2.2126   -3.3843    4.5486 H   0  0  0  0  0  0  0  0  0  0  0  0
    0.7987   -2.3798    4.8803 H   0  0  0  0  0  0  0  0  0  0  0  0
   -0.1458    0.3317   -0.9889 C   0  0  0  0  0  0  0  0  0  0  0  0
   -1.0095    0.8835   -1.6684 O   0  0  0  0  0  0  0  0  0  0  0  0
    1.1073    0.1531   -1.4264 N   0  0  0  0  0  0  0  0  0  0  0  0
    1.7670   -0.2851   -0.8035 H   0  0  0  0  0  0  0  0  0  0  0  0
    1.5821    0.5853   -2.7401 C   0  0  0  0  0  0  0  0  0  0  0  0
    1.4107    1.6582   -2.8580 H   0  0  0  0  0  0  0  0  0  0  0  0
    2.6481    0.3785   -2.8466 H   0  0  0  0  0  0  0  0  0  0  0  0
    1.0313    0.0602   -3.5223 H   0  0  0  0  0  0  0  0  0  0  0  0
  5  6  2  0  0  0  0
  5  7  1  0  0  0  0
  2  3  1  0  0  0  0
  2  4  1  0  0  0  0
  2  5  1  0  0  0  0
  1  2  1  0  0  0  0
 22 23  2  0  0  0  0
 22 24  1  0  0  0  0
 19 20  1  0  0  0  0
 19 21  1  0  0  0  0
 17 18  2  0  0  0  0
 17 19  1  0  0  0  0
 14 15  1  0  0  0  0
 14 16  1  0  0  0  0
 14 17  1  0  0  0  0
 11 12  1  0  0  0  0
 11 13  1  0  0  0  0
 11 14  1  0  0  0  0
  9 10  1  0  0  0  0
  9 11  1  0  0  0  0
  9 22  1  0  0  0  0
  7  8  1  0  0  0  0
  7  9  1  0  0  0  0
 26 27  1  0  0  0  0
 26 28  1  0  0  0  0
 26 29  1  0  0  0  0
 24 25  1  0  0  0  0
 24 26  1  0  0  0  0
M  END
$$$$
default_name
  -OEChem-01062215323D

 29 28  0     1  0  0  0  0  0999 V2000
   -3.3998   -3.6239    1.3678 H   0  0  0  0  0  0  0  0  0  0  0  0
   -3.3608   -2.6749    0.8348 C   0  0  0  0  0  0  0  0  0  0  0  0
   -4.0988   -1.9909    1.2498 H   0  0  0  0  0  0  0  0  0  0  0  0
   -3.5618   -2.8419   -0.2222 H   0  0  0  0  0  0  0  0  0  0  0  0
   -1.9818   -2.0809    0.9918 C   0  0  0  0  0  0  0  0  0  0  0  0
   -1.1288   -2.6669    1.6468 O   0  0  0  0  0  0  0  0  0  0  0  0
   -1.7648   -0.9089    0.3998 N   0  0  0  0  0  0  0  0  0  0  0  0
   -2.5238   -0.4719   -0.1032 H   0  0  0  0  0  0  0  0  0  0  0  0
   -0.4848   -0.1959    0.4138 C   0  0  1  0  0  0  0  0  0  0  0  0
   -0.5697    0.6595    1.0860 H   0  0  0  0  0  0  0  0  0  0  0  0
    0.6023   -1.1380    0.9670 C   0  0  0  0  0  0  0  0  0  0  0  0
    0.5839   -2.0622    0.3856 H   0  0  0  0  0  0  0  0  0  0  0  0
    1.5795   -0.6712    0.8346 H   0  0  0  0  0  0  0  0  0  0  0  0
    0.4190   -1.4957    2.4522 C   0  0  0  0  0  0  0  0  0  0  0  0
    0.4509   -0.5883    3.0549 H   0  0  0  0  0  0  0  0  0  0  0  0
   -0.5545   -1.9677    2.5848 H   0  0  0  0  0  0  0  0  0  0  0  0
    1.4915   -2.4496    2.9779 C   0  0  0  0  0  0  0  0  0  0  0  0
    2.3565   -2.9370    2.2745 O   0  0  0  0  0  0  0  0  0  0  0  0
    1.4853   -2.7544    4.2574 N   0  0  0  0  0  0  0  0  0  0  0  0
    2.2126   -3.3843    4.5486 H   0  0  0  0  0  0  0  0  0  0  0  0
    0.7987   -2.3798    4.8803 H   0  0  0  0  0  0  0  0  0  0  0  0
   -0.1458    0.3317   -0.9889 C   0  0  0  0  0  0  0  0  0  0  0  0
   -0.9054    1.1148   -1.5562 O   0  0  0  0  0  0  0  0  0  0  0  0
    0.9881   -0.1048   -1.5521 N   0  0  0  0  0  0  0  0  0  0  0  0
    1.5728   -0.7261   -1.0163 H   0  0  0  0  0  0  0  0  0  0  0  0
    1.4431    0.2926   -2.8838 C   0  0  0  0  0  0  0  0  0  0  0  0
    1.5238    1.3812   -2.9349 H   0  0  0  0  0  0  0  0  0  0  0  0
    2.4163   -0.1499   -3.1014 H   0  0  0  0  0  0  0  0  0  0  0  0
    0.7205   -0.0351   -3.6332 H   0  0  0  0  0  0  0  0  0  0  0  0
  5  6  2  0  0  0  0
  5  7  1  0  0  0  0
  2  3  1  0  0  0  0
  2  4  1  0  0  0  0
  2  5  1  0  0  0  0
  1  2  1  0  0  0  0
 22 23  2  0  0  0  0
 22 24  1  0  0  0  0
 19 20  1  0  0  0  0
 19 21  1  0  0  0  0
 17 18  2  0  0  0  0
 17 19  1  0  0  0  0
 14 15  1  0  0  0  0
 14 16  1  0  0  0  0
 14 17  1  0  0  0  0
 11 12  1  0  0  0  0
 11 13  1  0  0  0  0
 11 14  1  0  0  0  0
  9 10  1  0  0  0  0
  9 11  1  0  0  0  0
  9 22  1  0  0  0  0
  7  8  1  0  0  0  0
  7  9  1  0  0  0  0
 26 27  1  0  0  0  0
 26 28  1  0  0  0  0
 26 29  1  0  0  0  0
 24 25  1  0  0  0  0
 24 26  1  0  0  0  0
M  END
$$$$
default_name
  -OEChem-01062215323D

 29 28  0     1  0  0  0  0  0999 V2000
   -3.3998   -3.6239    1.3678 H   0  0  0  0  0  0  0  0  0  0  0  0
   -3.3608   -2.6749    0.8348 C   0  0  0  0  0  0  0  0  0  0  0  0
   -4.0988   -1.9909    1.2498 H   0  0  0  0  0  0  0  0  0  0  0  0
   -3.5618   -2.8419   -0.2222 H   0  0  0  0  0  0  0  0  0  0  0  0
   -1.9818   -2.0809    0.9918 C   0  0  0  0  0  0  0  0  0  0  0  0
   -1.1288   -2.6669    1.6468 O   0  0  0  0  0  0  0  0  0  0  0  0
   -1.7648   -0.9089    0.3998 N   0  0  0  0  0  0  0  0  0  0  0  0
   -2.5238   -0.4719   -0.1032 H   0  0  0  0  0  0  0  0  0  0  0  0
   -0.4848   -0.1959    0.4138 C   0  0  1  0  0  0  0  0  0  0  0  0
   -0.5697    0.6595    1.0860 H   0  0  0  0  0  0  0  0  0  0  0  0
    0.6023   -1.1380    0.9670 C   0  0  0  0  0  0  0  0  0  0  0  0
    0.5839   -2.0622    0.3856 H   0  0  0  0  0  0  0  0  0  0  0  0
    1.5795   -0.6712    0.8346 H   0  0  0  0  0  0  0  0  0  0  0  0
    0.4190   -1.4957    2.4522 C   0  0  0  0  0  0  0  0  0  0  0  0
    0.4509   -0.5883    3.0549 H   0  0  0  0  0  0  0  0  0  0  0  0
   -0.5545   -1.9677    2.5848 H   0  0  0  0  0  0  0  0  0  0  0  0
    1.4915   -2.4496    2.9779 C   0  0  0  0  0  0  0  0  0  0  0  0
    2.3565   -2.9370    2.2745 O   0  0  0  0  0  0  0  0  0  0  0  0
    1.4853   -2.7544    4.2574 N   0  0  0  0  0  0  0  0  0  0  0  0
    2.2126   -3.3843    4.5486 H   0  0  0  0  0  0  0  0  0  0  0  0
    0.7987   -2.3798    4.8803 H   0  0  0  0  0  0  0  0  0  0  0  0
   -0.1458    0.3317   -0.9889 C   0  0  0  0  0  0  0  0  0  0  0  0
   -0.7403    1.3072   -1.4439 O   0  0  0  0  0  0  0  0  0  0  0  0
    0.8009   -0.3185   -1.6778 N   0  0  0  0  0  0  0  0  0  0  0  0
    1.2622   -1.0941   -1.2298 H   0  0  0  0  0  0  0  0  0  0  0  0
    1.2268    0.0509   -3.0270 C   0  0  0  0  0  0  0  0  0  0  0  0
    1.5608    1.0913   -3.0349 H   0  0  0  0  0  0  0  0  0  0  0  0
    2.0450   -0.5910   -3.3571 H   0  0  0  0  0  0  0  0  0  0  0  0
    0.3880   -0.0473   -3.7182 H   0  0  0  0  0  0  0  0  0  0  0  0
  5  6  2  0  0  0  0
  5  7  1  0  0  0  0
  2  3  1  0  0  0  0
  2  4  1  0  0  0  0
  2  5  1  0  0  0  0
  1  2  1  0  0  0  0
 22 23  2  0  0  0  0
 22 24  1  0  0  0  0
 19 20  1  0  0  0  0
 19 21  1  0  0  0  0
 17 18  2  0  0  0  0
 17 19  1  0  0  0  0
 14 15  1  0  0  0  0
 14 16  1  0  0  0  0
 14 17  1  0  0  0  0
 11 12  1  0  0  0  0
 11 13  1  0  0  0  0
 11 14  1  0  0  0  0
  9 10  1  0  0  0  0
  9 11  1  0  0  0  0
  9 22  1  0  0  0  0
  7  8  1  0  0  0  0
  7  9  1  0  0  0  0
 26 27  1  0  0  0  0
 26 28  1  0  0  0  0
 26 29  1  0  0  0  0
 24 25  1  0  0  0  0
 24 26  1  0  0  0  0
M  END
$$$$
default_name
  -OEChem-01062215323D

 29 28  0     1  0  0  0  0  0999 V2000
   -3.3998   -3.6239    1.3678 H   0  0  0  0  0  0  0  0  0  0  0  0
   -3.3608   -2.6749    0.8348 C   0  0  0  0  0  0  0  0  0  0  0  0
   -4.0988   -1.9909    1.2498 H   0  0  0  0  0  0  0  0  0  0  0  0
   -3.5618   -2.8419   -0.2222 H   0  0  0  0  0  0  0  0  0  0  0  0
   -1.9818   -2.0809    0.9918 C   0  0  0  0  0  0  0  0  0  0  0  0
   -1.1288   -2.6669    1.6468 O   0  0  0  0  0  0  0  0  0  0  0  0
   -1.7648   -0.9089    0.3998 N   0  0  0  0  0  0  0  0  0  0  0  0
   -2.5238   -0.4719   -0.1032 H   0  0  0  0  0  0  0  0  0  0  0  0
   -0.4848   -0.1959    0.4138 C   0  0  1  0  0  0  0  0  0  0  0  0
   -0.5697    0.6595    1.0860 H   0  0  0  0  0  0  0  0  0  0  0  0
    0.6023   -1.1380    0.9670 C   0  0  0  0  0  0  0  0  0  0  0  0
    0.5839   -2.0622    0.3856 H   0  0  0  0  0  0  0  0  0  0  0  0
    1.5795   -0.6712    0.8346 H   0  0  0  0  0  0  0  0  0  0  0  0
    0.4190   -1.4957    2.4522 C   0  0  0  0  0  0  0  0  0  0  0  0
    0.4509   -0.5883    3.0549 H   0  0  0  0  0  0  0  0  0  0  0  0
   -0.5545   -1.9677    2.5848 H   0  0  0  0  0  0  0  0  0  0  0  0
    1.4915   -2.4496    2.9779 C   0  0  0  0  0  0  0  0  0  0  0  0
    2.3565   -2.9370    2.2745 O   0  0  0  0  0  0  0  0  0  0  0  0
    1.4853   -2.7544    4.2574 N   0  0  0  0  0  0  0  0  0  0  0  0
    2.2126   -3.3843    4.5486 H   0  0  0  0  0  0  0  0  0  0  0  0
    0.7987   -2.3798    4.8803 H   0  0  0  0  0  0  0  0  0  0  0  0
   -0.1458    0.3317   -0.9889 C   0  0  0  0  0  0  0  0  0  0  0  0
   -0.5253    1.4477   -1.3391 O   0  0  0  0  0  0  0  0  0  0  0  0
    0.5584   -0.4735   -1.7947 N   0  0  0  0  0  0  0  0  0  0  0  0
    0.8562   -1.3640   -1.4294 H   0  0  0  0  0  0  0  0  0  0  0  0
    0.9481   -0.1234   -3.1599 C   0  0  0  0  0  0  0  0  0  0  0  0
    1.5191    0.8084   -3.1515 H   0  0  0  0  0  0  0  0  0  0  0  0
    1.5593   -0.9148   -3.5962 H   0  0  0  0  0  0  0  0  0  0  0  0
    0.0563    0.0243   -3.7714 H   0  0  0  0  0  0  0  0  0  0  0  0
  5  6  2  0  0  0  0
  5  7  1  0  0  0  0
  2  3  1  0  0  0  0
  2  4  1  0  0  0  0
  2  5  1  0  0  0  0
  1  2  1  0  0  0  0
 22 23  2  0  0  0  0
 22 24  1  0  0  0  0
 19 20  1  0  0  0  0
 19 21  1  0  0  0  0
 17 18  2  0  0  0  0
 17 19  1  0  0  0  0
 14 15  1  0  0  0  0
 14 16  1  0  0  0  0
 14 17  1  0  0  0  0
 11 12  1  0  0  0  0
 11 13  1  0  0  0  0
 11 14  1  0  0  0  0
  9 10  1  0  0  0  0
  9 11  1  0  0  0  0
  9 22  1  0  0  0  0
  7  8  1  0  0  0  0
  7  9  1  0  0  0  0
 26 27  1  0  0  0  0
 26 28  1  0  0  0  0
 26 29  1  0  0  0  0
 24 25  1  0  0  0  0
 24 26  1  0  0  0  0
M  END
$$$$
default_name
  -OEChem-01062215323D

 29 28  0     1  0  0  0  0  0999 V2000
   -3.3998   -3.6239    1.3678 H   0  0  0  0  0  0  0  0  0  0  0  0
   -3.3608   -2.6749    0.8348 C   0  0  0  0  0  0  0  0  0  0  0  0
   -4.0988   -1.9909    1.2498 H   0  0  0  0  0  0  0  0  0  0  0  0
   -3.5618   -2.8419   -0.2222 H   0  0  0  0  0  0  0  0  0  0  0  0
   -1.9818   -2.0809    0.9918 C   0  0  0  0  0  0  0  0  0  0  0  0
   -1.1288   -2.6669    1.6468 O   0  0  0  0  0  0  0  0  0  0  0  0
   -1.7648   -0.9089    0.3998 N   0  0  0  0  0  0  0  0  0  0  0  0
   -2.5238   -0.4719   -0.1032 H   0  0  0  0  0  0  0  0  0  0  0  0
   -0.4848   -0.1959    0.4138 C   0  0  1  0  0  0  0  0  0  0  0  0
   -0.5697    0.6595    1.0860 H   0  0  0  0  0  0  0  0  0  0  0  0
    0.6023   -1.1380    0.9670 C   0  0  0  0  0  0  0  0  0  0  0  0
    0.5839   -2.0622    0.3856 H   0  0  0  0  0  0  0  0  0  0  0  0
    1.5795   -0.6712    0.8346 H   0  0  0  0  0  0  0  0  0  0  0  0
    0.4190   -1.4957    2.4522 C   0  0  0  0  0  0  0  0  0  0  0  0
    0.4509   -0.5883    3.0549 H   0  0  0  0  0  0  0  0  0  0  0  0
   -0.5545   -1.9677    2.5848 H   0  0  0  0  0  0  0  0  0  0  0  0
    1.4915   -2.4496    2.9779 C   0  0  0  0  0  0  0  0  0  0  0  0
    2.3565   -2.9370    2.2745 O   0  0  0  0  0  0  0  0  0  0  0  0
    1.4853   -2.7544    4.2574 N   0  0  0  0  0  0  0  0  0  0  0  0
    2.2126   -3.3843    4.5486 H   0  0  0  0  0  0  0  0  0  0  0  0
    0.7987   -2.3798    4.8803 H   0  0  0  0  0  0  0  0  0  0  0  0
   -0.1458    0.3317   -0.9889 C   0  0  0  0  0  0  0  0  0  0  0  0
   -0.2752    1.5265   -1.2490 O   0  0  0  0  0  0  0  0  0  0  0  0
    0.2772   -0.5593   -1.8949 N   0  0  0  0  0  0  0  0  0  0  0  0
    0.3826   -1.5174   -1.6015 H   0  0  0  0  0  0  0  0  0  0  0  0
    0.6259   -0.2182   -3.2734 C   0  0  0  0  0  0  0  0  0  0  0  0
    1.4016    0.5515   -3.2765 H   0  0  0  0  0  0  0  0  0  0  0  0
    0.9925   -1.0991   -3.8025 H   0  0  0  0  0  0  0  0  0  0  0  0
   -0.2519    0.1749   -3.7892 H   0  0  0  0  0  0  0  0  0  0  0  0
  5  6  2  0  0  0  0
  5  7  1  0  0  0  0
  2  3  1  0  0  0  0
  2  4  1  0  0  0  0
  2  5  1  0  0  0  0
  1  2  1  0  0  0  0
 22 23  2  0  0  0  0
 22 24  1  0  0  0  0
 19 20  1  0  0  0  0
 19 21  1  0  0  0  0
 17 18  2  0  0  0  0
 17 19  1  0  0  0  0
 14 15  1  0  0  0  0
 14 16  1  0  0  0  0
 14 17  1  0  0  0  0
 11 12  1  0  0  0  0
 11 13  1  0  0  0  0
 11 14  1  0  0  0  0
  9 10  1  0  0  0  0
  9 11  1  0  0  0  0
  9 22  1  0  0  0  0
  7  8  1  0  0  0  0
  7  9  1  0  0  0  0
 26 27  1  0  0  0  0
 26 28  1  0  0  0  0
 26 29  1  0  0  0  0
 24 25  1  0  0  0  0
 24 26  1  0  0  0  0
M  END
$$$$
default_name
  -OEChem-01062215323D

 29 28  0     1  0  0  0  0  0999 V2000
   -3.3998   -3.6239    1.3678 H   0  0  0  0  0  0  0  0  0  0  0  0
   -3.3608   -2.6749    0.8348 C   0  0  0  0  0  0  0  0  0  0  0  0
   -4.0988   -1.9909    1.2498 H   0  0  0  0  0  0  0  0  0  0  0  0
   -3.5618   -2.8419   -0.2222 H   0  0  0  0  0  0  0  0  0  0  0  0
   -1.9818   -2.0809    0.9918 C   0  0  0  0  0  0  0  0  0  0  0  0
   -1.1288   -2.6669    1.6468 O   0  0  0  0  0  0  0  0  0  0  0  0
   -1.7648   -0.9089    0.3998 N   0  0  0  0  0  0  0  0  0  0  0  0
   -2.5238   -0.4719   -0.1032 H   0  0  0  0  0  0  0  0  0  0  0  0
   -0.4848   -0.1959    0.4138 C   0  0  1  0  0  0  0  0  0  0  0  0
   -0.5697    0.6595    1.0860 H   0  0  0  0  0  0  0  0  0  0  0  0
    0.6023   -1.1380    0.9670 C   0  0  0  0  0  0  0  0  0  0  0  0
    0.5839   -2.0622    0.3856 H   0  0  0  0  0  0  0  0  0  0  0  0
    1.5795   -0.6712    0.8346 H   0  0  0  0  0  0  0  0  0  0  0  0
    0.4190   -1.4957    2.4522 C   0  0  0  0  0  0  0  0  0  0  0  0
    0.4509   -0.5883    3.0549 H   0  0  0  0  0  0  0  0  0  0  0  0
   -0.5545   -1.9677    2.5848 H   0  0  0  0  0  0  0  0  0  0  0  0
    1.4915   -2.4496    2.9779 C   0  0  0  0  0  0  0  0  0  0  0  0
    2.3565   -2.9370    2.2745 O   0  0  0  0  0  0  0  0  0  0  0  0
    1.4853   -2.7544    4.2574 N   0  0  0  0  0  0  0  0  0  0  0  0
    2.2126   -3.3843    4.5486 H   0  0  0  0  0  0  0  0  0  0  0  0
    0.7987   -2.3798    4.8803 H   0  0  0  0  0  0  0  0  0  0  0  0
   -0.1458    0.3317   -0.9889 C   0  0  0  0  0  0  0  0  0  0  0  0
   -0.0069    1.5385   -1.1797 O   0  0  0  0  0  0  0  0  0  0  0  0
   -0.0237   -0.5699   -1.9716 N   0  0  0  0  0  0  0  0  0  0  0  0
   -0.1265   -1.5438   -1.7345 H   0  0  0  0  0  0  0  0  0  0  0  0
    0.2822   -0.2272   -3.3599 C   0  0  0  0  0  0  0  0  0  0  0  0
    1.2163    0.3383   -3.4014 H   0  0  0  0  0  0  0  0  0  0  0  0
    0.3831   -1.1315   -3.9619 H   0  0  0  0  0  0  0  0  0  0  0  0
   -0.5156    0.3942   -3.7704 H   0  0  0  0  0  0  0  0  0  0  0  0
  5  6  2  0  0  0  0
  5  7  1  0  0  0  0
  2  3  1  0  0  0  0
  2  4  1  0  0  0  0
  2  5  1  0  0  0  0
  1  2  1  0  0  0  0
 22 23  2  0  0  0  0
 22 24  1  0  0  0  0
 19 20  1  0  0  0  0
 19 21  1  0  0  0  0
 17 18  2  0  0  0  0
 17 19  1  0  0  0  0
 14 15  1  0  0  0  0
 14 16  1  0  0  0  0
 14 17  1  0  0  0  0
 11 12  1  0  0  0  0
 11 13  1  0  0  0  0
 11 14  1  0  0  0  0
  9 10  1  0  0  0  0
  9 11  1  0  0  0  0
  9 22  1  0  0  0  0
  7  8  1  0  0  0  0
  7  9  1  0  0  0  0
 26 27  1  0  0  0  0
 26 28  1  0  0  0  0
 26 29  1  0  0  0  0
 24 25  1  0  0  0  0
 24 26  1  0  0  0  0
M  END
$$$$
default_name
  -OEChem-01062215323D

 29 28  0     1  0  0  0  0  0999 V2000
   -3.3998   -3.6239    1.3678 H   0  0  0  0  0  0  0  0  0  0  0  0
   -3.3608   -2.6749    0.8348 C   0  0  0  0  0  0  0  0  0  0  0  0
   -4.0988   -1.9909    1.2498 H   0  0  0  0  0  0  0  0  0  0  0  0
   -3.5618   -2.8419   -0.2222 H   0  0  0  0  0  0  0  0  0  0  0  0
   -1.9818   -2.0809    0.9918 C   0  0  0  0  0  0  0  0  0  0  0  0
   -1.1288   -2.6669    1.6468 O   0  0  0  0  0  0  0  0  0  0  0  0
   -1.7648   -0.9089    0.3998 N   0  0  0  0  0  0  0  0  0  0  0  0
   -2.5238   -0.4719   -0.1032 H   0  0  0  0  0  0  0  0  0  0  0  0
   -0.4848   -0.1959    0.4138 C   0  0  1  0  0  0  0  0  0  0  0  0
   -0.5697    0.6595    1.0860 H   0  0  0  0  0  0  0  0  0  0  0  0
    0.6023   -1.1380    0.9670 C   0  0  0  0  0  0  0  0  0  0  0  0
    0.5839   -2.0622    0.3856 H   0  0  0  0  0  0  0  0  0  0  0  0
    1.5795   -0.6712    0.8346 H   0  0  0  0  0  0  0  0  0  0  0  0
    0.4190   -1.4957    2.4522 C   0  0  0  0  0  0  0  0  0  0  0  0
    0.4509   -0.5883    3.0549 H   0  0  0  0  0  0  0  0  0  0  0  0
   -0.5545   -1.9677    2.5848 H   0  0  0  0  0  0  0  0  0  0  0  0
    1.4915   -2.4496    2.9779 C   0  0  0  0  0  0  0  0  0  0  0  0
    2.3565   -2.9370    2.2745 O   0  0  0  0  0  0  0  0  0  0  0  0
    1.4853   -2.7544    4.2574 N   0  0  0  0  0  0  0  0  0  0  0  0
    2.2126   -3.3843    4.5486 H   0  0  0  0  0  0  0  0  0  0  0  0
    0.7987   -2.3798    4.8803 H   0  0  0  0  0  0  0  0  0  0  0  0
   -0.1458    0.3317   -0.9889 C   0  0  0  0  0  0  0  0  0  0  0  0
    0.2612    1.4827   -1.1359 O   0  0  0  0  0  0  0  0  0  0  0  0
   -0.3236   -0.5048   -2.0195 N   0  0  0  0  0  0  0  0  0  0  0  0
   -0.6362   -1.4414   -1.8191 H   0  0  0  0  0  0  0  0  0  0  0  0
   -0.0597   -0.1497   -3.4133 C   0  0  0  0  0  0  0  0  0  0  0  0
    0.9759    0.1832   -3.5178 H   0  0  0  0  0  0  0  0  0  0  0  0
   -0.2274   -1.0096   -4.0636 H   0  0  0  0  0  0  0  0  0  0  0  0
   -0.7168    0.6672   -3.7163 H   0  0  0  0  0  0  0  0  0  0  0  0
  5  6  2  0  0  0  0
  5  7  1  0  0  0  0
  2  3  1  0  0  0  0
  2  4  1  0  0  0  0
  2  5  1  0  0  0  0
  1  2  1  0  0  0  0
 22 23  2  0  0  0  0
 22 24  1  0  0  0  0
 19 20  1  0  0  0  0
 19 21  1  0  0  0  0
 17 18  2  0  0  0  0
 17 19  1  0  0  0  0
 14 15  1  0  0  0  0
 14 16  1  0  0  0  0
 14 17  1  0  0  0  0
 11 12  1  0  0  0  0
 11 13  1  0  0  0  0
 11 14  1  0  0  0  0
  9 10  1  0  0  0  0
  9 11  1  0  0  0  0
  9 22  1  0  0  0  0
  7  8  1  0  0  0  0
  7  9  1  0  0  0  0
 26 27  1  0  0  0  0
 26 28  1  0  0  0  0
 26 29  1  0  0  0  0
 24 25  1  0  0  0  0
 24 26  1  0  0  0  0
M  END
$$$$
default_name
  -OEChem-01062215323D

 29 28  0     1  0  0  0  0  0999 V2000
   -3.3998   -3.6239    1.3678 H   0  0  0  0  0  0  0  0  0  0  0  0
   -3.3608   -2.6749    0.8348 C   0  0  0  0  0  0  0  0  0  0  0  0
   -4.0988   -1.9909    1.2498 H   0  0  0  0  0  0  0  0  0  0  0  0
   -3.5618   -2.8419   -0.2222 H   0  0  0  0  0  0  0  0  0  0  0  0
   -1.9818   -2.0809    0.9918 C   0  0  0  0  0  0  0  0  0  0  0  0
   -1.1288   -2.6669    1.6468 O   0  0  0  0  0  0  0  0  0  0  0  0
   -1.7648   -0.9089    0.3998 N   0  0  0  0  0  0  0  0  0  0  0  0
   -2.5238   -0.4719   -0.1032 H   0  0  0  0  0  0  0  0  0  0  0  0
   -0.4848   -0.1959    0.4138 C   0  0  1  0  0  0  0  0  0  0  0  0
   -0.5697    0.6595    1.0860 H   0  0  0  0  0  0  0  0  0  0  0  0
    0.6023   -1.1380    0.9670 C   0  0  0  0  0  0  0  0  0  0  0  0
    0.5839   -2.0622    0.3856 H   0  0  0  0  0  0  0  0  0  0  0  0
    1.5795   -0.6712    0.8346 H   0  0  0  0  0  0  0  0  0  0  0  0
    0.4190   -1.4957    2.4522 C   0  0  0  0  0  0  0  0  0  0  0  0
    0.4509   -0.5883    3.0549 H   0  0  0  0  0  0  0  0  0  0  0  0
   -0.5545   -1.9677    2.5848 H   0  0  0  0  0  0  0  0  0  0  0  0
    1.4915   -2.4496    2.9779 C   0  0  0  0  0  0  0  0  0  0  0  0
    2.3565   -2.9370    2.2745 O   0  0  0  0  0  0  0  0  0  0  0  0
    1.4853   -2.7544    4.2574 N   0  0  0  0  0  0  0  0  0  0  0  0
    2.2126   -3.3843    4.5486 H   0  0  0  0  0  0  0  0  0  0  0  0
    0.7987   -2.3798    4.8803 H   0  0  0  0  0  0  0  0  0  0  0  0
   -0.1458    0.3317   -0.9889 C   0  0  0  0  0  0  0  0  0  0  0  0
    0.5109    1.3629   -1.1206 O   0  0  0  0  0  0  0  0  0  0  0  0
   -0.6021   -0.3683   -2.0355 N   0  0  0  0  0  0  0  0  0  0  0  0
   -1.1119   -1.2172   -1.8498 H   0  0  0  0  0  0  0  0  0  0  0  0
   -0.3763    0.0089   -3.4301 C   0  0  0  0  0  0  0  0  0  0  0  0
    0.6967    0.0969   -3.6178 H   0  0  0  0  0  0  0  0  0  0  0  0
   -0.7973   -0.7419   -4.1006 H   0  0  0  0  0  0  0  0  0  0  0  0
   -0.8418    0.9754   -3.6306 H   0  0  0  0  0  0  0  0  0  0  0  0
  5  6  2  0  0  0  0
  5  7  1  0  0  0  0
  2  3  1  0  0  0  0
  2  4  1  0  0  0  0
  2  5  1  0  0  0  0
  1  2  1  0  0  0  0
 22 23  2  0  0  0  0
 22 24  1  0  0  0  0
 19 20  1  0  0  0  0
 19 21  1  0  0  0  0
 17 18  2  0  0  0  0
 17 19  1  0  0  0  0
 14 15  1  0  0  0  0
 14 16  1  0  0  0  0
 14 17  1  0  0  0  0
 11 12  1  0  0  0  0
 11 13  1  0  0  0  0
 11 14  1  0  0  0  0
  9 10  1  0  0  0  0
  9 11  1  0  0  0  0
  9 22  1  0  0  0  0
  7  8  1  0  0  0  0
  7  9  1  0  0  0  0
 26 27  1  0  0  0  0
 26 28  1  0  0  0  0
 26 29  1  0  0  0  0
 24 25  1  0  0  0  0
 24 26  1  0  0  0  0
M  END
$$$$
default_name
  -OEChem-01062215323D

 29 28  0     1  0  0  0  0  0999 V2000
   -3.3998   -3.6239    1.3678 H   0  0  0  0  0  0  0  0  0  0  0  0
   -3.3608   -2.6749    0.8348 C   0  0  0  0  0  0  0  0  0  0  0  0
   -4.0988   -1.9909    1.2498 H   0  0  0  0  0  0  0  0  0  0  0  0
   -3.5618   -2.8419   -0.2222 H   0  0  0  0  0  0  0  0  0  0  0  0
   -1.9818   -2.0809    0.9918 C   0  0  0  0  0  0  0  0  0  0  0  0
   -1.1288   -2.6669    1.6468 O   0  0  0  0  0  0  0  0  0  0  0  0
   -1.7648   -0.9089    0.3998 N   0  0  0  0  0  0  0  0  0  0  0  0
   -2.5238   -0.4719   -0.1032 H   0  0  0  0  0  0  0  0  0  0  0  0
   -0.4848   -0.1959    0.4138 C   0  0  1  0  0  0  0  0  0  0  0  0
   -0.5697    0.6595    1.0860 H   0  0  0  0  0  0  0  0  0  0  0  0
    0.6023   -1.1380    0.9670 C   0  0  0  0  0  0  0  0  0  0  0  0
    0.5839   -2.0622    0.3856 H   0  0  0  0  0  0  0  0  0  0  0  0
    1.5795   -0.6712    0.8346 H   0  0  0  0  0  0  0  0  0  0  0  0
    0.4190   -1.4957    2.4522 C   0  0  0  0  0  0  0  0  0  0  0  0
    0.4509   -0.5883    3.0549 H   0  0  0  0  0  0  0  0  0  0  0  0
   -0.5545   -1.9677    2.5848 H   0  0  0  0  0  0  0  0  0  0  0  0
    1.4915   -2.4496    2.9779 C   0  0  0  0  0  0  0  0  0  0  0  0
    2.3565   -2.9370    2.2745 O   0  0  0  0  0  0  0  0  0  0  0  0
    1.4853   -2.7544    4.2574 N   0  0  0  0  0  0  0  0  0  0  0  0
    2.2126   -3.3843    4.5486 H   0  0  0  0  0  0  0  0  0  0  0  0
    0.7987   -2.3798    4.8803 H   0  0  0  0  0  0  0  0  0  0  0  0
   -0.1458    0.3317   -0.9889 C   0  0  0  0  0  0  0  0  0  0  0  0
    0.7251    1.1874   -1.1349 O   0  0  0  0  0  0  0  0  0  0  0  0
   -0.8404   -0.1697   -2.0184 N   0  0  0  0  0  0  0  0  0  0  0  0
   -1.5212   -0.8866   -1.8243 H   0  0  0  0  0  0  0  0  0  0  0  0
   -0.6461    0.2379   -3.4092 C   0  0  0  0  0  0  0  0  0  0  0  0
    0.3977    0.0853   -3.6944 H   0  0  0  0  0  0  0  0  0  0  0  0
   -1.2878   -0.3465   -4.0703 H   0  0  0  0  0  0  0  0  0  0  0  0
   -0.8821    1.2977   -3.5191 H   0  0  0  0  0  0  0  0  0  0  0  0
  5  6  2  0  0  0  0
  5  7  1  0  0  0  0
  2  3  1  0  0  0  0
  2  4  1  0  0  0  0
  2  5  1  0  0  0  0
  1  2  1  0  0  0  0
 22 23  2  0  0  0  0
 22 24  1  0  0  0  0
 19 20  1  0  0  0  0
 19 21  1  0  0  0  0
 17 18  2  0  0  0  0
 17 19  1  0  0  0  0
 14 15  1  0  0  0  0
 14 16  1  0  0  0  0
 14 17  1  0  0  0  0
 11 12  1  0  0  0  0
 11 13  1  0  0  0  0
 11 14  1  0  0  0  0
  9 10  1  0  0  0  0
  9 11  1  0  0  0  0
  9 22  1  0  0  0  0
  7  8  1  0  0  0  0
  7  9  1  0  0  0  0
 26 27  1  0  0  0  0
 26 28  1  0  0  0  0
 26 29  1  0  0  0  0
 24 25  1  0  0  0  0
 24 26  1  0  0  0  0
M  END
$$$$
default_name
  -OEChem-01062215323D

 29 28  0     1  0  0  0  0  0999 V2000
   -3.3998   -3.6239    1.3678 H   0  0  0  0  0  0  0  0  0  0  0  0
   -3.3608   -2.6749    0.8348 C   0  0  0  0  0  0  0  0  0  0  0  0
   -4.0988   -1.9909    1.2498 H   0  0  0  0  0  0  0  0  0  0  0  0
   -3.5618   -2.8419   -0.2222 H   0  0  0  0  0  0  0  0  0  0  0  0
   -1.9818   -2.0809    0.9918 C   0  0  0  0  0  0  0  0  0  0  0  0
   -1.1288   -2.6669    1.6468 O   0  0  0  0  0  0  0  0  0  0  0  0
   -1.7648   -0.9089    0.3998 N   0  0  0  0  0  0  0  0  0  0  0  0
   -2.5238   -0.4719   -0.1032 H   0  0  0  0  0  0  0  0  0  0  0  0
   -0.4848   -0.1959    0.4138 C   0  0  1  0  0  0  0  0  0  0  0  0
   -0.5697    0.6595    1.0860 H   0  0  0  0  0  0  0  0  0  0  0  0
    0.6023   -1.1380    0.9670 C   0  0  0  0  0  0  0  0  0  0  0  0
    0.5839   -2.0622    0.3856 H   0  0  0  0  0  0  0  0  0  0  0  0
    1.5795   -0.6712    0.8346 H   0  0  0  0  0  0  0  0  0  0  0  0
    0.4190   -1.4957    2.4522 C   0  0  0  0  0  0  0  0  0  0  0  0
    0.4509   -0.5883    3.0549 H   0  0  0  0  0  0  0  0  0  0  0  0
   -0.5545   -1.9677    2.5848 H   0  0  0  0  0  0  0  0  0  0  0  0
    1.4915   -2.4496    2.9779 C   0  0  0  0  0  0  0  0  0  0  0  0
    2.3565   -2.9370    2.2745 O   0  0  0  0  0  0  0  0  0  0  0  0
    1.4853   -2.7544    4.2574 N   0  0  0  0  0  0  0  0  0  0  0  0
    2.2126   -3.3843    4.5486 H   0  0  0  0  0  0  0  0  0  0  0  0
    0.7987   -2.3798    4.8803 H   0  0  0  0  0  0  0  0  0  0  0  0
   -0.1458    0.3317   -0.9889 C   0  0  0  0  0  0  0  0  0  0  0  0
    0.8893    0.9680   -1.1778 O   0  0  0  0  0  0  0  0  0  0  0  0
   -1.0220    0.0775   -1.9693 N   0  0  0  0  0  0  0  0  0  0  0  0
   -1.8361   -0.4719   -1.7444 H   0  0  0  0  0  0  0  0  0  0  0  0
   -0.8508    0.5217   -3.3519 C   0  0  0  0  0  0  0  0  0  0  0  0
    0.0993    0.1490   -3.7425 H   0  0  0  0  0  0  0  0  0  0  0  0
   -1.6655    0.1496   -3.9750 H   0  0  0  0  0  0  0  0  0  0  0  0
   -0.8350    1.6123   -3.3894 H   0  0  0  0  0  0  0  0  0  0  0  0
  5  6  2  0  0  0  0
  5  7  1  0  0  0  0
  2  3  1  0  0  0  0
  2  4  1  0  0  0  0
  2  5  1  0  0  0  0
  1  2  1  0  0  0  0
 22 23  2  0  0  0  0
 22 24  1  0  0  0  0
 19 20  1  0  0  0  0
 19 21  1  0  0  0  0
 17 18  2  0  0  0  0
 17 19  1  0  0  0  0
 14 15  1  0  0  0  0
 14 16  1  0  0  0  0
 14 17  1  0  0  0  0
 11 12  1  0  0  0  0
 11 13  1  0  0  0  0
 11 14  1  0  0  0  0
  9 10  1  0  0  0  0
  9 11  1  0  0  0  0
  9 22  1  0  0  0  0
  7  8  1  0  0  0  0
  7  9  1  0  0  0  0
 26 27  1  0  0  0  0
 26 28  1  0  0  0  0
 26 29  1  0  0  0  0
 24 25  1  0  0  0  0
 24 26  1  0  0  0  0
M  END
$$$$
default_name
  -OEChem-01062215323D

 29 28  0     1  0  0  0  0  0999 V2000
   -3.3998   -3.6239    1.3678 H   0  0  0  0  0  0  0  0  0  0  0  0
   -3.3608   -2.6749    0.8348 C   0  0  0  0  0  0  0  0  0  0  0  0
   -4.0988   -1.9909    1.2498 H   0  0  0  0  0  0  0  0  0  0  0  0
   -3.5618   -2.8419   -0.2222 H   0  0  0  0  0  0  0  0  0  0  0  0
   -1.9818   -2.0809    0.9918 C   0  0  0  0  0  0  0  0  0  0  0  0
   -1.1288   -2.6669    1.6468 O   0  0  0  0  0  0  0  0  0  0  0  0
   -1.7648   -0.9089    0.3998 N   0  0  0  0  0  0  0  0  0  0  0  0
   -2.5238   -0.4719   -0.1032 H   0  0  0  0  0  0  0  0  0  0  0  0
   -0.4848   -0.1959    0.4138 C   0  0  1  0  0  0  0  0  0  0  0  0
   -0.5697    0.6595    1.0860 H   0  0  0  0  0  0  0  0  0  0  0  0
    0.6023   -1.1380    0.9670 C   0  0  0  0  0  0  0  0  0  0  0  0
    0.5839   -2.0622    0.3856 H   0  0  0  0  0  0  0  0  0  0  0  0
    1.5795   -0.6712    0.8346 H   0  0  0  0  0  0  0  0  0  0  0  0
    0.4190   -1.4957    2.4522 C   0  0  0  0  0  0  0  0  0  0  0  0
    0.4509   -0.5883    3.0549 H   0  0  0  0  0  0  0  0  0  0  0  0
   -0.5545   -1.9677    2.5848 H   0  0  0  0  0  0  0  0  0  0  0  0
    1.4915   -2.4496    2.9779 C   0  0  0  0  0  0  0  0  0  0  0  0
    2.3565   -2.9370    2.2745 O   0  0  0  0  0  0  0  0  0  0  0  0
    1.4853   -2.7544    4.2574 N   0  0  0  0  0  0  0  0  0  0  0  0
    2.2126   -3.3843    4.5486 H   0  0  0  0  0  0  0  0  0  0  0  0
    0.7987   -2.3798    4.8803 H   0  0  0  0  0  0  0  0  0  0  0  0
   -0.1458    0.3317   -0.9889 C   0  0  0  0  0  0  0  0  0  0  0  0
    0.9922    0.7198   -1.2462 O   0  0  0  0  0  0  0  0  0  0  0  0
   -1.1348    0.3563   -1.8916 N   0  0  0  0  0  0  0  0  0  0  0  0
   -2.0352   -0.0015   -1.6156 H   0  0  0  0  0  0  0  0  0  0  0  0
   -0.9764    0.8409   -3.2622 C   0  0  0  0  0  0  0  0  0  0  0  0
   -0.1781    0.2838   -3.7588 H   0  0  0  0  0  0  0  0  0  0  0  0
   -1.9046    0.7126   -3.8210 H   0  0  0  0  0  0  0  0  0  0  0  0
   -0.7037    1.8975   -3.2504 H   0  0  0  0  0  0  0  0  0  0  0  0
  5  6  2  0  0  0  0
  5  7  1  0  0  0  0
  2  3  1  0  0  0  0
  2  4  1  0  0  0  0
  2  5  1  0  0  0  0
  1  2  1  0  0  0  0
 22 23  2  0  0  0  0
 22 24  1  0  0  0  0
 19 20  1  0  0  0  0
 19 21  1  0  0  0  0
 17 18  2  0  0  0  0
 17 19  1  0  0  0  0
 14 15  1  0  0  0  0
 14 16  1  0  0  0  0
 14 17  1  0  0  0  0
 11 12  1  0  0  0  0
 11 13  1  0  0  0  0
 11 14  1  0  0  0  0
  9 10  1  0  0  0  0
  9 11  1  0  0  0  0
  9 22  1  0  0  0  0
  7  8  1  0  0  0  0
  7  9  1  0  0  0  0
 26 27  1  0  0  0  0
 26 28  1  0  0  0  0
 26 29  1  0  0  0  0
 24 25  1  0  0  0  0
 24 26  1  0  0  0  0
M  END
$$$$
default_name
  -OEChem-01062215323D

 29 28  0     1  0  0  0  0  0999 V2000
   -3.3998   -3.6239    1.3678 H   0  0  0  0  0  0  0  0  0  0  0  0
   -3.3608   -2.6749    0.8348 C   0  0  0  0  0  0  0  0  0  0  0  0
   -4.0988   -1.9909    1.2498 H   0  0  0  0  0  0  0  0  0  0  0  0
   -3.5618   -2.8419   -0.2222 H   0  0  0  0  0  0  0  0  0  0  0  0
   -1.9818   -2.0809    0.9918 C   0  0  0  0  0  0  0  0  0  0  0  0
   -1.1288   -2.6669    1.6468 O   0  0  0  0  0  0  0  0  0  0  0  0
   -1.7648   -0.9089    0.3998 N   0  0  0  0  0  0  0  0  0  0  0  0
   -2.5238   -0.4719   -0.1032 H   0  0  0  0  0  0  0  0  0  0  0  0
   -0.4848   -0.1959    0.4138 C   0  0  1  0  0  0  0  0  0  0  0  0
   -0.5697    0.6595    1.0860 H   0  0  0  0  0  0  0  0  0  0  0  0
    0.6023   -1.1380    0.9670 C   0  0  0  0  0  0  0  0  0  0  0  0
    0.5839   -2.0622    0.3856 H   0  0  0  0  0  0  0  0  0  0  0  0
    1.5795   -0.6712    0.8346 H   0  0  0  0  0  0  0  0  0  0  0  0
    0.4190   -1.4957    2.4522 C   0  0  0  0  0  0  0  0  0  0  0  0
    0.4509   -0.5883    3.0549 H   0  0  0  0  0  0  0  0  0  0  0  0
   -0.5545   -1.9677    2.5848 H   0  0  0  0  0  0  0  0  0  0  0  0
    1.4915   -2.4496    2.9779 C   0  0  0  0  0  0  0  0  0  0  0  0
    2.3565   -2.9370    2.2745 O   0  0  0  0  0  0  0  0  0  0  0  0
    1.4853   -2.7544    4.2574 N   0  0  0  0  0  0  0  0  0  0  0  0
    2.2126   -3.3843    4.5486 H   0  0  0  0  0  0  0  0  0  0  0  0
    0.7987   -2.3798    4.8803 H   0  0  0  0  0  0  0  0  0  0  0  0
   -0.1458    0.3317   -0.9889 C   0  0  0  0  0  0  0  0  0  0  0  0
    1.0270    0.4596   -1.3357 O   0  0  0  0  0  0  0  0  0  0  0  0
   -1.1709    0.6479   -1.7907 N   0  0  0  0  0  0  0  0  0  0  0  0
   -2.1050    0.4925   -1.4466 H   0  0  0  0  0  0  0  0  0  0  0  0
   -1.0143    1.1737   -3.1462 C   0  0  0  0  0  0  0  0  0  0  0  0
   -0.4156    0.4805   -3.7422 H   0  0  0  0  0  0  0  0  0  0  0  0
   -1.9889    1.3042   -3.6189 H   0  0  0  0  0  0  0  0  0  0  0  0
   -0.4971    2.1341   -3.1115 H   0  0  0  0  0  0  0  0  0  0  0  0
  5  6  2  0  0  0  0
  5  7  1  0  0  0  0
  2  3  1  0  0  0  0
  2  4  1  0  0  0  0
  2  5  1  0  0  0  0
  1  2  1  0  0  0  0
 22 23  2  0  0  0  0
 22 24  1  0  0  0  0
 19 20  1  0  0  0  0
 19 21  1  0  0  0  0
 17 18  2  0  0  0  0
 17 19  1  0  0  0  0
 14 15  1  0  0  0  0
 14 16  1  0  0  0  0
 14 17  1  0  0  0  0
 11 12  1  0  0  0  0
 11 13  1  0  0  0  0
 11 14  1  0  0  0  0
  9 10  1  0  0  0  0
  9 11  1  0  0  0  0
  9 22  1  0  0  0  0
  7  8  1  0  0  0  0
  7  9  1  0  0  0  0
 26 27  1  0  0  0  0
 26 28  1  0  0  0  0
 26 29  1  0  0  0  0
 24 25  1  0  0  0  0
 24 26  1  0  0  0  0
M  END
$$$$
default_name
  -OEChem-01062215323D

 29 28  0     1  0  0  0  0  0999 V2000
   -3.3998   -3.6239    1.3678 H   0  0  0  0  0  0  0  0  0  0  0  0
   -3.3608   -2.6749    0.8348 C   0  0  0  0  0  0  0  0  0  0  0  0
   -4.0988   -1.9909    1.2498 H   0  0  0  0  0  0  0  0  0  0  0  0
   -3.5618   -2.8419   -0.2222 H   0  0  0  0  0  0  0  0  0  0  0  0
   -1.9818   -2.0809    0.9918 C   0  0  0  0  0  0  0  0  0  0  0  0
   -1.1288   -2.6669    1.6468 O   0  0  0  0  0  0  0  0  0  0  0  0
   -1.7648   -0.9089    0.3998 N   0  0  0  0  0  0  0  0  0  0  0  0
   -2.5238   -0.4719   -0.1032 H   0  0  0  0  0  0  0  0  0  0  0  0
   -0.4848   -0.1959    0.4138 C   0  0  1  0  0  0  0  0  0  0  0  0
   -0.5697    0.6595    1.0860 H   0  0  0  0  0  0  0  0  0  0  0  0
    0.6023   -1.1380    0.9670 C   0  0  0  0  0  0  0  0  0  0  0  0
    0.5839   -2.0622    0.3856 H   0  0  0  0  0  0  0  0  0  0  0  0
    1.5795   -0.6712    0.8346 H   0  0  0  0  0  0  0  0  0  0  0  0
    0.4190   -1.4957    2.4522 C   0  0  0  0  0  0  0  0  0  0  0  0
    0.4509   -0.5883    3.0549 H   0  0  0  0  0  0  0  0  0  0  0  0
   -0.5545   -1.9677    2.5848 H   0  0  0  0  0  0  0  0  0  0  0  0
    1.4915   -2.4496    2.9779 C   0  0  0  0  0  0  0  0  0  0  0  0
    2.3565   -2.9370    2.2745 O   0  0  0  0  0  0  0  0  0  0  0  0
    1.4853   -2.7544    4.2574 N   0  0  0  0  0  0  0  0  0  0  0  0
    2.2126   -3.3843    4.5486 H   0  0  0  0  0  0  0  0  0  0  0  0
    0.7987   -2.3798    4.8803 H   0  0  0  0  0  0  0  0  0  0  0  0
   -0.1458    0.3317   -0.9889 C   0  0  0  0  0  0  0  0  0  0  0  0
    0.9910    0.2052   -1.4401 O   0  0  0  0  0  0  0  0  0  0  0  0
   -1.1279    0.9323   -1.6733 N   0  0  0  0  0  0  0  0  0  0  0  0
   -2.0406    0.9765   -1.2490 H   0  0  0  0  0  0  0  0  0  0  0  0
   -0.9619    1.4976   -3.0117 C   0  0  0  0  0  0  0  0  0  0  0  0
   -0.5972    0.7257   -3.6939 H   0  0  0  0  0  0  0  0  0  0  0  0
   -1.9126    1.8839   -3.3824 H   0  0  0  0  0  0  0  0  0  0  0  0
   -0.2292    2.3059   -2.9822 H   0  0  0  0  0  0  0  0  0  0  0  0
  5  6  2  0  0  0  0
  5  7  1  0  0  0  0
  2  3  1  0  0  0  0
  2  4  1  0  0  0  0
  2  5  1  0  0  0  0
  1  2  1  0  0  0  0
 22 23  2  0  0  0  0
 22 24  1  0  0  0  0
 19 20  1  0  0  0  0
 19 21  1  0  0  0  0
 17 18  2  0  0  0  0
 17 19  1  0  0  0  0
 14 15  1  0  0  0  0
 14 16  1  0  0  0  0
 14 17  1  0  0  0  0
 11 12  1  0  0  0  0
 11 13  1  0  0  0  0
 11 14  1  0  0  0  0
  9 10  1  0  0  0  0
  9 11  1  0  0  0  0
  9 22  1  0  0  0  0
  7  8  1  0  0  0  0
  7  9  1  0  0  0  0
 26 27  1  0  0  0  0
 26 28  1  0  0  0  0
 26 29  1  0  0  0  0
 24 25  1  0  0  0  0
 24 26  1  0  0  0  0
M  END
$$$$
default_name
  -OEChem-01062215323D

 29 28  0     1  0  0  0  0  0999 V2000
   -3.3998   -3.6239    1.3678 H   0  0  0  0  0  0  0  0  0  0  0  0
   -3.3608   -2.6749    0.8348 C   0  0  0  0  0  0  0  0  0  0  0  0
   -4.0988   -1.9909    1.2498 H   0  0  0  0  0  0  0  0  0  0  0  0
   -3.5618   -2.8419   -0.2222 H   0  0  0  0  0  0  0  0  0  0  0  0
   -1.9818   -2.0809    0.9918 C   0  0  0  0  0  0  0  0  0  0  0  0
   -1.1288   -2.6669    1.6468 O   0  0  0  0  0  0  0  0  0  0  0  0
   -1.7648   -0.9089    0.3998 N   0  0  0  0  0  0  0  0  0  0  0  0
   -2.5238   -0.4719   -0.1032 H   0  0  0  0  0  0  0  0  0  0  0  0
   -0.4848   -0.1959    0.4138 C   0  0  1  0  0  0  0  0  0  0  0  0
   -0.5697    0.6595    1.0860 H   0  0  0  0  0  0  0  0  0  0  0  0
    0.6023   -1.1380    0.9670 C   0  0  0  0  0  0  0  0  0  0  0  0
    0.5839   -2.0622    0.3856 H   0  0  0  0  0  0  0  0  0  0  0  0
    1.5795   -0.6712    0.8346 H   0  0  0  0  0  0  0  0  0  0  0  0
    0.4190   -1.4957    2.4522 C   0  0  0  0  0  0  0  0  0  0  0  0
    0.4509   -0.5883    3.0549 H   0  0  0  0  0  0  0  0  0  0  0  0
   -0.5545   -1.9677    2.5848 H   0  0  0  0  0  0  0  0  0  0  0  0
    1.4915   -2.4496    2.9779 C   0  0  0  0  0  0  0  0  0  0  0  0
    2.3565   -2.9370    2.2745 O   0  0  0  0  0  0  0  0  0  0  0  0
    1.4853   -2.7544    4.2574 N   0  0  0  0  0  0  0  0  0  0  0  0
    2.2126   -3.3843    4.5486 H   0  0  0  0  0  0  0  0  0  0  0  0
    0.7987   -2.3798    4.8803 H   0  0  0  0  0  0  0  0  0  0  0  0
   -0.1458    0.3317   -0.9889 C   0  0  0  0  0  0  0  0  0  0  0  0
    0.8870   -0.0261   -1.5523 O   0  0  0  0  0  0  0  0  0  0  0  0
   -1.0087    1.1901   -1.5476 N   0  0  0  0  0  0  0  0  0  0  0  0
   -1.8465    1.4176   -1.0362 H   0  0  0  0  0  0  0  0  0  0  0  0
   -0.8228    1.7903   -2.8680 C   0  0  0  0  0  0  0  0  0  0  0  0
   -0.7102    1.0027   -3.6170 H   0  0  0  0  0  0  0  0  0  0  0  0
   -1.6808    2.4123   -3.1276 H   0  0  0  0  0  0  0  0  0  0  0  0
    0.0816    2.4011   -2.8713 H   0  0  0  0  0  0  0  0  0  0  0  0
  5  6  2  0  0  0  0
  5  7  1  0  0  0  0
  2  3  1  0  0  0  0
  2  4  1  0  0  0  0
  2  5  1  0  0  0  0
  1  2  1  0  0  0  0
 22 23  2  0  0  0  0
 22 24  1  0  0  0  0
 19 20  1  0  0  0  0
 19 21  1  0  0  0  0
 17 18  2  0  0  0  0
 17 19  1  0  0  0  0
 14 15  1  0  0  0  0
 14 16  1  0  0  0  0
 14 17  1  0  0  0  0
 11 12  1  0  0  0  0
 11 13  1  0  0  0  0
 11 14  1  0  0  0  0
  9 10  1  0  0  0  0
  9 11  1  0  0  0  0
  9 22  1  0  0  0  0
  7  8  1  0  0  0  0
  7  9  1  0  0  0  0
 26 27  1  0  0  0  0
 26 28  1  0  0  0  0
 26 29  1  0  0  0  0
 24 25  1  0  0  0  0
 24 26  1  0  0  0  0
M  END
$$$$
default_name
  -OEChem-01062215323D

 29 28  0     1  0  0  0  0  0999 V2000
   -3.3998   -3.6239    1.3678 H   0  0  0  0  0  0  0  0  0  0  0  0
   -3.3608   -2.6749    0.8348 C   0  0  0  0  0  0  0  0  0  0  0  0
   -4.0988   -1.9909    1.2498 H   0  0  0  0  0  0  0  0  0  0  0  0
   -3.5618   -2.8419   -0.2222 H   0  0  0  0  0  0  0  0  0  0  0  0
   -1.9818   -2.0809    0.9918 C   0  0  0  0  0  0  0  0  0  0  0  0
   -1.1288   -2.6669    1.6468 O   0  0  0  0  0  0  0  0  0  0  0  0
   -1.7648   -0.9089    0.3998 N   0  0  0  0  0  0  0  0  0  0  0  0
   -2.5238   -0.4719   -0.1032 H   0  0  0  0  0  0  0  0  0  0  0  0
   -0.4848   -0.1959    0.4138 C   0  0  1  0  0  0  0  0  0  0  0  0
   -0.5697    0.6595    1.0860 H   0  0  0  0  0  0  0  0  0  0  0  0
    0.6023   -1.1380    0.9670 C   0  0  0  0  0  0  0  0  0  0  0  0
    0.5839   -2.0622    0.3856 H   0  0  0  0  0  0  0  0  0  0  0  0
    1.5795   -0.6712    0.8346 H   0  0  0  0  0  0  0  0  0  0  0  0
    0.4190   -1.4957    2.4522 C   0  0  0  0  0  0  0  0  0  0  0  0
    0.4509   -0.5883    3.0549 H   0  0  0  0  0  0  0  0  0  0  0  0
   -0.5545   -1.9677    2.5848 H   0  0  0  0  0  0  0  0  0  0  0  0
    1.4915   -2.4496    2.9779 C   0  0  0  0  0  0  0  0  0  0  0  0
    2.3565   -2.9370    2.2745 O   0  0  0  0  0  0  0  0  0  0  0  0
    1.4853   -2.7544    4.2574 N   0  0  0  0  0  0  0  0  0  0  0  0
    2.2126   -3.3843    4.5486 H   0  0  0  0  0  0  0  0  0  0  0  0
    0.7987   -2.3798    4.8803 H   0  0  0  0  0  0  0  0  0  0  0  0
   -0.1458    0.3317   -0.9889 C   0  0  0  0  0  0  0  0  0  0  0  0
    0.7218   -0.2186   -1.6645 O   0  0  0  0  0  0  0  0  0  0  0  0
   -0.8215    1.4038   -1.4219 N   0  0  0  0  0  0  0  0  0  0  0  0
   -1.5358    1.7856   -0.8227 H   0  0  0  0  0  0  0  0  0  0  0  0
   -0.6066    2.0321   -2.7248 C   0  0  0  0  0  0  0  0  0  0  0  0
   -0.7472    1.2925   -3.5169 H   0  0  0  0  0  0  0  0  0  0  0  0
   -1.3095    2.8535   -2.8719 H   0  0  0  0  0  0  0  0  0  0  0  0
    0.4141    2.4133   -2.7863 H   0  0  0  0  0  0  0  0  0  0  0  0
  5  6  2  0  0  0  0
  5  7  1  0  0  0  0
  2  3  1  0  0  0  0
  2  4  1  0  0  0  0
  2  5  1  0  0  0  0
  1  2  1  0  0  0  0
 22 23  2  0  0  0  0
 22 24  1  0  0  0  0
 19 20  1  0  0  0  0
 19 21  1  0  0  0  0
 17 18  2  0  0  0  0
 17 19  1  0  0  0  0
 14 15  1  0  0  0  0
 14 16  1  0  0  0  0
 14 17  1  0  0  0  0
 11 12  1  0  0  0  0
 11 13  1  0  0  0  0
 11 14  1  0  0  0  0
  9 10  1  0  0  0  0
  9 11  1  0  0  0  0
  9 22  1  0  0  0  0
  7  8  1  0  0  0  0
  7  9  1  0  0  0  0
 26 27  1  0  0  0  0
 26 28  1  0  0  0  0
 26 29  1  0  0  0  0
 24 25  1  0  0  0  0
 24 26  1  0  0  0  0
M  END
$$$$
default_name
  -OEChem-01062215323D

 29 28  0     1  0  0  0  0  0999 V2000
   -3.3998   -3.6239    1.3678 H   0  0  0  0  0  0  0  0  0  0  0  0
   -3.3608   -2.6749    0.8348 C   0  0  0  0  0  0  0  0  0  0  0  0
   -4.0988   -1.9909    1.2498 H   0  0  0  0  0  0  0  0  0  0  0  0
   -3.5618   -2.8419   -0.2222 H   0  0  0  0  0  0  0  0  0  0  0  0
   -1.9818   -2.0809    0.9918 C   0  0  0  0  0  0  0  0  0  0  0  0
   -1.1288   -2.6669    1.6468 O   0  0  0  0  0  0  0  0  0  0  0  0
   -1.7648   -0.9089    0.3998 N   0  0  0  0  0  0  0  0  0  0  0  0
   -2.5238   -0.4719   -0.1032 H   0  0  0  0  0  0  0  0  0  0  0  0
   -0.4848   -0.1959    0.4138 C   0  0  1  0  0  0  0  0  0  0  0  0
   -0.5697    0.6595    1.0860 H   0  0  0  0  0  0  0  0  0  0  0  0
    0.6023   -1.1380    0.9670 C   0  0  0  0  0  0  0  0  0  0  0  0
    0.5839   -2.0622    0.3856 H   0  0  0  0  0  0  0  0  0  0  0  0
    1.5795   -0.6712    0.8346 H   0  0  0  0  0  0  0  0  0  0  0  0
    0.4190   -1.4957    2.4522 C   0  0  0  0  0  0  0  0  0  0  0  0
    0.4509   -0.5883    3.0549 H   0  0  0  0  0  0  0  0  0  0  0  0
   -0.5545   -1.9677    2.5848 H   0  0  0  0  0  0  0  0  0  0  0  0
    1.4915   -2.4496    2.9779 C   0  0  0  0  0  0  0  0  0  0  0  0
    2.3565   -2.9370    2.2745 O   0  0  0  0  0  0  0  0  0  0  0  0
    1.4853   -2.7544    4.2574 N   0  0  0  0  0  0  0  0  0  0  0  0
    2.2126   -3.3843    4.5486 H   0  0  0  0  0  0  0  0  0  0  0  0
    0.7987   -2.3798    4.8803 H   0  0  0  0  0  0  0  0  0  0  0  0
   -0.1458    0.3317   -0.9889 C   0  0  0  0  0  0  0  0  0  0  0  0
    0.5068   -0.3590   -1.7693 O   0  0  0  0  0  0  0  0  0  0  0  0
   -0.5790    1.5588   -1.3050 N   0  0  0  0  0  0  0  0  0  0  0  0
   -1.1298    2.0555   -0.6231 H   0  0  0  0  0  0  0  0  0  0  0  0
   -0.3279    2.2063   -2.5919 C   0  0  0  0  0  0  0  0  0  0  0  0
   -0.7056    1.5755   -3.4004 H   0  0  0  0  0  0  0  0  0  0  0  0
   -0.8238    3.1772   -2.6328 H   0  0  0  0  0  0  0  0  0  0  0  0
    0.7458    2.3417   -2.7331 H   0  0  0  0  0  0  0  0  0  0  0  0
  5  6  2  0  0  0  0
  5  7  1  0  0  0  0
  2  3  1  0  0  0  0
  2  4  1  0  0  0  0
  2  5  1  0  0  0  0
  1  2  1  0  0  0  0
 22 23  2  0  0  0  0
 22 24  1  0  0  0  0
 19 20  1  0  0  0  0
 19 21  1  0  0  0  0
 17 18  2  0  0  0  0
 17 19  1  0  0  0  0
 14 15  1  0  0  0  0
 14 16  1  0  0  0  0
 14 17  1  0  0  0  0
 11 12  1  0  0  0  0
 11 13  1  0  0  0  0
 11 14  1  0  0  0  0
  9 10  1  0  0  0  0
  9 11  1  0  0  0  0
  9 22  1  0  0  0  0
  7  8  1  0  0  0  0
  7  9  1  0  0  0  0
 26 27  1  0  0  0  0
 26 28  1  0  0  0  0
 26 29  1  0  0  0  0
 24 25  1  0  0  0  0
 24 26  1  0  0  0  0
M  END
$$$$
default_name
  -OEChem-01062215323D

 29 28  0     1  0  0  0  0  0999 V2000
   -3.3998   -3.6239    1.3678 H   0  0  0  0  0  0  0  0  0  0  0  0
   -3.3608   -2.6749    0.8348 C   0  0  0  0  0  0  0  0  0  0  0  0
   -4.0988   -1.9909    1.2498 H   0  0  0  0  0  0  0  0  0  0  0  0
   -3.5618   -2.8419   -0.2222 H   0  0  0  0  0  0  0  0  0  0  0  0
   -1.9818   -2.0809    0.9918 C   0  0  0  0  0  0  0  0  0  0  0  0
   -1.1288   -2.6669    1.6468 O   0  0  0  0  0  0  0  0  0  0  0  0
   -1.7648   -0.9089    0.3998 N   0  0  0  0  0  0  0  0  0  0  0  0
   -2.5238   -0.4719   -0.1032 H   0  0  0  0  0  0  0  0  0  0  0  0
   -0.4848   -0.1959    0.4138 C   0  0  1  0  0  0  0  0  0  0  0  0
   -0.5697    0.6595    1.0860 H   0  0  0  0  0  0  0  0  0  0  0  0
    0.6023   -1.1380    0.9670 C   0  0  0  0  0  0  0  0  0  0  0  0
    0.5839   -2.0622    0.3856 H   0  0  0  0  0  0  0  0  0  0  0  0
    1.5795   -0.6712    0.8346 H   0  0  0  0  0  0  0  0  0  0  0  0
    0.4190   -1.4957    2.4522 C   0  0  0  0  0  0  0  0  0  0  0  0
    0.4509   -0.5883    3.0549 H   0  0  0  0  0  0  0  0  0  0  0  0
   -0.5545   -1.9677    2.5848 H   0  0  0  0  0  0  0  0  0  0  0  0
    1.4915   -2.4496    2.9779 C   0  0  0  0  0  0  0  0  0  0  0  0
    2.3565   -2.9370    2.2745 O   0  0  0  0  0  0  0  0  0  0  0  0
    1.4853   -2.7544    4.2574 N   0  0  0  0  0  0  0  0  0  0  0  0
    2.2126   -3.3843    4.5486 H   0  0  0  0  0  0  0  0  0  0  0  0
    0.7987   -2.3798    4.8803 H   0  0  0  0  0  0  0  0  0  0  0  0
   -0.1458    0.3317   -0.9889 C   0  0  0  0  0  0  0  0  0  0  0  0
    0.2567   -0.4379   -1.8594 O   0  0  0  0  0  0  0  0  0  0  0  0
   -0.2978    1.6446   -1.2048 N   0  0  0  0  0  0  0  0  0  0  0  0
   -0.6562    2.2088   -0.4510 H   0  0  0  0  0  0  0  0  0  0  0  0
   -0.0057    2.3011   -2.4784 C   0  0  0  0  0  0  0  0  0  0  0  0
   -0.5881    1.8324   -3.2754 H   0  0  0  0  0  0  0  0  0  0  0  0
   -0.2570    3.3616   -2.4265 H   0  0  0  0  0  0  0  0  0  0  0  0
    1.0540    2.1911   -2.7153 H   0  0  0  0  0  0  0  0  0  0  0  0
  5  6  2  0  0  0  0
  5  7  1  0  0  0  0
  2  3  1  0  0  0  0
  2  4  1  0  0  0  0
  2  5  1  0  0  0  0
  1  2  1  0  0  0  0
 22 23  2  0  0  0  0
 22 24  1  0  0  0  0
 19 20  1  0  0  0  0
 19 21  1  0  0  0  0
 17 18  2  0  0  0  0
 17 19  1  0  0  0  0
 14 15  1  0  0  0  0
 14 16  1  0  0  0  0
 14 17  1  0  0  0  0
 11 12  1  0  0  0  0
 11 13  1  0  0  0  0
 11 14  1  0  0  0  0
  9 10  1  0  0  0  0
  9 11  1  0  0  0  0
  9 22  1  0  0  0  0
  7  8  1  0  0  0  0
  7  9  1  0  0  0  0
 26 27  1  0  0  0  0
 26 28  1  0  0  0  0
 26 29  1  0  0  0  0
 24 25  1  0  0  0  0
 24 26  1  0  0  0  0
M  END
$$$$
default_name
  -OEChem-01062215323D

 29 28  0     1  0  0  0  0  0999 V2000
   -3.3998   -3.6239    1.3678 H   0  0  0  0  0  0  0  0  0  0  0  0
   -3.3608   -2.6749    0.8348 C   0  0  0  0  0  0  0  0  0  0  0  0
   -4.0988   -1.9909    1.2498 H   0  0  0  0  0  0  0  0  0  0  0  0
   -3.5618   -2.8419   -0.2222 H   0  0  0  0  0  0  0  0  0  0  0  0
   -1.9818   -2.0809    0.9918 C   0  0  0  0  0  0  0  0  0  0  0  0
   -1.1288   -2.6669    1.6468 O   0  0  0  0  0  0  0  0  0  0  0  0
   -1.7648   -0.9089    0.3998 N   0  0  0  0  0  0  0  0  0  0  0  0
   -2.5238   -0.4719   -0.1032 H   0  0  0  0  0  0  0  0  0  0  0  0
   -0.4848   -0.1959    0.4138 C   0  0  1  0  0  0  0  0  0  0  0  0
   -0.5697    0.6595    1.0860 H   0  0  0  0  0  0  0  0  0  0  0  0
    0.6023   -1.1380    0.9670 C   0  0  0  0  0  0  0  0  0  0  0  0
    0.5839   -2.0622    0.3856 H   0  0  0  0  0  0  0  0  0  0  0  0
    1.5795   -0.6712    0.8346 H   0  0  0  0  0  0  0  0  0  0  0  0
    0.4190   -1.4957    2.4522 C   0  0  0  0  0  0  0  0  0  0  0  0
    0.4509   -0.5883    3.0549 H   0  0  0  0  0  0  0  0  0  0  0  0
   -0.5545   -1.9677    2.5848 H   0  0  0  0  0  0  0  0  0  0  0  0
    1.4915   -2.4496    2.9779 C   0  0  0  0  0  0  0  0  0  0  0  0
    2.3565   -2.9370    2.2745 O   0  0  0  0  0  0  0  0  0  0  0  0
    1.4853   -2.7544    4.2574 N   0  0  0  0  0  0  0  0  0  0  0  0
    2.2126   -3.3843    4.5486 H   0  0  0  0  0  0  0  0  0  0  0  0
    0.7987   -2.3798    4.8803 H   0  0  0  0  0  0  0  0  0  0  0  0
   -0.1458    0.3317   -0.9889 C   0  0  0  0  0  0  0  0  0  0  0  0
   -0.0116   -0.4498   -1.9287 O   0  0  0  0  0  0  0  0  0  0  0  0
    0.0031    1.6553   -1.1281 N   0  0  0  0  0  0  0  0  0  0  0  0
   -0.1472    2.2352   -0.3180 H   0  0  0  0  0  0  0  0  0  0  0  0
    0.3381    2.3101   -2.3920 C   0  0  0  0  0  0  0  0  0  0  0  0
   -0.4028    2.0456   -3.1505 H   0  0  0  0  0  0  0  0  0  0  0  0
    0.3524    3.3939   -2.2671 H   0  0  0  0  0  0  0  0  0  0  0  0
    1.3176    1.9719   -2.7341 H   0  0  0  0  0  0  0  0  0  0  0  0
  5  6  2  0  0  0  0
  5  7  1  0  0  0  0
  2  3  1  0  0  0  0
  2  4  1  0  0  0  0
  2  5  1  0  0  0  0
  1  2  1  0  0  0  0
 22 23  2  0  0  0  0
 22 24  1  0  0  0  0
 19 20  1  0  0  0  0
 19 21  1  0  0  0  0
 17 18  2  0  0  0  0
 17 19  1  0  0  0  0
 14 15  1  0  0  0  0
 14 16  1  0  0  0  0
 14 17  1  0  0  0  0
 11 12  1  0  0  0  0
 11 13  1  0  0  0  0
 11 14  1  0  0  0  0
  9 10  1  0  0  0  0
  9 11  1  0  0  0  0
  9 22  1  0  0  0  0
  7  8  1  0  0  0  0
  7  9  1  0  0  0  0
 26 27  1  0  0  0  0
 26 28  1  0  0  0  0
 26 29  1  0  0  0  0
 24 25  1  0  0  0  0
 24 26  1  0  0  0  0
M  END
$$$$
default_name
  -OEChem-01062215323D

 29 28  0     1  0  0  0  0  0999 V2000
   -3.3998   -3.6239    1.3678 H   0  0  0  0  0  0  0  0  0  0  0  0
   -3.3608   -2.6749    0.8348 C   0  0  0  0  0  0  0  0  0  0  0  0
   -4.0988   -1.9909    1.2498 H   0  0  0  0  0  0  0  0  0  0  0  0
   -3.5618   -2.8419   -0.2222 H   0  0  0  0  0  0  0  0  0  0  0  0
   -1.9818   -2.0809    0.9918 C   0  0  0  0  0  0  0  0  0  0  0  0
   -1.1288   -2.6669    1.6468 O   0  0  0  0  0  0  0  0  0  0  0  0
   -1.7648   -0.9089    0.3998 N   0  0  0  0  0  0  0  0  0  0  0  0
   -2.5238   -0.4719   -0.1032 H   0  0  0  0  0  0  0  0  0  0  0  0
   -0.4848   -0.1959    0.4138 C   0  0  1  0  0  0  0  0  0  0  0  0
   -0.5697    0.6595    1.0860 H   0  0  0  0  0  0  0  0  0  0  0  0
    0.6023   -1.1380    0.9670 C   0  0  0  0  0  0  0  0  0  0  0  0
    0.5839   -2.0622    0.3856 H   0  0  0  0  0  0  0  0  0  0  0  0
    1.5795   -0.6712    0.8346 H   0  0  0  0  0  0  0  0  0  0  0  0
    0.4190   -1.4957    2.4522 C   0  0  0  0  0  0  0  0  0  0  0  0
    0.4509   -0.5883    3.0549 H   0  0  0  0  0  0  0  0  0  0  0  0
   -0.5545   -1.9677    2.5848 H   0  0  0  0  0  0  0  0  0  0  0  0
    1.4915   -2.4496    2.9779 C   0  0  0  0  0  0  0  0  0  0  0  0
    2.3565   -2.9370    2.2745 O   0  0  0  0  0  0  0  0  0  0  0  0
    1.4853   -2.7544    4.2574 N   0  0  0  0  0  0  0  0  0  0  0  0
    2.2126   -3.3843    4.5486 H   0  0  0  0  0  0  0  0  0  0  0  0
    0.7987   -2.3798    4.8803 H   0  0  0  0  0  0  0  0  0  0  0  0
   -0.1458    0.3317   -0.9889 C   0  0  0  0  0  0  0  0  0  0  0  0
   -0.2797   -0.3940   -1.9725 O   0  0  0  0  0  0  0  0  0  0  0  0
    0.3030    1.5902   -1.0802 N   0  0  0  0  0  0  0  0  0  0  0  0
    0.3626    2.1329   -0.2334 H   0  0  0  0  0  0  0  0  0  0  0  0
    0.6799    2.2327   -2.3385 C   0  0  0  0  0  0  0  0  0  0  0  0
   -0.1624    2.2006   -3.0340 H   0  0  0  0  0  0  0  0  0  0  0  0
    0.9629    3.2721   -2.1654 H   0  0  0  0  0  0  0  0  0  0  0  0
    1.5188    1.6988   -2.7881 H   0  0  0  0  0  0  0  0  0  0  0  0
  5  6  2  0  0  0  0
  5  7  1  0  0  0  0
  2  3  1  0  0  0  0
  2  4  1  0  0  0  0
  2  5  1  0  0  0  0
  1  2  1  0  0  0  0
 22 23  2  0  0  0  0
 22 24  1  0  0  0  0
 19 20  1  0  0  0  0
 19 21  1  0  0  0  0
 17 18  2  0  0  0  0
 17 19  1  0  0  0  0
 14 15  1  0  0  0  0
 14 16  1  0  0  0  0
 14 17  1  0  0  0  0
 11 12  1  0  0  0  0
 11 13  1  0  0  0  0
 11 14  1  0  0  0  0
  9 10  1  0  0  0  0
  9 11  1  0  0  0  0
  9 22  1  0  0  0  0
  7  8  1  0  0  0  0
  7  9  1  0  0  0  0
 26 27  1  0  0  0  0
 26 28  1  0  0  0  0
 26 29  1  0  0  0  0
 24 25  1  0  0  0  0
 24 26  1  0  0  0  0
M  END
$$$$
default_name
  -OEChem-01062215323D

 29 28  0     1  0  0  0  0  0999 V2000
   -3.3998   -3.6239    1.3678 H   0  0  0  0  0  0  0  0  0  0  0  0
   -3.3608   -2.6749    0.8348 C   0  0  0  0  0  0  0  0  0  0  0  0
   -4.0988   -1.9909    1.2498 H   0  0  0  0  0  0  0  0  0  0  0  0
   -3.5618   -2.8419   -0.2222 H   0  0  0  0  0  0  0  0  0  0  0  0
   -1.9818   -2.0809    0.9918 C   0  0  0  0  0  0  0  0  0  0  0  0
   -1.1288   -2.6669    1.6468 O   0  0  0  0  0  0  0  0  0  0  0  0
   -1.7648   -0.9089    0.3998 N   0  0  0  0  0  0  0  0  0  0  0  0
   -2.5238   -0.4719   -0.1032 H   0  0  0  0  0  0  0  0  0  0  0  0
   -0.4848   -0.1959    0.4138 C   0  0  1  0  0  0  0  0  0  0  0  0
   -0.5697    0.6595    1.0860 H   0  0  0  0  0  0  0  0  0  0  0  0
    0.6023   -1.1380    0.9670 C   0  0  0  0  0  0  0  0  0  0  0  0
    0.5839   -2.0622    0.3856 H   0  0  0  0  0  0  0  0  0  0  0  0
    1.5795   -0.6712    0.8346 H   0  0  0  0  0  0  0  0  0  0  0  0
    0.4190   -1.4957    2.4522 C   0  0  0  0  0  0  0  0  0  0  0  0
    0.4509   -0.5883    3.0549 H   0  0  0  0  0  0  0  0  0  0  0  0
   -0.5545   -1.9677    2.5848 H   0  0  0  0  0  0  0  0  0  0  0  0
    1.4915   -2.4496    2.9779 C   0  0  0  0  0  0  0  0  0  0  0  0
    2.3565   -2.9370    2.2745 O   0  0  0  0  0  0  0  0  0  0  0  0
    1.4853   -2.7544    4.2574 N   0  0  0  0  0  0  0  0  0  0  0  0
    2.2126   -3.3843    4.5486 H   0  0  0  0  0  0  0  0  0  0  0  0
    0.7987   -2.3798    4.8803 H   0  0  0  0  0  0  0  0  0  0  0  0
   -0.1458    0.3317   -0.9889 C   0  0  0  0  0  0  0  0  0  0  0  0
   -0.5293   -0.2743   -1.9878 O   0  0  0  0  0  0  0  0  0  0  0  0
    0.5815    1.4536   -1.0642 N   0  0  0  0  0  0  0  0  0  0  0  0
    0.8383    1.9087   -0.2027 H   0  0  0  0  0  0  0  0  0  0  0  0
    0.9965    2.0740   -2.3217 C   0  0  0  0  0  0  0  0  0  0  0  0
    0.1169    2.2869   -2.9341 H   0  0  0  0  0  0  0  0  0  0  0  0
    1.5328    3.0043   -2.1284 H   0  0  0  0  0  0  0  0  0  0  0  0
    1.6439    1.3906   -2.8738 H   0  0  0  0  0  0  0  0  0  0  0  0
  5  6  2  0  0  0  0
  5  7  1  0  0  0  0
  2  3  1  0  0  0  0
  2  4  1  0  0  0  0
  2  5  1  0  0  0  0
  1  2  1  0  0  0  0
 22 23  2  0  0  0  0
 22 24  1  0  0  0  0
 19 20  1  0  0  0  0
 19 21  1  0  0  0  0
 17 18  2  0  0  0  0
 17 19  1  0  0  0  0
 14 15  1  0  0  0  0
 14 16  1  0  0  0  0
 14 17  1  0  0  0  0
 11 12  1  0  0  0  0
 11 13  1  0  0  0  0
 11 14  1  0  0  0  0
  9 10  1  0  0  0  0
  9 11  1  0  0  0  0
  9 22  1  0  0  0  0
  7  8  1  0  0  0  0
  7  9  1  0  0  0  0
 26 27  1  0  0  0  0
 26 28  1  0  0  0  0
 26 29  1  0  0  0  0
 24 25  1  0  0  0  0
 24 26  1  0  0  0  0
M  END
$$$$
default_name
  -OEChem-01062215323D

 29 28  0     1  0  0  0  0  0999 V2000
   -3.3998   -3.6239    1.3678 H   0  0  0  0  0  0  0  0  0  0  0  0
   -3.3608   -2.6749    0.8348 C   0  0  0  0  0  0  0  0  0  0  0  0
   -4.0988   -1.9909    1.2498 H   0  0  0  0  0  0  0  0  0  0  0  0
   -3.5618   -2.8419   -0.2222 H   0  0  0  0  0  0  0  0  0  0  0  0
   -1.9818   -2.0809    0.9918 C   0  0  0  0  0  0  0  0  0  0  0  0
   -1.1288   -2.6669    1.6468 O   0  0  0  0  0  0  0  0  0  0  0  0
   -1.7648   -0.9089    0.3998 N   0  0  0  0  0  0  0  0  0  0  0  0
   -2.5238   -0.4719   -0.1032 H   0  0  0  0  0  0  0  0  0  0  0  0
   -0.4848   -0.1959    0.4138 C   0  0  1  0  0  0  0  0  0  0  0  0
   -0.5697    0.6595    1.0860 H   0  0  0  0  0  0  0  0  0  0  0  0
    0.6023   -1.1380    0.9670 C   0  0  0  0  0  0  0  0  0  0  0  0
    0.5839   -2.0622    0.3856 H   0  0  0  0  0  0  0  0  0  0  0  0
    1.5795   -0.6712    0.8346 H   0  0  0  0  0  0  0  0  0  0  0  0
    0.4190   -1.4957    2.4522 C   0  0  0  0  0  0  0  0  0  0  0  0
    0.4509   -0.5883    3.0549 H   0  0  0  0  0  0  0  0  0  0  0  0
   -0.5545   -1.9677    2.5848 H   0  0  0  0  0  0  0  0  0  0  0  0
    1.4915   -2.4496    2.9779 C   0  0  0  0  0  0  0  0  0  0  0  0
    2.3565   -2.9370    2.2745 O   0  0  0  0  0  0  0  0  0  0  0  0
    1.4853   -2.7544    4.2574 N   0  0  0  0  0  0  0  0  0  0  0  0
    2.2126   -3.3843    4.5486 H   0  0  0  0  0  0  0  0  0  0  0  0
    0.7987   -2.3798    4.8803 H   0  0  0  0  0  0  0  0  0  0  0  0
   -0.1458    0.3317   -0.9889 C   0  0  0  0  0  0  0  0  0  0  0  0
   -0.7436   -0.0987   -1.9735 O   0  0  0  0  0  0  0  0  0  0  0  0
    0.8198    1.2550   -1.0813 N   0  0  0  0  0  0  0  0  0  0  0  0
    1.2476    1.5780   -0.2282 H   0  0  0  0  0  0  0  0  0  0  0  0
    1.2663    1.8450   -2.3426 C   0  0  0  0  0  0  0  0  0  0  0  0
    0.4158    2.2986   -2.8575 H   0  0  0  0  0  0  0  0  0  0  0  0
    2.0233    2.6089   -2.1587 H   0  0  0  0  0  0  0  0  0  0  0  0
    1.6842    1.0683   -2.9853 H   0  0  0  0  0  0  0  0  0  0  0  0
  5  6  2  0  0  0  0
  5  7  1  0  0  0  0
  2  3  1  0  0  0  0
  2  4  1  0  0  0  0
  2  5  1  0  0  0  0
  1  2  1  0  0  0  0
 22 23  2  0  0  0  0
 22 24  1  0  0  0  0
 19 20  1  0  0  0  0
 19 21  1  0  0  0  0
 17 18  2  0  0  0  0
 17 19  1  0  0  0  0
 14 15  1  0  0  0  0
 14 16  1  0  0  0  0
 14 17  1  0  0  0  0
 11 12  1  0  0  0  0
 11 13  1  0  0  0  0
 11 14  1  0  0  0  0
  9 10  1  0  0  0  0
  9 11  1  0  0  0  0
  9 22  1  0  0  0  0
  7  8  1  0  0  0  0
  7  9  1  0  0  0  0
 26 27  1  0  0  0  0
 26 28  1  0  0  0  0
 26 29  1  0  0  0  0
 24 25  1  0  0  0  0
 24 26  1  0  0  0  0
M  END
$$$$
default_name
  -OEChem-01062215323D

 29 28  0     1  0  0  0  0  0999 V2000
   -3.3998   -3.6239    1.3678 H   0  0  0  0  0  0  0  0  0  0  0  0
   -3.3608   -2.6749    0.8348 C   0  0  0  0  0  0  0  0  0  0  0  0
   -4.0988   -1.9909    1.2498 H   0  0  0  0  0  0  0  0  0  0  0  0
   -3.5618   -2.8419   -0.2222 H   0  0  0  0  0  0  0  0  0  0  0  0
   -1.9818   -2.0809    0.9918 C   0  0  0  0  0  0  0  0  0  0  0  0
   -1.1288   -2.6669    1.6468 O   0  0  0  0  0  0  0  0  0  0  0  0
   -1.7648   -0.9089    0.3998 N   0  0  0  0  0  0  0  0  0  0  0  0
   -2.5238   -0.4719   -0.1032 H   0  0  0  0  0  0  0  0  0  0  0  0
   -0.4848   -0.1959    0.4138 C   0  0  1  0  0  0  0  0  0  0  0  0
   -0.4739    0.4840    1.2673 H   0  0  0  0  0  0  0  0  0  0  0  0
    0.6520   -1.2201    0.5984 C   0  0  0  0  0  0  0  0  0  0  0  0
    0.5493   -1.9892   -0.1700 H   0  0  0  0  0  0  0  0  0  0  0  0
    1.6103   -0.7189    0.4534 H   0  0  0  0  0  0  0  0  0  0  0  0
    0.6533   -1.9071    1.9751 C   0  0  0  0  0  0  0  0  0  0  0  0
    0.7720   -1.1590    2.7586 H   0  0  0  0  0  0  0  0  0  0  0  0
   -0.3012   -2.4134    2.1187 H   0  0  0  0  0  0  0  0  0  0  0  0
    1.7721   -2.9368    2.1323 C   0  0  0  0  0  0  0  0  0  0  0  0
    2.5355   -3.2379    1.2339 O   0  0  0  0  0  0  0  0  0  0  0  0
    1.9238   -3.5229    3.3001 N   0  0  0  0  0  0  0  0  0  0  0  0
    2.6745   -4.1898    3.3474 H   0  0  0  0  0  0  0  0  0  0  0  0
    1.3259   -3.3104    4.0727 H   0  0  0  0  0  0  0  0  0  0  0  0
   -0.3193    0.6406   -0.8643 C   0  0  0  0  0  0  0  0  0  0  0  0
   -1.1965    0.6349   -1.7260 O   0  0  0  0  0  0  0  0  0  0  0  0
    0.8090    1.3507   -0.9922 N   0  0  0  0  0  0  0  0  0  0  0  0
    1.4712    1.3258   -0.2332 H   0  0  0  0  0  0  0  0  0  0  0  0
    1.1212    2.1844   -2.1522 C   0  0  0  0  0  0  0  0  0  0  0  0
    0.3269    2.9202   -2.3002 H   0  0  0  0  0  0  0  0  0  0  0  0
    2.0687    2.7044   -2.0034 H   0  0  0  0  0  0  0  0  0  0  0  0
    1.1860    1.5624   -3.0466 H   0  0  0  0  0  0  0  0  0  0  0  0
  5  6  2  0  0  0  0
  5  7  1  0  0  0  0
  2  3  1  0  0  0  0
  2  4  1  0  0  0  0
  2  5  1  0  0  0  0
  1  2  1  0  0  0  0
 22 23  2  0  0  0  0
 22 24  1  0  0  0  0
 19 20  1  0  0  0  0
 19 21  1  0  0  0  0
 17 18  2  0  0  0  0
 17 19  1  0  0  0  0
 14 15  1  0  0  0  0
 14 16  1  0  0  0  0
 14 17  1  0  0  0  0
 11 12  1  0  0  0  0
 11 13  1  0  0  0  0
 11 14  1  0  0  0  0
  9 10  1  0  0  0  0
  9 11  1  0  0  0  0
  9 22  1  0  0  0  0
  7  8  1  0  0  0  0
  7  9  1  0  0  0  0
 26 27  1  0  0  0  0
 26 28  1  0  0  0  0
 26 29  1  0  0  0  0
 24 25  1  0  0  0  0
 24 26  1  0  0  0  0
M  END
$$$$
default_name
  -OEChem-01062215323D

 29 28  0     1  0  0  0  0  0999 V2000
   -3.3998   -3.6239    1.3678 H   0  0  0  0  0  0  0  0  0  0  0  0
   -3.3608   -2.6749    0.8348 C   0  0  0  0  0  0  0  0  0  0  0  0
   -4.0988   -1.9909    1.2498 H   0  0  0  0  0  0  0  0  0  0  0  0
   -3.5618   -2.8419   -0.2222 H   0  0  0  0  0  0  0  0  0  0  0  0
   -1.9818   -2.0809    0.9918 C   0  0  0  0  0  0  0  0  0  0  0  0
   -1.1288   -2.6669    1.6468 O   0  0  0  0  0  0  0  0  0  0  0  0
   -1.7648   -0.9089    0.3998 N   0  0  0  0  0  0  0  0  0  0  0  0
   -2.5238   -0.4719   -0.1032 H   0  0  0  0  0  0  0  0  0  0  0  0
   -0.4848   -0.1959    0.4138 C   0  0  1  0  0  0  0  0  0  0  0  0
   -0.4739    0.4840    1.2673 H   0  0  0  0  0  0  0  0  0  0  0  0
    0.6520   -1.2201    0.5984 C   0  0  0  0  0  0  0  0  0  0  0  0
    0.5493   -1.9892   -0.1700 H   0  0  0  0  0  0  0  0  0  0  0  0
    1.6103   -0.7189    0.4534 H   0  0  0  0  0  0  0  0  0  0  0  0
    0.6533   -1.9071    1.9751 C   0  0  0  0  0  0  0  0  0  0  0  0
    0.7720   -1.1590    2.7586 H   0  0  0  0  0  0  0  0  0  0  0  0
   -0.3012   -2.4134    2.1187 H   0  0  0  0  0  0  0  0  0  0  0  0
    1.7721   -2.9368    2.1323 C   0  0  0  0  0  0  0  0  0  0  0  0
    2.5355   -3.2379    1.2339 O   0  0  0  0  0  0  0  0  0  0  0  0
    1.9238   -3.5229    3.3001 N   0  0  0  0  0  0  0  0  0  0  0  0
    2.6745   -4.1898    3.3474 H   0  0  0  0  0  0  0  0  0  0  0  0
    1.3259   -3.3104    4.0727 H   0  0  0  0  0  0  0  0  0  0  0  0
   -0.3193    0.6406   -0.8643 C   0  0  0  0  0  0  0  0  0  0  0  0
   -1.2870    0.8595   -1.5908 O   0  0  0  0  0  0  0  0  0  0  0  0
    0.9077    1.0985   -1.1444 N   0  0  0  0  0  0  0  0  0  0  0  0
    1.6468    0.9002   -0.4891 H   0  0  0  0  0  0  0  0  0  0  0  0
    1.2306    1.8959   -2.3269 C   0  0  0  0  0  0  0  0  0  0  0  0
    0.6025    2.7899   -2.3498 H   0  0  0  0  0  0  0  0  0  0  0  0
    2.2797    2.1949   -2.3095 H   0  0  0  0  0  0  0  0  0  0  0  0
    1.0347    1.3137   -3.2289 H   0  0  0  0  0  0  0  0  0  0  0  0
  5  6  2  0  0  0  0
  5  7  1  0  0  0  0
  2  3  1  0  0  0  0
  2  4  1  0  0  0  0
  2  5  1  0  0  0  0
  1  2  1  0  0  0  0
 22 23  2  0  0  0  0
 22 24  1  0  0  0  0
 19 20  1  0  0  0  0
 19 21  1  0  0  0  0
 17 18  2  0  0  0  0
 17 19  1  0  0  0  0
 14 15  1  0  0  0  0
 14 16  1  0  0  0  0
 14 17  1  0  0  0  0
 11 12  1  0  0  0  0
 11 13  1  0  0  0  0
 11 14  1  0  0  0  0
  9 10  1  0  0  0  0
  9 11  1  0  0  0  0
  9 22  1  0  0  0  0
  7  8  1  0  0  0  0
  7  9  1  0  0  0  0
 26 27  1  0  0  0  0
 26 28  1  0  0  0  0
 26 29  1  0  0  0  0
 24 25  1  0  0  0  0
 24 26  1  0  0  0  0
M  END
$$$$
default_name
  -OEChem-01062215323D

 29 28  0     1  0  0  0  0  0999 V2000
   -3.3998   -3.6239    1.3678 H   0  0  0  0  0  0  0  0  0  0  0  0
   -3.3608   -2.6749    0.8348 C   0  0  0  0  0  0  0  0  0  0  0  0
   -4.0988   -1.9909    1.2498 H   0  0  0  0  0  0  0  0  0  0  0  0
   -3.5618   -2.8419   -0.2222 H   0  0  0  0  0  0  0  0  0  0  0  0
   -1.9818   -2.0809    0.9918 C   0  0  0  0  0  0  0  0  0  0  0  0
   -1.1288   -2.6669    1.6468 O   0  0  0  0  0  0  0  0  0  0  0  0
   -1.7648   -0.9089    0.3998 N   0  0  0  0  0  0  0  0  0  0  0  0
   -2.5238   -0.4719   -0.1032 H   0  0  0  0  0  0  0  0  0  0  0  0
   -0.4848   -0.1959    0.4138 C   0  0  1  0  0  0  0  0  0  0  0  0
   -0.4739    0.4840    1.2673 H   0  0  0  0  0  0  0  0  0  0  0  0
    0.6520   -1.2201    0.5984 C   0  0  0  0  0  0  0  0  0  0  0  0
    0.5493   -1.9892   -0.1700 H   0  0  0  0  0  0  0  0  0  0  0  0
    1.6103   -0.7189    0.4534 H   0  0  0  0  0  0  0  0  0  0  0  0
    0.6533   -1.9071    1.9751 C   0  0  0  0  0  0  0  0  0  0  0  0
    0.7720   -1.1590    2.7586 H   0  0  0  0  0  0  0  0  0  0  0  0
   -0.3012   -2.4134    2.1187 H   0  0  0  0  0  0  0  0  0  0  0  0
    1.7721   -2.9368    2.1323 C   0  0  0  0  0  0  0  0  0  0  0  0
    2.5355   -3.2379    1.2339 O   0  0  0  0  0  0  0  0  0  0  0  0
    1.9238   -3.5229    3.3001 N   0  0  0  0  0  0  0  0  0  0  0  0
    2.6745   -4.1898    3.3474 H   0  0  0  0  0  0  0  0  0  0  0  0
    1.3259   -3.3104    4.0727 H   0  0  0  0  0  0  0  0  0  0  0  0
   -0.3193    0.6406   -0.8643 C   0  0  0  0  0  0  0  0  0  0  0  0
   -1.3070    1.0921   -1.4411 O   0  0  0  0  0  0  0  0  0  0  0  0
    0.9272    0.8380   -1.3125 N   0  0  0  0  0  0  0  0  0  0  0  0
    1.6887    0.4583   -0.7729 H   0  0  0  0  0  0  0  0  0  0  0  0
    1.2495    1.5986   -2.5191 C   0  0  0  0  0  0  0  0  0  0  0  0
    0.8337    2.6061   -2.4402 H   0  0  0  0  0  0  0  0  0  0  0  0
    2.3307    1.6659   -2.6492 H   0  0  0  0  0  0  0  0  0  0  0  0
    0.8094    1.1112   -3.3906 H   0  0  0  0  0  0  0  0  0  0  0  0
  5  6  2  0  0  0  0
  5  7  1  0  0  0  0
  2  3  1  0  0  0  0
  2  4  1  0  0  0  0
  2  5  1  0  0  0  0
  1  2  1  0  0  0  0
 22 23  2  0  0  0  0
 22 24  1  0  0  0  0
 19 20  1  0  0  0  0
 19 21  1  0  0  0  0
 17 18  2  0  0  0  0
 17 19  1  0  0  0  0
 14 15  1  0  0  0  0
 14 16  1  0  0  0  0
 14 17  1  0  0  0  0
 11 12  1  0  0  0  0
 11 13  1  0  0  0  0
 11 14  1  0  0  0  0
  9 10  1  0  0  0  0
  9 11  1  0  0  0  0
  9 22  1  0  0  0  0
  7  8  1  0  0  0  0
  7  9  1  0  0  0  0
 26 27  1  0  0  0  0
 26 28  1  0  0  0  0
 26 29  1  0  0  0  0
 24 25  1  0  0  0  0
 24 26  1  0  0  0  0
M  END
$$$$
default_name
  -OEChem-01062215323D

 29 28  0     1  0  0  0  0  0999 V2000
   -3.3998   -3.6239    1.3678 H   0  0  0  0  0  0  0  0  0  0  0  0
   -3.3608   -2.6749    0.8348 C   0  0  0  0  0  0  0  0  0  0  0  0
   -4.0988   -1.9909    1.2498 H   0  0  0  0  0  0  0  0  0  0  0  0
   -3.5618   -2.8419   -0.2222 H   0  0  0  0  0  0  0  0  0  0  0  0
   -1.9818   -2.0809    0.9918 C   0  0  0  0  0  0  0  0  0  0  0  0
   -1.1288   -2.6669    1.6468 O   0  0  0  0  0  0  0  0  0  0  0  0
   -1.7648   -0.9089    0.3998 N   0  0  0  0  0  0  0  0  0  0  0  0
   -2.5238   -0.4719   -0.1032 H   0  0  0  0  0  0  0  0  0  0  0  0
   -0.4848   -0.1959    0.4138 C   0  0  1  0  0  0  0  0  0  0  0  0
   -0.4739    0.4840    1.2673 H   0  0  0  0  0  0  0  0  0  0  0  0
    0.6520   -1.2201    0.5984 C   0  0  0  0  0  0  0  0  0  0  0  0
    0.5493   -1.9892   -0.1700 H   0  0  0  0  0  0  0  0  0  0  0  0
    1.6103   -0.7189    0.4534 H   0  0  0  0  0  0  0  0  0  0  0  0
    0.6533   -1.9071    1.9751 C   0  0  0  0  0  0  0  0  0  0  0  0
    0.7720   -1.1590    2.7586 H   0  0  0  0  0  0  0  0  0  0  0  0
   -0.3012   -2.4134    2.1187 H   0  0  0  0  0  0  0  0  0  0  0  0
    1.7721   -2.9368    2.1323 C   0  0  0  0  0  0  0  0  0  0  0  0
    2.5355   -3.2379    1.2339 O   0  0  0  0  0  0  0  0  0  0  0  0
    1.9238   -3.5229    3.3001 N   0  0  0  0  0  0  0  0  0  0  0  0
    2.6745   -4.1898    3.3474 H   0  0  0  0  0  0  0  0  0  0  0  0
    1.3259   -3.3104    4.0727 H   0  0  0  0  0  0  0  0  0  0  0  0
   -0.3193    0.6406   -0.8643 C   0  0  0  0  0  0  0  0  0  0  0  0
   -1.2551    1.3169   -1.2872 O   0  0  0  0  0  0  0  0  0  0  0  0
    0.8663    0.5868   -1.4848 N   0  0  0  0  0  0  0  0  0  0  0  0
    1.5941    0.0305   -1.0652 H   0  0  0  0  0  0  0  0  0  0  0  0
    1.1767    1.3127   -2.7156 C   0  0  0  0  0  0  0  0  0  0  0  0
    1.0047    2.3813   -2.5652 H   0  0  0  0  0  0  0  0  0  0  0  0
    2.2181    1.1534   -2.9992 H   0  0  0  0  0  0  0  0  0  0  0  0
    0.5253    0.9685   -3.5208 H   0  0  0  0  0  0  0  0  0  0  0  0
  5  6  2  0  0  0  0
  5  7  1  0  0  0  0
  2  3  1  0  0  0  0
  2  4  1  0  0  0  0
  2  5  1  0  0  0  0
  1  2  1  0  0  0  0
 22 23  2  0  0  0  0
 22 24  1  0  0  0  0
 19 20  1  0  0  0  0
 19 21  1  0  0  0  0
 17 18  2  0  0  0  0
 17 19  1  0  0  0  0
 14 15  1  0  0  0  0
 14 16  1  0  0  0  0
 14 17  1  0  0  0  0
 11 12  1  0  0  0  0
 11 13  1  0  0  0  0
 11 14  1  0  0  0  0
  9 10  1  0  0  0  0
  9 11  1  0  0  0  0
  9 22  1  0  0  0  0
  7  8  1  0  0  0  0
  7  9  1  0  0  0  0
 26 27  1  0  0  0  0
 26 28  1  0  0  0  0
 26 29  1  0  0  0  0
 24 25  1  0  0  0  0
 24 26  1  0  0  0  0
M  END
$$$$
default_name
  -OEChem-01062215323D

 29 28  0     1  0  0  0  0  0999 V2000
   -3.3998   -3.6239    1.3678 H   0  0  0  0  0  0  0  0  0  0  0  0
   -3.3608   -2.6749    0.8348 C   0  0  0  0  0  0  0  0  0  0  0  0
   -4.0988   -1.9909    1.2498 H   0  0  0  0  0  0  0  0  0  0  0  0
   -3.5618   -2.8419   -0.2222 H   0  0  0  0  0  0  0  0  0  0  0  0
   -1.9818   -2.0809    0.9918 C   0  0  0  0  0  0  0  0  0  0  0  0
   -1.1288   -2.6669    1.6468 O   0  0  0  0  0  0  0  0  0  0  0  0
   -1.7648   -0.9089    0.3998 N   0  0  0  0  0  0  0  0  0  0  0  0
   -2.5238   -0.4719   -0.1032 H   0  0  0  0  0  0  0  0  0  0  0  0
   -0.4848   -0.1959    0.4138 C   0  0  1  0  0  0  0  0  0  0  0  0
   -0.4739    0.4840    1.2673 H   0  0  0  0  0  0  0  0  0  0  0  0
    0.6520   -1.2201    0.5984 C   0  0  0  0  0  0  0  0  0  0  0  0
    0.5493   -1.9892   -0.1700 H   0  0  0  0  0  0  0  0  0  0  0  0
    1.6103   -0.7189    0.4534 H   0  0  0  0  0  0  0  0  0  0  0  0
    0.6533   -1.9071    1.9751 C   0  0  0  0  0  0  0  0  0  0  0  0
    0.7720   -1.1590    2.7586 H   0  0  0  0  0  0  0  0  0  0  0  0
   -0.3012   -2.4134    2.1187 H   0  0  0  0  0  0  0  0  0  0  0  0
    1.7721   -2.9368    2.1323 C   0  0  0  0  0  0  0  0  0  0  0  0
    2.5355   -3.2379    1.2339 O   0  0  0  0  0  0  0  0  0  0  0  0
    1.9238   -3.5229    3.3001 N   0  0  0  0  0  0  0  0  0  0  0  0
    2.6745   -4.1898    3.3474 H   0  0  0  0  0  0  0  0  0  0  0  0
    1.3259   -3.3104    4.0727 H   0  0  0  0  0  0  0  0  0  0  0  0
   -0.3193    0.6406   -0.8643 C   0  0  0  0  0  0  0  0  0  0  0  0
   -1.1350    1.5187   -1.1397 O   0  0  0  0  0  0  0  0  0  0  0  0
    0.7291    0.3620   -1.6496 N   0  0  0  0  0  0  0  0  0  0  0  0
    1.3693   -0.3543   -1.3461 H   0  0  0  0  0  0  0  0  0  0  0  0
    1.0171    1.0576   -2.9032 C   0  0  0  0  0  0  0  0  0  0  0  0
    1.1038    2.1308   -2.7163 H   0  0  0  0  0  0  0  0  0  0  0  0
    1.9498    0.6923   -3.3358 H   0  0  0  0  0  0  0  0  0  0  0  0
    0.2019    0.8956   -3.6104 H   0  0  0  0  0  0  0  0  0  0  0  0
  5  6  2  0  0  0  0
  5  7  1  0  0  0  0
  2  3  1  0  0  0  0
  2  4  1  0  0  0  0
  2  5  1  0  0  0  0
  1  2  1  0  0  0  0
 22 23  2  0  0  0  0
 22 24  1  0  0  0  0
 19 20  1  0  0  0  0
 19 21  1  0  0  0  0
 17 18  2  0  0  0  0
 17 19  1  0  0  0  0
 14 15  1  0  0  0  0
 14 16  1  0  0  0  0
 14 17  1  0  0  0  0
 11 12  1  0  0  0  0
 11 13  1  0  0  0  0
 11 14  1  0  0  0  0
  9 10  1  0  0  0  0
  9 11  1  0  0  0  0
  9 22  1  0  0  0  0
  7  8  1  0  0  0  0
  7  9  1  0  0  0  0
 26 27  1  0  0  0  0
 26 28  1  0  0  0  0
 26 29  1  0  0  0  0
 24 25  1  0  0  0  0
 24 26  1  0  0  0  0
M  END
$$$$
default_name
  -OEChem-01062215323D

 29 28  0     1  0  0  0  0  0999 V2000
   -3.3998   -3.6239    1.3678 H   0  0  0  0  0  0  0  0  0  0  0  0
   -3.3608   -2.6749    0.8348 C   0  0  0  0  0  0  0  0  0  0  0  0
   -4.0988   -1.9909    1.2498 H   0  0  0  0  0  0  0  0  0  0  0  0
   -3.5618   -2.8419   -0.2222 H   0  0  0  0  0  0  0  0  0  0  0  0
   -1.9818   -2.0809    0.9918 C   0  0  0  0  0  0  0  0  0  0  0  0
   -1.1288   -2.6669    1.6468 O   0  0  0  0  0  0  0  0  0  0  0  0
   -1.7648   -0.9089    0.3998 N   0  0  0  0  0  0  0  0  0  0  0  0
   -2.5238   -0.4719   -0.1032 H   0  0  0  0  0  0  0  0  0  0  0  0
   -0.4848   -0.1959    0.4138 C   0  0  1  0  0  0  0  0  0  0  0  0
   -0.4739    0.4840    1.2673 H   0  0  0  0  0  0  0  0  0  0  0  0
    0.6520   -1.2201    0.5984 C   0  0  0  0  0  0  0  0  0  0  0  0
    0.5493   -1.9892   -0.1700 H   0  0  0  0  0  0  0  0  0  0  0  0
    1.6103   -0.7189    0.4534 H   0  0  0  0  0  0  0  0  0  0  0  0
    0.6533   -1.9071    1.9751 C   0  0  0  0  0  0  0  0  0  0  0  0
    0.7720   -1.1590    2.7586 H   0  0  0  0  0  0  0  0  0  0  0  0
   -0.3012   -2.4134    2.1187 H   0  0  0  0  0  0  0  0  0  0  0  0
    1.7721   -2.9368    2.1323 C   0  0  0  0  0  0  0  0  0  0  0  0
    2.5355   -3.2379    1.2339 O   0  0  0  0  0  0  0  0  0  0  0  0
    1.9238   -3.5229    3.3001 N   0  0  0  0  0  0  0  0  0  0  0  0
    2.6745   -4.1898    3.3474 H   0  0  0  0  0  0  0  0  0  0  0  0
    1.3259   -3.3104    4.0727 H   0  0  0  0  0  0  0  0  0  0  0  0
   -0.3193    0.6406   -0.8643 C   0  0  0  0  0  0  0  0  0  0  0  0
   -0.9547    1.6835   -1.0084 O   0  0  0  0  0  0  0  0  0  0  0  0
    0.5250    0.1791   -1.7958 N   0  0  0  0  0  0  0  0  0  0  0  0
    1.0298   -0.6698   -1.5966 H   0  0  0  0  0  0  0  0  0  0  0  0
    0.7816    0.8509   -3.0690 C   0  0  0  0  0  0  0  0  0  0  0  0
    1.1244    1.8718   -2.8832 H   0  0  0  0  0  0  0  0  0  0  0  0
    1.5438    0.3141   -3.6359 H   0  0  0  0  0  0  0  0  0  0  0  0
   -0.1389    0.8972   -3.6534 H   0  0  0  0  0  0  0  0  0  0  0  0
  5  6  2  0  0  0  0
  5  7  1  0  0  0  0
  2  3  1  0  0  0  0
  2  4  1  0  0  0  0
  2  5  1  0  0  0  0
  1  2  1  0  0  0  0
 22 23  2  0  0  0  0
 22 24  1  0  0  0  0
 19 20  1  0  0  0  0
 19 21  1  0  0  0  0
 17 18  2  0  0  0  0
 17 19  1  0  0  0  0
 14 15  1  0  0  0  0
 14 16  1  0  0  0  0
 14 17  1  0  0  0  0
 11 12  1  0  0  0  0
 11 13  1  0  0  0  0
 11 14  1  0  0  0  0
  9 10  1  0  0  0  0
  9 11  1  0  0  0  0
  9 22  1  0  0  0  0
  7  8  1  0  0  0  0
  7  9  1  0  0  0  0
 26 27  1  0  0  0  0
 26 28  1  0  0  0  0
 26 29  1  0  0  0  0
 24 25  1  0  0  0  0
 24 26  1  0  0  0  0
M  END
$$$$
default_name
  -OEChem-01062215323D

 29 28  0     1  0  0  0  0  0999 V2000
   -3.3998   -3.6239    1.3678 H   0  0  0  0  0  0  0  0  0  0  0  0
   -3.3608   -2.6749    0.8348 C   0  0  0  0  0  0  0  0  0  0  0  0
   -4.0988   -1.9909    1.2498 H   0  0  0  0  0  0  0  0  0  0  0  0
   -3.5618   -2.8419   -0.2222 H   0  0  0  0  0  0  0  0  0  0  0  0
   -1.9818   -2.0809    0.9918 C   0  0  0  0  0  0  0  0  0  0  0  0
   -1.1288   -2.6669    1.6468 O   0  0  0  0  0  0  0  0  0  0  0  0
   -1.7648   -0.9089    0.3998 N   0  0  0  0  0  0  0  0  0  0  0  0
   -2.5238   -0.4719   -0.1032 H   0  0  0  0  0  0  0  0  0  0  0  0
   -0.4848   -0.1959    0.4138 C   0  0  1  0  0  0  0  0  0  0  0  0
   -0.4739    0.4840    1.2673 H   0  0  0  0  0  0  0  0  0  0  0  0
    0.6520   -1.2201    0.5984 C   0  0  0  0  0  0  0  0  0  0  0  0
    0.5493   -1.9892   -0.1700 H   0  0  0  0  0  0  0  0  0  0  0  0
    1.6103   -0.7189    0.4534 H   0  0  0  0  0  0  0  0  0  0  0  0
    0.6533   -1.9071    1.9751 C   0  0  0  0  0  0  0  0  0  0  0  0
    0.7720   -1.1590    2.7586 H   0  0  0  0  0  0  0  0  0  0  0  0
   -0.3012   -2.4134    2.1187 H   0  0  0  0  0  0  0  0  0  0  0  0
    1.7721   -2.9368    2.1323 C   0  0  0  0  0  0  0  0  0  0  0  0
    2.5355   -3.2379    1.2339 O   0  0  0  0  0  0  0  0  0  0  0  0
    1.9238   -3.5229    3.3001 N   0  0  0  0  0  0  0  0  0  0  0  0
    2.6745   -4.1898    3.3474 H   0  0  0  0  0  0  0  0  0  0  0  0
    1.3259   -3.3104    4.0727 H   0  0  0  0  0  0  0  0  0  0  0  0
   -0.3193    0.6406   -0.8643 C   0  0  0  0  0  0  0  0  0  0  0  0
   -0.7265    1.8003   -0.9025 O   0  0  0  0  0  0  0  0  0  0  0  0
    0.2679    0.0504   -1.9133 N   0  0  0  0  0  0  0  0  0  0  0  0
    0.5987   -0.8944   -1.7994 H   0  0  0  0  0  0  0  0  0  0  0  0
    0.4863    0.7065   -3.2018 C   0  0  0  0  0  0  0  0  0  0  0  0
    1.0649    1.6217   -3.0546 H   0  0  0  0  0  0  0  0  0  0  0  0
    1.0280    0.0446   -3.8791 H   0  0  0  0  0  0  0  0  0  0  0  0
   -0.4737    0.9734   -3.6469 H   0  0  0  0  0  0  0  0  0  0  0  0
  5  6  2  0  0  0  0
  5  7  1  0  0  0  0
  2  3  1  0  0  0  0
  2  4  1  0  0  0  0
  2  5  1  0  0  0  0
  1  2  1  0  0  0  0
 22 23  2  0  0  0  0
 22 24  1  0  0  0  0
 19 20  1  0  0  0  0
 19 21  1  0  0  0  0
 17 18  2  0  0  0  0
 17 19  1  0  0  0  0
 14 15  1  0  0  0  0
 14 16  1  0  0  0  0
 14 17  1  0  0  0  0
 11 12  1  0  0  0  0
 11 13  1  0  0  0  0
 11 14  1  0  0  0  0
  9 10  1  0  0  0  0
  9 11  1  0  0  0  0
  9 22  1  0  0  0  0
  7  8  1  0  0  0  0
  7  9  1  0  0  0  0
 26 27  1  0  0  0  0
 26 28  1  0  0  0  0
 26 29  1  0  0  0  0
 24 25  1  0  0  0  0
 24 26  1  0  0  0  0
M  END
$$$$
default_name
  -OEChem-01062215323D

 29 28  0     1  0  0  0  0  0999 V2000
   -3.3998   -3.6239    1.3678 H   0  0  0  0  0  0  0  0  0  0  0  0
   -3.3608   -2.6749    0.8348 C   0  0  0  0  0  0  0  0  0  0  0  0
   -4.0988   -1.9909    1.2498 H   0  0  0  0  0  0  0  0  0  0  0  0
   -3.5618   -2.8419   -0.2222 H   0  0  0  0  0  0  0  0  0  0  0  0
   -1.9818   -2.0809    0.9918 C   0  0  0  0  0  0  0  0  0  0  0  0
   -1.1288   -2.6669    1.6468 O   0  0  0  0  0  0  0  0  0  0  0  0
   -1.7648   -0.9089    0.3998 N   0  0  0  0  0  0  0  0  0  0  0  0
   -2.5238   -0.4719   -0.1032 H   0  0  0  0  0  0  0  0  0  0  0  0
   -0.4848   -0.1959    0.4138 C   0  0  1  0  0  0  0  0  0  0  0  0
   -0.4739    0.4840    1.2673 H   0  0  0  0  0  0  0  0  0  0  0  0
    0.6520   -1.2201    0.5984 C   0  0  0  0  0  0  0  0  0  0  0  0
    0.5493   -1.9892   -0.1700 H   0  0  0  0  0  0  0  0  0  0  0  0
    1.6103   -0.7189    0.4534 H   0  0  0  0  0  0  0  0  0  0  0  0
    0.6533   -1.9071    1.9751 C   0  0  0  0  0  0  0  0  0  0  0  0
    0.7720   -1.1590    2.7586 H   0  0  0  0  0  0  0  0  0  0  0  0
   -0.3012   -2.4134    2.1187 H   0  0  0  0  0  0  0  0  0  0  0  0
    1.7721   -2.9368    2.1323 C   0  0  0  0  0  0  0  0  0  0  0  0
    2.5355   -3.2379    1.2339 O   0  0  0  0  0  0  0  0  0  0  0  0
    1.9238   -3.5229    3.3001 N   0  0  0  0  0  0  0  0  0  0  0  0
    2.6745   -4.1898    3.3474 H   0  0  0  0  0  0  0  0  0  0  0  0
    1.3259   -3.3104    4.0727 H   0  0  0  0  0  0  0  0  0  0  0  0
   -0.3193    0.6406   -0.8643 C   0  0  0  0  0  0  0  0  0  0  0  0
   -0.4661    1.8610   -0.8290 O   0  0  0  0  0  0  0  0  0  0  0  0
   -0.0248   -0.0153   -1.9942 N   0  0  0  0  0  0  0  0  0  0  0  0
    0.1053   -1.0130   -1.9409 H   0  0  0  0  0  0  0  0  0  0  0  0
    0.1512    0.6343   -3.2924 C   0  0  0  0  0  0  0  0  0  0  0  0
    0.9296    1.3978   -3.2187 H   0  0  0  0  0  0  0  0  0  0  0  0
    0.4375   -0.0980   -4.0488 H   0  0  0  0  0  0  0  0  0  0  0  0
   -0.7798    1.1188   -3.5914 H   0  0  0  0  0  0  0  0  0  0  0  0
  5  6  2  0  0  0  0
  5  7  1  0  0  0  0
  2  3  1  0  0  0  0
  2  4  1  0  0  0  0
  2  5  1  0  0  0  0
  1  2  1  0  0  0  0
 22 23  2  0  0  0  0
 22 24  1  0  0  0  0
 19 20  1  0  0  0  0
 19 21  1  0  0  0  0
 17 18  2  0  0  0  0
 17 19  1  0  0  0  0
 14 15  1  0  0  0  0
 14 16  1  0  0  0  0
 14 17  1  0  0  0  0
 11 12  1  0  0  0  0
 11 13  1  0  0  0  0
 11 14  1  0  0  0  0
  9 10  1  0  0  0  0
  9 11  1  0  0  0  0
  9 22  1  0  0  0  0
  7  8  1  0  0  0  0
  7  9  1  0  0  0  0
 26 27  1  0  0  0  0
 26 28  1  0  0  0  0
 26 29  1  0  0  0  0
 24 25  1  0  0  0  0
 24 26  1  0  0  0  0
M  END
$$$$
default_name
  -OEChem-01062215323D

 29 28  0     1  0  0  0  0  0999 V2000
   -3.3998   -3.6239    1.3678 H   0  0  0  0  0  0  0  0  0  0  0  0
   -3.3608   -2.6749    0.8348 C   0  0  0  0  0  0  0  0  0  0  0  0
   -4.0988   -1.9909    1.2498 H   0  0  0  0  0  0  0  0  0  0  0  0
   -3.5618   -2.8419   -0.2222 H   0  0  0  0  0  0  0  0  0  0  0  0
   -1.9818   -2.0809    0.9918 C   0  0  0  0  0  0  0  0  0  0  0  0
   -1.1288   -2.6669    1.6468 O   0  0  0  0  0  0  0  0  0  0  0  0
   -1.7648   -0.9089    0.3998 N   0  0  0  0  0  0  0  0  0  0  0  0
   -2.5238   -0.4719   -0.1032 H   0  0  0  0  0  0  0  0  0  0  0  0
   -0.4848   -0.1959    0.4138 C   0  0  1  0  0  0  0  0  0  0  0  0
   -0.4739    0.4840    1.2673 H   0  0  0  0  0  0  0  0  0  0  0  0
    0.6520   -1.2201    0.5984 C   0  0  0  0  0  0  0  0  0  0  0  0
    0.5493   -1.9892   -0.1700 H   0  0  0  0  0  0  0  0  0  0  0  0
    1.6103   -0.7189    0.4534 H   0  0  0  0  0  0  0  0  0  0  0  0
    0.6533   -1.9071    1.9751 C   0  0  0  0  0  0  0  0  0  0  0  0
    0.7720   -1.1590    2.7586 H   0  0  0  0  0  0  0  0  0  0  0  0
   -0.3012   -2.4134    2.1187 H   0  0  0  0  0  0  0  0  0  0  0  0
    1.7721   -2.9368    2.1323 C   0  0  0  0  0  0  0  0  0  0  0  0
    2.5355   -3.2379    1.2339 O   0  0  0  0  0  0  0  0  0  0  0  0
    1.9238   -3.5229    3.3001 N   0  0  0  0  0  0  0  0  0  0  0  0
    2.6745   -4.1898    3.3474 H   0  0  0  0  0  0  0  0  0  0  0  0
    1.3259   -3.3104    4.0727 H   0  0  0  0  0  0  0  0  0  0  0  0
   -0.3193    0.6406   -0.8643 C   0  0  0  0  0  0  0  0  0  0  0  0
   -0.1911    1.8615   -0.7931 O   0  0  0  0  0  0  0  0  0  0  0  0
   -0.3330   -0.0135   -2.0329 N   0  0  0  0  0  0  0  0  0  0  0  0
   -0.4167   -1.0173   -2.0113 H   0  0  0  0  0  0  0  0  0  0  0  0
   -0.2008    0.6392   -3.3347 C   0  0  0  0  0  0  0  0  0  0  0  0
    0.7274    1.2152   -3.3643 H   0  0  0  0  0  0  0  0  0  0  0  0
   -0.1875   -0.1038   -4.1335 H   0  0  0  0  0  0  0  0  0  0  0  0
   -1.0364    1.3237   -3.4905 H   0  0  0  0  0  0  0  0  0  0  0  0
  5  6  2  0  0  0  0
  5  7  1  0  0  0  0
  2  3  1  0  0  0  0
  2  4  1  0  0  0  0
  2  5  1  0  0  0  0
  1  2  1  0  0  0  0
 22 23  2  0  0  0  0
 22 24  1  0  0  0  0
 19 20  1  0  0  0  0
 19 21  1  0  0  0  0
 17 18  2  0  0  0  0
 17 19  1  0  0  0  0
 14 15  1  0  0  0  0
 14 16  1  0  0  0  0
 14 17  1  0  0  0  0
 11 12  1  0  0  0  0
 11 13  1  0  0  0  0
 11 14  1  0  0  0  0
  9 10  1  0  0  0  0
  9 11  1  0  0  0  0
  9 22  1  0  0  0  0
  7  8  1  0  0  0  0
  7  9  1  0  0  0  0
 26 27  1  0  0  0  0
 26 28  1  0  0  0  0
 26 29  1  0  0  0  0
 24 25  1  0  0  0  0
 24 26  1  0  0  0  0
M  END
$$$$
default_name
  -OEChem-01062215323D

 29 28  0     1  0  0  0  0  0999 V2000
   -3.3998   -3.6239    1.3678 H   0  0  0  0  0  0  0  0  0  0  0  0
   -3.3608   -2.6749    0.8348 C   0  0  0  0  0  0  0  0  0  0  0  0
   -4.0988   -1.9909    1.2498 H   0  0  0  0  0  0  0  0  0  0  0  0
   -3.5618   -2.8419   -0.2222 H   0  0  0  0  0  0  0  0  0  0  0  0
   -1.9818   -2.0809    0.9918 C   0  0  0  0  0  0  0  0  0  0  0  0
   -1.1288   -2.6669    1.6468 O   0  0  0  0  0  0  0  0  0  0  0  0
   -1.7648   -0.9089    0.3998 N   0  0  0  0  0  0  0  0  0  0  0  0
   -2.5238   -0.4719   -0.1032 H   0  0  0  0  0  0  0  0  0  0  0  0
   -0.4848   -0.1959    0.4138 C   0  0  1  0  0  0  0  0  0  0  0  0
   -0.4739    0.4840    1.2673 H   0  0  0  0  0  0  0  0  0  0  0  0
    0.6520   -1.2201    0.5984 C   0  0  0  0  0  0  0  0  0  0  0  0
    0.5493   -1.9892   -0.1700 H   0  0  0  0  0  0  0  0  0  0  0  0
    1.6103   -0.7189    0.4534 H   0  0  0  0  0  0  0  0  0  0  0  0
    0.6533   -1.9071    1.9751 C   0  0  0  0  0  0  0  0  0  0  0  0
    0.7720   -1.1590    2.7586 H   0  0  0  0  0  0  0  0  0  0  0  0
   -0.3012   -2.4134    2.1187 H   0  0  0  0  0  0  0  0  0  0  0  0
    1.7721   -2.9368    2.1323 C   0  0  0  0  0  0  0  0  0  0  0  0
    2.5355   -3.2379    1.2339 O   0  0  0  0  0  0  0  0  0  0  0  0
    1.9238   -3.5229    3.3001 N   0  0  0  0  0  0  0  0  0  0  0  0
    2.6745   -4.1898    3.3474 H   0  0  0  0  0  0  0  0  0  0  0  0
    1.3259   -3.3104    4.0727 H   0  0  0  0  0  0  0  0  0  0  0  0
   -0.3193    0.6406   -0.8643 C   0  0  0  0  0  0  0  0  0  0  0  0
    0.0797    1.8018   -0.7971 O   0  0  0  0  0  0  0  0  0  0  0  0
   -0.6357    0.0557   -2.0268 N   0  0  0  0  0  0  0  0  0  0  0  0
   -0.9318   -0.9071   -2.0058 H   0  0  0  0  0  0  0  0  0  0  0  0
   -0.5456    0.7210   -3.3259 C   0  0  0  0  0  0  0  0  0  0  0  0
    0.4724    1.0865   -3.4816 H   0  0  0  0  0  0  0  0  0  0  0  0
   -0.8044    0.0275   -4.1275 H   0  0  0  0  0  0  0  0  0  0  0  0
   -1.2259    1.5740   -3.3512 H   0  0  0  0  0  0  0  0  0  0  0  0
  5  6  2  0  0  0  0
  5  7  1  0  0  0  0
  2  3  1  0  0  0  0
  2  4  1  0  0  0  0
  2  5  1  0  0  0  0
  1  2  1  0  0  0  0
 22 23  2  0  0  0  0
 22 24  1  0  0  0  0
 19 20  1  0  0  0  0
 19 21  1  0  0  0  0
 17 18  2  0  0  0  0
 17 19  1  0  0  0  0
 14 15  1  0  0  0  0
 14 16  1  0  0  0  0
 14 17  1  0  0  0  0
 11 12  1  0  0  0  0
 11 13  1  0  0  0  0
 11 14  1  0  0  0  0
  9 10  1  0  0  0  0
  9 11  1  0  0  0  0
  9 22  1  0  0  0  0
  7  8  1  0  0  0  0
  7  9  1  0  0  0  0
 26 27  1  0  0  0  0
 26 28  1  0  0  0  0
 26 29  1  0  0  0  0
 24 25  1  0  0  0  0
 24 26  1  0  0  0  0
M  END
$$$$
default_name
  -OEChem-01062215323D

 29 28  0     1  0  0  0  0  0999 V2000
   -3.3998   -3.6239    1.3678 H   0  0  0  0  0  0  0  0  0  0  0  0
   -3.3608   -2.6749    0.8348 C   0  0  0  0  0  0  0  0  0  0  0  0
   -4.0988   -1.9909    1.2498 H   0  0  0  0  0  0  0  0  0  0  0  0
   -3.5618   -2.8419   -0.2222 H   0  0  0  0  0  0  0  0  0  0  0  0
   -1.9818   -2.0809    0.9918 C   0  0  0  0  0  0  0  0  0  0  0  0
   -1.1288   -2.6669    1.6468 O   0  0  0  0  0  0  0  0  0  0  0  0
   -1.7648   -0.9089    0.3998 N   0  0  0  0  0  0  0  0  0  0  0  0
   -2.5238   -0.4719   -0.1032 H   0  0  0  0  0  0  0  0  0  0  0  0
   -0.4848   -0.1959    0.4138 C   0  0  1  0  0  0  0  0  0  0  0  0
   -0.4739    0.4840    1.2673 H   0  0  0  0  0  0  0  0  0  0  0  0
    0.6520   -1.2201    0.5984 C   0  0  0  0  0  0  0  0  0  0  0  0
    0.5493   -1.9892   -0.1700 H   0  0  0  0  0  0  0  0  0  0  0  0
    1.6103   -0.7189    0.4534 H   0  0  0  0  0  0  0  0  0  0  0  0
    0.6533   -1.9071    1.9751 C   0  0  0  0  0  0  0  0  0  0  0  0
    0.7720   -1.1590    2.7586 H   0  0  0  0  0  0  0  0  0  0  0  0
   -0.3012   -2.4134    2.1187 H   0  0  0  0  0  0  0  0  0  0  0  0
    1.7721   -2.9368    2.1323 C   0  0  0  0  0  0  0  0  0  0  0  0
    2.5355   -3.2379    1.2339 O   0  0  0  0  0  0  0  0  0  0  0  0
    1.9238   -3.5229    3.3001 N   0  0  0  0  0  0  0  0  0  0  0  0
    2.6745   -4.1898    3.3474 H   0  0  0  0  0  0  0  0  0  0  0  0
    1.3259   -3.3104    4.0727 H   0  0  0  0  0  0  0  0  0  0  0  0
   -0.3193    0.6406   -0.8643 C   0  0  0  0  0  0  0  0  0  0  0  0
    0.3279    1.6860   -0.8408 O   0  0  0  0  0  0  0  0  0  0  0  0
   -0.9124    0.1876   -1.9763 N   0  0  0  0  0  0  0  0  0  0  0  0
   -1.4049   -0.6899   -1.9249 H   0  0  0  0  0  0  0  0  0  0  0  0
   -0.8599    0.8739   -3.2665 C   0  0  0  0  0  0  0  0  0  0  0  0
    0.1818    1.0202   -3.5626 H   0  0  0  0  0  0  0  0  0  0  0  0
   -1.3712    0.2870   -4.0310 H   0  0  0  0  0  0  0  0  0  0  0  0
   -1.3354    1.8527   -3.1829 H   0  0  0  0  0  0  0  0  0  0  0  0
  5  6  2  0  0  0  0
  5  7  1  0  0  0  0
  2  3  1  0  0  0  0
  2  4  1  0  0  0  0
  2  5  1  0  0  0  0
  1  2  1  0  0  0  0
 22 23  2  0  0  0  0
 22 24  1  0  0  0  0
 19 20  1  0  0  0  0
 19 21  1  0  0  0  0
 17 18  2  0  0  0  0
 17 19  1  0  0  0  0
 14 15  1  0  0  0  0
 14 16  1  0  0  0  0
 14 17  1  0  0  0  0
 11 12  1  0  0  0  0
 11 13  1  0  0  0  0
 11 14  1  0  0  0  0
  9 10  1  0  0  0  0
  9 11  1  0  0  0  0
  9 22  1  0  0  0  0
  7  8  1  0  0  0  0
  7  9  1  0  0  0  0
 26 27  1  0  0  0  0
 26 28  1  0  0  0  0
 26 29  1  0  0  0  0
 24 25  1  0  0  0  0
 24 26  1  0  0  0  0
M  END
$$$$
default_name
  -OEChem-01062215323D

 29 28  0     1  0  0  0  0  0999 V2000
   -3.3998   -3.6239    1.3678 H   0  0  0  0  0  0  0  0  0  0  0  0
   -3.3608   -2.6749    0.8348 C   0  0  0  0  0  0  0  0  0  0  0  0
   -4.0988   -1.9909    1.2498 H   0  0  0  0  0  0  0  0  0  0  0  0
   -3.5618   -2.8419   -0.2222 H   0  0  0  0  0  0  0  0  0  0  0  0
   -1.9818   -2.0809    0.9918 C   0  0  0  0  0  0  0  0  0  0  0  0
   -1.1288   -2.6669    1.6468 O   0  0  0  0  0  0  0  0  0  0  0  0
   -1.7648   -0.9089    0.3998 N   0  0  0  0  0  0  0  0  0  0  0  0
   -2.5238   -0.4719   -0.1032 H   0  0  0  0  0  0  0  0  0  0  0  0
   -0.4848   -0.1959    0.4138 C   0  0  1  0  0  0  0  0  0  0  0  0
   -0.4739    0.4840    1.2673 H   0  0  0  0  0  0  0  0  0  0  0  0
    0.6520   -1.2201    0.5984 C   0  0  0  0  0  0  0  0  0  0  0  0
    0.5493   -1.9892   -0.1700 H   0  0  0  0  0  0  0  0  0  0  0  0
    1.6103   -0.7189    0.4534 H   0  0  0  0  0  0  0  0  0  0  0  0
    0.6533   -1.9071    1.9751 C   0  0  0  0  0  0  0  0  0  0  0  0
    0.7720   -1.1590    2.7586 H   0  0  0  0  0  0  0  0  0  0  0  0
   -0.3012   -2.4134    2.1187 H   0  0  0  0  0  0  0  0  0  0  0  0
    1.7721   -2.9368    2.1323 C   0  0  0  0  0  0  0  0  0  0  0  0
    2.5355   -3.2379    1.2339 O   0  0  0  0  0  0  0  0  0  0  0  0
    1.9238   -3.5229    3.3001 N   0  0  0  0  0  0  0  0  0  0  0  0
    2.6745   -4.1898    3.3474 H   0  0  0  0  0  0  0  0  0  0  0  0
    1.3259   -3.3104    4.0727 H   0  0  0  0  0  0  0  0  0  0  0  0
   -0.3193    0.6406   -0.8643 C   0  0  0  0  0  0  0  0  0  0  0  0
    0.5365    1.5218   -0.9212 O   0  0  0  0  0  0  0  0  0  0  0  0
   -1.1442    0.3731   -1.8849 N   0  0  0  0  0  0  0  0  0  0  0  0
   -1.8036   -0.3805   -1.7740 H   0  0  0  0  0  0  0  0  0  0  0  0
   -1.1222    1.0877   -3.1605 C   0  0  0  0  0  0  0  0  0  0  0  0
   -0.1246    1.0211   -3.6017 H   0  0  0  0  0  0  0  0  0  0  0  0
   -1.8492    0.6570   -3.8507 H   0  0  0  0  0  0  0  0  0  0  0  0
   -1.3574    2.1408   -2.9972 H   0  0  0  0  0  0  0  0  0  0  0  0
  5  6  2  0  0  0  0
  5  7  1  0  0  0  0
  2  3  1  0  0  0  0
  2  4  1  0  0  0  0
  2  5  1  0  0  0  0
  1  2  1  0  0  0  0
 22 23  2  0  0  0  0
 22 24  1  0  0  0  0
 19 20  1  0  0  0  0
 19 21  1  0  0  0  0
 17 18  2  0  0  0  0
 17 19  1  0  0  0  0
 14 15  1  0  0  0  0
 14 16  1  0  0  0  0
 14 17  1  0  0  0  0
 11 12  1  0  0  0  0
 11 13  1  0  0  0  0
 11 14  1  0  0  0  0
  9 10  1  0  0  0  0
  9 11  1  0  0  0  0
  9 22  1  0  0  0  0
  7  8  1  0  0  0  0
  7  9  1  0  0  0  0
 26 27  1  0  0  0  0
 26 28  1  0  0  0  0
 26 29  1  0  0  0  0
 24 25  1  0  0  0  0
 24 26  1  0  0  0  0
M  END
$$$$
default_name
  -OEChem-01062215323D

 29 28  0     1  0  0  0  0  0999 V2000
   -3.3998   -3.6239    1.3678 H   0  0  0  0  0  0  0  0  0  0  0  0
   -3.3608   -2.6749    0.8348 C   0  0  0  0  0  0  0  0  0  0  0  0
   -4.0988   -1.9909    1.2498 H   0  0  0  0  0  0  0  0  0  0  0  0
   -3.5618   -2.8419   -0.2222 H   0  0  0  0  0  0  0  0  0  0  0  0
   -1.9818   -2.0809    0.9918 C   0  0  0  0  0  0  0  0  0  0  0  0
   -1.1288   -2.6669    1.6468 O   0  0  0  0  0  0  0  0  0  0  0  0
   -1.7648   -0.9089    0.3998 N   0  0  0  0  0  0  0  0  0  0  0  0
   -2.5238   -0.4719   -0.1032 H   0  0  0  0  0  0  0  0  0  0  0  0
   -0.4848   -0.1959    0.4138 C   0  0  1  0  0  0  0  0  0  0  0  0
   -0.4739    0.4840    1.2673 H   0  0  0  0  0  0  0  0  0  0  0  0
    0.6520   -1.2201    0.5984 C   0  0  0  0  0  0  0  0  0  0  0  0
    0.5493   -1.9892   -0.1700 H   0  0  0  0  0  0  0  0  0  0  0  0
    1.6103   -0.7189    0.4534 H   0  0  0  0  0  0  0  0  0  0  0  0
    0.6533   -1.9071    1.9751 C   0  0  0  0  0  0  0  0  0  0  0  0
    0.7720   -1.1590    2.7586 H   0  0  0  0  0  0  0  0  0  0  0  0
   -0.3012   -2.4134    2.1187 H   0  0  0  0  0  0  0  0  0  0  0  0
    1.7721   -2.9368    2.1323 C   0  0  0  0  0  0  0  0  0  0  0  0
    2.5355   -3.2379    1.2339 O   0  0  0  0  0  0  0  0  0  0  0  0
    1.9238   -3.5229    3.3001 N   0  0  0  0  0  0  0  0  0  0  0  0
    2.6745   -4.1898    3.3474 H   0  0  0  0  0  0  0  0  0  0  0  0
    1.3259   -3.3104    4.0727 H   0  0  0  0  0  0  0  0  0  0  0  0
   -0.3193    0.6406   -0.8643 C   0  0  0  0  0  0  0  0  0  0  0  0
    0.6913    1.3206   -1.0328 O   0  0  0  0  0  0  0  0  0  0  0  0
   -1.3152    0.5997   -1.7587 N   0  0  0  0  0  0  0  0  0  0  0  0
   -2.1009   -0.0000   -1.5635 H   0  0  0  0  0  0  0  0  0  0  0  0
   -1.3146    1.3476   -3.0153 C   0  0  0  0  0  0  0  0  0  0  0  0
   -0.4259    1.0890   -3.5963 H   0  0  0  0  0  0  0  0  0  0  0  0
   -2.2058    1.1122   -3.5989 H   0  0  0  0  0  0  0  0  0  0  0  0
   -1.2906    2.4186   -2.8067 H   0  0  0  0  0  0  0  0  0  0  0  0
  5  6  2  0  0  0  0
  5  7  1  0  0  0  0
  2  3  1  0  0  0  0
  2  4  1  0  0  0  0
  2  5  1  0  0  0  0
  1  2  1  0  0  0  0
 22 23  2  0  0  0  0
 22 24  1  0  0  0  0
 19 20  1  0  0  0  0
 19 21  1  0  0  0  0
 17 18  2  0  0  0  0
 17 19  1  0  0  0  0
 14 15  1  0  0  0  0
 14 16  1  0  0  0  0
 14 17  1  0  0  0  0
 11 12  1  0  0  0  0
 11 13  1  0  0  0  0
 11 14  1  0  0  0  0
  9 10  1  0  0  0  0
  9 11  1  0  0  0  0
  9 22  1  0  0  0  0
  7  8  1  0  0  0  0
  7  9  1  0  0  0  0
 26 27  1  0  0  0  0
 26 28  1  0  0  0  0
 26 29  1  0  0  0  0
 24 25  1  0  0  0  0
 24 26  1  0  0  0  0
M  END
$$$$
default_name
  -OEChem-01062215323D

 29 28  0     1  0  0  0  0  0999 V2000
   -3.3998   -3.6239    1.3678 H   0  0  0  0  0  0  0  0  0  0  0  0
   -3.3608   -2.6749    0.8348 C   0  0  0  0  0  0  0  0  0  0  0  0
   -4.0988   -1.9909    1.2498 H   0  0  0  0  0  0  0  0  0  0  0  0
   -3.5618   -2.8419   -0.2222 H   0  0  0  0  0  0  0  0  0  0  0  0
   -1.9818   -2.0809    0.9918 C   0  0  0  0  0  0  0  0  0  0  0  0
   -1.1288   -2.6669    1.6468 O   0  0  0  0  0  0  0  0  0  0  0  0
   -1.7648   -0.9089    0.3998 N   0  0  0  0  0  0  0  0  0  0  0  0
   -2.5238   -0.4719   -0.1032 H   0  0  0  0  0  0  0  0  0  0  0  0
   -0.4848   -0.1959    0.4138 C   0  0  1  0  0  0  0  0  0  0  0  0
   -0.4739    0.4840    1.2673 H   0  0  0  0  0  0  0  0  0  0  0  0
    0.6520   -1.2201    0.5984 C   0  0  0  0  0  0  0  0  0  0  0  0
    0.5493   -1.9892   -0.1700 H   0  0  0  0  0  0  0  0  0  0  0  0
    1.6103   -0.7189    0.4534 H   0  0  0  0  0  0  0  0  0  0  0  0
    0.6533   -1.9071    1.9751 C   0  0  0  0  0  0  0  0  0  0  0  0
    0.7720   -1.1590    2.7586 H   0  0  0  0  0  0  0  0  0  0  0  0
   -0.3012   -2.4134    2.1187 H   0  0  0  0  0  0  0  0  0  0  0  0
    1.7721   -2.9368    2.1323 C   0  0  0  0  0  0  0  0  0  0  0  0
    2.5355   -3.2379    1.2339 O   0  0  0  0  0  0  0  0  0  0  0  0
    1.9238   -3.5229    3.3001 N   0  0  0  0  0  0  0  0  0  0  0  0
    2.6745   -4.1898    3.3474 H   0  0  0  0  0  0  0  0  0  0  0  0
    1.3259   -3.3104    4.0727 H   0  0  0  0  0  0  0  0  0  0  0  0
   -0.3193    0.6406   -0.8643 C   0  0  0  0  0  0  0  0  0  0  0  0
    0.7818    1.0961   -1.1681 O   0  0  0  0  0  0  0  0  0  0  0  0
   -1.4139    0.8518   -1.6064 N   0  0  0  0  0  0  0  0  0  0  0  0
   -2.2765    0.4256   -1.3076 H   0  0  0  0  0  0  0  0  0  0  0  0
   -1.4240    1.6361   -2.8406 C   0  0  0  0  0  0  0  0  0  0  0  0
   -0.7015    1.2193   -3.5467 H   0  0  0  0  0  0  0  0  0  0  0  0
   -2.4168    1.6217   -3.2927 H   0  0  0  0  0  0  0  0  0  0  0  0
   -1.1393    2.6673   -2.6244 H   0  0  0  0  0  0  0  0  0  0  0  0
  5  6  2  0  0  0  0
  5  7  1  0  0  0  0
  2  3  1  0  0  0  0
  2  4  1  0  0  0  0
  2  5  1  0  0  0  0
  1  2  1  0  0  0  0
 22 23  2  0  0  0  0
 22 24  1  0  0  0  0
 19 20  1  0  0  0  0
 19 21  1  0  0  0  0
 17 18  2  0  0  0  0
 17 19  1  0  0  0  0
 14 15  1  0  0  0  0
 14 16  1  0  0  0  0
 14 17  1  0  0  0  0
 11 12  1  0  0  0  0
 11 13  1  0  0  0  0
 11 14  1  0  0  0  0
  9 10  1  0  0  0  0
  9 11  1  0  0  0  0
  9 22  1  0  0  0  0
  7  8  1  0  0  0  0
  7  9  1  0  0  0  0
 26 27  1  0  0  0  0
 26 28  1  0  0  0  0
 26 29  1  0  0  0  0
 24 25  1  0  0  0  0
 24 26  1  0  0  0  0
M  END
$$$$
default_name
  -OEChem-01062215323D

 29 28  0     1  0  0  0  0  0999 V2000
   -3.3998   -3.6239    1.3678 H   0  0  0  0  0  0  0  0  0  0  0  0
   -3.3608   -2.6749    0.8348 C   0  0  0  0  0  0  0  0  0  0  0  0
   -4.0988   -1.9909    1.2498 H   0  0  0  0  0  0  0  0  0  0  0  0
   -3.5618   -2.8419   -0.2222 H   0  0  0  0  0  0  0  0  0  0  0  0
   -1.9818   -2.0809    0.9918 C   0  0  0  0  0  0  0  0  0  0  0  0
   -1.1288   -2.6669    1.6468 O   0  0  0  0  0  0  0  0  0  0  0  0
   -1.7648   -0.9089    0.3998 N   0  0  0  0  0  0  0  0  0  0  0  0
   -2.5238   -0.4719   -0.1032 H   0  0  0  0  0  0  0  0  0  0  0  0
   -0.4848   -0.1959    0.4138 C   0  0  1  0  0  0  0  0  0  0  0  0
   -0.4739    0.4840    1.2673 H   0  0  0  0  0  0  0  0  0  0  0  0
    0.6520   -1.2201    0.5984 C   0  0  0  0  0  0  0  0  0  0  0  0
    0.5493   -1.9892   -0.1700 H   0  0  0  0  0  0  0  0  0  0  0  0
    1.6103   -0.7189    0.4534 H   0  0  0  0  0  0  0  0  0  0  0  0
    0.6533   -1.9071    1.9751 C   0  0  0  0  0  0  0  0  0  0  0  0
    0.7720   -1.1590    2.7586 H   0  0  0  0  0  0  0  0  0  0  0  0
   -0.3012   -2.4134    2.1187 H   0  0  0  0  0  0  0  0  0  0  0  0
    1.7721   -2.9368    2.1323 C   0  0  0  0  0  0  0  0  0  0  0  0
    2.5355   -3.2379    1.2339 O   0  0  0  0  0  0  0  0  0  0  0  0
    1.9238   -3.5229    3.3001 N   0  0  0  0  0  0  0  0  0  0  0  0
    2.6745   -4.1898    3.3474 H   0  0  0  0  0  0  0  0  0  0  0  0
    1.3259   -3.3104    4.0727 H   0  0  0  0  0  0  0  0  0  0  0  0
   -0.3193    0.6406   -0.8643 C   0  0  0  0  0  0  0  0  0  0  0  0
    0.8018    0.8635   -1.3178 O   0  0  0  0  0  0  0  0  0  0  0  0
   -1.4334    1.1124   -1.4384 N   0  0  0  0  0  0  0  0  0  0  0  0
   -2.3185    0.8675   -1.0239 H   0  0  0  0  0  0  0  0  0  0  0  0
   -1.4429    1.9335   -2.6484 C   0  0  0  0  0  0  0  0  0  0  0  0
   -0.9327    1.4031   -3.4563 H   0  0  0  0  0  0  0  0  0  0  0  0
   -2.4678    2.1508   -2.9531 H   0  0  0  0  0  0  0  0  0  0  0  0
   -0.9140    2.8698   -2.4627 H   0  0  0  0  0  0  0  0  0  0  0  0
  5  6  2  0  0  0  0
  5  7  1  0  0  0  0
  2  3  1  0  0  0  0
  2  4  1  0  0  0  0
  2  5  1  0  0  0  0
  1  2  1  0  0  0  0
 22 23  2  0  0  0  0
 22 24  1  0  0  0  0
 19 20  1  0  0  0  0
 19 21  1  0  0  0  0
 17 18  2  0  0  0  0
 17 19  1  0  0  0  0
 14 15  1  0  0  0  0
 14 16  1  0  0  0  0
 14 17  1  0  0  0  0
 11 12  1  0  0  0  0
 11 13  1  0  0  0  0
 11 14  1  0  0  0  0
  9 10  1  0  0  0  0
  9 11  1  0  0  0  0
  9 22  1  0  0  0  0
  7  8  1  0  0  0  0
  7  9  1  0  0  0  0
 26 27  1  0  0  0  0
 26 28  1  0  0  0  0
 26 29  1  0  0  0  0
 24 25  1  0  0  0  0
 24 26  1  0  0  0  0
M  END
$$$$
default_name
  -OEChem-01062215323D

 29 28  0     1  0  0  0  0  0999 V2000
   -3.3998   -3.6239    1.3678 H   0  0  0  0  0  0  0  0  0  0  0  0
   -3.3608   -2.6749    0.8348 C   0  0  0  0  0  0  0  0  0  0  0  0
   -4.0988   -1.9909    1.2498 H   0  0  0  0  0  0  0  0  0  0  0  0
   -3.5618   -2.8419   -0.2222 H   0  0  0  0  0  0  0  0  0  0  0  0
   -1.9818   -2.0809    0.9918 C   0  0  0  0  0  0  0  0  0  0  0  0
   -1.1288   -2.6669    1.6468 O   0  0  0  0  0  0  0  0  0  0  0  0
   -1.7648   -0.9089    0.3998 N   0  0  0  0  0  0  0  0  0  0  0  0
   -2.5238   -0.4719   -0.1032 H   0  0  0  0  0  0  0  0  0  0  0  0
   -0.4848   -0.1959    0.4138 C   0  0  1  0  0  0  0  0  0  0  0  0
   -0.4739    0.4840    1.2673 H   0  0  0  0  0  0  0  0  0  0  0  0
    0.6520   -1.2201    0.5984 C   0  0  0  0  0  0  0  0  0  0  0  0
    0.5493   -1.9892   -0.1700 H   0  0  0  0  0  0  0  0  0  0  0  0
    1.6103   -0.7189    0.4534 H   0  0  0  0  0  0  0  0  0  0  0  0
    0.6533   -1.9071    1.9751 C   0  0  0  0  0  0  0  0  0  0  0  0
    0.7720   -1.1590    2.7586 H   0  0  0  0  0  0  0  0  0  0  0  0
   -0.3012   -2.4134    2.1187 H   0  0  0  0  0  0  0  0  0  0  0  0
    1.7721   -2.9368    2.1323 C   0  0  0  0  0  0  0  0  0  0  0  0
    2.5355   -3.2379    1.2339 O   0  0  0  0  0  0  0  0  0  0  0  0
    1.9238   -3.5229    3.3001 N   0  0  0  0  0  0  0  0  0  0  0  0
    2.6745   -4.1898    3.3474 H   0  0  0  0  0  0  0  0  0  0  0  0
    1.3259   -3.3104    4.0727 H   0  0  0  0  0  0  0  0  0  0  0  0
   -0.3193    0.6406   -0.8643 C   0  0  0  0  0  0  0  0  0  0  0  0
    0.7499    0.6386   -1.4716 O   0  0  0  0  0  0  0  0  0  0  0  0
   -1.3726    1.3636   -1.2661 N   0  0  0  0  0  0  0  0  0  0  0  0
   -2.2238    1.2954   -0.7315 H   0  0  0  0  0  0  0  0  0  0  0  0
   -1.3701    2.2194   -2.4519 C   0  0  0  0  0  0  0  0  0  0  0  0
   -1.1037    1.6279   -3.3313 H   0  0  0  0  0  0  0  0  0  0  0  0
   -2.3552    2.6633   -2.6030 H   0  0  0  0  0  0  0  0  0  0  0  0
   -0.6299    3.0124   -2.3325 H   0  0  0  0  0  0  0  0  0  0  0  0
  5  6  2  0  0  0  0
  5  7  1  0  0  0  0
  2  3  1  0  0  0  0
  2  4  1  0  0  0  0
  2  5  1  0  0  0  0
  1  2  1  0  0  0  0
 22 23  2  0  0  0  0
 22 24  1  0  0  0  0
 19 20  1  0  0  0  0
 19 21  1  0  0  0  0
 17 18  2  0  0  0  0
 17 19  1  0  0  0  0
 14 15  1  0  0  0  0
 14 16  1  0  0  0  0
 14 17  1  0  0  0  0
 11 12  1  0  0  0  0
 11 13  1  0  0  0  0
 11 14  1  0  0  0  0
  9 10  1  0  0  0  0
  9 11  1  0  0  0  0
  9 22  1  0  0  0  0
  7  8  1  0  0  0  0
  7  9  1  0  0  0  0
 26 27  1  0  0  0  0
 26 28  1  0  0  0  0
 26 29  1  0  0  0  0
 24 25  1  0  0  0  0
 24 26  1  0  0  0  0
M  END
$$$$
default_name
  -OEChem-01062215323D

 29 28  0     1  0  0  0  0  0999 V2000
   -3.3998   -3.6239    1.3678 H   0  0  0  0  0  0  0  0  0  0  0  0
   -3.3608   -2.6749    0.8348 C   0  0  0  0  0  0  0  0  0  0  0  0
   -4.0988   -1.9909    1.2498 H   0  0  0  0  0  0  0  0  0  0  0  0
   -3.5618   -2.8419   -0.2222 H   0  0  0  0  0  0  0  0  0  0  0  0
   -1.9818   -2.0809    0.9918 C   0  0  0  0  0  0  0  0  0  0  0  0
   -1.1288   -2.6669    1.6468 O   0  0  0  0  0  0  0  0  0  0  0  0
   -1.7648   -0.9089    0.3998 N   0  0  0  0  0  0  0  0  0  0  0  0
   -2.5238   -0.4719   -0.1032 H   0  0  0  0  0  0  0  0  0  0  0  0
   -0.4848   -0.1959    0.4138 C   0  0  1  0  0  0  0  0  0  0  0  0
   -0.4739    0.4840    1.2673 H   0  0  0  0  0  0  0  0  0  0  0  0
    0.6520   -1.2201    0.5984 C   0  0  0  0  0  0  0  0  0  0  0  0
    0.5493   -1.9892   -0.1700 H   0  0  0  0  0  0  0  0  0  0  0  0
    1.6103   -0.7189    0.4534 H   0  0  0  0  0  0  0  0  0  0  0  0
    0.6533   -1.9071    1.9751 C   0  0  0  0  0  0  0  0  0  0  0  0
    0.7720   -1.1590    2.7586 H   0  0  0  0  0  0  0  0  0  0  0  0
   -0.3012   -2.4134    2.1187 H   0  0  0  0  0  0  0  0  0  0  0  0
    1.7721   -2.9368    2.1323 C   0  0  0  0  0  0  0  0  0  0  0  0
    2.5355   -3.2379    1.2339 O   0  0  0  0  0  0  0  0  0  0  0  0
    1.9238   -3.5229    3.3001 N   0  0  0  0  0  0  0  0  0  0  0  0
    2.6745   -4.1898    3.3474 H   0  0  0  0  0  0  0  0  0  0  0  0
    1.3259   -3.3104    4.0727 H   0  0  0  0  0  0  0  0  0  0  0  0
   -0.3193    0.6406   -0.8643 C   0  0  0  0  0  0  0  0  0  0  0  0
    0.6298    0.4369   -1.6192 O   0  0  0  0  0  0  0  0  0  0  0  0
   -1.2354    1.5883   -1.1013 N   0  0  0  0  0  0  0  0  0  0  0  0
   -1.9991    1.6801   -0.4506 H   0  0  0  0  0  0  0  0  0  0  0  0
   -1.2105    2.4744   -2.2643 C   0  0  0  0  0  0  0  0  0  0  0  0
   -1.2028    1.8784   -3.1802 H   0  0  0  0  0  0  0  0  0  0  0  0
   -2.0869    3.1244   -2.2665 H   0  0  0  0  0  0  0  0  0  0  0  0
   -0.3065    3.0854   -2.2429 H   0  0  0  0  0  0  0  0  0  0  0  0
  5  6  2  0  0  0  0
  5  7  1  0  0  0  0
  2  3  1  0  0  0  0
  2  4  1  0  0  0  0
  2  5  1  0  0  0  0
  1  2  1  0  0  0  0
 22 23  2  0  0  0  0
 22 24  1  0  0  0  0
 19 20  1  0  0  0  0
 19 21  1  0  0  0  0
 17 18  2  0  0  0  0
 17 19  1  0  0  0  0
 14 15  1  0  0  0  0
 14 16  1  0  0  0  0
 14 17  1  0  0  0  0
 11 12  1  0  0  0  0
 11 13  1  0  0  0  0
 11 14  1  0  0  0  0
  9 10  1  0  0  0  0
  9 11  1  0  0  0  0
  9 22  1  0  0  0  0
  7  8  1  0  0  0  0
  7  9  1  0  0  0  0
 26 27  1  0  0  0  0
 26 28  1  0  0  0  0
 26 29  1  0  0  0  0
 24 25  1  0  0  0  0
 24 26  1  0  0  0  0
M  END
$$$$
default_name
  -OEChem-01062215323D

 29 28  0     1  0  0  0  0  0999 V2000
   -3.3998   -3.6239    1.3678 H   0  0  0  0  0  0  0  0  0  0  0  0
   -3.3608   -2.6749    0.8348 C   0  0  0  0  0  0  0  0  0  0  0  0
   -4.0988   -1.9909    1.2498 H   0  0  0  0  0  0  0  0  0  0  0  0
   -3.5618   -2.8419   -0.2222 H   0  0  0  0  0  0  0  0  0  0  0  0
   -1.9818   -2.0809    0.9918 C   0  0  0  0  0  0  0  0  0  0  0  0
   -1.1288   -2.6669    1.6468 O   0  0  0  0  0  0  0  0  0  0  0  0
   -1.7648   -0.9089    0.3998 N   0  0  0  0  0  0  0  0  0  0  0  0
   -2.5238   -0.4719   -0.1032 H   0  0  0  0  0  0  0  0  0  0  0  0
   -0.4848   -0.1959    0.4138 C   0  0  1  0  0  0  0  0  0  0  0  0
   -0.4739    0.4840    1.2673 H   0  0  0  0  0  0  0  0  0  0  0  0
    0.6520   -1.2201    0.5984 C   0  0  0  0  0  0  0  0  0  0  0  0
    0.5493   -1.9892   -0.1700 H   0  0  0  0  0  0  0  0  0  0  0  0
    1.6103   -0.7189    0.4534 H   0  0  0  0  0  0  0  0  0  0  0  0
    0.6533   -1.9071    1.9751 C   0  0  0  0  0  0  0  0  0  0  0  0
    0.7720   -1.1590    2.7586 H   0  0  0  0  0  0  0  0  0  0  0  0
   -0.3012   -2.4134    2.1187 H   0  0  0  0  0  0  0  0  0  0  0  0
    1.7721   -2.9368    2.1323 C   0  0  0  0  0  0  0  0  0  0  0  0
    2.5355   -3.2379    1.2339 O   0  0  0  0  0  0  0  0  0  0  0  0
    1.9238   -3.5229    3.3001 N   0  0  0  0  0  0  0  0  0  0  0  0
    2.6745   -4.1898    3.3474 H   0  0  0  0  0  0  0  0  0  0  0  0
    1.3259   -3.3104    4.0727 H   0  0  0  0  0  0  0  0  0  0  0  0
   -0.3193    0.6406   -0.8643 C   0  0  0  0  0  0  0  0  0  0  0  0
    0.4495    0.2721   -1.7505 O   0  0  0  0  0  0  0  0  0  0  0  0
   -1.0313    1.7713   -0.9551 N   0  0  0  0  0  0  0  0  0  0  0  0
   -1.6596    1.9956   -0.2002 H   0  0  0  0  0  0  0  0  0  0  0  0
   -0.9750    2.6812   -2.0985 C   0  0  0  0  0  0  0  0  0  0  0  0
   -1.2234    2.1375   -3.0133 H   0  0  0  0  0  0  0  0  0  0  0  0
   -1.6809    3.5026   -1.9664 H   0  0  0  0  0  0  0  0  0  0  0  0
    0.0343    3.0837   -2.1999 H   0  0  0  0  0  0  0  0  0  0  0  0
  5  6  2  0  0  0  0
  5  7  1  0  0  0  0
  2  3  1  0  0  0  0
  2  4  1  0  0  0  0
  2  5  1  0  0  0  0
  1  2  1  0  0  0  0
 22 23  2  0  0  0  0
 22 24  1  0  0  0  0
 19 20  1  0  0  0  0
 19 21  1  0  0  0  0
 17 18  2  0  0  0  0
 17 19  1  0  0  0  0
 14 15  1  0  0  0  0
 14 16  1  0  0  0  0
 14 17  1  0  0  0  0
 11 12  1  0  0  0  0
 11 13  1  0  0  0  0
 11 14  1  0  0  0  0
  9 10  1  0  0  0  0
  9 11  1  0  0  0  0
  9 22  1  0  0  0  0
  7  8  1  0  0  0  0
  7  9  1  0  0  0  0
 26 27  1  0  0  0  0
 26 28  1  0  0  0  0
 26 29  1  0  0  0  0
 24 25  1  0  0  0  0
 24 26  1  0  0  0  0
M  END
$$$$
default_name
  -OEChem-01062215323D

 29 28  0     1  0  0  0  0  0999 V2000
   -3.3998   -3.6239    1.3678 H   0  0  0  0  0  0  0  0  0  0  0  0
   -3.3608   -2.6749    0.8348 C   0  0  0  0  0  0  0  0  0  0  0  0
   -4.0988   -1.9909    1.2498 H   0  0  0  0  0  0  0  0  0  0  0  0
   -3.5618   -2.8419   -0.2222 H   0  0  0  0  0  0  0  0  0  0  0  0
   -1.9818   -2.0809    0.9918 C   0  0  0  0  0  0  0  0  0  0  0  0
   -1.1288   -2.6669    1.6468 O   0  0  0  0  0  0  0  0  0  0  0  0
   -1.7648   -0.9089    0.3998 N   0  0  0  0  0  0  0  0  0  0  0  0
   -2.5238   -0.4719   -0.1032 H   0  0  0  0  0  0  0  0  0  0  0  0
   -0.4848   -0.1959    0.4138 C   0  0  1  0  0  0  0  0  0  0  0  0
   -0.4739    0.4840    1.2673 H   0  0  0  0  0  0  0  0  0  0  0  0
    0.6520   -1.2201    0.5984 C   0  0  0  0  0  0  0  0  0  0  0  0
    0.5493   -1.9892   -0.1700 H   0  0  0  0  0  0  0  0  0  0  0  0
    1.6103   -0.7189    0.4534 H   0  0  0  0  0  0  0  0  0  0  0  0
    0.6533   -1.9071    1.9751 C   0  0  0  0  0  0  0  0  0  0  0  0
    0.7720   -1.1590    2.7586 H   0  0  0  0  0  0  0  0  0  0  0  0
   -0.3012   -2.4134    2.1187 H   0  0  0  0  0  0  0  0  0  0  0  0
    1.7721   -2.9368    2.1323 C   0  0  0  0  0  0  0  0  0  0  0  0
    2.5355   -3.2379    1.2339 O   0  0  0  0  0  0  0  0  0  0  0  0
    1.9238   -3.5229    3.3001 N   0  0  0  0  0  0  0  0  0  0  0  0
    2.6745   -4.1898    3.3474 H   0  0  0  0  0  0  0  0  0  0  0  0
    1.3259   -3.3104    4.0727 H   0  0  0  0  0  0  0  0  0  0  0  0
   -0.3193    0.6406   -0.8643 C   0  0  0  0  0  0  0  0  0  0  0  0
    0.2213    0.1553   -1.8564 O   0  0  0  0  0  0  0  0  0  0  0  0
   -0.7741    1.9000   -0.8376 N   0  0  0  0  0  0  0  0  0  0  0  0
   -1.2285    2.2203    0.0027 H   0  0  0  0  0  0  0  0  0  0  0  0
   -0.6797    2.8256   -1.9657 C   0  0  0  0  0  0  0  0  0  0  0  0
   -1.1639    2.3875   -2.8419 H   0  0  0  0  0  0  0  0  0  0  0  0
   -1.1651    3.7721   -1.7232 H   0  0  0  0  0  0  0  0  0  0  0  0
    0.3691    3.0076   -2.2064 H   0  0  0  0  0  0  0  0  0  0  0  0
  5  6  2  0  0  0  0
  5  7  1  0  0  0  0
  2  3  1  0  0  0  0
  2  4  1  0  0  0  0
  2  5  1  0  0  0  0
  1  2  1  0  0  0  0
 22 23  2  0  0  0  0
 22 24  1  0  0  0  0
 19 20  1  0  0  0  0
 19 21  1  0  0  0  0
 17 18  2  0  0  0  0
 17 19  1  0  0  0  0
 14 15  1  0  0  0  0
 14 16  1  0  0  0  0
 14 17  1  0  0  0  0
 11 12  1  0  0  0  0
 11 13  1  0  0  0  0
 11 14  1  0  0  0  0
  9 10  1  0  0  0  0
  9 11  1  0  0  0  0
  9 22  1  0  0  0  0
  7  8  1  0  0  0  0
  7  9  1  0  0  0  0
 26 27  1  0  0  0  0
 26 28  1  0  0  0  0
 26 29  1  0  0  0  0
 24 25  1  0  0  0  0
 24 26  1  0  0  0  0
M  END
$$$$
default_name
  -OEChem-01062215323D

 29 28  0     1  0  0  0  0  0999 V2000
   -3.3998   -3.6239    1.3678 H   0  0  0  0  0  0  0  0  0  0  0  0
   -3.3608   -2.6749    0.8348 C   0  0  0  0  0  0  0  0  0  0  0  0
   -4.0988   -1.9909    1.2498 H   0  0  0  0  0  0  0  0  0  0  0  0
   -3.5618   -2.8419   -0.2222 H   0  0  0  0  0  0  0  0  0  0  0  0
   -1.9818   -2.0809    0.9918 C   0  0  0  0  0  0  0  0  0  0  0  0
   -1.1288   -2.6669    1.6468 O   0  0  0  0  0  0  0  0  0  0  0  0
   -1.7648   -0.9089    0.3998 N   0  0  0  0  0  0  0  0  0  0  0  0
   -2.5238   -0.4719   -0.1032 H   0  0  0  0  0  0  0  0  0  0  0  0
   -0.4848   -0.1959    0.4138 C   0  0  1  0  0  0  0  0  0  0  0  0
   -0.4739    0.4840    1.2673 H   0  0  0  0  0  0  0  0  0  0  0  0
    0.6520   -1.2201    0.5984 C   0  0  0  0  0  0  0  0  0  0  0  0
    0.5493   -1.9892   -0.1700 H   0  0  0  0  0  0  0  0  0  0  0  0
    1.6103   -0.7189    0.4534 H   0  0  0  0  0  0  0  0  0  0  0  0
    0.6533   -1.9071    1.9751 C   0  0  0  0  0  0  0  0  0  0  0  0
    0.7720   -1.1590    2.7586 H   0  0  0  0  0  0  0  0  0  0  0  0
   -0.3012   -2.4134    2.1187 H   0  0  0  0  0  0  0  0  0  0  0  0
    1.7721   -2.9368    2.1323 C   0  0  0  0  0  0  0  0  0  0  0  0
    2.5355   -3.2379    1.2339 O   0  0  0  0  0  0  0  0  0  0  0  0
    1.9238   -3.5229    3.3001 N   0  0  0  0  0  0  0  0  0  0  0  0
    2.6745   -4.1898    3.3474 H   0  0  0  0  0  0  0  0  0  0  0  0
    1.3259   -3.3104    4.0727 H   0  0  0  0  0  0  0  0  0  0  0  0
   -0.3193    0.6406   -0.8643 C   0  0  0  0  0  0  0  0  0  0  0  0
   -0.0391    0.0946   -1.9299 O   0  0  0  0  0  0  0  0  0  0  0  0
   -0.4815    1.9656   -0.7567 N   0  0  0  0  0  0  0  0  0  0  0  0
   -0.7351    2.3388    0.1441 H   0  0  0  0  0  0  0  0  0  0  0  0
   -0.3446    2.8978   -1.8751 C   0  0  0  0  0  0  0  0  0  0  0  0
   -1.0286    2.6114   -2.6778 H   0  0  0  0  0  0  0  0  0  0  0  0
   -0.5746    3.9147   -1.5535 H   0  0  0  0  0  0  0  0  0  0  0  0
    0.6752    2.8621   -2.2619 H   0  0  0  0  0  0  0  0  0  0  0  0
  5  6  2  0  0  0  0
  5  7  1  0  0  0  0
  2  3  1  0  0  0  0
  2  4  1  0  0  0  0
  2  5  1  0  0  0  0
  1  2  1  0  0  0  0
 22 23  2  0  0  0  0
 22 24  1  0  0  0  0
 19 20  1  0  0  0  0
 19 21  1  0  0  0  0
 17 18  2  0  0  0  0
 17 19  1  0  0  0  0
 14 15  1  0  0  0  0
 14 16  1  0  0  0  0
 14 17  1  0  0  0  0
 11 12  1  0  0  0  0
 11 13  1  0  0  0  0
 11 14  1  0  0  0  0
  9 10  1  0  0  0  0
  9 11  1  0  0  0  0
  9 22  1  0  0  0  0
  7  8  1  0  0  0  0
  7  9  1  0  0  0  0
 26 27  1  0  0  0  0
 26 28  1  0  0  0  0
 26 29  1  0  0  0  0
 24 25  1  0  0  0  0
 24 26  1  0  0  0  0
M  END
$$$$
default_name
  -OEChem-01062215323D

 29 28  0     1  0  0  0  0  0999 V2000
   -3.3998   -3.6239    1.3678 H   0  0  0  0  0  0  0  0  0  0  0  0
   -3.3608   -2.6749    0.8348 C   0  0  0  0  0  0  0  0  0  0  0  0
   -4.0988   -1.9909    1.2498 H   0  0  0  0  0  0  0  0  0  0  0  0
   -3.5618   -2.8419   -0.2222 H   0  0  0  0  0  0  0  0  0  0  0  0
   -1.9818   -2.0809    0.9918 C   0  0  0  0  0  0  0  0  0  0  0  0
   -1.1288   -2.6669    1.6468 O   0  0  0  0  0  0  0  0  0  0  0  0
   -1.7648   -0.9089    0.3998 N   0  0  0  0  0  0  0  0  0  0  0  0
   -2.5238   -0.4719   -0.1032 H   0  0  0  0  0  0  0  0  0  0  0  0
   -0.4848   -0.1959    0.4138 C   0  0  1  0  0  0  0  0  0  0  0  0
   -0.4739    0.4840    1.2673 H   0  0  0  0  0  0  0  0  0  0  0  0
    0.6520   -1.2201    0.5984 C   0  0  0  0  0  0  0  0  0  0  0  0
    0.5493   -1.9892   -0.1700 H   0  0  0  0  0  0  0  0  0  0  0  0
    1.6103   -0.7189    0.4534 H   0  0  0  0  0  0  0  0  0  0  0  0
    0.6533   -1.9071    1.9751 C   0  0  0  0  0  0  0  0  0  0  0  0
    0.7720   -1.1590    2.7586 H   0  0  0  0  0  0  0  0  0  0  0  0
   -0.3012   -2.4134    2.1187 H   0  0  0  0  0  0  0  0  0  0  0  0
    1.7721   -2.9368    2.1323 C   0  0  0  0  0  0  0  0  0  0  0  0
    2.5355   -3.2379    1.2339 O   0  0  0  0  0  0  0  0  0  0  0  0
    1.9238   -3.5229    3.3001 N   0  0  0  0  0  0  0  0  0  0  0  0
    2.6745   -4.1898    3.3474 H   0  0  0  0  0  0  0  0  0  0  0  0
    1.3259   -3.3104    4.0727 H   0  0  0  0  0  0  0  0  0  0  0  0
   -0.3193    0.6406   -0.8643 C   0  0  0  0  0  0  0  0  0  0  0  0
   -0.3141    0.0941   -1.9658 O   0  0  0  0  0  0  0  0  0  0  0  0
   -0.1733    1.9638   -0.7180 N   0  0  0  0  0  0  0  0  0  0  0  0
   -0.2131    2.3431    0.2145 H   0  0  0  0  0  0  0  0  0  0  0  0
    0.0074    2.8928   -1.8328 C   0  0  0  0  0  0  0  0  0  0  0  0
   -0.8265    2.7940   -2.5322 H   0  0  0  0  0  0  0  0  0  0  0  0
    0.0504    3.9205   -1.4687 H   0  0  0  0  0  0  0  0  0  0  0  0
    0.9318    2.6573   -2.3628 H   0  0  0  0  0  0  0  0  0  0  0  0
  5  6  2  0  0  0  0
  5  7  1  0  0  0  0
  2  3  1  0  0  0  0
  2  4  1  0  0  0  0
  2  5  1  0  0  0  0
  1  2  1  0  0  0  0
 22 23  2  0  0  0  0
 22 24  1  0  0  0  0
 19 20  1  0  0  0  0
 19 21  1  0  0  0  0
 17 18  2  0  0  0  0
 17 19  1  0  0  0  0
 14 15  1  0  0  0  0
 14 16  1  0  0  0  0
 14 17  1  0  0  0  0
 11 12  1  0  0  0  0
 11 13  1  0  0  0  0
 11 14  1  0  0  0  0
  9 10  1  0  0  0  0
  9 11  1  0  0  0  0
  9 22  1  0  0  0  0
  7  8  1  0  0  0  0
  7  9  1  0  0  0  0
 26 27  1  0  0  0  0
 26 28  1  0  0  0  0
 26 29  1  0  0  0  0
 24 25  1  0  0  0  0
 24 26  1  0  0  0  0
M  END
$$$$
default_name
  -OEChem-01062215323D

 29 28  0     1  0  0  0  0  0999 V2000
   -3.3998   -3.6239    1.3678 H   0  0  0  0  0  0  0  0  0  0  0  0
   -3.3608   -2.6749    0.8348 C   0  0  0  0  0  0  0  0  0  0  0  0
   -4.0988   -1.9909    1.2498 H   0  0  0  0  0  0  0  0  0  0  0  0
   -3.5618   -2.8419   -0.2222 H   0  0  0  0  0  0  0  0  0  0  0  0
   -1.9818   -2.0809    0.9918 C   0  0  0  0  0  0  0  0  0  0  0  0
   -1.1288   -2.6669    1.6468 O   0  0  0  0  0  0  0  0  0  0  0  0
   -1.7648   -0.9089    0.3998 N   0  0  0  0  0  0  0  0  0  0  0  0
   -2.5238   -0.4719   -0.1032 H   0  0  0  0  0  0  0  0  0  0  0  0
   -0.4848   -0.1959    0.4138 C   0  0  1  0  0  0  0  0  0  0  0  0
   -0.4739    0.4840    1.2673 H   0  0  0  0  0  0  0  0  0  0  0  0
    0.6520   -1.2201    0.5984 C   0  0  0  0  0  0  0  0  0  0  0  0
    0.5493   -1.9892   -0.1700 H   0  0  0  0  0  0  0  0  0  0  0  0
    1.6103   -0.7189    0.4534 H   0  0  0  0  0  0  0  0  0  0  0  0
    0.6533   -1.9071    1.9751 C   0  0  0  0  0  0  0  0  0  0  0  0
    0.7720   -1.1590    2.7586 H   0  0  0  0  0  0  0  0  0  0  0  0
   -0.3012   -2.4134    2.1187 H   0  0  0  0  0  0  0  0  0  0  0  0
    1.7721   -2.9368    2.1323 C   0  0  0  0  0  0  0  0  0  0  0  0
    2.5355   -3.2379    1.2339 O   0  0  0  0  0  0  0  0  0  0  0  0
    1.9238   -3.5229    3.3001 N   0  0  0  0  0  0  0  0  0  0  0  0
    2.6745   -4.1898    3.3474 H   0  0  0  0  0  0  0  0  0  0  0  0
    1.3259   -3.3104    4.0727 H   0  0  0  0  0  0  0  0  0  0  0  0
   -0.3193    0.6406   -0.8643 C   0  0  0  0  0  0  0  0  0  0  0  0
   -0.5849    0.1538   -1.9618 O   0  0  0  0  0  0  0  0  0  0  0  0
    0.1295    1.8946   -0.7241 N   0  0  0  0  0  0  0  0  0  0  0  0
    0.3020    2.2329    0.2091 H   0  0  0  0  0  0  0  0  0  0  0  0
    0.3522    2.8111   -1.8416 C   0  0  0  0  0  0  0  0  0  0  0  0
   -0.5714    2.9228   -2.4149 H   0  0  0  0  0  0  0  0  0  0  0  0
    0.6673    3.7892   -1.4748 H   0  0  0  0  0  0  0  0  0  0  0  0
    1.1213    2.4070   -2.5021 H   0  0  0  0  0  0  0  0  0  0  0  0
  5  6  2  0  0  0  0
  5  7  1  0  0  0  0
  2  3  1  0  0  0  0
  2  4  1  0  0  0  0
  2  5  1  0  0  0  0
  1  2  1  0  0  0  0
 22 23  2  0  0  0  0
 22 24  1  0  0  0  0
 19 20  1  0  0  0  0
 19 21  1  0  0  0  0
 17 18  2  0  0  0  0
 17 19  1  0  0  0  0
 14 15  1  0  0  0  0
 14 16  1  0  0  0  0
 14 17  1  0  0  0  0
 11 12  1  0  0  0  0
 11 13  1  0  0  0  0
 11 14  1  0  0  0  0
  9 10  1  0  0  0  0
  9 11  1  0  0  0  0
  9 22  1  0  0  0  0
  7  8  1  0  0  0  0
  7  9  1  0  0  0  0
 26 27  1  0  0  0  0
 26 28  1  0  0  0  0
 26 29  1  0  0  0  0
 24 25  1  0  0  0  0
 24 26  1  0  0  0  0
M  END
$$$$
default_name
  -OEChem-01062215323D

 29 28  0     1  0  0  0  0  0999 V2000
   -3.3998   -3.6239    1.3678 H   0  0  0  0  0  0  0  0  0  0  0  0
   -3.3608   -2.6749    0.8348 C   0  0  0  0  0  0  0  0  0  0  0  0
   -4.0988   -1.9909    1.2498 H   0  0  0  0  0  0  0  0  0  0  0  0
   -3.5618   -2.8419   -0.2222 H   0  0  0  0  0  0  0  0  0  0  0  0
   -1.9818   -2.0809    0.9918 C   0  0  0  0  0  0  0  0  0  0  0  0
   -1.1288   -2.6669    1.6468 O   0  0  0  0  0  0  0  0  0  0  0  0
   -1.7648   -0.9089    0.3998 N   0  0  0  0  0  0  0  0  0  0  0  0
   -2.5238   -0.4719   -0.1032 H   0  0  0  0  0  0  0  0  0  0  0  0
   -0.4848   -0.1959    0.4138 C   0  0  1  0  0  0  0  0  0  0  0  0
   -0.4739    0.4840    1.2673 H   0  0  0  0  0  0  0  0  0  0  0  0
    0.6520   -1.2201    0.5984 C   0  0  0  0  0  0  0  0  0  0  0  0
    0.5493   -1.9892   -0.1700 H   0  0  0  0  0  0  0  0  0  0  0  0
    1.6103   -0.7189    0.4534 H   0  0  0  0  0  0  0  0  0  0  0  0
    0.6533   -1.9071    1.9751 C   0  0  0  0  0  0  0  0  0  0  0  0
    0.7720   -1.1590    2.7586 H   0  0  0  0  0  0  0  0  0  0  0  0
   -0.3012   -2.4134    2.1187 H   0  0  0  0  0  0  0  0  0  0  0  0
    1.7721   -2.9368    2.1323 C   0  0  0  0  0  0  0  0  0  0  0  0
    2.5355   -3.2379    1.2339 O   0  0  0  0  0  0  0  0  0  0  0  0
    1.9238   -3.5229    3.3001 N   0  0  0  0  0  0  0  0  0  0  0  0
    2.6745   -4.1898    3.3474 H   0  0  0  0  0  0  0  0  0  0  0  0
    1.3259   -3.3104    4.0727 H   0  0  0  0  0  0  0  0  0  0  0  0
   -0.3193    0.6406   -0.8643 C   0  0  0  0  0  0  0  0  0  0  0  0
   -0.8331    0.2696   -1.9181 O   0  0  0  0  0  0  0  0  0  0  0  0
    0.4062    1.7627   -0.7746 N   0  0  0  0  0  0  0  0  0  0  0  0
    0.7751    2.0157    0.1282 H   0  0  0  0  0  0  0  0  0  0  0  0
    0.6665    2.6581   -1.9010 C   0  0  0  0  0  0  0  0  0  0  0  0
   -0.2808    2.9890   -2.3339 H   0  0  0  0  0  0  0  0  0  0  0  0
    1.2341    3.5297   -1.5713 H   0  0  0  0  0  0  0  0  0  0  0  0
    1.2308    2.1283   -2.6703 H   0  0  0  0  0  0  0  0  0  0  0  0
  5  6  2  0  0  0  0
  5  7  1  0  0  0  0
  2  3  1  0  0  0  0
  2  4  1  0  0  0  0
  2  5  1  0  0  0  0
  1  2  1  0  0  0  0
 22 23  2  0  0  0  0
 22 24  1  0  0  0  0
 19 20  1  0  0  0  0
 19 21  1  0  0  0  0
 17 18  2  0  0  0  0
 17 19  1  0  0  0  0
 14 15  1  0  0  0  0
 14 16  1  0  0  0  0
 14 17  1  0  0  0  0
 11 12  1  0  0  0  0
 11 13  1  0  0  0  0
 11 14  1  0  0  0  0
  9 10  1  0  0  0  0
  9 11  1  0  0  0  0
  9 22  1  0  0  0  0
  7  8  1  0  0  0  0
  7  9  1  0  0  0  0
 26 27  1  0  0  0  0
 26 28  1  0  0  0  0
 26 29  1  0  0  0  0
 24 25  1  0  0  0  0
 24 26  1  0  0  0  0
M  END
$$$$
default_name
  -OEChem-01062215323D

 29 28  0     1  0  0  0  0  0999 V2000
   -3.3998   -3.6239    1.3678 H   0  0  0  0  0  0  0  0  0  0  0  0
   -3.3608   -2.6749    0.8348 C   0  0  0  0  0  0  0  0  0  0  0  0
   -4.0988   -1.9909    1.2498 H   0  0  0  0  0  0  0  0  0  0  0  0
   -3.5618   -2.8419   -0.2222 H   0  0  0  0  0  0  0  0  0  0  0  0
   -1.9818   -2.0809    0.9918 C   0  0  0  0  0  0  0  0  0  0  0  0
   -1.1288   -2.6669    1.6468 O   0  0  0  0  0  0  0  0  0  0  0  0
   -1.7648   -0.9089    0.3998 N   0  0  0  0  0  0  0  0  0  0  0  0
   -2.5238   -0.4719   -0.1032 H   0  0  0  0  0  0  0  0  0  0  0  0
   -0.4848   -0.1959    0.4138 C   0  0  1  0  0  0  0  0  0  0  0  0
   -0.4739    0.4840    1.2673 H   0  0  0  0  0  0  0  0  0  0  0  0
    0.6520   -1.2201    0.5984 C   0  0  0  0  0  0  0  0  0  0  0  0
    0.5493   -1.9892   -0.1700 H   0  0  0  0  0  0  0  0  0  0  0  0
    1.6103   -0.7189    0.4534 H   0  0  0  0  0  0  0  0  0  0  0  0
    0.6533   -1.9071    1.9751 C   0  0  0  0  0  0  0  0  0  0  0  0
    0.7720   -1.1590    2.7586 H   0  0  0  0  0  0  0  0  0  0  0  0
   -0.3012   -2.4134    2.1187 H   0  0  0  0  0  0  0  0  0  0  0  0
    1.7721   -2.9368    2.1323 C   0  0  0  0  0  0  0  0  0  0  0  0
    2.5355   -3.2379    1.2339 O   0  0  0  0  0  0  0  0  0  0  0  0
    1.9238   -3.5229    3.3001 N   0  0  0  0  0  0  0  0  0  0  0  0
    2.6745   -4.1898    3.3474 H   0  0  0  0  0  0  0  0  0  0  0  0
    1.3259   -3.3104    4.0727 H   0  0  0  0  0  0  0  0  0  0  0  0
   -0.3193    0.6406   -0.8643 C   0  0  0  0  0  0  0  0  0  0  0  0
   -1.0417    0.4337   -1.8377 O   0  0  0  0  0  0  0  0  0  0  0  0
    0.6380    1.5772   -0.8660 N   0  0  0  0  0  0  0  0  0  0  0  0
    1.1739    1.7063   -0.0227 H   0  0  0  0  0  0  0  0  0  0  0  0
    0.9288    2.4444   -2.0070 C   0  0  0  0  0  0  0  0  0  0  0  0
    0.0256    2.9881   -2.2948 H   0  0  0  0  0  0  0  0  0  0  0  0
    1.7121    3.1597   -1.7516 H   0  0  0  0  0  0  0  0  0  0  0  0
    1.2528    1.8402   -2.8560 H   0  0  0  0  0  0  0  0  0  0  0  0
  5  6  2  0  0  0  0
  5  7  1  0  0  0  0
  2  3  1  0  0  0  0
  2  4  1  0  0  0  0
  2  5  1  0  0  0  0
  1  2  1  0  0  0  0
 22 23  2  0  0  0  0
 22 24  1  0  0  0  0
 19 20  1  0  0  0  0
 19 21  1  0  0  0  0
 17 18  2  0  0  0  0
 17 19  1  0  0  0  0
 14 15  1  0  0  0  0
 14 16  1  0  0  0  0
 14 17  1  0  0  0  0
 11 12  1  0  0  0  0
 11 13  1  0  0  0  0
 11 14  1  0  0  0  0
  9 10  1  0  0  0  0
  9 11  1  0  0  0  0
  9 22  1  0  0  0  0
  7  8  1  0  0  0  0
  7  9  1  0  0  0  0
 26 27  1  0  0  0  0
 26 28  1  0  0  0  0
 26 29  1  0  0  0  0
 24 25  1  0  0  0  0
 24 26  1  0  0  0  0
M  END
$$$$
default_name
  -OEChem-01062215323D

 29 28  0     1  0  0  0  0  0999 V2000
   -3.3998   -3.6239    1.3678 H   0  0  0  0  0  0  0  0  0  0  0  0
   -3.3608   -2.6749    0.8348 C   0  0  0  0  0  0  0  0  0  0  0  0
   -4.0988   -1.9909    1.2498 H   0  0  0  0  0  0  0  0  0  0  0  0
   -3.5618   -2.8419   -0.2222 H   0  0  0  0  0  0  0  0  0  0  0  0
   -1.9818   -2.0809    0.9918 C   0  0  0  0  0  0  0  0  0  0  0  0
   -1.1288   -2.6669    1.6468 O   0  0  0  0  0  0  0  0  0  0  0  0
   -1.7648   -0.9089    0.3998 N   0  0  0  0  0  0  0  0  0  0  0  0
   -2.5238   -0.4719   -0.1032 H   0  0  0  0  0  0  0  0  0  0  0  0
   -0.4848   -0.1959    0.4138 C   0  0  1  0  0  0  0  0  0  0  0  0
   -0.3581    0.2736    1.3907 H   0  0  0  0  0  0  0  0  0  0  0  0
    0.6538   -1.2159    0.2175 C   0  0  0  0  0  0  0  0  0  0  0  0
    0.4457   -1.7932   -0.6858 H   0  0  0  0  0  0  0  0  0  0  0  0
    1.5921   -0.6788    0.0704 H   0  0  0  0  0  0  0  0  0  0  0  0
    0.8207   -2.1961    1.3917 C   0  0  0  0  0  0  0  0  0  0  0  0
    1.0463   -1.6424    2.3029 H   0  0  0  0  0  0  0  0  0  0  0  0
   -0.1141   -2.7378    1.5359 H   0  0  0  0  0  0  0  0  0  0  0  0
    1.9379   -3.2155    1.1700 C   0  0  0  0  0  0  0  0  0  0  0  0
    2.5781   -3.2929    0.1381 O   0  0  0  0  0  0  0  0  0  0  0  0
    2.2288   -4.0476    2.1463 N   0  0  0  0  0  0  0  0  0  0  0  0
    2.9713   -4.6952    1.9468 H   0  0  0  0  0  0  0  0  0  0  0  0
    1.7357   -4.0254    3.0159 H   0  0  0  0  0  0  0  0  0  0  0  0
   -0.4719    0.9105   -0.6523 C   0  0  0  0  0  0  0  0  0  0  0  0
   -1.4509    1.0847   -1.3757 O   0  0  0  0  0  0  0  0  0  0  0  0
    0.6397    1.6500   -0.7569 N   0  0  0  0  0  0  0  0  0  0  0  0
    1.3920    1.4656   -0.1127 H   0  0  0  0  0  0  0  0  0  0  0  0
    0.8129    2.7295   -1.7280 C   0  0  0  0  0  0  0  0  0  0  0  0
    0.0152    3.4661   -1.6047 H   0  0  0  0  0  0  0  0  0  0  0  0
    1.7778    3.2184   -1.5857 H   0  0  0  0  0  0  0  0  0  0  0  0
    0.7568    2.3268   -2.7408 H   0  0  0  0  0  0  0  0  0  0  0  0
  5  6  2  0  0  0  0
  5  7  1  0  0  0  0
  2  3  1  0  0  0  0
  2  4  1  0  0  0  0
  2  5  1  0  0  0  0
  1  2  1  0  0  0  0
 22 23  2  0  0  0  0
 22 24  1  0  0  0  0
 19 20  1  0  0  0  0
 19 21  1  0  0  0  0
 17 18  2  0  0  0  0
 17 19  1  0  0  0  0
 14 15  1  0  0  0  0
 14 16  1  0  0  0  0
 14 17  1  0  0  0  0
 11 12  1  0  0  0  0
 11 13  1  0  0  0  0
 11 14  1  0  0  0  0
  9 10  1  0  0  0  0
  9 11  1  0  0  0  0
  9 22  1  0  0  0  0
  7  8  1  0  0  0  0
  7  9  1  0  0  0  0
 26 27  1  0  0  0  0
 26 28  1  0  0  0  0
 26 29  1  0  0  0  0
 24 25  1  0  0  0  0
 24 26  1  0  0  0  0
M  END
$$$$
default_name
  -OEChem-01062215323D

 29 28  0     1  0  0  0  0  0999 V2000
   -3.3998   -3.6239    1.3678 H   0  0  0  0  0  0  0  0  0  0  0  0
   -3.3608   -2.6749    0.8348 C   0  0  0  0  0  0  0  0  0  0  0  0
   -4.0988   -1.9909    1.2498 H   0  0  0  0  0  0  0  0  0  0  0  0
   -3.5618   -2.8419   -0.2222 H   0  0  0  0  0  0  0  0  0  0  0  0
   -1.9818   -2.0809    0.9918 C   0  0  0  0  0  0  0  0  0  0  0  0
   -1.1288   -2.6669    1.6468 O   0  0  0  0  0  0  0  0  0  0  0  0
   -1.7648   -0.9089    0.3998 N   0  0  0  0  0  0  0  0  0  0  0  0
   -2.5238   -0.4719   -0.1032 H   0  0  0  0  0  0  0  0  0  0  0  0
   -0.4848   -0.1959    0.4138 C   0  0  1  0  0  0  0  0  0  0  0  0
   -0.3581    0.2736    1.3907 H   0  0  0  0  0  0  0  0  0  0  0  0
    0.6538   -1.2159    0.2175 C   0  0  0  0  0  0  0  0  0  0  0  0
    0.4457   -1.7932   -0.6858 H   0  0  0  0  0  0  0  0  0  0  0  0
    1.5921   -0.6788    0.0704 H   0  0  0  0  0  0  0  0  0  0  0  0
    0.8207   -2.1961    1.3917 C   0  0  0  0  0  0  0  0  0  0  0  0
    1.0463   -1.6424    2.3029 H   0  0  0  0  0  0  0  0  0  0  0  0
   -0.1141   -2.7378    1.5359 H   0  0  0  0  0  0  0  0  0  0  0  0
    1.9379   -3.2155    1.1700 C   0  0  0  0  0  0  0  0  0  0  0  0
    2.5781   -3.2929    0.1381 O   0  0  0  0  0  0  0  0  0  0  0  0
    2.2288   -4.0476    2.1463 N   0  0  0  0  0  0  0  0  0  0  0  0
    2.9713   -4.6952    1.9468 H   0  0  0  0  0  0  0  0  0  0  0  0
    1.7357   -4.0254    3.0159 H   0  0  0  0  0  0  0  0  0  0  0  0
   -0.4719    0.9105   -0.6523 C   0  0  0  0  0  0  0  0  0  0  0  0
   -1.5209    1.2714   -1.1829 O   0  0  0  0  0  0  0  0  0  0  0  0
    0.7153    1.4405   -0.9734 N   0  0  0  0  0  0  0  0  0  0  0  0
    1.5288    1.1118   -0.4782 H   0  0  0  0  0  0  0  0  0  0  0  0
    0.8959    2.4898   -1.9758 C   0  0  0  0  0  0  0  0  0  0  0  0
    0.2807    3.3551   -1.7167 H   0  0  0  0  0  0  0  0  0  0  0  0
    1.9424    2.7949   -2.0232 H   0  0  0  0  0  0  0  0  0  0  0  0
    0.5808    2.1232   -2.9542 H   0  0  0  0  0  0  0  0  0  0  0  0
  5  6  2  0  0  0  0
  5  7  1  0  0  0  0
  2  3  1  0  0  0  0
  2  4  1  0  0  0  0
  2  5  1  0  0  0  0
  1  2  1  0  0  0  0
 22 23  2  0  0  0  0
 22 24  1  0  0  0  0
 19 20  1  0  0  0  0
 19 21  1  0  0  0  0
 17 18  2  0  0  0  0
 17 19  1  0  0  0  0
 14 15  1  0  0  0  0
 14 16  1  0  0  0  0
 14 17  1  0  0  0  0
 11 12  1  0  0  0  0
 11 13  1  0  0  0  0
 11 14  1  0  0  0  0
  9 10  1  0  0  0  0
  9 11  1  0  0  0  0
  9 22  1  0  0  0  0
  7  8  1  0  0  0  0
  7  9  1  0  0  0  0
 26 27  1  0  0  0  0
 26 28  1  0  0  0  0
 26 29  1  0  0  0  0
 24 25  1  0  0  0  0
 24 26  1  0  0  0  0
M  END
$$$$
default_name
  -OEChem-01062215323D

 29 28  0     1  0  0  0  0  0999 V2000
   -3.3998   -3.6239    1.3678 H   0  0  0  0  0  0  0  0  0  0  0  0
   -3.3608   -2.6749    0.8348 C   0  0  0  0  0  0  0  0  0  0  0  0
   -4.0988   -1.9909    1.2498 H   0  0  0  0  0  0  0  0  0  0  0  0
   -3.5618   -2.8419   -0.2222 H   0  0  0  0  0  0  0  0  0  0  0  0
   -1.9818   -2.0809    0.9918 C   0  0  0  0  0  0  0  0  0  0  0  0
   -1.1288   -2.6669    1.6468 O   0  0  0  0  0  0  0  0  0  0  0  0
   -1.7648   -0.9089    0.3998 N   0  0  0  0  0  0  0  0  0  0  0  0
   -2.5238   -0.4719   -0.1032 H   0  0  0  0  0  0  0  0  0  0  0  0
   -0.4848   -0.1959    0.4138 C   0  0  1  0  0  0  0  0  0  0  0  0
   -0.3581    0.2736    1.3907 H   0  0  0  0  0  0  0  0  0  0  0  0
    0.6538   -1.2159    0.2175 C   0  0  0  0  0  0  0  0  0  0  0  0
    0.4457   -1.7932   -0.6858 H   0  0  0  0  0  0  0  0  0  0  0  0
    1.5921   -0.6788    0.0704 H   0  0  0  0  0  0  0  0  0  0  0  0
    0.8207   -2.1961    1.3917 C   0  0  0  0  0  0  0  0  0  0  0  0
    1.0463   -1.6424    2.3029 H   0  0  0  0  0  0  0  0  0  0  0  0
   -0.1141   -2.7378    1.5359 H   0  0  0  0  0  0  0  0  0  0  0  0
    1.9379   -3.2155    1.1700 C   0  0  0  0  0  0  0  0  0  0  0  0
    2.5781   -3.2929    0.1381 O   0  0  0  0  0  0  0  0  0  0  0  0
    2.2288   -4.0476    2.1463 N   0  0  0  0  0  0  0  0  0  0  0  0
    2.9713   -4.6952    1.9468 H   0  0  0  0  0  0  0  0  0  0  0  0
    1.7357   -4.0254    3.0159 H   0  0  0  0  0  0  0  0  0  0  0  0
   -0.4719    0.9105   -0.6523 C   0  0  0  0  0  0  0  0  0  0  0  0
   -1.5190    1.4638   -0.9832 O   0  0  0  0  0  0  0  0  0  0  0  0
    0.7103    1.2250   -1.1971 N   0  0  0  0  0  0  0  0  0  0  0  0
    1.5292    0.7463   -0.8575 H   0  0  0  0  0  0  0  0  0  0  0  0
    0.8869    2.2440   -2.2310 C   0  0  0  0  0  0  0  0  0  0  0  0
    0.4964    3.2004   -1.8747 H   0  0  0  0  0  0  0  0  0  0  0  0
    1.9437    2.3573   -2.4774 H   0  0  0  0  0  0  0  0  0  0  0  0
    0.3344    1.9587   -3.1279 H   0  0  0  0  0  0  0  0  0  0  0  0
  5  6  2  0  0  0  0
  5  7  1  0  0  0  0
  2  3  1  0  0  0  0
  2  4  1  0  0  0  0
  2  5  1  0  0  0  0
  1  2  1  0  0  0  0
 22 23  2  0  0  0  0
 22 24  1  0  0  0  0
 19 20  1  0  0  0  0
 19 21  1  0  0  0  0
 17 18  2  0  0  0  0
 17 19  1  0  0  0  0
 14 15  1  0  0  0  0
 14 16  1  0  0  0  0
 14 17  1  0  0  0  0
 11 12  1  0  0  0  0
 11 13  1  0  0  0  0
 11 14  1  0  0  0  0
  9 10  1  0  0  0  0
  9 11  1  0  0  0  0
  9 22  1  0  0  0  0
  7  8  1  0  0  0  0
  7  9  1  0  0  0  0
 26 27  1  0  0  0  0
 26 28  1  0  0  0  0
 26 29  1  0  0  0  0
 24 25  1  0  0  0  0
 24 26  1  0  0  0  0
M  END
$$$$
default_name
  -OEChem-01062215323D

 29 28  0     1  0  0  0  0  0999 V2000
   -3.3998   -3.6239    1.3678 H   0  0  0  0  0  0  0  0  0  0  0  0
   -3.3608   -2.6749    0.8348 C   0  0  0  0  0  0  0  0  0  0  0  0
   -4.0988   -1.9909    1.2498 H   0  0  0  0  0  0  0  0  0  0  0  0
   -3.5618   -2.8419   -0.2222 H   0  0  0  0  0  0  0  0  0  0  0  0
   -1.9818   -2.0809    0.9918 C   0  0  0  0  0  0  0  0  0  0  0  0
   -1.1288   -2.6669    1.6468 O   0  0  0  0  0  0  0  0  0  0  0  0
   -1.7648   -0.9089    0.3998 N   0  0  0  0  0  0  0  0  0  0  0  0
   -2.5238   -0.4719   -0.1032 H   0  0  0  0  0  0  0  0  0  0  0  0
   -0.4848   -0.1959    0.4138 C   0  0  1  0  0  0  0  0  0  0  0  0
   -0.3581    0.2736    1.3907 H   0  0  0  0  0  0  0  0  0  0  0  0
    0.6538   -1.2159    0.2175 C   0  0  0  0  0  0  0  0  0  0  0  0
    0.4457   -1.7932   -0.6858 H   0  0  0  0  0  0  0  0  0  0  0  0
    1.5921   -0.6788    0.0704 H   0  0  0  0  0  0  0  0  0  0  0  0
    0.8207   -2.1961    1.3917 C   0  0  0  0  0  0  0  0  0  0  0  0
    1.0463   -1.6424    2.3029 H   0  0  0  0  0  0  0  0  0  0  0  0
   -0.1141   -2.7378    1.5359 H   0  0  0  0  0  0  0  0  0  0  0  0
    1.9379   -3.2155    1.1700 C   0  0  0  0  0  0  0  0  0  0  0  0
    2.5781   -3.2929    0.1381 O   0  0  0  0  0  0  0  0  0  0  0  0
    2.2288   -4.0476    2.1463 N   0  0  0  0  0  0  0  0  0  0  0  0
    2.9713   -4.6952    1.9468 H   0  0  0  0  0  0  0  0  0  0  0  0
    1.7357   -4.0254    3.0159 H   0  0  0  0  0  0  0  0  0  0  0  0
   -0.4719    0.9105   -0.6523 C   0  0  0  0  0  0  0  0  0  0  0  0
   -1.4455    1.6489   -0.7902 O   0  0  0  0  0  0  0  0  0  0  0  0
    0.6252    1.0183   -1.4128 N   0  0  0  0  0  0  0  0  0  0  0  0
    1.3933    0.3940   -1.2248 H   0  0  0  0  0  0  0  0  0  0  0  0
    0.7864    2.0087   -2.4765 C   0  0  0  0  0  0  0  0  0  0  0  0
    0.6476    3.0126   -2.0678 H   0  0  0  0  0  0  0  0  0  0  0  0
    1.7817    1.9353   -2.9173 H   0  0  0  0  0  0  0  0  0  0  0  0
    0.0345    1.8443   -3.2502 H   0  0  0  0  0  0  0  0  0  0  0  0
  5  6  2  0  0  0  0
  5  7  1  0  0  0  0
  2  3  1  0  0  0  0
  2  4  1  0  0  0  0
  2  5  1  0  0  0  0
  1  2  1  0  0  0  0
 22 23  2  0  0  0  0
 22 24  1  0  0  0  0
 19 20  1  0  0  0  0
 19 21  1  0  0  0  0
 17 18  2  0  0  0  0
 17 19  1  0  0  0  0
 14 15  1  0  0  0  0
 14 16  1  0  0  0  0
 14 17  1  0  0  0  0
 11 12  1  0  0  0  0
 11 13  1  0  0  0  0
 11 14  1  0  0  0  0
  9 10  1  0  0  0  0
  9 11  1  0  0  0  0
  9 22  1  0  0  0  0
  7  8  1  0  0  0  0
  7  9  1  0  0  0  0
 26 27  1  0  0  0  0
 26 28  1  0  0  0  0
 26 29  1  0  0  0  0
 24 25  1  0  0  0  0
 24 26  1  0  0  0  0
M  END
$$$$
default_name
  -OEChem-01062215323D

 29 28  0     1  0  0  0  0  0999 V2000
   -3.3998   -3.6239    1.3678 H   0  0  0  0  0  0  0  0  0  0  0  0
   -3.3608   -2.6749    0.8348 C   0  0  0  0  0  0  0  0  0  0  0  0
   -4.0988   -1.9909    1.2498 H   0  0  0  0  0  0  0  0  0  0  0  0
   -3.5618   -2.8419   -0.2222 H   0  0  0  0  0  0  0  0  0  0  0  0
   -1.9818   -2.0809    0.9918 C   0  0  0  0  0  0  0  0  0  0  0  0
   -1.1288   -2.6669    1.6468 O   0  0  0  0  0  0  0  0  0  0  0  0
   -1.7648   -0.9089    0.3998 N   0  0  0  0  0  0  0  0  0  0  0  0
   -2.5238   -0.4719   -0.1032 H   0  0  0  0  0  0  0  0  0  0  0  0
   -0.4848   -0.1959    0.4138 C   0  0  1  0  0  0  0  0  0  0  0  0
   -0.3581    0.2736    1.3907 H   0  0  0  0  0  0  0  0  0  0  0  0
    0.6538   -1.2159    0.2175 C   0  0  0  0  0  0  0  0  0  0  0  0
    0.4457   -1.7932   -0.6858 H   0  0  0  0  0  0  0  0  0  0  0  0
    1.5921   -0.6788    0.0704 H   0  0  0  0  0  0  0  0  0  0  0  0
    0.8207   -2.1961    1.3917 C   0  0  0  0  0  0  0  0  0  0  0  0
    1.0463   -1.6424    2.3029 H   0  0  0  0  0  0  0  0  0  0  0  0
   -0.1141   -2.7378    1.5359 H   0  0  0  0  0  0  0  0  0  0  0  0
    1.9379   -3.2155    1.1700 C   0  0  0  0  0  0  0  0  0  0  0  0
    2.5781   -3.2929    0.1381 O   0  0  0  0  0  0  0  0  0  0  0  0
    2.2288   -4.0476    2.1463 N   0  0  0  0  0  0  0  0  0  0  0  0
    2.9713   -4.6952    1.9468 H   0  0  0  0  0  0  0  0  0  0  0  0
    1.7357   -4.0254    3.0159 H   0  0  0  0  0  0  0  0  0  0  0  0
   -0.4719    0.9105   -0.6523 C   0  0  0  0  0  0  0  0  0  0  0  0
   -1.3052    1.8140   -0.6171 O   0  0  0  0  0  0  0  0  0  0  0  0
    0.4656    0.8343   -1.6056 N   0  0  0  0  0  0  0  0  0  0  0  0
    1.1303    0.0789   -1.5550 H   0  0  0  0  0  0  0  0  0  0  0  0
    0.6014    1.7999   -2.6953 C   0  0  0  0  0  0  0  0  0  0  0  0
    0.7238    2.8045   -2.2828 H   0  0  0  0  0  0  0  0  0  0  0  0
    1.4675    1.5577   -3.3130 H   0  0  0  0  0  0  0  0  0  0  0  0
   -0.2985    1.7880   -3.3126 H   0  0  0  0  0  0  0  0  0  0  0  0
  5  6  2  0  0  0  0
  5  7  1  0  0  0  0
  2  3  1  0  0  0  0
  2  4  1  0  0  0  0
  2  5  1  0  0  0  0
  1  2  1  0  0  0  0
 22 23  2  0  0  0  0
 22 24  1  0  0  0  0
 19 20  1  0  0  0  0
 19 21  1  0  0  0  0
 17 18  2  0  0  0  0
 17 19  1  0  0  0  0
 14 15  1  0  0  0  0
 14 16  1  0  0  0  0
 14 17  1  0  0  0  0
 11 12  1  0  0  0  0
 11 13  1  0  0  0  0
 11 14  1  0  0  0  0
  9 10  1  0  0  0  0
  9 11  1  0  0  0  0
  9 22  1  0  0  0  0
  7  8  1  0  0  0  0
  7  9  1  0  0  0  0
 26 27  1  0  0  0  0
 26 28  1  0  0  0  0
 26 29  1  0  0  0  0
 24 25  1  0  0  0  0
 24 26  1  0  0  0  0
M  END
$$$$
default_name
  -OEChem-01062215323D

 29 28  0     1  0  0  0  0  0999 V2000
   -3.3998   -3.6239    1.3678 H   0  0  0  0  0  0  0  0  0  0  0  0
   -3.3608   -2.6749    0.8348 C   0  0  0  0  0  0  0  0  0  0  0  0
   -4.0988   -1.9909    1.2498 H   0  0  0  0  0  0  0  0  0  0  0  0
   -3.5618   -2.8419   -0.2222 H   0  0  0  0  0  0  0  0  0  0  0  0
   -1.9818   -2.0809    0.9918 C   0  0  0  0  0  0  0  0  0  0  0  0
   -1.1288   -2.6669    1.6468 O   0  0  0  0  0  0  0  0  0  0  0  0
   -1.7648   -0.9089    0.3998 N   0  0  0  0  0  0  0  0  0  0  0  0
   -2.5238   -0.4719   -0.1032 H   0  0  0  0  0  0  0  0  0  0  0  0
   -0.4848   -0.1959    0.4138 C   0  0  1  0  0  0  0  0  0  0  0  0
   -0.3581    0.2736    1.3907 H   0  0  0  0  0  0  0  0  0  0  0  0
    0.6538   -1.2159    0.2175 C   0  0  0  0  0  0  0  0  0  0  0  0
    0.4457   -1.7932   -0.6858 H   0  0  0  0  0  0  0  0  0  0  0  0
    1.5921   -0.6788    0.0704 H   0  0  0  0  0  0  0  0  0  0  0  0
    0.8207   -2.1961    1.3917 C   0  0  0  0  0  0  0  0  0  0  0  0
    1.0463   -1.6424    2.3029 H   0  0  0  0  0  0  0  0  0  0  0  0
   -0.1141   -2.7378    1.5359 H   0  0  0  0  0  0  0  0  0  0  0  0
    1.9379   -3.2155    1.1700 C   0  0  0  0  0  0  0  0  0  0  0  0
    2.5781   -3.2929    0.1381 O   0  0  0  0  0  0  0  0  0  0  0  0
    2.2288   -4.0476    2.1463 N   0  0  0  0  0  0  0  0  0  0  0  0
    2.9713   -4.6952    1.9468 H   0  0  0  0  0  0  0  0  0  0  0  0
    1.7357   -4.0254    3.0159 H   0  0  0  0  0  0  0  0  0  0  0  0
   -0.4719    0.9105   -0.6523 C   0  0  0  0  0  0  0  0  0  0  0  0
   -1.1078    1.9480   -0.4757 O   0  0  0  0  0  0  0  0  0  0  0  0
    0.2425    0.6857   -1.7625 N   0  0  0  0  0  0  0  0  0  0  0  0
    0.7582   -0.1776   -1.8256 H   0  0  0  0  0  0  0  0  0  0  0  0
    0.3444    1.6320   -2.8726 C   0  0  0  0  0  0  0  0  0  0  0  0
    0.7201    2.5902   -2.5053 H   0  0  0  0  0  0  0  0  0  0  0  0
    1.0224    1.2502   -3.6374 H   0  0  0  0  0  0  0  0  0  0  0  0
   -0.6419    1.7936   -3.3110 H   0  0  0  0  0  0  0  0  0  0  0  0
  5  6  2  0  0  0  0
  5  7  1  0  0  0  0
  2  3  1  0  0  0  0
  2  4  1  0  0  0  0
  2  5  1  0  0  0  0
  1  2  1  0  0  0  0
 22 23  2  0  0  0  0
 22 24  1  0  0  0  0
 19 20  1  0  0  0  0
 19 21  1  0  0  0  0
 17 18  2  0  0  0  0
 17 19  1  0  0  0  0
 14 15  1  0  0  0  0
 14 16  1  0  0  0  0
 14 17  1  0  0  0  0
 11 12  1  0  0  0  0
 11 13  1  0  0  0  0
 11 14  1  0  0  0  0
  9 10  1  0  0  0  0
  9 11  1  0  0  0  0
  9 22  1  0  0  0  0
  7  8  1  0  0  0  0
  7  9  1  0  0  0  0
 26 27  1  0  0  0  0
 26 28  1  0  0  0  0
 26 29  1  0  0  0  0
 24 25  1  0  0  0  0
 24 26  1  0  0  0  0
M  END
$$$$
default_name
  -OEChem-01062215323D

 29 28  0     1  0  0  0  0  0999 V2000
   -3.3998   -3.6239    1.3678 H   0  0  0  0  0  0  0  0  0  0  0  0
   -3.3608   -2.6749    0.8348 C   0  0  0  0  0  0  0  0  0  0  0  0
   -4.0988   -1.9909    1.2498 H   0  0  0  0  0  0  0  0  0  0  0  0
   -3.5618   -2.8419   -0.2222 H   0  0  0  0  0  0  0  0  0  0  0  0
   -1.9818   -2.0809    0.9918 C   0  0  0  0  0  0  0  0  0  0  0  0
   -1.1288   -2.6669    1.6468 O   0  0  0  0  0  0  0  0  0  0  0  0
   -1.7648   -0.9089    0.3998 N   0  0  0  0  0  0  0  0  0  0  0  0
   -2.5238   -0.4719   -0.1032 H   0  0  0  0  0  0  0  0  0  0  0  0
   -0.4848   -0.1959    0.4138 C   0  0  1  0  0  0  0  0  0  0  0  0
   -0.3581    0.2736    1.3907 H   0  0  0  0  0  0  0  0  0  0  0  0
    0.6538   -1.2159    0.2175 C   0  0  0  0  0  0  0  0  0  0  0  0
    0.4457   -1.7932   -0.6858 H   0  0  0  0  0  0  0  0  0  0  0  0
    1.5921   -0.6788    0.0704 H   0  0  0  0  0  0  0  0  0  0  0  0
    0.8207   -2.1961    1.3917 C   0  0  0  0  0  0  0  0  0  0  0  0
    1.0463   -1.6424    2.3029 H   0  0  0  0  0  0  0  0  0  0  0  0
   -0.1141   -2.7378    1.5359 H   0  0  0  0  0  0  0  0  0  0  0  0
    1.9379   -3.2155    1.1700 C   0  0  0  0  0  0  0  0  0  0  0  0
    2.5781   -3.2929    0.1381 O   0  0  0  0  0  0  0  0  0  0  0  0
    2.2288   -4.0476    2.1463 N   0  0  0  0  0  0  0  0  0  0  0  0
    2.9713   -4.6952    1.9468 H   0  0  0  0  0  0  0  0  0  0  0  0
    1.7357   -4.0254    3.0159 H   0  0  0  0  0  0  0  0  0  0  0  0
   -0.4719    0.9105   -0.6523 C   0  0  0  0  0  0  0  0  0  0  0  0
   -0.8667    2.0417   -0.3756 O   0  0  0  0  0  0  0  0  0  0  0  0
   -0.0290    0.5825   -1.8729 N   0  0  0  0  0  0  0  0  0  0  0  0
    0.3022   -0.3579   -2.0182 H   0  0  0  0  0  0  0  0  0  0  0  0
    0.0329    1.5164   -2.9964 C   0  0  0  0  0  0  0  0  0  0  0  0
    0.6365    2.3844   -2.7199 H   0  0  0  0  0  0  0  0  0  0  0  0
    0.4769    1.0339   -3.8685 H   0  0  0  0  0  0  0  0  0  0  0  0
   -0.9723    1.8606   -3.2454 H   0  0  0  0  0  0  0  0  0  0  0  0
  5  6  2  0  0  0  0
  5  7  1  0  0  0  0
  2  3  1  0  0  0  0
  2  4  1  0  0  0  0
  2  5  1  0  0  0  0
  1  2  1  0  0  0  0
 22 23  2  0  0  0  0
 22 24  1  0  0  0  0
 19 20  1  0  0  0  0
 19 21  1  0  0  0  0
 17 18  2  0  0  0  0
 17 19  1  0  0  0  0
 14 15  1  0  0  0  0
 14 16  1  0  0  0  0
 14 17  1  0  0  0  0
 11 12  1  0  0  0  0
 11 13  1  0  0  0  0
 11 14  1  0  0  0  0
  9 10  1  0  0  0  0
  9 11  1  0  0  0  0
  9 22  1  0  0  0  0
  7  8  1  0  0  0  0
  7  9  1  0  0  0  0
 26 27  1  0  0  0  0
 26 28  1  0  0  0  0
 26 29  1  0  0  0  0
 24 25  1  0  0  0  0
 24 26  1  0  0  0  0
M  END
$$$$
default_name
  -OEChem-01062215323D

 29 28  0     1  0  0  0  0  0999 V2000
   -3.3998   -3.6239    1.3678 H   0  0  0  0  0  0  0  0  0  0  0  0
   -3.3608   -2.6749    0.8348 C   0  0  0  0  0  0  0  0  0  0  0  0
   -4.0988   -1.9909    1.2498 H   0  0  0  0  0  0  0  0  0  0  0  0
   -3.5618   -2.8419   -0.2222 H   0  0  0  0  0  0  0  0  0  0  0  0
   -1.9818   -2.0809    0.9918 C   0  0  0  0  0  0  0  0  0  0  0  0
   -1.1288   -2.6669    1.6468 O   0  0  0  0  0  0  0  0  0  0  0  0
   -1.7648   -0.9089    0.3998 N   0  0  0  0  0  0  0  0  0  0  0  0
   -2.5238   -0.4719   -0.1032 H   0  0  0  0  0  0  0  0  0  0  0  0
   -0.4848   -0.1959    0.4138 C   0  0  1  0  0  0  0  0  0  0  0  0
   -0.3581    0.2736    1.3907 H   0  0  0  0  0  0  0  0  0  0  0  0
    0.6538   -1.2159    0.2175 C   0  0  0  0  0  0  0  0  0  0  0  0
    0.4457   -1.7932   -0.6858 H   0  0  0  0  0  0  0  0  0  0  0  0
    1.5921   -0.6788    0.0704 H   0  0  0  0  0  0  0  0  0  0  0  0
    0.8207   -2.1961    1.3917 C   0  0  0  0  0  0  0  0  0  0  0  0
    1.0463   -1.6424    2.3029 H   0  0  0  0  0  0  0  0  0  0  0  0
   -0.1141   -2.7378    1.5359 H   0  0  0  0  0  0  0  0  0  0  0  0
    1.9379   -3.2155    1.1700 C   0  0  0  0  0  0  0  0  0  0  0  0
    2.5781   -3.2929    0.1381 O   0  0  0  0  0  0  0  0  0  0  0  0
    2.2288   -4.0476    2.1463 N   0  0  0  0  0  0  0  0  0  0  0  0
    2.9713   -4.6952    1.9468 H   0  0  0  0  0  0  0  0  0  0  0  0
    1.7357   -4.0254    3.0159 H   0  0  0  0  0  0  0  0  0  0  0  0
   -0.4719    0.9105   -0.6523 C   0  0  0  0  0  0  0  0  0  0  0  0
   -0.5984    2.0886   -0.3236 O   0  0  0  0  0  0  0  0  0  0  0  0
   -0.3302    0.5319   -1.9291 N   0  0  0  0  0  0  0  0  0  0  0  0
   -0.2065   -0.4497   -2.1196 H   0  0  0  0  0  0  0  0  0  0  0  0
   -0.3118    1.4609   -3.0582 C   0  0  0  0  0  0  0  0  0  0  0  0
    0.4788    2.2011   -2.9120 H   0  0  0  0  0  0  0  0  0  0  0  0
   -0.1321    0.9234   -3.9905 H   0  0  0  0  0  0  0  0  0  0  0  0
   -1.2672    1.9845   -3.1204 H   0  0  0  0  0  0  0  0  0  0  0  0
  5  6  2  0  0  0  0
  5  7  1  0  0  0  0
  2  3  1  0  0  0  0
  2  4  1  0  0  0  0
  2  5  1  0  0  0  0
  1  2  1  0  0  0  0
 22 23  2  0  0  0  0
 22 24  1  0  0  0  0
 19 20  1  0  0  0  0
 19 21  1  0  0  0  0
 17 18  2  0  0  0  0
 17 19  1  0  0  0  0
 14 15  1  0  0  0  0
 14 16  1  0  0  0  0
 14 17  1  0  0  0  0
 11 12  1  0  0  0  0
 11 13  1  0  0  0  0
 11 14  1  0  0  0  0
  9 10  1  0  0  0  0
  9 11  1  0  0  0  0
  9 22  1  0  0  0  0
  7  8  1  0  0  0  0
  7  9  1  0  0  0  0
 26 27  1  0  0  0  0
 26 28  1  0  0  0  0
 26 29  1  0  0  0  0
 24 25  1  0  0  0  0
 24 26  1  0  0  0  0
M  END
$$$$
default_name
  -OEChem-01062215323D

 29 28  0     1  0  0  0  0  0999 V2000
   -3.3998   -3.6239    1.3678 H   0  0  0  0  0  0  0  0  0  0  0  0
   -3.3608   -2.6749    0.8348 C   0  0  0  0  0  0  0  0  0  0  0  0
   -4.0988   -1.9909    1.2498 H   0  0  0  0  0  0  0  0  0  0  0  0
   -3.5618   -2.8419   -0.2222 H   0  0  0  0  0  0  0  0  0  0  0  0
   -1.9818   -2.0809    0.9918 C   0  0  0  0  0  0  0  0  0  0  0  0
   -1.1288   -2.6669    1.6468 O   0  0  0  0  0  0  0  0  0  0  0  0
   -1.7648   -0.9089    0.3998 N   0  0  0  0  0  0  0  0  0  0  0  0
   -2.5238   -0.4719   -0.1032 H   0  0  0  0  0  0  0  0  0  0  0  0
   -0.4848   -0.1959    0.4138 C   0  0  1  0  0  0  0  0  0  0  0  0
   -0.3581    0.2736    1.3907 H   0  0  0  0  0  0  0  0  0  0  0  0
    0.6538   -1.2159    0.2175 C   0  0  0  0  0  0  0  0  0  0  0  0
    0.4457   -1.7932   -0.6858 H   0  0  0  0  0  0  0  0  0  0  0  0
    1.5921   -0.6788    0.0704 H   0  0  0  0  0  0  0  0  0  0  0  0
    0.8207   -2.1961    1.3917 C   0  0  0  0  0  0  0  0  0  0  0  0
    1.0463   -1.6424    2.3029 H   0  0  0  0  0  0  0  0  0  0  0  0
   -0.1141   -2.7378    1.5359 H   0  0  0  0  0  0  0  0  0  0  0  0
    1.9379   -3.2155    1.1700 C   0  0  0  0  0  0  0  0  0  0  0  0
    2.5781   -3.2929    0.1381 O   0  0  0  0  0  0  0  0  0  0  0  0
    2.2288   -4.0476    2.1463 N   0  0  0  0  0  0  0  0  0  0  0  0
    2.9713   -4.6952    1.9468 H   0  0  0  0  0  0  0  0  0  0  0  0
    1.7357   -4.0254    3.0159 H   0  0  0  0  0  0  0  0  0  0  0  0
   -0.4719    0.9105   -0.6523 C   0  0  0  0  0  0  0  0  0  0  0  0
   -0.3211    2.0857   -0.3233 O   0  0  0  0  0  0  0  0  0  0  0  0
   -0.6408    0.5372   -1.9273 N   0  0  0  0  0  0  0  0  0  0  0  0
   -0.7332   -0.4468   -2.1230 H   0  0  0  0  0  0  0  0  0  0  0  0
   -0.6662    1.4693   -3.0537 C   0  0  0  0  0  0  0  0  0  0  0  0
    0.2577    2.0527   -3.0686 H   0  0  0  0  0  0  0  0  0  0  0  0
   -0.7628    0.9263   -3.9951 H   0  0  0  0  0  0  0  0  0  0  0  0
   -1.5065    2.1569   -2.9443 H   0  0  0  0  0  0  0  0  0  0  0  0
  5  6  2  0  0  0  0
  5  7  1  0  0  0  0
  2  3  1  0  0  0  0
  2  4  1  0  0  0  0
  2  5  1  0  0  0  0
  1  2  1  0  0  0  0
 22 23  2  0  0  0  0
 22 24  1  0  0  0  0
 19 20  1  0  0  0  0
 19 21  1  0  0  0  0
 17 18  2  0  0  0  0
 17 19  1  0  0  0  0
 14 15  1  0  0  0  0
 14 16  1  0  0  0  0
 14 17  1  0  0  0  0
 11 12  1  0  0  0  0
 11 13  1  0  0  0  0
 11 14  1  0  0  0  0
  9 10  1  0  0  0  0
  9 11  1  0  0  0  0
  9 22  1  0  0  0  0
  7  8  1  0  0  0  0
  7  9  1  0  0  0  0
 26 27  1  0  0  0  0
 26 28  1  0  0  0  0
 26 29  1  0  0  0  0
 24 25  1  0  0  0  0
 24 26  1  0  0  0  0
M  END
$$$$
default_name
  -OEChem-01062215323D

 29 28  0     1  0  0  0  0  0999 V2000
   -3.3998   -3.6239    1.3678 H   0  0  0  0  0  0  0  0  0  0  0  0
   -3.3608   -2.6749    0.8348 C   0  0  0  0  0  0  0  0  0  0  0  0
   -4.0988   -1.9909    1.2498 H   0  0  0  0  0  0  0  0  0  0  0  0
   -3.5618   -2.8419   -0.2222 H   0  0  0  0  0  0  0  0  0  0  0  0
   -1.9818   -2.0809    0.9918 C   0  0  0  0  0  0  0  0  0  0  0  0
   -1.1288   -2.6669    1.6468 O   0  0  0  0  0  0  0  0  0  0  0  0
   -1.7648   -0.9089    0.3998 N   0  0  0  0  0  0  0  0  0  0  0  0
   -2.5238   -0.4719   -0.1032 H   0  0  0  0  0  0  0  0  0  0  0  0
   -0.4848   -0.1959    0.4138 C   0  0  1  0  0  0  0  0  0  0  0  0
   -0.3581    0.2736    1.3907 H   0  0  0  0  0  0  0  0  0  0  0  0
    0.6538   -1.2159    0.2175 C   0  0  0  0  0  0  0  0  0  0  0  0
    0.4457   -1.7932   -0.6858 H   0  0  0  0  0  0  0  0  0  0  0  0
    1.5921   -0.6788    0.0704 H   0  0  0  0  0  0  0  0  0  0  0  0
    0.8207   -2.1961    1.3917 C   0  0  0  0  0  0  0  0  0  0  0  0
    1.0463   -1.6424    2.3029 H   0  0  0  0  0  0  0  0  0  0  0  0
   -0.1141   -2.7378    1.5359 H   0  0  0  0  0  0  0  0  0  0  0  0
    1.9379   -3.2155    1.1700 C   0  0  0  0  0  0  0  0  0  0  0  0
    2.5781   -3.2929    0.1381 O   0  0  0  0  0  0  0  0  0  0  0  0
    2.2288   -4.0476    2.1463 N   0  0  0  0  0  0  0  0  0  0  0  0
    2.9713   -4.6952    1.9468 H   0  0  0  0  0  0  0  0  0  0  0  0
    1.7357   -4.0254    3.0159 H   0  0  0  0  0  0  0  0  0  0  0  0
   -0.4719    0.9105   -0.6523 C   0  0  0  0  0  0  0  0  0  0  0  0
   -0.0537    2.0330   -0.3747 O   0  0  0  0  0  0  0  0  0  0  0  0
   -0.9396    0.5981   -1.8677 N   0  0  0  0  0  0  0  0  0  0  0  0
   -1.2422   -0.3495   -2.0281 H   0  0  0  0  0  0  0  0  0  0  0  0
   -1.0062    1.5410   -2.9834 C   0  0  0  0  0  0  0  0  0  0  0  0
   -0.0116    1.9495   -3.1790 H   0  0  0  0  0  0  0  0  0  0  0  0
   -1.3724    1.0423   -3.8820 H   0  0  0  0  0  0  0  0  0  0  0  0
   -1.6739    2.3660   -2.7293 H   0  0  0  0  0  0  0  0  0  0  0  0
  5  6  2  0  0  0  0
  5  7  1  0  0  0  0
  2  3  1  0  0  0  0
  2  4  1  0  0  0  0
  2  5  1  0  0  0  0
  1  2  1  0  0  0  0
 22 23  2  0  0  0  0
 22 24  1  0  0  0  0
 19 20  1  0  0  0  0
 19 21  1  0  0  0  0
 17 18  2  0  0  0  0
 17 19  1  0  0  0  0
 14 15  1  0  0  0  0
 14 16  1  0  0  0  0
 14 17  1  0  0  0  0
 11 12  1  0  0  0  0
 11 13  1  0  0  0  0
 11 14  1  0  0  0  0
  9 10  1  0  0  0  0
  9 11  1  0  0  0  0
  9 22  1  0  0  0  0
  7  8  1  0  0  0  0
  7  9  1  0  0  0  0
 26 27  1  0  0  0  0
 26 28  1  0  0  0  0
 26 29  1  0  0  0  0
 24 25  1  0  0  0  0
 24 26  1  0  0  0  0
M  END
$$$$
default_name
  -OEChem-01062215323D

 29 28  0     1  0  0  0  0  0999 V2000
   -3.3998   -3.6239    1.3678 H   0  0  0  0  0  0  0  0  0  0  0  0
   -3.3608   -2.6749    0.8348 C   0  0  0  0  0  0  0  0  0  0  0  0
   -4.0988   -1.9909    1.2498 H   0  0  0  0  0  0  0  0  0  0  0  0
   -3.5618   -2.8419   -0.2222 H   0  0  0  0  0  0  0  0  0  0  0  0
   -1.9818   -2.0809    0.9918 C   0  0  0  0  0  0  0  0  0  0  0  0
   -1.1288   -2.6669    1.6468 O   0  0  0  0  0  0  0  0  0  0  0  0
   -1.7648   -0.9089    0.3998 N   0  0  0  0  0  0  0  0  0  0  0  0
   -2.5238   -0.4719   -0.1032 H   0  0  0  0  0  0  0  0  0  0  0  0
   -0.4848   -0.1959    0.4138 C   0  0  1  0  0  0  0  0  0  0  0  0
   -0.3581    0.2736    1.3907 H   0  0  0  0  0  0  0  0  0  0  0  0
    0.6538   -1.2159    0.2175 C   0  0  0  0  0  0  0  0  0  0  0  0
    0.4457   -1.7932   -0.6858 H   0  0  0  0  0  0  0  0  0  0  0  0
    1.5921   -0.6788    0.0704 H   0  0  0  0  0  0  0  0  0  0  0  0
    0.8207   -2.1961    1.3917 C   0  0  0  0  0  0  0  0  0  0  0  0
    1.0463   -1.6424    2.3029 H   0  0  0  0  0  0  0  0  0  0  0  0
   -0.1141   -2.7378    1.5359 H   0  0  0  0  0  0  0  0  0  0  0  0
    1.9379   -3.2155    1.1700 C   0  0  0  0  0  0  0  0  0  0  0  0
    2.5781   -3.2929    0.1381 O   0  0  0  0  0  0  0  0  0  0  0  0
    2.2288   -4.0476    2.1463 N   0  0  0  0  0  0  0  0  0  0  0  0
    2.9713   -4.6952    1.9468 H   0  0  0  0  0  0  0  0  0  0  0  0
    1.7357   -4.0254    3.0159 H   0  0  0  0  0  0  0  0  0  0  0  0
   -0.4719    0.9105   -0.6523 C   0  0  0  0  0  0  0  0  0  0  0  0
    0.1856    1.9343   -0.4744 O   0  0  0  0  0  0  0  0  0  0  0  0
   -1.2061    0.7104   -1.7543 N   0  0  0  0  0  0  0  0  0  0  0  0
   -1.6986   -0.1642   -1.8414 H   0  0  0  0  0  0  0  0  0  0  0  0
   -1.3086    1.6712   -2.8519 C   0  0  0  0  0  0  0  0  0  0  0  0
   -0.3109    1.8983   -3.2357 H   0  0  0  0  0  0  0  0  0  0  0  0
   -1.9193    1.2636   -3.6589 H   0  0  0  0  0  0  0  0  0  0  0  0
   -1.7579    2.5976   -2.4900 H   0  0  0  0  0  0  0  0  0  0  0  0
  5  6  2  0  0  0  0
  5  7  1  0  0  0  0
  2  3  1  0  0  0  0
  2  4  1  0  0  0  0
  2  5  1  0  0  0  0
  1  2  1  0  0  0  0
 22 23  2  0  0  0  0
 22 24  1  0  0  0  0
 19 20  1  0  0  0  0
 19 21  1  0  0  0  0
 17 18  2  0  0  0  0
 17 19  1  0  0  0  0
 14 15  1  0  0  0  0
 14 16  1  0  0  0  0
 14 17  1  0  0  0  0
 11 12  1  0  0  0  0
 11 13  1  0  0  0  0
 11 14  1  0  0  0  0
  9 10  1  0  0  0  0
  9 11  1  0  0  0  0
  9 22  1  0  0  0  0
  7  8  1  0  0  0  0
  7  9  1  0  0  0  0
 26 27  1  0  0  0  0
 26 28  1  0  0  0  0
 26 29  1  0  0  0  0
 24 25  1  0  0  0  0
 24 26  1  0  0  0  0
M  END
$$$$
default_name
  -OEChem-01062215323D

 29 28  0     1  0  0  0  0  0999 V2000
   -3.3998   -3.6239    1.3678 H   0  0  0  0  0  0  0  0  0  0  0  0
   -3.3608   -2.6749    0.8348 C   0  0  0  0  0  0  0  0  0  0  0  0
   -4.0988   -1.9909    1.2498 H   0  0  0  0  0  0  0  0  0  0  0  0
   -3.5618   -2.8419   -0.2222 H   0  0  0  0  0  0  0  0  0  0  0  0
   -1.9818   -2.0809    0.9918 C   0  0  0  0  0  0  0  0  0  0  0  0
   -1.1288   -2.6669    1.6468 O   0  0  0  0  0  0  0  0  0  0  0  0
   -1.7648   -0.9089    0.3998 N   0  0  0  0  0  0  0  0  0  0  0  0
   -2.5238   -0.4719   -0.1032 H   0  0  0  0  0  0  0  0  0  0  0  0
   -0.4848   -0.1959    0.4138 C   0  0  1  0  0  0  0  0  0  0  0  0
   -0.3581    0.2736    1.3907 H   0  0  0  0  0  0  0  0  0  0  0  0
    0.6538   -1.2159    0.2175 C   0  0  0  0  0  0  0  0  0  0  0  0
    0.4457   -1.7932   -0.6858 H   0  0  0  0  0  0  0  0  0  0  0  0
    1.5921   -0.6788    0.0704 H   0  0  0  0  0  0  0  0  0  0  0  0
    0.8207   -2.1961    1.3917 C   0  0  0  0  0  0  0  0  0  0  0  0
    1.0463   -1.6424    2.3029 H   0  0  0  0  0  0  0  0  0  0  0  0
   -0.1141   -2.7378    1.5359 H   0  0  0  0  0  0  0  0  0  0  0  0
    1.9379   -3.2155    1.1700 C   0  0  0  0  0  0  0  0  0  0  0  0
    2.5781   -3.2929    0.1381 O   0  0  0  0  0  0  0  0  0  0  0  0
    2.2288   -4.0476    2.1463 N   0  0  0  0  0  0  0  0  0  0  0  0
    2.9713   -4.6952    1.9468 H   0  0  0  0  0  0  0  0  0  0  0  0
    1.7357   -4.0254    3.0159 H   0  0  0  0  0  0  0  0  0  0  0  0
   -0.4719    0.9105   -0.6523 C   0  0  0  0  0  0  0  0  0  0  0  0
    0.3803    1.7961   -0.6154 O   0  0  0  0  0  0  0  0  0  0  0  0
   -1.4222    0.8665   -1.5949 N   0  0  0  0  0  0  0  0  0  0  0  0
   -2.0714    0.0962   -1.5755 H   0  0  0  0  0  0  0  0  0  0  0  0
   -1.5528    1.8510   -2.6682 C   0  0  0  0  0  0  0  0  0  0  0  0
   -0.6198    1.9028   -3.2348 H   0  0  0  0  0  0  0  0  0  0  0  0
   -2.3662    1.5752   -3.3410 H   0  0  0  0  0  0  0  0  0  0  0  0
   -1.7529    2.8359   -2.2427 H   0  0  0  0  0  0  0  0  0  0  0  0
  5  6  2  0  0  0  0
  5  7  1  0  0  0  0
  2  3  1  0  0  0  0
  2  4  1  0  0  0  0
  2  5  1  0  0  0  0
  1  2  1  0  0  0  0
 22 23  2  0  0  0  0
 22 24  1  0  0  0  0
 19 20  1  0  0  0  0
 19 21  1  0  0  0  0
 17 18  2  0  0  0  0
 17 19  1  0  0  0  0
 14 15  1  0  0  0  0
 14 16  1  0  0  0  0
 14 17  1  0  0  0  0
 11 12  1  0  0  0  0
 11 13  1  0  0  0  0
 11 14  1  0  0  0  0
  9 10  1  0  0  0  0
  9 11  1  0  0  0  0
  9 22  1  0  0  0  0
  7  8  1  0  0  0  0
  7  9  1  0  0  0  0
 26 27  1  0  0  0  0
 26 28  1  0  0  0  0
 26 29  1  0  0  0  0
 24 25  1  0  0  0  0
 24 26  1  0  0  0  0
M  END
$$$$
default_name
  -OEChem-01062215323D

 29 28  0     1  0  0  0  0  0999 V2000
   -3.3998   -3.6239    1.3678 H   0  0  0  0  0  0  0  0  0  0  0  0
   -3.3608   -2.6749    0.8348 C   0  0  0  0  0  0  0  0  0  0  0  0
   -4.0988   -1.9909    1.2498 H   0  0  0  0  0  0  0  0  0  0  0  0
   -3.5618   -2.8419   -0.2222 H   0  0  0  0  0  0  0  0  0  0  0  0
   -1.9818   -2.0809    0.9918 C   0  0  0  0  0  0  0  0  0  0  0  0
   -1.1288   -2.6669    1.6468 O   0  0  0  0  0  0  0  0  0  0  0  0
   -1.7648   -0.9089    0.3998 N   0  0  0  0  0  0  0  0  0  0  0  0
   -2.5238   -0.4719   -0.1032 H   0  0  0  0  0  0  0  0  0  0  0  0
   -0.4848   -0.1959    0.4138 C   0  0  1  0  0  0  0  0  0  0  0  0
   -0.3581    0.2736    1.3907 H   0  0  0  0  0  0  0  0  0  0  0  0
    0.6538   -1.2159    0.2175 C   0  0  0  0  0  0  0  0  0  0  0  0
    0.4457   -1.7932   -0.6858 H   0  0  0  0  0  0  0  0  0  0  0  0
    1.5921   -0.6788    0.0704 H   0  0  0  0  0  0  0  0  0  0  0  0
    0.8207   -2.1961    1.3917 C   0  0  0  0  0  0  0  0  0  0  0  0
    1.0463   -1.6424    2.3029 H   0  0  0  0  0  0  0  0  0  0  0  0
   -0.1141   -2.7378    1.5359 H   0  0  0  0  0  0  0  0  0  0  0  0
    1.9379   -3.2155    1.1700 C   0  0  0  0  0  0  0  0  0  0  0  0
    2.5781   -3.2929    0.1381 O   0  0  0  0  0  0  0  0  0  0  0  0
    2.2288   -4.0476    2.1463 N   0  0  0  0  0  0  0  0  0  0  0  0
    2.9713   -4.6952    1.9468 H   0  0  0  0  0  0  0  0  0  0  0  0
    1.7357   -4.0254    3.0159 H   0  0  0  0  0  0  0  0  0  0  0  0
   -0.4719    0.9105   -0.6523 C   0  0  0  0  0  0  0  0  0  0  0  0
    0.5174    1.6280   -0.7882 O   0  0  0  0  0  0  0  0  0  0  0  0
   -1.5732    1.0558   -1.4003 N   0  0  0  0  0  0  0  0  0  0  0  0
   -2.3351    0.4142   -1.2487 H   0  0  0  0  0  0  0  0  0  0  0  0
   -1.7222    2.0682   -2.4449 C   0  0  0  0  0  0  0  0  0  0  0  0
   -0.9171    1.9626   -3.1763 H   0  0  0  0  0  0  0  0  0  0  0  0
   -2.6827    1.9556   -2.9500 H   0  0  0  0  0  0  0  0  0  0  0  0
   -1.6592    3.0646   -2.0042 H   0  0  0  0  0  0  0  0  0  0  0  0
  5  6  2  0  0  0  0
  5  7  1  0  0  0  0
  2  3  1  0  0  0  0
  2  4  1  0  0  0  0
  2  5  1  0  0  0  0
  1  2  1  0  0  0  0
 22 23  2  0  0  0  0
 22 24  1  0  0  0  0
 19 20  1  0  0  0  0
 19 21  1  0  0  0  0
 17 18  2  0  0  0  0
 17 19  1  0  0  0  0
 14 15  1  0  0  0  0
 14 16  1  0  0  0  0
 14 17  1  0  0  0  0
 11 12  1  0  0  0  0
 11 13  1  0  0  0  0
 11 14  1  0  0  0  0
  9 10  1  0  0  0  0
  9 11  1  0  0  0  0
  9 22  1  0  0  0  0
  7  8  1  0  0  0  0
  7  9  1  0  0  0  0
 26 27  1  0  0  0  0
 26 28  1  0  0  0  0
 26 29  1  0  0  0  0
 24 25  1  0  0  0  0
 24 26  1  0  0  0  0
M  END
$$$$
default_name
  -OEChem-01062215323D

 29 28  0     1  0  0  0  0  0999 V2000
   -3.3998   -3.6239    1.3678 H   0  0  0  0  0  0  0  0  0  0  0  0
   -3.3608   -2.6749    0.8348 C   0  0  0  0  0  0  0  0  0  0  0  0
   -4.0988   -1.9909    1.2498 H   0  0  0  0  0  0  0  0  0  0  0  0
   -3.5618   -2.8419   -0.2222 H   0  0  0  0  0  0  0  0  0  0  0  0
   -1.9818   -2.0809    0.9918 C   0  0  0  0  0  0  0  0  0  0  0  0
   -1.1288   -2.6669    1.6468 O   0  0  0  0  0  0  0  0  0  0  0  0
   -1.7648   -0.9089    0.3998 N   0  0  0  0  0  0  0  0  0  0  0  0
   -2.5238   -0.4719   -0.1032 H   0  0  0  0  0  0  0  0  0  0  0  0
   -0.4848   -0.1959    0.4138 C   0  0  1  0  0  0  0  0  0  0  0  0
   -0.3581    0.2736    1.3907 H   0  0  0  0  0  0  0  0  0  0  0  0
    0.6538   -1.2159    0.2175 C   0  0  0  0  0  0  0  0  0  0  0  0
    0.4457   -1.7932   -0.6858 H   0  0  0  0  0  0  0  0  0  0  0  0
    1.5921   -0.6788    0.0704 H   0  0  0  0  0  0  0  0  0  0  0  0
    0.8207   -2.1961    1.3917 C   0  0  0  0  0  0  0  0  0  0  0  0
    1.0463   -1.6424    2.3029 H   0  0  0  0  0  0  0  0  0  0  0  0
   -0.1141   -2.7378    1.5359 H   0  0  0  0  0  0  0  0  0  0  0  0
    1.9379   -3.2155    1.1700 C   0  0  0  0  0  0  0  0  0  0  0  0
    2.5781   -3.2929    0.1381 O   0  0  0  0  0  0  0  0  0  0  0  0
    2.2288   -4.0476    2.1463 N   0  0  0  0  0  0  0  0  0  0  0  0
    2.9713   -4.6952    1.9468 H   0  0  0  0  0  0  0  0  0  0  0  0
    1.7357   -4.0254    3.0159 H   0  0  0  0  0  0  0  0  0  0  0  0
   -0.4719    0.9105   -0.6523 C   0  0  0  0  0  0  0  0  0  0  0  0
    0.5874    1.4414   -0.9810 O   0  0  0  0  0  0  0  0  0  0  0  0
   -1.6488    1.2653   -1.1838 N   0  0  0  0  0  0  0  0  0  0  0  0
   -2.4719    0.7680   -0.8832 H   0  0  0  0  0  0  0  0  0  0  0  0
   -1.8052    2.3079   -2.1972 C   0  0  0  0  0  0  0  0  0  0  0  0
   -1.1827    2.0736   -3.0643 H   0  0  0  0  0  0  0  0  0  0  0  0
   -2.8472    2.3791   -2.5124 H   0  0  0  0  0  0  0  0  0  0  0  0
   -1.4831    3.2681   -1.7908 H   0  0  0  0  0  0  0  0  0  0  0  0
  5  6  2  0  0  0  0
  5  7  1  0  0  0  0
  2  3  1  0  0  0  0
  2  4  1  0  0  0  0
  2  5  1  0  0  0  0
  1  2  1  0  0  0  0
 22 23  2  0  0  0  0
 22 24  1  0  0  0  0
 19 20  1  0  0  0  0
 19 21  1  0  0  0  0
 17 18  2  0  0  0  0
 17 19  1  0  0  0  0
 14 15  1  0  0  0  0
 14 16  1  0  0  0  0
 14 17  1  0  0  0  0
 11 12  1  0  0  0  0
 11 13  1  0  0  0  0
 11 14  1  0  0  0  0
  9 10  1  0  0  0  0
  9 11  1  0  0  0  0
  9 22  1  0  0  0  0
  7  8  1  0  0  0  0
  7  9  1  0  0  0  0
 26 27  1  0  0  0  0
 26 28  1  0  0  0  0
 26 29  1  0  0  0  0
 24 25  1  0  0  0  0
 24 26  1  0  0  0  0
M  END
$$$$
default_name
  -OEChem-01062215323D

 29 28  0     1  0  0  0  0  0999 V2000
   -3.3998   -3.6239    1.3678 H   0  0  0  0  0  0  0  0  0  0  0  0
   -3.3608   -2.6749    0.8348 C   0  0  0  0  0  0  0  0  0  0  0  0
   -4.0988   -1.9909    1.2498 H   0  0  0  0  0  0  0  0  0  0  0  0
   -3.5618   -2.8419   -0.2222 H   0  0  0  0  0  0  0  0  0  0  0  0
   -1.9818   -2.0809    0.9918 C   0  0  0  0  0  0  0  0  0  0  0  0
   -1.1288   -2.6669    1.6468 O   0  0  0  0  0  0  0  0  0  0  0  0
   -1.7648   -0.9089    0.3998 N   0  0  0  0  0  0  0  0  0  0  0  0
   -2.5238   -0.4719   -0.1032 H   0  0  0  0  0  0  0  0  0  0  0  0
   -0.4848   -0.1959    0.4138 C   0  0  1  0  0  0  0  0  0  0  0  0
   -0.3581    0.2736    1.3907 H   0  0  0  0  0  0  0  0  0  0  0  0
    0.6538   -1.2159    0.2175 C   0  0  0  0  0  0  0  0  0  0  0  0
    0.4457   -1.7932   -0.6858 H   0  0  0  0  0  0  0  0  0  0  0  0
    1.5921   -0.6788    0.0704 H   0  0  0  0  0  0  0  0  0  0  0  0
    0.8207   -2.1961    1.3917 C   0  0  0  0  0  0  0  0  0  0  0  0
    1.0463   -1.6424    2.3029 H   0  0  0  0  0  0  0  0  0  0  0  0
   -0.1141   -2.7378    1.5359 H   0  0  0  0  0  0  0  0  0  0  0  0
    1.9379   -3.2155    1.1700 C   0  0  0  0  0  0  0  0  0  0  0  0
    2.5781   -3.2929    0.1381 O   0  0  0  0  0  0  0  0  0  0  0  0
    2.2288   -4.0476    2.1463 N   0  0  0  0  0  0  0  0  0  0  0  0
    2.9713   -4.6952    1.9468 H   0  0  0  0  0  0  0  0  0  0  0  0
    1.7357   -4.0254    3.0159 H   0  0  0  0  0  0  0  0  0  0  0  0
   -0.4719    0.9105   -0.6523 C   0  0  0  0  0  0  0  0  0  0  0  0
    0.5856    1.2490   -1.1807 O   0  0  0  0  0  0  0  0  0  0  0  0
   -1.6439    1.4808   -0.9601 N   0  0  0  0  0  0  0  0  0  0  0  0
   -2.4723    1.1335   -0.5039 H   0  0  0  0  0  0  0  0  0  0  0  0
   -1.7961    2.5537   -1.9419 C   0  0  0  0  0  0  0  0  0  0  0  0
   -1.3984    2.2283   -2.9063 H   0  0  0  0  0  0  0  0  0  0  0  0
   -2.8486    2.8168   -2.0582 H   0  0  0  0  0  0  0  0  0  0  0  0
   -1.2368    3.4327   -1.6171 H   0  0  0  0  0  0  0  0  0  0  0  0
  5  6  2  0  0  0  0
  5  7  1  0  0  0  0
  2  3  1  0  0  0  0
  2  4  1  0  0  0  0
  2  5  1  0  0  0  0
  1  2  1  0  0  0  0
 22 23  2  0  0  0  0
 22 24  1  0  0  0  0
 19 20  1  0  0  0  0
 19 21  1  0  0  0  0
 17 18  2  0  0  0  0
 17 19  1  0  0  0  0
 14 15  1  0  0  0  0
 14 16  1  0  0  0  0
 14 17  1  0  0  0  0
 11 12  1  0  0  0  0
 11 13  1  0  0  0  0
 11 14  1  0  0  0  0
  9 10  1  0  0  0  0
  9 11  1  0  0  0  0
  9 22  1  0  0  0  0
  7  8  1  0  0  0  0
  7  9  1  0  0  0  0
 26 27  1  0  0  0  0
 26 28  1  0  0  0  0
 26 29  1  0  0  0  0
 24 25  1  0  0  0  0
 24 26  1  0  0  0  0
M  END
$$$$
default_name
  -OEChem-01062215323D

 29 28  0     1  0  0  0  0  0999 V2000
   -3.3998   -3.6239    1.3678 H   0  0  0  0  0  0  0  0  0  0  0  0
   -3.3608   -2.6749    0.8348 C   0  0  0  0  0  0  0  0  0  0  0  0
   -4.0988   -1.9909    1.2498 H   0  0  0  0  0  0  0  0  0  0  0  0
   -3.5618   -2.8419   -0.2222 H   0  0  0  0  0  0  0  0  0  0  0  0
   -1.9818   -2.0809    0.9918 C   0  0  0  0  0  0  0  0  0  0  0  0
   -1.1288   -2.6669    1.6468 O   0  0  0  0  0  0  0  0  0  0  0  0
   -1.7648   -0.9089    0.3998 N   0  0  0  0  0  0  0  0  0  0  0  0
   -2.5238   -0.4719   -0.1032 H   0  0  0  0  0  0  0  0  0  0  0  0
   -0.4848   -0.1959    0.4138 C   0  0  1  0  0  0  0  0  0  0  0  0
   -0.3581    0.2736    1.3907 H   0  0  0  0  0  0  0  0  0  0  0  0
    0.6538   -1.2159    0.2175 C   0  0  0  0  0  0  0  0  0  0  0  0
    0.4457   -1.7932   -0.6858 H   0  0  0  0  0  0  0  0  0  0  0  0
    1.5921   -0.6788    0.0704 H   0  0  0  0  0  0  0  0  0  0  0  0
    0.8207   -2.1961    1.3917 C   0  0  0  0  0  0  0  0  0  0  0  0
    1.0463   -1.6424    2.3029 H   0  0  0  0  0  0  0  0  0  0  0  0
   -0.1141   -2.7378    1.5359 H   0  0  0  0  0  0  0  0  0  0  0  0
    1.9379   -3.2155    1.1700 C   0  0  0  0  0  0  0  0  0  0  0  0
    2.5781   -3.2929    0.1381 O   0  0  0  0  0  0  0  0  0  0  0  0
    2.2288   -4.0476    2.1463 N   0  0  0  0  0  0  0  0  0  0  0  0
    2.9713   -4.6952    1.9468 H   0  0  0  0  0  0  0  0  0  0  0  0
    1.7357   -4.0254    3.0159 H   0  0  0  0  0  0  0  0  0  0  0  0
   -0.4719    0.9105   -0.6523 C   0  0  0  0  0  0  0  0  0  0  0  0
    0.5120    1.0639   -1.3737 O   0  0  0  0  0  0  0  0  0  0  0  0
   -1.5587    1.6875   -0.7445 N   0  0  0  0  0  0  0  0  0  0  0  0
   -2.3364    1.4859   -0.1366 H   0  0  0  0  0  0  0  0  0  0  0  0
   -1.6957    2.7890   -1.6965 C   0  0  0  0  0  0  0  0  0  0  0  0
   -1.5495    2.4161   -2.7132 H   0  0  0  0  0  0  0  0  0  0  0  0
   -2.6866    3.2388   -1.6183 H   0  0  0  0  0  0  0  0  0  0  0  0
   -0.9369    3.5470   -1.4948 H   0  0  0  0  0  0  0  0  0  0  0  0
  5  6  2  0  0  0  0
  5  7  1  0  0  0  0
  2  3  1  0  0  0  0
  2  4  1  0  0  0  0
  2  5  1  0  0  0  0
  1  2  1  0  0  0  0
 22 23  2  0  0  0  0
 22 24  1  0  0  0  0
 19 20  1  0  0  0  0
 19 21  1  0  0  0  0
 17 18  2  0  0  0  0
 17 19  1  0  0  0  0
 14 15  1  0  0  0  0
 14 16  1  0  0  0  0
 14 17  1  0  0  0  0
 11 12  1  0  0  0  0
 11 13  1  0  0  0  0
 11 14  1  0  0  0  0
  9 10  1  0  0  0  0
  9 11  1  0  0  0  0
  9 22  1  0  0  0  0
  7  8  1  0  0  0  0
  7  9  1  0  0  0  0
 26 27  1  0  0  0  0
 26 28  1  0  0  0  0
 26 29  1  0  0  0  0
 24 25  1  0  0  0  0
 24 26  1  0  0  0  0
M  END
$$$$
default_name
  -OEChem-01062215323D

 29 28  0     1  0  0  0  0  0999 V2000
   -3.3998   -3.6239    1.3678 H   0  0  0  0  0  0  0  0  0  0  0  0
   -3.3608   -2.6749    0.8348 C   0  0  0  0  0  0  0  0  0  0  0  0
   -4.0988   -1.9909    1.2498 H   0  0  0  0  0  0  0  0  0  0  0  0
   -3.5618   -2.8419   -0.2222 H   0  0  0  0  0  0  0  0  0  0  0  0
   -1.9818   -2.0809    0.9918 C   0  0  0  0  0  0  0  0  0  0  0  0
   -1.1288   -2.6669    1.6468 O   0  0  0  0  0  0  0  0  0  0  0  0
   -1.7648   -0.9089    0.3998 N   0  0  0  0  0  0  0  0  0  0  0  0
   -2.5238   -0.4719   -0.1032 H   0  0  0  0  0  0  0  0  0  0  0  0
   -0.4848   -0.1959    0.4138 C   0  0  1  0  0  0  0  0  0  0  0  0
   -0.3581    0.2736    1.3907 H   0  0  0  0  0  0  0  0  0  0  0  0
    0.6538   -1.2159    0.2175 C   0  0  0  0  0  0  0  0  0  0  0  0
    0.4457   -1.7932   -0.6858 H   0  0  0  0  0  0  0  0  0  0  0  0
    1.5921   -0.6788    0.0704 H   0  0  0  0  0  0  0  0  0  0  0  0
    0.8207   -2.1961    1.3917 C   0  0  0  0  0  0  0  0  0  0  0  0
    1.0463   -1.6424    2.3029 H   0  0  0  0  0  0  0  0  0  0  0  0
   -0.1141   -2.7378    1.5359 H   0  0  0  0  0  0  0  0  0  0  0  0
    1.9379   -3.2155    1.1700 C   0  0  0  0  0  0  0  0  0  0  0  0
    2.5781   -3.2929    0.1381 O   0  0  0  0  0  0  0  0  0  0  0  0
    2.2288   -4.0476    2.1463 N   0  0  0  0  0  0  0  0  0  0  0  0
    2.9713   -4.6952    1.9468 H   0  0  0  0  0  0  0  0  0  0  0  0
    1.7357   -4.0254    3.0159 H   0  0  0  0  0  0  0  0  0  0  0  0
   -0.4719    0.9105   -0.6523 C   0  0  0  0  0  0  0  0  0  0  0  0
    0.3717    0.8987   -1.5468 O   0  0  0  0  0  0  0  0  0  0  0  0
   -1.3991    1.8715   -0.5517 N   0  0  0  0  0  0  0  0  0  0  0  0
   -2.0735    1.8010    0.1936 H   0  0  0  0  0  0  0  0  0  0  0  0
   -1.5106    2.9978   -1.4776 C   0  0  0  0  0  0  0  0  0  0  0  0
   -1.6258    2.6243   -2.4982 H   0  0  0  0  0  0  0  0  0  0  0  0
   -2.3724    3.6164   -1.2226 H   0  0  0  0  0  0  0  0  0  0  0  0
   -0.6038    3.6033   -1.4324 H   0  0  0  0  0  0  0  0  0  0  0  0
  5  6  2  0  0  0  0
  5  7  1  0  0  0  0
  2  3  1  0  0  0  0
  2  4  1  0  0  0  0
  2  5  1  0  0  0  0
  1  2  1  0  0  0  0
 22 23  2  0  0  0  0
 22 24  1  0  0  0  0
 19 20  1  0  0  0  0
 19 21  1  0  0  0  0
 17 18  2  0  0  0  0
 17 19  1  0  0  0  0
 14 15  1  0  0  0  0
 14 16  1  0  0  0  0
 14 17  1  0  0  0  0
 11 12  1  0  0  0  0
 11 13  1  0  0  0  0
 11 14  1  0  0  0  0
  9 10  1  0  0  0  0
  9 11  1  0  0  0  0
  9 22  1  0  0  0  0
  7  8  1  0  0  0  0
  7  9  1  0  0  0  0
 26 27  1  0  0  0  0
 26 28  1  0  0  0  0
 26 29  1  0  0  0  0
 24 25  1  0  0  0  0
 24 26  1  0  0  0  0
M  END
$$$$
default_name
  -OEChem-01062215323D

 29 28  0     1  0  0  0  0  0999 V2000
   -3.3998   -3.6239    1.3678 H   0  0  0  0  0  0  0  0  0  0  0  0
   -3.3608   -2.6749    0.8348 C   0  0  0  0  0  0  0  0  0  0  0  0
   -4.0988   -1.9909    1.2498 H   0  0  0  0  0  0  0  0  0  0  0  0
   -3.5618   -2.8419   -0.2222 H   0  0  0  0  0  0  0  0  0  0  0  0
   -1.9818   -2.0809    0.9918 C   0  0  0  0  0  0  0  0  0  0  0  0
   -1.1288   -2.6669    1.6468 O   0  0  0  0  0  0  0  0  0  0  0  0
   -1.7648   -0.9089    0.3998 N   0  0  0  0  0  0  0  0  0  0  0  0
   -2.5238   -0.4719   -0.1032 H   0  0  0  0  0  0  0  0  0  0  0  0
   -0.4848   -0.1959    0.4138 C   0  0  1  0  0  0  0  0  0  0  0  0
   -0.3581    0.2736    1.3907 H   0  0  0  0  0  0  0  0  0  0  0  0
    0.6538   -1.2159    0.2175 C   0  0  0  0  0  0  0  0  0  0  0  0
    0.4457   -1.7932   -0.6858 H   0  0  0  0  0  0  0  0  0  0  0  0
    1.5921   -0.6788    0.0704 H   0  0  0  0  0  0  0  0  0  0  0  0
    0.8207   -2.1961    1.3917 C   0  0  0  0  0  0  0  0  0  0  0  0
    1.0463   -1.6424    2.3029 H   0  0  0  0  0  0  0  0  0  0  0  0
   -0.1141   -2.7378    1.5359 H   0  0  0  0  0  0  0  0  0  0  0  0
    1.9379   -3.2155    1.1700 C   0  0  0  0  0  0  0  0  0  0  0  0
    2.5781   -3.2929    0.1381 O   0  0  0  0  0  0  0  0  0  0  0  0
    2.2288   -4.0476    2.1463 N   0  0  0  0  0  0  0  0  0  0  0  0
    2.9713   -4.6952    1.9468 H   0  0  0  0  0  0  0  0  0  0  0  0
    1.7357   -4.0254    3.0159 H   0  0  0  0  0  0  0  0  0  0  0  0
   -0.4719    0.9105   -0.6523 C   0  0  0  0  0  0  0  0  0  0  0  0
    0.1744    0.7647   -1.6882 O   0  0  0  0  0  0  0  0  0  0  0  0
   -1.1760    2.0201   -0.3947 N   0  0  0  0  0  0  0  0  0  0  0  0
   -1.7013    2.0574    0.4642 H   0  0  0  0  0  0  0  0  0  0  0  0
   -1.2536    3.1657   -1.3003 C   0  0  0  0  0  0  0  0  0  0  0  0
   -1.6220    2.8386   -2.2757 H   0  0  0  0  0  0  0  0  0  0  0  0
   -1.9273    3.9239   -0.8982 H   0  0  0  0  0  0  0  0  0  0  0  0
   -0.2604    3.5978   -1.4340 H   0  0  0  0  0  0  0  0  0  0  0  0
  5  6  2  0  0  0  0
  5  7  1  0  0  0  0
  2  3  1  0  0  0  0
  2  4  1  0  0  0  0
  2  5  1  0  0  0  0
  1  2  1  0  0  0  0
 22 23  2  0  0  0  0
 22 24  1  0  0  0  0
 19 20  1  0  0  0  0
 19 21  1  0  0  0  0
 17 18  2  0  0  0  0
 17 19  1  0  0  0  0
 14 15  1  0  0  0  0
 14 16  1  0  0  0  0
 14 17  1  0  0  0  0
 11 12  1  0  0  0  0
 11 13  1  0  0  0  0
 11 14  1  0  0  0  0
  9 10  1  0  0  0  0
  9 11  1  0  0  0  0
  9 22  1  0  0  0  0
  7  8  1  0  0  0  0
  7  9  1  0  0  0  0
 26 27  1  0  0  0  0
 26 28  1  0  0  0  0
 26 29  1  0  0  0  0
 24 25  1  0  0  0  0
 24 26  1  0  0  0  0
M  END
$$$$
default_name
  -OEChem-01062215323D

 29 28  0     1  0  0  0  0  0999 V2000
   -3.3998   -3.6239    1.3678 H   0  0  0  0  0  0  0  0  0  0  0  0
   -3.3608   -2.6749    0.8348 C   0  0  0  0  0  0  0  0  0  0  0  0
   -4.0988   -1.9909    1.2498 H   0  0  0  0  0  0  0  0  0  0  0  0
   -3.5618   -2.8419   -0.2222 H   0  0  0  0  0  0  0  0  0  0  0  0
   -1.9818   -2.0809    0.9918 C   0  0  0  0  0  0  0  0  0  0  0  0
   -1.1288   -2.6669    1.6468 O   0  0  0  0  0  0  0  0  0  0  0  0
   -1.7648   -0.9089    0.3998 N   0  0  0  0  0  0  0  0  0  0  0  0
   -2.5238   -0.4719   -0.1032 H   0  0  0  0  0  0  0  0  0  0  0  0
   -0.4848   -0.1959    0.4138 C   0  0  1  0  0  0  0  0  0  0  0  0
   -0.3581    0.2736    1.3907 H   0  0  0  0  0  0  0  0  0  0  0  0
    0.6538   -1.2159    0.2175 C   0  0  0  0  0  0  0  0  0  0  0  0
    0.4457   -1.7932   -0.6858 H   0  0  0  0  0  0  0  0  0  0  0  0
    1.5921   -0.6788    0.0704 H   0  0  0  0  0  0  0  0  0  0  0  0
    0.8207   -2.1961    1.3917 C   0  0  0  0  0  0  0  0  0  0  0  0
    1.0463   -1.6424    2.3029 H   0  0  0  0  0  0  0  0  0  0  0  0
   -0.1141   -2.7378    1.5359 H   0  0  0  0  0  0  0  0  0  0  0  0
    1.9379   -3.2155    1.1700 C   0  0  0  0  0  0  0  0  0  0  0  0
    2.5781   -3.2929    0.1381 O   0  0  0  0  0  0  0  0  0  0  0  0
    2.2288   -4.0476    2.1463 N   0  0  0  0  0  0  0  0  0  0  0  0
    2.9713   -4.6952    1.9468 H   0  0  0  0  0  0  0  0  0  0  0  0
    1.7357   -4.0254    3.0159 H   0  0  0  0  0  0  0  0  0  0  0  0
   -0.4719    0.9105   -0.6523 C   0  0  0  0  0  0  0  0  0  0  0  0
   -0.0667    0.6711   -1.7883 O   0  0  0  0  0  0  0  0  0  0  0  0
   -0.9046    2.1233   -0.2844 N   0  0  0  0  0  0  0  0  0  0  0  0
   -1.2453    2.2377    0.6568 H   0  0  0  0  0  0  0  0  0  0  0  0
   -0.9422    3.2813   -1.1765 C   0  0  0  0  0  0  0  0  0  0  0  0
   -1.5384    3.0444   -2.0611 H   0  0  0  0  0  0  0  0  0  0  0  0
   -1.3817    4.1402   -0.6671 H   0  0  0  0  0  0  0  0  0  0  0  0
    0.0700    3.5308   -1.4996 H   0  0  0  0  0  0  0  0  0  0  0  0
  5  6  2  0  0  0  0
  5  7  1  0  0  0  0
  2  3  1  0  0  0  0
  2  4  1  0  0  0  0
  2  5  1  0  0  0  0
  1  2  1  0  0  0  0
 22 23  2  0  0  0  0
 22 24  1  0  0  0  0
 19 20  1  0  0  0  0
 19 21  1  0  0  0  0
 17 18  2  0  0  0  0
 17 19  1  0  0  0  0
 14 15  1  0  0  0  0
 14 16  1  0  0  0  0
 14 17  1  0  0  0  0
 11 12  1  0  0  0  0
 11 13  1  0  0  0  0
 11 14  1  0  0  0  0
  9 10  1  0  0  0  0
  9 11  1  0  0  0  0
  9 22  1  0  0  0  0
  7  8  1  0  0  0  0
  7  9  1  0  0  0  0
 26 27  1  0  0  0  0
 26 28  1  0  0  0  0
 26 29  1  0  0  0  0
 24 25  1  0  0  0  0
 24 26  1  0  0  0  0
M  END
$$$$
default_name
  -OEChem-01062215323D

 29 28  0     1  0  0  0  0  0999 V2000
   -3.3998   -3.6239    1.3678 H   0  0  0  0  0  0  0  0  0  0  0  0
   -3.3608   -2.6749    0.8348 C   0  0  0  0  0  0  0  0  0  0  0  0
   -4.0988   -1.9909    1.2498 H   0  0  0  0  0  0  0  0  0  0  0  0
   -3.5618   -2.8419   -0.2222 H   0  0  0  0  0  0  0  0  0  0  0  0
   -1.9818   -2.0809    0.9918 C   0  0  0  0  0  0  0  0  0  0  0  0
   -1.1288   -2.6669    1.6468 O   0  0  0  0  0  0  0  0  0  0  0  0
   -1.7648   -0.9089    0.3998 N   0  0  0  0  0  0  0  0  0  0  0  0
   -2.5238   -0.4719   -0.1032 H   0  0  0  0  0  0  0  0  0  0  0  0
   -0.4848   -0.1959    0.4138 C   0  0  1  0  0  0  0  0  0  0  0  0
   -0.3581    0.2736    1.3907 H   0  0  0  0  0  0  0  0  0  0  0  0
    0.6538   -1.2159    0.2175 C   0  0  0  0  0  0  0  0  0  0  0  0
    0.4457   -1.7932   -0.6858 H   0  0  0  0  0  0  0  0  0  0  0  0
    1.5921   -0.6788    0.0704 H   0  0  0  0  0  0  0  0  0  0  0  0
    0.8207   -2.1961    1.3917 C   0  0  0  0  0  0  0  0  0  0  0  0
    1.0463   -1.6424    2.3029 H   0  0  0  0  0  0  0  0  0  0  0  0
   -0.1141   -2.7378    1.5359 H   0  0  0  0  0  0  0  0  0  0  0  0
    1.9379   -3.2155    1.1700 C   0  0  0  0  0  0  0  0  0  0  0  0
    2.5781   -3.2929    0.1381 O   0  0  0  0  0  0  0  0  0  0  0  0
    2.2288   -4.0476    2.1463 N   0  0  0  0  0  0  0  0  0  0  0  0
    2.9713   -4.6952    1.9468 H   0  0  0  0  0  0  0  0  0  0  0  0
    1.7357   -4.0254    3.0159 H   0  0  0  0  0  0  0  0  0  0  0  0
   -0.4719    0.9105   -0.6523 C   0  0  0  0  0  0  0  0  0  0  0  0
   -0.3351    0.6241   -1.8403 O   0  0  0  0  0  0  0  0  0  0  0  0
   -0.6033    2.1739   -0.2282 N   0  0  0  0  0  0  0  0  0  0  0  0
   -0.7367    2.3295    0.7583 H   0  0  0  0  0  0  0  0  0  0  0  0
   -0.5975    3.3368   -1.1147 C   0  0  0  0  0  0  0  0  0  0  0  0
   -1.3807    3.2277   -1.8690 H   0  0  0  0  0  0  0  0  0  0  0  0
   -0.7728    4.2507   -0.5451 H   0  0  0  0  0  0  0  0  0  0  0  0
    0.3649    3.4068   -1.6246 H   0  0  0  0  0  0  0  0  0  0  0  0
  5  6  2  0  0  0  0
  5  7  1  0  0  0  0
  2  3  1  0  0  0  0
  2  4  1  0  0  0  0
  2  5  1  0  0  0  0
  1  2  1  0  0  0  0
 22 23  2  0  0  0  0
 22 24  1  0  0  0  0
 19 20  1  0  0  0  0
 19 21  1  0  0  0  0
 17 18  2  0  0  0  0
 17 19  1  0  0  0  0
 14 15  1  0  0  0  0
 14 16  1  0  0  0  0
 14 17  1  0  0  0  0
 11 12  1  0  0  0  0
 11 13  1  0  0  0  0
 11 14  1  0  0  0  0
  9 10  1  0  0  0  0
  9 11  1  0  0  0  0
  9 22  1  0  0  0  0
  7  8  1  0  0  0  0
  7  9  1  0  0  0  0
 26 27  1  0  0  0  0
 26 28  1  0  0  0  0
 26 29  1  0  0  0  0
 24 25  1  0  0  0  0
 24 26  1  0  0  0  0
M  END
$$$$
default_name
  -OEChem-01062215323D

 29 28  0     1  0  0  0  0  0999 V2000
   -3.3998   -3.6239    1.3678 H   0  0  0  0  0  0  0  0  0  0  0  0
   -3.3608   -2.6749    0.8348 C   0  0  0  0  0  0  0  0  0  0  0  0
   -4.0988   -1.9909    1.2498 H   0  0  0  0  0  0  0  0  0  0  0  0
   -3.5618   -2.8419   -0.2222 H   0  0  0  0  0  0  0  0  0  0  0  0
   -1.9818   -2.0809    0.9918 C   0  0  0  0  0  0  0  0  0  0  0  0
   -1.1288   -2.6669    1.6468 O   0  0  0  0  0  0  0  0  0  0  0  0
   -1.7648   -0.9089    0.3998 N   0  0  0  0  0  0  0  0  0  0  0  0
   -2.5238   -0.4719   -0.1032 H   0  0  0  0  0  0  0  0  0  0  0  0
   -0.4848   -0.1959    0.4138 C   0  0  1  0  0  0  0  0  0  0  0  0
   -0.3581    0.2736    1.3907 H   0  0  0  0  0  0  0  0  0  0  0  0
    0.6538   -1.2159    0.2175 C   0  0  0  0  0  0  0  0  0  0  0  0
    0.4457   -1.7932   -0.6858 H   0  0  0  0  0  0  0  0  0  0  0  0
    1.5921   -0.6788    0.0704 H   0  0  0  0  0  0  0  0  0  0  0  0
    0.8207   -2.1961    1.3917 C   0  0  0  0  0  0  0  0  0  0  0  0
    1.0463   -1.6424    2.3029 H   0  0  0  0  0  0  0  0  0  0  0  0
   -0.1141   -2.7378    1.5359 H   0  0  0  0  0  0  0  0  0  0  0  0
    1.9379   -3.2155    1.1700 C   0  0  0  0  0  0  0  0  0  0  0  0
    2.5781   -3.2929    0.1381 O   0  0  0  0  0  0  0  0  0  0  0  0
    2.2288   -4.0476    2.1463 N   0  0  0  0  0  0  0  0  0  0  0  0
    2.9713   -4.6952    1.9468 H   0  0  0  0  0  0  0  0  0  0  0  0
    1.7357   -4.0254    3.0159 H   0  0  0  0  0  0  0  0  0  0  0  0
   -0.4719    0.9105   -0.6523 C   0  0  0  0  0  0  0  0  0  0  0  0
   -0.6124    0.6271   -1.8406 O   0  0  0  0  0  0  0  0  0  0  0  0
   -0.2927    2.1686   -0.2300 N   0  0  0  0  0  0  0  0  0  0  0  0
   -0.2099    2.3267    0.7616 H   0  0  0  0  0  0  0  0  0  0  0  0
   -0.2431    3.3284   -1.1192 C   0  0  0  0  0  0  0  0  0  0  0  0
   -1.1596    3.3760   -1.7124 H   0  0  0  0  0  0  0  0  0  0  0  0
   -0.1421    4.2478   -0.5405 H   0  0  0  0  0  0  0  0  0  0  0  0
    0.6041    3.2344   -1.8007 H   0  0  0  0  0  0  0  0  0  0  0  0
  5  6  2  0  0  0  0
  5  7  1  0  0  0  0
  2  3  1  0  0  0  0
  2  4  1  0  0  0  0
  2  5  1  0  0  0  0
  1  2  1  0  0  0  0
 22 23  2  0  0  0  0
 22 24  1  0  0  0  0
 19 20  1  0  0  0  0
 19 21  1  0  0  0  0
 17 18  2  0  0  0  0
 17 19  1  0  0  0  0
 14 15  1  0  0  0  0
 14 16  1  0  0  0  0
 14 17  1  0  0  0  0
 11 12  1  0  0  0  0
 11 13  1  0  0  0  0
 11 14  1  0  0  0  0
  9 10  1  0  0  0  0
  9 11  1  0  0  0  0
  9 22  1  0  0  0  0
  7  8  1  0  0  0  0
  7  9  1  0  0  0  0
 26 27  1  0  0  0  0
 26 28  1  0  0  0  0
 26 29  1  0  0  0  0
 24 25  1  0  0  0  0
 24 26  1  0  0  0  0
M  END
$$$$
default_name
  -OEChem-01062215323D

 29 28  0     1  0  0  0  0  0999 V2000
   -3.3998   -3.6239    1.3678 H   0  0  0  0  0  0  0  0  0  0  0  0
   -3.3608   -2.6749    0.8348 C   0  0  0  0  0  0  0  0  0  0  0  0
   -4.0988   -1.9909    1.2498 H   0  0  0  0  0  0  0  0  0  0  0  0
   -3.5618   -2.8419   -0.2222 H   0  0  0  0  0  0  0  0  0  0  0  0
   -1.9818   -2.0809    0.9918 C   0  0  0  0  0  0  0  0  0  0  0  0
   -1.1288   -2.6669    1.6468 O   0  0  0  0  0  0  0  0  0  0  0  0
   -1.7648   -0.9089    0.3998 N   0  0  0  0  0  0  0  0  0  0  0  0
   -2.5238   -0.4719   -0.1032 H   0  0  0  0  0  0  0  0  0  0  0  0
   -0.4848   -0.1959    0.4138 C   0  0  1  0  0  0  0  0  0  0  0  0
   -0.3581    0.2736    1.3907 H   0  0  0  0  0  0  0  0  0  0  0  0
    0.6538   -1.2159    0.2175 C   0  0  0  0  0  0  0  0  0  0  0  0
    0.4457   -1.7932   -0.6858 H   0  0  0  0  0  0  0  0  0  0  0  0
    1.5921   -0.6788    0.0704 H   0  0  0  0  0  0  0  0  0  0  0  0
    0.8207   -2.1961    1.3917 C   0  0  0  0  0  0  0  0  0  0  0  0
    1.0463   -1.6424    2.3029 H   0  0  0  0  0  0  0  0  0  0  0  0
   -0.1141   -2.7378    1.5359 H   0  0  0  0  0  0  0  0  0  0  0  0
    1.9379   -3.2155    1.1700 C   0  0  0  0  0  0  0  0  0  0  0  0
    2.5781   -3.2929    0.1381 O   0  0  0  0  0  0  0  0  0  0  0  0
    2.2288   -4.0476    2.1463 N   0  0  0  0  0  0  0  0  0  0  0  0
    2.9713   -4.6952    1.9468 H   0  0  0  0  0  0  0  0  0  0  0  0
    1.7357   -4.0254    3.0159 H   0  0  0  0  0  0  0  0  0  0  0  0
   -0.4719    0.9105   -0.6523 C   0  0  0  0  0  0  0  0  0  0  0  0
   -0.8798    0.6797   -1.7892 O   0  0  0  0  0  0  0  0  0  0  0  0
    0.0060    2.1078   -0.2895 N   0  0  0  0  0  0  0  0  0  0  0  0
    0.2990    2.2293    0.6667 H   0  0  0  0  0  0  0  0  0  0  0  0
    0.0969    3.2567   -1.1896 C   0  0  0  0  0  0  0  0  0  0  0  0
   -0.8903    3.4793   -1.6020 H   0  0  0  0  0  0  0  0  0  0  0  0
    0.4675    4.1318   -0.6536 H   0  0  0  0  0  0  0  0  0  0  0  0
    0.7715    3.0253   -2.0157 H   0  0  0  0  0  0  0  0  0  0  0  0
  5  6  2  0  0  0  0
  5  7  1  0  0  0  0
  2  3  1  0  0  0  0
  2  4  1  0  0  0  0
  2  5  1  0  0  0  0
  1  2  1  0  0  0  0
 22 23  2  0  0  0  0
 22 24  1  0  0  0  0
 19 20  1  0  0  0  0
 19 21  1  0  0  0  0
 17 18  2  0  0  0  0
 17 19  1  0  0  0  0
 14 15  1  0  0  0  0
 14 16  1  0  0  0  0
 14 17  1  0  0  0  0
 11 12  1  0  0  0  0
 11 13  1  0  0  0  0
 11 14  1  0  0  0  0
  9 10  1  0  0  0  0
  9 11  1  0  0  0  0
  9 22  1  0  0  0  0
  7  8  1  0  0  0  0
  7  9  1  0  0  0  0
 26 27  1  0  0  0  0
 26 28  1  0  0  0  0
 26 29  1  0  0  0  0
 24 25  1  0  0  0  0
 24 26  1  0  0  0  0
M  END
$$$$
default_name
  -OEChem-01062215323D

 29 28  0     1  0  0  0  0  0999 V2000
   -3.3998   -3.6239    1.3678 H   0  0  0  0  0  0  0  0  0  0  0  0
   -3.3608   -2.6749    0.8348 C   0  0  0  0  0  0  0  0  0  0  0  0
   -4.0988   -1.9909    1.2498 H   0  0  0  0  0  0  0  0  0  0  0  0
   -3.5618   -2.8419   -0.2222 H   0  0  0  0  0  0  0  0  0  0  0  0
   -1.9818   -2.0809    0.9918 C   0  0  0  0  0  0  0  0  0  0  0  0
   -1.1288   -2.6669    1.6468 O   0  0  0  0  0  0  0  0  0  0  0  0
   -1.7648   -0.9089    0.3998 N   0  0  0  0  0  0  0  0  0  0  0  0
   -2.5238   -0.4719   -0.1032 H   0  0  0  0  0  0  0  0  0  0  0  0
   -0.4848   -0.1959    0.4138 C   0  0  1  0  0  0  0  0  0  0  0  0
   -0.3581    0.2736    1.3907 H   0  0  0  0  0  0  0  0  0  0  0  0
    0.6538   -1.2159    0.2175 C   0  0  0  0  0  0  0  0  0  0  0  0
    0.4457   -1.7932   -0.6858 H   0  0  0  0  0  0  0  0  0  0  0  0
    1.5921   -0.6788    0.0704 H   0  0  0  0  0  0  0  0  0  0  0  0
    0.8207   -2.1961    1.3917 C   0  0  0  0  0  0  0  0  0  0  0  0
    1.0463   -1.6424    2.3029 H   0  0  0  0  0  0  0  0  0  0  0  0
   -0.1141   -2.7378    1.5359 H   0  0  0  0  0  0  0  0  0  0  0  0
    1.9379   -3.2155    1.1700 C   0  0  0  0  0  0  0  0  0  0  0  0
    2.5781   -3.2929    0.1381 O   0  0  0  0  0  0  0  0  0  0  0  0
    2.2288   -4.0476    2.1463 N   0  0  0  0  0  0  0  0  0  0  0  0
    2.9713   -4.6952    1.9468 H   0  0  0  0  0  0  0  0  0  0  0  0
    1.7357   -4.0254    3.0159 H   0  0  0  0  0  0  0  0  0  0  0  0
   -0.4719    0.9105   -0.6523 C   0  0  0  0  0  0  0  0  0  0  0  0
   -1.1190    0.7785   -1.6896 O   0  0  0  0  0  0  0  0  0  0  0  0
    0.2725    1.9954   -0.4029 N   0  0  0  0  0  0  0  0  0  0  0  0
    0.7554    2.0441    0.4800 H   0  0  0  0  0  0  0  0  0  0  0  0
    0.3993    3.1265   -1.3211 C   0  0  0  0  0  0  0  0  0  0  0  0
   -0.5910    3.5304   -1.5453 H   0  0  0  0  0  0  0  0  0  0  0  0
    1.0144    3.9104   -0.8767 H   0  0  0  0  0  0  0  0  0  0  0  0
    0.8555    2.7937   -2.2550 H   0  0  0  0  0  0  0  0  0  0  0  0
  5  6  2  0  0  0  0
  5  7  1  0  0  0  0
  2  3  1  0  0  0  0
  2  4  1  0  0  0  0
  2  5  1  0  0  0  0
  1  2  1  0  0  0  0
 22 23  2  0  0  0  0
 22 24  1  0  0  0  0
 19 20  1  0  0  0  0
 19 21  1  0  0  0  0
 17 18  2  0  0  0  0
 17 19  1  0  0  0  0
 14 15  1  0  0  0  0
 14 16  1  0  0  0  0
 14 17  1  0  0  0  0
 11 12  1  0  0  0  0
 11 13  1  0  0  0  0
 11 14  1  0  0  0  0
  9 10  1  0  0  0  0
  9 11  1  0  0  0  0
  9 22  1  0  0  0  0
  7  8  1  0  0  0  0
  7  9  1  0  0  0  0
 26 27  1  0  0  0  0
 26 28  1  0  0  0  0
 26 29  1  0  0  0  0
 24 25  1  0  0  0  0
 24 26  1  0  0  0  0
M  END
$$$$
default_name
  -OEChem-01062215323D

 29 28  0     1  0  0  0  0  0999 V2000
   -3.3998   -3.6239    1.3678 H   0  0  0  0  0  0  0  0  0  0  0  0
   -3.3608   -2.6749    0.8348 C   0  0  0  0  0  0  0  0  0  0  0  0
   -4.0988   -1.9909    1.2498 H   0  0  0  0  0  0  0  0  0  0  0  0
   -3.5618   -2.8419   -0.2222 H   0  0  0  0  0  0  0  0  0  0  0  0
   -1.9818   -2.0809    0.9918 C   0  0  0  0  0  0  0  0  0  0  0  0
   -1.1288   -2.6669    1.6468 O   0  0  0  0  0  0  0  0  0  0  0  0
   -1.7648   -0.9089    0.3998 N   0  0  0  0  0  0  0  0  0  0  0  0
   -2.5238   -0.4719   -0.1032 H   0  0  0  0  0  0  0  0  0  0  0  0
   -0.4848   -0.1959    0.4138 C   0  0  1  0  0  0  0  0  0  0  0  0
   -0.3581    0.2736    1.3907 H   0  0  0  0  0  0  0  0  0  0  0  0
    0.6538   -1.2159    0.2175 C   0  0  0  0  0  0  0  0  0  0  0  0
    0.4457   -1.7932   -0.6858 H   0  0  0  0  0  0  0  0  0  0  0  0
    1.5921   -0.6788    0.0704 H   0  0  0  0  0  0  0  0  0  0  0  0
    0.8207   -2.1961    1.3917 C   0  0  0  0  0  0  0  0  0  0  0  0
    1.0463   -1.6424    2.3029 H   0  0  0  0  0  0  0  0  0  0  0  0
   -0.1141   -2.7378    1.5359 H   0  0  0  0  0  0  0  0  0  0  0  0
    1.9379   -3.2155    1.1700 C   0  0  0  0  0  0  0  0  0  0  0  0
    2.5781   -3.2929    0.1381 O   0  0  0  0  0  0  0  0  0  0  0  0
    2.2288   -4.0476    2.1463 N   0  0  0  0  0  0  0  0  0  0  0  0
    2.9713   -4.6952    1.9468 H   0  0  0  0  0  0  0  0  0  0  0  0
    1.7357   -4.0254    3.0159 H   0  0  0  0  0  0  0  0  0  0  0  0
   -0.4719    0.9105   -0.6523 C   0  0  0  0  0  0  0  0  0  0  0  0
   -1.3138    0.9166   -1.5485 O   0  0  0  0  0  0  0  0  0  0  0  0
    0.4886    1.8393   -0.5623 N   0  0  0  0  0  0  0  0  0  0  0  0
    1.1282    1.7836    0.2142 H   0  0  0  0  0  0  0  0  0  0  0  0
    0.6435    2.9467   -1.5047 C   0  0  0  0  0  0  0  0  0  0  0  0
   -0.2822    3.5259   -1.5462 H   0  0  0  0  0  0  0  0  0  0  0  0
    1.4613    3.5989   -1.1946 H   0  0  0  0  0  0  0  0  0  0  0  0
    0.8505    2.5555   -2.5023 H   0  0  0  0  0  0  0  0  0  0  0  0
  5  6  2  0  0  0  0
  5  7  1  0  0  0  0
  2  3  1  0  0  0  0
  2  4  1  0  0  0  0
  2  5  1  0  0  0  0
  1  2  1  0  0  0  0
 22 23  2  0  0  0  0
 22 24  1  0  0  0  0
 19 20  1  0  0  0  0
 19 21  1  0  0  0  0
 17 18  2  0  0  0  0
 17 19  1  0  0  0  0
 14 15  1  0  0  0  0
 14 16  1  0  0  0  0
 14 17  1  0  0  0  0
 11 12  1  0  0  0  0
 11 13  1  0  0  0  0
 11 14  1  0  0  0  0
  9 10  1  0  0  0  0
  9 11  1  0  0  0  0
  9 22  1  0  0  0  0
  7  8  1  0  0  0  0
  7  9  1  0  0  0  0
 26 27  1  0  0  0  0
 26 28  1  0  0  0  0
 26 29  1  0  0  0  0
 24 25  1  0  0  0  0
 24 26  1  0  0  0  0
M  END
$$$$
