
  -OEChem-02102214113D

 25 24  0     1  0  0  0  0  0999 V2000
   -2.7155   -3.9531    0.3956 H   0  0  0  0  0  0  0  0  0  0  0  0
   -2.7454   -2.9022    0.0946 C   0  0  0  0  0  0  0  0  0  0  0  0
   -3.3595   -2.3484    0.8089 H   0  0  0  0  0  0  0  0  0  0  0  0
   -3.1991   -2.8326   -0.8970 H   0  0  0  0  0  0  0  0  0  0  0  0
   -1.3419   -2.3272    0.0623 C   0  0  0  0  0  0  0  0  0  0  0  0
   -0.3840   -3.0357    0.3295 O   0  0  0  0  0  0  0  0  0  0  0  0
   -1.1508   -1.0032   -0.2735 N   0  0  0  0  0  0  0  0  0  0  0  0
   -1.9809   -0.4214   -0.3829 H   0  0  0  0  0  0  0  0  0  0  0  0
    0.1417   -0.3075   -0.2154 C   0  0  1  0  0  0  0  0  0  0  0  0
    0.8633   -0.8678    0.3895 H   0  0  0  0  0  0  0  0  0  0  0  0
    0.6552   -0.1933   -1.6631 C   0  0  0  0  0  0  0  0  0  0  0  0
    0.7469   -1.1993   -2.0823 H   0  0  0  0  0  0  0  0  0  0  0  0
   -0.0793    0.3560   -2.2594 H   0  0  0  0  0  0  0  0  0  0  0  0
    2.0048    0.5048   -1.8150 C   0  0  0  0  0  0  0  0  0  0  0  0
    2.4397    0.6140   -2.9474 O   0  0  0  0  0  0  0  0  0  0  0  0
    2.7063    0.8713   -0.7140 O   0  0  0  0  0  0  0  0  0  0  0  0
    3.5377    1.2409   -1.0529 H   0  0  0  0  0  0  0  0  0  0  0  0
   -0.0720    1.0722    0.4501 C   0  0  0  0  0  0  0  0  0  0  0  0
   -1.0676    1.7301    0.1675 O   0  0  0  0  0  0  0  0  0  0  0  0
    0.7941    1.5378    1.4209 N   0  0  0  0  0  0  0  0  0  0  0  0
    1.6810    1.0471    1.5069 H   0  0  0  0  0  0  0  0  0  0  0  0
    0.6572    2.8479    2.0451 C   0  0  0  0  0  0  0  0  0  0  0  0
   -0.3293    2.9512    2.5096 H   0  0  0  0  0  0  0  0  0  0  0  0
    1.4168    2.9776    2.8219 H   0  0  0  0  0  0  0  0  0  0  0  0
    0.7806    3.6409    1.3003 H   0  0  0  0  0  0  0  0  0  0  0  0
  1  2  1  0  0  0  0
  2  3  1  0  0  0  0
  2  4  1  0  0  0  0
  2  5  1  0  0  0  0
  5  6  2  0  0  0  0
  5  7  1  0  0  0  0
  7  8  1  0  0  0  0
  7  9  1  0  0  0  0
  9 10  1  0  0  0  0
  9 11  1  0  0  0  0
  9 18  1  0  0  0  0
 11 12  1  0  0  0  0
 11 13  1  0  0  0  0
 11 14  1  0  0  0  0
 14 15  2  0  0  0  0
 14 16  1  0  0  0  0
 16 17  1  0  0  0  0
 18 19  2  0  0  0  0
 18 20  1  0  0  0  0
 20 21  1  0  0  0  0
 20 22  1  0  0  0  0
 22 23  1  0  0  0  0
 22 24  1  0  0  0  0
 22 25  1  0  0  0  0
M  END
$$$$

  -OEChem-02102214113D

 25 24  0     1  0  0  0  0  0999 V2000
   -2.7203   -3.9616    0.4017 H   0  0  0  0  0  0  0  0  0  0  0  0
   -2.7532   -2.9111    0.0998 C   0  0  0  0  0  0  0  0  0  0  0  0
   -3.3650   -2.3574    0.8160 H   0  0  0  0  0  0  0  0  0  0  0  0
   -3.2112   -2.8429   -0.8898 H   0  0  0  0  0  0  0  0  0  0  0  0
   -1.3508   -2.3339    0.0611 C   0  0  0  0  0  0  0  0  0  0  0  0
   -0.3915   -3.0389    0.3324 O   0  0  0  0  0  0  0  0  0  0  0  0
   -1.1636   -1.0106   -0.2801 N   0  0  0  0  0  0  0  0  0  0  0  0
   -1.9960   -0.4338   -0.3976 H   0  0  0  0  0  0  0  0  0  0  0  0
    0.1257   -0.3090   -0.2258 C   0  0  1  0  0  0  0  0  0  0  0  0
    0.8422   -0.8696    0.3854 H   0  0  0  0  0  0  0  0  0  0  0  0
    0.6558   -0.2008   -1.6663 C   0  0  0  0  0  0  0  0  0  0  0  0
    0.7660   -1.2067   -2.0801 H   0  0  0  0  0  0  0  0  0  0  0  0
   -0.0727    0.3400   -2.2780 H   0  0  0  0  0  0  0  0  0  0  0  0
    2.0027    0.5086   -1.7782 C   0  0  0  0  0  0  0  0  0  0  0  0
    2.3468    0.8788   -2.8862 O   0  0  0  0  0  0  0  0  0  0  0  0
    2.7869    0.6282   -0.6775 O   0  0  0  0  0  0  0  0  0  0  0  0
    3.6017    1.0546   -0.9890 H   0  0  0  0  0  0  0  0  0  0  0  0
   -0.0682    1.0762    0.4302 C   0  0  0  0  0  0  0  0  0  0  0  0
   -1.0563    1.7451    0.1495 O   0  0  0  0  0  0  0  0  0  0  0  0
    0.8134    1.5348    1.3902 N   0  0  0  0  0  0  0  0  0  0  0  0
    1.6805    1.0136    1.4995 H   0  0  0  0  0  0  0  0  0  0  0  0
    0.6956    2.8439    2.0202 C   0  0  0  0  0  0  0  0  0  0  0  0
   -0.2815    2.9506    2.5034 H   0  0  0  0  0  0  0  0  0  0  0  0
    1.4704    2.9675    2.7829 H   0  0  0  0  0  0  0  0  0  0  0  0
    0.8092    3.6386    1.2757 H   0  0  0  0  0  0  0  0  0  0  0  0
  1  2  1  0  0  0  0
  2  3  1  0  0  0  0
  2  4  1  0  0  0  0
  2  5  1  0  0  0  0
  5  6  2  0  0  0  0
  5  7  1  0  0  0  0
  7  8  1  0  0  0  0
  7  9  1  0  0  0  0
  9 10  1  0  0  0  0
  9 11  1  0  0  0  0
  9 18  1  0  0  0  0
 11 12  1  0  0  0  0
 11 13  1  0  0  0  0
 11 14  1  0  0  0  0
 14 15  2  0  0  0  0
 14 16  1  0  0  0  0
 16 17  1  0  0  0  0
 18 19  2  0  0  0  0
 18 20  1  0  0  0  0
 20 21  1  0  0  0  0
 20 22  1  0  0  0  0
 22 23  1  0  0  0  0
 22 24  1  0  0  0  0
 22 25  1  0  0  0  0
M  END
$$$$

  -OEChem-02102214113D

 25 24  0     1  0  0  0  0  0999 V2000
   -2.7203   -3.9718    0.4160 H   0  0  0  0  0  0  0  0  0  0  0  0
   -2.7578   -2.9254    0.1003 C   0  0  0  0  0  0  0  0  0  0  0  0
   -3.3763   -2.3662    0.8064 H   0  0  0  0  0  0  0  0  0  0  0  0
   -3.2116   -2.8726   -0.8922 H   0  0  0  0  0  0  0  0  0  0  0  0
   -1.3583   -2.3412    0.0605 C   0  0  0  0  0  0  0  0  0  0  0  0
   -0.3959   -3.0425    0.3303 O   0  0  0  0  0  0  0  0  0  0  0  0
   -1.1771   -1.0175   -0.2832 N   0  0  0  0  0  0  0  0  0  0  0  0
   -2.0122   -0.4452   -0.4027 H   0  0  0  0  0  0  0  0  0  0  0  0
    0.1091   -0.3100   -0.2360 C   0  0  1  0  0  0  0  0  0  0  0  0
    0.8227   -0.8709    0.3785 H   0  0  0  0  0  0  0  0  0  0  0  0
    0.6497   -0.2076   -1.6716 C   0  0  0  0  0  0  0  0  0  0  0  0
    0.7755   -1.2135   -2.0807 H   0  0  0  0  0  0  0  0  0  0  0  0
   -0.0754    0.3250   -2.2949 H   0  0  0  0  0  0  0  0  0  0  0  0
    1.9922    0.5132   -1.7496 C   0  0  0  0  0  0  0  0  0  0  0  0
    2.2452    1.1326   -2.7671 O   0  0  0  0  0  0  0  0  0  0  0  0
    2.8528    0.4102   -0.7061 O   0  0  0  0  0  0  0  0  0  0  0  0
    3.6481    0.8956   -0.9789 H   0  0  0  0  0  0  0  0  0  0  0  0
   -0.0643    1.0782    0.4152 C   0  0  0  0  0  0  0  0  0  0  0  0
   -1.0465    1.7578    0.1412 O   0  0  0  0  0  0  0  0  0  0  0  0
    0.8353    1.5276    1.3628 N   0  0  0  0  0  0  0  0  0  0  0  0
    1.6790    0.9748    1.4964 H   0  0  0  0  0  0  0  0  0  0  0  0
    0.7439    2.8393    1.9917 C   0  0  0  0  0  0  0  0  0  0  0  0
   -0.2316    2.9674    2.4728 H   0  0  0  0  0  0  0  0  0  0  0  0
    1.5200    2.9470    2.7554 H   0  0  0  0  0  0  0  0  0  0  0  0
    0.8760    3.6309    1.2467 H   0  0  0  0  0  0  0  0  0  0  0  0
  1  2  1  0  0  0  0
  2  3  1  0  0  0  0
  2  4  1  0  0  0  0
  2  5  1  0  0  0  0
  5  6  2  0  0  0  0
  5  7  1  0  0  0  0
  7  8  1  0  0  0  0
  7  9  1  0  0  0  0
  9 10  1  0  0  0  0
  9 11  1  0  0  0  0
  9 18  1  0  0  0  0
 11 12  1  0  0  0  0
 11 13  1  0  0  0  0
 11 14  1  0  0  0  0
 14 15  2  0  0  0  0
 14 16  1  0  0  0  0
 16 17  1  0  0  0  0
 18 19  2  0  0  0  0
 18 20  1  0  0  0  0
 20 21  1  0  0  0  0
 20 22  1  0  0  0  0
 22 23  1  0  0  0  0
 22 24  1  0  0  0  0
 22 25  1  0  0  0  0
M  END
$$$$

  -OEChem-02102214113D

 25 24  0     1  0  0  0  0  0999 V2000
   -2.7229   -3.9721    0.4206 H   0  0  0  0  0  0  0  0  0  0  0  0
   -2.7606   -2.9248    0.1080 C   0  0  0  0  0  0  0  0  0  0  0  0
   -3.3713   -2.3660    0.8213 H   0  0  0  0  0  0  0  0  0  0  0  0
   -3.2229   -2.8681   -0.8804 H   0  0  0  0  0  0  0  0  0  0  0  0
   -1.3603   -2.3434    0.0577 C   0  0  0  0  0  0  0  0  0  0  0  0
   -0.3979   -3.0438    0.3292 O   0  0  0  0  0  0  0  0  0  0  0  0
   -1.1799   -1.0209   -0.2903 N   0  0  0  0  0  0  0  0  0  0  0  0
   -2.0154   -0.4510   -0.4170 H   0  0  0  0  0  0  0  0  0  0  0  0
    0.1056   -0.3118   -0.2509 C   0  0  1  0  0  0  0  0  0  0  0  0
    0.8198   -0.8723    0.3634 H   0  0  0  0  0  0  0  0  0  0  0  0
    0.6475   -0.2165   -1.6854 C   0  0  0  0  0  0  0  0  0  0  0  0
    0.7805   -1.2227   -2.0912 H   0  0  0  0  0  0  0  0  0  0  0  0
   -0.0755    0.3113   -2.3153 H   0  0  0  0  0  0  0  0  0  0  0  0
    1.9873    0.5095   -1.7407 C   0  0  0  0  0  0  0  0  0  0  0  0
    2.1533    1.3491   -2.6070 O   0  0  0  0  0  0  0  0  0  0  0  0
    2.9257    0.1978   -0.8137 O   0  0  0  0  0  0  0  0  0  0  0  0
    3.7025    0.7339   -1.0394 H   0  0  0  0  0  0  0  0  0  0  0  0
   -0.0557    1.0793    0.3953 C   0  0  0  0  0  0  0  0  0  0  0  0
   -1.0352    1.7639    0.1258 O   0  0  0  0  0  0  0  0  0  0  0  0
    0.8547    1.5257    1.3343 N   0  0  0  0  0  0  0  0  0  0  0  0
    1.6732    0.9461    1.5039 H   0  0  0  0  0  0  0  0  0  0  0  0
    0.7668    2.8317    1.9760 C   0  0  0  0  0  0  0  0  0  0  0  0
   -0.1932    2.9427    2.4915 H   0  0  0  0  0  0  0  0  0  0  0  0
    1.5678    2.9455    2.7127 H   0  0  0  0  0  0  0  0  0  0  0  0
    0.8620    3.6304    1.2328 H   0  0  0  0  0  0  0  0  0  0  0  0
  1  2  1  0  0  0  0
  2  3  1  0  0  0  0
  2  4  1  0  0  0  0
  2  5  1  0  0  0  0
  5  6  2  0  0  0  0
  5  7  1  0  0  0  0
  7  8  1  0  0  0  0
  7  9  1  0  0  0  0
  9 10  1  0  0  0  0
  9 11  1  0  0  0  0
  9 18  1  0  0  0  0
 11 12  1  0  0  0  0
 11 13  1  0  0  0  0
 11 14  1  0  0  0  0
 14 15  2  0  0  0  0
 14 16  1  0  0  0  0
 16 17  1  0  0  0  0
 18 19  2  0  0  0  0
 18 20  1  0  0  0  0
 20 21  1  0  0  0  0
 20 22  1  0  0  0  0
 22 23  1  0  0  0  0
 22 24  1  0  0  0  0
 22 25  1  0  0  0  0
M  END
$$$$

  -OEChem-02102214113D

 25 24  0     1  0  0  0  0  0999 V2000
   -2.7217   -3.9693    0.4268 H   0  0  0  0  0  0  0  0  0  0  0  0
   -2.7600   -2.9225    0.1124 C   0  0  0  0  0  0  0  0  0  0  0  0
   -3.3673   -2.3618    0.8272 H   0  0  0  0  0  0  0  0  0  0  0  0
   -3.2269   -2.8675   -0.8739 H   0  0  0  0  0  0  0  0  0  0  0  0
   -1.3593   -2.3424    0.0554 C   0  0  0  0  0  0  0  0  0  0  0  0
   -0.3962   -3.0436    0.3228 O   0  0  0  0  0  0  0  0  0  0  0  0
   -1.1789   -1.0203   -0.2941 N   0  0  0  0  0  0  0  0  0  0  0  0
   -2.0143   -0.4490   -0.4155 H   0  0  0  0  0  0  0  0  0  0  0  0
    0.1075   -0.3127   -0.2610 C   0  0  1  0  0  0  0  0  0  0  0  0
    0.8250   -0.8731    0.3493 H   0  0  0  0  0  0  0  0  0  0  0  0
    0.6432   -0.2204   -1.6970 C   0  0  0  0  0  0  0  0  0  0  0  0
    0.7751   -1.2262   -2.1045 H   0  0  0  0  0  0  0  0  0  0  0  0
   -0.0791    0.3085   -2.3268 H   0  0  0  0  0  0  0  0  0  0  0  0
    1.9822    0.5049   -1.7445 C   0  0  0  0  0  0  0  0  0  0  0  0
    2.0709    1.5232   -2.4066 O   0  0  0  0  0  0  0  0  0  0  0  0
    3.0007    0.0019   -1.0075 O   0  0  0  0  0  0  0  0  0  0  0  0
    3.7624    0.5763   -1.1844 H   0  0  0  0  0  0  0  0  0  0  0  0
   -0.0489    1.0789    0.3851 C   0  0  0  0  0  0  0  0  0  0  0  0
   -1.0324    1.7616    0.1253 O   0  0  0  0  0  0  0  0  0  0  0  0
    0.8666    1.5248    1.3197 N   0  0  0  0  0  0  0  0  0  0  0  0
    1.6701    0.9325    1.5126 H   0  0  0  0  0  0  0  0  0  0  0  0
    0.7765    2.8278    1.9670 C   0  0  0  0  0  0  0  0  0  0  0  0
   -0.1766    2.9282    2.4971 H   0  0  0  0  0  0  0  0  0  0  0  0
    1.5876    2.9476    2.6916 H   0  0  0  0  0  0  0  0  0  0  0  0
    0.8532    3.6294    1.2247 H   0  0  0  0  0  0  0  0  0  0  0  0
  1  2  1  0  0  0  0
  2  3  1  0  0  0  0
  2  4  1  0  0  0  0
  2  5  1  0  0  0  0
  5  6  2  0  0  0  0
  5  7  1  0  0  0  0
  7  8  1  0  0  0  0
  7  9  1  0  0  0  0
  9 10  1  0  0  0  0
  9 11  1  0  0  0  0
  9 18  1  0  0  0  0
 11 12  1  0  0  0  0
 11 13  1  0  0  0  0
 11 14  1  0  0  0  0
 14 15  2  0  0  0  0
 14 16  1  0  0  0  0
 16 17  1  0  0  0  0
 18 19  2  0  0  0  0
 18 20  1  0  0  0  0
 20 21  1  0  0  0  0
 20 22  1  0  0  0  0
 22 23  1  0  0  0  0
 22 24  1  0  0  0  0
 22 25  1  0  0  0  0
M  END
$$$$

  -OEChem-02102214113D

 25 24  0     1  0  0  0  0  0999 V2000
   -2.7230   -3.9636    0.4316 H   0  0  0  0  0  0  0  0  0  0  0  0
   -2.7591   -2.9174    0.1153 C   0  0  0  0  0  0  0  0  0  0  0  0
   -3.3620   -2.3537    0.8314 H   0  0  0  0  0  0  0  0  0  0  0  0
   -3.2289   -2.8628   -0.8697 H   0  0  0  0  0  0  0  0  0  0  0  0
   -1.3570   -2.3416    0.0528 C   0  0  0  0  0  0  0  0  0  0  0  0
   -0.3948   -3.0451    0.3172 O   0  0  0  0  0  0  0  0  0  0  0  0
   -1.1742   -1.0194   -0.2948 N   0  0  0  0  0  0  0  0  0  0  0  0
   -2.0083   -0.4447   -0.4087 H   0  0  0  0  0  0  0  0  0  0  0  0
    0.1142   -0.3154   -0.2648 C   0  0  1  0  0  0  0  0  0  0  0  0
    0.8354   -0.8773    0.3397 H   0  0  0  0  0  0  0  0  0  0  0  0
    0.6408   -0.2196   -1.7041 C   0  0  0  0  0  0  0  0  0  0  0  0
    0.7656   -1.2240   -2.1179 H   0  0  0  0  0  0  0  0  0  0  0  0
   -0.0819    0.3148   -2.3285 H   0  0  0  0  0  0  0  0  0  0  0  0
    1.9812    0.5013   -1.7554 C   0  0  0  0  0  0  0  0  0  0  0  0
    2.0169    1.6462   -2.1691 O   0  0  0  0  0  0  0  0  0  0  0  0
    3.0650   -0.1562   -1.2828 O   0  0  0  0  0  0  0  0  0  0  0  0
    3.8175    0.4414   -1.4139 H   0  0  0  0  0  0  0  0  0  0  0  0
   -0.0467    1.0743    0.3863 C   0  0  0  0  0  0  0  0  0  0  0  0
   -1.0383    1.7490    0.1356 O   0  0  0  0  0  0  0  0  0  0  0  0
    0.8667    1.5229    1.3223 N   0  0  0  0  0  0  0  0  0  0  0  0
    1.6734    0.9359    1.5156 H   0  0  0  0  0  0  0  0  0  0  0  0
    0.7725    2.8277    1.9652 C   0  0  0  0  0  0  0  0  0  0  0  0
   -0.1809    2.9275    2.4948 H   0  0  0  0  0  0  0  0  0  0  0  0
    1.5831    2.9521    2.6895 H   0  0  0  0  0  0  0  0  0  0  0  0
    0.8474    3.6269    1.2201 H   0  0  0  0  0  0  0  0  0  0  0  0
  1  2  1  0  0  0  0
  2  3  1  0  0  0  0
  2  4  1  0  0  0  0
  2  5  1  0  0  0  0
  5  6  2  0  0  0  0
  5  7  1  0  0  0  0
  7  8  1  0  0  0  0
  7  9  1  0  0  0  0
  9 10  1  0  0  0  0
  9 11  1  0  0  0  0
  9 18  1  0  0  0  0
 11 12  1  0  0  0  0
 11 13  1  0  0  0  0
 11 14  1  0  0  0  0
 14 15  2  0  0  0  0
 14 16  1  0  0  0  0
 16 17  1  0  0  0  0
 18 19  2  0  0  0  0
 18 20  1  0  0  0  0
 20 21  1  0  0  0  0
 20 22  1  0  0  0  0
 22 23  1  0  0  0  0
 22 24  1  0  0  0  0
 22 25  1  0  0  0  0
M  END
$$$$

  -OEChem-02102214113D

 25 24  0     1  0  0  0  0  0999 V2000
   -2.7245   -3.9577    0.4299 H   0  0  0  0  0  0  0  0  0  0  0  0
   -2.7581   -2.9103    0.1170 C   0  0  0  0  0  0  0  0  0  0  0  0
   -3.3563   -2.3465    0.8370 H   0  0  0  0  0  0  0  0  0  0  0  0
   -3.2316   -2.8508   -0.8660 H   0  0  0  0  0  0  0  0  0  0  0  0
   -1.3542   -2.3390    0.0498 C   0  0  0  0  0  0  0  0  0  0  0  0
   -0.3929   -3.0463    0.3072 O   0  0  0  0  0  0  0  0  0  0  0  0
   -1.1685   -1.0163   -0.2941 N   0  0  0  0  0  0  0  0  0  0  0  0
   -2.0011   -0.4371   -0.3985 H   0  0  0  0  0  0  0  0  0  0  0  0
    0.1223   -0.3168   -0.2624 C   0  0  1  0  0  0  0  0  0  0  0  0
    0.8442   -0.8800    0.3399 H   0  0  0  0  0  0  0  0  0  0  0  0
    0.6434   -0.2193   -1.7045 C   0  0  0  0  0  0  0  0  0  0  0  0
    0.7555   -1.2237   -2.1222 H   0  0  0  0  0  0  0  0  0  0  0  0
   -0.0783    0.3227   -2.3230 H   0  0  0  0  0  0  0  0  0  0  0  0
    1.9871    0.4942   -1.7733 C   0  0  0  0  0  0  0  0  0  0  0  0
    2.0059    1.7034   -1.9188 O   0  0  0  0  0  0  0  0  0  0  0  0
    3.1013   -0.2564   -1.6173 O   0  0  0  0  0  0  0  0  0  0  0  0
    3.8505    0.3530   -1.7038 H   0  0  0  0  0  0  0  0  0  0  0  0
   -0.0487    1.0694    0.3955 C   0  0  0  0  0  0  0  0  0  0  0  0
   -1.0502    1.7334    0.1534 O   0  0  0  0  0  0  0  0  0  0  0  0
    0.8576    1.5204    1.3373 N   0  0  0  0  0  0  0  0  0  0  0  0
    1.6799    0.9507    1.5135 H   0  0  0  0  0  0  0  0  0  0  0  0
    0.7591    2.8296    1.9707 C   0  0  0  0  0  0  0  0  0  0  0  0
   -0.1965    2.9313    2.4958 H   0  0  0  0  0  0  0  0  0  0  0  0
    1.5669    2.9608    2.6970 H   0  0  0  0  0  0  0  0  0  0  0  0
    0.8352    3.6233    1.2199 H   0  0  0  0  0  0  0  0  0  0  0  0
  1  2  1  0  0  0  0
  2  3  1  0  0  0  0
  2  4  1  0  0  0  0
  2  5  1  0  0  0  0
  5  6  2  0  0  0  0
  5  7  1  0  0  0  0
  7  8  1  0  0  0  0
  7  9  1  0  0  0  0
  9 10  1  0  0  0  0
  9 11  1  0  0  0  0
  9 18  1  0  0  0  0
 11 12  1  0  0  0  0
 11 13  1  0  0  0  0
 11 14  1  0  0  0  0
 14 15  2  0  0  0  0
 14 16  1  0  0  0  0
 16 17  1  0  0  0  0
 18 19  2  0  0  0  0
 18 20  1  0  0  0  0
 20 21  1  0  0  0  0
 20 22  1  0  0  0  0
 22 23  1  0  0  0  0
 22 24  1  0  0  0  0
 22 25  1  0  0  0  0
M  END
$$$$

  -OEChem-02102214113D

 25 24  0     1  0  0  0  0  0999 V2000
   -2.7258   -3.9491    0.4257 H   0  0  0  0  0  0  0  0  0  0  0  0
   -2.7562   -2.9008    0.1156 C   0  0  0  0  0  0  0  0  0  0  0  0
   -3.3502   -2.3365    0.8386 H   0  0  0  0  0  0  0  0  0  0  0  0
   -3.2322   -2.8371   -0.8658 H   0  0  0  0  0  0  0  0  0  0  0  0
   -1.3502   -2.3348    0.0465 C   0  0  0  0  0  0  0  0  0  0  0  0
   -0.3904   -3.0473    0.2956 O   0  0  0  0  0  0  0  0  0  0  0  0
   -1.1601   -1.0111   -0.2910 N   0  0  0  0  0  0  0  0  0  0  0  0
   -1.9903   -0.4260   -0.3832 H   0  0  0  0  0  0  0  0  0  0  0  0
    0.1336   -0.3168   -0.2524 C   0  0  1  0  0  0  0  0  0  0  0  0
    0.8541   -0.8813    0.3501 H   0  0  0  0  0  0  0  0  0  0  0  0
    0.6520   -0.2198   -1.6981 C   0  0  0  0  0  0  0  0  0  0  0  0
    0.7489   -1.2264   -2.1151 H   0  0  0  0  0  0  0  0  0  0  0  0
   -0.0704    0.3266   -2.3115 H   0  0  0  0  0  0  0  0  0  0  0  0
    2.0010    0.4832   -1.7988 C   0  0  0  0  0  0  0  0  0  0  0  0
    2.0531    1.6943   -1.6769 O   0  0  0  0  0  0  0  0  0  0  0  0
    3.0912   -0.2933   -1.9934 O   0  0  0  0  0  0  0  0  0  0  0  0
    3.8473    0.3109   -2.0500 H   0  0  0  0  0  0  0  0  0  0  0  0
   -0.0527    1.0648    0.4146 C   0  0  0  0  0  0  0  0  0  0  0  0
   -1.0639    1.7165    0.1763 O   0  0  0  0  0  0  0  0  0  0  0  0
    0.8410    1.5187    1.3672 N   0  0  0  0  0  0  0  0  0  0  0  0
    1.6908    0.9808    1.5080 H   0  0  0  0  0  0  0  0  0  0  0  0
    0.7339    2.8336    1.9872 C   0  0  0  0  0  0  0  0  0  0  0  0
   -0.2308    2.9421    2.4939 H   0  0  0  0  0  0  0  0  0  0  0  0
    1.5284    2.9695    2.7272 H   0  0  0  0  0  0  0  0  0  0  0  0
    0.8253    3.6205    1.2311 H   0  0  0  0  0  0  0  0  0  0  0  0
  1  2  1  0  0  0  0
  2  3  1  0  0  0  0
  2  4  1  0  0  0  0
  2  5  1  0  0  0  0
  5  6  2  0  0  0  0
  5  7  1  0  0  0  0
  7  8  1  0  0  0  0
  7  9  1  0  0  0  0
  9 10  1  0  0  0  0
  9 11  1  0  0  0  0
  9 18  1  0  0  0  0
 11 12  1  0  0  0  0
 11 13  1  0  0  0  0
 11 14  1  0  0  0  0
 14 15  2  0  0  0  0
 14 16  1  0  0  0  0
 16 17  1  0  0  0  0
 18 19  2  0  0  0  0
 18 20  1  0  0  0  0
 20 21  1  0  0  0  0
 20 22  1  0  0  0  0
 22 23  1  0  0  0  0
 22 24  1  0  0  0  0
 22 25  1  0  0  0  0
M  END
$$$$

  -OEChem-02102214113D

 25 24  0     1  0  0  0  0  0999 V2000
   -2.7260   -3.9367    0.4186 H   0  0  0  0  0  0  0  0  0  0  0  0
   -2.7521   -2.8861    0.1160 C   0  0  0  0  0  0  0  0  0  0  0  0
   -3.3410   -2.3239    0.8446 H   0  0  0  0  0  0  0  0  0  0  0  0
   -3.2307   -2.8131   -0.8635 H   0  0  0  0  0  0  0  0  0  0  0  0
   -1.3438   -2.3265    0.0461 C   0  0  0  0  0  0  0  0  0  0  0  0
   -0.3868   -3.0436    0.2929 O   0  0  0  0  0  0  0  0  0  0  0  0
   -1.1479   -1.0030   -0.2887 N   0  0  0  0  0  0  0  0  0  0  0  0
   -1.9751   -0.4120   -0.3693 H   0  0  0  0  0  0  0  0  0  0  0  0
    0.1489   -0.3145   -0.2432 C   0  0  1  0  0  0  0  0  0  0  0  0
    0.8673   -0.8780    0.3625 H   0  0  0  0  0  0  0  0  0  0  0  0
    0.6657   -0.2231   -1.6926 C   0  0  0  0  0  0  0  0  0  0  0  0
    0.7491   -1.2341   -2.1019 H   0  0  0  0  0  0  0  0  0  0  0  0
   -0.0589    0.3223   -2.3042 H   0  0  0  0  0  0  0  0  0  0  0  0
    2.0198    0.4678   -1.8323 C   0  0  0  0  0  0  0  0  0  0  0  0
    2.1528    1.6215   -1.4641 O   0  0  0  0  0  0  0  0  0  0  0  0
    3.0263   -0.2616   -2.3658 O   0  0  0  0  0  0  0  0  0  0  0  0
    3.7972    0.3250   -2.4006 H   0  0  0  0  0  0  0  0  0  0  0  0
   -0.0547    1.0637    0.4282 C   0  0  0  0  0  0  0  0  0  0  0  0
   -1.0715    1.7063    0.1862 O   0  0  0  0  0  0  0  0  0  0  0  0
    0.8251    1.5214    1.3919 N   0  0  0  0  0  0  0  0  0  0  0  0
    1.6981    1.0143    1.5019 H   0  0  0  0  0  0  0  0  0  0  0  0
    0.6991    2.8333    2.0145 C   0  0  0  0  0  0  0  0  0  0  0  0
   -0.2744    2.9339    2.5060 H   0  0  0  0  0  0  0  0  0  0  0  0
    1.4799    2.9708    2.7684 H   0  0  0  0  0  0  0  0  0  0  0  0
    0.7982    3.6232    1.2626 H   0  0  0  0  0  0  0  0  0  0  0  0
  1  2  1  0  0  0  0
  2  3  1  0  0  0  0
  2  4  1  0  0  0  0
  2  5  1  0  0  0  0
  5  6  2  0  0  0  0
  5  7  1  0  0  0  0
  7  8  1  0  0  0  0
  7  9  1  0  0  0  0
  9 10  1  0  0  0  0
  9 11  1  0  0  0  0
  9 18  1  0  0  0  0
 11 12  1  0  0  0  0
 11 13  1  0  0  0  0
 11 14  1  0  0  0  0
 14 15  2  0  0  0  0
 14 16  1  0  0  0  0
 16 17  1  0  0  0  0
 18 19  2  0  0  0  0
 18 20  1  0  0  0  0
 20 21  1  0  0  0  0
 20 22  1  0  0  0  0
 22 23  1  0  0  0  0
 22 24  1  0  0  0  0
 22 25  1  0  0  0  0
M  END
$$$$

  -OEChem-02102214113D

 25 24  0     1  0  0  0  0  0999 V2000
   -2.7266   -3.9284    0.4133 H   0  0  0  0  0  0  0  0  0  0  0  0
   -2.7485   -2.8777    0.1109 C   0  0  0  0  0  0  0  0  0  0  0  0
   -3.3395   -2.3144    0.8370 H   0  0  0  0  0  0  0  0  0  0  0  0
   -3.2223   -2.8032   -0.8708 H   0  0  0  0  0  0  0  0  0  0  0  0
   -1.3387   -2.3212    0.0474 C   0  0  0  0  0  0  0  0  0  0  0  0
   -0.3841   -3.0418    0.2935 O   0  0  0  0  0  0  0  0  0  0  0  0
   -1.1383   -0.9979   -0.2845 N   0  0  0  0  0  0  0  0  0  0  0  0
   -1.9633   -0.4032   -0.3625 H   0  0  0  0  0  0  0  0  0  0  0  0
    0.1610   -0.3144   -0.2324 C   0  0  1  0  0  0  0  0  0  0  0  0
    0.8781   -0.8785    0.3740 H   0  0  0  0  0  0  0  0  0  0  0  0
    0.6746   -0.2233   -1.6847 C   0  0  0  0  0  0  0  0  0  0  0  0
    0.7492   -1.2367   -2.0899 H   0  0  0  0  0  0  0  0  0  0  0  0
   -0.0534    0.3219   -2.2918 H   0  0  0  0  0  0  0  0  0  0  0  0
    2.0321    0.4573   -1.8566 C   0  0  0  0  0  0  0  0  0  0  0  0
    2.2796    1.4961   -1.2696 O   0  0  0  0  0  0  0  0  0  0  0  0
    2.9094   -0.1496   -2.6888 O   0  0  0  0  0  0  0  0  0  0  0  0
    3.7006    0.4101   -2.7035 H   0  0  0  0  0  0  0  0  0  0  0  0
   -0.0547    1.0616    0.4427 C   0  0  0  0  0  0  0  0  0  0  0  0
   -1.0735    1.6994    0.1947 O   0  0  0  0  0  0  0  0  0  0  0  0
    0.8137    1.5219    1.4154 N   0  0  0  0  0  0  0  0  0  0  0  0
    1.7062    1.0434    1.4950 H   0  0  0  0  0  0  0  0  0  0  0  0
    0.6761    2.8340    2.0350 C   0  0  0  0  0  0  0  0  0  0  0  0
   -0.3069    2.9358    2.5070 H   0  0  0  0  0  0  0  0  0  0  0  0
    1.4416    2.9704    2.8047 H   0  0  0  0  0  0  0  0  0  0  0  0
    0.7911    3.6242    1.2857 H   0  0  0  0  0  0  0  0  0  0  0  0
  1  2  1  0  0  0  0
  2  3  1  0  0  0  0
  2  4  1  0  0  0  0
  2  5  1  0  0  0  0
  5  6  2  0  0  0  0
  5  7  1  0  0  0  0
  7  8  1  0  0  0  0
  7  9  1  0  0  0  0
  9 10  1  0  0  0  0
  9 11  1  0  0  0  0
  9 18  1  0  0  0  0
 11 12  1  0  0  0  0
 11 13  1  0  0  0  0
 11 14  1  0  0  0  0
 14 15  2  0  0  0  0
 14 16  1  0  0  0  0
 16 17  1  0  0  0  0
 18 19  2  0  0  0  0
 18 20  1  0  0  0  0
 20 21  1  0  0  0  0
 20 22  1  0  0  0  0
 22 23  1  0  0  0  0
 22 24  1  0  0  0  0
 22 25  1  0  0  0  0
M  END
$$$$

  -OEChem-02102214113D

 25 24  0     1  0  0  0  0  0999 V2000
   -2.7276   -3.9227    0.4134 H   0  0  0  0  0  0  0  0  0  0  0  0
   -2.7478   -2.8717    0.1119 C   0  0  0  0  0  0  0  0  0  0  0  0
   -3.3358   -2.3076    0.8398 H   0  0  0  0  0  0  0  0  0  0  0  0
   -3.2238   -2.7953   -0.8687 H   0  0  0  0  0  0  0  0  0  0  0  0
   -1.3367   -2.3189    0.0462 C   0  0  0  0  0  0  0  0  0  0  0  0
   -0.3834   -3.0430    0.2873 O   0  0  0  0  0  0  0  0  0  0  0  0
   -1.1335   -0.9959   -0.2851 N   0  0  0  0  0  0  0  0  0  0  0  0
   -1.9572   -0.3989   -0.3595 H   0  0  0  0  0  0  0  0  0  0  0  0
    0.1675   -0.3160   -0.2289 C   0  0  1  0  0  0  0  0  0  0  0  0
    0.8842   -0.8807    0.3778 H   0  0  0  0  0  0  0  0  0  0  0  0
    0.6797   -0.2214   -1.6821 C   0  0  0  0  0  0  0  0  0  0  0  0
    0.7506   -1.2346   -2.0885 H   0  0  0  0  0  0  0  0  0  0  0  0
   -0.0501    0.3263   -2.2851 H   0  0  0  0  0  0  0  0  0  0  0  0
    2.0388    0.4531   -1.8692 C   0  0  0  0  0  0  0  0  0  0  0  0
    2.4130    1.3234   -1.1020 O   0  0  0  0  0  0  0  0  0  0  0  0
    2.7696    0.0372   -2.9290 O   0  0  0  0  0  0  0  0  0  0  0  0
    3.5835    0.5635   -2.9204 H   0  0  0  0  0  0  0  0  0  0  0  0
   -0.0531    1.0597    0.4469 C   0  0  0  0  0  0  0  0  0  0  0  0
   -1.0703    1.6978    0.1925 O   0  0  0  0  0  0  0  0  0  0  0  0
    0.8093    1.5210    1.4243 N   0  0  0  0  0  0  0  0  0  0  0  0
    1.7147    1.0623    1.4796 H   0  0  0  0  0  0  0  0  0  0  0  0
    0.6624    2.8309    2.0465 C   0  0  0  0  0  0  0  0  0  0  0  0
   -0.3247    2.9278    2.5110 H   0  0  0  0  0  0  0  0  0  0  0  0
    1.4212    2.9673    2.8230 H   0  0  0  0  0  0  0  0  0  0  0  0
    0.7807    3.6237    1.3005 H   0  0  0  0  0  0  0  0  0  0  0  0
  1  2  1  0  0  0  0
  2  3  1  0  0  0  0
  2  4  1  0  0  0  0
  2  5  1  0  0  0  0
  5  6  2  0  0  0  0
  5  7  1  0  0  0  0
  7  8  1  0  0  0  0
  7  9  1  0  0  0  0
  9 10  1  0  0  0  0
  9 11  1  0  0  0  0
  9 18  1  0  0  0  0
 11 12  1  0  0  0  0
 11 13  1  0  0  0  0
 11 14  1  0  0  0  0
 14 15  2  0  0  0  0
 14 16  1  0  0  0  0
 16 17  1  0  0  0  0
 18 19  2  0  0  0  0
 18 20  1  0  0  0  0
 20 21  1  0  0  0  0
 20 22  1  0  0  0  0
 22 23  1  0  0  0  0
 22 24  1  0  0  0  0
 22 25  1  0  0  0  0
M  END
$$$$

  -OEChem-02102214113D

 25 24  0     1  0  0  0  0  0999 V2000
   -2.7282   -3.9267    0.4187 H   0  0  0  0  0  0  0  0  0  0  0  0
   -2.7505   -2.8764    0.1148 C   0  0  0  0  0  0  0  0  0  0  0  0
   -3.3389   -2.3116    0.8420 H   0  0  0  0  0  0  0  0  0  0  0  0
   -3.2274   -2.8029   -0.8655 H   0  0  0  0  0  0  0  0  0  0  0  0
   -1.3401   -2.3222    0.0462 C   0  0  0  0  0  0  0  0  0  0  0  0
   -0.3862   -3.0470    0.2823 O   0  0  0  0  0  0  0  0  0  0  0  0
   -1.1372   -0.9992   -0.2860 N   0  0  0  0  0  0  0  0  0  0  0  0
   -1.9608   -0.4019   -0.3571 H   0  0  0  0  0  0  0  0  0  0  0  0
    0.1640   -0.3195   -0.2300 C   0  0  1  0  0  0  0  0  0  0  0  0
    0.8812   -0.8852    0.3752 H   0  0  0  0  0  0  0  0  0  0  0  0
    0.6760   -0.2161   -1.6821 C   0  0  0  0  0  0  0  0  0  0  0  0
    0.7486   -1.2257   -2.0965 H   0  0  0  0  0  0  0  0  0  0  0  0
   -0.0543    0.3352   -2.2808 H   0  0  0  0  0  0  0  0  0  0  0  0
    2.0345    0.4600   -1.8660 C   0  0  0  0  0  0  0  0  0  0  0  0
    2.5316    1.1172   -0.9664 O   0  0  0  0  0  0  0  0  0  0  0  0
    2.6230    0.2917   -3.0723 O   0  0  0  0  0  0  0  0  0  0  0  0
    3.4575    0.7834   -3.0376 H   0  0  0  0  0  0  0  0  0  0  0  0
   -0.0522    1.0576    0.4442 C   0  0  0  0  0  0  0  0  0  0  0  0
   -1.0642    1.7012    0.1837 O   0  0  0  0  0  0  0  0  0  0  0  0
    0.8116    1.5186    1.4201 N   0  0  0  0  0  0  0  0  0  0  0  0
    1.7202    1.0638    1.4632 H   0  0  0  0  0  0  0  0  0  0  0  0
    0.6689    2.8292    2.0420 C   0  0  0  0  0  0  0  0  0  0  0  0
   -0.3179    2.9293    2.5061 H   0  0  0  0  0  0  0  0  0  0  0  0
    1.4278    2.9632    2.8188 H   0  0  0  0  0  0  0  0  0  0  0  0
    0.7897    3.6218    1.2961 H   0  0  0  0  0  0  0  0  0  0  0  0
  1  2  1  0  0  0  0
  2  3  1  0  0  0  0
  2  4  1  0  0  0  0
  2  5  1  0  0  0  0
  5  6  2  0  0  0  0
  5  7  1  0  0  0  0
  7  8  1  0  0  0  0
  7  9  1  0  0  0  0
  9 10  1  0  0  0  0
  9 11  1  0  0  0  0
  9 18  1  0  0  0  0
 11 12  1  0  0  0  0
 11 13  1  0  0  0  0
 11 14  1  0  0  0  0
 14 15  2  0  0  0  0
 14 16  1  0  0  0  0
 16 17  1  0  0  0  0
 18 19  2  0  0  0  0
 18 20  1  0  0  0  0
 20 21  1  0  0  0  0
 20 22  1  0  0  0  0
 22 23  1  0  0  0  0
 22 24  1  0  0  0  0
 22 25  1  0  0  0  0
M  END
$$$$

  -OEChem-02102214113D

 25 24  0     1  0  0  0  0  0999 V2000
   -2.7269   -3.9389    0.4275 H   0  0  0  0  0  0  0  0  0  0  0  0
   -2.7536   -2.8896    0.1207 C   0  0  0  0  0  0  0  0  0  0  0  0
   -3.3418   -2.3248    0.8480 H   0  0  0  0  0  0  0  0  0  0  0  0
   -3.2335   -2.8207   -0.8585 H   0  0  0  0  0  0  0  0  0  0  0  0
   -1.3452   -2.3309    0.0465 C   0  0  0  0  0  0  0  0  0  0  0  0
   -0.3882   -3.0525    0.2796 O   0  0  0  0  0  0  0  0  0  0  0  0
   -1.1486   -1.0072   -0.2870 N   0  0  0  0  0  0  0  0  0  0  0  0
   -1.9753   -0.4146   -0.3604 H   0  0  0  0  0  0  0  0  0  0  0  0
    0.1494   -0.3212   -0.2365 C   0  0  1  0  0  0  0  0  0  0  0  0
    0.8689   -0.8871    0.3662 H   0  0  0  0  0  0  0  0  0  0  0  0
    0.6641   -0.2086   -1.6858 C   0  0  0  0  0  0  0  0  0  0  0  0
    0.7456   -1.2134   -2.1094 H   0  0  0  0  0  0  0  0  0  0  0  0
   -0.0667    0.3450   -2.2822 H   0  0  0  0  0  0  0  0  0  0  0  0
    2.0193    0.4788   -1.8488 C   0  0  0  0  0  0  0  0  0  0  0  0
    2.6233    0.8954   -0.8728 O   0  0  0  0  0  0  0  0  0  0  0  0
    2.4852    0.5909   -3.1137 O   0  0  0  0  0  0  0  0  0  0  0  0
    3.3385    1.0463   -3.0493 H   0  0  0  0  0  0  0  0  0  0  0  0
   -0.0556    1.0575    0.4357 C   0  0  0  0  0  0  0  0  0  0  0  0
   -1.0623    1.7089    0.1758 O   0  0  0  0  0  0  0  0  0  0  0  0
    0.8190    1.5156    1.4028 N   0  0  0  0  0  0  0  0  0  0  0  0
    1.7229    1.0497    1.4434 H   0  0  0  0  0  0  0  0  0  0  0  0
    0.6918    2.8286    2.0226 C   0  0  0  0  0  0  0  0  0  0  0  0
   -0.2900    2.9371    2.4957 H   0  0  0  0  0  0  0  0  0  0  0  0
    1.4589    2.9587    2.7921 H   0  0  0  0  0  0  0  0  0  0  0  0
    0.8115    3.6184    1.2737 H   0  0  0  0  0  0  0  0  0  0  0  0
  1  2  1  0  0  0  0
  2  3  1  0  0  0  0
  2  4  1  0  0  0  0
  2  5  1  0  0  0  0
  5  6  2  0  0  0  0
  5  7  1  0  0  0  0
  7  8  1  0  0  0  0
  7  9  1  0  0  0  0
  9 10  1  0  0  0  0
  9 11  1  0  0  0  0
  9 18  1  0  0  0  0
 11 12  1  0  0  0  0
 11 13  1  0  0  0  0
 11 14  1  0  0  0  0
 14 15  2  0  0  0  0
 14 16  1  0  0  0  0
 16 17  1  0  0  0  0
 18 19  2  0  0  0  0
 18 20  1  0  0  0  0
 20 21  1  0  0  0  0
 20 22  1  0  0  0  0
 22 23  1  0  0  0  0
 22 24  1  0  0  0  0
 22 25  1  0  0  0  0
M  END
$$$$

  -OEChem-02102214113D

 25 24  0     1  0  0  0  0  0999 V2000
   -2.7178   -3.9613    0.4358 H   0  0  0  0  0  0  0  0  0  0  0  0
   -2.7539   -2.9140    0.1227 C   0  0  0  0  0  0  0  0  0  0  0  0
   -3.3480   -2.3504    0.8462 H   0  0  0  0  0  0  0  0  0  0  0  0
   -3.2331   -2.8550   -0.8575 H   0  0  0  0  0  0  0  0  0  0  0  0
   -1.3508   -2.3423    0.0466 C   0  0  0  0  0  0  0  0  0  0  0  0
   -0.3873   -3.0558    0.2771 O   0  0  0  0  0  0  0  0  0  0  0  0
   -1.1675   -1.0169   -0.2883 N   0  0  0  0  0  0  0  0  0  0  0  0
   -2.0006   -0.4347   -0.3692 H   0  0  0  0  0  0  0  0  0  0  0  0
    0.1237   -0.3179   -0.2435 C   0  0  1  0  0  0  0  0  0  0  0  0
    0.8437   -0.8830    0.3600 H   0  0  0  0  0  0  0  0  0  0  0  0
    0.6460   -0.2019   -1.6878 C   0  0  0  0  0  0  0  0  0  0  0  0
    0.7449   -1.2032   -2.1155 H   0  0  0  0  0  0  0  0  0  0  0  0
   -0.0850    0.3472   -2.2881 H   0  0  0  0  0  0  0  0  0  0  0  0
    1.9940    0.5046   -1.8178 C   0  0  0  0  0  0  0  0  0  0  0  0
    2.6905    0.6759   -0.8287 O   0  0  0  0  0  0  0  0  0  0  0  0
    2.3525    0.9042   -3.0592 O   0  0  0  0  0  0  0  0  0  0  0  0
    3.2198    1.3274   -2.9691 H   0  0  0  0  0  0  0  0  0  0  0  0
   -0.0630    1.0636    0.4242 C   0  0  0  0  0  0  0  0  0  0  0  0
   -1.0599    1.7288    0.1641 O   0  0  0  0  0  0  0  0  0  0  0  0
    0.8289    1.5156    1.3779 N   0  0  0  0  0  0  0  0  0  0  0  0
    1.7189    1.0237    1.4286 H   0  0  0  0  0  0  0  0  0  0  0  0
    0.7299    2.8328    1.9943 C   0  0  0  0  0  0  0  0  0  0  0  0
   -0.2432    2.9577    2.4808 H   0  0  0  0  0  0  0  0  0  0  0  0
    1.5101    2.9539    2.7521 H   0  0  0  0  0  0  0  0  0  0  0  0
    0.8509    3.6183    1.2410 H   0  0  0  0  0  0  0  0  0  0  0  0
  1  2  1  0  0  0  0
  2  3  1  0  0  0  0
  2  4  1  0  0  0  0
  2  5  1  0  0  0  0
  5  6  2  0  0  0  0
  5  7  1  0  0  0  0
  7  8  1  0  0  0  0
  7  9  1  0  0  0  0
  9 10  1  0  0  0  0
  9 11  1  0  0  0  0
  9 18  1  0  0  0  0
 11 12  1  0  0  0  0
 11 13  1  0  0  0  0
 11 14  1  0  0  0  0
 14 15  2  0  0  0  0
 14 16  1  0  0  0  0
 16 17  1  0  0  0  0
 18 19  2  0  0  0  0
 18 20  1  0  0  0  0
 20 21  1  0  0  0  0
 20 22  1  0  0  0  0
 22 23  1  0  0  0  0
 22 24  1  0  0  0  0
 22 25  1  0  0  0  0
M  END
$$$$

  -OEChem-02102214113D

 25 24  0     1  0  0  0  0  0999 V2000
   -2.7061   -3.9803    0.4388 H   0  0  0  0  0  0  0  0  0  0  0  0
   -2.7515   -2.9340    0.1237 C   0  0  0  0  0  0  0  0  0  0  0  0
   -3.3536   -2.3750    0.8441 H   0  0  0  0  0  0  0  0  0  0  0  0
   -3.2281   -2.8816   -0.8581 H   0  0  0  0  0  0  0  0  0  0  0  0
   -1.3537   -2.3488    0.0512 C   0  0  0  0  0  0  0  0  0  0  0  0
   -0.3846   -3.0524    0.2886 O   0  0  0  0  0  0  0  0  0  0  0  0
   -1.1827   -1.0225   -0.2879 N   0  0  0  0  0  0  0  0  0  0  0  0
   -2.0218   -0.4511   -0.3799 H   0  0  0  0  0  0  0  0  0  0  0  0
    0.1017   -0.3104   -0.2529 C   0  0  1  0  0  0  0  0  0  0  0  0
    0.8232   -0.8725    0.3516 H   0  0  0  0  0  0  0  0  0  0  0  0
    0.6303   -0.1995   -1.6938 C   0  0  0  0  0  0  0  0  0  0  0  0
    0.7480   -1.2000   -2.1183 H   0  0  0  0  0  0  0  0  0  0  0  0
   -0.1000    0.3400   -2.3038 H   0  0  0  0  0  0  0  0  0  0  0  0
    1.9698    0.5258   -1.7901 C   0  0  0  0  0  0  0  0  0  0  0  0
    2.7531    0.4628   -0.8547 O   0  0  0  0  0  0  0  0  0  0  0  0
    2.2253    1.2016   -2.9335 O   0  0  0  0  0  0  0  0  0  0  0  0
    3.1064    1.5913   -2.8283 H   0  0  0  0  0  0  0  0  0  0  0  0
   -0.0675    1.0744    0.4079 C   0  0  0  0  0  0  0  0  0  0  0  0
   -1.0577    1.7498    0.1516 O   0  0  0  0  0  0  0  0  0  0  0  0
    0.8429    1.5218    1.3460 N   0  0  0  0  0  0  0  0  0  0  0  0
    1.7119    0.9969    1.4248 H   0  0  0  0  0  0  0  0  0  0  0  0
    0.7606    2.8352    1.9723 C   0  0  0  0  0  0  0  0  0  0  0  0
   -0.2049    2.9625    2.4735 H   0  0  0  0  0  0  0  0  0  0  0  0
    1.5520    2.9471    2.7197 H   0  0  0  0  0  0  0  0  0  0  0  0
    0.8753    3.6248    1.2223 H   0  0  0  0  0  0  0  0  0  0  0  0
  1  2  1  0  0  0  0
  2  3  1  0  0  0  0
  2  4  1  0  0  0  0
  2  5  1  0  0  0  0
  5  6  2  0  0  0  0
  5  7  1  0  0  0  0
  7  8  1  0  0  0  0
  7  9  1  0  0  0  0
  9 10  1  0  0  0  0
  9 11  1  0  0  0  0
  9 18  1  0  0  0  0
 11 12  1  0  0  0  0
 11 13  1  0  0  0  0
 11 14  1  0  0  0  0
 14 15  2  0  0  0  0
 14 16  1  0  0  0  0
 16 17  1  0  0  0  0
 18 19  2  0  0  0  0
 18 20  1  0  0  0  0
 20 21  1  0  0  0  0
 20 22  1  0  0  0  0
 22 23  1  0  0  0  0
 22 24  1  0  0  0  0
 22 25  1  0  0  0  0
M  END
$$$$

  -OEChem-02102214113D

 25 24  0     1  0  0  0  0  0999 V2000
   -2.6950   -3.9888    0.4415 H   0  0  0  0  0  0  0  0  0  0  0  0
   -2.7462   -2.9436    0.1241 C   0  0  0  0  0  0  0  0  0  0  0  0
   -3.3533   -2.3870    0.8421 H   0  0  0  0  0  0  0  0  0  0  0  0
   -3.2205   -2.8961   -0.8591 H   0  0  0  0  0  0  0  0  0  0  0  0
   -1.3524   -2.3495    0.0539 C   0  0  0  0  0  0  0  0  0  0  0  0
   -0.3794   -3.0451    0.2979 O   0  0  0  0  0  0  0  0  0  0  0  0
   -1.1901   -1.0234   -0.2890 N   0  0  0  0  0  0  0  0  0  0  0  0
   -2.0330   -0.4592   -0.3882 H   0  0  0  0  0  0  0  0  0  0  0  0
    0.0891   -0.3027   -0.2622 C   0  0  1  0  0  0  0  0  0  0  0  0
    0.8122   -0.8610    0.3438 H   0  0  0  0  0  0  0  0  0  0  0  0
    0.6200   -0.2005   -1.7010 C   0  0  0  0  0  0  0  0  0  0  0  0
    0.7518   -1.2020   -2.1191 H   0  0  0  0  0  0  0  0  0  0  0  0
   -0.1099    0.3294   -2.3200 H   0  0  0  0  0  0  0  0  0  0  0  0
    1.9524    0.5377   -1.7709 C   0  0  0  0  0  0  0  0  0  0  0  0
    2.8203    0.2630   -0.9572 O   0  0  0  0  0  0  0  0  0  0  0  0
    2.1077    1.4602   -2.7478 O   0  0  0  0  0  0  0  0  0  0  0  0
    3.0038    1.8155   -2.6475 H   0  0  0  0  0  0  0  0  0  0  0  0
   -0.0692    1.0846    0.3926 C   0  0  0  0  0  0  0  0  0  0  0  0
   -1.0563    1.7654    0.1408 O   0  0  0  0  0  0  0  0  0  0  0  0
    0.8540    1.5297    1.3194 N   0  0  0  0  0  0  0  0  0  0  0  0
    1.6996    0.9750    1.4351 H   0  0  0  0  0  0  0  0  0  0  0  0
    0.7762    2.8357    1.9613 C   0  0  0  0  0  0  0  0  0  0  0  0
   -0.1830    2.9539    2.4768 H   0  0  0  0  0  0  0  0  0  0  0  0
    1.5776    2.9422    2.6987 H   0  0  0  0  0  0  0  0  0  0  0  0
    0.8782    3.6342    1.2188 H   0  0  0  0  0  0  0  0  0  0  0  0
  1  2  1  0  0  0  0
  2  3  1  0  0  0  0
  2  4  1  0  0  0  0
  2  5  1  0  0  0  0
  5  6  2  0  0  0  0
  5  7  1  0  0  0  0
  7  8  1  0  0  0  0
  7  9  1  0  0  0  0
  9 10  1  0  0  0  0
  9 11  1  0  0  0  0
  9 18  1  0  0  0  0
 11 12  1  0  0  0  0
 11 13  1  0  0  0  0
 11 14  1  0  0  0  0
 14 15  2  0  0  0  0
 14 16  1  0  0  0  0
 16 17  1  0  0  0  0
 18 19  2  0  0  0  0
 18 20  1  0  0  0  0
 20 21  1  0  0  0  0
 20 22  1  0  0  0  0
 22 23  1  0  0  0  0
 22 24  1  0  0  0  0
 22 25  1  0  0  0  0
M  END
$$$$

  -OEChem-02102214113D

 25 24  0     1  0  0  0  0  0999 V2000
   -2.6911   -3.9890    0.4410 H   0  0  0  0  0  0  0  0  0  0  0  0
   -2.7436   -2.9430    0.1262 C   0  0  0  0  0  0  0  0  0  0  0  0
   -3.3516   -2.3890    0.8453 H   0  0  0  0  0  0  0  0  0  0  0  0
   -3.2182   -2.8942   -0.8567 H   0  0  0  0  0  0  0  0  0  0  0  0
   -1.3500   -2.3473    0.0581 C   0  0  0  0  0  0  0  0  0  0  0  0
   -0.3776   -3.0392    0.3142 O   0  0  0  0  0  0  0  0  0  0  0  0
   -1.1876   -1.0221   -0.2895 N   0  0  0  0  0  0  0  0  0  0  0  0
   -2.0306   -0.4605   -0.4016 H   0  0  0  0  0  0  0  0  0  0  0  0
    0.0916   -0.3006   -0.2699 C   0  0  1  0  0  0  0  0  0  0  0  0
    0.8195   -0.8563    0.3324 H   0  0  0  0  0  0  0  0  0  0  0  0
    0.6162   -0.2020   -1.7104 C   0  0  0  0  0  0  0  0  0  0  0  0
    0.7515   -1.2040   -2.1266 H   0  0  0  0  0  0  0  0  0  0  0  0
   -0.1128    0.3258   -2.3324 H   0  0  0  0  0  0  0  0  0  0  0  0
    1.9459    0.5389   -1.7665 C   0  0  0  0  0  0  0  0  0  0  0  0
    2.8909    0.0831   -1.1444 O   0  0  0  0  0  0  0  0  0  0  0  0
    2.0097    1.6717   -2.5024 O   0  0  0  0  0  0  0  0  0  0  0  0
    2.9191    1.9973   -2.4240 H   0  0  0  0  0  0  0  0  0  0  0  0
   -0.0642    1.0885    0.3811 C   0  0  0  0  0  0  0  0  0  0  0  0
   -1.0495    1.7712    0.1280 O   0  0  0  0  0  0  0  0  0  0  0  0
    0.8626    1.5369    1.3032 N   0  0  0  0  0  0  0  0  0  0  0  0
    1.6804    0.9547    1.4690 H   0  0  0  0  0  0  0  0  0  0  0  0
    0.7758    2.8363    1.9579 C   0  0  0  0  0  0  0  0  0  0  0  0
   -0.1749    2.9338    2.4928 H   0  0  0  0  0  0  0  0  0  0  0  0
    1.5901    2.9512    2.6797 H   0  0  0  0  0  0  0  0  0  0  0  0
    0.8495    3.6423    1.2202 H   0  0  0  0  0  0  0  0  0  0  0  0
  1  2  1  0  0  0  0
  2  3  1  0  0  0  0
  2  4  1  0  0  0  0
  2  5  1  0  0  0  0
  5  6  2  0  0  0  0
  5  7  1  0  0  0  0
  7  8  1  0  0  0  0
  7  9  1  0  0  0  0
  9 10  1  0  0  0  0
  9 11  1  0  0  0  0
  9 18  1  0  0  0  0
 11 12  1  0  0  0  0
 11 13  1  0  0  0  0
 11 14  1  0  0  0  0
 14 15  2  0  0  0  0
 14 16  1  0  0  0  0
 16 17  1  0  0  0  0
 18 19  2  0  0  0  0
 18 20  1  0  0  0  0
 20 21  1  0  0  0  0
 20 22  1  0  0  0  0
 22 23  1  0  0  0  0
 22 24  1  0  0  0  0
 22 25  1  0  0  0  0
M  END
$$$$

  -OEChem-02102214113D

 25 24  0     1  0  0  0  0  0999 V2000
   -2.6909   -3.9843    0.4192 H   0  0  0  0  0  0  0  0  0  0  0  0
   -2.7414   -2.9330    0.1225 C   0  0  0  0  0  0  0  0  0  0  0  0
   -3.3492   -2.3903    0.8504 H   0  0  0  0  0  0  0  0  0  0  0  0
   -3.2151   -2.8667   -0.8599 H   0  0  0  0  0  0  0  0  0  0  0  0
   -1.3468   -2.3385    0.0655 C   0  0  0  0  0  0  0  0  0  0  0  0
   -0.3772   -3.0295    0.3345 O   0  0  0  0  0  0  0  0  0  0  0  0
   -1.1800   -1.0155   -0.2874 N   0  0  0  0  0  0  0  0  0  0  0  0
   -2.0212   -0.4529   -0.4090 H   0  0  0  0  0  0  0  0  0  0  0  0
    0.1012   -0.2974   -0.2715 C   0  0  1  0  0  0  0  0  0  0  0  0
    0.8315   -0.8514    0.3298 H   0  0  0  0  0  0  0  0  0  0  0  0
    0.6195   -0.2059   -1.7141 C   0  0  0  0  0  0  0  0  0  0  0  0
    0.7491   -1.2104   -2.1270 H   0  0  0  0  0  0  0  0  0  0  0  0
   -0.1080    0.3228   -2.3367 H   0  0  0  0  0  0  0  0  0  0  0  0
    1.9507    0.5305   -1.7729 C   0  0  0  0  0  0  0  0  0  0  0  0
    2.9511   -0.0538   -1.3946 O   0  0  0  0  0  0  0  0  0  0  0  0
    1.9549    1.8014   -2.2357 O   0  0  0  0  0  0  0  0  0  0  0  0
    2.8772    2.0983   -2.2106 H   0  0  0  0  0  0  0  0  0  0  0  0
   -0.0570    1.0940    0.3753 C   0  0  0  0  0  0  0  0  0  0  0  0
   -1.0481    1.7701    0.1268 O   0  0  0  0  0  0  0  0  0  0  0  0
    0.8675    1.5479    1.2976 N   0  0  0  0  0  0  0  0  0  0  0  0
    1.6681    0.9534    1.4974 H   0  0  0  0  0  0  0  0  0  0  0  0
    0.7576    2.8359    1.9715 C   0  0  0  0  0  0  0  0  0  0  0  0
   -0.1701    2.8868    2.5513 H   0  0  0  0  0  0  0  0  0  0  0  0
    1.6001    2.9786    2.6549 H   0  0  0  0  0  0  0  0  0  0  0  0
    0.7622    3.6522    1.2413 H   0  0  0  0  0  0  0  0  0  0  0  0
  1  2  1  0  0  0  0
  2  3  1  0  0  0  0
  2  4  1  0  0  0  0
  2  5  1  0  0  0  0
  5  6  2  0  0  0  0
  5  7  1  0  0  0  0
  7  8  1  0  0  0  0
  7  9  1  0  0  0  0
  9 10  1  0  0  0  0
  9 11  1  0  0  0  0
  9 18  1  0  0  0  0
 11 12  1  0  0  0  0
 11 13  1  0  0  0  0
 11 14  1  0  0  0  0
 14 15  2  0  0  0  0
 14 16  1  0  0  0  0
 16 17  1  0  0  0  0
 18 19  2  0  0  0  0
 18 20  1  0  0  0  0
 20 21  1  0  0  0  0
 20 22  1  0  0  0  0
 22 23  1  0  0  0  0
 22 24  1  0  0  0  0
 22 25  1  0  0  0  0
M  END
$$$$

  -OEChem-02102214113D

 25 24  0     1  0  0  0  0  0999 V2000
   -2.6917   -3.9737    0.4300 H   0  0  0  0  0  0  0  0  0  0  0  0
   -2.7394   -2.9247    0.1244 C   0  0  0  0  0  0  0  0  0  0  0  0
   -3.3412   -2.3735    0.8509 H   0  0  0  0  0  0  0  0  0  0  0  0
   -3.2180   -2.8648   -0.8559 H   0  0  0  0  0  0  0  0  0  0  0  0
   -1.3431   -2.3357    0.0558 C   0  0  0  0  0  0  0  0  0  0  0  0
   -0.3743   -3.0288    0.3228 O   0  0  0  0  0  0  0  0  0  0  0  0
   -1.1735   -1.0116   -0.2918 N   0  0  0  0  0  0  0  0  0  0  0  0
   -2.0132   -0.4446   -0.4039 H   0  0  0  0  0  0  0  0  0  0  0  0
    0.1099   -0.2976   -0.2694 C   0  0  1  0  0  0  0  0  0  0  0  0
    0.8392   -0.8536    0.3308 H   0  0  0  0  0  0  0  0  0  0  0  0
    0.6272   -0.2019   -1.7129 C   0  0  0  0  0  0  0  0  0  0  0  0
    0.7465   -1.2065   -2.1293 H   0  0  0  0  0  0  0  0  0  0  0  0
   -0.0988    0.3334   -2.3316 H   0  0  0  0  0  0  0  0  0  0  0  0
    1.9620    0.5282   -1.7805 C   0  0  0  0  0  0  0  0  0  0  0  0
    2.9838   -0.1279   -1.6816 O   0  0  0  0  0  0  0  0  0  0  0  0
    1.9482    1.8699   -1.9505 O   0  0  0  0  0  0  0  0  0  0  0  0
    2.8754    2.1491   -1.9918 H   0  0  0  0  0  0  0  0  0  0  0  0
   -0.0604    1.0897    0.3849 C   0  0  0  0  0  0  0  0  0  0  0  0
   -1.0582    1.7579    0.1402 O   0  0  0  0  0  0  0  0  0  0  0  0
    0.8549    1.5441    1.3165 N   0  0  0  0  0  0  0  0  0  0  0  0
    1.6568    0.9539    1.5207 H   0  0  0  0  0  0  0  0  0  0  0  0
    0.7388    2.8340    1.9850 C   0  0  0  0  0  0  0  0  0  0  0  0
   -0.1927    2.8868    2.5584 H   0  0  0  0  0  0  0  0  0  0  0  0
    1.5764    2.9806    2.6736 H   0  0  0  0  0  0  0  0  0  0  0  0
    0.7478    3.6465    1.2509 H   0  0  0  0  0  0  0  0  0  0  0  0
  1  2  1  0  0  0  0
  2  3  1  0  0  0  0
  2  4  1  0  0  0  0
  2  5  1  0  0  0  0
  5  6  2  0  0  0  0
  5  7  1  0  0  0  0
  7  8  1  0  0  0  0
  7  9  1  0  0  0  0
  9 10  1  0  0  0  0
  9 11  1  0  0  0  0
  9 18  1  0  0  0  0
 11 12  1  0  0  0  0
 11 13  1  0  0  0  0
 11 14  1  0  0  0  0
 14 15  2  0  0  0  0
 14 16  1  0  0  0  0
 16 17  1  0  0  0  0
 18 19  2  0  0  0  0
 18 20  1  0  0  0  0
 20 21  1  0  0  0  0
 20 22  1  0  0  0  0
 22 23  1  0  0  0  0
 22 24  1  0  0  0  0
 22 25  1  0  0  0  0
M  END
$$$$

  -OEChem-02102214113D

 25 24  0     1  0  0  0  0  0999 V2000
   -2.6908   -3.9682    0.4130 H   0  0  0  0  0  0  0  0  0  0  0  0
   -2.7353   -2.9183    0.1102 C   0  0  0  0  0  0  0  0  0  0  0  0
   -3.3469   -2.3695    0.8304 H   0  0  0  0  0  0  0  0  0  0  0  0
   -3.2011   -2.8556   -0.8762 H   0  0  0  0  0  0  0  0  0  0  0  0
   -1.3385   -2.3285    0.0610 C   0  0  0  0  0  0  0  0  0  0  0  0
   -0.3721   -3.0238    0.3311 O   0  0  0  0  0  0  0  0  0  0  0  0
   -1.1647   -1.0037   -0.2817 N   0  0  0  0  0  0  0  0  0  0  0  0
   -2.0022   -0.4331   -0.3925 H   0  0  0  0  0  0  0  0  0  0  0  0
    0.1210   -0.2942   -0.2512 C   0  0  1  0  0  0  0  0  0  0  0  0
    0.8488   -0.8508    0.3498 H   0  0  0  0  0  0  0  0  0  0  0  0
    0.6334   -0.2048   -1.6988 C   0  0  0  0  0  0  0  0  0  0  0  0
    0.7365   -1.2134   -2.1108 H   0  0  0  0  0  0  0  0  0  0  0  0
   -0.0952    0.3334   -2.3117 H   0  0  0  0  0  0  0  0  0  0  0  0
    1.9730    0.5153   -1.8012 C   0  0  0  0  0  0  0  0  0  0  0  0
    2.9710   -0.1559   -1.9947 O   0  0  0  0  0  0  0  0  0  0  0  0
    1.9893    1.8646   -1.7093 O   0  0  0  0  0  0  0  0  0  0  0  0
    2.9103    2.1346   -1.8453 H   0  0  0  0  0  0  0  0  0  0  0  0
   -0.0618    1.0895    0.4092 C   0  0  0  0  0  0  0  0  0  0  0  0
   -1.0647    1.7504    0.1636 O   0  0  0  0  0  0  0  0  0  0  0  0
    0.8422    1.5455    1.3513 N   0  0  0  0  0  0  0  0  0  0  0  0
    1.6574    0.9704    1.5435 H   0  0  0  0  0  0  0  0  0  0  0  0
    0.7165    2.8361    2.0172 C   0  0  0  0  0  0  0  0  0  0  0  0
   -0.2385    2.9026    2.5491 H   0  0  0  0  0  0  0  0  0  0  0  0
    1.5247    2.9680    2.7430 H   0  0  0  0  0  0  0  0  0  0  0  0
    0.7704    3.6494    1.2859 H   0  0  0  0  0  0  0  0  0  0  0  0
  1  2  1  0  0  0  0
  2  3  1  0  0  0  0
  2  4  1  0  0  0  0
  2  5  1  0  0  0  0
  5  6  2  0  0  0  0
  5  7  1  0  0  0  0
  7  8  1  0  0  0  0
  7  9  1  0  0  0  0
  9 10  1  0  0  0  0
  9 11  1  0  0  0  0
  9 18  1  0  0  0  0
 11 12  1  0  0  0  0
 11 13  1  0  0  0  0
 11 14  1  0  0  0  0
 14 15  2  0  0  0  0
 14 16  1  0  0  0  0
 16 17  1  0  0  0  0
 18 19  2  0  0  0  0
 18 20  1  0  0  0  0
 20 21  1  0  0  0  0
 20 22  1  0  0  0  0
 22 23  1  0  0  0  0
 22 24  1  0  0  0  0
 22 25  1  0  0  0  0
M  END
$$$$

  -OEChem-02102214113D

 25 24  0     1  0  0  0  0  0999 V2000
   -2.6970   -3.9597    0.3969 H   0  0  0  0  0  0  0  0  0  0  0  0
   -2.7349   -2.9083    0.0984 C   0  0  0  0  0  0  0  0  0  0  0  0
   -3.3497   -2.3602    0.8165 H   0  0  0  0  0  0  0  0  0  0  0  0
   -3.1930   -2.8393   -0.8912 H   0  0  0  0  0  0  0  0  0  0  0  0
   -1.3353   -2.3240    0.0617 C   0  0  0  0  0  0  0  0  0  0  0  0
   -0.3727   -3.0239    0.3342 O   0  0  0  0  0  0  0  0  0  0  0  0
   -1.1537   -0.9985   -0.2738 N   0  0  0  0  0  0  0  0  0  0  0  0
   -1.9879   -0.4231   -0.3850 H   0  0  0  0  0  0  0  0  0  0  0  0
    0.1352   -0.2948   -0.2321 C   0  0  1  0  0  0  0  0  0  0  0  0
    0.8603   -0.8528    0.3704 H   0  0  0  0  0  0  0  0  0  0  0  0
    0.6451   -0.2084   -1.6835 C   0  0  0  0  0  0  0  0  0  0  0  0
    0.7324   -1.2205   -2.0906 H   0  0  0  0  0  0  0  0  0  0  0  0
   -0.0860    0.3325   -2.2907 H   0  0  0  0  0  0  0  0  0  0  0  0
    1.9903    0.4989   -1.8260 C   0  0  0  0  0  0  0  0  0  0  0  0
    2.9138   -0.1347   -2.3054 O   0  0  0  0  0  0  0  0  0  0  0  0
    2.0900    1.8004   -1.4724 O   0  0  0  0  0  0  0  0  0  0  0  0
    2.9919    2.0728   -1.7014 H   0  0  0  0  0  0  0  0  0  0  0  0
   -0.0652    1.0836    0.4367 C   0  0  0  0  0  0  0  0  0  0  0  0
   -1.0720    1.7371    0.1851 O   0  0  0  0  0  0  0  0  0  0  0  0
    0.8227    1.5418    1.3930 N   0  0  0  0  0  0  0  0  0  0  0  0
    1.6603    0.9921    1.5602 H   0  0  0  0  0  0  0  0  0  0  0  0
    0.6881    2.8369    2.0480 C   0  0  0  0  0  0  0  0  0  0  0  0
   -0.2830    2.9153    2.5484 H   0  0  0  0  0  0  0  0  0  0  0  0
    1.4731    2.9649    2.7995 H   0  0  0  0  0  0  0  0  0  0  0  0
    0.7733    3.6457    1.3148 H   0  0  0  0  0  0  0  0  0  0  0  0
  1  2  1  0  0  0  0
  2  3  1  0  0  0  0
  2  4  1  0  0  0  0
  2  5  1  0  0  0  0
  5  6  2  0  0  0  0
  5  7  1  0  0  0  0
  7  8  1  0  0  0  0
  7  9  1  0  0  0  0
  9 10  1  0  0  0  0
  9 11  1  0  0  0  0
  9 18  1  0  0  0  0
 11 12  1  0  0  0  0
 11 13  1  0  0  0  0
 11 14  1  0  0  0  0
 14 15  2  0  0  0  0
 14 16  1  0  0  0  0
 16 17  1  0  0  0  0
 18 19  2  0  0  0  0
 18 20  1  0  0  0  0
 20 21  1  0  0  0  0
 20 22  1  0  0  0  0
 22 23  1  0  0  0  0
 22 24  1  0  0  0  0
 22 25  1  0  0  0  0
M  END
$$$$

  -OEChem-02102214113D

 25 24  0     1  0  0  0  0  0999 V2000
   -2.7033   -3.9509    0.3854 H   0  0  0  0  0  0  0  0  0  0  0  0
   -2.7348   -2.8985    0.0896 C   0  0  0  0  0  0  0  0  0  0  0  0
   -3.3508   -2.3494    0.8057 H   0  0  0  0  0  0  0  0  0  0  0  0
   -3.1873   -2.8247   -0.9022 H   0  0  0  0  0  0  0  0  0  0  0  0
   -1.3323   -2.3209    0.0618 C   0  0  0  0  0  0  0  0  0  0  0  0
   -0.3742   -3.0259    0.3371 O   0  0  0  0  0  0  0  0  0  0  0  0
   -1.1428   -0.9953   -0.2685 N   0  0  0  0  0  0  0  0  0  0  0  0
   -1.9735   -0.4141   -0.3775 H   0  0  0  0  0  0  0  0  0  0  0  0
    0.1498   -0.2987   -0.2162 C   0  0  1  0  0  0  0  0  0  0  0  0
    0.8735   -0.8582    0.3866 H   0  0  0  0  0  0  0  0  0  0  0  0
    0.6540   -0.2096   -1.6716 C   0  0  0  0  0  0  0  0  0  0  0  0
    0.7263   -1.2231   -2.0789 H   0  0  0  0  0  0  0  0  0  0  0  0
   -0.0815    0.3372   -2.2683 H   0  0  0  0  0  0  0  0  0  0  0  0
    2.0038    0.4840   -1.8530 C   0  0  0  0  0  0  0  0  0  0  0  0
    2.8072   -0.0548   -2.5936 O   0  0  0  0  0  0  0  0  0  0  0  0
    2.2469    1.6613   -1.2336 O   0  0  0  0  0  0  0  0  0  0  0  0
    3.1239    1.9440   -1.5365 H   0  0  0  0  0  0  0  0  0  0  0  0
   -0.0689    1.0756    0.4588 C   0  0  0  0  0  0  0  0  0  0  0  0
   -1.0775    1.7232    0.1970 O   0  0  0  0  0  0  0  0  0  0  0  0
    0.8014    1.5377    1.4293 N   0  0  0  0  0  0  0  0  0  0  0  0
    1.6663    1.0221    1.5616 H   0  0  0  0  0  0  0  0  0  0  0  0
    0.6573    2.8387    2.0707 C   0  0  0  0  0  0  0  0  0  0  0  0
   -0.3262    2.9270    2.5443 H   0  0  0  0  0  0  0  0  0  0  0  0
    1.4222    2.9668    2.8426 H   0  0  0  0  0  0  0  0  0  0  0  0
    0.7673    3.6416    1.3344 H   0  0  0  0  0  0  0  0  0  0  0  0
  1  2  1  0  0  0  0
  2  3  1  0  0  0  0
  2  4  1  0  0  0  0
  2  5  1  0  0  0  0
  5  6  2  0  0  0  0
  5  7  1  0  0  0  0
  7  8  1  0  0  0  0
  7  9  1  0  0  0  0
  9 10  1  0  0  0  0
  9 11  1  0  0  0  0
  9 18  1  0  0  0  0
 11 12  1  0  0  0  0
 11 13  1  0  0  0  0
 11 14  1  0  0  0  0
 14 15  2  0  0  0  0
 14 16  1  0  0  0  0
 16 17  1  0  0  0  0
 18 19  2  0  0  0  0
 18 20  1  0  0  0  0
 20 21  1  0  0  0  0
 20 22  1  0  0  0  0
 22 23  1  0  0  0  0
 22 24  1  0  0  0  0
 22 25  1  0  0  0  0
M  END
$$$$

  -OEChem-02102214113D

 25 24  0     1  0  0  0  0  0999 V2000
   -2.7096   -3.9399    0.3891 H   0  0  0  0  0  0  0  0  0  0  0  0
   -2.7371   -2.8867    0.0959 C   0  0  0  0  0  0  0  0  0  0  0  0
   -3.3402   -2.3349    0.8209 H   0  0  0  0  0  0  0  0  0  0  0  0
   -3.2017   -2.8068   -0.8897 H   0  0  0  0  0  0  0  0  0  0  0  0
   -1.3308   -2.3193    0.0526 C   0  0  0  0  0  0  0  0  0  0  0  0
   -0.3748   -3.0317    0.3162 O   0  0  0  0  0  0  0  0  0  0  0  0
   -1.1348   -0.9940   -0.2748 N   0  0  0  0  0  0  0  0  0  0  0  0
   -1.9625   -0.4062   -0.3717 H   0  0  0  0  0  0  0  0  0  0  0  0
    0.1608   -0.3038   -0.2132 C   0  0  1  0  0  0  0  0  0  0  0  0
    0.8835   -0.8653    0.3891 H   0  0  0  0  0  0  0  0  0  0  0  0
    0.6624   -0.2043   -1.6692 C   0  0  0  0  0  0  0  0  0  0  0  0
    0.7294   -1.2162   -2.0808 H   0  0  0  0  0  0  0  0  0  0  0  0
   -0.0756    0.3475   -2.2582 H   0  0  0  0  0  0  0  0  0  0  0  0
    2.0149    0.4805   -1.8676 C   0  0  0  0  0  0  0  0  0  0  0  0
    2.6808    0.1057   -2.8165 O   0  0  0  0  0  0  0  0  0  0  0  0
    2.4359    1.4327   -1.0039 O   0  0  0  0  0  0  0  0  0  0  0  0
    3.2924    1.7343   -1.3459 H   0  0  0  0  0  0  0  0  0  0  0  0
   -0.0714    1.0682    0.4647 C   0  0  0  0  0  0  0  0  0  0  0  0
   -1.0789    1.7127    0.1904 O   0  0  0  0  0  0  0  0  0  0  0  0
    0.7833    1.5352    1.4464 N   0  0  0  0  0  0  0  0  0  0  0  0
    1.6687    1.0483    1.5513 H   0  0  0  0  0  0  0  0  0  0  0  0
    0.6259    2.8391    2.0789 C   0  0  0  0  0  0  0  0  0  0  0  0
   -0.3595    2.9214    2.5498 H   0  0  0  0  0  0  0  0  0  0  0  0
    1.3878    2.9785    2.8517 H   0  0  0  0  0  0  0  0  0  0  0  0
    0.7306    3.6387    1.3381 H   0  0  0  0  0  0  0  0  0  0  0  0
  1  2  1  0  0  0  0
  2  3  1  0  0  0  0
  2  4  1  0  0  0  0
  2  5  1  0  0  0  0
  5  6  2  0  0  0  0
  5  7  1  0  0  0  0
  7  8  1  0  0  0  0
  7  9  1  0  0  0  0
  9 10  1  0  0  0  0
  9 11  1  0  0  0  0
  9 18  1  0  0  0  0
 11 12  1  0  0  0  0
 11 13  1  0  0  0  0
 11 14  1  0  0  0  0
 14 15  2  0  0  0  0
 14 16  1  0  0  0  0
 16 17  1  0  0  0  0
 18 19  2  0  0  0  0
 18 20  1  0  0  0  0
 20 21  1  0  0  0  0
 20 22  1  0  0  0  0
 22 23  1  0  0  0  0
 22 24  1  0  0  0  0
 22 25  1  0  0  0  0
M  END
$$$$

  -OEChem-02102214113D

 25 24  0     1  0  0  0  0  0999 V2000
   -2.7104   -3.9462    0.3888 H   0  0  0  0  0  0  0  0  0  0  0  0
   -2.7388   -2.8946    0.0899 C   0  0  0  0  0  0  0  0  0  0  0  0
   -3.3531   -2.3416    0.8045 H   0  0  0  0  0  0  0  0  0  0  0  0
   -3.1908   -2.8222   -0.9023 H   0  0  0  0  0  0  0  0  0  0  0  0
   -1.3345   -2.3217    0.0603 C   0  0  0  0  0  0  0  0  0  0  0  0
   -0.3778   -3.0325    0.3256 O   0  0  0  0  0  0  0  0  0  0  0  0
   -1.1403   -0.9967   -0.2697 N   0  0  0  0  0  0  0  0  0  0  0  0
   -1.9689   -0.4110   -0.3711 H   0  0  0  0  0  0  0  0  0  0  0  0
    0.1547   -0.3054   -0.2095 C   0  0  1  0  0  0  0  0  0  0  0  0
    0.8789   -0.8662    0.3919 H   0  0  0  0  0  0  0  0  0  0  0  0
    0.6556   -0.1953   -1.6639 C   0  0  0  0  0  0  0  0  0  0  0  0
    0.7303   -1.2039   -2.0814 H   0  0  0  0  0  0  0  0  0  0  0  0
   -0.0838    0.3567   -2.2512 H   0  0  0  0  0  0  0  0  0  0  0  0
    2.0070    0.4932   -1.8516 C   0  0  0  0  0  0  0  0  0  0  0  0
    2.5450    0.3438   -2.9341 O   0  0  0  0  0  0  0  0  0  0  0  0
    2.5933    1.1488   -0.8217 O   0  0  0  0  0  0  0  0  0  0  0  0
    3.4367    1.4765   -1.1735 H   0  0  0  0  0  0  0  0  0  0  0  0
   -0.0734    1.0691    0.4652 C   0  0  0  0  0  0  0  0  0  0  0  0
   -1.0761    1.7182    0.1852 O   0  0  0  0  0  0  0  0  0  0  0  0
    0.7830    1.5377    1.4439 N   0  0  0  0  0  0  0  0  0  0  0  0
    1.6780    1.0623    1.5248 H   0  0  0  0  0  0  0  0  0  0  0  0
    0.6331    2.8470    2.0668 C   0  0  0  0  0  0  0  0  0  0  0  0
   -0.3578    2.9449    2.5228 H   0  0  0  0  0  0  0  0  0  0  0  0
    1.3852    2.9813    2.8501 H   0  0  0  0  0  0  0  0  0  0  0  0
    0.7586    3.6406    1.3229 H   0  0  0  0  0  0  0  0  0  0  0  0
  1  2  1  0  0  0  0
  2  3  1  0  0  0  0
  2  4  1  0  0  0  0
  2  5  1  0  0  0  0
  5  6  2  0  0  0  0
  5  7  1  0  0  0  0
  7  8  1  0  0  0  0
  7  9  1  0  0  0  0
  9 10  1  0  0  0  0
  9 11  1  0  0  0  0
  9 18  1  0  0  0  0
 11 12  1  0  0  0  0
 11 13  1  0  0  0  0
 11 14  1  0  0  0  0
 14 15  2  0  0  0  0
 14 16  1  0  0  0  0
 16 17  1  0  0  0  0
 18 19  2  0  0  0  0
 18 20  1  0  0  0  0
 20 21  1  0  0  0  0
 20 22  1  0  0  0  0
 22 23  1  0  0  0  0
 22 24  1  0  0  0  0
 22 25  1  0  0  0  0
M  END
$$$$

  -OEChem-02102214113D

 25 24  0     1  0  0  0  0  0999 V2000
   -2.7235   -3.9760    0.4113 H   0  0  0  0  0  0  0  0  0  0  0  0
   -2.7610   -2.9295    0.0963 C   0  0  0  0  0  0  0  0  0  0  0  0
   -3.3797   -2.3710    0.8027 H   0  0  0  0  0  0  0  0  0  0  0  0
   -3.2145   -2.8762   -0.8964 H   0  0  0  0  0  0  0  0  0  0  0  0
   -1.3618   -2.3443    0.0573 C   0  0  0  0  0  0  0  0  0  0  0  0
   -0.3988   -3.0458    0.3243 O   0  0  0  0  0  0  0  0  0  0  0  0
   -1.1817   -1.0195   -0.2833 N   0  0  0  0  0  0  0  0  0  0  0  0
   -2.0177   -0.4485   -0.4015 H   0  0  0  0  0  0  0  0  0  0  0  0
    0.1027   -0.3081   -0.2285 C   0  0  1  0  0  0  0  0  0  0  0  0
    0.8047   -0.8760    0.3924 H   0  0  0  0  0  0  0  0  0  0  0  0
    0.6573   -0.2019   -1.6601 C   0  0  0  0  0  0  0  0  0  0  0  0
    0.5522   -1.1723   -2.1538 H   0  0  0  0  0  0  0  0  0  0  0  0
    0.0730    0.5297   -2.2260 H   0  0  0  0  0  0  0  0  0  0  0  0
    2.1335    0.1847   -1.7188 C   0  0  0  0  0  0  0  0  0  0  0  0
    2.6330    0.2857   -2.8248 O   0  0  0  0  0  0  0  0  0  0  0  0
    2.8288    0.3788   -0.5693 O   0  0  0  0  0  0  0  0  0  0  0  0
    3.7348    0.5861   -0.8508 H   0  0  0  0  0  0  0  0  0  0  0  0
   -0.0690    1.0802    0.4228 C   0  0  0  0  0  0  0  0  0  0  0  0
   -1.0562    1.7555    0.1549 O   0  0  0  0  0  0  0  0  0  0  0  0
    0.8279    1.5291    1.3729 N   0  0  0  0  0  0  0  0  0  0  0  0
    1.6935    1.0015    1.4649 H   0  0  0  0  0  0  0  0  0  0  0  0
    0.7379    2.8444    1.9945 C   0  0  0  0  0  0  0  0  0  0  0  0
   -0.2393    2.9773    2.4709 H   0  0  0  0  0  0  0  0  0  0  0  0
    1.5109    2.9541    2.7611 H   0  0  0  0  0  0  0  0  0  0  0  0
    0.8750    3.6317    1.2459 H   0  0  0  0  0  0  0  0  0  0  0  0
  1  2  1  0  0  0  0
  2  3  1  0  0  0  0
  2  4  1  0  0  0  0
  2  5  1  0  0  0  0
  5  6  2  0  0  0  0
  5  7  1  0  0  0  0
  7  8  1  0  0  0  0
  7  9  1  0  0  0  0
  9 10  1  0  0  0  0
  9 11  1  0  0  0  0
  9 18  1  0  0  0  0
 11 12  1  0  0  0  0
 11 13  1  0  0  0  0
 11 14  1  0  0  0  0
 14 15  2  0  0  0  0
 14 16  1  0  0  0  0
 16 17  1  0  0  0  0
 18 19  2  0  0  0  0
 18 20  1  0  0  0  0
 20 21  1  0  0  0  0
 20 22  1  0  0  0  0
 22 23  1  0  0  0  0
 22 24  1  0  0  0  0
 22 25  1  0  0  0  0
M  END
$$$$

  -OEChem-02102214113D

 25 24  0     1  0  0  0  0  0999 V2000
   -2.7264   -3.9794    0.4176 H   0  0  0  0  0  0  0  0  0  0  0  0
   -2.7659   -2.9338    0.0991 C   0  0  0  0  0  0  0  0  0  0  0  0
   -3.3855   -2.3741    0.8040 H   0  0  0  0  0  0  0  0  0  0  0  0
   -3.2200   -2.8842   -0.8934 H   0  0  0  0  0  0  0  0  0  0  0  0
   -1.3677   -2.3460    0.0575 C   0  0  0  0  0  0  0  0  0  0  0  0
   -0.4035   -3.0449    0.3266 O   0  0  0  0  0  0  0  0  0  0  0  0
   -1.1914   -1.0219   -0.2882 N   0  0  0  0  0  0  0  0  0  0  0  0
   -2.0298   -0.4557   -0.4117 H   0  0  0  0  0  0  0  0  0  0  0  0
    0.0898   -0.3045   -0.2374 C   0  0  1  0  0  0  0  0  0  0  0  0
    0.7849   -0.8720    0.3916 H   0  0  0  0  0  0  0  0  0  0  0  0
    0.6559   -0.2147   -1.6647 C   0  0  0  0  0  0  0  0  0  0  0  0
    0.5647   -1.1927   -2.1455 H   0  0  0  0  0  0  0  0  0  0  0  0
    0.0715    0.5043   -2.2468 H   0  0  0  0  0  0  0  0  0  0  0  0
    2.1302    0.1803   -1.7069 C   0  0  0  0  0  0  0  0  0  0  0  0
    2.5758    0.5436   -2.7805 O   0  0  0  0  0  0  0  0  0  0  0  0
    2.8748    0.1237   -0.5735 O   0  0  0  0  0  0  0  0  0  0  0  0
    3.7704    0.3860   -0.8415 H   0  0  0  0  0  0  0  0  0  0  0  0
   -0.0638    1.0885    0.4045 C   0  0  0  0  0  0  0  0  0  0  0  0
   -1.0436    1.7743    0.1383 O   0  0  0  0  0  0  0  0  0  0  0  0
    0.8471    1.5304    1.3446 N   0  0  0  0  0  0  0  0  0  0  0  0
    1.6874    0.9703    1.4708 H   0  0  0  0  0  0  0  0  0  0  0  0
    0.7644    2.8359    1.9879 C   0  0  0  0  0  0  0  0  0  0  0  0
   -0.2100    2.9651    2.4712 H   0  0  0  0  0  0  0  0  0  0  0  0
    1.5412    2.9307    2.7528 H   0  0  0  0  0  0  0  0  0  0  0  0
    0.9010    3.6348    1.2517 H   0  0  0  0  0  0  0  0  0  0  0  0
  1  2  1  0  0  0  0
  2  3  1  0  0  0  0
  2  4  1  0  0  0  0
  2  5  1  0  0  0  0
  5  6  2  0  0  0  0
  5  7  1  0  0  0  0
  7  8  1  0  0  0  0
  7  9  1  0  0  0  0
  9 10  1  0  0  0  0
  9 11  1  0  0  0  0
  9 18  1  0  0  0  0
 11 12  1  0  0  0  0
 11 13  1  0  0  0  0
 11 14  1  0  0  0  0
 14 15  2  0  0  0  0
 14 16  1  0  0  0  0
 16 17  1  0  0  0  0
 18 19  2  0  0  0  0
 18 20  1  0  0  0  0
 20 21  1  0  0  0  0
 20 22  1  0  0  0  0
 22 23  1  0  0  0  0
 22 24  1  0  0  0  0
 22 25  1  0  0  0  0
M  END
$$$$

  -OEChem-02102214113D

 25 24  0     1  0  0  0  0  0999 V2000
   -2.7271   -3.9856    0.4111 H   0  0  0  0  0  0  0  0  0  0  0  0
   -2.7695   -2.9382    0.0996 C   0  0  0  0  0  0  0  0  0  0  0  0
   -3.3846   -2.3836    0.8124 H   0  0  0  0  0  0  0  0  0  0  0  0
   -3.2300   -2.8829   -0.8898 H   0  0  0  0  0  0  0  0  0  0  0  0
   -1.3719   -2.3501    0.0534 C   0  0  0  0  0  0  0  0  0  0  0  0
   -0.4074   -3.0488    0.3215 O   0  0  0  0  0  0  0  0  0  0  0  0
   -1.1970   -1.0258   -0.2923 N   0  0  0  0  0  0  0  0  0  0  0  0
   -2.0360   -0.4616   -0.4198 H   0  0  0  0  0  0  0  0  0  0  0  0
    0.0827   -0.3057   -0.2446 C   0  0  1  0  0  0  0  0  0  0  0  0
    0.7754   -0.8743    0.3859 H   0  0  0  0  0  0  0  0  0  0  0  0
    0.6513   -0.2162   -1.6703 C   0  0  0  0  0  0  0  0  0  0  0  0
    0.5682   -1.1946   -2.1511 H   0  0  0  0  0  0  0  0  0  0  0  0
    0.0658    0.4994   -2.2561 H   0  0  0  0  0  0  0  0  0  0  0  0
    2.1241    0.1843   -1.6942 C   0  0  0  0  0  0  0  0  0  0  0  0
    2.5204    0.8077   -2.6625 O   0  0  0  0  0  0  0  0  0  0  0  0
    2.9181   -0.1436   -0.6449 O   0  0  0  0  0  0  0  0  0  0  0  0
    3.8057    0.1692   -0.8823 H   0  0  0  0  0  0  0  0  0  0  0  0
   -0.0597    1.0878    0.3953 C   0  0  0  0  0  0  0  0  0  0  0  0
   -1.0326    1.7821    0.1272 O   0  0  0  0  0  0  0  0  0  0  0  0
    0.8598    1.5250    1.3294 N   0  0  0  0  0  0  0  0  0  0  0  0
    1.6728    0.9363    1.4956 H   0  0  0  0  0  0  0  0  0  0  0  0
    0.7886    2.8324    1.9698 C   0  0  0  0  0  0  0  0  0  0  0  0
   -0.1644    2.9505    2.4962 H   0  0  0  0  0  0  0  0  0  0  0  0
    1.5992    2.9426    2.6964 H   0  0  0  0  0  0  0  0  0  0  0  0
    0.8799    3.6292    1.2242 H   0  0  0  0  0  0  0  0  0  0  0  0
  1  2  1  0  0  0  0
  2  3  1  0  0  0  0
  2  4  1  0  0  0  0
  2  5  1  0  0  0  0
  5  6  2  0  0  0  0
  5  7  1  0  0  0  0
  7  8  1  0  0  0  0
  7  9  1  0  0  0  0
  9 10  1  0  0  0  0
  9 11  1  0  0  0  0
  9 18  1  0  0  0  0
 11 12  1  0  0  0  0
 11 13  1  0  0  0  0
 11 14  1  0  0  0  0
 14 15  2  0  0  0  0
 14 16  1  0  0  0  0
 16 17  1  0  0  0  0
 18 19  2  0  0  0  0
 18 20  1  0  0  0  0
 20 21  1  0  0  0  0
 20 22  1  0  0  0  0
 22 23  1  0  0  0  0
 22 24  1  0  0  0  0
 22 25  1  0  0  0  0
M  END
$$$$

  -OEChem-02102214113D

 25 24  0     1  0  0  0  0  0999 V2000
   -2.7262   -3.9833    0.4157 H   0  0  0  0  0  0  0  0  0  0  0  0
   -2.7675   -2.9363    0.1027 C   0  0  0  0  0  0  0  0  0  0  0  0
   -3.3814   -2.3801    0.8152 H   0  0  0  0  0  0  0  0  0  0  0  0
   -3.2287   -2.8821   -0.8863 H   0  0  0  0  0  0  0  0  0  0  0  0
   -1.3694   -2.3493    0.0548 C   0  0  0  0  0  0  0  0  0  0  0  0
   -0.4056   -3.0473    0.3273 O   0  0  0  0  0  0  0  0  0  0  0  0
   -1.1940   -1.0256   -0.2929 N   0  0  0  0  0  0  0  0  0  0  0  0
   -2.0326   -0.4616   -0.4240 H   0  0  0  0  0  0  0  0  0  0  0  0
    0.0868   -0.3071   -0.2520 C   0  0  1  0  0  0  0  0  0  0  0  0
    0.7858   -0.8752    0.3721 H   0  0  0  0  0  0  0  0  0  0  0  0
    0.6442   -0.2161   -1.6814 C   0  0  0  0  0  0  0  0  0  0  0  0
    0.5606   -1.1930   -2.1648 H   0  0  0  0  0  0  0  0  0  0  0  0
    0.0575    0.5004   -2.2650 H   0  0  0  0  0  0  0  0  0  0  0  0
    2.1161    0.1827   -1.6966 C   0  0  0  0  0  0  0  0  0  0  0  0
    2.4677    1.0332   -2.4942 O   0  0  0  0  0  0  0  0  0  0  0  0
    2.9595   -0.4039   -0.8138 O   0  0  0  0  0  0  0  0  0  0  0  0
    3.8400   -0.0485   -1.0134 H   0  0  0  0  0  0  0  0  0  0  0  0
   -0.0525    1.0868    0.3878 C   0  0  0  0  0  0  0  0  0  0  0  0
   -1.0238    1.7832    0.1193 O   0  0  0  0  0  0  0  0  0  0  0  0
    0.8705    1.5254    1.3182 N   0  0  0  0  0  0  0  0  0  0  0  0
    1.6632    0.9204    1.5172 H   0  0  0  0  0  0  0  0  0  0  0  0
    0.7952    2.8300    1.9643 C   0  0  0  0  0  0  0  0  0  0  0  0
   -0.1522    2.9375    2.5030 H   0  0  0  0  0  0  0  0  0  0  0  0
    1.6140    2.9457    2.6810 H   0  0  0  0  0  0  0  0  0  0  0  0
    0.8702    3.6299    1.2202 H   0  0  0  0  0  0  0  0  0  0  0  0
  1  2  1  0  0  0  0
  2  3  1  0  0  0  0
  2  4  1  0  0  0  0
  2  5  1  0  0  0  0
  5  6  2  0  0  0  0
  5  7  1  0  0  0  0
  7  8  1  0  0  0  0
  7  9  1  0  0  0  0
  9 10  1  0  0  0  0
  9 11  1  0  0  0  0
  9 18  1  0  0  0  0
 11 12  1  0  0  0  0
 11 13  1  0  0  0  0
 11 14  1  0  0  0  0
 14 15  2  0  0  0  0
 14 16  1  0  0  0  0
 16 17  1  0  0  0  0
 18 19  2  0  0  0  0
 18 20  1  0  0  0  0
 20 21  1  0  0  0  0
 20 22  1  0  0  0  0
 22 23  1  0  0  0  0
 22 24  1  0  0  0  0
 22 25  1  0  0  0  0
M  END
$$$$

  -OEChem-02102214113D

 25 24  0     1  0  0  0  0  0999 V2000
   -2.7258   -3.9789    0.4221 H   0  0  0  0  0  0  0  0  0  0  0  0
   -2.7649   -2.9325    0.1067 C   0  0  0  0  0  0  0  0  0  0  0  0
   -3.3779   -2.3731    0.8176 H   0  0  0  0  0  0  0  0  0  0  0  0
   -3.2259   -2.8795   -0.8825 H   0  0  0  0  0  0  0  0  0  0  0  0
   -1.3655   -2.3484    0.0571 C   0  0  0  0  0  0  0  0  0  0  0  0
   -0.4030   -3.0469    0.3326 O   0  0  0  0  0  0  0  0  0  0  0  0
   -1.1878   -1.0253   -0.2918 N   0  0  0  0  0  0  0  0  0  0  0  0
   -2.0250   -0.4588   -0.4219 H   0  0  0  0  0  0  0  0  0  0  0  0
    0.0957   -0.3110   -0.2584 C   0  0  1  0  0  0  0  0  0  0  0  0
    0.8047   -0.8784    0.3550 H   0  0  0  0  0  0  0  0  0  0  0  0
    0.6372   -0.2137   -1.6928 C   0  0  0  0  0  0  0  0  0  0  0  0
    0.5472   -1.1864   -2.1835 H   0  0  0  0  0  0  0  0  0  0  0  0
    0.0508    0.5095   -2.2684 H   0  0  0  0  0  0  0  0  0  0  0  0
    2.1086    0.1797   -1.7028 C   0  0  0  0  0  0  0  0  0  0  0  0
    2.4280    1.2077   -2.2726 O   0  0  0  0  0  0  0  0  0  0  0  0
    2.9884   -0.6176   -1.0532 O   0  0  0  0  0  0  0  0  0  0  0  0
    3.8637   -0.2282   -1.2037 H   0  0  0  0  0  0  0  0  0  0  0  0
   -0.0463    1.0823    0.3841 C   0  0  0  0  0  0  0  0  0  0  0  0
   -1.0231    1.7736    0.1216 O   0  0  0  0  0  0  0  0  0  0  0  0
    0.8769    1.5248    1.3129 N   0  0  0  0  0  0  0  0  0  0  0  0
    1.6690    0.9215    1.5171 H   0  0  0  0  0  0  0  0  0  0  0  0
    0.7945    2.8278    1.9614 C   0  0  0  0  0  0  0  0  0  0  0  0
   -0.1577    2.9332    2.4922 H   0  0  0  0  0  0  0  0  0  0  0  0
    1.6069    2.9427    2.6853 H   0  0  0  0  0  0  0  0  0  0  0  0
    0.8750    3.6293    1.2195 H   0  0  0  0  0  0  0  0  0  0  0  0
  1  2  1  0  0  0  0
  2  3  1  0  0  0  0
  2  4  1  0  0  0  0
  2  5  1  0  0  0  0
  5  6  2  0  0  0  0
  5  7  1  0  0  0  0
  7  8  1  0  0  0  0
  7  9  1  0  0  0  0
  9 10  1  0  0  0  0
  9 11  1  0  0  0  0
  9 18  1  0  0  0  0
 11 12  1  0  0  0  0
 11 13  1  0  0  0  0
 11 14  1  0  0  0  0
 14 15  2  0  0  0  0
 14 16  1  0  0  0  0
 16 17  1  0  0  0  0
 18 19  2  0  0  0  0
 18 20  1  0  0  0  0
 20 21  1  0  0  0  0
 20 22  1  0  0  0  0
 22 23  1  0  0  0  0
 22 24  1  0  0  0  0
 22 25  1  0  0  0  0
M  END
$$$$

  -OEChem-02102214113D

 25 24  0     1  0  0  0  0  0999 V2000
   -2.7274   -3.9766    0.4255 H   0  0  0  0  0  0  0  0  0  0  0  0
   -2.7651   -2.9305    0.1086 C   0  0  0  0  0  0  0  0  0  0  0  0
   -3.3733   -2.3687    0.8216 H   0  0  0  0  0  0  0  0  0  0  0  0
   -3.2306   -2.8777   -0.8785 H   0  0  0  0  0  0  0  0  0  0  0  0
   -1.3643   -2.3500    0.0525 C   0  0  0  0  0  0  0  0  0  0  0  0
   -0.4022   -3.0513    0.3218 O   0  0  0  0  0  0  0  0  0  0  0  0
   -1.1844   -1.0265   -0.2929 N   0  0  0  0  0  0  0  0  0  0  0  0
   -2.0207   -0.4563   -0.4121 H   0  0  0  0  0  0  0  0  0  0  0  0
    0.1011   -0.3161   -0.2630 C   0  0  1  0  0  0  0  0  0  0  0  0
    0.8161   -0.8858    0.3418 H   0  0  0  0  0  0  0  0  0  0  0  0
    0.6324   -0.2096   -1.6995 C   0  0  0  0  0  0  0  0  0  0  0  0
    0.5356   -1.1768   -2.2001 H   0  0  0  0  0  0  0  0  0  0  0  0
    0.0488    0.5224   -2.2667 H   0  0  0  0  0  0  0  0  0  0  0  0
    2.1038    0.1788   -1.7048 C   0  0  0  0  0  0  0  0  0  0  0  0
    2.4030    1.3201   -2.0075 O   0  0  0  0  0  0  0  0  0  0  0  0
    3.0071   -0.7579   -1.3355 O   0  0  0  0  0  0  0  0  0  0  0  0
    3.8789   -0.3437   -1.4275 H   0  0  0  0  0  0  0  0  0  0  0  0
   -0.0452    1.0745    0.3867 C   0  0  0  0  0  0  0  0  0  0  0  0
   -1.0321    1.7567    0.1371 O   0  0  0  0  0  0  0  0  0  0  0  0
    0.8762    1.5191    1.3163 N   0  0  0  0  0  0  0  0  0  0  0  0
    1.6871    0.9343    1.4964 H   0  0  0  0  0  0  0  0  0  0  0  0
    0.7952    2.8271    1.9549 C   0  0  0  0  0  0  0  0  0  0  0  0
   -0.1575    2.9381    2.4835 H   0  0  0  0  0  0  0  0  0  0  0  0
    1.6066    2.9459    2.6794 H   0  0  0  0  0  0  0  0  0  0  0  0
    0.8782    3.6229    1.2072 H   0  0  0  0  0  0  0  0  0  0  0  0
  1  2  1  0  0  0  0
  2  3  1  0  0  0  0
  2  4  1  0  0  0  0
  2  5  1  0  0  0  0
  5  6  2  0  0  0  0
  5  7  1  0  0  0  0
  7  8  1  0  0  0  0
  7  9  1  0  0  0  0
  9 10  1  0  0  0  0
  9 11  1  0  0  0  0
  9 18  1  0  0  0  0
 11 12  1  0  0  0  0
 11 13  1  0  0  0  0
 11 14  1  0  0  0  0
 14 15  2  0  0  0  0
 14 16  1  0  0  0  0
 16 17  1  0  0  0  0
 18 19  2  0  0  0  0
 18 20  1  0  0  0  0
 20 21  1  0  0  0  0
 20 22  1  0  0  0  0
 22 23  1  0  0  0  0
 22 24  1  0  0  0  0
 22 25  1  0  0  0  0
M  END
$$$$

  -OEChem-02102214113D

 25 24  0     1  0  0  0  0  0999 V2000
   -2.7307   -3.9716    0.4268 H   0  0  0  0  0  0  0  0  0  0  0  0
   -2.7651   -2.9256    0.1099 C   0  0  0  0  0  0  0  0  0  0  0  0
   -3.3702   -2.3610    0.8233 H   0  0  0  0  0  0  0  0  0  0  0  0
   -3.2319   -2.8713   -0.8765 H   0  0  0  0  0  0  0  0  0  0  0  0
   -1.3627   -2.3501    0.0511 C   0  0  0  0  0  0  0  0  0  0  0  0
   -0.4015   -3.0543    0.3168 O   0  0  0  0  0  0  0  0  0  0  0  0
   -1.1804   -1.0262   -0.2912 N   0  0  0  0  0  0  0  0  0  0  0  0
   -2.0152   -0.4517   -0.4010 H   0  0  0  0  0  0  0  0  0  0  0  0
    0.1074   -0.3203   -0.2618 C   0  0  1  0  0  0  0  0  0  0  0  0
    0.8250   -0.8917    0.3382 H   0  0  0  0  0  0  0  0  0  0  0  0
    0.6317   -0.2081   -1.7010 C   0  0  0  0  0  0  0  0  0  0  0  0
    0.5249   -1.1715   -2.2072 H   0  0  0  0  0  0  0  0  0  0  0  0
    0.0508    0.5310   -2.2614 H   0  0  0  0  0  0  0  0  0  0  0  0
    2.1045    0.1740   -1.7142 C   0  0  0  0  0  0  0  0  0  0  0  0
    2.4004    1.3557   -1.7361 O   0  0  0  0  0  0  0  0  0  0  0  0
    3.0156   -0.8243   -1.6688 O   0  0  0  0  0  0  0  0  0  0  0  0
    3.8861   -0.3996   -1.7054 H   0  0  0  0  0  0  0  0  0  0  0  0
   -0.0460    1.0677    0.3945 C   0  0  0  0  0  0  0  0  0  0  0  0
   -1.0429    1.7395    0.1553 O   0  0  0  0  0  0  0  0  0  0  0  0
    0.8706    1.5148    1.3279 N   0  0  0  0  0  0  0  0  0  0  0  0
    1.7084    0.9582    1.4693 H   0  0  0  0  0  0  0  0  0  0  0  0
    0.7871    2.8276    1.9561 C   0  0  0  0  0  0  0  0  0  0  0  0
   -0.1728    2.9474    2.4695 H   0  0  0  0  0  0  0  0  0  0  0  0
    1.5878    2.9467    2.6924 H   0  0  0  0  0  0  0  0  0  0  0  0
    0.8860    3.6179    1.2045 H   0  0  0  0  0  0  0  0  0  0  0  0
  1  2  1  0  0  0  0
  2  3  1  0  0  0  0
  2  4  1  0  0  0  0
  2  5  1  0  0  0  0
  5  6  2  0  0  0  0
  5  7  1  0  0  0  0
  7  8  1  0  0  0  0
  7  9  1  0  0  0  0
  9 10  1  0  0  0  0
  9 11  1  0  0  0  0
  9 18  1  0  0  0  0
 11 12  1  0  0  0  0
 11 13  1  0  0  0  0
 11 14  1  0  0  0  0
 14 15  2  0  0  0  0
 14 16  1  0  0  0  0
 16 17  1  0  0  0  0
 18 19  2  0  0  0  0
 18 20  1  0  0  0  0
 20 21  1  0  0  0  0
 20 22  1  0  0  0  0
 22 23  1  0  0  0  0
 22 24  1  0  0  0  0
 22 25  1  0  0  0  0
M  END
$$$$

  -OEChem-02102214113D

 25 24  0     1  0  0  0  0  0999 V2000
   -2.7308   -3.9658    0.4270 H   0  0  0  0  0  0  0  0  0  0  0  0
   -2.7648   -2.9192    0.1115 C   0  0  0  0  0  0  0  0  0  0  0  0
   -3.3661   -2.3548    0.8284 H   0  0  0  0  0  0  0  0  0  0  0  0
   -3.2352   -2.8626   -0.8731 H   0  0  0  0  0  0  0  0  0  0  0  0
   -1.3614   -2.3466    0.0479 C   0  0  0  0  0  0  0  0  0  0  0  0
   -0.4002   -3.0547    0.3033 O   0  0  0  0  0  0  0  0  0  0  0  0
   -1.1763   -1.0222   -0.2902 N   0  0  0  0  0  0  0  0  0  0  0  0
   -2.0092   -0.4425   -0.3887 H   0  0  0  0  0  0  0  0  0  0  0  0
    0.1145   -0.3219   -0.2568 C   0  0  1  0  0  0  0  0  0  0  0  0
    0.8315   -0.8939    0.3429 H   0  0  0  0  0  0  0  0  0  0  0  0
    0.6372   -0.2091   -1.6979 C   0  0  0  0  0  0  0  0  0  0  0  0
    0.5180   -1.1707   -2.2055 H   0  0  0  0  0  0  0  0  0  0  0  0
    0.0585    0.5348   -2.2534 H   0  0  0  0  0  0  0  0  0  0  0  0
    2.1131    0.1646   -1.7295 C   0  0  0  0  0  0  0  0  0  0  0  0
    2.4331    1.3135   -1.4784 O   0  0  0  0  0  0  0  0  0  0  0  0
    3.0023   -0.8120   -2.0205 O   0  0  0  0  0  0  0  0  0  0  0  0
    3.8777   -0.3961   -2.0115 H   0  0  0  0  0  0  0  0  0  0  0  0
   -0.0494    1.0630    0.4068 C   0  0  0  0  0  0  0  0  0  0  0  0
   -1.0554    1.7247    0.1749 O   0  0  0  0  0  0  0  0  0  0  0  0
    0.8589    1.5112    1.3478 N   0  0  0  0  0  0  0  0  0  0  0  0
    1.7242    0.9881    1.4443 H   0  0  0  0  0  0  0  0  0  0  0  0
    0.7714    2.8295    1.9638 C   0  0  0  0  0  0  0  0  0  0  0  0
   -0.1936    2.9564    2.4657 H   0  0  0  0  0  0  0  0  0  0  0  0
    1.5639    2.9524    2.7082 H   0  0  0  0  0  0  0  0  0  0  0  0
    0.8808    3.6127    1.2063 H   0  0  0  0  0  0  0  0  0  0  0  0
  1  2  1  0  0  0  0
  2  3  1  0  0  0  0
  2  4  1  0  0  0  0
  2  5  1  0  0  0  0
  5  6  2  0  0  0  0
  5  7  1  0  0  0  0
  7  8  1  0  0  0  0
  7  9  1  0  0  0  0
  9 10  1  0  0  0  0
  9 11  1  0  0  0  0
  9 18  1  0  0  0  0
 11 12  1  0  0  0  0
 11 13  1  0  0  0  0
 11 14  1  0  0  0  0
 14 15  2  0  0  0  0
 14 16  1  0  0  0  0
 16 17  1  0  0  0  0
 18 19  2  0  0  0  0
 18 20  1  0  0  0  0
 20 21  1  0  0  0  0
 20 22  1  0  0  0  0
 22 23  1  0  0  0  0
 22 24  1  0  0  0  0
 22 25  1  0  0  0  0
M  END
$$$$

  -OEChem-02102214113D

 25 24  0     1  0  0  0  0  0999 V2000
   -2.7331   -3.9572    0.4291 H   0  0  0  0  0  0  0  0  0  0  0  0
   -2.7648   -2.9102    0.1148 C   0  0  0  0  0  0  0  0  0  0  0  0
   -3.3616   -2.3444    0.8345 H   0  0  0  0  0  0  0  0  0  0  0  0
   -3.2387   -2.8511   -0.8680 H   0  0  0  0  0  0  0  0  0  0  0  0
   -1.3597   -2.3423    0.0463 C   0  0  0  0  0  0  0  0  0  0  0  0
   -0.3996   -3.0557    0.2916 O   0  0  0  0  0  0  0  0  0  0  0  0
   -1.1704   -1.0178   -0.2892 N   0  0  0  0  0  0  0  0  0  0  0  0
   -2.0009   -0.4327   -0.3769 H   0  0  0  0  0  0  0  0  0  0  0  0
    0.1236   -0.3234   -0.2503 C   0  0  1  0  0  0  0  0  0  0  0  0
    0.8383   -0.8958    0.3517 H   0  0  0  0  0  0  0  0  0  0  0  0
    0.6478   -0.2118   -1.6929 C   0  0  0  0  0  0  0  0  0  0  0  0
    0.5177   -1.1735   -2.1977 H   0  0  0  0  0  0  0  0  0  0  0  0
    0.0704    0.5341   -2.2465 H   0  0  0  0  0  0  0  0  0  0  0  0
    2.1272    0.1536   -1.7483 C   0  0  0  0  0  0  0  0  0  0  0  0
    2.5001    1.2012   -1.2483 O   0  0  0  0  0  0  0  0  0  0  0  0
    2.9607   -0.7176   -2.3619 O   0  0  0  0  0  0  0  0  0  0  0  0
    3.8457   -0.3248   -2.3193 H   0  0  0  0  0  0  0  0  0  0  0  0
   -0.0514    1.0593    0.4178 C   0  0  0  0  0  0  0  0  0  0  0  0
   -1.0629    1.7132    0.1859 O   0  0  0  0  0  0  0  0  0  0  0  0
    0.8470    1.5098    1.3672 N   0  0  0  0  0  0  0  0  0  0  0  0
    1.7352    1.0193    1.4231 H   0  0  0  0  0  0  0  0  0  0  0  0
    0.7491    2.8303    1.9770 C   0  0  0  0  0  0  0  0  0  0  0  0
   -0.2214    2.9562    2.4684 H   0  0  0  0  0  0  0  0  0  0  0  0
    1.5334    2.9579    2.7291 H   0  0  0  0  0  0  0  0  0  0  0  0
    0.8640    3.6110    1.2177 H   0  0  0  0  0  0  0  0  0  0  0  0
  1  2  1  0  0  0  0
  2  3  1  0  0  0  0
  2  4  1  0  0  0  0
  2  5  1  0  0  0  0
  5  6  2  0  0  0  0
  5  7  1  0  0  0  0
  7  8  1  0  0  0  0
  7  9  1  0  0  0  0
  9 10  1  0  0  0  0
  9 11  1  0  0  0  0
  9 18  1  0  0  0  0
 11 12  1  0  0  0  0
 11 13  1  0  0  0  0
 11 14  1  0  0  0  0
 14 15  2  0  0  0  0
 14 16  1  0  0  0  0
 16 17  1  0  0  0  0
 18 19  2  0  0  0  0
 18 20  1  0  0  0  0
 20 21  1  0  0  0  0
 20 22  1  0  0  0  0
 22 23  1  0  0  0  0
 22 24  1  0  0  0  0
 22 25  1  0  0  0  0
M  END
$$$$

  -OEChem-02102214113D

 25 24  0     1  0  0  0  0  0999 V2000
   -2.7350   -3.9491    0.4319 H   0  0  0  0  0  0  0  0  0  0  0  0
   -2.7645   -2.9012    0.1207 C   0  0  0  0  0  0  0  0  0  0  0  0
   -3.3542   -2.3349    0.8457 H   0  0  0  0  0  0  0  0  0  0  0  0
   -3.2446   -2.8375   -0.8588 H   0  0  0  0  0  0  0  0  0  0  0  0
   -1.3576   -2.3386    0.0442 C   0  0  0  0  0  0  0  0  0  0  0  0
   -0.3984   -3.0564    0.2801 O   0  0  0  0  0  0  0  0  0  0  0  0
   -1.1650   -1.0146   -0.2910 N   0  0  0  0  0  0  0  0  0  0  0  0
   -1.9937   -0.4252   -0.3662 H   0  0  0  0  0  0  0  0  0  0  0  0
    0.1311   -0.3239   -0.2472 C   0  0  1  0  0  0  0  0  0  0  0  0
    0.8435   -0.8957    0.3582 H   0  0  0  0  0  0  0  0  0  0  0  0
    0.6589   -0.2139   -1.6904 C   0  0  0  0  0  0  0  0  0  0  0  0
    0.5240   -1.1777   -2.1901 H   0  0  0  0  0  0  0  0  0  0  0  0
    0.0816    0.5308   -2.2457 H   0  0  0  0  0  0  0  0  0  0  0  0
    2.1402    0.1460   -1.7669 C   0  0  0  0  0  0  0  0  0  0  0  0
    2.5826    1.0335   -1.0567 O   0  0  0  0  0  0  0  0  0  0  0  0
    2.8956   -0.5451   -2.6513 O   0  0  0  0  0  0  0  0  0  0  0  0
    3.7935   -0.1868   -2.5815 H   0  0  0  0  0  0  0  0  0  0  0  0
   -0.0529    1.0580    0.4218 C   0  0  0  0  0  0  0  0  0  0  0  0
   -1.0653    1.7090    0.1840 O   0  0  0  0  0  0  0  0  0  0  0  0
    0.8373    1.5103    1.3777 N   0  0  0  0  0  0  0  0  0  0  0  0
    1.7378    1.0392    1.4111 H   0  0  0  0  0  0  0  0  0  0  0  0
    0.7287    2.8286    1.9904 C   0  0  0  0  0  0  0  0  0  0  0  0
   -0.2441    2.9467    2.4792 H   0  0  0  0  0  0  0  0  0  0  0  0
    1.5099    2.9597    2.7453 H   0  0  0  0  0  0  0  0  0  0  0  0
    0.8406    3.6120    1.2337 H   0  0  0  0  0  0  0  0  0  0  0  0
  1  2  1  0  0  0  0
  2  3  1  0  0  0  0
  2  4  1  0  0  0  0
  2  5  1  0  0  0  0
  5  6  2  0  0  0  0
  5  7  1  0  0  0  0
  7  8  1  0  0  0  0
  7  9  1  0  0  0  0
  9 10  1  0  0  0  0
  9 11  1  0  0  0  0
  9 18  1  0  0  0  0
 11 12  1  0  0  0  0
 11 13  1  0  0  0  0
 11 14  1  0  0  0  0
 14 15  2  0  0  0  0
 14 16  1  0  0  0  0
 16 17  1  0  0  0  0
 18 19  2  0  0  0  0
 18 20  1  0  0  0  0
 20 21  1  0  0  0  0
 20 22  1  0  0  0  0
 22 23  1  0  0  0  0
 22 24  1  0  0  0  0
 22 25  1  0  0  0  0
M  END
$$$$

  -OEChem-02102214113D

 25 24  0     1  0  0  0  0  0999 V2000
   -2.7364   -3.9484    0.4379 H   0  0  0  0  0  0  0  0  0  0  0  0
   -2.7654   -2.9008    0.1256 C   0  0  0  0  0  0  0  0  0  0  0  0
   -3.3509   -2.3327    0.8524 H   0  0  0  0  0  0  0  0  0  0  0  0
   -3.2496   -2.8373   -0.8517 H   0  0  0  0  0  0  0  0  0  0  0  0
   -1.3580   -2.3403    0.0423 C   0  0  0  0  0  0  0  0  0  0  0  0
   -0.3984   -3.0599    0.2712 O   0  0  0  0  0  0  0  0  0  0  0  0
   -1.1660   -1.0163   -0.2932 N   0  0  0  0  0  0  0  0  0  0  0  0
   -1.9950   -0.4271   -0.3663 H   0  0  0  0  0  0  0  0  0  0  0  0
    0.1293   -0.3246   -0.2468 C   0  0  1  0  0  0  0  0  0  0  0  0
    0.8400   -0.8966    0.3607 H   0  0  0  0  0  0  0  0  0  0  0  0
    0.6625   -0.2119   -1.6879 C   0  0  0  0  0  0  0  0  0  0  0  0
    0.5303   -1.1755   -2.1883 H   0  0  0  0  0  0  0  0  0  0  0  0
    0.0829    0.5312   -2.2425 H   0  0  0  0  0  0  0  0  0  0  0  0
    2.1440    0.1497   -1.7724 C   0  0  0  0  0  0  0  0  0  0  0  0
    2.6568    0.8289   -0.8973 O   0  0  0  0  0  0  0  0  0  0  0  0
    2.8188   -0.2998   -2.8554 O   0  0  0  0  0  0  0  0  0  0  0  0
    3.7282    0.0223   -2.7621 H   0  0  0  0  0  0  0  0  0  0  0  0
   -0.0547    1.0581    0.4206 C   0  0  0  0  0  0  0  0  0  0  0  0
   -1.0648    1.7111    0.1791 O   0  0  0  0  0  0  0  0  0  0  0  0
    0.8347    1.5100    1.3770 N   0  0  0  0  0  0  0  0  0  0  0  0
    1.7389    1.0436    1.3992 H   0  0  0  0  0  0  0  0  0  0  0  0
    0.7255    2.8268    1.9924 C   0  0  0  0  0  0  0  0  0  0  0  0
   -0.2475    2.9432    2.4814 H   0  0  0  0  0  0  0  0  0  0  0  0
    1.5065    2.9560    2.7479 H   0  0  0  0  0  0  0  0  0  0  0  0
    0.8374    3.6121    1.2375 H   0  0  0  0  0  0  0  0  0  0  0  0
  1  2  1  0  0  0  0
  2  3  1  0  0  0  0
  2  4  1  0  0  0  0
  2  5  1  0  0  0  0
  5  6  2  0  0  0  0
  5  7  1  0  0  0  0
  7  8  1  0  0  0  0
  7  9  1  0  0  0  0
  9 10  1  0  0  0  0
  9 11  1  0  0  0  0
  9 18  1  0  0  0  0
 11 12  1  0  0  0  0
 11 13  1  0  0  0  0
 11 14  1  0  0  0  0
 14 15  2  0  0  0  0
 14 16  1  0  0  0  0
 16 17  1  0  0  0  0
 18 19  2  0  0  0  0
 18 20  1  0  0  0  0
 20 21  1  0  0  0  0
 20 22  1  0  0  0  0
 22 23  1  0  0  0  0
 22 24  1  0  0  0  0
 22 25  1  0  0  0  0
M  END
$$$$

  -OEChem-02102214113D

 25 24  0     1  0  0  0  0  0999 V2000
   -2.7279   -3.9617    0.4372 H   0  0  0  0  0  0  0  0  0  0  0  0
   -2.7637   -2.9150    0.1222 C   0  0  0  0  0  0  0  0  0  0  0  0
   -3.3559   -2.3497    0.8458 H   0  0  0  0  0  0  0  0  0  0  0  0
   -3.2449   -2.8576   -0.8571 H   0  0  0  0  0  0  0  0  0  0  0  0
   -1.3603   -2.3447    0.0430 C   0  0  0  0  0  0  0  0  0  0  0  0
   -0.3973   -3.0589    0.2740 O   0  0  0  0  0  0  0  0  0  0  0  0
   -1.1761   -1.0195   -0.2928 N   0  0  0  0  0  0  0  0  0  0  0  0
   -2.0090   -0.4371   -0.3734 H   0  0  0  0  0  0  0  0  0  0  0  0
    0.1147   -0.3195   -0.2458 C   0  0  1  0  0  0  0  0  0  0  0  0
    0.8232   -0.8909    0.3649 H   0  0  0  0  0  0  0  0  0  0  0  0
    0.6550   -0.2069   -1.6841 C   0  0  0  0  0  0  0  0  0  0  0  0
    0.5335   -1.1723   -2.1834 H   0  0  0  0  0  0  0  0  0  0  0  0
    0.0719    0.5314   -2.2415 H   0  0  0  0  0  0  0  0  0  0  0  0
    2.1345    0.1655   -1.7677 C   0  0  0  0  0  0  0  0  0  0  0  0
    2.7125    0.6086   -0.7869 O   0  0  0  0  0  0  0  0  0  0  0  0
    2.7339   -0.0093   -2.9675 O   0  0  0  0  0  0  0  0  0  0  0  0
    3.6542    0.2735   -2.8554 H   0  0  0  0  0  0  0  0  0  0  0  0
   -0.0599    1.0647    0.4180 C   0  0  0  0  0  0  0  0  0  0  0  0
   -1.0614    1.7281    0.1709 O   0  0  0  0  0  0  0  0  0  0  0  0
    0.8378    1.5117    1.3687 N   0  0  0  0  0  0  0  0  0  0  0  0
    1.7334    1.0280    1.3981 H   0  0  0  0  0  0  0  0  0  0  0  0
    0.7447    2.8291    1.9853 C   0  0  0  0  0  0  0  0  0  0  0  0
   -0.2258    2.9562    2.4765 H   0  0  0  0  0  0  0  0  0  0  0  0
    1.5286    2.9487    2.7393 H   0  0  0  0  0  0  0  0  0  0  0  0
    0.8635    3.6143    1.2314 H   0  0  0  0  0  0  0  0  0  0  0  0
  1  2  1  0  0  0  0
  2  3  1  0  0  0  0
  2  4  1  0  0  0  0
  2  5  1  0  0  0  0
  5  6  2  0  0  0  0
  5  7  1  0  0  0  0
  7  8  1  0  0  0  0
  7  9  1  0  0  0  0
  9 10  1  0  0  0  0
  9 11  1  0  0  0  0
  9 18  1  0  0  0  0
 11 12  1  0  0  0  0
 11 13  1  0  0  0  0
 11 14  1  0  0  0  0
 14 15  2  0  0  0  0
 14 16  1  0  0  0  0
 16 17  1  0  0  0  0
 18 19  2  0  0  0  0
 18 20  1  0  0  0  0
 20 21  1  0  0  0  0
 20 22  1  0  0  0  0
 22 23  1  0  0  0  0
 22 24  1  0  0  0  0
 22 25  1  0  0  0  0
M  END
$$$$

  -OEChem-02102214113D

 25 24  0     1  0  0  0  0  0999 V2000
   -2.7174   -3.9789    0.4350 H   0  0  0  0  0  0  0  0  0  0  0  0
   -2.7610   -2.9332    0.1175 C   0  0  0  0  0  0  0  0  0  0  0  0
   -3.3622   -2.3718    0.8366 H   0  0  0  0  0  0  0  0  0  0  0  0
   -3.2379   -2.8825   -0.8642 H   0  0  0  0  0  0  0  0  0  0  0  0
   -1.3623   -2.3500    0.0442 C   0  0  0  0  0  0  0  0  0  0  0  0
   -0.3939   -3.0566    0.2757 O   0  0  0  0  0  0  0  0  0  0  0  0
   -1.1892   -1.0229   -0.2915 N   0  0  0  0  0  0  0  0  0  0  0  0
   -2.0277   -0.4497   -0.3773 H   0  0  0  0  0  0  0  0  0  0  0  0
    0.0949   -0.3098   -0.2476 C   0  0  1  0  0  0  0  0  0  0  0  0
    0.8003   -0.8805    0.3674 H   0  0  0  0  0  0  0  0  0  0  0  0
    0.6445   -0.2016   -1.6822 C   0  0  0  0  0  0  0  0  0  0  0  0
    0.5379   -1.1701   -2.1784 H   0  0  0  0  0  0  0  0  0  0  0  0
    0.0569    0.5278   -2.2467 H   0  0  0  0  0  0  0  0  0  0  0  0
    2.1202    0.1878   -1.7564 C   0  0  0  0  0  0  0  0  0  0  0  0
    2.7564    0.3831   -0.7314 O   0  0  0  0  0  0  0  0  0  0  0  0
    2.6526    0.2989   -2.9947 O   0  0  0  0  0  0  0  0  0  0  0  0
    3.5830    0.5406   -2.8699 H   0  0  0  0  0  0  0  0  0  0  0  0
   -0.0656    1.0760    0.4122 C   0  0  0  0  0  0  0  0  0  0  0  0
   -1.0607    1.7490    0.1678 O   0  0  0  0  0  0  0  0  0  0  0  0
    0.8461    1.5167    1.3521 N   0  0  0  0  0  0  0  0  0  0  0  0
    1.7279    1.0087    1.3962 H   0  0  0  0  0  0  0  0  0  0  0  0
    0.7696    2.8319    1.9755 C   0  0  0  0  0  0  0  0  0  0  0  0
   -0.1971    2.9663    2.4724 H   0  0  0  0  0  0  0  0  0  0  0  0
    1.5586    2.9402    2.7260 H   0  0  0  0  0  0  0  0  0  0  0  0
    0.8926    3.6192    1.2244 H   0  0  0  0  0  0  0  0  0  0  0  0
  1  2  1  0  0  0  0
  2  3  1  0  0  0  0
  2  4  1  0  0  0  0
  2  5  1  0  0  0  0
  5  6  2  0  0  0  0
  5  7  1  0  0  0  0
  7  8  1  0  0  0  0
  7  9  1  0  0  0  0
  9 10  1  0  0  0  0
  9 11  1  0  0  0  0
  9 18  1  0  0  0  0
 11 12  1  0  0  0  0
 11 13  1  0  0  0  0
 11 14  1  0  0  0  0
 14 15  2  0  0  0  0
 14 16  1  0  0  0  0
 16 17  1  0  0  0  0
 18 19  2  0  0  0  0
 18 20  1  0  0  0  0
 20 21  1  0  0  0  0
 20 22  1  0  0  0  0
 22 23  1  0  0  0  0
 22 24  1  0  0  0  0
 22 25  1  0  0  0  0
M  END
$$$$

  -OEChem-02102214113D

 25 24  0     1  0  0  0  0  0999 V2000
   -2.7085   -3.9921    0.4320 H   0  0  0  0  0  0  0  0  0  0  0  0
   -2.7579   -2.9458    0.1174 C   0  0  0  0  0  0  0  0  0  0  0  0
   -3.3633   -2.3904    0.8378 H   0  0  0  0  0  0  0  0  0  0  0  0
   -3.2338   -2.8950   -0.8649 H   0  0  0  0  0  0  0  0  0  0  0  0
   -1.3627   -2.3541    0.0472 C   0  0  0  0  0  0  0  0  0  0  0  0
   -0.3910   -3.0534    0.2859 O   0  0  0  0  0  0  0  0  0  0  0  0
   -1.1985   -1.0267   -0.2915 N   0  0  0  0  0  0  0  0  0  0  0  0
   -2.0418   -0.4627   -0.3889 H   0  0  0  0  0  0  0  0  0  0  0  0
    0.0791   -0.3022   -0.2530 C   0  0  1  0  0  0  0  0  0  0  0  0
    0.7819   -0.8712    0.3667 H   0  0  0  0  0  0  0  0  0  0  0  0
    0.6354   -0.1990   -1.6851 C   0  0  0  0  0  0  0  0  0  0  0  0
    0.5427   -1.1696   -2.1796 H   0  0  0  0  0  0  0  0  0  0  0  0
    0.0448    0.5236   -2.2557 H   0  0  0  0  0  0  0  0  0  0  0  0
    2.1071    0.2061   -1.7429 C   0  0  0  0  0  0  0  0  0  0  0  0
    2.7972    0.1493   -0.7361 O   0  0  0  0  0  0  0  0  0  0  0  0
    2.5764    0.6113   -2.9448 O   0  0  0  0  0  0  0  0  0  0  0  0
    3.5137    0.8204   -2.8136 H   0  0  0  0  0  0  0  0  0  0  0  0
   -0.0685    1.0862    0.4000 C   0  0  0  0  0  0  0  0  0  0  0  0
   -1.0544    1.7706    0.1519 O   0  0  0  0  0  0  0  0  0  0  0  0
    0.8561    1.5236    1.3287 N   0  0  0  0  0  0  0  0  0  0  0  0
    1.7134    0.9800    1.4127 H   0  0  0  0  0  0  0  0  0  0  0  0
    0.7893    2.8327    1.9658 C   0  0  0  0  0  0  0  0  0  0  0  0
   -0.1701    2.9622    2.4779 H   0  0  0  0  0  0  0  0  0  0  0  0
    1.5894    2.9341    2.7054 H   0  0  0  0  0  0  0  0  0  0  0  0
    0.9007    3.6268    1.2204 H   0  0  0  0  0  0  0  0  0  0  0  0
  1  2  1  0  0  0  0
  2  3  1  0  0  0  0
  2  4  1  0  0  0  0
  2  5  1  0  0  0  0
  5  6  2  0  0  0  0
  5  7  1  0  0  0  0
  7  8  1  0  0  0  0
  7  9  1  0  0  0  0
  9 10  1  0  0  0  0
  9 11  1  0  0  0  0
  9 18  1  0  0  0  0
 11 12  1  0  0  0  0
 11 13  1  0  0  0  0
 11 14  1  0  0  0  0
 14 15  2  0  0  0  0
 14 16  1  0  0  0  0
 16 17  1  0  0  0  0
 18 19  2  0  0  0  0
 18 20  1  0  0  0  0
 20 21  1  0  0  0  0
 20 22  1  0  0  0  0
 22 23  1  0  0  0  0
 22 24  1  0  0  0  0
 22 25  1  0  0  0  0
M  END
$$$$

  -OEChem-02102214113D

 25 24  0     1  0  0  0  0  0999 V2000
   -2.6990   -3.9995    0.4311 H   0  0  0  0  0  0  0  0  0  0  0  0
   -2.7531   -2.9534    0.1171 C   0  0  0  0  0  0  0  0  0  0  0  0
   -3.3620   -2.4008    0.8367 H   0  0  0  0  0  0  0  0  0  0  0  0
   -3.2279   -2.9042   -0.8656 H   0  0  0  0  0  0  0  0  0  0  0  0
   -1.3608   -2.3551    0.0493 C   0  0  0  0  0  0  0  0  0  0  0  0
   -0.3872   -3.0487    0.2961 O   0  0  0  0  0  0  0  0  0  0  0  0
   -1.2026   -1.0276   -0.2924 N   0  0  0  0  0  0  0  0  0  0  0  0
   -2.0487   -0.4704   -0.4029 H   0  0  0  0  0  0  0  0  0  0  0  0
    0.0709   -0.2956   -0.2582 C   0  0  1  0  0  0  0  0  0  0  0  0
    0.7740   -0.8617    0.3632 H   0  0  0  0  0  0  0  0  0  0  0  0
    0.6269   -0.1981   -1.6899 C   0  0  0  0  0  0  0  0  0  0  0  0
    0.5429   -1.1710   -2.1815 H   0  0  0  0  0  0  0  0  0  0  0  0
    0.0329    0.5185   -2.2646 H   0  0  0  0  0  0  0  0  0  0  0  0
    2.0955    0.2170   -1.7321 C   0  0  0  0  0  0  0  0  0  0  0  0
    2.8366   -0.0839   -0.8094 O   0  0  0  0  0  0  0  0  0  0  0  0
    2.5046    0.9067   -2.8214 O   0  0  0  0  0  0  0  0  0  0  0  0
    3.4499    1.0793   -2.6943 H   0  0  0  0  0  0  0  0  0  0  0  0
   -0.0683    1.0948    0.3890 C   0  0  0  0  0  0  0  0  0  0  0  0
   -1.0474    1.7868    0.1370 O   0  0  0  0  0  0  0  0  0  0  0  0
    0.8648    1.5304    1.3103 N   0  0  0  0  0  0  0  0  0  0  0  0
    1.6950    0.9552    1.4390 H   0  0  0  0  0  0  0  0  0  0  0  0
    0.8010    2.8334    1.9598 C   0  0  0  0  0  0  0  0  0  0  0  0
   -0.1504    2.9522    2.4892 H   0  0  0  0  0  0  0  0  0  0  0  0
    1.6133    2.9333    2.6862 H   0  0  0  0  0  0  0  0  0  0  0  0
    0.8954    3.6351    1.2198 H   0  0  0  0  0  0  0  0  0  0  0  0
  1  2  1  0  0  0  0
  2  3  1  0  0  0  0
  2  4  1  0  0  0  0
  2  5  1  0  0  0  0
  5  6  2  0  0  0  0
  5  7  1  0  0  0  0
  7  8  1  0  0  0  0
  7  9  1  0  0  0  0
  9 10  1  0  0  0  0
  9 11  1  0  0  0  0
  9 18  1  0  0  0  0
 11 12  1  0  0  0  0
 11 13  1  0  0  0  0
 11 14  1  0  0  0  0
 14 15  2  0  0  0  0
 14 16  1  0  0  0  0
 16 17  1  0  0  0  0
 18 19  2  0  0  0  0
 18 20  1  0  0  0  0
 20 21  1  0  0  0  0
 20 22  1  0  0  0  0
 22 23  1  0  0  0  0
 22 24  1  0  0  0  0
 22 25  1  0  0  0  0
M  END
$$$$

  -OEChem-02102214113D

 25 24  0     1  0  0  0  0  0999 V2000
   -2.6941   -4.0010    0.4275 H   0  0  0  0  0  0  0  0  0  0  0  0
   -2.7494   -2.9541    0.1161 C   0  0  0  0  0  0  0  0  0  0  0  0
   -3.3623   -2.4053    0.8352 H   0  0  0  0  0  0  0  0  0  0  0  0
   -3.2203   -2.9035   -0.8686 H   0  0  0  0  0  0  0  0  0  0  0  0
   -1.3578   -2.3529    0.0551 C   0  0  0  0  0  0  0  0  0  0  0  0
   -0.3849   -3.0430    0.3136 O   0  0  0  0  0  0  0  0  0  0  0  0
   -1.1995   -1.0263   -0.2901 N   0  0  0  0  0  0  0  0  0  0  0  0
   -2.0455   -0.4707   -0.4083 H   0  0  0  0  0  0  0  0  0  0  0  0
    0.0745   -0.2945   -0.2630 C   0  0  1  0  0  0  0  0  0  0  0  0
    0.7840   -0.8586    0.3535 H   0  0  0  0  0  0  0  0  0  0  0  0
    0.6201   -0.1967   -1.6976 C   0  0  0  0  0  0  0  0  0  0  0  0
    0.5365   -1.1689   -2.1908 H   0  0  0  0  0  0  0  0  0  0  0  0
    0.0252    0.5209   -2.2706 H   0  0  0  0  0  0  0  0  0  0  0  0
    2.0873    0.2185   -1.7291 C   0  0  0  0  0  0  0  0  0  0  0  0
    2.8736   -0.3095   -0.9600 O   0  0  0  0  0  0  0  0  0  0  0  0
    2.4432    1.1684   -2.6236 O   0  0  0  0  0  0  0  0  0  0  0  0
    3.3974    1.2999   -2.5146 H   0  0  0  0  0  0  0  0  0  0  0  0
   -0.0631    1.0969    0.3818 C   0  0  0  0  0  0  0  0  0  0  0  0
   -1.0386    1.7920    0.1253 O   0  0  0  0  0  0  0  0  0  0  0  0
    0.8728    1.5358    1.2990 N   0  0  0  0  0  0  0  0  0  0  0  0
    1.6779    0.9381    1.4722 H   0  0  0  0  0  0  0  0  0  0  0  0
    0.8012    2.8348    1.9559 C   0  0  0  0  0  0  0  0  0  0  0  0
   -0.1417    2.9357    2.5039 H   0  0  0  0  0  0  0  0  0  0  0  0
    1.6261    2.9455    2.6664 H   0  0  0  0  0  0  0  0  0  0  0  0
    0.8683    3.6410    1.2179 H   0  0  0  0  0  0  0  0  0  0  0  0
  1  2  1  0  0  0  0
  2  3  1  0  0  0  0
  2  4  1  0  0  0  0
  2  5  1  0  0  0  0
  5  6  2  0  0  0  0
  5  7  1  0  0  0  0
  7  8  1  0  0  0  0
  7  9  1  0  0  0  0
  9 10  1  0  0  0  0
  9 11  1  0  0  0  0
  9 18  1  0  0  0  0
 11 12  1  0  0  0  0
 11 13  1  0  0  0  0
 11 14  1  0  0  0  0
 14 15  2  0  0  0  0
 14 16  1  0  0  0  0
 16 17  1  0  0  0  0
 18 19  2  0  0  0  0
 18 20  1  0  0  0  0
 20 21  1  0  0  0  0
 20 22  1  0  0  0  0
 22 23  1  0  0  0  0
 22 24  1  0  0  0  0
 22 25  1  0  0  0  0
M  END
$$$$

  -OEChem-02102214113D

 25 24  0     1  0  0  0  0  0999 V2000
   -2.6921   -3.9976    0.4270 H   0  0  0  0  0  0  0  0  0  0  0  0
   -2.7451   -2.9507    0.1154 C   0  0  0  0  0  0  0  0  0  0  0  0
   -3.3603   -2.4011    0.8318 H   0  0  0  0  0  0  0  0  0  0  0  0
   -3.2121   -2.8996   -0.8710 H   0  0  0  0  0  0  0  0  0  0  0  0
   -1.3528   -2.3506    0.0600 C   0  0  0  0  0  0  0  0  0  0  0  0
   -0.3818   -3.0385    0.3309 O   0  0  0  0  0  0  0  0  0  0  0  0
   -1.1923   -1.0250   -0.2879 N   0  0  0  0  0  0  0  0  0  0  0  0
   -2.0371   -0.4700   -0.4168 H   0  0  0  0  0  0  0  0  0  0  0  0
    0.0829   -0.2957   -0.2673 C   0  0  1  0  0  0  0  0  0  0  0  0
    0.8018   -0.8581    0.3399 H   0  0  0  0  0  0  0  0  0  0  0  0
    0.6136   -0.1953   -1.7060 C   0  0  0  0  0  0  0  0  0  0  0  0
    0.5273   -1.1666   -2.2012 H   0  0  0  0  0  0  0  0  0  0  0  0
    0.0185    0.5249   -2.2754 H   0  0  0  0  0  0  0  0  0  0  0  0
    2.0798    0.2166   -1.7290 C   0  0  0  0  0  0  0  0  0  0  0  0
    2.8996   -0.4942   -1.1730 O   0  0  0  0  0  0  0  0  0  0  0  0
    2.3963    1.3713   -2.3580 O   0  0  0  0  0  0  0  0  0  0  0  0
    3.3578    1.4674   -2.2811 H   0  0  0  0  0  0  0  0  0  0  0  0
   -0.0571    1.0962    0.3773 C   0  0  0  0  0  0  0  0  0  0  0  0
   -1.0343    1.7890    0.1207 O   0  0  0  0  0  0  0  0  0  0  0  0
    0.8783    1.5402    1.2929 N   0  0  0  0  0  0  0  0  0  0  0  0
    1.6673    0.9313    1.4957 H   0  0  0  0  0  0  0  0  0  0  0  0
    0.7964    2.8362    1.9549 C   0  0  0  0  0  0  0  0  0  0  0  0
   -0.1432    2.9240    2.5108 H   0  0  0  0  0  0  0  0  0  0  0  0
    1.6260    2.9551    2.6585 H   0  0  0  0  0  0  0  0  0  0  0  0
    0.8476    3.6456    1.2190 H   0  0  0  0  0  0  0  0  0  0  0  0
  1  2  1  0  0  0  0
  2  3  1  0  0  0  0
  2  4  1  0  0  0  0
  2  5  1  0  0  0  0
  5  6  2  0  0  0  0
  5  7  1  0  0  0  0
  7  8  1  0  0  0  0
  7  9  1  0  0  0  0
  9 10  1  0  0  0  0
  9 11  1  0  0  0  0
  9 18  1  0  0  0  0
 11 12  1  0  0  0  0
 11 13  1  0  0  0  0
 11 14  1  0  0  0  0
 14 15  2  0  0  0  0
 14 16  1  0  0  0  0
 16 17  1  0  0  0  0
 18 19  2  0  0  0  0
 18 20  1  0  0  0  0
 20 21  1  0  0  0  0
 20 22  1  0  0  0  0
 22 23  1  0  0  0  0
 22 24  1  0  0  0  0
 22 25  1  0  0  0  0
M  END
$$$$

  -OEChem-02102214113D

 25 24  0     1  0  0  0  0  0999 V2000
   -2.6907   -3.9938    0.4282 H   0  0  0  0  0  0  0  0  0  0  0  0
   -2.7418   -2.9478    0.1135 C   0  0  0  0  0  0  0  0  0  0  0  0
   -3.3579   -2.3951    0.8268 H   0  0  0  0  0  0  0  0  0  0  0  0
   -3.2067   -2.8993   -0.8740 H   0  0  0  0  0  0  0  0  0  0  0  0
   -1.3489   -2.3492    0.0600 C   0  0  0  0  0  0  0  0  0  0  0  0
   -0.3787   -3.0369    0.3338 O   0  0  0  0  0  0  0  0  0  0  0  0
   -1.1869   -1.0238   -0.2875 N   0  0  0  0  0  0  0  0  0  0  0  0
   -2.0309   -0.4672   -0.4143 H   0  0  0  0  0  0  0  0  0  0  0  0
    0.0897   -0.2970   -0.2685 C   0  0  1  0  0  0  0  0  0  0  0  0
    0.8139   -0.8596    0.3320 H   0  0  0  0  0  0  0  0  0  0  0  0
    0.6117   -0.1930   -1.7090 C   0  0  0  0  0  0  0  0  0  0  0  0
    0.5200   -1.1619   -2.2082 H   0  0  0  0  0  0  0  0  0  0  0  0
    0.0190    0.5329   -2.2738 H   0  0  0  0  0  0  0  0  0  0  0  0
    2.0776    0.2150   -1.7265 C   0  0  0  0  0  0  0  0  0  0  0  0
    2.9188   -0.6139   -1.4272 O   0  0  0  0  0  0  0  0  0  0  0  0
    2.3707    1.4940   -2.0533 O   0  0  0  0  0  0  0  0  0  0  0  0
    3.3369    1.5660   -2.0266 H   0  0  0  0  0  0  0  0  0  0  0  0
   -0.0553    1.0942    0.3789 C   0  0  0  0  0  0  0  0  0  0  0  0
   -1.0379    1.7810    0.1266 O   0  0  0  0  0  0  0  0  0  0  0  0
    0.8769    1.5420    1.2964 N   0  0  0  0  0  0  0  0  0  0  0  0
    1.6687    0.9379    1.5001 H   0  0  0  0  0  0  0  0  0  0  0  0
    0.7890    2.8386    1.9566 C   0  0  0  0  0  0  0  0  0  0  0  0
   -0.1555    2.9278    2.5037 H   0  0  0  0  0  0  0  0  0  0  0  0
    1.6117    2.9576    2.6681 H   0  0  0  0  0  0  0  0  0  0  0  0
    0.8476    3.6474    1.2206 H   0  0  0  0  0  0  0  0  0  0  0  0
  1  2  1  0  0  0  0
  2  3  1  0  0  0  0
  2  4  1  0  0  0  0
  2  5  1  0  0  0  0
  5  6  2  0  0  0  0
  5  7  1  0  0  0  0
  7  8  1  0  0  0  0
  7  9  1  0  0  0  0
  9 10  1  0  0  0  0
  9 11  1  0  0  0  0
  9 18  1  0  0  0  0
 11 12  1  0  0  0  0
 11 13  1  0  0  0  0
 11 14  1  0  0  0  0
 14 15  2  0  0  0  0
 14 16  1  0  0  0  0
 16 17  1  0  0  0  0
 18 19  2  0  0  0  0
 18 20  1  0  0  0  0
 20 21  1  0  0  0  0
 20 22  1  0  0  0  0
 22 23  1  0  0  0  0
 22 24  1  0  0  0  0
 22 25  1  0  0  0  0
M  END
$$$$

  -OEChem-02102214113D

 25 24  0     1  0  0  0  0  0999 V2000
   -2.6921   -3.9894    0.4180 H   0  0  0  0  0  0  0  0  0  0  0  0
   -2.7404   -2.9419    0.1081 C   0  0  0  0  0  0  0  0  0  0  0  0
   -3.3575   -2.3914    0.8223 H   0  0  0  0  0  0  0  0  0  0  0  0
   -3.2027   -2.8878   -0.8804 H   0  0  0  0  0  0  0  0  0  0  0  0
   -1.3461   -2.3460    0.0606 C   0  0  0  0  0  0  0  0  0  0  0  0
   -0.3781   -3.0350    0.3398 O   0  0  0  0  0  0  0  0  0  0  0  0
   -1.1794   -1.0207   -0.2843 N   0  0  0  0  0  0  0  0  0  0  0  0
   -2.0208   -0.4602   -0.4131 H   0  0  0  0  0  0  0  0  0  0  0  0
    0.1003   -0.2997   -0.2623 C   0  0  1  0  0  0  0  0  0  0  0  0
    0.8272   -0.8634    0.3340 H   0  0  0  0  0  0  0  0  0  0  0  0
    0.6154   -0.1906   -1.7053 C   0  0  0  0  0  0  0  0  0  0  0  0
    0.5115   -1.1564   -2.2085 H   0  0  0  0  0  0  0  0  0  0  0  0
    0.0257    0.5425   -2.2634 H   0  0  0  0  0  0  0  0  0  0  0  0
    2.0836    0.2091   -1.7308 C   0  0  0  0  0  0  0  0  0  0  0  0
    2.9271   -0.6693   -1.7178 O   0  0  0  0  0  0  0  0  0  0  0  0
    2.3791    1.5289   -1.7453 O   0  0  0  0  0  0  0  0  0  0  0  0
    3.3458    1.5897   -1.7874 H   0  0  0  0  0  0  0  0  0  0  0  0
   -0.0563    1.0884    0.3910 C   0  0  0  0  0  0  0  0  0  0  0  0
   -1.0461    1.7665    0.1412 O   0  0  0  0  0  0  0  0  0  0  0  0
    0.8662    1.5400    1.3164 N   0  0  0  0  0  0  0  0  0  0  0  0
    1.6710    0.9505    1.5093 H   0  0  0  0  0  0  0  0  0  0  0  0
    0.7737    2.8425    1.9641 C   0  0  0  0  0  0  0  0  0  0  0  0
   -0.1725    2.9351    2.5079 H   0  0  0  0  0  0  0  0  0  0  0  0
    1.5945    2.9702    2.6765 H   0  0  0  0  0  0  0  0  0  0  0  0
    0.8324    3.6438    1.2199 H   0  0  0  0  0  0  0  0  0  0  0  0
  1  2  1  0  0  0  0
  2  3  1  0  0  0  0
  2  4  1  0  0  0  0
  2  5  1  0  0  0  0
  5  6  2  0  0  0  0
  5  7  1  0  0  0  0
  7  8  1  0  0  0  0
  7  9  1  0  0  0  0
  9 10  1  0  0  0  0
  9 11  1  0  0  0  0
  9 18  1  0  0  0  0
 11 12  1  0  0  0  0
 11 13  1  0  0  0  0
 11 14  1  0  0  0  0
 14 15  2  0  0  0  0
 14 16  1  0  0  0  0
 16 17  1  0  0  0  0
 18 19  2  0  0  0  0
 18 20  1  0  0  0  0
 20 21  1  0  0  0  0
 20 22  1  0  0  0  0
 22 23  1  0  0  0  0
 22 24  1  0  0  0  0
 22 25  1  0  0  0  0
M  END
$$$$

  -OEChem-02102214113D

 25 24  0     1  0  0  0  0  0999 V2000
   -2.6977   -3.9836    0.4022 H   0  0  0  0  0  0  0  0  0  0  0  0
   -2.7418   -2.9329    0.1018 C   0  0  0  0  0  0  0  0  0  0  0  0
   -3.3561   -2.3862    0.8213 H   0  0  0  0  0  0  0  0  0  0  0  0
   -3.2044   -2.8679   -0.8859 H   0  0  0  0  0  0  0  0  0  0  0  0
   -1.3450   -2.3426    0.0588 C   0  0  0  0  0  0  0  0  0  0  0  0
   -0.3800   -3.0363    0.3372 O   0  0  0  0  0  0  0  0  0  0  0  0
   -1.1715   -1.0171   -0.2822 N   0  0  0  0  0  0  0  0  0  0  0  0
   -2.0099   -0.4504   -0.4034 H   0  0  0  0  0  0  0  0  0  0  0  0
    0.1117   -0.3026   -0.2507 C   0  0  1  0  0  0  0  0  0  0  0  0
    0.8355   -0.8677    0.3476 H   0  0  0  0  0  0  0  0  0  0  0  0
    0.6268   -0.1929   -1.6951 C   0  0  0  0  0  0  0  0  0  0  0  0
    0.5090   -1.1570   -2.1994 H   0  0  0  0  0  0  0  0  0  0  0  0
    0.0395    0.5463   -2.2474 H   0  0  0  0  0  0  0  0  0  0  0  0
    2.0985    0.1974   -1.7390 C   0  0  0  0  0  0  0  0  0  0  0  0
    2.9179   -0.6607   -2.0138 O   0  0  0  0  0  0  0  0  0  0  0  0
    2.4265    1.4813   -1.4675 O   0  0  0  0  0  0  0  0  0  0  0  0
    3.3872    1.5433   -1.5843 H   0  0  0  0  0  0  0  0  0  0  0  0
   -0.0584    1.0829    0.4080 C   0  0  0  0  0  0  0  0  0  0  0  0
   -1.0533    1.7530    0.1548 O   0  0  0  0  0  0  0  0  0  0  0  0
    0.8500    1.5385    1.3455 N   0  0  0  0  0  0  0  0  0  0  0  0
    1.6789    0.9753    1.5112 H   0  0  0  0  0  0  0  0  0  0  0  0
    0.7489    2.8461    1.9814 C   0  0  0  0  0  0  0  0  0  0  0  0
   -0.1996    2.9384    2.5209 H   0  0  0  0  0  0  0  0  0  0  0  0
    1.5663    2.9838    2.6957 H   0  0  0  0  0  0  0  0  0  0  0  0
    0.8066    3.6411    1.2305 H   0  0  0  0  0  0  0  0  0  0  0  0
  1  2  1  0  0  0  0
  2  3  1  0  0  0  0
  2  4  1  0  0  0  0
  2  5  1  0  0  0  0
  5  6  2  0  0  0  0
  5  7  1  0  0  0  0
  7  8  1  0  0  0  0
  7  9  1  0  0  0  0
  9 10  1  0  0  0  0
  9 11  1  0  0  0  0
  9 18  1  0  0  0  0
 11 12  1  0  0  0  0
 11 13  1  0  0  0  0
 11 14  1  0  0  0  0
 14 15  2  0  0  0  0
 14 16  1  0  0  0  0
 16 17  1  0  0  0  0
 18 19  2  0  0  0  0
 18 20  1  0  0  0  0
 20 21  1  0  0  0  0
 20 22  1  0  0  0  0
 22 23  1  0  0  0  0
 22 24  1  0  0  0  0
 22 25  1  0  0  0  0
M  END
$$$$

  -OEChem-02102214113D

 25 24  0     1  0  0  0  0  0999 V2000
   -2.7028   -3.9756    0.4061 H   0  0  0  0  0  0  0  0  0  0  0  0
   -2.7414   -2.9280    0.0948 C   0  0  0  0  0  0  0  0  0  0  0  0
   -3.3627   -2.3731    0.8019 H   0  0  0  0  0  0  0  0  0  0  0  0
   -3.1928   -2.8721   -0.8987 H   0  0  0  0  0  0  0  0  0  0  0  0
   -1.3431   -2.3404    0.0612 C   0  0  0  0  0  0  0  0  0  0  0  0
   -0.3804   -3.0377    0.3393 O   0  0  0  0  0  0  0  0  0  0  0  0
   -1.1640   -1.0144   -0.2745 N   0  0  0  0  0  0  0  0  0  0  0  0
   -1.9996   -0.4428   -0.3942 H   0  0  0  0  0  0  0  0  0  0  0  0
    0.1231   -0.3066   -0.2347 C   0  0  1  0  0  0  0  0  0  0  0  0
    0.8463   -0.8733    0.3626 H   0  0  0  0  0  0  0  0  0  0  0  0
    0.6339   -0.1930   -1.6822 C   0  0  0  0  0  0  0  0  0  0  0  0
    0.5000   -1.1543   -2.1881 H   0  0  0  0  0  0  0  0  0  0  0  0
    0.0468    0.5536   -2.2243 H   0  0  0  0  0  0  0  0  0  0  0  0
    2.1090    0.1870   -1.7552 C   0  0  0  0  0  0  0  0  0  0  0  0
    2.8716   -0.5849   -2.3084 O   0  0  0  0  0  0  0  0  0  0  0  0
    2.5059    1.3607   -1.2114 O   0  0  0  0  0  0  0  0  0  0  0  0
    3.4535    1.4352   -1.4057 H   0  0  0  0  0  0  0  0  0  0  0  0
   -0.0621    1.0749    0.4317 C   0  0  0  0  0  0  0  0  0  0  0  0
   -1.0612    1.7378    0.1746 O   0  0  0  0  0  0  0  0  0  0  0  0
    0.8322    1.5333    1.3813 N   0  0  0  0  0  0  0  0  0  0  0  0
    1.6916    1.0058    1.5024 H   0  0  0  0  0  0  0  0  0  0  0  0
    0.7267    2.8492    1.9993 C   0  0  0  0  0  0  0  0  0  0  0  0
   -0.2507    2.9725    2.4777 H   0  0  0  0  0  0  0  0  0  0  0  0
    1.5001    2.9715    2.7636 H   0  0  0  0  0  0  0  0  0  0  0  0
    0.8528    3.6352    1.2472 H   0  0  0  0  0  0  0  0  0  0  0  0
  1  2  1  0  0  0  0
  2  3  1  0  0  0  0
  2  4  1  0  0  0  0
  2  5  1  0  0  0  0
  5  6  2  0  0  0  0
  5  7  1  0  0  0  0
  7  8  1  0  0  0  0
  7  9  1  0  0  0  0
  9 10  1  0  0  0  0
  9 11  1  0  0  0  0
  9 18  1  0  0  0  0
 11 12  1  0  0  0  0
 11 13  1  0  0  0  0
 11 14  1  0  0  0  0
 14 15  2  0  0  0  0
 14 16  1  0  0  0  0
 16 17  1  0  0  0  0
 18 19  2  0  0  0  0
 18 20  1  0  0  0  0
 20 21  1  0  0  0  0
 20 22  1  0  0  0  0
 22 23  1  0  0  0  0
 22 24  1  0  0  0  0
 22 25  1  0  0  0  0
M  END
$$$$

  -OEChem-02102214113D

 25 24  0     1  0  0  0  0  0999 V2000
   -2.7097   -3.9631    0.3994 H   0  0  0  0  0  0  0  0  0  0  0  0
   -2.7439   -2.9126    0.0976 C   0  0  0  0  0  0  0  0  0  0  0  0
   -3.3569   -2.3601    0.8136 H   0  0  0  0  0  0  0  0  0  0  0  0
   -3.2016   -2.8451   -0.8922 H   0  0  0  0  0  0  0  0  0  0  0  0
   -1.3423   -2.3335    0.0593 C   0  0  0  0  0  0  0  0  0  0  0  0
   -0.3821   -3.0375    0.3295 O   0  0  0  0  0  0  0  0  0  0  0  0
   -1.1564   -1.0087   -0.2766 N   0  0  0  0  0  0  0  0  0  0  0  0
   -1.9891   -0.4301   -0.3838 H   0  0  0  0  0  0  0  0  0  0  0  0
    0.1342   -0.3081   -0.2301 C   0  0  1  0  0  0  0  0  0  0  0  0
    0.8534   -0.8743    0.3725 H   0  0  0  0  0  0  0  0  0  0  0  0
    0.6493   -0.1987   -1.6776 C   0  0  0  0  0  0  0  0  0  0  0  0
    0.5080   -1.1614   -2.1787 H   0  0  0  0  0  0  0  0  0  0  0  0
    0.0640    0.5488   -2.2201 H   0  0  0  0  0  0  0  0  0  0  0  0
    2.1273    0.1711   -1.7697 C   0  0  0  0  0  0  0  0  0  0  0  0
    2.8159   -0.4539   -2.5564 O   0  0  0  0  0  0  0  0  0  0  0  0
    2.6147    1.1579   -0.9821 O   0  0  0  0  0  0  0  0  0  0  0  0
    3.5491    1.2486   -1.2283 H   0  0  0  0  0  0  0  0  0  0  0  0
   -0.0627    1.0730    0.4366 C   0  0  0  0  0  0  0  0  0  0  0  0
   -1.0676    1.7271    0.1783 O   0  0  0  0  0  0  0  0  0  0  0  0
    0.8187    1.5364    1.3956 N   0  0  0  0  0  0  0  0  0  0  0  0
    1.7020    1.0415    1.4806 H   0  0  0  0  0  0  0  0  0  0  0  0
    0.6923    2.8477    2.0199 C   0  0  0  0  0  0  0  0  0  0  0  0
   -0.2858    2.9510    2.5018 H   0  0  0  0  0  0  0  0  0  0  0  0
    1.4657    2.9797    2.7827 H   0  0  0  0  0  0  0  0  0  0  0  0
    0.8020    3.6395    1.2716 H   0  0  0  0  0  0  0  0  0  0  0  0
  1  2  1  0  0  0  0
  2  3  1  0  0  0  0
  2  4  1  0  0  0  0
  2  5  1  0  0  0  0
  5  6  2  0  0  0  0
  5  7  1  0  0  0  0
  7  8  1  0  0  0  0
  7  9  1  0  0  0  0
  9 10  1  0  0  0  0
  9 11  1  0  0  0  0
  9 18  1  0  0  0  0
 11 12  1  0  0  0  0
 11 13  1  0  0  0  0
 11 14  1  0  0  0  0
 14 15  2  0  0  0  0
 14 16  1  0  0  0  0
 16 17  1  0  0  0  0
 18 19  2  0  0  0  0
 18 20  1  0  0  0  0
 20 21  1  0  0  0  0
 20 22  1  0  0  0  0
 22 23  1  0  0  0  0
 22 24  1  0  0  0  0
 22 25  1  0  0  0  0
M  END
$$$$

  -OEChem-02102214113D

 25 24  0     1  0  0  0  0  0999 V2000
   -2.7146   -3.9598    0.4024 H   0  0  0  0  0  0  0  0  0  0  0  0
   -2.7477   -2.9096    0.0997 C   0  0  0  0  0  0  0  0  0  0  0  0
   -3.3583   -2.3552    0.8164 H   0  0  0  0  0  0  0  0  0  0  0  0
   -3.2070   -2.8425   -0.8894 H   0  0  0  0  0  0  0  0  0  0  0  0
   -1.3451   -2.3329    0.0585 C   0  0  0  0  0  0  0  0  0  0  0  0
   -0.3852   -3.0387    0.3257 O   0  0  0  0  0  0  0  0  0  0  0  0
   -1.1578   -1.0086   -0.2789 N   0  0  0  0  0  0  0  0  0  0  0  0
   -1.9898   -0.4292   -0.3855 H   0  0  0  0  0  0  0  0  0  0  0  0
    0.1329   -0.3087   -0.2275 C   0  0  1  0  0  0  0  0  0  0  0  0
    0.8484   -0.8745    0.3796 H   0  0  0  0  0  0  0  0  0  0  0  0
    0.6569   -0.1978   -1.6718 C   0  0  0  0  0  0  0  0  0  0  0  0
    0.5207   -1.1620   -2.1711 H   0  0  0  0  0  0  0  0  0  0  0  0
    0.0715    0.5476   -2.2174 H   0  0  0  0  0  0  0  0  0  0  0  0
    2.1358    0.1714   -1.7663 C   0  0  0  0  0  0  0  0  0  0  0  0
    2.7513   -0.2458   -2.7311 O   0  0  0  0  0  0  0  0  0  0  0  0
    2.7107    0.9056   -0.7834 O   0  0  0  0  0  0  0  0  0  0  0  0
    3.6345    1.0230   -1.0582 H   0  0  0  0  0  0  0  0  0  0  0  0
   -0.0660    1.0737    0.4360 C   0  0  0  0  0  0  0  0  0  0  0  0
   -1.0694    1.7283    0.1731 O   0  0  0  0  0  0  0  0  0  0  0  0
    0.8120    1.5365    1.3975 N   0  0  0  0  0  0  0  0  0  0  0  0
    1.7031    1.0513    1.4649 H   0  0  0  0  0  0  0  0  0  0  0  0
    0.6844    2.8471    2.0224 C   0  0  0  0  0  0  0  0  0  0  0  0
   -0.2953    2.9508    2.5005 H   0  0  0  0  0  0  0  0  0  0  0  0
    1.4547    2.9771    2.7885 H   0  0  0  0  0  0  0  0  0  0  0  0
    0.7980    3.6395    1.2755 H   0  0  0  0  0  0  0  0  0  0  0  0
  1  2  1  0  0  0  0
  2  3  1  0  0  0  0
  2  4  1  0  0  0  0
  2  5  1  0  0  0  0
  5  6  2  0  0  0  0
  5  7  1  0  0  0  0
  7  8  1  0  0  0  0
  7  9  1  0  0  0  0
  9 10  1  0  0  0  0
  9 11  1  0  0  0  0
  9 18  1  0  0  0  0
 11 12  1  0  0  0  0
 11 13  1  0  0  0  0
 11 14  1  0  0  0  0
 14 15  2  0  0  0  0
 14 16  1  0  0  0  0
 16 17  1  0  0  0  0
 18 19  2  0  0  0  0
 18 20  1  0  0  0  0
 20 21  1  0  0  0  0
 20 22  1  0  0  0  0
 22 23  1  0  0  0  0
 22 24  1  0  0  0  0
 22 25  1  0  0  0  0
M  END
$$$$

  -OEChem-02102214113D

 25 24  0     1  0  0  0  0  0999 V2000
   -2.7195   -3.9643    0.4028 H   0  0  0  0  0  0  0  0  0  0  0  0
   -2.7537   -2.9140    0.1004 C   0  0  0  0  0  0  0  0  0  0  0  0
   -3.3638   -2.3604    0.8182 H   0  0  0  0  0  0  0  0  0  0  0  0
   -3.2141   -2.8465   -0.8882 H   0  0  0  0  0  0  0  0  0  0  0  0
   -1.3516   -2.3364    0.0583 C   0  0  0  0  0  0  0  0  0  0  0  0
   -0.3913   -3.0416    0.3254 O   0  0  0  0  0  0  0  0  0  0  0  0
   -1.1658   -1.0126   -0.2820 N   0  0  0  0  0  0  0  0  0  0  0  0
   -1.9990   -0.4359   -0.3936 H   0  0  0  0  0  0  0  0  0  0  0  0
    0.1228   -0.3090   -0.2278 C   0  0  1  0  0  0  0  0  0  0  0  0
    0.8328   -0.8756    0.3853 H   0  0  0  0  0  0  0  0  0  0  0  0
    0.6605   -0.1985   -1.6661 C   0  0  0  0  0  0  0  0  0  0  0  0
    0.5370   -1.1648   -2.1641 H   0  0  0  0  0  0  0  0  0  0  0  0
    0.0763    0.5425   -2.2192 H   0  0  0  0  0  0  0  0  0  0  0  0
    2.1385    0.1766   -1.7468 C   0  0  0  0  0  0  0  0  0  0  0  0
    2.6917    0.0088   -2.8189 O   0  0  0  0  0  0  0  0  0  0  0  0
    2.7826    0.6333   -0.6439 O   0  0  0  0  0  0  0  0  0  0  0  0
    3.6978    0.7874   -0.9293 H   0  0  0  0  0  0  0  0  0  0  0  0
   -0.0669    1.0767    0.4288 C   0  0  0  0  0  0  0  0  0  0  0  0
   -1.0634    1.7392    0.1609 O   0  0  0  0  0  0  0  0  0  0  0  0
    0.8161    1.5358    1.3870 N   0  0  0  0  0  0  0  0  0  0  0  0
    1.7004    1.0378    1.4606 H   0  0  0  0  0  0  0  0  0  0  0  0
    0.6977    2.8465    2.0137 C   0  0  0  0  0  0  0  0  0  0  0  0
   -0.2788    2.9538    2.4979 H   0  0  0  0  0  0  0  0  0  0  0  0
    1.4734    2.9727    2.7751 H   0  0  0  0  0  0  0  0  0  0  0  0
    0.8095    3.6397    1.2672 H   0  0  0  0  0  0  0  0  0  0  0  0
  1  2  1  0  0  0  0
  2  3  1  0  0  0  0
  2  4  1  0  0  0  0
  2  5  1  0  0  0  0
  5  6  2  0  0  0  0
  5  7  1  0  0  0  0
  7  8  1  0  0  0  0
  7  9  1  0  0  0  0
  9 10  1  0  0  0  0
  9 11  1  0  0  0  0
  9 18  1  0  0  0  0
 11 12  1  0  0  0  0
 11 13  1  0  0  0  0
 11 14  1  0  0  0  0
 14 15  2  0  0  0  0
 14 16  1  0  0  0  0
 16 17  1  0  0  0  0
 18 19  2  0  0  0  0
 18 20  1  0  0  0  0
 20 21  1  0  0  0  0
 20 22  1  0  0  0  0
 22 23  1  0  0  0  0
 22 24  1  0  0  0  0
 22 25  1  0  0  0  0
M  END
$$$$

  -OEChem-02102214113D

 25 24  0     1  0  0  0  0  0999 V2000
   -2.7341   -3.9912    0.4132 H   0  0  0  0  0  0  0  0  0  0  0  0
   -2.7782   -2.9444    0.1001 C   0  0  0  0  0  0  0  0  0  0  0  0
   -3.3939   -2.3896    0.8122 H   0  0  0  0  0  0  0  0  0  0  0  0
   -3.2394   -2.8911   -0.8889 H   0  0  0  0  0  0  0  0  0  0  0  0
   -1.3817   -2.3539    0.0516 C   0  0  0  0  0  0  0  0  0  0  0  0
   -0.4152   -3.0516    0.3156 O   0  0  0  0  0  0  0  0  0  0  0  0
   -1.2100   -1.0284   -0.2919 N   0  0  0  0  0  0  0  0  0  0  0  0
   -2.0507   -0.4658   -0.4159 H   0  0  0  0  0  0  0  0  0  0  0  0
    0.0680   -0.3040   -0.2426 C   0  0  1  0  0  0  0  0  0  0  0  0
    0.7451   -0.8768    0.4005 H   0  0  0  0  0  0  0  0  0  0  0  0
    0.6608   -0.2184   -1.6624 C   0  0  0  0  0  0  0  0  0  0  0  0
    0.3594   -1.1040   -2.2289 H   0  0  0  0  0  0  0  0  0  0  0  0
    0.2628    0.6599   -2.1794 H   0  0  0  0  0  0  0  0  0  0  0  0
    2.1874   -0.1723   -1.6852 C   0  0  0  0  0  0  0  0  0  0  0  0
    2.7192   -0.1055   -2.7789 O   0  0  0  0  0  0  0  0  0  0  0  0
    2.8807   -0.1345   -0.5183 O   0  0  0  0  0  0  0  0  0  0  0  0
    3.8164   -0.1064   -0.7758 H   0  0  0  0  0  0  0  0  0  0  0  0
   -0.0682    1.0895    0.3977 C   0  0  0  0  0  0  0  0  0  0  0  0
   -1.0461    1.7821    0.1426 O   0  0  0  0  0  0  0  0  0  0  0  0
    0.8562    1.5212    1.3288 N   0  0  0  0  0  0  0  0  0  0  0  0
    1.6930    0.9534    1.4451 H   0  0  0  0  0  0  0  0  0  0  0  0
    0.7929    2.8278    1.9715 C   0  0  0  0  0  0  0  0  0  0  0  0
   -0.1652    2.9563    2.4863 H   0  0  0  0  0  0  0  0  0  0  0  0
    1.5949    2.9257    2.7094 H   0  0  0  0  0  0  0  0  0  0  0  0
    0.9033    3.6251    1.2292 H   0  0  0  0  0  0  0  0  0  0  0  0
  1  2  1  0  0  0  0
  2  3  1  0  0  0  0
  2  4  1  0  0  0  0
  2  5  1  0  0  0  0
  5  6  2  0  0  0  0
  5  7  1  0  0  0  0
  7  8  1  0  0  0  0
  7  9  1  0  0  0  0
  9 10  1  0  0  0  0
  9 11  1  0  0  0  0
  9 18  1  0  0  0  0
 11 12  1  0  0  0  0
 11 13  1  0  0  0  0
 11 14  1  0  0  0  0
 14 15  2  0  0  0  0
 14 16  1  0  0  0  0
 16 17  1  0  0  0  0
 18 19  2  0  0  0  0
 18 20  1  0  0  0  0
 20 21  1  0  0  0  0
 20 22  1  0  0  0  0
 22 23  1  0  0  0  0
 22 24  1  0  0  0  0
 22 25  1  0  0  0  0
M  END
$$$$

  -OEChem-02102214113D

 25 24  0     1  0  0  0  0  0999 V2000
   -2.7397   -3.9905    0.4108 H   0  0  0  0  0  0  0  0  0  0  0  0
   -2.7818   -2.9431    0.0988 C   0  0  0  0  0  0  0  0  0  0  0  0
   -3.3988   -2.3886    0.8100 H   0  0  0  0  0  0  0  0  0  0  0  0
   -3.2406   -2.8883   -0.8914 H   0  0  0  0  0  0  0  0  0  0  0  0
   -1.3845   -2.3537    0.0550 C   0  0  0  0  0  0  0  0  0  0  0  0
   -0.4201   -3.0518    0.3249 O   0  0  0  0  0  0  0  0  0  0  0  0
   -1.2109   -1.0292   -0.2917 N   0  0  0  0  0  0  0  0  0  0  0  0
   -2.0514   -0.4685   -0.4243 H   0  0  0  0  0  0  0  0  0  0  0  0
    0.0665   -0.3031   -0.2421 C   0  0  1  0  0  0  0  0  0  0  0  0
    0.7387   -0.8745    0.4064 H   0  0  0  0  0  0  0  0  0  0  0  0
    0.6603   -0.2244   -1.6628 C   0  0  0  0  0  0  0  0  0  0  0  0
    0.3623   -1.1151   -2.2226 H   0  0  0  0  0  0  0  0  0  0  0  0
    0.2560    0.6480   -2.1853 H   0  0  0  0  0  0  0  0  0  0  0  0
    2.1871   -0.1759   -1.6942 C   0  0  0  0  0  0  0  0  0  0  0  0
    2.7033    0.1651   -2.7434 O   0  0  0  0  0  0  0  0  0  0  0  0
    2.8984   -0.4418   -0.5702 O   0  0  0  0  0  0  0  0  0  0  0  0
    3.8310   -0.3657   -0.8282 H   0  0  0  0  0  0  0  0  0  0  0  0
   -0.0636    1.0930    0.3920 C   0  0  0  0  0  0  0  0  0  0  0  0
   -1.0328    1.7934    0.1266 O   0  0  0  0  0  0  0  0  0  0  0  0
    0.8633    1.5242    1.3214 N   0  0  0  0  0  0  0  0  0  0  0  0
    1.6702    0.9273    1.4877 H   0  0  0  0  0  0  0  0  0  0  0  0
    0.7994    2.8277    1.9703 C   0  0  0  0  0  0  0  0  0  0  0  0
   -0.1515    2.9462    2.5005 H   0  0  0  0  0  0  0  0  0  0  0  0
    1.6126    2.9298    2.6955 H   0  0  0  0  0  0  0  0  0  0  0  0
    0.8920    3.6288    1.2295 H   0  0  0  0  0  0  0  0  0  0  0  0
  1  2  1  0  0  0  0
  2  3  1  0  0  0  0
  2  4  1  0  0  0  0
  2  5  1  0  0  0  0
  5  6  2  0  0  0  0
  5  7  1  0  0  0  0
  7  8  1  0  0  0  0
  7  9  1  0  0  0  0
  9 10  1  0  0  0  0
  9 11  1  0  0  0  0
  9 18  1  0  0  0  0
 11 12  1  0  0  0  0
 11 13  1  0  0  0  0
 11 14  1  0  0  0  0
 14 15  2  0  0  0  0
 14 16  1  0  0  0  0
 16 17  1  0  0  0  0
 18 19  2  0  0  0  0
 18 20  1  0  0  0  0
 20 21  1  0  0  0  0
 20 22  1  0  0  0  0
 22 23  1  0  0  0  0
 22 24  1  0  0  0  0
 22 25  1  0  0  0  0
M  END
$$$$

  -OEChem-02102214113D

 25 24  0     1  0  0  0  0  0999 V2000
   -2.7383   -3.9858    0.4080 H   0  0  0  0  0  0  0  0  0  0  0  0
   -2.7778   -2.9380    0.0974 C   0  0  0  0  0  0  0  0  0  0  0  0
   -3.3962   -2.3834    0.8072 H   0  0  0  0  0  0  0  0  0  0  0  0
   -3.2331   -2.8813   -0.8941 H   0  0  0  0  0  0  0  0  0  0  0  0
   -1.3794   -2.3513    0.0598 C   0  0  0  0  0  0  0  0  0  0  0  0
   -0.4182   -3.0503    0.3380 O   0  0  0  0  0  0  0  0  0  0  0  0
   -1.2025   -1.0277   -0.2885 N   0  0  0  0  0  0  0  0  0  0  0  0
   -2.0413   -0.4659   -0.4273 H   0  0  0  0  0  0  0  0  0  0  0  0
    0.0763   -0.3047   -0.2407 C   0  0  1  0  0  0  0  0  0  0  0  0
    0.7543   -0.8744    0.4032 H   0  0  0  0  0  0  0  0  0  0  0  0
    0.6563   -0.2206   -1.6668 C   0  0  0  0  0  0  0  0  0  0  0  0
    0.3543   -1.1091   -2.2275 H   0  0  0  0  0  0  0  0  0  0  0  0
    0.2469    0.6531   -2.1836 H   0  0  0  0  0  0  0  0  0  0  0  0
    2.1822   -0.1768   -1.7046 C   0  0  0  0  0  0  0  0  0  0  0  0
    2.6964    0.4241   -2.6311 O   0  0  0  0  0  0  0  0  0  0  0  0
    2.8964   -0.7717   -0.7187 O   0  0  0  0  0  0  0  0  0  0  0  0
    3.8286   -0.6579   -0.9615 H   0  0  0  0  0  0  0  0  0  0  0  0
   -0.0572    1.0915    0.3930 C   0  0  0  0  0  0  0  0  0  0  0  0
   -1.0218    1.7938    0.1160 O   0  0  0  0  0  0  0  0  0  0  0  0
    0.8658    1.5283    1.3242 N   0  0  0  0  0  0  0  0  0  0  0  0
    1.6492    0.9150    1.5345 H   0  0  0  0  0  0  0  0  0  0  0  0
    0.7942    2.8332    1.9698 C   0  0  0  0  0  0  0  0  0  0  0  0
   -0.1504    2.9414    2.5132 H   0  0  0  0  0  0  0  0  0  0  0  0
    1.6170    2.9487    2.6819 H   0  0  0  0  0  0  0  0  0  0  0  0
    0.8658    3.6327    1.2248 H   0  0  0  0  0  0  0  0  0  0  0  0
  1  2  1  0  0  0  0
  2  3  1  0  0  0  0
  2  4  1  0  0  0  0
  2  5  1  0  0  0  0
  5  6  2  0  0  0  0
  5  7  1  0  0  0  0
  7  8  1  0  0  0  0
  7  9  1  0  0  0  0
  9 10  1  0  0  0  0
  9 11  1  0  0  0  0
  9 18  1  0  0  0  0
 11 12  1  0  0  0  0
 11 13  1  0  0  0  0
 11 14  1  0  0  0  0
 14 15  2  0  0  0  0
 14 16  1  0  0  0  0
 16 17  1  0  0  0  0
 18 19  2  0  0  0  0
 18 20  1  0  0  0  0
 20 21  1  0  0  0  0
 20 22  1  0  0  0  0
 22 23  1  0  0  0  0
 22 24  1  0  0  0  0
 22 25  1  0  0  0  0
M  END
$$$$

  -OEChem-02102214113D

 25 24  0     1  0  0  0  0  0999 V2000
   -2.7348   -3.9829    0.4108 H   0  0  0  0  0  0  0  0  0  0  0  0
   -2.7727   -2.9353    0.0992 C   0  0  0  0  0  0  0  0  0  0  0  0
   -3.3913   -2.3792    0.8077 H   0  0  0  0  0  0  0  0  0  0  0  0
   -3.2259   -2.8788   -0.8934 H   0  0  0  0  0  0  0  0  0  0  0  0
   -1.3738   -2.3499    0.0636 C   0  0  0  0  0  0  0  0  0  0  0  0
   -0.4145   -3.0472    0.3521 O   0  0  0  0  0  0  0  0  0  0  0  0
   -1.1953   -1.0270   -0.2855 N   0  0  0  0  0  0  0  0  0  0  0  0
   -2.0329   -0.4649   -0.4297 H   0  0  0  0  0  0  0  0  0  0  0  0
    0.0854   -0.3074   -0.2455 C   0  0  1  0  0  0  0  0  0  0  0  0
    0.7758   -0.8764    0.3864 H   0  0  0  0  0  0  0  0  0  0  0  0
    0.6480   -0.2145   -1.6770 C   0  0  0  0  0  0  0  0  0  0  0  0
    0.3423   -1.0983   -2.2433 H   0  0  0  0  0  0  0  0  0  0  0  0
    0.2384    0.6636   -2.1867 H   0  0  0  0  0  0  0  0  0  0  0  0
    2.1724   -0.1767   -1.7061 C   0  0  0  0  0  0  0  0  0  0  0  0
    2.7037    0.6409   -2.4364 O   0  0  0  0  0  0  0  0  0  0  0  0
    2.8658   -1.0425   -0.9302 O   0  0  0  0  0  0  0  0  0  0  0  0
    3.8024   -0.8929   -1.1317 H   0  0  0  0  0  0  0  0  0  0  0  0
   -0.0505    1.0878    0.3912 C   0  0  0  0  0  0  0  0  0  0  0  0
   -1.0184    1.7869    0.1173 O   0  0  0  0  0  0  0  0  0  0  0  0
    0.8727    1.5291    1.3204 N   0  0  0  0  0  0  0  0  0  0  0  0
    1.6524    0.9156    1.5416 H   0  0  0  0  0  0  0  0  0  0  0  0
    0.7931    2.8330    1.9674 C   0  0  0  0  0  0  0  0  0  0  0  0
   -0.1537    2.9360    2.5082 H   0  0  0  0  0  0  0  0  0  0  0  0
    1.6131    2.9522    2.6821 H   0  0  0  0  0  0  0  0  0  0  0  0
    0.8629    3.6336    1.2235 H   0  0  0  0  0  0  0  0  0  0  0  0
  1  2  1  0  0  0  0
  2  3  1  0  0  0  0
  2  4  1  0  0  0  0
  2  5  1  0  0  0  0
  5  6  2  0  0  0  0
  5  7  1  0  0  0  0
  7  8  1  0  0  0  0
  7  9  1  0  0  0  0
  9 10  1  0  0  0  0
  9 11  1  0  0  0  0
  9 18  1  0  0  0  0
 11 12  1  0  0  0  0
 11 13  1  0  0  0  0
 11 14  1  0  0  0  0
 14 15  2  0  0  0  0
 14 16  1  0  0  0  0
 16 17  1  0  0  0  0
 18 19  2  0  0  0  0
 18 20  1  0  0  0  0
 20 21  1  0  0  0  0
 20 22  1  0  0  0  0
 22 23  1  0  0  0  0
 22 24  1  0  0  0  0
 22 25  1  0  0  0  0
M  END
$$$$

  -OEChem-02102214113D

 25 24  0     1  0  0  0  0  0999 V2000
   -2.7324   -3.9842    0.4147 H   0  0  0  0  0  0  0  0  0  0  0  0
   -2.7707   -2.9371    0.1015 C   0  0  0  0  0  0  0  0  0  0  0  0
   -3.3884   -2.3800    0.8101 H   0  0  0  0  0  0  0  0  0  0  0  0
   -3.2258   -2.8822   -0.8903 H   0  0  0  0  0  0  0  0  0  0  0  0
   -1.3717   -2.3517    0.0617 C   0  0  0  0  0  0  0  0  0  0  0  0
   -0.4117   -3.0490    0.3471 O   0  0  0  0  0  0  0  0  0  0  0  0
   -1.1936   -1.0282   -0.2856 N   0  0  0  0  0  0  0  0  0  0  0  0
   -2.0311   -0.4641   -0.4230 H   0  0  0  0  0  0  0  0  0  0  0  0
    0.0889   -0.3113   -0.2545 C   0  0  1  0  0  0  0  0  0  0  0  0
    0.7906   -0.8818    0.3646 H   0  0  0  0  0  0  0  0  0  0  0  0
    0.6380   -0.2083   -1.6889 C   0  0  0  0  0  0  0  0  0  0  0  0
    0.3295   -1.0860   -2.2631 H   0  0  0  0  0  0  0  0  0  0  0  0
    0.2317    0.6755   -2.1910 H   0  0  0  0  0  0  0  0  0  0  0  0
    2.1605   -0.1755   -1.7027 C   0  0  0  0  0  0  0  0  0  0  0  0
    2.7091    0.7995   -2.1847 O   0  0  0  0  0  0  0  0  0  0  0  0
    2.8318   -1.2251   -1.1756 O   0  0  0  0  0  0  0  0  0  0  0  0
    3.7738   -1.0422   -1.3133 H   0  0  0  0  0  0  0  0  0  0  0  0
   -0.0473    1.0820    0.3886 C   0  0  0  0  0  0  0  0  0  0  0  0
   -1.0236    1.7750    0.1282 O   0  0  0  0  0  0  0  0  0  0  0  0
    0.8793    1.5250    1.3138 N   0  0  0  0  0  0  0  0  0  0  0  0
    1.6724    0.9228    1.5161 H   0  0  0  0  0  0  0  0  0  0  0  0
    0.8007    2.8292    1.9603 C   0  0  0  0  0  0  0  0  0  0  0  0
   -0.1478    2.9351    2.4975 H   0  0  0  0  0  0  0  0  0  0  0  0
    1.6181    2.9453    2.6783 H   0  0  0  0  0  0  0  0  0  0  0  0
    0.8760    3.6297    1.2167 H   0  0  0  0  0  0  0  0  0  0  0  0
  1  2  1  0  0  0  0
  2  3  1  0  0  0  0
  2  4  1  0  0  0  0
  2  5  1  0  0  0  0
  5  6  2  0  0  0  0
  5  7  1  0  0  0  0
  7  8  1  0  0  0  0
  7  9  1  0  0  0  0
  9 10  1  0  0  0  0
  9 11  1  0  0  0  0
  9 18  1  0  0  0  0
 11 12  1  0  0  0  0
 11 13  1  0  0  0  0
 11 14  1  0  0  0  0
 14 15  2  0  0  0  0
 14 16  1  0  0  0  0
 16 17  1  0  0  0  0
 18 19  2  0  0  0  0
 18 20  1  0  0  0  0
 20 21  1  0  0  0  0
 20 22  1  0  0  0  0
 22 23  1  0  0  0  0
 22 24  1  0  0  0  0
 22 25  1  0  0  0  0
M  END
$$$$

  -OEChem-02102214113D

 25 24  0     1  0  0  0  0  0999 V2000
   -2.7318   -3.9856    0.4188 H   0  0  0  0  0  0  0  0  0  0  0  0
   -2.7707   -2.9391    0.1036 C   0  0  0  0  0  0  0  0  0  0  0  0
   -3.3836   -2.3799    0.8147 H   0  0  0  0  0  0  0  0  0  0  0  0
   -3.2314   -2.8858   -0.8857 H   0  0  0  0  0  0  0  0  0  0  0  0
   -1.3713   -2.3551    0.0553 C   0  0  0  0  0  0  0  0  0  0  0  0
   -0.4098   -3.0526    0.3360 O   0  0  0  0  0  0  0  0  0  0  0  0
   -1.1947   -1.0305   -0.2882 N   0  0  0  0  0  0  0  0  0  0  0  0
   -2.0327   -0.4644   -0.4150 H   0  0  0  0  0  0  0  0  0  0  0  0
    0.0888   -0.3154   -0.2625 C   0  0  1  0  0  0  0  0  0  0  0  0
    0.7978   -0.8891    0.3458 H   0  0  0  0  0  0  0  0  0  0  0  0
    0.6292   -0.2014   -1.6978 C   0  0  0  0  0  0  0  0  0  0  0  0
    0.3168   -1.0721   -2.2813 H   0  0  0  0  0  0  0  0  0  0  0  0
    0.2295    0.6897   -2.1921 H   0  0  0  0  0  0  0  0  0  0  0  0
    2.1501   -0.1723   -1.6988 C   0  0  0  0  0  0  0  0  0  0  0  0
    2.7066    0.8925   -1.9011 O   0  0  0  0  0  0  0  0  0  0  0  0
    2.8100   -1.3275   -1.4573 O   0  0  0  0  0  0  0  0  0  0  0  0
    3.7549   -1.1218   -1.5221 H   0  0  0  0  0  0  0  0  0  0  0  0
   -0.0472    1.0750    0.3882 C   0  0  0  0  0  0  0  0  0  0  0  0
   -1.0324    1.7614    0.1440 O   0  0  0  0  0  0  0  0  0  0  0  0
    0.8825    1.5168    1.3109 N   0  0  0  0  0  0  0  0  0  0  0  0
    1.7009    0.9369    1.4728 H   0  0  0  0  0  0  0  0  0  0  0  0
    0.8087    2.8237    1.9525 C   0  0  0  0  0  0  0  0  0  0  0  0
   -0.1417    2.9373    2.4846 H   0  0  0  0  0  0  0  0  0  0  0  0
    1.6229    2.9374    2.6746 H   0  0  0  0  0  0  0  0  0  0  0  0
    0.8924    3.6211    1.2067 H   0  0  0  0  0  0  0  0  0  0  0  0
  1  2  1  0  0  0  0
  2  3  1  0  0  0  0
  2  4  1  0  0  0  0
  2  5  1  0  0  0  0
  5  6  2  0  0  0  0
  5  7  1  0  0  0  0
  7  8  1  0  0  0  0
  7  9  1  0  0  0  0
  9 10  1  0  0  0  0
  9 11  1  0  0  0  0
  9 18  1  0  0  0  0
 11 12  1  0  0  0  0
 11 13  1  0  0  0  0
 11 14  1  0  0  0  0
 14 15  2  0  0  0  0
 14 16  1  0  0  0  0
 16 17  1  0  0  0  0
 18 19  2  0  0  0  0
 18 20  1  0  0  0  0
 20 21  1  0  0  0  0
 20 22  1  0  0  0  0
 22 23  1  0  0  0  0
 22 24  1  0  0  0  0
 22 25  1  0  0  0  0
M  END
$$$$

  -OEChem-02102214113D

 25 24  0     1  0  0  0  0  0999 V2000
   -2.7291   -3.9861    0.4205 H   0  0  0  0  0  0  0  0  0  0  0  0
   -2.7708   -2.9395    0.1066 C   0  0  0  0  0  0  0  0  0  0  0  0
   -3.3804   -2.3812    0.8212 H   0  0  0  0  0  0  0  0  0  0  0  0
   -3.2372   -2.8858   -0.8799 H   0  0  0  0  0  0  0  0  0  0  0  0
   -1.3720   -2.3549    0.0499 C   0  0  0  0  0  0  0  0  0  0  0  0
   -0.4074   -3.0539    0.3166 O   0  0  0  0  0  0  0  0  0  0  0  0
   -1.1970   -1.0291   -0.2900 N   0  0  0  0  0  0  0  0  0  0  0  0
   -2.0348   -0.4602   -0.4046 H   0  0  0  0  0  0  0  0  0  0  0  0
    0.0881   -0.3174   -0.2661 C   0  0  1  0  0  0  0  0  0  0  0  0
    0.7991   -0.8924    0.3385 H   0  0  0  0  0  0  0  0  0  0  0  0
    0.6254   -0.1980   -1.7016 C   0  0  0  0  0  0  0  0  0  0  0  0
    0.3072   -1.0630   -2.2905 H   0  0  0  0  0  0  0  0  0  0  0  0
    0.2319    0.6986   -2.1904 H   0  0  0  0  0  0  0  0  0  0  0  0
    2.1461   -0.1739   -1.6988 C   0  0  0  0  0  0  0  0  0  0  0  0
    2.7051    0.9056   -1.6140 O   0  0  0  0  0  0  0  0  0  0  0  0
    2.8022   -1.3538   -1.7751 O   0  0  0  0  0  0  0  0  0  0  0  0
    3.7483   -1.1433   -1.7742 H   0  0  0  0  0  0  0  0  0  0  0  0
   -0.0499    1.0707    0.3916 C   0  0  0  0  0  0  0  0  0  0  0  0
   -1.0443    1.7495    0.1622 O   0  0  0  0  0  0  0  0  0  0  0  0
    0.8798    1.5108    1.3149 N   0  0  0  0  0  0  0  0  0  0  0  0
    1.7245    0.9580    1.4296 H   0  0  0  0  0  0  0  0  0  0  0  0
    0.8102    2.8212    1.9495 C   0  0  0  0  0  0  0  0  0  0  0  0
   -0.1427    2.9436    2.4754 H   0  0  0  0  0  0  0  0  0  0  0  0
    1.6204    2.9328    2.6765 H   0  0  0  0  0  0  0  0  0  0  0  0
    0.9041    3.6143    1.2004 H   0  0  0  0  0  0  0  0  0  0  0  0
  1  2  1  0  0  0  0
  2  3  1  0  0  0  0
  2  4  1  0  0  0  0
  2  5  1  0  0  0  0
  5  6  2  0  0  0  0
  5  7  1  0  0  0  0
  7  8  1  0  0  0  0
  7  9  1  0  0  0  0
  9 10  1  0  0  0  0
  9 11  1  0  0  0  0
  9 18  1  0  0  0  0
 11 12  1  0  0  0  0
 11 13  1  0  0  0  0
 11 14  1  0  0  0  0
 14 15  2  0  0  0  0
 14 16  1  0  0  0  0
 16 17  1  0  0  0  0
 18 19  2  0  0  0  0
 18 20  1  0  0  0  0
 20 21  1  0  0  0  0
 20 22  1  0  0  0  0
 22 23  1  0  0  0  0
 22 24  1  0  0  0  0
 22 25  1  0  0  0  0
M  END
$$$$

  -OEChem-02102214113D

 25 24  0     1  0  0  0  0  0999 V2000
   -2.7310   -3.9823    0.4301 H   0  0  0  0  0  0  0  0  0  0  0  0
   -2.7728   -2.9367    0.1126 C   0  0  0  0  0  0  0  0  0  0  0  0
   -3.3758   -2.3746    0.8298 H   0  0  0  0  0  0  0  0  0  0  0  0
   -3.2462   -2.8852   -0.8708 H   0  0  0  0  0  0  0  0  0  0  0  0
   -1.3733   -2.3551    0.0440 C   0  0  0  0  0  0  0  0  0  0  0  0
   -0.4069   -3.0579    0.2946 O   0  0  0  0  0  0  0  0  0  0  0  0
   -1.1988   -1.0286   -0.2925 N   0  0  0  0  0  0  0  0  0  0  0  0
   -2.0362   -0.4555   -0.3892 H   0  0  0  0  0  0  0  0  0  0  0  0
    0.0875   -0.3193   -0.2686 C   0  0  1  0  0  0  0  0  0  0  0  0
    0.7983   -0.8953    0.3351 H   0  0  0  0  0  0  0  0  0  0  0  0
    0.6261   -0.1963   -1.7037 C   0  0  0  0  0  0  0  0  0  0  0  0
    0.3029   -1.0576   -2.2953 H   0  0  0  0  0  0  0  0  0  0  0  0
    0.2371    0.7033   -2.1898 H   0  0  0  0  0  0  0  0  0  0  0  0
    2.1474   -0.1754   -1.7017 C   0  0  0  0  0  0  0  0  0  0  0  0
    2.7093    0.8443   -1.3390 O   0  0  0  0  0  0  0  0  0  0  0  0
    2.8007   -1.2918   -2.0970 O   0  0  0  0  0  0  0  0  0  0  0  0
    3.7471   -1.0925   -2.0365 H   0  0  0  0  0  0  0  0  0  0  0  0
   -0.0525    1.0667    0.3948 C   0  0  0  0  0  0  0  0  0  0  0  0
   -1.0565    1.7367    0.1804 O   0  0  0  0  0  0  0  0  0  0  0  0
    0.8770    1.5049    1.3192 N   0  0  0  0  0  0  0  0  0  0  0  0
    1.7495    0.9868    1.3770 H   0  0  0  0  0  0  0  0  0  0  0  0
    0.8062    2.8170    1.9500 C   0  0  0  0  0  0  0  0  0  0  0  0
   -0.1513    2.9444    2.4663 H   0  0  0  0  0  0  0  0  0  0  0  0
    1.6091    2.9262    2.6853 H   0  0  0  0  0  0  0  0  0  0  0  0
    0.9107    3.6079    1.1999 H   0  0  0  0  0  0  0  0  0  0  0  0
  1  2  1  0  0  0  0
  2  3  1  0  0  0  0
  2  4  1  0  0  0  0
  2  5  1  0  0  0  0
  5  6  2  0  0  0  0
  5  7  1  0  0  0  0
  7  8  1  0  0  0  0
  7  9  1  0  0  0  0
  9 10  1  0  0  0  0
  9 11  1  0  0  0  0
  9 18  1  0  0  0  0
 11 12  1  0  0  0  0
 11 13  1  0  0  0  0
 11 14  1  0  0  0  0
 14 15  2  0  0  0  0
 14 16  1  0  0  0  0
 16 17  1  0  0  0  0
 18 19  2  0  0  0  0
 18 20  1  0  0  0  0
 20 21  1  0  0  0  0
 20 22  1  0  0  0  0
 22 23  1  0  0  0  0
 22 24  1  0  0  0  0
 22 25  1  0  0  0  0
M  END
$$$$

  -OEChem-02102214113D

 25 24  0     1  0  0  0  0  0999 V2000
   -2.7300   -3.9792    0.4366 H   0  0  0  0  0  0  0  0  0  0  0  0
   -2.7734   -2.9339    0.1181 C   0  0  0  0  0  0  0  0  0  0  0  0
   -3.3736   -2.3712    0.8373 H   0  0  0  0  0  0  0  0  0  0  0  0
   -3.2510   -2.8838   -0.8634 H   0  0  0  0  0  0  0  0  0  0  0  0
   -1.3741   -2.3524    0.0422 C   0  0  0  0  0  0  0  0  0  0  0  0
   -0.4063   -3.0581    0.2797 O   0  0  0  0  0  0  0  0  0  0  0  0
   -1.1994   -1.0254   -0.2930 N   0  0  0  0  0  0  0  0  0  0  0  0
   -2.0362   -0.4496   -0.3790 H   0  0  0  0  0  0  0  0  0  0  0  0
    0.0883   -0.3184   -0.2673 C   0  0  1  0  0  0  0  0  0  0  0  0
    0.7974   -0.8939    0.3390 H   0  0  0  0  0  0  0  0  0  0  0  0
    0.6304   -0.1985   -1.7023 C   0  0  0  0  0  0  0  0  0  0  0  0
    0.3024   -1.0605   -2.2904 H   0  0  0  0  0  0  0  0  0  0  0  0
    0.2429    0.7007   -2.1898 H   0  0  0  0  0  0  0  0  0  0  0  0
    2.1532   -0.1801   -1.7126 C   0  0  0  0  0  0  0  0  0  0  0  0
    2.7277    0.7100   -1.1069 O   0  0  0  0  0  0  0  0  0  0  0  0
    2.7943   -1.1506   -2.4035 O   0  0  0  0  0  0  0  0  0  0  0  0
    3.7427   -0.9789   -2.3026 H   0  0  0  0  0  0  0  0  0  0  0  0
   -0.0548    1.0667    0.3985 C   0  0  0  0  0  0  0  0  0  0  0  0
   -1.0628    1.7325    0.1880 O   0  0  0  0  0  0  0  0  0  0  0  0
    0.8721    1.5043    1.3255 N   0  0  0  0  0  0  0  0  0  0  0  0
    1.7598    1.0082    1.3483 H   0  0  0  0  0  0  0  0  0  0  0  0
    0.7976    2.8162    1.9561 C   0  0  0  0  0  0  0  0  0  0  0  0
   -0.1634    2.9443    2.4656 H   0  0  0  0  0  0  0  0  0  0  0  0
    1.5951    2.9243    2.6974 H   0  0  0  0  0  0  0  0  0  0  0  0
    0.9082    3.6076    1.2073 H   0  0  0  0  0  0  0  0  0  0  0  0
  1  2  1  0  0  0  0
  2  3  1  0  0  0  0
  2  4  1  0  0  0  0
  2  5  1  0  0  0  0
  5  6  2  0  0  0  0
  5  7  1  0  0  0  0
  7  8  1  0  0  0  0
  7  9  1  0  0  0  0
  9 10  1  0  0  0  0
  9 11  1  0  0  0  0
  9 18  1  0  0  0  0
 11 12  1  0  0  0  0
 11 13  1  0  0  0  0
 11 14  1  0  0  0  0
 14 15  2  0  0  0  0
 14 16  1  0  0  0  0
 16 17  1  0  0  0  0
 18 19  2  0  0  0  0
 18 20  1  0  0  0  0
 20 21  1  0  0  0  0
 20 22  1  0  0  0  0
 22 23  1  0  0  0  0
 22 24  1  0  0  0  0
 22 25  1  0  0  0  0
M  END
$$$$

  -OEChem-02102214113D

 25 24  0     1  0  0  0  0  0999 V2000
   -2.7277   -3.9797    0.4422 H   0  0  0  0  0  0  0  0  0  0  0  0
   -2.7731   -2.9348    0.1222 C   0  0  0  0  0  0  0  0  0  0  0  0
   -3.3699   -2.3713    0.8434 H   0  0  0  0  0  0  0  0  0  0  0  0
   -3.2552   -2.8860   -0.8571 H   0  0  0  0  0  0  0  0  0  0  0  0
   -1.3748   -2.3526    0.0394 C   0  0  0  0  0  0  0  0  0  0  0  0
   -0.4051   -3.0593    0.2655 O   0  0  0  0  0  0  0  0  0  0  0  0
   -1.2025   -1.0250   -0.2945 N   0  0  0  0  0  0  0  0  0  0  0  0
   -2.0403   -0.4495   -0.3718 H   0  0  0  0  0  0  0  0  0  0  0  0
    0.0840   -0.3156   -0.2655 C   0  0  1  0  0  0  0  0  0  0  0  0
    0.7899   -0.8905    0.3454 H   0  0  0  0  0  0  0  0  0  0  0  0
    0.6342   -0.1999   -1.6990 C   0  0  0  0  0  0  0  0  0  0  0  0
    0.3081   -1.0661   -2.2818 H   0  0  0  0  0  0  0  0  0  0  0  0
    0.2439    0.6952   -2.1916 H   0  0  0  0  0  0  0  0  0  0  0  0
    2.1588   -0.1770   -1.7216 C   0  0  0  0  0  0  0  0  0  0  0  0
    2.7501    0.5280   -0.9186 O   0  0  0  0  0  0  0  0  0  0  0  0
    2.7829   -0.9336   -2.6534 O   0  0  0  0  0  0  0  0  0  0  0  0
    3.7337   -0.7981   -2.5231 H   0  0  0  0  0  0  0  0  0  0  0  0
   -0.0602    1.0693    0.4002 C   0  0  0  0  0  0  0  0  0  0  0  0
   -1.0675    1.7358    0.1887 O   0  0  0  0  0  0  0  0  0  0  0  0
    0.8667    1.5045    1.3281 N   0  0  0  0  0  0  0  0  0  0  0  0
    1.7586    1.0136    1.3356 H   0  0  0  0  0  0  0  0  0  0  0  0
    0.7957    2.8164    1.9590 C   0  0  0  0  0  0  0  0  0  0  0  0
   -0.1653    2.9470    2.4675 H   0  0  0  0  0  0  0  0  0  0  0  0
    1.5929    2.9216    2.7011 H   0  0  0  0  0  0  0  0  0  0  0  0
    0.9088    3.6080    1.2109 H   0  0  0  0  0  0  0  0  0  0  0  0
  1  2  1  0  0  0  0
  2  3  1  0  0  0  0
  2  4  1  0  0  0  0
  2  5  1  0  0  0  0
  5  6  2  0  0  0  0
  5  7  1  0  0  0  0
  7  8  1  0  0  0  0
  7  9  1  0  0  0  0
  9 10  1  0  0  0  0
  9 11  1  0  0  0  0
  9 18  1  0  0  0  0
 11 12  1  0  0  0  0
 11 13  1  0  0  0  0
 11 14  1  0  0  0  0
 14 15  2  0  0  0  0
 14 16  1  0  0  0  0
 16 17  1  0  0  0  0
 18 19  2  0  0  0  0
 18 20  1  0  0  0  0
 20 21  1  0  0  0  0
 20 22  1  0  0  0  0
 22 23  1  0  0  0  0
 22 24  1  0  0  0  0
 22 25  1  0  0  0  0
M  END
$$$$

  -OEChem-02102214113D

 25 24  0     1  0  0  0  0  0999 V2000
   -2.7215   -3.9852    0.4422 H   0  0  0  0  0  0  0  0  0  0  0  0
   -2.7712   -2.9402    0.1232 C   0  0  0  0  0  0  0  0  0  0  0  0
   -3.3696   -2.3795    0.8455 H   0  0  0  0  0  0  0  0  0  0  0  0
   -3.2543   -2.8923   -0.8556 H   0  0  0  0  0  0  0  0  0  0  0  0
   -1.3749   -2.3532    0.0392 C   0  0  0  0  0  0  0  0  0  0  0  0
   -0.4031   -3.0583    0.2611 O   0  0  0  0  0  0  0  0  0  0  0  0
   -1.2074   -1.0250   -0.2951 N   0  0  0  0  0  0  0  0  0  0  0  0
   -2.0476   -0.4534   -0.3743 H   0  0  0  0  0  0  0  0  0  0  0  0
    0.0758   -0.3096   -0.2625 C   0  0  1  0  0  0  0  0  0  0  0  0
    0.7757   -0.8843    0.3551 H   0  0  0  0  0  0  0  0  0  0  0  0
    0.6369   -0.2012   -1.6934 C   0  0  0  0  0  0  0  0  0  0  0  0
    0.3179   -1.0745   -2.2698 H   0  0  0  0  0  0  0  0  0  0  0  0
    0.2398    0.6865   -2.1934 H   0  0  0  0  0  0  0  0  0  0  0  0
    2.1626   -0.1685   -1.7289 C   0  0  0  0  0  0  0  0  0  0  0  0
    2.7743    0.3128   -0.7866 O   0  0  0  0  0  0  0  0  0  0  0  0
    2.7646   -0.6651   -2.8340 O   0  0  0  0  0  0  0  0  0  0  0  0
    3.7184   -0.5672   -2.6921 H   0  0  0  0  0  0  0  0  0  0  0  0
   -0.0653    1.0762    0.3995 C   0  0  0  0  0  0  0  0  0  0  0  0
   -1.0661    1.7494    0.1803 O   0  0  0  0  0  0  0  0  0  0  0  0
    0.8639    1.5086    1.3259 N   0  0  0  0  0  0  0  0  0  0  0  0
    1.7472    1.0019    1.3474 H   0  0  0  0  0  0  0  0  0  0  0  0
    0.7993    2.8191    1.9602 C   0  0  0  0  0  0  0  0  0  0  0  0
   -0.1600    2.9519    2.4714 H   0  0  0  0  0  0  0  0  0  0  0  0
    1.5987    2.9194    2.7005 H   0  0  0  0  0  0  0  0  0  0  0  0
    0.9136    3.6121    1.2138 H   0  0  0  0  0  0  0  0  0  0  0  0
  1  2  1  0  0  0  0
  2  3  1  0  0  0  0
  2  4  1  0  0  0  0
  2  5  1  0  0  0  0
  5  6  2  0  0  0  0
  5  7  1  0  0  0  0
  7  8  1  0  0  0  0
  7  9  1  0  0  0  0
  9 10  1  0  0  0  0
  9 11  1  0  0  0  0
  9 18  1  0  0  0  0
 11 12  1  0  0  0  0
 11 13  1  0  0  0  0
 11 14  1  0  0  0  0
 14 15  2  0  0  0  0
 14 16  1  0  0  0  0
 16 17  1  0  0  0  0
 18 19  2  0  0  0  0
 18 20  1  0  0  0  0
 20 21  1  0  0  0  0
 20 22  1  0  0  0  0
 22 23  1  0  0  0  0
 22 24  1  0  0  0  0
 22 25  1  0  0  0  0
M  END
$$$$

  -OEChem-02102214113D

 25 24  0     1  0  0  0  0  0999 V2000
   -2.7187   -3.9943    0.4343 H   0  0  0  0  0  0  0  0  0  0  0  0
   -2.7699   -2.9479    0.1210 C   0  0  0  0  0  0  0  0  0  0  0  0
   -3.3685   -2.3922    0.8468 H   0  0  0  0  0  0  0  0  0  0  0  0
   -3.2544   -2.8957   -0.8570 H   0  0  0  0  0  0  0  0  0  0  0  0
   -1.3747   -2.3577    0.0386 C   0  0  0  0  0  0  0  0  0  0  0  0
   -0.4011   -3.0601    0.2609 O   0  0  0  0  0  0  0  0  0  0  0  0
   -1.2123   -1.0288   -0.2956 N   0  0  0  0  0  0  0  0  0  0  0  0
   -2.0561   -0.4631   -0.3764 H   0  0  0  0  0  0  0  0  0  0  0  0
    0.0654   -0.3032   -0.2597 C   0  0  1  0  0  0  0  0  0  0  0  0
    0.7573   -0.8777    0.3668 H   0  0  0  0  0  0  0  0  0  0  0  0
    0.6388   -0.2011   -1.6875 C   0  0  0  0  0  0  0  0  0  0  0  0
    0.3313   -1.0816   -2.2587 H   0  0  0  0  0  0  0  0  0  0  0  0
    0.2336    0.6785   -2.1954 H   0  0  0  0  0  0  0  0  0  0  0  0
    2.1650   -0.1530   -1.7311 C   0  0  0  0  0  0  0  0  0  0  0  0
    2.7968    0.0804   -0.7110 O   0  0  0  0  0  0  0  0  0  0  0  0
    2.7453   -0.3615   -2.9351 O   0  0  0  0  0  0  0  0  0  0  0  0
    3.7018   -0.3031   -2.7893 H   0  0  0  0  0  0  0  0  0  0  0  0
   -0.0706    1.0839    0.3972 C   0  0  0  0  0  0  0  0  0  0  0  0
   -1.0629    1.7662    0.1692 O   0  0  0  0  0  0  0  0  0  0  0  0
    0.8631    1.5137    1.3202 N   0  0  0  0  0  0  0  0  0  0  0  0
    1.7289    0.9795    1.3739 H   0  0  0  0  0  0  0  0  0  0  0  0
    0.8079    2.8233    1.9571 C   0  0  0  0  0  0  0  0  0  0  0  0
   -0.1453    2.9563    2.4798 H   0  0  0  0  0  0  0  0  0  0  0  0
    1.6164    2.9222    2.6878 H   0  0  0  0  0  0  0  0  0  0  0  0
    0.9143    3.6170    1.2103 H   0  0  0  0  0  0  0  0  0  0  0  0
  1  2  1  0  0  0  0
  2  3  1  0  0  0  0
  2  4  1  0  0  0  0
  2  5  1  0  0  0  0
  5  6  2  0  0  0  0
  5  7  1  0  0  0  0
  7  8  1  0  0  0  0
  7  9  1  0  0  0  0
  9 10  1  0  0  0  0
  9 11  1  0  0  0  0
  9 18  1  0  0  0  0
 11 12  1  0  0  0  0
 11 13  1  0  0  0  0
 11 14  1  0  0  0  0
 14 15  2  0  0  0  0
 14 16  1  0  0  0  0
 16 17  1  0  0  0  0
 18 19  2  0  0  0  0
 18 20  1  0  0  0  0
 20 21  1  0  0  0  0
 20 22  1  0  0  0  0
 22 23  1  0  0  0  0
 22 24  1  0  0  0  0
 22 25  1  0  0  0  0
M  END
$$$$

  -OEChem-02102214113D

 25 24  0     1  0  0  0  0  0999 V2000
   -2.7102   -4.0012    0.4291 H   0  0  0  0  0  0  0  0  0  0  0  0
   -2.7646   -2.9548    0.1160 C   0  0  0  0  0  0  0  0  0  0  0  0
   -3.3699   -2.4026    0.8390 H   0  0  0  0  0  0  0  0  0  0  0  0
   -3.2436   -2.9047   -0.8649 H   0  0  0  0  0  0  0  0  0  0  0  0
   -1.3719   -2.3578    0.0425 C   0  0  0  0  0  0  0  0  0  0  0  0
   -0.3970   -3.0550    0.2740 O   0  0  0  0  0  0  0  0  0  0  0  0
   -1.2150   -1.0288   -0.2945 N   0  0  0  0  0  0  0  0  0  0  0  0
   -2.0620   -0.4701   -0.3876 H   0  0  0  0  0  0  0  0  0  0  0  0
    0.0577   -0.2942   -0.2570 C   0  0  1  0  0  0  0  0  0  0  0  0
    0.7426   -0.8665    0.3785 H   0  0  0  0  0  0  0  0  0  0  0  0
    0.6384   -0.2015   -1.6832 C   0  0  0  0  0  0  0  0  0  0  0  0
    0.3381   -1.0872   -2.2498 H   0  0  0  0  0  0  0  0  0  0  0  0
    0.2266    0.6718   -2.1968 H   0  0  0  0  0  0  0  0  0  0  0  0
    2.1646   -0.1412   -1.7340 C   0  0  0  0  0  0  0  0  0  0  0  0
    2.8169   -0.1662   -0.7010 O   0  0  0  0  0  0  0  0  0  0  0  0
    2.7222   -0.0560   -2.9634 O   0  0  0  0  0  0  0  0  0  0  0  0
    3.6814   -0.0378   -2.8253 H   0  0  0  0  0  0  0  0  0  0  0  0
   -0.0722    1.0953    0.3923 C   0  0  0  0  0  0  0  0  0  0  0  0
   -1.0558    1.7864    0.1549 O   0  0  0  0  0  0  0  0  0  0  0  0
    0.8664    1.5230    1.3111 N   0  0  0  0  0  0  0  0  0  0  0  0
    1.7093    0.9593    1.4060 H   0  0  0  0  0  0  0  0  0  0  0  0
    0.8135    2.8268    1.9598 C   0  0  0  0  0  0  0  0  0  0  0  0
   -0.1368    2.9539    2.4891 H   0  0  0  0  0  0  0  0  0  0  0  0
    1.6263    2.9205    2.6865 H   0  0  0  0  0  0  0  0  0  0  0  0
    0.9144    3.6272    1.2194 H   0  0  0  0  0  0  0  0  0  0  0  0
  1  2  1  0  0  0  0
  2  3  1  0  0  0  0
  2  4  1  0  0  0  0
  2  5  1  0  0  0  0
  5  6  2  0  0  0  0
  5  7  1  0  0  0  0
  7  8  1  0  0  0  0
  7  9  1  0  0  0  0
  9 10  1  0  0  0  0
  9 11  1  0  0  0  0
  9 18  1  0  0  0  0
 11 12  1  0  0  0  0
 11 13  1  0  0  0  0
 11 14  1  0  0  0  0
 14 15  2  0  0  0  0
 14 16  1  0  0  0  0
 16 17  1  0  0  0  0
 18 19  2  0  0  0  0
 18 20  1  0  0  0  0
 20 21  1  0  0  0  0
 20 22  1  0  0  0  0
 22 23  1  0  0  0  0
 22 24  1  0  0  0  0
 22 25  1  0  0  0  0
M  END
$$$$

  -OEChem-02102214113D

 25 24  0     1  0  0  0  0  0999 V2000
   -2.7047   -4.0030    0.4252 H   0  0  0  0  0  0  0  0  0  0  0  0
   -2.7600   -2.9566    0.1125 C   0  0  0  0  0  0  0  0  0  0  0  0
   -3.3718   -2.4067    0.8316 H   0  0  0  0  0  0  0  0  0  0  0  0
   -3.2324   -2.9071   -0.8714 H   0  0  0  0  0  0  0  0  0  0  0  0
   -1.3682   -2.3560    0.0491 C   0  0  0  0  0  0  0  0  0  0  0  0
   -0.3945   -3.0492    0.2960 O   0  0  0  0  0  0  0  0  0  0  0  0
   -1.2115   -1.0278   -0.2917 N   0  0  0  0  0  0  0  0  0  0  0  0
   -2.0591   -0.4738   -0.4046 H   0  0  0  0  0  0  0  0  0  0  0  0
    0.0594   -0.2900   -0.2551 C   0  0  1  0  0  0  0  0  0  0  0  0
    0.7428   -0.8591    0.3843 H   0  0  0  0  0  0  0  0  0  0  0  0
    0.6378   -0.2015   -1.6832 C   0  0  0  0  0  0  0  0  0  0  0  0
    0.3391   -1.0881   -2.2491 H   0  0  0  0  0  0  0  0  0  0  0  0
    0.2215    0.6703   -2.1965 H   0  0  0  0  0  0  0  0  0  0  0  0
    2.1635   -0.1373   -1.7398 C   0  0  0  0  0  0  0  0  0  0  0  0
    2.8316   -0.4262   -0.7594 O   0  0  0  0  0  0  0  0  0  0  0  0
    2.7037    0.2470   -2.9187 O   0  0  0  0  0  0  0  0  0  0  0  0
    3.6648    0.2232   -2.7953 H   0  0  0  0  0  0  0  0  0  0  0  0
   -0.0684    1.1019    0.3883 C   0  0  0  0  0  0  0  0  0  0  0  0
   -1.0435    1.8001    0.1387 O   0  0  0  0  0  0  0  0  0  0  0  0
    0.8711    1.5324    1.3055 N   0  0  0  0  0  0  0  0  0  0  0  0
    1.6865    0.9407    1.4516 H   0  0  0  0  0  0  0  0  0  0  0  0
    0.8114    2.8305    1.9654 C   0  0  0  0  0  0  0  0  0  0  0  0
   -0.1365    2.9452    2.5016 H   0  0  0  0  0  0  0  0  0  0  0  0
    1.6284    2.9258    2.6872 H   0  0  0  0  0  0  0  0  0  0  0  0
    0.9004    3.6376    1.2309 H   0  0  0  0  0  0  0  0  0  0  0  0
  1  2  1  0  0  0  0
  2  3  1  0  0  0  0
  2  4  1  0  0  0  0
  2  5  1  0  0  0  0
  5  6  2  0  0  0  0
  5  7  1  0  0  0  0
  7  8  1  0  0  0  0
  7  9  1  0  0  0  0
  9 10  1  0  0  0  0
  9 11  1  0  0  0  0
  9 18  1  0  0  0  0
 11 12  1  0  0  0  0
 11 13  1  0  0  0  0
 11 14  1  0  0  0  0
 14 15  2  0  0  0  0
 14 16  1  0  0  0  0
 16 17  1  0  0  0  0
 18 19  2  0  0  0  0
 18 20  1  0  0  0  0
 20 21  1  0  0  0  0
 20 22  1  0  0  0  0
 22 23  1  0  0  0  0
 22 24  1  0  0  0  0
 22 25  1  0  0  0  0
M  END
$$$$

  -OEChem-02102214113D

 25 24  0     1  0  0  0  0  0999 V2000
   -2.7025   -4.0031    0.4186 H   0  0  0  0  0  0  0  0  0  0  0  0
   -2.7562   -2.9556    0.1089 C   0  0  0  0  0  0  0  0  0  0  0  0
   -3.3723   -2.4077    0.8259 H   0  0  0  0  0  0  0  0  0  0  0  0
   -3.2229   -2.9032   -0.8776 H   0  0  0  0  0  0  0  0  0  0  0  0
   -1.3642   -2.3545    0.0557 C   0  0  0  0  0  0  0  0  0  0  0  0
   -0.3931   -3.0457    0.3173 O   0  0  0  0  0  0  0  0  0  0  0  0
   -1.2053   -1.0273   -0.2880 N   0  0  0  0  0  0  0  0  0  0  0  0
   -2.0519   -0.4750   -0.4157 H   0  0  0  0  0  0  0  0  0  0  0  0
    0.0662   -0.2901   -0.2541 C   0  0  1  0  0  0  0  0  0  0  0  0
    0.7550   -0.8566    0.3818 H   0  0  0  0  0  0  0  0  0  0  0  0
    0.6343   -0.1996   -1.6860 C   0  0  0  0  0  0  0  0  0  0  0  0
    0.3330   -1.0838   -2.2539 H   0  0  0  0  0  0  0  0  0  0  0  0
    0.2154    0.6740   -2.1945 H   0  0  0  0  0  0  0  0  0  0  0  0
    2.1591   -0.1373   -1.7424 C   0  0  0  0  0  0  0  0  0  0  0  0
    2.8281   -0.6792   -0.8780 O   0  0  0  0  0  0  0  0  0  0  0  0
    2.6976    0.5348   -2.7853 O   0  0  0  0  0  0  0  0  0  0  0  0
    3.6590    0.4667   -2.6819 H   0  0  0  0  0  0  0  0  0  0  0  0
   -0.0633    1.1028    0.3868 C   0  0  0  0  0  0  0  0  0  0  0  0
   -1.0335    1.8041    0.1269 O   0  0  0  0  0  0  0  0  0  0  0  0
    0.8749    1.5372    1.3037 N   0  0  0  0  0  0  0  0  0  0  0  0
    1.6683    0.9276    1.4896 H   0  0  0  0  0  0  0  0  0  0  0  0
    0.8075    2.8335    1.9667 C   0  0  0  0  0  0  0  0  0  0  0  0
   -0.1327    2.9338    2.5193 H   0  0  0  0  0  0  0  0  0  0  0  0
    1.6357    2.9399    2.6740 H   0  0  0  0  0  0  0  0  0  0  0  0
    0.8727    3.6430    1.2321 H   0  0  0  0  0  0  0  0  0  0  0  0
  1  2  1  0  0  0  0
  2  3  1  0  0  0  0
  2  4  1  0  0  0  0
  2  5  1  0  0  0  0
  5  6  2  0  0  0  0
  5  7  1  0  0  0  0
  7  8  1  0  0  0  0
  7  9  1  0  0  0  0
  9 10  1  0  0  0  0
  9 11  1  0  0  0  0
  9 18  1  0  0  0  0
 11 12  1  0  0  0  0
 11 13  1  0  0  0  0
 11 14  1  0  0  0  0
 14 15  2  0  0  0  0
 14 16  1  0  0  0  0
 16 17  1  0  0  0  0
 18 19  2  0  0  0  0
 18 20  1  0  0  0  0
 20 21  1  0  0  0  0
 20 22  1  0  0  0  0
 22 23  1  0  0  0  0
 22 24  1  0  0  0  0
 22 25  1  0  0  0  0
M  END
$$$$

  -OEChem-02102214113D

 25 24  0     1  0  0  0  0  0999 V2000
   -2.7006   -4.0027    0.4127 H   0  0  0  0  0  0  0  0  0  0  0  0
   -2.7524   -2.9543    0.1056 C   0  0  0  0  0  0  0  0  0  0  0  0
   -3.3735   -2.4086    0.8199 H   0  0  0  0  0  0  0  0  0  0  0  0
   -3.2123   -2.8994   -0.8840 H   0  0  0  0  0  0  0  0  0  0  0  0
   -1.3602   -2.3526    0.0636 C   0  0  0  0  0  0  0  0  0  0  0  0
   -0.3920   -3.0407    0.3427 O   0  0  0  0  0  0  0  0  0  0  0  0
   -1.1984   -1.0265   -0.2827 N   0  0  0  0  0  0  0  0  0  0  0  0
   -2.0435   -0.4743   -0.4208 H   0  0  0  0  0  0  0  0  0  0  0  0
    0.0752   -0.2925   -0.2564 C   0  0  1  0  0  0  0  0  0  0  0  0
    0.7755   -0.8576    0.3687 H   0  0  0  0  0  0  0  0  0  0  0  0
    0.6266   -0.1954   -1.6935 C   0  0  0  0  0  0  0  0  0  0  0  0
    0.3210   -1.0766   -2.2640 H   0  0  0  0  0  0  0  0  0  0  0  0
    0.2076    0.6819   -2.1957 H   0  0  0  0  0  0  0  0  0  0  0  0
    2.1501   -0.1387   -1.7437 C   0  0  0  0  0  0  0  0  0  0  0  0
    2.8059   -0.9022   -1.0558 O   0  0  0  0  0  0  0  0  0  0  0  0
    2.7026    0.7842   -2.5637 O   0  0  0  0  0  0  0  0  0  0  0  0
    3.6626    0.6745   -2.4852 H   0  0  0  0  0  0  0  0  0  0  0  0
   -0.0575    1.1003    0.3850 C   0  0  0  0  0  0  0  0  0  0  0  0
   -1.0272    1.8011    0.1221 O   0  0  0  0  0  0  0  0  0  0  0  0
    0.8804    1.5399    1.3001 N   0  0  0  0  0  0  0  0  0  0  0  0
    1.6587    0.9207    1.5129 H   0  0  0  0  0  0  0  0  0  0  0  0
    0.8043    2.8351    1.9644 C   0  0  0  0  0  0  0  0  0  0  0  0
   -0.1290    2.9214    2.5310 H   0  0  0  0  0  0  0  0  0  0  0  0
    1.6419    2.9545    2.6584 H   0  0  0  0  0  0  0  0  0  0  0  0
    0.8461    3.6453    1.2287 H   0  0  0  0  0  0  0  0  0  0  0  0
  1  2  1  0  0  0  0
  2  3  1  0  0  0  0
  2  4  1  0  0  0  0
  2  5  1  0  0  0  0
  5  6  2  0  0  0  0
  5  7  1  0  0  0  0
  7  8  1  0  0  0  0
  7  9  1  0  0  0  0
  9 10  1  0  0  0  0
  9 11  1  0  0  0  0
  9 18  1  0  0  0  0
 11 12  1  0  0  0  0
 11 13  1  0  0  0  0
 11 14  1  0  0  0  0
 14 15  2  0  0  0  0
 14 16  1  0  0  0  0
 16 17  1  0  0  0  0
 18 19  2  0  0  0  0
 18 20  1  0  0  0  0
 20 21  1  0  0  0  0
 20 22  1  0  0  0  0
 22 23  1  0  0  0  0
 22 24  1  0  0  0  0
 22 25  1  0  0  0  0
M  END
$$$$

  -OEChem-02102214113D

 25 24  0     1  0  0  0  0  0999 V2000
   -2.6956   -4.0031    0.4117 H   0  0  0  0  0  0  0  0  0  0  0  0
   -2.7470   -2.9550    0.1037 C   0  0  0  0  0  0  0  0  0  0  0  0
   -3.3714   -2.4091    0.8150 H   0  0  0  0  0  0  0  0  0  0  0  0
   -3.2027   -2.9013   -0.8878 H   0  0  0  0  0  0  0  0  0  0  0  0
   -1.3554   -2.3518    0.0673 C   0  0  0  0  0  0  0  0  0  0  0  0
   -0.3880   -3.0363    0.3573 O   0  0  0  0  0  0  0  0  0  0  0  0
   -1.1939   -1.0260   -0.2799 N   0  0  0  0  0  0  0  0  0  0  0  0
   -2.0385   -0.4748   -0.4244 H   0  0  0  0  0  0  0  0  0  0  0  0
    0.0808   -0.2942   -0.2613 C   0  0  1  0  0  0  0  0  0  0  0  0
    0.7930   -0.8593    0.3510 H   0  0  0  0  0  0  0  0  0  0  0  0
    0.6166   -0.1899   -1.7018 C   0  0  0  0  0  0  0  0  0  0  0  0
    0.3073   -1.0674   -2.2763 H   0  0  0  0  0  0  0  0  0  0  0  0
    0.2002    0.6916   -2.1985 H   0  0  0  0  0  0  0  0  0  0  0  0
    2.1384   -0.1381   -1.7388 C   0  0  0  0  0  0  0  0  0  0  0  0
    2.7760   -1.0682   -1.2774 O   0  0  0  0  0  0  0  0  0  0  0  0
    2.7097    0.9675   -2.2686 O   0  0  0  0  0  0  0  0  0  0  0  0
    3.6674    0.8243   -2.2220 H   0  0  0  0  0  0  0  0  0  0  0  0
   -0.0539    1.0979    0.3829 C   0  0  0  0  0  0  0  0  0  0  0  0
   -1.0275    1.7951    0.1243 O   0  0  0  0  0  0  0  0  0  0  0  0
    0.8848    1.5417    1.2954 N   0  0  0  0  0  0  0  0  0  0  0  0
    1.6614    0.9232    1.5139 H   0  0  0  0  0  0  0  0  0  0  0  0
    0.8039    2.8367    1.9598 C   0  0  0  0  0  0  0  0  0  0  0  0
   -0.1299    2.9196    2.5259 H   0  0  0  0  0  0  0  0  0  0  0  0
    1.6406    2.9588    2.6543 H   0  0  0  0  0  0  0  0  0  0  0  0
    0.8436    3.6472    1.2245 H   0  0  0  0  0  0  0  0  0  0  0  0
  1  2  1  0  0  0  0
  2  3  1  0  0  0  0
  2  4  1  0  0  0  0
  2  5  1  0  0  0  0
  5  6  2  0  0  0  0
  5  7  1  0  0  0  0
  7  8  1  0  0  0  0
  7  9  1  0  0  0  0
  9 10  1  0  0  0  0
  9 11  1  0  0  0  0
  9 18  1  0  0  0  0
 11 12  1  0  0  0  0
 11 13  1  0  0  0  0
 11 14  1  0  0  0  0
 14 15  2  0  0  0  0
 14 16  1  0  0  0  0
 16 17  1  0  0  0  0
 18 19  2  0  0  0  0
 18 20  1  0  0  0  0
 20 21  1  0  0  0  0
 20 22  1  0  0  0  0
 22 23  1  0  0  0  0
 22 24  1  0  0  0  0
 22 25  1  0  0  0  0
M  END
$$$$

  -OEChem-02102214113D

 25 24  0     1  0  0  0  0  0999 V2000
   -2.6924   -4.0044    0.4071 H   0  0  0  0  0  0  0  0  0  0  0  0
   -2.7438   -2.9557    0.1006 C   0  0  0  0  0  0  0  0  0  0  0  0
   -3.3693   -2.4107    0.8117 H   0  0  0  0  0  0  0  0  0  0  0  0
   -3.1986   -2.9006   -0.8913 H   0  0  0  0  0  0  0  0  0  0  0  0
   -1.3523   -2.3520    0.0667 C   0  0  0  0  0  0  0  0  0  0  0  0
   -0.3856   -3.0344    0.3646 O   0  0  0  0  0  0  0  0  0  0  0  0
   -1.1903   -1.0262   -0.2795 N   0  0  0  0  0  0  0  0  0  0  0  0
   -2.0343   -0.4740   -0.4245 H   0  0  0  0  0  0  0  0  0  0  0  0
    0.0855   -0.2970   -0.2635 C   0  0  1  0  0  0  0  0  0  0  0  0
    0.8049   -0.8632    0.3396 H   0  0  0  0  0  0  0  0  0  0  0  0
    0.6114   -0.1840   -1.7052 C   0  0  0  0  0  0  0  0  0  0  0  0
    0.2978   -1.0568   -2.2852 H   0  0  0  0  0  0  0  0  0  0  0  0
    0.1995    0.7031   -2.1956 H   0  0  0  0  0  0  0  0  0  0  0  0
    2.1321   -0.1370   -1.7318 C   0  0  0  0  0  0  0  0  0  0  0  0
    2.7569   -1.1639   -1.5361 O   0  0  0  0  0  0  0  0  0  0  0  0
    2.7164    1.0659   -1.9339 O   0  0  0  0  0  0  0  0  0  0  0  0
    3.6724    0.9040   -1.9309 H   0  0  0  0  0  0  0  0  0  0  0  0
   -0.0530    1.0938    0.3846 C   0  0  0  0  0  0  0  0  0  0  0  0
   -1.0320    1.7857    0.1313 O   0  0  0  0  0  0  0  0  0  0  0  0
    0.8835    1.5407    1.2980 N   0  0  0  0  0  0  0  0  0  0  0  0
    1.6713    0.9328    1.5047 H   0  0  0  0  0  0  0  0  0  0  0  0
    0.8025    2.8395    1.9548 C   0  0  0  0  0  0  0  0  0  0  0  0
   -0.1308    2.9260    2.5213 H   0  0  0  0  0  0  0  0  0  0  0  0
    1.6394    2.9658    2.6482 H   0  0  0  0  0  0  0  0  0  0  0  0
    0.8416    3.6451    1.2141 H   0  0  0  0  0  0  0  0  0  0  0  0
  1  2  1  0  0  0  0
  2  3  1  0  0  0  0
  2  4  1  0  0  0  0
  2  5  1  0  0  0  0
  5  6  2  0  0  0  0
  5  7  1  0  0  0  0
  7  8  1  0  0  0  0
  7  9  1  0  0  0  0
  9 10  1  0  0  0  0
  9 11  1  0  0  0  0
  9 18  1  0  0  0  0
 11 12  1  0  0  0  0
 11 13  1  0  0  0  0
 11 14  1  0  0  0  0
 14 15  2  0  0  0  0
 14 16  1  0  0  0  0
 16 17  1  0  0  0  0
 18 19  2  0  0  0  0
 18 20  1  0  0  0  0
 20 21  1  0  0  0  0
 20 22  1  0  0  0  0
 22 23  1  0  0  0  0
 22 24  1  0  0  0  0
 22 25  1  0  0  0  0
M  END
$$$$

  -OEChem-02102214113D

 25 24  0     1  0  0  0  0  0999 V2000
   -2.6907   -4.0024    0.4104 H   0  0  0  0  0  0  0  0  0  0  0  0
   -2.7424   -2.9547    0.1008 C   0  0  0  0  0  0  0  0  0  0  0  0
   -3.3664   -2.4082    0.8121 H   0  0  0  0  0  0  0  0  0  0  0  0
   -3.1993   -2.9025   -0.8904 H   0  0  0  0  0  0  0  0  0  0  0  0
   -1.3508   -2.3516    0.0620 C   0  0  0  0  0  0  0  0  0  0  0  0
   -0.3825   -3.0353    0.3521 O   0  0  0  0  0  0  0  0  0  0  0  0
   -1.1885   -1.0249   -0.2806 N   0  0  0  0  0  0  0  0  0  0  0  0
   -2.0318   -0.4700   -0.4188 H   0  0  0  0  0  0  0  0  0  0  0  0
    0.0892   -0.2992   -0.2631 C   0  0  1  0  0  0  0  0  0  0  0  0
    0.8103   -0.8674    0.3362 H   0  0  0  0  0  0  0  0  0  0  0  0
    0.6131   -0.1795   -1.7044 C   0  0  0  0  0  0  0  0  0  0  0  0
    0.2926   -1.0463   -2.2900 H   0  0  0  0  0  0  0  0  0  0  0  0
    0.2086    0.7140   -2.1890 H   0  0  0  0  0  0  0  0  0  0  0  0
    2.1336   -0.1380   -1.7250 C   0  0  0  0  0  0  0  0  0  0  0  0
    2.7491   -1.1852   -1.8116 O   0  0  0  0  0  0  0  0  0  0  0  0
    2.7286    1.0700   -1.5968 O   0  0  0  0  0  0  0  0  0  0  0  0
    3.6827    0.9048   -1.6508 H   0  0  0  0  0  0  0  0  0  0  0  0
   -0.0556    1.0890    0.3915 C   0  0  0  0  0  0  0  0  0  0  0  0
   -1.0430    1.7725    0.1470 O   0  0  0  0  0  0  0  0  0  0  0  0
    0.8759    1.5376    1.3090 N   0  0  0  0  0  0  0  0  0  0  0  0
    1.6933    0.9573    1.4740 H   0  0  0  0  0  0  0  0  0  0  0  0
    0.7953    2.8416    1.9554 C   0  0  0  0  0  0  0  0  0  0  0  0
   -0.1503    2.9431    2.4985 H   0  0  0  0  0  0  0  0  0  0  0  0
    1.6166    2.9623    2.6683 H   0  0  0  0  0  0  0  0  0  0  0  0
    0.8616    3.6420    1.2111 H   0  0  0  0  0  0  0  0  0  0  0  0
  1  2  1  0  0  0  0
  2  3  1  0  0  0  0
  2  4  1  0  0  0  0
  2  5  1  0  0  0  0
  5  6  2  0  0  0  0
  5  7  1  0  0  0  0
  7  8  1  0  0  0  0
  7  9  1  0  0  0  0
  9 10  1  0  0  0  0
  9 11  1  0  0  0  0
  9 18  1  0  0  0  0
 11 12  1  0  0  0  0
 11 13  1  0  0  0  0
 11 14  1  0  0  0  0
 14 15  2  0  0  0  0
 14 16  1  0  0  0  0
 16 17  1  0  0  0  0
 18 19  2  0  0  0  0
 18 20  1  0  0  0  0
 20 21  1  0  0  0  0
 20 22  1  0  0  0  0
 22 23  1  0  0  0  0
 22 24  1  0  0  0  0
 22 25  1  0  0  0  0
M  END
$$$$

  -OEChem-02102214113D

 25 24  0     1  0  0  0  0  0999 V2000
   -2.6942   -3.9972    0.4106 H   0  0  0  0  0  0  0  0  0  0  0  0
   -2.7434   -2.9496    0.1007 C   0  0  0  0  0  0  0  0  0  0  0  0
   -3.3643   -2.4005    0.8127 H   0  0  0  0  0  0  0  0  0  0  0  0
   -3.2021   -2.8963   -0.8896 H   0  0  0  0  0  0  0  0  0  0  0  0
   -1.3501   -2.3507    0.0584 C   0  0  0  0  0  0  0  0  0  0  0  0
   -0.3817   -3.0383    0.3397 O   0  0  0  0  0  0  0  0  0  0  0  0
   -1.1848   -1.0237   -0.2810 N   0  0  0  0  0  0  0  0  0  0  0  0
   -2.0268   -0.4632   -0.4053 H   0  0  0  0  0  0  0  0  0  0  0  0
    0.0952   -0.3024   -0.2589 C   0  0  1  0  0  0  0  0  0  0  0  0
    0.8153   -0.8711    0.3407 H   0  0  0  0  0  0  0  0  0  0  0  0
    0.6207   -0.1779   -1.6996 C   0  0  0  0  0  0  0  0  0  0  0  0
    0.2921   -1.0395   -2.2891 H   0  0  0  0  0  0  0  0  0  0  0  0
    0.2222    0.7214   -2.1780 H   0  0  0  0  0  0  0  0  0  0  0  0
    2.1422   -0.1426   -1.7223 C   0  0  0  0  0  0  0  0  0  0  0  0
    2.7461   -1.1348   -2.0879 O   0  0  0  0  0  0  0  0  0  0  0  0
    2.7522    0.9851   -1.2892 O   0  0  0  0  0  0  0  0  0  0  0  0
    3.7033    0.8287   -1.3997 H   0  0  0  0  0  0  0  0  0  0  0  0
   -0.0585    1.0834    0.4010 C   0  0  0  0  0  0  0  0  0  0  0  0
   -1.0547    1.7570    0.1637 O   0  0  0  0  0  0  0  0  0  0  0  0
    0.8651    1.5339    1.3255 N   0  0  0  0  0  0  0  0  0  0  0  0
    1.7143    0.9883    1.4405 H   0  0  0  0  0  0  0  0  0  0  0  0
    0.7806    2.8430    1.9611 C   0  0  0  0  0  0  0  0  0  0  0  0
   -0.1761    2.9555    2.4823 H   0  0  0  0  0  0  0  0  0  0  0  0
    1.5861    2.9615    2.6921 H   0  0  0  0  0  0  0  0  0  0  0  0
    0.8701    3.6378    1.2131 H   0  0  0  0  0  0  0  0  0  0  0  0
  1  2  1  0  0  0  0
  2  3  1  0  0  0  0
  2  4  1  0  0  0  0
  2  5  1  0  0  0  0
  5  6  2  0  0  0  0
  5  7  1  0  0  0  0
  7  8  1  0  0  0  0
  7  9  1  0  0  0  0
  9 10  1  0  0  0  0
  9 11  1  0  0  0  0
  9 18  1  0  0  0  0
 11 12  1  0  0  0  0
 11 13  1  0  0  0  0
 11 14  1  0  0  0  0
 14 15  2  0  0  0  0
 14 16  1  0  0  0  0
 16 17  1  0  0  0  0
 18 19  2  0  0  0  0
 18 20  1  0  0  0  0
 20 21  1  0  0  0  0
 20 22  1  0  0  0  0
 22 23  1  0  0  0  0
 22 24  1  0  0  0  0
 22 25  1  0  0  0  0
M  END
$$$$

  -OEChem-02102214113D

 25 24  0     1  0  0  0  0  0999 V2000
   -2.6986   -3.9916    0.4107 H   0  0  0  0  0  0  0  0  0  0  0  0
   -2.7465   -2.9436    0.1021 C   0  0  0  0  0  0  0  0  0  0  0  0
   -3.3622   -2.3935    0.8177 H   0  0  0  0  0  0  0  0  0  0  0  0
   -3.2099   -2.8882   -0.8859 H   0  0  0  0  0  0  0  0  0  0  0  0
   -1.3518   -2.3486    0.0535 C   0  0  0  0  0  0  0  0  0  0  0  0
   -0.3829   -3.0408    0.3224 O   0  0  0  0  0  0  0  0  0  0  0  0
   -1.1840   -1.0213   -0.2834 N   0  0  0  0  0  0  0  0  0  0  0  0
   -2.0246   -0.4560   -0.3963 H   0  0  0  0  0  0  0  0  0  0  0  0
    0.0983   -0.3042   -0.2541 C   0  0  1  0  0  0  0  0  0  0  0  0
    0.8142   -0.8733    0.3499 H   0  0  0  0  0  0  0  0  0  0  0  0
    0.6324   -0.1798   -1.6923 C   0  0  0  0  0  0  0  0  0  0  0  0
    0.2989   -1.0386   -2.2831 H   0  0  0  0  0  0  0  0  0  0  0  0
    0.2395    0.7229   -2.1688 H   0  0  0  0  0  0  0  0  0  0  0  0
    2.1555   -0.1497   -1.7168 C   0  0  0  0  0  0  0  0  0  0  0  0
    2.7436   -1.0193   -2.3343 O   0  0  0  0  0  0  0  0  0  0  0  0
    2.7860    0.8275   -1.0227 O   0  0  0  0  0  0  0  0  0  0  0  0
    3.7334    0.6906   -1.1838 H   0  0  0  0  0  0  0  0  0  0  0  0
   -0.0630    1.0800    0.4092 C   0  0  0  0  0  0  0  0  0  0  0  0
   -1.0648    1.7470    0.1753 O   0  0  0  0  0  0  0  0  0  0  0  0
    0.8530    1.5298    1.3411 N   0  0  0  0  0  0  0  0  0  0  0  0
    1.7252    1.0130    1.4136 H   0  0  0  0  0  0  0  0  0  0  0  0
    0.7654    2.8426    1.9686 C   0  0  0  0  0  0  0  0  0  0  0  0
   -0.1954    2.9602    2.4810 H   0  0  0  0  0  0  0  0  0  0  0  0
    1.5644    2.9630    2.7064 H   0  0  0  0  0  0  0  0  0  0  0  0
    0.8632    3.6332    1.2172 H   0  0  0  0  0  0  0  0  0  0  0  0
  1  2  1  0  0  0  0
  2  3  1  0  0  0  0
  2  4  1  0  0  0  0
  2  5  1  0  0  0  0
  5  6  2  0  0  0  0
  5  7  1  0  0  0  0
  7  8  1  0  0  0  0
  7  9  1  0  0  0  0
  9 10  1  0  0  0  0
  9 11  1  0  0  0  0
  9 18  1  0  0  0  0
 11 12  1  0  0  0  0
 11 13  1  0  0  0  0
 11 14  1  0  0  0  0
 14 15  2  0  0  0  0
 14 16  1  0  0  0  0
 16 17  1  0  0  0  0
 18 19  2  0  0  0  0
 18 20  1  0  0  0  0
 20 21  1  0  0  0  0
 20 22  1  0  0  0  0
 22 23  1  0  0  0  0
 22 24  1  0  0  0  0
 22 25  1  0  0  0  0
M  END
$$$$

  -OEChem-02102214113D

 25 24  0     1  0  0  0  0  0999 V2000
   -2.7046   -3.9869    0.4133 H   0  0  0  0  0  0  0  0  0  0  0  0
   -2.7514   -2.9390    0.1038 C   0  0  0  0  0  0  0  0  0  0  0  0
   -3.3641   -2.3869    0.8206 H   0  0  0  0  0  0  0  0  0  0  0  0
   -3.2173   -2.8832   -0.8829 H   0  0  0  0  0  0  0  0  0  0  0  0
   -1.3557   -2.3470    0.0511 C   0  0  0  0  0  0  0  0  0  0  0  0
   -0.3874   -3.0428    0.3136 O   0  0  0  0  0  0  0  0  0  0  0  0
   -1.1851   -1.0201   -0.2860 N   0  0  0  0  0  0  0  0  0  0  0  0
   -2.0242   -0.4519   -0.3956 H   0  0  0  0  0  0  0  0  0  0  0  0
    0.0982   -0.3057   -0.2493 C   0  0  1  0  0  0  0  0  0  0  0  0
    0.8078   -0.8753    0.3617 H   0  0  0  0  0  0  0  0  0  0  0  0
    0.6435   -0.1849   -1.6840 C   0  0  0  0  0  0  0  0  0  0  0  0
    0.3102   -1.0447   -2.2735 H   0  0  0  0  0  0  0  0  0  0  0  0
    0.2532    0.7175   -2.1630 H   0  0  0  0  0  0  0  0  0  0  0  0
    2.1679   -0.1572   -1.7103 C   0  0  0  0  0  0  0  0  0  0  0  0
    2.7399   -0.8446   -2.5372 O   0  0  0  0  0  0  0  0  0  0  0  0
    2.8184    0.6177   -0.8079 O   0  0  0  0  0  0  0  0  0  0  0  0
    3.7622    0.5085   -1.0083 H   0  0  0  0  0  0  0  0  0  0  0  0
   -0.0656    1.0793    0.4121 C   0  0  0  0  0  0  0  0  0  0  0  0
   -1.0673    1.7452    0.1751 O   0  0  0  0  0  0  0  0  0  0  0  0
    0.8453    1.5278    1.3492 N   0  0  0  0  0  0  0  0  0  0  0  0
    1.7267    1.0232    1.4019 H   0  0  0  0  0  0  0  0  0  0  0  0
    0.7560    2.8409    1.9755 C   0  0  0  0  0  0  0  0  0  0  0  0
   -0.2081    2.9608    2.4810 H   0  0  0  0  0  0  0  0  0  0  0  0
    1.5499    2.9593    2.7192 H   0  0  0  0  0  0  0  0  0  0  0  0
    0.8611    3.6309    1.2246 H   0  0  0  0  0  0  0  0  0  0  0  0
  1  2  1  0  0  0  0
  2  3  1  0  0  0  0
  2  4  1  0  0  0  0
  2  5  1  0  0  0  0
  5  6  2  0  0  0  0
  5  7  1  0  0  0  0
  7  8  1  0  0  0  0
  7  9  1  0  0  0  0
  9 10  1  0  0  0  0
  9 11  1  0  0  0  0
  9 18  1  0  0  0  0
 11 12  1  0  0  0  0
 11 13  1  0  0  0  0
 11 14  1  0  0  0  0
 14 15  2  0  0  0  0
 14 16  1  0  0  0  0
 16 17  1  0  0  0  0
 18 19  2  0  0  0  0
 18 20  1  0  0  0  0
 20 21  1  0  0  0  0
 20 22  1  0  0  0  0
 22 23  1  0  0  0  0
 22 24  1  0  0  0  0
 22 25  1  0  0  0  0
M  END
$$$$

  -OEChem-02102214113D

 25 24  0     1  0  0  0  0  0999 V2000
   -2.7145   -3.9856    0.4168 H   0  0  0  0  0  0  0  0  0  0  0  0
   -2.7586   -2.9393    0.1021 C   0  0  0  0  0  0  0  0  0  0  0  0
   -3.3757   -2.3842    0.8127 H   0  0  0  0  0  0  0  0  0  0  0  0
   -3.2180   -2.8881   -0.8880 H   0  0  0  0  0  0  0  0  0  0  0  0
   -1.3624   -2.3478    0.0553 C   0  0  0  0  0  0  0  0  0  0  0  0
   -0.3950   -3.0436    0.3216 O   0  0  0  0  0  0  0  0  0  0  0  0
   -1.1907   -1.0217   -0.2847 N   0  0  0  0  0  0  0  0  0  0  0  0
   -2.0300   -0.4549   -0.3996 H   0  0  0  0  0  0  0  0  0  0  0  0
    0.0919   -0.3056   -0.2440 C   0  0  1  0  0  0  0  0  0  0  0  0
    0.7936   -0.8757    0.3757 H   0  0  0  0  0  0  0  0  0  0  0  0
    0.6513   -0.1936   -1.6746 C   0  0  0  0  0  0  0  0  0  0  0  0
    0.3251   -1.0597   -2.2586 H   0  0  0  0  0  0  0  0  0  0  0  0
    0.2600    0.7037   -2.1620 H   0  0  0  0  0  0  0  0  0  0  0  0
    2.1766   -0.1621   -1.7029 C   0  0  0  0  0  0  0  0  0  0  0  0
    2.7325   -0.6226   -2.6840 O   0  0  0  0  0  0  0  0  0  0  0  0
    2.8458    0.3801   -0.6542 O   0  0  0  0  0  0  0  0  0  0  0  0
    3.7859    0.3058   -0.8862 H   0  0  0  0  0  0  0  0  0  0  0  0
   -0.0670    1.0821    0.4107 C   0  0  0  0  0  0  0  0  0  0  0  0
   -1.0629    1.7541    0.1672 O   0  0  0  0  0  0  0  0  0  0  0  0
    0.8454    1.5275    1.3474 N   0  0  0  0  0  0  0  0  0  0  0  0
    1.7221    1.0140    1.4051 H   0  0  0  0  0  0  0  0  0  0  0  0
    0.7593    2.8380    1.9794 C   0  0  0  0  0  0  0  0  0  0  0  0
   -0.2115    2.9646    2.4702 H   0  0  0  0  0  0  0  0  0  0  0  0
    1.5421    2.9449    2.7364 H   0  0  0  0  0  0  0  0  0  0  0  0
    0.8836    3.6310    1.2348 H   0  0  0  0  0  0  0  0  0  0  0  0
  1  2  1  0  0  0  0
  2  3  1  0  0  0  0
  2  4  1  0  0  0  0
  2  5  1  0  0  0  0
  5  6  2  0  0  0  0
  5  7  1  0  0  0  0
  7  8  1  0  0  0  0
  7  9  1  0  0  0  0
  9 10  1  0  0  0  0
  9 11  1  0  0  0  0
  9 18  1  0  0  0  0
 11 12  1  0  0  0  0
 11 13  1  0  0  0  0
 11 14  1  0  0  0  0
 14 15  2  0  0  0  0
 14 16  1  0  0  0  0
 16 17  1  0  0  0  0
 18 19  2  0  0  0  0
 18 20  1  0  0  0  0
 20 21  1  0  0  0  0
 20 22  1  0  0  0  0
 22 23  1  0  0  0  0
 22 24  1  0  0  0  0
 22 25  1  0  0  0  0
M  END
$$$$

  -OEChem-02102214113D

 25 24  0     1  0  0  0  0  0999 V2000
   -2.7244   -3.9896    0.4132 H   0  0  0  0  0  0  0  0  0  0  0  0
   -2.7695   -2.9425    0.1008 C   0  0  0  0  0  0  0  0  0  0  0  0
   -3.3833   -2.3881    0.8148 H   0  0  0  0  0  0  0  0  0  0  0  0
   -3.2336   -2.8890   -0.8870 H   0  0  0  0  0  0  0  0  0  0  0  0
   -1.3730   -2.3520    0.0499 C   0  0  0  0  0  0  0  0  0  0  0  0
   -0.4055   -3.0498    0.3106 O   0  0  0  0  0  0  0  0  0  0  0  0
   -1.2014   -1.0257   -0.2901 N   0  0  0  0  0  0  0  0  0  0  0  0
   -2.0414   -0.4601   -0.4046 H   0  0  0  0  0  0  0  0  0  0  0  0
    0.0786   -0.3053   -0.2422 C   0  0  1  0  0  0  0  0  0  0  0  0
    0.7671   -0.8775    0.3897 H   0  0  0  0  0  0  0  0  0  0  0  0
    0.6581   -0.2054   -1.6660 C   0  0  0  0  0  0  0  0  0  0  0  0
    0.3467   -1.0816   -2.2422 H   0  0  0  0  0  0  0  0  0  0  0  0
    0.2640    0.6825   -2.1690 H   0  0  0  0  0  0  0  0  0  0  0  0
    2.1840   -0.1661   -1.6881 C   0  0  0  0  0  0  0  0  0  0  0  0
    2.7307   -0.3696   -2.7572 O   0  0  0  0  0  0  0  0  0  0  0  0
    2.8624    0.1335   -0.5506 O   0  0  0  0  0  0  0  0  0  0  0  0
    3.8010    0.1065   -0.7983 H   0  0  0  0  0  0  0  0  0  0  0  0
   -0.0695    1.0849    0.4066 C   0  0  0  0  0  0  0  0  0  0  0  0
   -1.0568    1.7669    0.1577 O   0  0  0  0  0  0  0  0  0  0  0  0
    0.8478    1.5223    1.3421 N   0  0  0  0  0  0  0  0  0  0  0  0
    1.7090    0.9853    1.4212 H   0  0  0  0  0  0  0  0  0  0  0  0
    0.7765    2.8337    1.9739 C   0  0  0  0  0  0  0  0  0  0  0  0
   -0.1862    2.9638    2.4796 H   0  0  0  0  0  0  0  0  0  0  0  0
    1.5718    2.9389    2.7181 H   0  0  0  0  0  0  0  0  0  0  0  0
    0.8917    3.6255    1.2264 H   0  0  0  0  0  0  0  0  0  0  0  0
  1  2  1  0  0  0  0
  2  3  1  0  0  0  0
  2  4  1  0  0  0  0
  2  5  1  0  0  0  0
  5  6  2  0  0  0  0
  5  7  1  0  0  0  0
  7  8  1  0  0  0  0
  7  9  1  0  0  0  0
  9 10  1  0  0  0  0
  9 11  1  0  0  0  0
  9 18  1  0  0  0  0
 11 12  1  0  0  0  0
 11 13  1  0  0  0  0
 11 14  1  0  0  0  0
 14 15  2  0  0  0  0
 14 16  1  0  0  0  0
 16 17  1  0  0  0  0
 18 19  2  0  0  0  0
 18 20  1  0  0  0  0
 20 21  1  0  0  0  0
 20 22  1  0  0  0  0
 22 23  1  0  0  0  0
 22 24  1  0  0  0  0
 22 25  1  0  0  0  0
M  END
$$$$

  -OEChem-02102214113D

 25 24  0     1  0  0  0  0  0999 V2000
   -2.7462   -3.9880    0.4124 H   0  0  0  0  0  0  0  0  0  0  0  0
   -2.7879   -2.9401    0.1024 C   0  0  0  0  0  0  0  0  0  0  0  0
   -3.4045   -2.3866    0.8147 H   0  0  0  0  0  0  0  0  0  0  0  0
   -3.2462   -2.8836   -0.8878 H   0  0  0  0  0  0  0  0  0  0  0  0
   -1.3904   -2.3514    0.0601 C   0  0  0  0  0  0  0  0  0  0  0  0
   -0.4268   -3.0496    0.3328 O   0  0  0  0  0  0  0  0  0  0  0  0
   -1.2151   -1.0278   -0.2895 N   0  0  0  0  0  0  0  0  0  0  0  0
   -2.0542   -0.4659   -0.4254 H   0  0  0  0  0  0  0  0  0  0  0  0
    0.0645   -0.3053   -0.2401 C   0  0  1  0  0  0  0  0  0  0  0  0
    0.7268   -0.8722    0.4213 H   0  0  0  0  0  0  0  0  0  0  0  0
    0.6666   -0.2327   -1.6626 C   0  0  0  0  0  0  0  0  0  0  0  0
    0.1596   -0.9583   -2.3052 H   0  0  0  0  0  0  0  0  0  0  0  0
    0.4915    0.7594   -2.0895 H   0  0  0  0  0  0  0  0  0  0  0  0
    2.1598   -0.5482   -1.7358 C   0  0  0  0  0  0  0  0  0  0  0  0
    2.6724   -0.5037   -2.8400 O   0  0  0  0  0  0  0  0  0  0  0  0
    2.8690   -0.7526   -0.5977 O   0  0  0  0  0  0  0  0  0  0  0  0
    3.7797   -0.9248   -0.8850 H   0  0  0  0  0  0  0  0  0  0  0  0
   -0.0652    1.0921    0.3918 C   0  0  0  0  0  0  0  0  0  0  0  0
   -1.0300    1.7959    0.1188 O   0  0  0  0  0  0  0  0  0  0  0  0
    0.8601    1.5248    1.3226 N   0  0  0  0  0  0  0  0  0  0  0  0
    1.6572    0.9202    1.5070 H   0  0  0  0  0  0  0  0  0  0  0  0
    0.7932    2.8278    1.9727 C   0  0  0  0  0  0  0  0  0  0  0  0
   -0.1540    2.9398    2.5110 H   0  0  0  0  0  0  0  0  0  0  0  0
    1.6121    2.9352    2.6906 H   0  0  0  0  0  0  0  0  0  0  0  0
    0.8745    3.6296    1.2313 H   0  0  0  0  0  0  0  0  0  0  0  0
  1  2  1  0  0  0  0
  2  3  1  0  0  0  0
  2  4  1  0  0  0  0
  2  5  1  0  0  0  0
  5  6  2  0  0  0  0
  5  7  1  0  0  0  0
  7  8  1  0  0  0  0
  7  9  1  0  0  0  0
  9 10  1  0  0  0  0
  9 11  1  0  0  0  0
  9 18  1  0  0  0  0
 11 12  1  0  0  0  0
 11 13  1  0  0  0  0
 11 14  1  0  0  0  0
 14 15  2  0  0  0  0
 14 16  1  0  0  0  0
 16 17  1  0  0  0  0
 18 19  2  0  0  0  0
 18 20  1  0  0  0  0
 20 21  1  0  0  0  0
 20 22  1  0  0  0  0
 22 23  1  0  0  0  0
 22 24  1  0  0  0  0
 22 25  1  0  0  0  0
M  END
$$$$

  -OEChem-02102214113D

 25 24  0     1  0  0  0  0  0999 V2000
   -2.7531   -3.9765    0.4195 H   0  0  0  0  0  0  0  0  0  0  0  0
   -2.7867   -2.9295    0.1055 C   0  0  0  0  0  0  0  0  0  0  0  0
   -3.4080   -2.3709    0.8096 H   0  0  0  0  0  0  0  0  0  0  0  0
   -3.2352   -2.8740   -0.8891 H   0  0  0  0  0  0  0  0  0  0  0  0
   -1.3857   -2.3475    0.0747 C   0  0  0  0  0  0  0  0  0  0  0  0
   -0.4293   -3.0475    0.3663 O   0  0  0  0  0  0  0  0  0  0  0  0
   -1.2013   -1.0268   -0.2811 N   0  0  0  0  0  0  0  0  0  0  0  0
   -2.0368   -0.4633   -0.4325 H   0  0  0  0  0  0  0  0  0  0  0  0
    0.0812   -0.3086   -0.2332 C   0  0  1  0  0  0  0  0  0  0  0  0
    0.7486   -0.8709    0.4266 H   0  0  0  0  0  0  0  0  0  0  0  0
    0.6715   -0.2308   -1.6618 C   0  0  0  0  0  0  0  0  0  0  0  0
    0.1570   -0.9531   -2.3014 H   0  0  0  0  0  0  0  0  0  0  0  0
    0.4896    0.7626   -2.0838 H   0  0  0  0  0  0  0  0  0  0  0  0
    2.1629   -0.5502   -1.7615 C   0  0  0  0  0  0  0  0  0  0  0  0
    2.7182   -0.2310   -2.7980 O   0  0  0  0  0  0  0  0  0  0  0  0
    2.8154   -1.1122   -0.7154 O   0  0  0  0  0  0  0  0  0  0  0  0
    3.7281   -1.2478   -1.0143 H   0  0  0  0  0  0  0  0  0  0  0  0
   -0.0574    1.0909    0.3929 C   0  0  0  0  0  0  0  0  0  0  0  0
   -1.0193    1.7927    0.1050 O   0  0  0  0  0  0  0  0  0  0  0  0
    0.8598    1.5333    1.3274 N   0  0  0  0  0  0  0  0  0  0  0  0
    1.6390    0.9190    1.5502 H   0  0  0  0  0  0  0  0  0  0  0  0
    0.7741    2.8344    1.9793 C   0  0  0  0  0  0  0  0  0  0  0  0
   -0.1867    2.9437    2.4937 H   0  0  0  0  0  0  0  0  0  0  0  0
    1.5742    2.9408    2.7181 H   0  0  0  0  0  0  0  0  0  0  0  0
    0.8727    3.6385    1.2423 H   0  0  0  0  0  0  0  0  0  0  0  0
  1  2  1  0  0  0  0
  2  3  1  0  0  0  0
  2  4  1  0  0  0  0
  2  5  1  0  0  0  0
  5  6  2  0  0  0  0
  5  7  1  0  0  0  0
  7  8  1  0  0  0  0
  7  9  1  0  0  0  0
  9 10  1  0  0  0  0
  9 11  1  0  0  0  0
  9 18  1  0  0  0  0
 11 12  1  0  0  0  0
 11 13  1  0  0  0  0
 11 14  1  0  0  0  0
 14 15  2  0  0  0  0
 14 16  1  0  0  0  0
 16 17  1  0  0  0  0
 18 19  2  0  0  0  0
 18 20  1  0  0  0  0
 20 21  1  0  0  0  0
 20 22  1  0  0  0  0
 22 23  1  0  0  0  0
 22 24  1  0  0  0  0
 22 25  1  0  0  0  0
M  END
$$$$

  -OEChem-02102214113D

 25 24  0     1  0  0  0  0  0999 V2000
   -2.7469   -3.9773    0.4022 H   0  0  0  0  0  0  0  0  0  0  0  0
   -2.7800   -2.9276    0.0972 C   0  0  0  0  0  0  0  0  0  0  0  0
   -3.4077   -2.3756    0.8009 H   0  0  0  0  0  0  0  0  0  0  0  0
   -3.2203   -2.8646   -0.9008 H   0  0  0  0  0  0  0  0  0  0  0  0
   -1.3803   -2.3426    0.0834 C   0  0  0  0  0  0  0  0  0  0  0  0
   -0.4274   -3.0394    0.3924 O   0  0  0  0  0  0  0  0  0  0  0  0
   -1.1941   -1.0229   -0.2746 N   0  0  0  0  0  0  0  0  0  0  0  0
   -2.0282   -0.4597   -0.4340 H   0  0  0  0  0  0  0  0  0  0  0  0
    0.0900   -0.3078   -0.2333 C   0  0  1  0  0  0  0  0  0  0  0  0
    0.7682   -0.8671    0.4186 H   0  0  0  0  0  0  0  0  0  0  0  0
    0.6664   -0.2268   -1.6666 C   0  0  0  0  0  0  0  0  0  0  0  0
    0.1498   -0.9483   -2.3050 H   0  0  0  0  0  0  0  0  0  0  0  0
    0.4828    0.7672   -2.0868 H   0  0  0  0  0  0  0  0  0  0  0  0
    2.1552   -0.5532   -1.7622 C   0  0  0  0  0  0  0  0  0  0  0  0
    2.7846   -0.0028   -2.6483 O   0  0  0  0  0  0  0  0  0  0  0  0
    2.7128   -1.4228   -0.8870 O   0  0  0  0  0  0  0  0  0  0  0  0
    3.6381   -1.5230   -1.1585 H   0  0  0  0  0  0  0  0  0  0  0  0
   -0.0510    1.0922    0.3933 C   0  0  0  0  0  0  0  0  0  0  0  0
   -1.0146    1.7917    0.1052 O   0  0  0  0  0  0  0  0  0  0  0  0
    0.8654    1.5403    1.3262 N   0  0  0  0  0  0  0  0  0  0  0  0
    1.6332    0.9204    1.5698 H   0  0  0  0  0  0  0  0  0  0  0  0
    0.7725    2.8405    1.9793 C   0  0  0  0  0  0  0  0  0  0  0  0
   -0.1648    2.9228    2.5395 H   0  0  0  0  0  0  0  0  0  0  0  0
    1.6045    2.9735    2.6774 H   0  0  0  0  0  0  0  0  0  0  0  0
    0.8117    3.6455    1.2379 H   0  0  0  0  0  0  0  0  0  0  0  0
  1  2  1  0  0  0  0
  2  3  1  0  0  0  0
  2  4  1  0  0  0  0
  2  5  1  0  0  0  0
  5  6  2  0  0  0  0
  5  7  1  0  0  0  0
  7  8  1  0  0  0  0
  7  9  1  0  0  0  0
  9 10  1  0  0  0  0
  9 11  1  0  0  0  0
  9 18  1  0  0  0  0
 11 12  1  0  0  0  0
 11 13  1  0  0  0  0
 11 14  1  0  0  0  0
 14 15  2  0  0  0  0
 14 16  1  0  0  0  0
 16 17  1  0  0  0  0
 18 19  2  0  0  0  0
 18 20  1  0  0  0  0
 20 21  1  0  0  0  0
 20 22  1  0  0  0  0
 22 23  1  0  0  0  0
 22 24  1  0  0  0  0
 22 25  1  0  0  0  0
M  END
$$$$

  -OEChem-02102214113D

 25 24  0     1  0  0  0  0  0999 V2000
   -2.7420   -3.9804    0.4034 H   0  0  0  0  0  0  0  0  0  0  0  0
   -2.7754   -2.9313    0.0965 C   0  0  0  0  0  0  0  0  0  0  0  0
   -3.4065   -2.3792    0.7971 H   0  0  0  0  0  0  0  0  0  0  0  0
   -3.2124   -2.8707   -0.9031 H   0  0  0  0  0  0  0  0  0  0  0  0
   -1.3763   -2.3450    0.0863 C   0  0  0  0  0  0  0  0  0  0  0  0
   -0.4244   -3.0386    0.4054 O   0  0  0  0  0  0  0  0  0  0  0  0
   -1.1914   -1.0249   -0.2706 N   0  0  0  0  0  0  0  0  0  0  0  0
   -2.0256   -0.4634   -0.4354 H   0  0  0  0  0  0  0  0  0  0  0  0
    0.0932   -0.3107   -0.2396 C   0  0  1  0  0  0  0  0  0  0  0  0
    0.7856   -0.8723    0.3965 H   0  0  0  0  0  0  0  0  0  0  0  0
    0.6537   -0.2175   -1.6767 C   0  0  0  0  0  0  0  0  0  0  0  0
    0.1357   -0.9351   -2.3184 H   0  0  0  0  0  0  0  0  0  0  0  0
    0.4710    0.7792   -2.0914 H   0  0  0  0  0  0  0  0  0  0  0  0
    2.1401   -0.5486   -1.7578 C   0  0  0  0  0  0  0  0  0  0  0  0
    2.8448    0.1856   -2.4278 O   0  0  0  0  0  0  0  0  0  0  0  0
    2.6075   -1.6395   -1.1083 O   0  0  0  0  0  0  0  0  0  0  0  0
    3.5504   -1.7020   -1.3232 H   0  0  0  0  0  0  0  0  0  0  0  0
   -0.0472    1.0873    0.3926 C   0  0  0  0  0  0  0  0  0  0  0  0
   -1.0149    1.7847    0.1129 O   0  0  0  0  0  0  0  0  0  0  0  0
    0.8742    1.5368    1.3200 N   0  0  0  0  0  0  0  0  0  0  0  0
    1.6494    0.9226    1.5534 H   0  0  0  0  0  0  0  0  0  0  0  0
    0.7823    2.8369    1.9736 C   0  0  0  0  0  0  0  0  0  0  0  0
   -0.1620    2.9257    2.5210 H   0  0  0  0  0  0  0  0  0  0  0  0
    1.6054    2.9623    2.6837 H   0  0  0  0  0  0  0  0  0  0  0  0
    0.8380    3.6420    1.2335 H   0  0  0  0  0  0  0  0  0  0  0  0
  1  2  1  0  0  0  0
  2  3  1  0  0  0  0
  2  4  1  0  0  0  0
  2  5  1  0  0  0  0
  5  6  2  0  0  0  0
  5  7  1  0  0  0  0
  7  8  1  0  0  0  0
  7  9  1  0  0  0  0
  9 10  1  0  0  0  0
  9 11  1  0  0  0  0
  9 18  1  0  0  0  0
 11 12  1  0  0  0  0
 11 13  1  0  0  0  0
 11 14  1  0  0  0  0
 14 15  2  0  0  0  0
 14 16  1  0  0  0  0
 16 17  1  0  0  0  0
 18 19  2  0  0  0  0
 18 20  1  0  0  0  0
 20 21  1  0  0  0  0
 20 22  1  0  0  0  0
 22 23  1  0  0  0  0
 22 24  1  0  0  0  0
 22 25  1  0  0  0  0
M  END
$$$$

  -OEChem-02102214113D

 25 24  0     1  0  0  0  0  0999 V2000
   -2.7397   -3.9869    0.4047 H   0  0  0  0  0  0  0  0  0  0  0  0
   -2.7742   -2.9383    0.0958 C   0  0  0  0  0  0  0  0  0  0  0  0
   -3.4027   -2.3848    0.7977 H   0  0  0  0  0  0  0  0  0  0  0  0
   -3.2149   -2.8795   -0.9022 H   0  0  0  0  0  0  0  0  0  0  0  0
   -1.3751   -2.3517    0.0793 C   0  0  0  0  0  0  0  0  0  0  0  0
   -0.4217   -3.0433    0.3983 O   0  0  0  0  0  0  0  0  0  0  0  0
   -1.1932   -1.0297   -0.2721 N   0  0  0  0  0  0  0  0  0  0  0  0
   -2.0284   -0.4686   -0.4325 H   0  0  0  0  0  0  0  0  0  0  0  0
    0.0911   -0.3153   -0.2473 C   0  0  1  0  0  0  0  0  0  0  0  0
    0.7941   -0.8814    0.3742 H   0  0  0  0  0  0  0  0  0  0  0  0
    0.6410   -0.2049   -1.6849 C   0  0  0  0  0  0  0  0  0  0  0  0
    0.1240   -0.9151   -2.3359 H   0  0  0  0  0  0  0  0  0  0  0  0
    0.4620    0.7965   -2.0899 H   0  0  0  0  0  0  0  0  0  0  0  0
    2.1253   -0.5389   -1.7475 C   0  0  0  0  0  0  0  0  0  0  0  0
    2.8883    0.3204   -2.1527 O   0  0  0  0  0  0  0  0  0  0  0  0
    2.5245   -1.7732   -1.3660 O   0  0  0  0  0  0  0  0  0  0  0  0
    3.4822   -1.8093   -1.5088 H   0  0  0  0  0  0  0  0  0  0  0  0
   -0.0481    1.0788    0.3939 C   0  0  0  0  0  0  0  0  0  0  0  0
   -1.0205    1.7743    0.1255 O   0  0  0  0  0  0  0  0  0  0  0  0
    0.8784    1.5259    1.3172 N   0  0  0  0  0  0  0  0  0  0  0  0
    1.6700    0.9234    1.5248 H   0  0  0  0  0  0  0  0  0  0  0  0
    0.7979    2.8311    1.9617 C   0  0  0  0  0  0  0  0  0  0  0  0
   -0.1466    2.9328    2.5067 H   0  0  0  0  0  0  0  0  0  0  0  0
    1.6208    2.9534    2.6724 H   0  0  0  0  0  0  0  0  0  0  0  0
    0.8626    3.6306    1.2160 H   0  0  0  0  0  0  0  0  0  0  0  0
  1  2  1  0  0  0  0
  2  3  1  0  0  0  0
  2  4  1  0  0  0  0
  2  5  1  0  0  0  0
  5  6  2  0  0  0  0
  5  7  1  0  0  0  0
  7  8  1  0  0  0  0
  7  9  1  0  0  0  0
  9 10  1  0  0  0  0
  9 11  1  0  0  0  0
  9 18  1  0  0  0  0
 11 12  1  0  0  0  0
 11 13  1  0  0  0  0
 11 14  1  0  0  0  0
 14 15  2  0  0  0  0
 14 16  1  0  0  0  0
 16 17  1  0  0  0  0
 18 19  2  0  0  0  0
 18 20  1  0  0  0  0
 20 21  1  0  0  0  0
 20 22  1  0  0  0  0
 22 23  1  0  0  0  0
 22 24  1  0  0  0  0
 22 25  1  0  0  0  0
M  END
$$$$

  -OEChem-02102214113D

 25 24  0     1  0  0  0  0  0999 V2000
   -2.7335   -3.9905    0.4097 H   0  0  0  0  0  0  0  0  0  0  0  0
   -2.7725   -2.9429    0.0983 C   0  0  0  0  0  0  0  0  0  0  0  0
   -3.3963   -2.3883    0.8035 H   0  0  0  0  0  0  0  0  0  0  0  0
   -3.2214   -2.8876   -0.8962 H   0  0  0  0  0  0  0  0  0  0  0  0
   -1.3746   -2.3540    0.0687 C   0  0  0  0  0  0  0  0  0  0  0  0
   -0.4158   -3.0454    0.3725 O   0  0  0  0  0  0  0  0  0  0  0  0
   -1.1984   -1.0299   -0.2776 N   0  0  0  0  0  0  0  0  0  0  0  0
   -2.0359   -0.4674   -0.4214 H   0  0  0  0  0  0  0  0  0  0  0  0
    0.0860   -0.3158   -0.2579 C   0  0  1  0  0  0  0  0  0  0  0  0
    0.7938   -0.8852    0.3556 H   0  0  0  0  0  0  0  0  0  0  0  0
    0.6306   -0.1977   -1.6951 C   0  0  0  0  0  0  0  0  0  0  0  0
    0.1132   -0.9027   -2.3514 H   0  0  0  0  0  0  0  0  0  0  0  0
    0.4582    0.8064   -2.0957 H   0  0  0  0  0  0  0  0  0  0  0  0
    2.1131   -0.5351   -1.7422 C   0  0  0  0  0  0  0  0  0  0  0  0
    2.9069    0.3818   -1.8631 O   0  0  0  0  0  0  0  0  0  0  0  0
    2.4762   -1.8343   -1.6522 O   0  0  0  0  0  0  0  0  0  0  0  0
    3.4427   -1.8564   -1.7156 H   0  0  0  0  0  0  0  0  0  0  0  0
   -0.0496    1.0752    0.3919 C   0  0  0  0  0  0  0  0  0  0  0  0
   -1.0309    1.7657    0.1436 O   0  0  0  0  0  0  0  0  0  0  0  0
    0.8825    1.5185    1.3114 N   0  0  0  0  0  0  0  0  0  0  0  0
    1.6993    0.9366    1.4751 H   0  0  0  0  0  0  0  0  0  0  0  0
    0.8085    2.8237    1.9566 C   0  0  0  0  0  0  0  0  0  0  0  0
   -0.1404    2.9343    2.4921 H   0  0  0  0  0  0  0  0  0  0  0  0
    1.6245    2.9367    2.6768 H   0  0  0  0  0  0  0  0  0  0  0  0
    0.8893    3.6234    1.2129 H   0  0  0  0  0  0  0  0  0  0  0  0
  1  2  1  0  0  0  0
  2  3  1  0  0  0  0
  2  4  1  0  0  0  0
  2  5  1  0  0  0  0
  5  6  2  0  0  0  0
  5  7  1  0  0  0  0
  7  8  1  0  0  0  0
  7  9  1  0  0  0  0
  9 10  1  0  0  0  0
  9 11  1  0  0  0  0
  9 18  1  0  0  0  0
 11 12  1  0  0  0  0
 11 13  1  0  0  0  0
 11 14  1  0  0  0  0
 14 15  2  0  0  0  0
 14 16  1  0  0  0  0
 16 17  1  0  0  0  0
 18 19  2  0  0  0  0
 18 20  1  0  0  0  0
 20 21  1  0  0  0  0
 20 22  1  0  0  0  0
 22 23  1  0  0  0  0
 22 24  1  0  0  0  0
 22 25  1  0  0  0  0
M  END
$$$$

  -OEChem-02102214113D

 25 24  0     1  0  0  0  0  0999 V2000
   -2.7272   -3.9928    0.4163 H   0  0  0  0  0  0  0  0  0  0  0  0
   -2.7725   -2.9460    0.1030 C   0  0  0  0  0  0  0  0  0  0  0  0
   -3.3899   -2.3918    0.8141 H   0  0  0  0  0  0  0  0  0  0  0  0
   -3.2321   -2.8937   -0.8869 H   0  0  0  0  0  0  0  0  0  0  0  0
   -1.3765   -2.3539    0.0572 C   0  0  0  0  0  0  0  0  0  0  0  0
   -0.4115   -3.0460    0.3402 O   0  0  0  0  0  0  0  0  0  0  0  0
   -1.2052   -1.0280   -0.2843 N   0  0  0  0  0  0  0  0  0  0  0  0
   -2.0443   -0.4629   -0.4086 H   0  0  0  0  0  0  0  0  0  0  0  0
    0.0796   -0.3151   -0.2661 C   0  0  1  0  0  0  0  0  0  0  0  0
    0.7880   -0.8864    0.3452 H   0  0  0  0  0  0  0  0  0  0  0  0
    0.6248   -0.1927   -1.7018 C   0  0  0  0  0  0  0  0  0  0  0  0
    0.1054   -0.8921   -2.3627 H   0  0  0  0  0  0  0  0  0  0  0  0
    0.4612    0.8138   -2.0991 H   0  0  0  0  0  0  0  0  0  0  0  0
    2.1060   -0.5330   -1.7378 C   0  0  0  0  0  0  0  0  0  0  0  0
    2.9045    0.3727   -1.5696 O   0  0  0  0  0  0  0  0  0  0  0  0
    2.4631   -1.8184   -1.9582 O   0  0  0  0  0  0  0  0  0  0  0  0
    3.4317   -1.8418   -1.9487 H   0  0  0  0  0  0  0  0  0  0  0  0
   -0.0532    1.0733    0.3908 C   0  0  0  0  0  0  0  0  0  0  0  0
   -1.0428    1.7585    0.1599 O   0  0  0  0  0  0  0  0  0  0  0  0
    0.8829    1.5113    1.3087 N   0  0  0  0  0  0  0  0  0  0  0  0
    1.7243    0.9527    1.4231 H   0  0  0  0  0  0  0  0  0  0  0  0
    0.8155    2.8169    1.9537 C   0  0  0  0  0  0  0  0  0  0  0  0
   -0.1357    2.9351    2.4838 H   0  0  0  0  0  0  0  0  0  0  0  0
    1.6280    2.9227    2.6791 H   0  0  0  0  0  0  0  0  0  0  0  0
    0.9066    3.6159    1.2105 H   0  0  0  0  0  0  0  0  0  0  0  0
  1  2  1  0  0  0  0
  2  3  1  0  0  0  0
  2  4  1  0  0  0  0
  2  5  1  0  0  0  0
  5  6  2  0  0  0  0
  5  7  1  0  0  0  0
  7  8  1  0  0  0  0
  7  9  1  0  0  0  0
  9 10  1  0  0  0  0
  9 11  1  0  0  0  0
  9 18  1  0  0  0  0
 11 12  1  0  0  0  0
 11 13  1  0  0  0  0
 11 14  1  0  0  0  0
 14 15  2  0  0  0  0
 14 16  1  0  0  0  0
 16 17  1  0  0  0  0
 18 19  2  0  0  0  0
 18 20  1  0  0  0  0
 20 21  1  0  0  0  0
 20 22  1  0  0  0  0
 22 23  1  0  0  0  0
 22 24  1  0  0  0  0
 22 25  1  0  0  0  0
M  END
$$$$

  -OEChem-02102214113D

 25 24  0     1  0  0  0  0  0999 V2000
   -2.7240   -3.9934    0.4286 H   0  0  0  0  0  0  0  0  0  0  0  0
   -2.7736   -2.9479    0.1112 C   0  0  0  0  0  0  0  0  0  0  0  0
   -3.3818   -2.3908    0.8279 H   0  0  0  0  0  0  0  0  0  0  0  0
   -3.2462   -2.9001   -0.8727 H   0  0  0  0  0  0  0  0  0  0  0  0
   -1.3786   -2.3556    0.0442 C   0  0  0  0  0  0  0  0  0  0  0  0
   -0.4080   -3.0508    0.2996 O   0  0  0  0  0  0  0  0  0  0  0  0
   -1.2134   -1.0276   -0.2923 N   0  0  0  0  0  0  0  0  0  0  0  0
   -2.0546   -0.4614   -0.3958 H   0  0  0  0  0  0  0  0  0  0  0  0
    0.0697   -0.3124   -0.2745 C   0  0  1  0  0  0  0  0  0  0  0  0
    0.7768   -0.8842    0.3379 H   0  0  0  0  0  0  0  0  0  0  0  0
    0.6198   -0.1882   -1.7077 C   0  0  0  0  0  0  0  0  0  0  0  0
    0.1030   -0.8878   -2.3706 H   0  0  0  0  0  0  0  0  0  0  0  0
    0.4587    0.8180   -2.1063 H   0  0  0  0  0  0  0  0  0  0  0  0
    2.1017   -0.5263   -1.7328 C   0  0  0  0  0  0  0  0  0  0  0  0
    2.8815    0.3007   -1.2896 O   0  0  0  0  0  0  0  0  0  0  0  0
    2.4811   -1.7170   -2.2502 O   0  0  0  0  0  0  0  0  0  0  0  0
    3.4464   -1.7549   -2.1752 H   0  0  0  0  0  0  0  0  0  0  0  0
   -0.0583    1.0734    0.3877 C   0  0  0  0  0  0  0  0  0  0  0  0
   -1.0545    1.7548    0.1743 O   0  0  0  0  0  0  0  0  0  0  0  0
    0.8839    1.5044    1.3022 N   0  0  0  0  0  0  0  0  0  0  0  0
    1.7433    0.9651    1.3720 H   0  0  0  0  0  0  0  0  0  0  0  0
    0.8236    2.8085    1.9505 C   0  0  0  0  0  0  0  0  0  0  0  0
   -0.1279    2.9314    2.4788 H   0  0  0  0  0  0  0  0  0  0  0  0
    1.6348    2.9062    2.6784 H   0  0  0  0  0  0  0  0  0  0  0  0
    0.9220    3.6092    1.2099 H   0  0  0  0  0  0  0  0  0  0  0  0
  1  2  1  0  0  0  0
  2  3  1  0  0  0  0
  2  4  1  0  0  0  0
  2  5  1  0  0  0  0
  5  6  2  0  0  0  0
  5  7  1  0  0  0  0
  7  8  1  0  0  0  0
  7  9  1  0  0  0  0
  9 10  1  0  0  0  0
  9 11  1  0  0  0  0
  9 18  1  0  0  0  0
 11 12  1  0  0  0  0
 11 13  1  0  0  0  0
 11 14  1  0  0  0  0
 14 15  2  0  0  0  0
 14 16  1  0  0  0  0
 16 17  1  0  0  0  0
 18 19  2  0  0  0  0
 18 20  1  0  0  0  0
 20 21  1  0  0  0  0
 20 22  1  0  0  0  0
 22 23  1  0  0  0  0
 22 24  1  0  0  0  0
 22 25  1  0  0  0  0
M  END
$$$$

  -OEChem-02102214113D

 25 24  0     1  0  0  0  0  0999 V2000
   -2.7192   -3.9949    0.4377 H   0  0  0  0  0  0  0  0  0  0  0  0
   -2.7740   -2.9505    0.1181 C   0  0  0  0  0  0  0  0  0  0  0  0
   -3.3767   -2.3931    0.8392 H   0  0  0  0  0  0  0  0  0  0  0  0
   -3.2560   -2.9059   -0.8616 H   0  0  0  0  0  0  0  0  0  0  0  0
   -1.3808   -2.3556    0.0368 C   0  0  0  0  0  0  0  0  0  0  0  0
   -0.4054   -3.0522    0.2699 O   0  0  0  0  0  0  0  0  0  0  0  0
   -1.2209   -1.0262   -0.2966 N   0  0  0  0  0  0  0  0  0  0  0  0
   -2.0638   -0.4599   -0.3840 H   0  0  0  0  0  0  0  0  0  0  0  0
    0.0607   -0.3077   -0.2781 C   0  0  1  0  0  0  0  0  0  0  0  0
    0.7645   -0.8800    0.3376 H   0  0  0  0  0  0  0  0  0  0  0  0
    0.6183   -0.1888   -1.7096 C   0  0  0  0  0  0  0  0  0  0  0  0
    0.1033   -0.8926   -2.3698 H   0  0  0  0  0  0  0  0  0  0  0  0
    0.4561    0.8151   -2.1127 H   0  0  0  0  0  0  0  0  0  0  0  0
    2.1029   -0.5215   -1.7360 C   0  0  0  0  0  0  0  0  0  0  0  0
    2.8544    0.1623   -1.0585 O   0  0  0  0  0  0  0  0  0  0  0  0
    2.5171   -1.5433   -2.5200 O   0  0  0  0  0  0  0  0  0  0  0  0
    3.4765   -1.6086   -2.4005 H   0  0  0  0  0  0  0  0  0  0  0  0
   -0.0635    1.0770    0.3865 C   0  0  0  0  0  0  0  0  0  0  0  0
   -1.0616    1.7582    0.1813 O   0  0  0  0  0  0  0  0  0  0  0  0
    0.8831    1.5030    1.2986 N   0  0  0  0  0  0  0  0  0  0  0  0
    1.7502    0.9721    1.3431 H   0  0  0  0  0  0  0  0  0  0  0  0
    0.8281    2.8052    1.9511 C   0  0  0  0  0  0  0  0  0  0  0  0
   -0.1233    2.9307    2.4788 H   0  0  0  0  0  0  0  0  0  0  0  0
    1.6389    2.8969    2.6803 H   0  0  0  0  0  0  0  0  0  0  0  0
    0.9302    3.6078    1.2132 H   0  0  0  0  0  0  0  0  0  0  0  0
  1  2  1  0  0  0  0
  2  3  1  0  0  0  0
  2  4  1  0  0  0  0
  2  5  1  0  0  0  0
  5  6  2  0  0  0  0
  5  7  1  0  0  0  0
  7  8  1  0  0  0  0
  7  9  1  0  0  0  0
  9 10  1  0  0  0  0
  9 11  1  0  0  0  0
  9 18  1  0  0  0  0
 11 12  1  0  0  0  0
 11 13  1  0  0  0  0
 11 14  1  0  0  0  0
 14 15  2  0  0  0  0
 14 16  1  0  0  0  0
 16 17  1  0  0  0  0
 18 19  2  0  0  0  0
 18 20  1  0  0  0  0
 20 21  1  0  0  0  0
 20 22  1  0  0  0  0
 22 23  1  0  0  0  0
 22 24  1  0  0  0  0
 22 25  1  0  0  0  0
M  END
$$$$

  -OEChem-02102214113D

 25 24  0     1  0  0  0  0  0999 V2000
   -2.7180   -4.0008    0.4324 H   0  0  0  0  0  0  0  0  0  0  0  0
   -2.7758   -2.9538    0.1217 C   0  0  0  0  0  0  0  0  0  0  0  0
   -3.3710   -2.4018    0.8532 H   0  0  0  0  0  0  0  0  0  0  0  0
   -3.2675   -2.9015   -0.8526 H   0  0  0  0  0  0  0  0  0  0  0  0
   -1.3833   -2.3584    0.0313 C   0  0  0  0  0  0  0  0  0  0  0  0
   -0.4061   -3.0566    0.2511 O   0  0  0  0  0  0  0  0  0  0  0  0
   -1.2260   -1.0279   -0.2992 N   0  0  0  0  0  0  0  0  0  0  0  0
   -2.0708   -0.4631   -0.3769 H   0  0  0  0  0  0  0  0  0  0  0  0
    0.0529   -0.3040   -0.2749 C   0  0  1  0  0  0  0  0  0  0  0  0
    0.7492   -0.8772    0.3484 H   0  0  0  0  0  0  0  0  0  0  0  0
    0.6229   -0.1916   -1.7039 C   0  0  0  0  0  0  0  0  0  0  0  0
    0.1129   -0.9034   -2.3592 H   0  0  0  0  0  0  0  0  0  0  0  0
    0.4529    0.8081   -2.1138 H   0  0  0  0  0  0  0  0  0  0  0  0
    2.1119   -0.5132   -1.7436 C   0  0  0  0  0  0  0  0  0  0  0  0
    2.8350   -0.0273   -0.8866 O   0  0  0  0  0  0  0  0  0  0  0  0
    2.5623   -1.3031   -2.7456 O   0  0  0  0  0  0  0  0  0  0  0  0
    3.5160   -1.4032   -2.6055 H   0  0  0  0  0  0  0  0  0  0  0  0
   -0.0705    1.0804    0.3893 C   0  0  0  0  0  0  0  0  0  0  0  0
   -1.0638    1.7666    0.1779 O   0  0  0  0  0  0  0  0  0  0  0  0
    0.8765    1.5029    1.3023 N   0  0  0  0  0  0  0  0  0  0  0  0
    1.7363    0.9603    1.3558 H   0  0  0  0  0  0  0  0  0  0  0  0
    0.8314    2.8087    1.9482 C   0  0  0  0  0  0  0  0  0  0  0  0
   -0.1115    2.9371    2.4903 H   0  0  0  0  0  0  0  0  0  0  0  0
    1.6540    2.9047    2.6633 H   0  0  0  0  0  0  0  0  0  0  0  0
    0.9217    3.6073    1.2045 H   0  0  0  0  0  0  0  0  0  0  0  0
  1  2  1  0  0  0  0
  2  3  1  0  0  0  0
  2  4  1  0  0  0  0
  2  5  1  0  0  0  0
  5  6  2  0  0  0  0
  5  7  1  0  0  0  0
  7  8  1  0  0  0  0
  7  9  1  0  0  0  0
  9 10  1  0  0  0  0
  9 11  1  0  0  0  0
  9 18  1  0  0  0  0
 11 12  1  0  0  0  0
 11 13  1  0  0  0  0
 11 14  1  0  0  0  0
 14 15  2  0  0  0  0
 14 16  1  0  0  0  0
 16 17  1  0  0  0  0
 18 19  2  0  0  0  0
 18 20  1  0  0  0  0
 20 21  1  0  0  0  0
 20 22  1  0  0  0  0
 22 23  1  0  0  0  0
 22 24  1  0  0  0  0
 22 25  1  0  0  0  0
M  END
$$$$

  -OEChem-02102214113D

 25 24  0     1  0  0  0  0  0999 V2000
   -2.7161   -4.0022    0.4338 H   0  0  0  0  0  0  0  0  0  0  0  0
   -2.7740   -2.9555    0.1224 C   0  0  0  0  0  0  0  0  0  0  0  0
   -3.3718   -2.4038    0.8518 H   0  0  0  0  0  0  0  0  0  0  0  0
   -3.2633   -2.9042   -0.8531 H   0  0  0  0  0  0  0  0  0  0  0  0
   -1.3820   -2.3589    0.0350 C   0  0  0  0  0  0  0  0  0  0  0  0
   -0.4048   -3.0570    0.2544 O   0  0  0  0  0  0  0  0  0  0  0  0
   -1.2265   -1.0285   -0.2976 N   0  0  0  0  0  0  0  0  0  0  0  0
   -2.0730   -0.4668   -0.3788 H   0  0  0  0  0  0  0  0  0  0  0  0
    0.0491   -0.2982   -0.2689 C   0  0  1  0  0  0  0  0  0  0  0  0
    0.7353   -0.8706    0.3652 H   0  0  0  0  0  0  0  0  0  0  0  0
    0.6301   -0.1983   -1.6964 C   0  0  0  0  0  0  0  0  0  0  0  0
    0.1249   -0.9212   -2.3431 H   0  0  0  0  0  0  0  0  0  0  0  0
    0.4487    0.7953   -2.1163 H   0  0  0  0  0  0  0  0  0  0  0  0
    2.1234   -0.5065   -1.7580 C   0  0  0  0  0  0  0  0  0  0  0  0
    2.8252   -0.2554   -0.7893 O   0  0  0  0  0  0  0  0  0  0  0  0
    2.6012   -1.0261   -2.9122 O   0  0  0  0  0  0  0  0  0  0  0  0
    3.5504   -1.1656   -2.7741 H   0  0  0  0  0  0  0  0  0  0  0  0
   -0.0736    1.0881    0.3889 C   0  0  0  0  0  0  0  0  0  0  0  0
   -1.0605    1.7795    0.1663 O   0  0  0  0  0  0  0  0  0  0  0  0
    0.8733    1.5107    1.3019 N   0  0  0  0  0  0  0  0  0  0  0  0
    1.7195    0.9499    1.3819 H   0  0  0  0  0  0  0  0  0  0  0  0
    0.8285    2.8140    1.9529 C   0  0  0  0  0  0  0  0  0  0  0  0
   -0.1146    2.9405    2.4951 H   0  0  0  0  0  0  0  0  0  0  0  0
    1.6511    2.9069    2.6685 H   0  0  0  0  0  0  0  0  0  0  0  0
    0.9193    3.6154    1.2123 H   0  0  0  0  0  0  0  0  0  0  0  0
  1  2  1  0  0  0  0
  2  3  1  0  0  0  0
  2  4  1  0  0  0  0
  2  5  1  0  0  0  0
  5  6  2  0  0  0  0
  5  7  1  0  0  0  0
  7  8  1  0  0  0  0
  7  9  1  0  0  0  0
  9 10  1  0  0  0  0
  9 11  1  0  0  0  0
  9 18  1  0  0  0  0
 11 12  1  0  0  0  0
 11 13  1  0  0  0  0
 11 14  1  0  0  0  0
 14 15  2  0  0  0  0
 14 16  1  0  0  0  0
 16 17  1  0  0  0  0
 18 19  2  0  0  0  0
 18 20  1  0  0  0  0
 20 21  1  0  0  0  0
 20 22  1  0  0  0  0
 22 23  1  0  0  0  0
 22 24  1  0  0  0  0
 22 25  1  0  0  0  0
M  END
$$$$

  -OEChem-02102214113D

 25 24  0     1  0  0  0  0  0999 V2000
   -2.7149   -4.0012    0.4322 H   0  0  0  0  0  0  0  0  0  0  0  0
   -2.7706   -2.9545    0.1199 C   0  0  0  0  0  0  0  0  0  0  0  0
   -3.3737   -2.4028    0.8450 H   0  0  0  0  0  0  0  0  0  0  0  0
   -3.2530   -2.9042   -0.8591 H   0  0  0  0  0  0  0  0  0  0  0  0
   -1.3782   -2.3571    0.0424 C   0  0  0  0  0  0  0  0  0  0  0  0
   -0.4032   -3.0542    0.2735 O   0  0  0  0  0  0  0  0  0  0  0  0
   -1.2213   -1.0281   -0.2951 N   0  0  0  0  0  0  0  0  0  0  0  0
   -2.0682   -0.4691   -0.3883 H   0  0  0  0  0  0  0  0  0  0  0  0
    0.0524   -0.2941   -0.2607 C   0  0  1  0  0  0  0  0  0  0  0  0
    0.7295   -0.8635    0.3849 H   0  0  0  0  0  0  0  0  0  0  0  0
    0.6403   -0.2047   -1.6884 C   0  0  0  0  0  0  0  0  0  0  0  0
    0.1359   -0.9327   -2.3297 H   0  0  0  0  0  0  0  0  0  0  0  0
    0.4505    0.7847   -2.1140 H   0  0  0  0  0  0  0  0  0  0  0  0
    2.1358   -0.5044   -1.7750 C   0  0  0  0  0  0  0  0  0  0  0  0
    2.8182   -0.5135   -0.7617 O   0  0  0  0  0  0  0  0  0  0  0  0
    2.6368   -0.7310   -3.0110 O   0  0  0  0  0  0  0  0  0  0  0  0
    3.5812   -0.9126   -2.8899 H   0  0  0  0  0  0  0  0  0  0  0  0
   -0.0723    1.0955    0.3880 C   0  0  0  0  0  0  0  0  0  0  0  0
   -1.0511    1.7924    0.1479 O   0  0  0  0  0  0  0  0  0  0  0  0
    0.8704    1.5211    1.3039 N   0  0  0  0  0  0  0  0  0  0  0  0
    1.6954    0.9376    1.4277 H   0  0  0  0  0  0  0  0  0  0  0  0
    0.8190    2.8208    1.9610 C   0  0  0  0  0  0  0  0  0  0  0  0
   -0.1249    2.9395    2.5036 H   0  0  0  0  0  0  0  0  0  0  0  0
    1.6411    2.9149    2.6771 H   0  0  0  0  0  0  0  0  0  0  0  0
    0.9061    3.6263    1.2244 H   0  0  0  0  0  0  0  0  0  0  0  0
  1  2  1  0  0  0  0
  2  3  1  0  0  0  0
  2  4  1  0  0  0  0
  2  5  1  0  0  0  0
  5  6  2  0  0  0  0
  5  7  1  0  0  0  0
  7  8  1  0  0  0  0
  7  9  1  0  0  0  0
  9 10  1  0  0  0  0
  9 11  1  0  0  0  0
  9 18  1  0  0  0  0
 11 12  1  0  0  0  0
 11 13  1  0  0  0  0
 11 14  1  0  0  0  0
 14 15  2  0  0  0  0
 14 16  1  0  0  0  0
 16 17  1  0  0  0  0
 18 19  2  0  0  0  0
 18 20  1  0  0  0  0
 20 21  1  0  0  0  0
 20 22  1  0  0  0  0
 22 23  1  0  0  0  0
 22 24  1  0  0  0  0
 22 25  1  0  0  0  0
M  END
$$$$

  -OEChem-02102214113D

 25 24  0     1  0  0  0  0  0999 V2000
   -2.7158   -3.9958    0.4288 H   0  0  0  0  0  0  0  0  0  0  0  0
   -2.7664   -2.9491    0.1156 C   0  0  0  0  0  0  0  0  0  0  0  0
   -3.3778   -2.3959    0.8325 H   0  0  0  0  0  0  0  0  0  0  0  0
   -3.2366   -2.8980   -0.8693 H   0  0  0  0  0  0  0  0  0  0  0  0
   -1.3722   -2.3540    0.0552 C   0  0  0  0  0  0  0  0  0  0  0  0
   -0.4023   -3.0501    0.3082 O   0  0  0  0  0  0  0  0  0  0  0  0
   -1.2094   -1.0273   -0.2888 N   0  0  0  0  0  0  0  0  0  0  0  0
   -2.0545   -0.4701   -0.4058 H   0  0  0  0  0  0  0  0  0  0  0  0
    0.0651   -0.2944   -0.2517 C   0  0  1  0  0  0  0  0  0  0  0  0
    0.7396   -0.8595    0.3994 H   0  0  0  0  0  0  0  0  0  0  0  0
    0.6494   -0.2089   -1.6828 C   0  0  0  0  0  0  0  0  0  0  0  0
    0.1399   -0.9339   -2.3235 H   0  0  0  0  0  0  0  0  0  0  0  0
    0.4564    0.7816   -2.1045 H   0  0  0  0  0  0  0  0  0  0  0  0
    2.1443   -0.5081   -1.7941 C   0  0  0  0  0  0  0  0  0  0  0  0
    2.7991   -0.7888   -0.8029 O   0  0  0  0  0  0  0  0  0  0  0  0
    2.6751   -0.4332   -3.0360 O   0  0  0  0  0  0  0  0  0  0  0  0
    3.6127   -0.6605   -2.9408 H   0  0  0  0  0  0  0  0  0  0  0  0
   -0.0652    1.0985    0.3889 C   0  0  0  0  0  0  0  0  0  0  0  0
   -1.0370    1.7986    0.1305 O   0  0  0  0  0  0  0  0  0  0  0  0
    0.8703    1.5313    1.3092 N   0  0  0  0  0  0  0  0  0  0  0  0
    1.6721    0.9287    1.4818 H   0  0  0  0  0  0  0  0  0  0  0  0
    0.8030    2.8277    1.9719 C   0  0  0  0  0  0  0  0  0  0  0  0
   -0.1457    2.9356    2.5083 H   0  0  0  0  0  0  0  0  0  0  0  0
    1.6195    2.9263    2.6938 H   0  0  0  0  0  0  0  0  0  0  0  0
    0.8879    3.6370    1.2392 H   0  0  0  0  0  0  0  0  0  0  0  0
  1  2  1  0  0  0  0
  2  3  1  0  0  0  0
  2  4  1  0  0  0  0
  2  5  1  0  0  0  0
  5  6  2  0  0  0  0
  5  7  1  0  0  0  0
  7  8  1  0  0  0  0
  7  9  1  0  0  0  0
  9 10  1  0  0  0  0
  9 11  1  0  0  0  0
  9 18  1  0  0  0  0
 11 12  1  0  0  0  0
 11 13  1  0  0  0  0
 11 14  1  0  0  0  0
 14 15  2  0  0  0  0
 14 16  1  0  0  0  0
 16 17  1  0  0  0  0
 18 19  2  0  0  0  0
 18 20  1  0  0  0  0
 20 21  1  0  0  0  0
 20 22  1  0  0  0  0
 22 23  1  0  0  0  0
 22 24  1  0  0  0  0
 22 25  1  0  0  0  0
M  END
$$$$

  -OEChem-02102214113D

 25 24  0     1  0  0  0  0  0999 V2000
   -2.7200   -3.9925    0.4197 H   0  0  0  0  0  0  0  0  0  0  0  0
   -2.7641   -2.9445    0.1099 C   0  0  0  0  0  0  0  0  0  0  0  0
   -3.3811   -2.3922    0.8228 H   0  0  0  0  0  0  0  0  0  0  0  0
   -3.2236   -2.8886   -0.8798 H   0  0  0  0  0  0  0  0  0  0  0  0
   -1.3679   -2.3528    0.0661 C   0  0  0  0  0  0  0  0  0  0  0  0
   -0.4041   -3.0482    0.3419 O   0  0  0  0  0  0  0  0  0  0  0  0
   -1.1985   -1.0281   -0.2817 N   0  0  0  0  0  0  0  0  0  0  0  0
   -2.0409   -0.4720   -0.4200 H   0  0  0  0  0  0  0  0  0  0  0  0
    0.0774   -0.2976   -0.2451 C   0  0  1  0  0  0  0  0  0  0  0  0
    0.7566   -0.8592    0.4042 H   0  0  0  0  0  0  0  0  0  0  0  0
    0.6530   -0.2084   -1.6805 C   0  0  0  0  0  0  0  0  0  0  0  0
    0.1378   -0.9273   -2.3231 H   0  0  0  0  0  0  0  0  0  0  0  0
    0.4594    0.7856   -2.0943 H   0  0  0  0  0  0  0  0  0  0  0  0
    2.1462   -0.5104   -1.8051 C   0  0  0  0  0  0  0  0  0  0  0  0
    2.7517   -1.0536   -0.8963 O   0  0  0  0  0  0  0  0  0  0  0  0
    2.7314   -0.1412   -2.9673 O   0  0  0  0  0  0  0  0  0  0  0  0
    3.6594   -0.4129   -2.8978 H   0  0  0  0  0  0  0  0  0  0  0  0
   -0.0590    1.0969    0.3918 C   0  0  0  0  0  0  0  0  0  0  0  0
   -1.0256    1.7985    0.1186 O   0  0  0  0  0  0  0  0  0  0  0  0
    0.8708    1.5364    1.3150 N   0  0  0  0  0  0  0  0  0  0  0  0
    1.6542    0.9217    1.5235 H   0  0  0  0  0  0  0  0  0  0  0  0
    0.7920    2.8326    1.9769 C   0  0  0  0  0  0  0  0  0  0  0  0
   -0.1529    2.9279    2.5225 H   0  0  0  0  0  0  0  0  0  0  0  0
    1.6144    2.9437    2.6901 H   0  0  0  0  0  0  0  0  0  0  0  0
    0.8587    3.6420    1.2423 H   0  0  0  0  0  0  0  0  0  0  0  0
  1  2  1  0  0  0  0
  2  3  1  0  0  0  0
  2  4  1  0  0  0  0
  2  5  1  0  0  0  0
  5  6  2  0  0  0  0
  5  7  1  0  0  0  0
  7  8  1  0  0  0  0
  7  9  1  0  0  0  0
  9 10  1  0  0  0  0
  9 11  1  0  0  0  0
  9 18  1  0  0  0  0
 11 12  1  0  0  0  0
 11 13  1  0  0  0  0
 11 14  1  0  0  0  0
 14 15  2  0  0  0  0
 14 16  1  0  0  0  0
 16 17  1  0  0  0  0
 18 19  2  0  0  0  0
 18 20  1  0  0  0  0
 20 21  1  0  0  0  0
 20 22  1  0  0  0  0
 22 23  1  0  0  0  0
 22 24  1  0  0  0  0
 22 25  1  0  0  0  0
M  END
$$$$

  -OEChem-02102214113D

 25 24  0     1  0  0  0  0  0999 V2000
   -2.7175   -3.9944    0.4043 H   0  0  0  0  0  0  0  0  0  0  0  0
   -2.7601   -2.9447    0.1002 C   0  0  0  0  0  0  0  0  0  0  0  0
   -3.3861   -2.3978    0.8093 H   0  0  0  0  0  0  0  0  0  0  0  0
   -3.2087   -2.8841   -0.8942 H   0  0  0  0  0  0  0  0  0  0  0  0
   -1.3643   -2.3504    0.0762 C   0  0  0  0  0  0  0  0  0  0  0  0
   -0.4047   -3.0422    0.3740 O   0  0  0  0  0  0  0  0  0  0  0  0
   -1.1913   -1.0268   -0.2739 N   0  0  0  0  0  0  0  0  0  0  0  0
   -2.0316   -0.4708   -0.4246 H   0  0  0  0  0  0  0  0  0  0  0  0
    0.0867   -0.2998   -0.2424 C   0  0  1  0  0  0  0  0  0  0  0  0
    0.7760   -0.8595    0.3982 H   0  0  0  0  0  0  0  0  0  0  0  0
    0.6479   -0.2038   -1.6826 C   0  0  0  0  0  0  0  0  0  0  0  0
    0.1264   -0.9160   -2.3274 H   0  0  0  0  0  0  0  0  0  0  0  0
    0.4561    0.7940   -2.0885 H   0  0  0  0  0  0  0  0  0  0  0  0
    2.1386   -0.5124   -1.8083 C   0  0  0  0  0  0  0  0  0  0  0  0
    2.6758   -1.2905   -1.0390 O   0  0  0  0  0  0  0  0  0  0  0  0
    2.8000    0.1187   -2.8054 O   0  0  0  0  0  0  0  0  0  0  0  0
    3.7158   -0.1963   -2.7596 H   0  0  0  0  0  0  0  0  0  0  0  0
   -0.0526    1.0949    0.3946 C   0  0  0  0  0  0  0  0  0  0  0  0
   -1.0169    1.7971    0.1152 O   0  0  0  0  0  0  0  0  0  0  0  0
    0.8751    1.5401    1.3176 N   0  0  0  0  0  0  0  0  0  0  0  0
    1.6443    0.9176    1.5523 H   0  0  0  0  0  0  0  0  0  0  0  0
    0.7879    2.8371    1.9776 C   0  0  0  0  0  0  0  0  0  0  0  0
   -0.1440    2.9158    2.5472 H   0  0  0  0  0  0  0  0  0  0  0  0
    1.6268    2.9682    2.6678 H   0  0  0  0  0  0  0  0  0  0  0  0
    0.8184    3.6450    1.2390 H   0  0  0  0  0  0  0  0  0  0  0  0
  1  2  1  0  0  0  0
  2  3  1  0  0  0  0
  2  4  1  0  0  0  0
  2  5  1  0  0  0  0
  5  6  2  0  0  0  0
  5  7  1  0  0  0  0
  7  8  1  0  0  0  0
  7  9  1  0  0  0  0
  9 10  1  0  0  0  0
  9 11  1  0  0  0  0
  9 18  1  0  0  0  0
 11 12  1  0  0  0  0
 11 13  1  0  0  0  0
 11 14  1  0  0  0  0
 14 15  2  0  0  0  0
 14 16  1  0  0  0  0
 16 17  1  0  0  0  0
 18 19  2  0  0  0  0
 18 20  1  0  0  0  0
 20 21  1  0  0  0  0
 20 22  1  0  0  0  0
 22 23  1  0  0  0  0
 22 24  1  0  0  0  0
 22 25  1  0  0  0  0
M  END
$$$$

  -OEChem-02102214113D

 25 24  0     1  0  0  0  0  0999 V2000
   -2.7104   -3.9987    0.3954 H   0  0  0  0  0  0  0  0  0  0  0  0
   -2.7534   -2.9488    0.0928 C   0  0  0  0  0  0  0  0  0  0  0  0
   -3.3888   -2.4052    0.7960 H   0  0  0  0  0  0  0  0  0  0  0  0
   -3.1911   -2.8879   -0.9065 H   0  0  0  0  0  0  0  0  0  0  0  0
   -1.3595   -2.3498    0.0849 C   0  0  0  0  0  0  0  0  0  0  0  0
   -0.4023   -3.0348    0.4048 O   0  0  0  0  0  0  0  0  0  0  0  0
   -1.1877   -1.0264   -0.2663 N   0  0  0  0  0  0  0  0  0  0  0  0
   -2.0278   -0.4742   -0.4317 H   0  0  0  0  0  0  0  0  0  0  0  0
    0.0908   -0.3002   -0.2444 C   0  0  1  0  0  0  0  0  0  0  0  0
    0.7942   -0.8604    0.3813 H   0  0  0  0  0  0  0  0  0  0  0  0
    0.6349   -0.1951   -1.6888 C   0  0  0  0  0  0  0  0  0  0  0  0
    0.1115   -0.9051   -2.3347 H   0  0  0  0  0  0  0  0  0  0  0  0
    0.4432    0.8047   -2.0903 H   0  0  0  0  0  0  0  0  0  0  0  0
    2.1232   -0.5086   -1.8039 C   0  0  0  0  0  0  0  0  0  0  0  0
    2.5855   -1.4761   -1.2257 O   0  0  0  0  0  0  0  0  0  0  0  0
    2.8684    0.3330   -2.5563 O   0  0  0  0  0  0  0  0  0  0  0  0
    3.7715   -0.0193   -2.5364 H   0  0  0  0  0  0  0  0  0  0  0  0
   -0.0502    1.0936    0.3954 C   0  0  0  0  0  0  0  0  0  0  0  0
   -1.0158    1.7948    0.1178 O   0  0  0  0  0  0  0  0  0  0  0  0
    0.8805    1.5420    1.3138 N   0  0  0  0  0  0  0  0  0  0  0  0
    1.6462    0.9178    1.5540 H   0  0  0  0  0  0  0  0  0  0  0  0
    0.7914    2.8386    1.9743 C   0  0  0  0  0  0  0  0  0  0  0  0
   -0.1373    2.9133    2.5499 H   0  0  0  0  0  0  0  0  0  0  0  0
    1.6342    2.9735    2.6590 H   0  0  0  0  0  0  0  0  0  0  0  0
    0.8136    3.6466    1.2353 H   0  0  0  0  0  0  0  0  0  0  0  0
  1  2  1  0  0  0  0
  2  3  1  0  0  0  0
  2  4  1  0  0  0  0
  2  5  1  0  0  0  0
  5  6  2  0  0  0  0
  5  7  1  0  0  0  0
  7  8  1  0  0  0  0
  7  9  1  0  0  0  0
  9 10  1  0  0  0  0
  9 11  1  0  0  0  0
  9 18  1  0  0  0  0
 11 12  1  0  0  0  0
 11 13  1  0  0  0  0
 11 14  1  0  0  0  0
 14 15  2  0  0  0  0
 14 16  1  0  0  0  0
 16 17  1  0  0  0  0
 18 19  2  0  0  0  0
 18 20  1  0  0  0  0
 20 21  1  0  0  0  0
 20 22  1  0  0  0  0
 22 23  1  0  0  0  0
 22 24  1  0  0  0  0
 22 25  1  0  0  0  0
M  END
$$$$

  -OEChem-02102214113D

 25 24  0     1  0  0  0  0  0999 V2000
   -2.7004   -4.0062    0.3917 H   0  0  0  0  0  0  0  0  0  0  0  0
   -2.7474   -2.9562    0.0890 C   0  0  0  0  0  0  0  0  0  0  0  0
   -3.3892   -2.4158    0.7889 H   0  0  0  0  0  0  0  0  0  0  0  0
   -3.1808   -2.8975   -0.9121 H   0  0  0  0  0  0  0  0  0  0  0  0
   -1.3565   -2.3504    0.0873 C   0  0  0  0  0  0  0  0  0  0  0  0
   -0.3982   -3.0291    0.4176 O   0  0  0  0  0  0  0  0  0  0  0  0
   -1.1884   -1.0262   -0.2631 N   0  0  0  0  0  0  0  0  0  0  0  0
   -2.0292   -0.4776   -0.4364 H   0  0  0  0  0  0  0  0  0  0  0  0
    0.0896   -0.2995   -0.2503 C   0  0  1  0  0  0  0  0  0  0  0  0
    0.8042   -0.8616    0.3621 H   0  0  0  0  0  0  0  0  0  0  0  0
    0.6213   -0.1855   -1.6962 C   0  0  0  0  0  0  0  0  0  0  0  0
    0.0974   -0.8933   -2.3443 H   0  0  0  0  0  0  0  0  0  0  0  0
    0.4326    0.8160   -2.0949 H   0  0  0  0  0  0  0  0  0  0  0  0
    2.1079   -0.5026   -1.7933 C   0  0  0  0  0  0  0  0  0  0  0  0
    2.5067   -1.6011   -1.4508 O   0  0  0  0  0  0  0  0  0  0  0  0
    2.9233    0.4816   -2.2361 O   0  0  0  0  0  0  0  0  0  0  0  0
    3.8167    0.1047   -2.2442 H   0  0  0  0  0  0  0  0  0  0  0  0
   -0.0500    1.0928    0.3939 C   0  0  0  0  0  0  0  0  0  0  0  0
   -1.0201    1.7916    0.1255 O   0  0  0  0  0  0  0  0  0  0  0  0
    0.8858    1.5424    1.3067 N   0  0  0  0  0  0  0  0  0  0  0  0
    1.6602    0.9247    1.5343 H   0  0  0  0  0  0  0  0  0  0  0  0
    0.7993    2.8392    1.9670 C   0  0  0  0  0  0  0  0  0  0  0  0
   -0.1307    2.9171    2.5399 H   0  0  0  0  0  0  0  0  0  0  0  0
    1.6404    2.9708    2.6544 H   0  0  0  0  0  0  0  0  0  0  0  0
    0.8266    3.6471    1.2283 H   0  0  0  0  0  0  0  0  0  0  0  0
  1  2  1  0  0  0  0
  2  3  1  0  0  0  0
  2  4  1  0  0  0  0
  2  5  1  0  0  0  0
  5  6  2  0  0  0  0
  5  7  1  0  0  0  0
  7  8  1  0  0  0  0
  7  9  1  0  0  0  0
  9 10  1  0  0  0  0
  9 11  1  0  0  0  0
  9 18  1  0  0  0  0
 11 12  1  0  0  0  0
 11 13  1  0  0  0  0
 11 14  1  0  0  0  0
 14 15  2  0  0  0  0
 14 16  1  0  0  0  0
 16 17  1  0  0  0  0
 18 19  2  0  0  0  0
 18 20  1  0  0  0  0
 20 21  1  0  0  0  0
 20 22  1  0  0  0  0
 22 23  1  0  0  0  0
 22 24  1  0  0  0  0
 22 25  1  0  0  0  0
M  END
$$$$

  -OEChem-02102214113D

 25 24  0     1  0  0  0  0  0999 V2000
   -2.6903   -4.0089    0.3957 H   0  0  0  0  0  0  0  0  0  0  0  0
   -2.7414   -2.9600    0.0903 C   0  0  0  0  0  0  0  0  0  0  0  0
   -3.3818   -2.4195    0.7915 H   0  0  0  0  0  0  0  0  0  0  0  0
   -3.1787   -2.9054   -0.9095 H   0  0  0  0  0  0  0  0  0  0  0  0
   -1.3523   -2.3502    0.0818 C   0  0  0  0  0  0  0  0  0  0  0  0
   -0.3902   -3.0252    0.4095 O   0  0  0  0  0  0  0  0  0  0  0  0
   -1.1892   -1.0248   -0.2664 N   0  0  0  0  0  0  0  0  0  0  0  0
   -2.0314   -0.4763   -0.4335 H   0  0  0  0  0  0  0  0  0  0  0  0
    0.0889   -0.2990   -0.2571 C   0  0  1  0  0  0  0  0  0  0  0  0
    0.8091   -0.8625    0.3474 H   0  0  0  0  0  0  0  0  0  0  0  0
    0.6144   -0.1767   -1.7027 C   0  0  0  0  0  0  0  0  0  0  0  0
    0.0885   -0.8798   -2.3551 H   0  0  0  0  0  0  0  0  0  0  0  0
    0.4329    0.8277   -2.0972 H   0  0  0  0  0  0  0  0  0  0  0  0
    2.0993   -0.4984   -1.7832 C   0  0  0  0  0  0  0  0  0  0  0  0
    2.4565   -1.6600   -1.7084 O   0  0  0  0  0  0  0  0  0  0  0  0
    2.9579    0.5421   -1.8843 O   0  0  0  0  0  0  0  0  0  0  0  0
    3.8444    0.1514   -1.9301 H   0  0  0  0  0  0  0  0  0  0  0  0
   -0.0523    1.0911    0.3928 C   0  0  0  0  0  0  0  0  0  0  0  0
   -1.0303    1.7838    0.1373 O   0  0  0  0  0  0  0  0  0  0  0  0
    0.8846    1.5406    1.3043 N   0  0  0  0  0  0  0  0  0  0  0  0
    1.6793    0.9389    1.5020 H   0  0  0  0  0  0  0  0  0  0  0  0
    0.8011    2.8389    1.9619 C   0  0  0  0  0  0  0  0  0  0  0  0
   -0.1375    2.9275    2.5191 H   0  0  0  0  0  0  0  0  0  0  0  0
    1.6313    2.9614    2.6640 H   0  0  0  0  0  0  0  0  0  0  0  0
    0.8502    3.6457    1.2231 H   0  0  0  0  0  0  0  0  0  0  0  0
  1  2  1  0  0  0  0
  2  3  1  0  0  0  0
  2  4  1  0  0  0  0
  2  5  1  0  0  0  0
  5  6  2  0  0  0  0
  5  7  1  0  0  0  0
  7  8  1  0  0  0  0
  7  9  1  0  0  0  0
  9 10  1  0  0  0  0
  9 11  1  0  0  0  0
  9 18  1  0  0  0  0
 11 12  1  0  0  0  0
 11 13  1  0  0  0  0
 11 14  1  0  0  0  0
 14 15  2  0  0  0  0
 14 16  1  0  0  0  0
 16 17  1  0  0  0  0
 18 19  2  0  0  0  0
 18 20  1  0  0  0  0
 20 21  1  0  0  0  0
 20 22  1  0  0  0  0
 22 23  1  0  0  0  0
 22 24  1  0  0  0  0
 22 25  1  0  0  0  0
M  END
$$$$

  -OEChem-02102214113D

 25 24  0     1  0  0  0  0  0999 V2000
   -2.6868   -4.0126    0.3944 H   0  0  0  0  0  0  0  0  0  0  0  0
   -2.7407   -2.9636    0.0898 C   0  0  0  0  0  0  0  0  0  0  0  0
   -3.3767   -2.4241    0.7957 H   0  0  0  0  0  0  0  0  0  0  0  0
   -3.1851   -2.9088   -0.9068 H   0  0  0  0  0  0  0  0  0  0  0  0
   -1.3521   -2.3529    0.0720 C   0  0  0  0  0  0  0  0  0  0  0  0
   -0.3858   -3.0289    0.3856 O   0  0  0  0  0  0  0  0  0  0  0  0
   -1.1921   -1.0260   -0.2717 N   0  0  0  0  0  0  0  0  0  0  0  0
   -2.0359   -0.4755   -0.4237 H   0  0  0  0  0  0  0  0  0  0  0  0
    0.0853   -0.2993   -0.2602 C   0  0  1  0  0  0  0  0  0  0  0  0
    0.8056   -0.8641    0.3432 H   0  0  0  0  0  0  0  0  0  0  0  0
    0.6140   -0.1712   -1.7026 C   0  0  0  0  0  0  0  0  0  0  0  0
    0.0888   -0.8703   -2.3600 H   0  0  0  0  0  0  0  0  0  0  0  0
    0.4389    0.8355   -2.0936 H   0  0  0  0  0  0  0  0  0  0  0  0
    2.0988   -0.4939   -1.7669 C   0  0  0  0  0  0  0  0  0  0  0  0
    2.4456   -1.6435   -1.9685 O   0  0  0  0  0  0  0  0  0  0  0  0
    2.9654    0.5180   -1.5305 O   0  0  0  0  0  0  0  0  0  0  0  0
    3.8511    0.1317   -1.6166 H   0  0  0  0  0  0  0  0  0  0  0  0
   -0.0562    1.0888    0.3947 C   0  0  0  0  0  0  0  0  0  0  0  0
   -1.0393    1.7777    0.1481 O   0  0  0  0  0  0  0  0  0  0  0  0
    0.8805    1.5368    1.3072 N   0  0  0  0  0  0  0  0  0  0  0  0
    1.6985    0.9555    1.4673 H   0  0  0  0  0  0  0  0  0  0  0  0
    0.8047    2.8404    1.9553 C   0  0  0  0  0  0  0  0  0  0  0  0
   -0.1336    2.9389    2.5114 H   0  0  0  0  0  0  0  0  0  0  0  0
    1.6352    2.9626    2.6572 H   0  0  0  0  0  0  0  0  0  0  0  0
    0.8590    3.6416    1.2108 H   0  0  0  0  0  0  0  0  0  0  0  0
  1  2  1  0  0  0  0
  2  3  1  0  0  0  0
  2  4  1  0  0  0  0
  2  5  1  0  0  0  0
  5  6  2  0  0  0  0
  5  7  1  0  0  0  0
  7  8  1  0  0  0  0
  7  9  1  0  0  0  0
  9 10  1  0  0  0  0
  9 11  1  0  0  0  0
  9 18  1  0  0  0  0
 11 12  1  0  0  0  0
 11 13  1  0  0  0  0
 11 14  1  0  0  0  0
 14 15  2  0  0  0  0
 14 16  1  0  0  0  0
 16 17  1  0  0  0  0
 18 19  2  0  0  0  0
 18 20  1  0  0  0  0
 20 21  1  0  0  0  0
 20 22  1  0  0  0  0
 22 23  1  0  0  0  0
 22 24  1  0  0  0  0
 22 25  1  0  0  0  0
M  END
$$$$

  -OEChem-02102214113D

 25 24  0     1  0  0  0  0  0999 V2000
   -2.6865   -4.0101    0.4037 H   0  0  0  0  0  0  0  0  0  0  0  0
   -2.7414   -2.9623    0.0958 C   0  0  0  0  0  0  0  0  0  0  0  0
   -3.3697   -2.4191    0.8057 H   0  0  0  0  0  0  0  0  0  0  0  0
   -3.1950   -2.9102   -0.8969 H   0  0  0  0  0  0  0  0  0  0  0  0
   -1.3523   -2.3534    0.0620 C   0  0  0  0  0  0  0  0  0  0  0  0
   -0.3814   -3.0325    0.3553 O   0  0  0  0  0  0  0  0  0  0  0  0
   -1.1949   -1.0255   -0.2785 N   0  0  0  0  0  0  0  0  0  0  0  0
   -2.0397   -0.4718   -0.4126 H   0  0  0  0  0  0  0  0  0  0  0  0
    0.0822   -0.2989   -0.2640 C   0  0  1  0  0  0  0  0  0  0  0  0
    0.7993   -0.8635    0.3430 H   0  0  0  0  0  0  0  0  0  0  0  0
    0.6196   -0.1689   -1.7027 C   0  0  0  0  0  0  0  0  0  0  0  0
    0.0958   -0.8651   -2.3646 H   0  0  0  0  0  0  0  0  0  0  0  0
    0.4515    0.8395   -2.0921 H   0  0  0  0  0  0  0  0  0  0  0  0
    2.1050   -0.4927   -1.7512 C   0  0  0  0  0  0  0  0  0  0  0  0
    2.4631   -1.5602   -2.2152 O   0  0  0  0  0  0  0  0  0  0  0  0
    2.9557    0.4126   -1.2127 O   0  0  0  0  0  0  0  0  0  0  0  0
    3.8436    0.0409   -1.3362 H   0  0  0  0  0  0  0  0  0  0  0  0
   -0.0604    1.0877    0.3945 C   0  0  0  0  0  0  0  0  0  0  0  0
   -1.0517    1.7695    0.1609 O   0  0  0  0  0  0  0  0  0  0  0  0
    0.8758    1.5329    1.3086 N   0  0  0  0  0  0  0  0  0  0  0  0
    1.7200    0.9779    1.4205 H   0  0  0  0  0  0  0  0  0  0  0  0
    0.8017    2.8373    1.9553 C   0  0  0  0  0  0  0  0  0  0  0  0
   -0.1468    2.9467    2.4920 H   0  0  0  0  0  0  0  0  0  0  0  0
    1.6181    2.9497    2.6752 H   0  0  0  0  0  0  0  0  0  0  0  0
    0.8808    3.6377    1.2121 H   0  0  0  0  0  0  0  0  0  0  0  0
  1  2  1  0  0  0  0
  2  3  1  0  0  0  0
  2  4  1  0  0  0  0
  2  5  1  0  0  0  0
  5  6  2  0  0  0  0
  5  7  1  0  0  0  0
  7  8  1  0  0  0  0
  7  9  1  0  0  0  0
  9 10  1  0  0  0  0
  9 11  1  0  0  0  0
  9 18  1  0  0  0  0
 11 12  1  0  0  0  0
 11 13  1  0  0  0  0
 11 14  1  0  0  0  0
 14 15  2  0  0  0  0
 14 16  1  0  0  0  0
 16 17  1  0  0  0  0
 18 19  2  0  0  0  0
 18 20  1  0  0  0  0
 20 21  1  0  0  0  0
 20 22  1  0  0  0  0
 22 23  1  0  0  0  0
 22 24  1  0  0  0  0
 22 25  1  0  0  0  0
M  END
$$$$

  -OEChem-02102214113D

 25 24  0     1  0  0  0  0  0999 V2000
   -2.6889   -4.0071    0.4107 H   0  0  0  0  0  0  0  0  0  0  0  0
   -2.7458   -2.9601    0.1000 C   0  0  0  0  0  0  0  0  0  0  0  0
   -3.3685   -2.4143    0.8129 H   0  0  0  0  0  0  0  0  0  0  0  0
   -3.2070   -2.9106   -0.8893 H   0  0  0  0  0  0  0  0  0  0  0  0
   -1.3565   -2.3525    0.0538 C   0  0  0  0  0  0  0  0  0  0  0  0
   -0.3823   -3.0347    0.3295 O   0  0  0  0  0  0  0  0  0  0  0  0
   -1.2003   -1.0239   -0.2845 N   0  0  0  0  0  0  0  0  0  0  0  0
   -2.0456   -0.4679   -0.4066 H   0  0  0  0  0  0  0  0  0  0  0  0
    0.0768   -0.2974   -0.2640 C   0  0  1  0  0  0  0  0  0  0  0  0
    0.7869   -0.8623    0.3509 H   0  0  0  0  0  0  0  0  0  0  0  0
    0.6292   -0.1724   -1.6973 C   0  0  0  0  0  0  0  0  0  0  0  0
    0.1098   -0.8711   -2.3603 H   0  0  0  0  0  0  0  0  0  0  0  0
    0.4655    0.8352   -2.0898 H   0  0  0  0  0  0  0  0  0  0  0  0
    2.1160   -0.4960   -1.7317 C   0  0  0  0  0  0  0  0  0  0  0  0
    2.5010   -1.4201   -2.4252 O   0  0  0  0  0  0  0  0  0  0  0  0
    2.9382    0.2503   -0.9544 O   0  0  0  0  0  0  0  0  0  0  0  0
    3.8303   -0.0977   -1.1143 H   0  0  0  0  0  0  0  0  0  0  0  0
   -0.0659    1.0883    0.3954 C   0  0  0  0  0  0  0  0  0  0  0  0
   -1.0608    1.7673    0.1692 O   0  0  0  0  0  0  0  0  0  0  0  0
    0.8698    1.5279    1.3121 N   0  0  0  0  0  0  0  0  0  0  0  0
    1.7281    0.9881    1.3907 H   0  0  0  0  0  0  0  0  0  0  0  0
    0.7998    2.8331    1.9572 C   0  0  0  0  0  0  0  0  0  0  0  0
   -0.1530    2.9500    2.4844 H   0  0  0  0  0  0  0  0  0  0  0  0
    1.6099    2.9390    2.6850 H   0  0  0  0  0  0  0  0  0  0  0  0
    0.8920    3.6325    1.2147 H   0  0  0  0  0  0  0  0  0  0  0  0
  1  2  1  0  0  0  0
  2  3  1  0  0  0  0
  2  4  1  0  0  0  0
  2  5  1  0  0  0  0
  5  6  2  0  0  0  0
  5  7  1  0  0  0  0
  7  8  1  0  0  0  0
  7  9  1  0  0  0  0
  9 10  1  0  0  0  0
  9 11  1  0  0  0  0
  9 18  1  0  0  0  0
 11 12  1  0  0  0  0
 11 13  1  0  0  0  0
 11 14  1  0  0  0  0
 14 15  2  0  0  0  0
 14 16  1  0  0  0  0
 16 17  1  0  0  0  0
 18 19  2  0  0  0  0
 18 20  1  0  0  0  0
 20 21  1  0  0  0  0
 20 22  1  0  0  0  0
 22 23  1  0  0  0  0
 22 24  1  0  0  0  0
 22 25  1  0  0  0  0
M  END
$$$$

  -OEChem-02102214113D

 25 24  0     1  0  0  0  0  0999 V2000
   -2.6993   -4.0040    0.4163 H   0  0  0  0  0  0  0  0  0  0  0  0
   -2.7556   -2.9577    0.1028 C   0  0  0  0  0  0  0  0  0  0  0  0
   -3.3740   -2.4090    0.8173 H   0  0  0  0  0  0  0  0  0  0  0  0
   -3.2211   -2.9102   -0.8846 H   0  0  0  0  0  0  0  0  0  0  0  0
   -1.3653   -2.3530    0.0492 C   0  0  0  0  0  0  0  0  0  0  0  0
   -0.3911   -3.0387    0.3167 O   0  0  0  0  0  0  0  0  0  0  0  0
   -1.2070   -1.0246   -0.2894 N   0  0  0  0  0  0  0  0  0  0  0  0
   -2.0516   -0.4665   -0.4067 H   0  0  0  0  0  0  0  0  0  0  0  0
    0.0701   -0.2983   -0.2606 C   0  0  1  0  0  0  0  0  0  0  0  0
    0.7691   -0.8647    0.3655 H   0  0  0  0  0  0  0  0  0  0  0  0
    0.6400   -0.1841   -1.6887 C   0  0  0  0  0  0  0  0  0  0  0  0
    0.1264   -0.8872   -2.3515 H   0  0  0  0  0  0  0  0  0  0  0  0
    0.4793    0.8213   -2.0881 H   0  0  0  0  0  0  0  0  0  0  0  0
    2.1288   -0.5060   -1.7152 C   0  0  0  0  0  0  0  0  0  0  0  0
    2.5506   -1.2358   -2.5946 O   0  0  0  0  0  0  0  0  0  0  0  0
    2.9184    0.0550   -0.7649 O   0  0  0  0  0  0  0  0  0  0  0  0
    3.8164   -0.2582   -0.9602 H   0  0  0  0  0  0  0  0  0  0  0  0
   -0.0693    1.0890    0.3948 C   0  0  0  0  0  0  0  0  0  0  0  0
   -1.0615    1.7707    0.1658 O   0  0  0  0  0  0  0  0  0  0  0  0
    0.8653    1.5240    1.3149 N   0  0  0  0  0  0  0  0  0  0  0  0
    1.7233    0.9823    1.3896 H   0  0  0  0  0  0  0  0  0  0  0  0
    0.8002    2.8290    1.9609 C   0  0  0  0  0  0  0  0  0  0  0  0
   -0.1543    2.9515    2.4836 H   0  0  0  0  0  0  0  0  0  0  0  0
    1.6074    2.9291    2.6928 H   0  0  0  0  0  0  0  0  0  0  0  0
    0.9011    3.6285    1.2196 H   0  0  0  0  0  0  0  0  0  0  0  0
  1  2  1  0  0  0  0
  2  3  1  0  0  0  0
  2  4  1  0  0  0  0
  2  5  1  0  0  0  0
  5  6  2  0  0  0  0
  5  7  1  0  0  0  0
  7  8  1  0  0  0  0
  7  9  1  0  0  0  0
  9 10  1  0  0  0  0
  9 11  1  0  0  0  0
  9 18  1  0  0  0  0
 11 12  1  0  0  0  0
 11 13  1  0  0  0  0
 11 14  1  0  0  0  0
 14 15  2  0  0  0  0
 14 16  1  0  0  0  0
 16 17  1  0  0  0  0
 18 19  2  0  0  0  0
 18 20  1  0  0  0  0
 20 21  1  0  0  0  0
 20 22  1  0  0  0  0
 22 23  1  0  0  0  0
 22 24  1  0  0  0  0
 22 25  1  0  0  0  0
M  END
$$$$

  -OEChem-02102214113D

 25 24  0     1  0  0  0  0  0999 V2000
   -2.7161   -3.9995    0.4176 H   0  0  0  0  0  0  0  0  0  0  0  0
   -2.7687   -2.9532    0.1038 C   0  0  0  0  0  0  0  0  0  0  0  0
   -3.3849   -2.4017    0.8180 H   0  0  0  0  0  0  0  0  0  0  0  0
   -3.2345   -2.9041   -0.8833 H   0  0  0  0  0  0  0  0  0  0  0  0
   -1.3762   -2.3537    0.0501 C   0  0  0  0  0  0  0  0  0  0  0  0
   -0.4044   -3.0436    0.3155 O   0  0  0  0  0  0  0  0  0  0  0  0
   -1.2136   -1.0265   -0.2915 N   0  0  0  0  0  0  0  0  0  0  0  0
   -2.0570   -0.4676   -0.4132 H   0  0  0  0  0  0  0  0  0  0  0  0
    0.0637   -0.3007   -0.2540 C   0  0  1  0  0  0  0  0  0  0  0  0
    0.7483   -0.8684    0.3857 H   0  0  0  0  0  0  0  0  0  0  0  0
    0.6510   -0.2028   -1.6775 C   0  0  0  0  0  0  0  0  0  0  0  0
    0.1429   -0.9152   -2.3345 H   0  0  0  0  0  0  0  0  0  0  0  0
    0.4876    0.7976   -2.0881 H   0  0  0  0  0  0  0  0  0  0  0  0
    2.1419   -0.5210   -1.7086 C   0  0  0  0  0  0  0  0  0  0  0  0
    2.5979   -1.0172   -2.7233 O   0  0  0  0  0  0  0  0  0  0  0  0
    2.9041   -0.1677   -0.6421 O   0  0  0  0  0  0  0  0  0  0  0  0
    3.8085   -0.4342   -0.8736 H   0  0  0  0  0  0  0  0  0  0  0  0
   -0.0706    1.0899    0.3934 C   0  0  0  0  0  0  0  0  0  0  0  0
   -1.0542    1.7798    0.1530 O   0  0  0  0  0  0  0  0  0  0  0  0
    0.8626    1.5203    1.3167 N   0  0  0  0  0  0  0  0  0  0  0  0
    1.7069    0.9606    1.4144 H   0  0  0  0  0  0  0  0  0  0  0  0
    0.8016    2.8243    1.9645 C   0  0  0  0  0  0  0  0  0  0  0  0
   -0.1530    2.9487    2.4866 H   0  0  0  0  0  0  0  0  0  0  0  0
    1.6087    2.9208    2.6971 H   0  0  0  0  0  0  0  0  0  0  0  0
    0.9055    3.6246    1.2244 H   0  0  0  0  0  0  0  0  0  0  0  0
  1  2  1  0  0  0  0
  2  3  1  0  0  0  0
  2  4  1  0  0  0  0
  2  5  1  0  0  0  0
  5  6  2  0  0  0  0
  5  7  1  0  0  0  0
  7  8  1  0  0  0  0
  7  9  1  0  0  0  0
  9 10  1  0  0  0  0
  9 11  1  0  0  0  0
  9 18  1  0  0  0  0
 11 12  1  0  0  0  0
 11 13  1  0  0  0  0
 11 14  1  0  0  0  0
 14 15  2  0  0  0  0
 14 16  1  0  0  0  0
 16 17  1  0  0  0  0
 18 19  2  0  0  0  0
 18 20  1  0  0  0  0
 20 21  1  0  0  0  0
 20 22  1  0  0  0  0
 22 23  1  0  0  0  0
 22 24  1  0  0  0  0
 22 25  1  0  0  0  0
M  END
$$$$

  -OEChem-02102214113D

 25 24  0     1  0  0  0  0  0999 V2000
   -2.7365   -3.9935    0.4183 H   0  0  0  0  0  0  0  0  0  0  0  0
   -2.7828   -2.9472    0.1039 C   0  0  0  0  0  0  0  0  0  0  0  0
   -3.3979   -2.3923    0.8165 H   0  0  0  0  0  0  0  0  0  0  0  0
   -3.2460   -2.8959   -0.8843 H   0  0  0  0  0  0  0  0  0  0  0  0
   -1.3871   -2.3550    0.0526 C   0  0  0  0  0  0  0  0  0  0  0  0
   -0.4188   -3.0507    0.3159 O   0  0  0  0  0  0  0  0  0  0  0  0
   -1.2179   -1.0293   -0.2917 N   0  0  0  0  0  0  0  0  0  0  0  0
   -2.0596   -0.4682   -0.4156 H   0  0  0  0  0  0  0  0  0  0  0  0
    0.0601   -0.3040   -0.2476 C   0  0  1  0  0  0  0  0  0  0  0  0
    0.7308   -0.8732    0.4045 H   0  0  0  0  0  0  0  0  0  0  0  0
    0.6607   -0.2217   -1.6681 C   0  0  0  0  0  0  0  0  0  0  0  0
    0.1564   -0.9434   -2.3173 H   0  0  0  0  0  0  0  0  0  0  0  0
    0.4914    0.7733   -2.0899 H   0  0  0  0  0  0  0  0  0  0  0  0
    2.1538   -0.5363   -1.7145 C   0  0  0  0  0  0  0  0  0  0  0  0
    2.6389   -0.7697   -2.8073 O   0  0  0  0  0  0  0  0  0  0  0  0
    2.8926   -0.4282   -0.5807 O   0  0  0  0  0  0  0  0  0  0  0  0
    3.8018   -0.6439   -0.8438 H   0  0  0  0  0  0  0  0  0  0  0  0
   -0.0697    1.0899    0.3923 C   0  0  0  0  0  0  0  0  0  0  0  0
   -1.0457    1.7863    0.1405 O   0  0  0  0  0  0  0  0  0  0  0  0
    0.8615    1.5189    1.3183 N   0  0  0  0  0  0  0  0  0  0  0  0
    1.6878    0.9393    1.4483 H   0  0  0  0  0  0  0  0  0  0  0  0
    0.8014    2.8224    1.9673 C   0  0  0  0  0  0  0  0  0  0  0  0
   -0.1517    2.9459    2.4925 H   0  0  0  0  0  0  0  0  0  0  0  0
    1.6110    2.9191    2.6970 H   0  0  0  0  0  0  0  0  0  0  0  0
    0.9020    3.6235    1.2276 H   0  0  0  0  0  0  0  0  0  0  0  0
  1  2  1  0  0  0  0
  2  3  1  0  0  0  0
  2  4  1  0  0  0  0
  2  5  1  0  0  0  0
  5  6  2  0  0  0  0
  5  7  1  0  0  0  0
  7  8  1  0  0  0  0
  7  9  1  0  0  0  0
  9 10  1  0  0  0  0
  9 11  1  0  0  0  0
  9 18  1  0  0  0  0
 11 12  1  0  0  0  0
 11 13  1  0  0  0  0
 11 14  1  0  0  0  0
 14 15  2  0  0  0  0
 14 16  1  0  0  0  0
 16 17  1  0  0  0  0
 18 19  2  0  0  0  0
 18 20  1  0  0  0  0
 20 21  1  0  0  0  0
 20 22  1  0  0  0  0
 22 23  1  0  0  0  0
 22 24  1  0  0  0  0
 22 25  1  0  0  0  0
M  END
$$$$

  -OEChem-02102214113D

 25 24  0     1  0  0  0  0  0999 V2000
   -2.7631   -3.9661    0.4302 H   0  0  0  0  0  0  0  0  0  0  0  0
   -2.7901   -2.9193    0.1149 C   0  0  0  0  0  0  0  0  0  0  0  0
   -3.4122   -2.3567    0.8153 H   0  0  0  0  0  0  0  0  0  0  0  0
   -3.2334   -2.8634   -0.8822 H   0  0  0  0  0  0  0  0  0  0  0  0
   -1.3864   -2.3440    0.0898 C   0  0  0  0  0  0  0  0  0  0  0  0
   -0.4351   -3.0456    0.3937 O   0  0  0  0  0  0  0  0  0  0  0  0
   -1.1930   -1.0270   -0.2738 N   0  0  0  0  0  0  0  0  0  0  0  0
   -2.0239   -0.4584   -0.4312 H   0  0  0  0  0  0  0  0  0  0  0  0
    0.0953   -0.3199   -0.2265 C   0  0  1  0  0  0  0  0  0  0  0  0
    0.7656   -0.8699    0.4401 H   0  0  0  0  0  0  0  0  0  0  0  0
    0.6794   -0.2398   -1.6607 C   0  0  0  0  0  0  0  0  0  0  0  0
   -0.0134   -0.7104   -2.3641 H   0  0  0  0  0  0  0  0  0  0  0  0
    0.7746    0.8086   -1.9592 H   0  0  0  0  0  0  0  0  0  0  0  0
    2.0428   -0.9052   -1.8484 C   0  0  0  0  0  0  0  0  0  0  0  0
    2.5187   -0.8550   -2.9691 O   0  0  0  0  0  0  0  0  0  0  0  0
    2.7039   -1.4272   -0.7871 O   0  0  0  0  0  0  0  0  0  0  0  0
    3.5266   -1.7972   -1.1430 H   0  0  0  0  0  0  0  0  0  0  0  0
   -0.0565    1.0815    0.3943 C   0  0  0  0  0  0  0  0  0  0  0  0
   -1.0148    1.7813    0.0895 O   0  0  0  0  0  0  0  0  0  0  0  0
    0.8492    1.5331    1.3358 N   0  0  0  0  0  0  0  0  0  0  0  0
    1.6254    0.9212    1.5746 H   0  0  0  0  0  0  0  0  0  0  0  0
    0.7530    2.8381    1.9788 C   0  0  0  0  0  0  0  0  0  0  0  0
   -0.2148    2.9498    2.4792 H   0  0  0  0  0  0  0  0  0  0  0  0
    1.5426    2.9498    2.7281 H   0  0  0  0  0  0  0  0  0  0  0  0
    0.8615    3.6382    1.2390 H   0  0  0  0  0  0  0  0  0  0  0  0
  1  2  1  0  0  0  0
  2  3  1  0  0  0  0
  2  4  1  0  0  0  0
  2  5  1  0  0  0  0
  5  6  2  0  0  0  0
  5  7  1  0  0  0  0
  7  8  1  0  0  0  0
  7  9  1  0  0  0  0
  9 10  1  0  0  0  0
  9 11  1  0  0  0  0
  9 18  1  0  0  0  0
 11 12  1  0  0  0  0
 11 13  1  0  0  0  0
 11 14  1  0  0  0  0
 14 15  2  0  0  0  0
 14 16  1  0  0  0  0
 16 17  1  0  0  0  0
 18 19  2  0  0  0  0
 18 20  1  0  0  0  0
 20 21  1  0  0  0  0
 20 22  1  0  0  0  0
 22 23  1  0  0  0  0
 22 24  1  0  0  0  0
 22 25  1  0  0  0  0
M  END
$$$$

  -OEChem-02102214113D

 25 24  0     1  0  0  0  0  0999 V2000
   -2.7625   -3.9595    0.4211 H   0  0  0  0  0  0  0  0  0  0  0  0
   -2.7849   -2.9114    0.1096 C   0  0  0  0  0  0  0  0  0  0  0  0
   -3.4150   -2.3510    0.8042 H   0  0  0  0  0  0  0  0  0  0  0  0
   -3.2155   -2.8512   -0.8928 H   0  0  0  0  0  0  0  0  0  0  0  0
   -1.3807   -2.3374    0.1047 C   0  0  0  0  0  0  0  0  0  0  0  0
   -0.4367   -3.0373    0.4332 O   0  0  0  0  0  0  0  0  0  0  0  0
   -1.1812   -1.0230   -0.2649 N   0  0  0  0  0  0  0  0  0  0  0  0
   -2.0093   -0.4536   -0.4339 H   0  0  0  0  0  0  0  0  0  0  0  0
    0.1092   -0.3197   -0.2234 C   0  0  1  0  0  0  0  0  0  0  0  0
    0.7886   -0.8651    0.4384 H   0  0  0  0  0  0  0  0  0  0  0  0
    0.6823   -0.2388   -1.6622 C   0  0  0  0  0  0  0  0  0  0  0  0
   -0.0147   -0.7104   -2.3604 H   0  0  0  0  0  0  0  0  0  0  0  0
    0.7741    0.8098   -1.9619 H   0  0  0  0  0  0  0  0  0  0  0  0
    2.0416   -0.9093   -1.8594 C   0  0  0  0  0  0  0  0  0  0  0  0
    2.6423   -0.6269   -2.8815 O   0  0  0  0  0  0  0  0  0  0  0  0
    2.5364   -1.7465   -0.9178 O   0  0  0  0  0  0  0  0  0  0  0  0
    3.3748   -2.0829   -1.2690 H   0  0  0  0  0  0  0  0  0  0  0  0
   -0.0475    1.0840    0.3931 C   0  0  0  0  0  0  0  0  0  0  0  0
   -1.0069    1.7803    0.0831 O   0  0  0  0  0  0  0  0  0  0  0  0
    0.8550    1.5437    1.3341 N   0  0  0  0  0  0  0  0  0  0  0  0
    1.6171    0.9254    1.5990 H   0  0  0  0  0  0  0  0  0  0  0  0
    0.7420    2.8441    1.9835 C   0  0  0  0  0  0  0  0  0  0  0  0
   -0.2099    2.9243    2.5189 H   0  0  0  0  0  0  0  0  0  0  0  0
    1.5552    2.9795    2.7032 H   0  0  0  0  0  0  0  0  0  0  0  0
    0.7986    3.6482    1.2422 H   0  0  0  0  0  0  0  0  0  0  0  0
  1  2  1  0  0  0  0
  2  3  1  0  0  0  0
  2  4  1  0  0  0  0
  2  5  1  0  0  0  0
  5  6  2  0  0  0  0
  5  7  1  0  0  0  0
  7  8  1  0  0  0  0
  7  9  1  0  0  0  0
  9 10  1  0  0  0  0
  9 11  1  0  0  0  0
  9 18  1  0  0  0  0
 11 12  1  0  0  0  0
 11 13  1  0  0  0  0
 11 14  1  0  0  0  0
 14 15  2  0  0  0  0
 14 16  1  0  0  0  0
 16 17  1  0  0  0  0
 18 19  2  0  0  0  0
 18 20  1  0  0  0  0
 20 21  1  0  0  0  0
 20 22  1  0  0  0  0
 22 23  1  0  0  0  0
 22 24  1  0  0  0  0
 22 25  1  0  0  0  0
M  END
$$$$

  -OEChem-02102214113D

 25 24  0     1  0  0  0  0  0999 V2000
   -2.7603   -3.9650    0.4072 H   0  0  0  0  0  0  0  0  0  0  0  0
   -2.7798   -2.9165    0.0970 C   0  0  0  0  0  0  0  0  0  0  0  0
   -3.4265   -2.3591    0.7789 H   0  0  0  0  0  0  0  0  0  0  0  0
   -3.1893   -2.8562   -0.9142 H   0  0  0  0  0  0  0  0  0  0  0  0
   -1.3778   -2.3377    0.1226 C   0  0  0  0  0  0  0  0  0  0  0  0
   -0.4423   -3.0290    0.4909 O   0  0  0  0  0  0  0  0  0  0  0  0
   -1.1758   -1.0246   -0.2501 N   0  0  0  0  0  0  0  0  0  0  0  0
   -2.0020   -0.4617   -0.4477 H   0  0  0  0  0  0  0  0  0  0  0  0
    0.1157   -0.3224   -0.2210 C   0  0  1  0  0  0  0  0  0  0  0  0
    0.8104   -0.8692    0.4252 H   0  0  0  0  0  0  0  0  0  0  0  0
    0.6726   -0.2290   -1.6643 C   0  0  0  0  0  0  0  0  0  0  0  0
   -0.0269   -0.6993   -2.3603 H   0  0  0  0  0  0  0  0  0  0  0  0
    0.7617    0.8210   -1.9611 H   0  0  0  0  0  0  0  0  0  0  0  0
    2.0282   -0.9043   -1.8574 C   0  0  0  0  0  0  0  0  0  0  0  0
    2.7642   -0.4345   -2.7075 O   0  0  0  0  0  0  0  0  0  0  0  0
    2.3510   -1.9854   -1.1116 O   0  0  0  0  0  0  0  0  0  0  0  0
    3.2175   -2.2857   -1.4242 H   0  0  0  0  0  0  0  0  0  0  0  0
   -0.0408    1.0814    0.3959 C   0  0  0  0  0  0  0  0  0  0  0  0
   -1.0006    1.7777    0.0866 O   0  0  0  0  0  0  0  0  0  0  0  0
    0.8664    1.5452    1.3303 N   0  0  0  0  0  0  0  0  0  0  0  0
    1.6268    0.9268    1.5990 H   0  0  0  0  0  0  0  0  0  0  0  0
    0.7510    2.8456    1.9796 C   0  0  0  0  0  0  0  0  0  0  0  0
   -0.1879    2.9127    2.5393 H   0  0  0  0  0  0  0  0  0  0  0  0
    1.5806    2.9954    2.6771 H   0  0  0  0  0  0  0  0  0  0  0  0
    0.7759    3.6489    1.2357 H   0  0  0  0  0  0  0  0  0  0  0  0
  1  2  1  0  0  0  0
  2  3  1  0  0  0  0
  2  4  1  0  0  0  0
  2  5  1  0  0  0  0
  5  6  2  0  0  0  0
  5  7  1  0  0  0  0
  7  8  1  0  0  0  0
  7  9  1  0  0  0  0
  9 10  1  0  0  0  0
  9 11  1  0  0  0  0
  9 18  1  0  0  0  0
 11 12  1  0  0  0  0
 11 13  1  0  0  0  0
 11 14  1  0  0  0  0
 14 15  2  0  0  0  0
 14 16  1  0  0  0  0
 16 17  1  0  0  0  0
 18 19  2  0  0  0  0
 18 20  1  0  0  0  0
 20 21  1  0  0  0  0
 20 22  1  0  0  0  0
 22 23  1  0  0  0  0
 22 24  1  0  0  0  0
 22 25  1  0  0  0  0
M  END
$$$$

  -OEChem-02102214113D

 25 24  0     1  0  0  0  0  0999 V2000
   -2.7468   -3.9779    0.3983 H   0  0  0  0  0  0  0  0  0  0  0  0
   -2.7721   -2.9291    0.0894 C   0  0  0  0  0  0  0  0  0  0  0  0
   -3.4261   -2.3770    0.7686 H   0  0  0  0  0  0  0  0  0  0  0  0
   -3.1762   -2.8702   -0.9240 H   0  0  0  0  0  0  0  0  0  0  0  0
   -1.3744   -2.3408    0.1242 C   0  0  0  0  0  0  0  0  0  0  0  0
   -0.4392   -3.0220    0.5117 O   0  0  0  0  0  0  0  0  0  0  0  0
   -1.1783   -1.0259   -0.2457 N   0  0  0  0  0  0  0  0  0  0  0  0
   -2.0053   -0.4681   -0.4538 H   0  0  0  0  0  0  0  0  0  0  0  0
    0.1127   -0.3232   -0.2260 C   0  0  1  0  0  0  0  0  0  0  0  0
    0.8197   -0.8748    0.4034 H   0  0  0  0  0  0  0  0  0  0  0  0
    0.6565   -0.2154   -1.6712 C   0  0  0  0  0  0  0  0  0  0  0  0
   -0.0427   -0.6834   -2.3690 H   0  0  0  0  0  0  0  0  0  0  0  0
    0.7462    0.8357   -1.9642 H   0  0  0  0  0  0  0  0  0  0  0  0
    2.0091   -0.8962   -1.8476 C   0  0  0  0  0  0  0  0  0  0  0  0
    2.8684   -0.2941   -2.4675 O   0  0  0  0  0  0  0  0  0  0  0  0
    2.1841   -2.1404   -1.3489 O   0  0  0  0  0  0  0  0  0  0  0  0
    3.0806   -2.4134   -1.5940 H   0  0  0  0  0  0  0  0  0  0  0  0
   -0.0412    1.0776    0.3989 C   0  0  0  0  0  0  0  0  0  0  0  0
   -1.0041    1.7741    0.0999 O   0  0  0  0  0  0  0  0  0  0  0  0
    0.8733    1.5391    1.3272 N   0  0  0  0  0  0  0  0  0  0  0  0
    1.6434    0.9257    1.5788 H   0  0  0  0  0  0  0  0  0  0  0  0
    0.7695    2.8426    1.9719 C   0  0  0  0  0  0  0  0  0  0  0  0
   -0.1752    2.9260    2.5192 H   0  0  0  0  0  0  0  0  0  0  0  0
    1.5920    2.9809    2.6801 H   0  0  0  0  0  0  0  0  0  0  0  0
    0.8167    3.6434    1.2265 H   0  0  0  0  0  0  0  0  0  0  0  0
  1  2  1  0  0  0  0
  2  3  1  0  0  0  0
  2  4  1  0  0  0  0
  2  5  1  0  0  0  0
  5  6  2  0  0  0  0
  5  7  1  0  0  0  0
  7  8  1  0  0  0  0
  7  9  1  0  0  0  0
  9 10  1  0  0  0  0
  9 11  1  0  0  0  0
  9 18  1  0  0  0  0
 11 12  1  0  0  0  0
 11 13  1  0  0  0  0
 11 14  1  0  0  0  0
 14 15  2  0  0  0  0
 14 16  1  0  0  0  0
 16 17  1  0  0  0  0
 18 19  2  0  0  0  0
 18 20  1  0  0  0  0
 20 21  1  0  0  0  0
 20 22  1  0  0  0  0
 22 23  1  0  0  0  0
 22 24  1  0  0  0  0
 22 25  1  0  0  0  0
M  END
$$$$

  -OEChem-02102214113D

 25 24  0     1  0  0  0  0  0999 V2000
   -2.7367   -3.9875    0.3943 H   0  0  0  0  0  0  0  0  0  0  0  0
   -2.7683   -2.9387    0.0864 C   0  0  0  0  0  0  0  0  0  0  0  0
   -3.4224   -2.3902    0.7685 H   0  0  0  0  0  0  0  0  0  0  0  0
   -3.1767   -2.8813   -0.9253 H   0  0  0  0  0  0  0  0  0  0  0  0
   -1.3731   -2.3438    0.1154 C   0  0  0  0  0  0  0  0  0  0  0  0
   -0.4322   -3.0209    0.4969 O   0  0  0  0  0  0  0  0  0  0  0  0
   -1.1838   -1.0264   -0.2493 N   0  0  0  0  0  0  0  0  0  0  0  0
   -2.0127   -0.4693   -0.4508 H   0  0  0  0  0  0  0  0  0  0  0  0
    0.1066   -0.3229   -0.2344 C   0  0  1  0  0  0  0  0  0  0  0  0
    0.8195   -0.8793    0.3848 H   0  0  0  0  0  0  0  0  0  0  0  0
    0.6435   -0.2054   -1.6796 C   0  0  0  0  0  0  0  0  0  0  0  0
   -0.0539   -0.6711   -2.3809 H   0  0  0  0  0  0  0  0  0  0  0  0
    0.7364    0.8461   -1.9704 H   0  0  0  0  0  0  0  0  0  0  0  0
    1.9936   -0.8907   -1.8393 C   0  0  0  0  0  0  0  0  0  0  0  0
    2.9424   -0.2119   -2.1926 O   0  0  0  0  0  0  0  0  0  0  0  0
    2.0673   -2.2220   -1.6180 O   0  0  0  0  0  0  0  0  0  0  0  0
    2.9856   -2.4811   -1.7851 H   0  0  0  0  0  0  0  0  0  0  0  0
   -0.0430    1.0748    0.3991 C   0  0  0  0  0  0  0  0  0  0  0  0
   -1.0099    1.7711    0.1127 O   0  0  0  0  0  0  0  0  0  0  0  0
    0.8779    1.5319    1.3233 N   0  0  0  0  0  0  0  0  0  0  0  0
    1.6631    0.9277    1.5492 H   0  0  0  0  0  0  0  0  0  0  0  0
    0.7849    2.8370    1.9664 C   0  0  0  0  0  0  0  0  0  0  0  0
   -0.1593    2.9295    2.5136 H   0  0  0  0  0  0  0  0  0  0  0  0
    1.6082    2.9692    2.6750 H   0  0  0  0  0  0  0  0  0  0  0  0
    0.8395    3.6363    1.2198 H   0  0  0  0  0  0  0  0  0  0  0  0
  1  2  1  0  0  0  0
  2  3  1  0  0  0  0
  2  4  1  0  0  0  0
  2  5  1  0  0  0  0
  5  6  2  0  0  0  0
  5  7  1  0  0  0  0
  7  8  1  0  0  0  0
  7  9  1  0  0  0  0
  9 10  1  0  0  0  0
  9 11  1  0  0  0  0
  9 18  1  0  0  0  0
 11 12  1  0  0  0  0
 11 13  1  0  0  0  0
 11 14  1  0  0  0  0
 14 15  2  0  0  0  0
 14 16  1  0  0  0  0
 16 17  1  0  0  0  0
 18 19  2  0  0  0  0
 18 20  1  0  0  0  0
 20 21  1  0  0  0  0
 20 22  1  0  0  0  0
 22 23  1  0  0  0  0
 22 24  1  0  0  0  0
 22 25  1  0  0  0  0
M  END
$$$$

  -OEChem-02102214113D

 25 24  0     1  0  0  0  0  0999 V2000
   -2.7323   -3.9924    0.3966 H   0  0  0  0  0  0  0  0  0  0  0  0
   -2.7679   -2.9437    0.0887 C   0  0  0  0  0  0  0  0  0  0  0  0
   -3.4104   -2.3945    0.7810 H   0  0  0  0  0  0  0  0  0  0  0  0
   -3.1928   -2.8862   -0.9163 H   0  0  0  0  0  0  0  0  0  0  0  0
   -1.3721   -2.3494    0.0955 C   0  0  0  0  0  0  0  0  0  0  0  0
   -0.4215   -3.0304    0.4463 O   0  0  0  0  0  0  0  0  0  0  0  0
   -1.1904   -1.0285   -0.2598 N   0  0  0  0  0  0  0  0  0  0  0  0
   -2.0234   -0.4695   -0.4380 H   0  0  0  0  0  0  0  0  0  0  0  0
    0.0981   -0.3226   -0.2446 C   0  0  1  0  0  0  0  0  0  0  0  0
    0.8132   -0.8821    0.3695 H   0  0  0  0  0  0  0  0  0  0  0  0
    0.6335   -0.1962   -1.6873 C   0  0  0  0  0  0  0  0  0  0  0  0
   -0.0611   -0.6583   -2.3938 H   0  0  0  0  0  0  0  0  0  0  0  0
    0.7310    0.8557   -1.9740 H   0  0  0  0  0  0  0  0  0  0  0  0
    1.9829   -0.8830   -1.8299 C   0  0  0  0  0  0  0  0  0  0  0  0
    2.9791   -0.1833   -1.8956 O   0  0  0  0  0  0  0  0  0  0  0  0
    2.0072   -2.2326   -1.9044 O   0  0  0  0  0  0  0  0  0  0  0  0
    2.9373   -2.4887   -1.9924 H   0  0  0  0  0  0  0  0  0  0  0  0
   -0.0483    1.0704    0.3998 C   0  0  0  0  0  0  0  0  0  0  0  0
   -1.0201    1.7657    0.1276 O   0  0  0  0  0  0  0  0  0  0  0  0
    0.8771    1.5210    1.3225 N   0  0  0  0  0  0  0  0  0  0  0  0
    1.6803    0.9288    1.5155 H   0  0  0  0  0  0  0  0  0  0  0  0
    0.7980    2.8301    1.9592 C   0  0  0  0  0  0  0  0  0  0  0  0
   -0.1450    2.9344    2.5063 H   0  0  0  0  0  0  0  0  0  0  0  0
    1.6229    2.9573    2.6668 H   0  0  0  0  0  0  0  0  0  0  0  0
    0.8598    3.6250    1.2084 H   0  0  0  0  0  0  0  0  0  0  0  0
  1  2  1  0  0  0  0
  2  3  1  0  0  0  0
  2  4  1  0  0  0  0
  2  5  1  0  0  0  0
  5  6  2  0  0  0  0
  5  7  1  0  0  0  0
  7  8  1  0  0  0  0
  7  9  1  0  0  0  0
  9 10  1  0  0  0  0
  9 11  1  0  0  0  0
  9 18  1  0  0  0  0
 11 12  1  0  0  0  0
 11 13  1  0  0  0  0
 11 14  1  0  0  0  0
 14 15  2  0  0  0  0
 14 16  1  0  0  0  0
 16 17  1  0  0  0  0
 18 19  2  0  0  0  0
 18 20  1  0  0  0  0
 20 21  1  0  0  0  0
 20 22  1  0  0  0  0
 22 23  1  0  0  0  0
 22 24  1  0  0  0  0
 22 25  1  0  0  0  0
M  END
$$$$

  -OEChem-02102214113D

 25 24  0     1  0  0  0  0  0999 V2000
   -2.7240   -3.9913    0.4140 H   0  0  0  0  0  0  0  0  0  0  0  0
   -2.7670   -2.9443    0.1009 C   0  0  0  0  0  0  0  0  0  0  0  0
   -3.3932   -2.3913    0.8052 H   0  0  0  0  0  0  0  0  0  0  0  0
   -3.2151   -2.8919   -0.8941 H   0  0  0  0  0  0  0  0  0  0  0  0
   -1.3717   -2.3500    0.0712 C   0  0  0  0  0  0  0  0  0  0  0  0
   -0.4098   -3.0361    0.3791 O   0  0  0  0  0  0  0  0  0  0  0  0
   -1.1990   -1.0259   -0.2764 N   0  0  0  0  0  0  0  0  0  0  0  0
   -2.0363   -0.4632   -0.4208 H   0  0  0  0  0  0  0  0  0  0  0  0
    0.0876   -0.3172   -0.2612 C   0  0  1  0  0  0  0  0  0  0  0  0
    0.8015   -0.8778    0.3536 H   0  0  0  0  0  0  0  0  0  0  0  0
    0.6270   -0.1898   -1.7009 C   0  0  0  0  0  0  0  0  0  0  0  0
   -0.0634   -0.6523   -2.4114 H   0  0  0  0  0  0  0  0  0  0  0  0
    0.7283    0.8613   -1.9889 H   0  0  0  0  0  0  0  0  0  0  0  0
    1.9770   -0.8766   -1.8252 C   0  0  0  0  0  0  0  0  0  0  0  0
    2.9769   -0.2145   -1.6039 O   0  0  0  0  0  0  0  0  0  0  0  0
    2.0015   -2.1780   -2.1917 O   0  0  0  0  0  0  0  0  0  0  0  0
    2.9329   -2.4443   -2.2010 H   0  0  0  0  0  0  0  0  0  0  0  0
   -0.0534    1.0716    0.3920 C   0  0  0  0  0  0  0  0  0  0  0  0
   -1.0347    1.7622    0.1427 O   0  0  0  0  0  0  0  0  0  0  0  0
    0.8787    1.5139    1.3118 N   0  0  0  0  0  0  0  0  0  0  0  0
    1.7024    0.9373    1.4623 H   0  0  0  0  0  0  0  0  0  0  0  0
    0.8046    2.8175    1.9600 C   0  0  0  0  0  0  0  0  0  0  0  0
   -0.1464    2.9285    2.4919 H   0  0  0  0  0  0  0  0  0  0  0  0
    1.6180    2.9265    2.6839 H   0  0  0  0  0  0  0  0  0  0  0  0
    0.8895    3.6191    1.2187 H   0  0  0  0  0  0  0  0  0  0  0  0
  1  2  1  0  0  0  0
  2  3  1  0  0  0  0
  2  4  1  0  0  0  0
  2  5  1  0  0  0  0
  5  6  2  0  0  0  0
  5  7  1  0  0  0  0
  7  8  1  0  0  0  0
  7  9  1  0  0  0  0
  9 10  1  0  0  0  0
  9 11  1  0  0  0  0
  9 18  1  0  0  0  0
 11 12  1  0  0  0  0
 11 13  1  0  0  0  0
 11 14  1  0  0  0  0
 14 15  2  0  0  0  0
 14 16  1  0  0  0  0
 16 17  1  0  0  0  0
 18 19  2  0  0  0  0
 18 20  1  0  0  0  0
 20 21  1  0  0  0  0
 20 22  1  0  0  0  0
 22 23  1  0  0  0  0
 22 24  1  0  0  0  0
 22 25  1  0  0  0  0
M  END
$$$$

  -OEChem-02102214113D

 25 24  0     1  0  0  0  0  0999 V2000
   -2.7166   -3.9917    0.4259 H   0  0  0  0  0  0  0  0  0  0  0  0
   -2.7666   -2.9459    0.1100 C   0  0  0  0  0  0  0  0  0  0  0  0
   -3.3814   -2.3916    0.8233 H   0  0  0  0  0  0  0  0  0  0  0  0
   -3.2324   -2.8978   -0.8771 H   0  0  0  0  0  0  0  0  0  0  0  0
   -1.3726   -2.3500    0.0538 C   0  0  0  0  0  0  0  0  0  0  0  0
   -0.4024   -3.0396    0.3261 O   0  0  0  0  0  0  0  0  0  0  0  0
   -1.2072   -1.0235   -0.2879 N   0  0  0  0  0  0  0  0  0  0  0  0
   -2.0475   -0.4594   -0.4076 H   0  0  0  0  0  0  0  0  0  0  0  0
    0.0772   -0.3108   -0.2716 C   0  0  1  0  0  0  0  0  0  0  0  0
    0.7891   -0.8719    0.3450 H   0  0  0  0  0  0  0  0  0  0  0  0
    0.6212   -0.1862   -1.7096 C   0  0  0  0  0  0  0  0  0  0  0  0
   -0.0670   -0.6515   -2.4209 H   0  0  0  0  0  0  0  0  0  0  0  0
    0.7241    0.8636   -2.0004 H   0  0  0  0  0  0  0  0  0  0  0  0
    1.9739   -0.8693   -1.8250 C   0  0  0  0  0  0  0  0  0  0  0  0
    2.9392   -0.3019   -1.3399 O   0  0  0  0  0  0  0  0  0  0  0  0
    2.0421   -2.0572   -2.4685 O   0  0  0  0  0  0  0  0  0  0  0  0
    2.9663   -2.3432   -2.4170 H   0  0  0  0  0  0  0  0  0  0  0  0
   -0.0588    1.0754    0.3869 C   0  0  0  0  0  0  0  0  0  0  0  0
   -1.0438    1.7653    0.1509 O   0  0  0  0  0  0  0  0  0  0  0  0
    0.8792    1.5099    1.3040 N   0  0  0  0  0  0  0  0  0  0  0  0
    1.7117    0.9393    1.4291 H   0  0  0  0  0  0  0  0  0  0  0  0
    0.8119    2.8092    1.9611 C   0  0  0  0  0  0  0  0  0  0  0  0
   -0.1396    2.9227    2.4915 H   0  0  0  0  0  0  0  0  0  0  0  0
    1.6239    2.9074    2.6881 H   0  0  0  0  0  0  0  0  0  0  0  0
    0.9043    3.6152    1.2257 H   0  0  0  0  0  0  0  0  0  0  0  0
  1  2  1  0  0  0  0
  2  3  1  0  0  0  0
  2  4  1  0  0  0  0
  2  5  1  0  0  0  0
  5  6  2  0  0  0  0
  5  7  1  0  0  0  0
  7  8  1  0  0  0  0
  7  9  1  0  0  0  0
  9 10  1  0  0  0  0
  9 11  1  0  0  0  0
  9 18  1  0  0  0  0
 11 12  1  0  0  0  0
 11 13  1  0  0  0  0
 11 14  1  0  0  0  0
 14 15  2  0  0  0  0
 14 16  1  0  0  0  0
 16 17  1  0  0  0  0
 18 19  2  0  0  0  0
 18 20  1  0  0  0  0
 20 21  1  0  0  0  0
 20 22  1  0  0  0  0
 22 23  1  0  0  0  0
 22 24  1  0  0  0  0
 22 25  1  0  0  0  0
M  END
$$$$

  -OEChem-02102214113D

 25 24  0     1  0  0  0  0  0999 V2000
   -2.7140   -3.9960    0.4228 H   0  0  0  0  0  0  0  0  0  0  0  0
   -2.7687   -2.9481    0.1148 C   0  0  0  0  0  0  0  0  0  0  0  0
   -3.3728   -2.3984    0.8407 H   0  0  0  0  0  0  0  0  0  0  0  0
   -3.2487   -2.8933   -0.8653 H   0  0  0  0  0  0  0  0  0  0  0  0
   -1.3756   -2.3519    0.0425 C   0  0  0  0  0  0  0  0  0  0  0  0
   -0.4008   -3.0459    0.2859 O   0  0  0  0  0  0  0  0  0  0  0  0
   -1.2149   -1.0235   -0.2944 N   0  0  0  0  0  0  0  0  0  0  0  0
   -2.0575   -0.4584   -0.3907 H   0  0  0  0  0  0  0  0  0  0  0  0
    0.0672   -0.3061   -0.2736 C   0  0  1  0  0  0  0  0  0  0  0  0
    0.7723   -0.8688    0.3493 H   0  0  0  0  0  0  0  0  0  0  0  0
    0.6212   -0.1877   -1.7093 C   0  0  0  0  0  0  0  0  0  0  0  0
   -0.0639   -0.6581   -2.4202 H   0  0  0  0  0  0  0  0  0  0  0  0
    0.7202    0.8611   -2.0039 H   0  0  0  0  0  0  0  0  0  0  0  0
    1.9795   -0.8623   -1.8273 C   0  0  0  0  0  0  0  0  0  0  0  0
    2.8858   -0.4484   -1.1211 O   0  0  0  0  0  0  0  0  0  0  0  0
    2.1198   -1.8702   -2.7190 O   0  0  0  0  0  0  0  0  0  0  0  0
    3.0325   -2.1839   -2.6324 H   0  0  0  0  0  0  0  0  0  0  0  0
   -0.0653    1.0787    0.3872 C   0  0  0  0  0  0  0  0  0  0  0  0
   -1.0501    1.7703    0.1556 O   0  0  0  0  0  0  0  0  0  0  0  0
    0.8754    1.5081    1.3038 N   0  0  0  0  0  0  0  0  0  0  0  0
    1.7109    0.9385    1.4162 H   0  0  0  0  0  0  0  0  0  0  0  0
    0.8174    2.8084    1.9597 C   0  0  0  0  0  0  0  0  0  0  0  0
   -0.1239    2.9204    2.5081 H   0  0  0  0  0  0  0  0  0  0  0  0
    1.6434    2.9101    2.6703 H   0  0  0  0  0  0  0  0  0  0  0  0
    0.8933    3.6135    1.2214 H   0  0  0  0  0  0  0  0  0  0  0  0
  1  2  1  0  0  0  0
  2  3  1  0  0  0  0
  2  4  1  0  0  0  0
  2  5  1  0  0  0  0
  5  6  2  0  0  0  0
  5  7  1  0  0  0  0
  7  8  1  0  0  0  0
  7  9  1  0  0  0  0
  9 10  1  0  0  0  0
  9 11  1  0  0  0  0
  9 18  1  0  0  0  0
 11 12  1  0  0  0  0
 11 13  1  0  0  0  0
 11 14  1  0  0  0  0
 14 15  2  0  0  0  0
 14 16  1  0  0  0  0
 16 17  1  0  0  0  0
 18 19  2  0  0  0  0
 18 20  1  0  0  0  0
 20 21  1  0  0  0  0
 20 22  1  0  0  0  0
 22 23  1  0  0  0  0
 22 24  1  0  0  0  0
 22 25  1  0  0  0  0
M  END
$$$$

  -OEChem-02102214113D

 25 24  0     1  0  0  0  0  0999 V2000
   -2.7115   -3.9908    0.4423 H   0  0  0  0  0  0  0  0  0  0  0  0
   -2.7668   -2.9464    0.1229 C   0  0  0  0  0  0  0  0  0  0  0  0
   -3.3705   -2.3895    0.8435 H   0  0  0  0  0  0  0  0  0  0  0  0
   -3.2476   -2.9022   -0.8573 H   0  0  0  0  0  0  0  0  0  0  0  0
   -1.3742   -2.3507    0.0428 C   0  0  0  0  0  0  0  0  0  0  0  0
   -0.3987   -3.0472    0.2751 O   0  0  0  0  0  0  0  0  0  0  0  0
   -1.2149   -1.0224   -0.2954 N   0  0  0  0  0  0  0  0  0  0  0  0
   -2.0585   -0.4584   -0.3899 H   0  0  0  0  0  0  0  0  0  0  0  0
    0.0654   -0.3011   -0.2705 C   0  0  1  0  0  0  0  0  0  0  0  0
    0.7607   -0.8634    0.3625 H   0  0  0  0  0  0  0  0  0  0  0  0
    0.6276   -0.1952   -1.7069 C   0  0  0  0  0  0  0  0  0  0  0  0
   -0.0584   -0.6732   -2.4119 H   0  0  0  0  0  0  0  0  0  0  0  0
    0.7181    0.8522   -2.0087 H   0  0  0  0  0  0  0  0  0  0  0  0
    1.9922   -0.8588   -1.8462 C   0  0  0  0  0  0  0  0  0  0  0  0
    2.8344   -0.6500   -0.9863 O   0  0  0  0  0  0  0  0  0  0  0  0
    2.2077   -1.6344   -2.9336 O   0  0  0  0  0  0  0  0  0  0  0  0
    3.1067   -1.9844   -2.8407 H   0  0  0  0  0  0  0  0  0  0  0  0
   -0.0665    1.0853    0.3860 C   0  0  0  0  0  0  0  0  0  0  0  0
   -1.0492    1.7780    0.1497 O   0  0  0  0  0  0  0  0  0  0  0  0
    0.8735    1.5144    1.3035 N   0  0  0  0  0  0  0  0  0  0  0  0
    1.7005    0.9352    1.4309 H   0  0  0  0  0  0  0  0  0  0  0  0
    0.8111    2.8108    1.9668 C   0  0  0  0  0  0  0  0  0  0  0  0
   -0.1399    2.9252    2.4978 H   0  0  0  0  0  0  0  0  0  0  0  0
    1.6236    2.9025    2.6941 H   0  0  0  0  0  0  0  0  0  0  0  0
    0.9062    3.6203    1.2355 H   0  0  0  0  0  0  0  0  0  0  0  0
  1  2  1  0  0  0  0
  2  3  1  0  0  0  0
  2  4  1  0  0  0  0
  2  5  1  0  0  0  0
  5  6  2  0  0  0  0
  5  7  1  0  0  0  0
  7  8  1  0  0  0  0
  7  9  1  0  0  0  0
  9 10  1  0  0  0  0
  9 11  1  0  0  0  0
  9 18  1  0  0  0  0
 11 12  1  0  0  0  0
 11 13  1  0  0  0  0
 11 14  1  0  0  0  0
 14 15  2  0  0  0  0
 14 16  1  0  0  0  0
 16 17  1  0  0  0  0
 18 19  2  0  0  0  0
 18 20  1  0  0  0  0
 20 21  1  0  0  0  0
 20 22  1  0  0  0  0
 22 23  1  0  0  0  0
 22 24  1  0  0  0  0
 22 25  1  0  0  0  0
M  END
$$$$

  -OEChem-02102214113D

 25 24  0     1  0  0  0  0  0999 V2000
   -2.7198   -3.9873    0.4425 H   0  0  0  0  0  0  0  0  0  0  0  0
   -2.7694   -2.9417    0.1259 C   0  0  0  0  0  0  0  0  0  0  0  0
   -3.3735   -2.3843    0.8457 H   0  0  0  0  0  0  0  0  0  0  0  0
   -3.2471   -2.8930   -0.8555 H   0  0  0  0  0  0  0  0  0  0  0  0
   -1.3738   -2.3511    0.0525 C   0  0  0  0  0  0  0  0  0  0  0  0
   -0.4028   -3.0500    0.2945 O   0  0  0  0  0  0  0  0  0  0  0  0
   -1.2080   -1.0251   -0.2914 N   0  0  0  0  0  0  0  0  0  0  0  0
   -2.0502   -0.4611   -0.3971 H   0  0  0  0  0  0  0  0  0  0  0  0
    0.0723   -0.3029   -0.2595 C   0  0  1  0  0  0  0  0  0  0  0  0
    0.7573   -0.8623    0.3864 H   0  0  0  0  0  0  0  0  0  0  0  0
    0.6431   -0.2063   -1.6961 C   0  0  0  0  0  0  0  0  0  0  0  0
   -0.0445   -0.6874   -2.3973 H   0  0  0  0  0  0  0  0  0  0  0  0
    0.7255    0.8407   -2.0007 H   0  0  0  0  0  0  0  0  0  0  0  0
    2.0119   -0.8600   -1.8666 C   0  0  0  0  0  0  0  0  0  0  0  0
    2.7850   -0.8958   -0.9219 O   0  0  0  0  0  0  0  0  0  0  0  0
    2.3075   -1.3552   -3.0906 O   0  0  0  0  0  0  0  0  0  0  0  0
    3.1929   -1.7425   -3.0161 H   0  0  0  0  0  0  0  0  0  0  0  0
   -0.0652    1.0872    0.3874 C   0  0  0  0  0  0  0  0  0  0  0  0
   -1.0401    1.7840    0.1314 O   0  0  0  0  0  0  0  0  0  0  0  0
    0.8671    1.5209    1.3104 N   0  0  0  0  0  0  0  0  0  0  0  0
    1.6759    0.9259    1.4746 H   0  0  0  0  0  0  0  0  0  0  0  0
    0.7981    2.8182    1.9708 C   0  0  0  0  0  0  0  0  0  0  0  0
   -0.1517    2.9269    2.5052 H   0  0  0  0  0  0  0  0  0  0  0  0
    1.6131    2.9180    2.6943 H   0  0  0  0  0  0  0  0  0  0  0  0
    0.8844    3.6260    1.2367 H   0  0  0  0  0  0  0  0  0  0  0  0
  1  2  1  0  0  0  0
  2  3  1  0  0  0  0
  2  4  1  0  0  0  0
  2  5  1  0  0  0  0
  5  6  2  0  0  0  0
  5  7  1  0  0  0  0
  7  8  1  0  0  0  0
  7  9  1  0  0  0  0
  9 10  1  0  0  0  0
  9 11  1  0  0  0  0
  9 18  1  0  0  0  0
 11 12  1  0  0  0  0
 11 13  1  0  0  0  0
 11 14  1  0  0  0  0
 14 15  2  0  0  0  0
 14 16  1  0  0  0  0
 16 17  1  0  0  0  0
 18 19  2  0  0  0  0
 18 20  1  0  0  0  0
 20 21  1  0  0  0  0
 20 22  1  0  0  0  0
 22 23  1  0  0  0  0
 22 24  1  0  0  0  0
 22 25  1  0  0  0  0
M  END
$$$$

  -OEChem-02102214113D

 25 24  0     1  0  0  0  0  0999 V2000
   -2.7309   -3.9808    0.4381 H   0  0  0  0  0  0  0  0  0  0  0  0
   -2.7716   -2.9338    0.1245 C   0  0  0  0  0  0  0  0  0  0  0  0
   -3.3799   -2.3752    0.8399 H   0  0  0  0  0  0  0  0  0  0  0  0
   -3.2390   -2.8792   -0.8615 H   0  0  0  0  0  0  0  0  0  0  0  0
   -1.3721   -2.3507    0.0672 C   0  0  0  0  0  0  0  0  0  0  0  0
   -0.4093   -3.0519    0.3323 O   0  0  0  0  0  0  0  0  0  0  0  0
   -1.1958   -1.0281   -0.2842 N   0  0  0  0  0  0  0  0  0  0  0  0
   -2.0343   -0.4627   -0.4086 H   0  0  0  0  0  0  0  0  0  0  0  0
    0.0865   -0.3093   -0.2472 C   0  0  1  0  0  0  0  0  0  0  0  0
    0.7664   -0.8642    0.4067 H   0  0  0  0  0  0  0  0  0  0  0  0
    0.6596   -0.2160   -1.6853 C   0  0  0  0  0  0  0  0  0  0  0  0
   -0.0327   -0.6926   -2.3849 H   0  0  0  0  0  0  0  0  0  0  0  0
    0.7396    0.8324   -1.9862 H   0  0  0  0  0  0  0  0  0  0  0  0
    2.0280   -0.8657   -1.8870 C   0  0  0  0  0  0  0  0  0  0  0  0
    2.7199   -1.1640   -0.9269 O   0  0  0  0  0  0  0  0  0  0  0  0
    2.4139   -1.0616   -3.1688 O   0  0  0  0  0  0  0  0  0  0  0  0
    3.2838   -1.4870   -3.1235 H   0  0  0  0  0  0  0  0  0  0  0  0
   -0.0585    1.0849    0.3895 C   0  0  0  0  0  0  0  0  0  0  0  0
   -1.0257    1.7837    0.1110 O   0  0  0  0  0  0  0  0  0  0  0  0
    0.8634    1.5271    1.3192 N   0  0  0  0  0  0  0  0  0  0  0  0
    1.6536    0.9198    1.5237 H   0  0  0  0  0  0  0  0  0  0  0  0
    0.7801    2.8259    1.9753 C   0  0  0  0  0  0  0  0  0  0  0  0
   -0.1689    2.9242    2.5129 H   0  0  0  0  0  0  0  0  0  0  0  0
    1.5971    2.9395    2.6945 H   0  0  0  0  0  0  0  0  0  0  0  0
    0.8526    3.6323    1.2378 H   0  0  0  0  0  0  0  0  0  0  0  0
  1  2  1  0  0  0  0
  2  3  1  0  0  0  0
  2  4  1  0  0  0  0
  2  5  1  0  0  0  0
  5  6  2  0  0  0  0
  5  7  1  0  0  0  0
  7  8  1  0  0  0  0
  7  9  1  0  0  0  0
  9 10  1  0  0  0  0
  9 11  1  0  0  0  0
  9 18  1  0  0  0  0
 11 12  1  0  0  0  0
 11 13  1  0  0  0  0
 11 14  1  0  0  0  0
 14 15  2  0  0  0  0
 14 16  1  0  0  0  0
 16 17  1  0  0  0  0
 18 19  2  0  0  0  0
 18 20  1  0  0  0  0
 20 21  1  0  0  0  0
 20 22  1  0  0  0  0
 22 23  1  0  0  0  0
 22 24  1  0  0  0  0
 22 25  1  0  0  0  0
M  END
$$$$

  -OEChem-02102214113D

 25 24  0     1  0  0  0  0  0999 V2000
   -2.7382   -3.9755    0.4221 H   0  0  0  0  0  0  0  0  0  0  0  0
   -2.7707   -2.9260    0.1159 C   0  0  0  0  0  0  0  0  0  0  0  0
   -3.3883   -2.3707    0.8260 H   0  0  0  0  0  0  0  0  0  0  0  0
   -3.2223   -2.8625   -0.8770 H   0  0  0  0  0  0  0  0  0  0  0  0
   -1.3688   -2.3468    0.0847 C   0  0  0  0  0  0  0  0  0  0  0  0
   -0.4153   -3.0470    0.3819 O   0  0  0  0  0  0  0  0  0  0  0  0
   -1.1826   -1.0278   -0.2746 N   0  0  0  0  0  0  0  0  0  0  0  0
   -2.0175   -0.4625   -0.4215 H   0  0  0  0  0  0  0  0  0  0  0  0
    0.1020   -0.3128   -0.2387 C   0  0  1  0  0  0  0  0  0  0  0  0
    0.7843   -0.8619    0.4178 H   0  0  0  0  0  0  0  0  0  0  0  0
    0.6698   -0.2213   -1.6802 C   0  0  0  0  0  0  0  0  0  0  0  0
   -0.0283   -0.6917   -2.3779 H   0  0  0  0  0  0  0  0  0  0  0  0
    0.7510    0.8283   -1.9771 H   0  0  0  0  0  0  0  0  0  0  0  0
    2.0353   -0.8720   -1.9021 C   0  0  0  0  0  0  0  0  0  0  0  0
    2.6247   -1.4221   -0.9872 O   0  0  0  0  0  0  0  0  0  0  0  0
    2.5332   -0.7869   -3.1571 O   0  0  0  0  0  0  0  0  0  0  0  0
    3.3824   -1.2544   -3.1385 H   0  0  0  0  0  0  0  0  0  0  0  0
   -0.0495    1.0851    0.3892 C   0  0  0  0  0  0  0  0  0  0  0  0
   -1.0126    1.7834    0.0956 O   0  0  0  0  0  0  0  0  0  0  0  0
    0.8655    1.5363    1.3217 N   0  0  0  0  0  0  0  0  0  0  0  0
    1.6388    0.9200    1.5595 H   0  0  0  0  0  0  0  0  0  0  0  0
    0.7636    2.8311    1.9835 C   0  0  0  0  0  0  0  0  0  0  0  0
   -0.1726    2.9009    2.5472 H   0  0  0  0  0  0  0  0  0  0  0  0
    1.5970    2.9663    2.6797 H   0  0  0  0  0  0  0  0  0  0  0  0
    0.7933    3.6413    1.2473 H   0  0  0  0  0  0  0  0  0  0  0  0
  1  2  1  0  0  0  0
  2  3  1  0  0  0  0
  2  4  1  0  0  0  0
  2  5  1  0  0  0  0
  5  6  2  0  0  0  0
  5  7  1  0  0  0  0
  7  8  1  0  0  0  0
  7  9  1  0  0  0  0
  9 10  1  0  0  0  0
  9 11  1  0  0  0  0
  9 18  1  0  0  0  0
 11 12  1  0  0  0  0
 11 13  1  0  0  0  0
 11 14  1  0  0  0  0
 14 15  2  0  0  0  0
 14 16  1  0  0  0  0
 16 17  1  0  0  0  0
 18 19  2  0  0  0  0
 18 20  1  0  0  0  0
 20 21  1  0  0  0  0
 20 22  1  0  0  0  0
 22 23  1  0  0  0  0
 22 24  1  0  0  0  0
 22 25  1  0  0  0  0
M  END
$$$$

  -OEChem-02102214113D

 25 24  0     1  0  0  0  0  0999 V2000
   -2.7360   -3.9761    0.4091 H   0  0  0  0  0  0  0  0  0  0  0  0
   -2.7651   -2.9266    0.1030 C   0  0  0  0  0  0  0  0  0  0  0  0
   -3.4001   -2.3737    0.7995 H   0  0  0  0  0  0  0  0  0  0  0  0
   -3.1946   -2.8641   -0.8997 H   0  0  0  0  0  0  0  0  0  0  0  0
   -1.3645   -2.3436    0.1030 C   0  0  0  0  0  0  0  0  0  0  0  0
   -0.4188   -3.0370    0.4378 O   0  0  0  0  0  0  0  0  0  0  0  0
   -1.1736   -1.0266   -0.2615 N   0  0  0  0  0  0  0  0  0  0  0  0
   -2.0058   -0.4641   -0.4329 H   0  0  0  0  0  0  0  0  0  0  0  0
    0.1131   -0.3150   -0.2313 C   0  0  1  0  0  0  0  0  0  0  0  0
    0.8055   -0.8618    0.4170 H   0  0  0  0  0  0  0  0  0  0  0  0
    0.6682   -0.2179   -1.6776 C   0  0  0  0  0  0  0  0  0  0  0  0
   -0.0355   -0.6793   -2.3752 H   0  0  0  0  0  0  0  0  0  0  0  0
    0.7525    0.8339   -1.9668 H   0  0  0  0  0  0  0  0  0  0  0  0
    2.0294   -0.8727   -1.9104 C   0  0  0  0  0  0  0  0  0  0  0  0
    2.4975   -1.6513   -1.0982 O   0  0  0  0  0  0  0  0  0  0  0  0
    2.6593   -0.5353   -3.0590 O   0  0  0  0  0  0  0  0  0  0  0  0
    3.4856   -1.0424   -3.0669 H   0  0  0  0  0  0  0  0  0  0  0  0
   -0.0428    1.0844    0.3935 C   0  0  0  0  0  0  0  0  0  0  0  0
   -1.0026    1.7833    0.0905 O   0  0  0  0  0  0  0  0  0  0  0  0
    0.8700    1.5417    1.3254 N   0  0  0  0  0  0  0  0  0  0  0  0
    1.6308    0.9191    1.5852 H   0  0  0  0  0  0  0  0  0  0  0  0
    0.7582    2.8357    1.9874 C   0  0  0  0  0  0  0  0  0  0  0  0
   -0.1785    2.8980    2.5513 H   0  0  0  0  0  0  0  0  0  0  0  0
    1.5907    2.9777    2.6832 H   0  0  0  0  0  0  0  0  0  0  0  0
    0.7812    3.6460    1.2511 H   0  0  0  0  0  0  0  0  0  0  0  0
  1  2  1  0  0  0  0
  2  3  1  0  0  0  0
  2  4  1  0  0  0  0
  2  5  1  0  0  0  0
  5  6  2  0  0  0  0
  5  7  1  0  0  0  0
  7  8  1  0  0  0  0
  7  9  1  0  0  0  0
  9 10  1  0  0  0  0
  9 11  1  0  0  0  0
  9 18  1  0  0  0  0
 11 12  1  0  0  0  0
 11 13  1  0  0  0  0
 11 14  1  0  0  0  0
 14 15  2  0  0  0  0
 14 16  1  0  0  0  0
 16 17  1  0  0  0  0
 18 19  2  0  0  0  0
 18 20  1  0  0  0  0
 20 21  1  0  0  0  0
 20 22  1  0  0  0  0
 22 23  1  0  0  0  0
 22 24  1  0  0  0  0
 22 25  1  0  0  0  0
M  END
$$$$

  -OEChem-02102214113D

 25 24  0     1  0  0  0  0  0999 V2000
   -2.7272   -3.9836    0.3924 H   0  0  0  0  0  0  0  0  0  0  0  0
   -2.7565   -2.9337    0.0875 C   0  0  0  0  0  0  0  0  0  0  0  0
   -3.4096   -2.3860    0.7711 H   0  0  0  0  0  0  0  0  0  0  0  0
   -3.1648   -2.8724   -0.9240 H   0  0  0  0  0  0  0  0  0  0  0  0
   -1.3602   -2.3416    0.1183 C   0  0  0  0  0  0  0  0  0  0  0  0
   -0.4205   -3.0237    0.4910 O   0  0  0  0  0  0  0  0  0  0  0  0
   -1.1698   -1.0252   -0.2486 N   0  0  0  0  0  0  0  0  0  0  0  0
   -2.0006   -0.4699   -0.4467 H   0  0  0  0  0  0  0  0  0  0  0  0
    0.1169   -0.3139   -0.2284 C   0  0  1  0  0  0  0  0  0  0  0  0
    0.8224   -0.8610    0.4063 H   0  0  0  0  0  0  0  0  0  0  0  0
    0.6559   -0.2088   -1.6792 C   0  0  0  0  0  0  0  0  0  0  0  0
   -0.0514   -0.6672   -2.3753 H   0  0  0  0  0  0  0  0  0  0  0  0
    0.7400    0.8442   -1.9646 H   0  0  0  0  0  0  0  0  0  0  0  0
    2.0137   -0.8686   -1.9087 C   0  0  0  0  0  0  0  0  0  0  0  0
    2.3501   -1.8357   -1.2491 O   0  0  0  0  0  0  0  0  0  0  0  0
    2.7910   -0.3224   -2.8717 O   0  0  0  0  0  0  0  0  0  0  0  0
    3.5942   -0.8646   -2.9027 H   0  0  0  0  0  0  0  0  0  0  0  0
   -0.0395    1.0854    0.3977 C   0  0  0  0  0  0  0  0  0  0  0  0
   -0.9989    1.7848    0.0942 O   0  0  0  0  0  0  0  0  0  0  0  0
    0.8770    1.5460    1.3243 N   0  0  0  0  0  0  0  0  0  0  0  0
    1.6318    0.9199    1.5923 H   0  0  0  0  0  0  0  0  0  0  0  0
    0.7632    2.8390    1.9879 C   0  0  0  0  0  0  0  0  0  0  0  0
   -0.1698    2.8964    2.5582 H   0  0  0  0  0  0  0  0  0  0  0  0
    1.5997    2.9847    2.6779 H   0  0  0  0  0  0  0  0  0  0  0  0
    0.7771    3.6500    1.2522 H   0  0  0  0  0  0  0  0  0  0  0  0
  1  2  1  0  0  0  0
  2  3  1  0  0  0  0
  2  4  1  0  0  0  0
  2  5  1  0  0  0  0
  5  6  2  0  0  0  0
  5  7  1  0  0  0  0
  7  8  1  0  0  0  0
  7  9  1  0  0  0  0
  9 10  1  0  0  0  0
  9 11  1  0  0  0  0
  9 18  1  0  0  0  0
 11 12  1  0  0  0  0
 11 13  1  0  0  0  0
 11 14  1  0  0  0  0
 14 15  2  0  0  0  0
 14 16  1  0  0  0  0
 16 17  1  0  0  0  0
 18 19  2  0  0  0  0
 18 20  1  0  0  0  0
 20 21  1  0  0  0  0
 20 22  1  0  0  0  0
 22 23  1  0  0  0  0
 22 24  1  0  0  0  0
 22 25  1  0  0  0  0
M  END
$$$$

  -OEChem-02102214113D

 25 24  0     1  0  0  0  0  0999 V2000
   -2.7150   -3.9936    0.3849 H   0  0  0  0  0  0  0  0  0  0  0  0
   -2.7484   -2.9434    0.0816 C   0  0  0  0  0  0  0  0  0  0  0  0
   -3.4092   -2.4005    0.7618 H   0  0  0  0  0  0  0  0  0  0  0  0
   -3.1501   -2.8829   -0.9327 H   0  0  0  0  0  0  0  0  0  0  0  0
   -1.3557   -2.3432    0.1234 C   0  0  0  0  0  0  0  0  0  0  0  0
   -0.4172   -3.0149    0.5178 O   0  0  0  0  0  0  0  0  0  0  0  0
   -1.1701   -1.0256   -0.2423 N   0  0  0  0  0  0  0  0  0  0  0  0
   -2.0011   -0.4763   -0.4556 H   0  0  0  0  0  0  0  0  0  0  0  0
    0.1162   -0.3138   -0.2314 C   0  0  1  0  0  0  0  0  0  0  0  0
    0.8342   -0.8640    0.3873 H   0  0  0  0  0  0  0  0  0  0  0  0
    0.6405   -0.1951   -1.6846 C   0  0  0  0  0  0  0  0  0  0  0  0
   -0.0683   -0.6518   -2.3802 H   0  0  0  0  0  0  0  0  0  0  0  0
    0.7238    0.8592   -1.9663 H   0  0  0  0  0  0  0  0  0  0  0  0
    1.9955   -0.8594   -1.9038 C   0  0  0  0  0  0  0  0  0  0  0  0
    2.2063   -1.9688   -1.4483 O   0  0  0  0  0  0  0  0  0  0  0  0
    2.9160   -0.1557   -2.6023 O   0  0  0  0  0  0  0  0  0  0  0  0
    3.6992   -0.7247   -2.6576 H   0  0  0  0  0  0  0  0  0  0  0  0
   -0.0396    1.0834    0.4005 C   0  0  0  0  0  0  0  0  0  0  0  0
   -1.0019    1.7819    0.1043 O   0  0  0  0  0  0  0  0  0  0  0  0
    0.8819    1.5451    1.3217 N   0  0  0  0  0  0  0  0  0  0  0  0
    1.6441    0.9242    1.5799 H   0  0  0  0  0  0  0  0  0  0  0  0
    0.7713    2.8397    1.9827 C   0  0  0  0  0  0  0  0  0  0  0  0
   -0.1747    2.9117    2.5296 H   0  0  0  0  0  0  0  0  0  0  0  0
    1.5918    2.9730    2.6942 H   0  0  0  0  0  0  0  0  0  0  0  0
    0.8162    3.6498    1.2474 H   0  0  0  0  0  0  0  0  0  0  0  0
  1  2  1  0  0  0  0
  2  3  1  0  0  0  0
  2  4  1  0  0  0  0
  2  5  1  0  0  0  0
  5  6  2  0  0  0  0
  5  7  1  0  0  0  0
  7  8  1  0  0  0  0
  7  9  1  0  0  0  0
  9 10  1  0  0  0  0
  9 11  1  0  0  0  0
  9 18  1  0  0  0  0
 11 12  1  0  0  0  0
 11 13  1  0  0  0  0
 11 14  1  0  0  0  0
 14 15  2  0  0  0  0
 14 16  1  0  0  0  0
 16 17  1  0  0  0  0
 18 19  2  0  0  0  0
 18 20  1  0  0  0  0
 20 21  1  0  0  0  0
 20 22  1  0  0  0  0
 22 23  1  0  0  0  0
 22 24  1  0  0  0  0
 22 25  1  0  0  0  0
M  END
$$$$

  -OEChem-02102214113D

 25 24  0     1  0  0  0  0  0999 V2000
   -2.6966   -4.0052    0.3739 H   0  0  0  0  0  0  0  0  0  0  0  0
   -2.7380   -2.9553    0.0705 C   0  0  0  0  0  0  0  0  0  0  0  0
   -3.4095   -2.4192    0.7454 H   0  0  0  0  0  0  0  0  0  0  0  0
   -3.1318   -2.8986   -0.9471 H   0  0  0  0  0  0  0  0  0  0  0  0
   -1.3516   -2.3415    0.1238 C   0  0  0  0  0  0  0  0  0  0  0  0
   -0.4102   -3.0037    0.5279 O   0  0  0  0  0  0  0  0  0  0  0  0
   -1.1739   -1.0221   -0.2396 N   0  0  0  0  0  0  0  0  0  0  0  0
   -2.0065   -0.4785   -0.4605 H   0  0  0  0  0  0  0  0  0  0  0  0
    0.1111   -0.3088   -0.2357 C   0  0  1  0  0  0  0  0  0  0  0  0
    0.8368   -0.8621    0.3716 H   0  0  0  0  0  0  0  0  0  0  0  0
    0.6246   -0.1830   -1.6899 C   0  0  0  0  0  0  0  0  0  0  0  0
   -0.0844   -0.6406   -2.3853 H   0  0  0  0  0  0  0  0  0  0  0  0
    0.7107    0.8706   -1.9730 H   0  0  0  0  0  0  0  0  0  0  0  0
    1.9771   -0.8527   -1.8908 C   0  0  0  0  0  0  0  0  0  0  0  0
    2.0870   -2.0457   -1.6756 O   0  0  0  0  0  0  0  0  0  0  0  0
    3.0090   -0.0661   -2.2738 O   0  0  0  0  0  0  0  0  0  0  0  0
    3.7752   -0.6554   -2.3530 H   0  0  0  0  0  0  0  0  0  0  0  0
   -0.0412    1.0863    0.4018 C   0  0  0  0  0  0  0  0  0  0  0  0
   -1.0053    1.7855    0.1132 O   0  0  0  0  0  0  0  0  0  0  0  0
    0.8863    1.5466    1.3178 N   0  0  0  0  0  0  0  0  0  0  0  0
    1.6554    0.9295    1.5637 H   0  0  0  0  0  0  0  0  0  0  0  0
    0.7827    2.8424    1.9779 C   0  0  0  0  0  0  0  0  0  0  0  0
   -0.1515    2.9107    2.5453 H   0  0  0  0  0  0  0  0  0  0  0  0
    1.6182    2.9821    2.6706 H   0  0  0  0  0  0  0  0  0  0  0  0
    0.8065    3.6509    1.2396 H   0  0  0  0  0  0  0  0  0  0  0  0
  1  2  1  0  0  0  0
  2  3  1  0  0  0  0
  2  4  1  0  0  0  0
  2  5  1  0  0  0  0
  5  6  2  0  0  0  0
  5  7  1  0  0  0  0
  7  8  1  0  0  0  0
  7  9  1  0  0  0  0
  9 10  1  0  0  0  0
  9 11  1  0  0  0  0
  9 18  1  0  0  0  0
 11 12  1  0  0  0  0
 11 13  1  0  0  0  0
 11 14  1  0  0  0  0
 14 15  2  0  0  0  0
 14 16  1  0  0  0  0
 16 17  1  0  0  0  0
 18 19  2  0  0  0  0
 18 20  1  0  0  0  0
 20 21  1  0  0  0  0
 20 22  1  0  0  0  0
 22 23  1  0  0  0  0
 22 24  1  0  0  0  0
 22 25  1  0  0  0  0
M  END
$$$$

  -OEChem-02102214113D

 25 24  0     1  0  0  0  0  0999 V2000
   -2.6850   -4.0121    0.3698 H   0  0  0  0  0  0  0  0  0  0  0  0
   -2.7321   -2.9614    0.0703 C   0  0  0  0  0  0  0  0  0  0  0  0
   -3.4003   -2.4296    0.7518 H   0  0  0  0  0  0  0  0  0  0  0  0
   -3.1338   -2.9025   -0.9441 H   0  0  0  0  0  0  0  0  0  0  0  0
   -1.3474   -2.3434    0.1149 C   0  0  0  0  0  0  0  0  0  0  0  0
   -0.3984   -3.0045    0.5040 O   0  0  0  0  0  0  0  0  0  0  0  0
   -1.1765   -1.0219   -0.2437 N   0  0  0  0  0  0  0  0  0  0  0  0
   -2.0118   -0.4784   -0.4552 H   0  0  0  0  0  0  0  0  0  0  0  0
    0.1072   -0.3067   -0.2404 C   0  0  1  0  0  0  0  0  0  0  0  0
    0.8360   -0.8613    0.3620 H   0  0  0  0  0  0  0  0  0  0  0  0
    0.6186   -0.1744   -1.6928 C   0  0  0  0  0  0  0  0  0  0  0  0
   -0.0889   -0.6305   -2.3910 H   0  0  0  0  0  0  0  0  0  0  0  0
    0.7091    0.8792   -1.9743 H   0  0  0  0  0  0  0  0  0  0  0  0
    1.9704   -0.8468   -1.8769 C   0  0  0  0  0  0  0  0  0  0  0  0
    2.0219   -2.0618   -1.9300 O   0  0  0  0  0  0  0  0  0  0  0  0
    3.0625   -0.0496   -1.9243 O   0  0  0  0  0  0  0  0  0  0  0  0
    3.8185   -0.6460   -2.0416 H   0  0  0  0  0  0  0  0  0  0  0  0
   -0.0455    1.0856    0.4039 C   0  0  0  0  0  0  0  0  0  0  0  0
   -1.0148    1.7817    0.1248 O   0  0  0  0  0  0  0  0  0  0  0  0
    0.8832    1.5449    1.3192 N   0  0  0  0  0  0  0  0  0  0  0  0
    1.6684    0.9393    1.5416 H   0  0  0  0  0  0  0  0  0  0  0  0
    0.7873    2.8451    1.9717 C   0  0  0  0  0  0  0  0  0  0  0  0
   -0.1535    2.9280    2.5260 H   0  0  0  0  0  0  0  0  0  0  0  0
    1.6148    2.9775    2.6753 H   0  0  0  0  0  0  0  0  0  0  0  0
    0.8314    3.6496    1.2301 H   0  0  0  0  0  0  0  0  0  0  0  0
  1  2  1  0  0  0  0
  2  3  1  0  0  0  0
  2  4  1  0  0  0  0
  2  5  1  0  0  0  0
  5  6  2  0  0  0  0
  5  7  1  0  0  0  0
  7  8  1  0  0  0  0
  7  9  1  0  0  0  0
  9 10  1  0  0  0  0
  9 11  1  0  0  0  0
  9 18  1  0  0  0  0
 11 12  1  0  0  0  0
 11 13  1  0  0  0  0
 11 14  1  0  0  0  0
 14 15  2  0  0  0  0
 14 16  1  0  0  0  0
 16 17  1  0  0  0  0
 18 19  2  0  0  0  0
 18 20  1  0  0  0  0
 20 21  1  0  0  0  0
 20 22  1  0  0  0  0
 22 23  1  0  0  0  0
 22 24  1  0  0  0  0
 22 25  1  0  0  0  0
M  END
$$$$

  -OEChem-02102214113D

 25 24  0     1  0  0  0  0  0999 V2000
   -2.6757   -4.0173    0.3732 H   0  0  0  0  0  0  0  0  0  0  0  0
   -2.7295   -2.9671    0.0730 C   0  0  0  0  0  0  0  0  0  0  0  0
   -3.3907   -2.4367    0.7622 H   0  0  0  0  0  0  0  0  0  0  0  0
   -3.1441   -2.9104   -0.9362 H   0  0  0  0  0  0  0  0  0  0  0  0
   -1.3462   -2.3452    0.0985 C   0  0  0  0  0  0  0  0  0  0  0  0
   -0.3866   -3.0086    0.4574 O   0  0  0  0  0  0  0  0  0  0  0  0
   -1.1832   -1.0210   -0.2543 N   0  0  0  0  0  0  0  0  0  0  0  0
   -2.0226   -0.4752   -0.4428 H   0  0  0  0  0  0  0  0  0  0  0  0
    0.0984   -0.3022   -0.2484 C   0  0  1  0  0  0  0  0  0  0  0  0
    0.8257   -0.8566    0.3561 H   0  0  0  0  0  0  0  0  0  0  0  0
    0.6160   -0.1679   -1.6964 C   0  0  0  0  0  0  0  0  0  0  0  0
   -0.0872   -0.6235   -2.3995 H   0  0  0  0  0  0  0  0  0  0  0  0
    0.7129    0.8851   -1.9773 H   0  0  0  0  0  0  0  0  0  0  0  0
    1.9694   -0.8411   -1.8555 C   0  0  0  0  0  0  0  0  0  0  0  0
    2.0096   -2.0148   -2.1768 O   0  0  0  0  0  0  0  0  0  0  0  0
    3.0677   -0.1057   -1.5652 O   0  0  0  0  0  0  0  0  0  0  0  0
    3.8235   -0.6969   -1.7088 H   0  0  0  0  0  0  0  0  0  0  0  0
   -0.0515    1.0875    0.4014 C   0  0  0  0  0  0  0  0  0  0  0  0
   -1.0277    1.7799    0.1376 O   0  0  0  0  0  0  0  0  0  0  0  0
    0.8804    1.5416    1.3157 N   0  0  0  0  0  0  0  0  0  0  0  0
    1.6883    0.9529    1.4991 H   0  0  0  0  0  0  0  0  0  0  0  0
    0.7947    2.8441    1.9649 C   0  0  0  0  0  0  0  0  0  0  0  0
   -0.1427    2.9334    2.5238 H   0  0  0  0  0  0  0  0  0  0  0  0
    1.6264    2.9739    2.6641 H   0  0  0  0  0  0  0  0  0  0  0  0
    0.8390    3.6460    1.2206 H   0  0  0  0  0  0  0  0  0  0  0  0
  1  2  1  0  0  0  0
  2  3  1  0  0  0  0
  2  4  1  0  0  0  0
  2  5  1  0  0  0  0
  5  6  2  0  0  0  0
  5  7  1  0  0  0  0
  7  8  1  0  0  0  0
  7  9  1  0  0  0  0
  9 10  1  0  0  0  0
  9 11  1  0  0  0  0
  9 18  1  0  0  0  0
 11 12  1  0  0  0  0
 11 13  1  0  0  0  0
 11 14  1  0  0  0  0
 14 15  2  0  0  0  0
 14 16  1  0  0  0  0
 16 17  1  0  0  0  0
 18 19  2  0  0  0  0
 18 20  1  0  0  0  0
 20 21  1  0  0  0  0
 20 22  1  0  0  0  0
 22 23  1  0  0  0  0
 22 24  1  0  0  0  0
 22 25  1  0  0  0  0
M  END
$$$$

  -OEChem-02102214113D

 25 24  0     1  0  0  0  0  0999 V2000
   -2.6759   -4.0134    0.3893 H   0  0  0  0  0  0  0  0  0  0  0  0
   -2.7324   -2.9646    0.0847 C   0  0  0  0  0  0  0  0  0  0  0  0
   -3.3779   -2.4285    0.7846 H   0  0  0  0  0  0  0  0  0  0  0  0
   -3.1676   -2.9118   -0.9161 H   0  0  0  0  0  0  0  0  0  0  0  0
   -1.3470   -2.3468    0.0792 C   0  0  0  0  0  0  0  0  0  0  0  0
   -0.3794   -3.0165    0.4042 O   0  0  0  0  0  0  0  0  0  0  0  0
   -1.1883   -1.0209   -0.2686 N   0  0  0  0  0  0  0  0  0  0  0  0
   -2.0306   -0.4711   -0.4313 H   0  0  0  0  0  0  0  0  0  0  0  0
    0.0913   -0.2995   -0.2559 C   0  0  1  0  0  0  0  0  0  0  0  0
    0.8126   -0.8537    0.3558 H   0  0  0  0  0  0  0  0  0  0  0  0
    0.6234   -0.1677   -1.6982 C   0  0  0  0  0  0  0  0  0  0  0  0
   -0.0728   -0.6253   -2.4073 H   0  0  0  0  0  0  0  0  0  0  0  0
    0.7248    0.8845   -1.9795 H   0  0  0  0  0  0  0  0  0  0  0  0
    1.9800   -0.8401   -1.8331 C   0  0  0  0  0  0  0  0  0  0  0  0
    2.0542   -1.9130   -2.4046 O   0  0  0  0  0  0  0  0  0  0  0  0
    3.0384   -0.2216   -1.2578 O   0  0  0  0  0  0  0  0  0  0  0  0
    3.8006   -0.7964   -1.4320 H   0  0  0  0  0  0  0  0  0  0  0  0
   -0.0583    1.0882    0.3971 C   0  0  0  0  0  0  0  0  0  0  0  0
   -1.0394    1.7772    0.1432 O   0  0  0  0  0  0  0  0  0  0  0  0
    0.8740    1.5363    1.3138 N   0  0  0  0  0  0  0  0  0  0  0  0
    1.6965    0.9592    1.4680 H   0  0  0  0  0  0  0  0  0  0  0  0
    0.7946    2.8389    1.9631 C   0  0  0  0  0  0  0  0  0  0  0  0
   -0.1484    2.9378    2.5112 H   0  0  0  0  0  0  0  0  0  0  0  0
    1.6190    2.9584    2.6726 H   0  0  0  0  0  0  0  0  0  0  0  0
    0.8567    3.6411    1.2203 H   0  0  0  0  0  0  0  0  0  0  0  0
  1  2  1  0  0  0  0
  2  3  1  0  0  0  0
  2  4  1  0  0  0  0
  2  5  1  0  0  0  0
  5  6  2  0  0  0  0
  5  7  1  0  0  0  0
  7  8  1  0  0  0  0
  7  9  1  0  0  0  0
  9 10  1  0  0  0  0
  9 11  1  0  0  0  0
  9 18  1  0  0  0  0
 11 12  1  0  0  0  0
 11 13  1  0  0  0  0
 11 14  1  0  0  0  0
 14 15  2  0  0  0  0
 14 16  1  0  0  0  0
 16 17  1  0  0  0  0
 18 19  2  0  0  0  0
 18 20  1  0  0  0  0
 20 21  1  0  0  0  0
 20 22  1  0  0  0  0
 22 23  1  0  0  0  0
 22 24  1  0  0  0  0
 22 25  1  0  0  0  0
M  END
$$$$

  -OEChem-02102214113D

 25 24  0     1  0  0  0  0  0999 V2000
   -2.6854   -4.0072    0.4017 H   0  0  0  0  0  0  0  0  0  0  0  0
   -2.7415   -2.9594    0.0938 C   0  0  0  0  0  0  0  0  0  0  0  0
   -3.3746   -2.4178    0.8007 H   0  0  0  0  0  0  0  0  0  0  0  0
   -3.1903   -2.9083   -0.9010 H   0  0  0  0  0  0  0  0  0  0  0  0
   -1.3534   -2.3479    0.0674 C   0  0  0  0  0  0  0  0  0  0  0  0
   -0.3824   -3.0241    0.3686 O   0  0  0  0  0  0  0  0  0  0  0  0
   -1.1940   -1.0215   -0.2783 N   0  0  0  0  0  0  0  0  0  0  0  0
   -2.0366   -0.4675   -0.4246 H   0  0  0  0  0  0  0  0  0  0  0  0
    0.0855   -0.2997   -0.2563 C   0  0  1  0  0  0  0  0  0  0  0  0
    0.7964   -0.8547    0.3666 H   0  0  0  0  0  0  0  0  0  0  0  0
    0.6351   -0.1769   -1.6933 C   0  0  0  0  0  0  0  0  0  0  0  0
   -0.0551   -0.6378   -2.4063 H   0  0  0  0  0  0  0  0  0  0  0  0
    0.7400    0.8741   -1.9774 H   0  0  0  0  0  0  0  0  0  0  0  0
    1.9947   -0.8484   -1.8133 C   0  0  0  0  0  0  0  0  0  0  0  0
    2.1305   -1.7674   -2.6014 O   0  0  0  0  0  0  0  0  0  0  0  0
    2.9928   -0.3828   -1.0233 O   0  0  0  0  0  0  0  0  0  0  0  0
    3.7659   -0.9302   -1.2349 H   0  0  0  0  0  0  0  0  0  0  0  0
   -0.0628    1.0884    0.3954 C   0  0  0  0  0  0  0  0  0  0  0  0
   -1.0434    1.7779    0.1415 O   0  0  0  0  0  0  0  0  0  0  0  0
    0.8672    1.5319    1.3164 N   0  0  0  0  0  0  0  0  0  0  0  0
    1.6924    0.9562    1.4633 H   0  0  0  0  0  0  0  0  0  0  0  0
    0.7916    2.8353    1.9645 C   0  0  0  0  0  0  0  0  0  0  0  0
   -0.1550    2.9410    2.5049 H   0  0  0  0  0  0  0  0  0  0  0  0
    1.6110    2.9493    2.6807 H   0  0  0  0  0  0  0  0  0  0  0  0
    0.8653    3.6367    1.2221 H   0  0  0  0  0  0  0  0  0  0  0  0
  1  2  1  0  0  0  0
  2  3  1  0  0  0  0
  2  4  1  0  0  0  0
  2  5  1  0  0  0  0
  5  6  2  0  0  0  0
  5  7  1  0  0  0  0
  7  8  1  0  0  0  0
  7  9  1  0  0  0  0
  9 10  1  0  0  0  0
  9 11  1  0  0  0  0
  9 18  1  0  0  0  0
 11 12  1  0  0  0  0
 11 13  1  0  0  0  0
 11 14  1  0  0  0  0
 14 15  2  0  0  0  0
 14 16  1  0  0  0  0
 16 17  1  0  0  0  0
 18 19  2  0  0  0  0
 18 20  1  0  0  0  0
 20 21  1  0  0  0  0
 20 22  1  0  0  0  0
 22 23  1  0  0  0  0
 22 24  1  0  0  0  0
 22 25  1  0  0  0  0
M  END
$$$$

  -OEChem-02102214113D

 25 24  0     1  0  0  0  0  0999 V2000
   -2.7052   -3.9976    0.4123 H   0  0  0  0  0  0  0  0  0  0  0  0
   -2.7559   -2.9501    0.1018 C   0  0  0  0  0  0  0  0  0  0  0  0
   -3.3809   -2.4022    0.8110 H   0  0  0  0  0  0  0  0  0  0  0  0
   -3.2110   -2.8985   -0.8902 H   0  0  0  0  0  0  0  0  0  0  0  0
   -1.3640   -2.3478    0.0646 C   0  0  0  0  0  0  0  0  0  0  0  0
   -0.3944   -3.0314    0.3537 O   0  0  0  0  0  0  0  0  0  0  0  0
   -1.1986   -1.0228   -0.2832 N   0  0  0  0  0  0  0  0  0  0  0  0
   -2.0395   -0.4644   -0.4231 H   0  0  0  0  0  0  0  0  0  0  0  0
    0.0820   -0.3032   -0.2513 C   0  0  1  0  0  0  0  0  0  0  0  0
    0.7792   -0.8590    0.3854 H   0  0  0  0  0  0  0  0  0  0  0  0
    0.6483   -0.1957   -1.6843 C   0  0  0  0  0  0  0  0  0  0  0  0
   -0.0379   -0.6617   -2.3977 H   0  0  0  0  0  0  0  0  0  0  0  0
    0.7546    0.8534   -1.9745 H   0  0  0  0  0  0  0  0  0  0  0  0
    2.0105   -0.8661   -1.8026 C   0  0  0  0  0  0  0  0  0  0  0  0
    2.2213   -1.5857   -2.7630 O   0  0  0  0  0  0  0  0  0  0  0  0
    2.9452   -0.5771   -0.8632 O   0  0  0  0  0  0  0  0  0  0  0  0
    3.7319   -1.0856   -1.1173 H   0  0  0  0  0  0  0  0  0  0  0  0
   -0.0648    1.0874    0.3938 C   0  0  0  0  0  0  0  0  0  0  0  0
   -1.0412    1.7798    0.1321 O   0  0  0  0  0  0  0  0  0  0  0  0
    0.8607    1.5281    1.3205 N   0  0  0  0  0  0  0  0  0  0  0  0
    1.6791    0.9453    1.4784 H   0  0  0  0  0  0  0  0  0  0  0  0
    0.7850    2.8313    1.9688 C   0  0  0  0  0  0  0  0  0  0  0  0
   -0.1666    2.9414    2.4997 H   0  0  0  0  0  0  0  0  0  0  0  0
    1.5977    2.9408    2.6932 H   0  0  0  0  0  0  0  0  0  0  0  0
    0.8699    3.6329    1.2275 H   0  0  0  0  0  0  0  0  0  0  0  0
  1  2  1  0  0  0  0
  2  3  1  0  0  0  0
  2  4  1  0  0  0  0
  2  5  1  0  0  0  0
  5  6  2  0  0  0  0
  5  7  1  0  0  0  0
  7  8  1  0  0  0  0
  7  9  1  0  0  0  0
  9 10  1  0  0  0  0
  9 11  1  0  0  0  0
  9 18  1  0  0  0  0
 11 12  1  0  0  0  0
 11 13  1  0  0  0  0
 11 14  1  0  0  0  0
 14 15  2  0  0  0  0
 14 16  1  0  0  0  0
 16 17  1  0  0  0  0
 18 19  2  0  0  0  0
 18 20  1  0  0  0  0
 20 21  1  0  0  0  0
 20 22  1  0  0  0  0
 22 23  1  0  0  0  0
 22 24  1  0  0  0  0
 22 25  1  0  0  0  0
M  END
$$$$

  -OEChem-02102214113D

 25 24  0     1  0  0  0  0  0999 V2000
   -2.7285   -3.9854    0.4239 H   0  0  0  0  0  0  0  0  0  0  0  0
   -2.7715   -2.9391    0.1085 C   0  0  0  0  0  0  0  0  0  0  0  0
   -3.3920   -2.3833    0.8157 H   0  0  0  0  0  0  0  0  0  0  0  0
   -3.2266   -2.8884   -0.8836 H   0  0  0  0  0  0  0  0  0  0  0  0
   -1.3753   -2.3475    0.0676 C   0  0  0  0  0  0  0  0  0  0  0  0
   -0.4099   -3.0402    0.3487 O   0  0  0  0  0  0  0  0  0  0  0  0
   -1.2013   -1.0246   -0.2842 N   0  0  0  0  0  0  0  0  0  0  0  0
   -2.0396   -0.4611   -0.4198 H   0  0  0  0  0  0  0  0  0  0  0  0
    0.0820   -0.3094   -0.2435 C   0  0  1  0  0  0  0  0  0  0  0  0
    0.7648   -0.8663    0.4066 H   0  0  0  0  0  0  0  0  0  0  0  0
    0.6607   -0.2175   -1.6747 C   0  0  0  0  0  0  0  0  0  0  0  0
   -0.0258   -0.6858   -2.3865 H   0  0  0  0  0  0  0  0  0  0  0  0
    0.7663    0.8305   -1.9693 H   0  0  0  0  0  0  0  0  0  0  0  0
    2.0244   -0.8871   -1.8080 C   0  0  0  0  0  0  0  0  0  0  0  0
    2.3141   -1.3682   -2.8894 O   0  0  0  0  0  0  0  0  0  0  0  0
    2.8917   -0.8155   -0.7674 O   0  0  0  0  0  0  0  0  0  0  0  0
    3.6913   -1.2782   -1.0647 H   0  0  0  0  0  0  0  0  0  0  0  0
   -0.0634    1.0849    0.3939 C   0  0  0  0  0  0  0  0  0  0  0  0
   -1.0335    1.7811    0.1193 O   0  0  0  0  0  0  0  0  0  0  0  0
    0.8555    1.5267    1.3268 N   0  0  0  0  0  0  0  0  0  0  0  0
    1.6641    0.9358    1.5048 H   0  0  0  0  0  0  0  0  0  0  0  0
    0.7748    2.8306    1.9739 C   0  0  0  0  0  0  0  0  0  0  0  0
   -0.1857    2.9455    2.4877 H   0  0  0  0  0  0  0  0  0  0  0  0
    1.5750    2.9363    2.7129 H   0  0  0  0  0  0  0  0  0  0  0  0
    0.8767    3.6318    1.2342 H   0  0  0  0  0  0  0  0  0  0  0  0
  1  2  1  0  0  0  0
  2  3  1  0  0  0  0
  2  4  1  0  0  0  0
  2  5  1  0  0  0  0
  5  6  2  0  0  0  0
  5  7  1  0  0  0  0
  7  8  1  0  0  0  0
  7  9  1  0  0  0  0
  9 10  1  0  0  0  0
  9 11  1  0  0  0  0
  9 18  1  0  0  0  0
 11 12  1  0  0  0  0
 11 13  1  0  0  0  0
 11 14  1  0  0  0  0
 14 15  2  0  0  0  0
 14 16  1  0  0  0  0
 16 17  1  0  0  0  0
 18 19  2  0  0  0  0
 18 20  1  0  0  0  0
 20 21  1  0  0  0  0
 20 22  1  0  0  0  0
 22 23  1  0  0  0  0
 22 24  1  0  0  0  0
 22 25  1  0  0  0  0
M  END
$$$$

  -OEChem-02102214113D

 25 24  0     1  0  0  0  0  0999 V2000
   -2.7504   -3.9744    0.4291 H   0  0  0  0  0  0  0  0  0  0  0  0
   -2.7849   -2.9280    0.1131 C   0  0  0  0  0  0  0  0  0  0  0  0
   -3.4046   -2.3675    0.8172 H   0  0  0  0  0  0  0  0  0  0  0  0
   -3.2354   -2.8741   -0.8808 H   0  0  0  0  0  0  0  0  0  0  0  0
   -1.3844   -2.3460    0.0779 C   0  0  0  0  0  0  0  0  0  0  0  0
   -0.4258   -3.0446    0.3668 O   0  0  0  0  0  0  0  0  0  0  0  0
   -1.2000   -1.0263   -0.2805 N   0  0  0  0  0  0  0  0  0  0  0  0
   -2.0342   -0.4595   -0.4273 H   0  0  0  0  0  0  0  0  0  0  0  0
    0.0859   -0.3153   -0.2345 C   0  0  1  0  0  0  0  0  0  0  0  0
    0.7577   -0.8698    0.4277 H   0  0  0  0  0  0  0  0  0  0  0  0
    0.6716   -0.2344   -1.6659 C   0  0  0  0  0  0  0  0  0  0  0  0
   -0.0173   -0.7054   -2.3733 H   0  0  0  0  0  0  0  0  0  0  0  0
    0.7725    0.8130   -1.9646 H   0  0  0  0  0  0  0  0  0  0  0  0
    2.0361   -0.9011   -1.8264 C   0  0  0  0  0  0  0  0  0  0  0  0
    2.4108   -1.1177   -2.9655 O   0  0  0  0  0  0  0  0  0  0  0  0
    2.8196   -1.1000   -0.7377 O   0  0  0  0  0  0  0  0  0  0  0  0
    3.6308   -1.5143   -1.0716 H   0  0  0  0  0  0  0  0  0  0  0  0
   -0.0610    1.0832    0.3927 C   0  0  0  0  0  0  0  0  0  0  0  0
   -1.0244    1.7822    0.1023 O   0  0  0  0  0  0  0  0  0  0  0  0
    0.8515    1.5280    1.3304 N   0  0  0  0  0  0  0  0  0  0  0  0
    1.6423    0.9241    1.5405 H   0  0  0  0  0  0  0  0  0  0  0  0
    0.7643    2.8316    1.9769 C   0  0  0  0  0  0  0  0  0  0  0  0
   -0.1998    2.9452    2.4838 H   0  0  0  0  0  0  0  0  0  0  0  0
    1.5591    2.9385    2.7215 H   0  0  0  0  0  0  0  0  0  0  0  0
    0.8706    3.6329    1.2381 H   0  0  0  0  0  0  0  0  0  0  0  0
  1  2  1  0  0  0  0
  2  3  1  0  0  0  0
  2  4  1  0  0  0  0
  2  5  1  0  0  0  0
  5  6  2  0  0  0  0
  5  7  1  0  0  0  0
  7  8  1  0  0  0  0
  7  9  1  0  0  0  0
  9 10  1  0  0  0  0
  9 11  1  0  0  0  0
  9 18  1  0  0  0  0
 11 12  1  0  0  0  0
 11 13  1  0  0  0  0
 11 14  1  0  0  0  0
 14 15  2  0  0  0  0
 14 16  1  0  0  0  0
 16 17  1  0  0  0  0
 18 19  2  0  0  0  0
 18 20  1  0  0  0  0
 20 21  1  0  0  0  0
 20 22  1  0  0  0  0
 22 23  1  0  0  0  0
 22 24  1  0  0  0  0
 22 25  1  0  0  0  0
M  END
$$$$

  -OEChem-02102214113D

 25 24  0     1  0  0  0  0  0999 V2000
   -2.7826   -3.9424    0.4386 H   0  0  0  0  0  0  0  0  0  0  0  0
   -2.7906   -2.8962    0.1206 C   0  0  0  0  0  0  0  0  0  0  0  0
   -3.4223   -2.3244    0.8045 H   0  0  0  0  0  0  0  0  0  0  0  0
   -3.2095   -2.8375   -0.8868 H   0  0  0  0  0  0  0  0  0  0  0  0
   -1.3804   -2.3371    0.1276 C   0  0  0  0  0  0  0  0  0  0  0  0
   -0.4488   -3.0408    0.4821 O   0  0  0  0  0  0  0  0  0  0  0  0
   -1.1641   -1.0291   -0.2539 N   0  0  0  0  0  0  0  0  0  0  0  0
   -1.9847   -0.4548   -0.4423 H   0  0  0  0  0  0  0  0  0  0  0  0
    0.1330   -0.3384   -0.2137 C   0  0  1  0  0  0  0  0  0  0  0  0
    0.8240   -0.8734    0.4453 H   0  0  0  0  0  0  0  0  0  0  0  0
    0.6883   -0.2479   -1.6576 C   0  0  0  0  0  0  0  0  0  0  0  0
   -0.1189   -0.4161   -2.3761 H   0  0  0  0  0  0  0  0  0  0  0  0
    1.0683    0.7629   -1.8334 H   0  0  0  0  0  0  0  0  0  0  0  0
    1.8302   -1.2110   -1.9789 C   0  0  0  0  0  0  0  0  0  0  0  0
    2.2810   -1.1577   -3.1102 O   0  0  0  0  0  0  0  0  0  0  0  0
    2.3476   -2.0049   -1.0125 O   0  0  0  0  0  0  0  0  0  0  0  0
    3.0346   -2.5385   -1.4397 H   0  0  0  0  0  0  0  0  0  0  0  0
   -0.0381    1.0689    0.3913 C   0  0  0  0  0  0  0  0  0  0  0  0
   -0.9917    1.7624    0.0573 O   0  0  0  0  0  0  0  0  0  0  0  0
    0.8506    1.5416    1.3388 N   0  0  0  0  0  0  0  0  0  0  0  0
    1.6047    0.9247    1.6288 H   0  0  0  0  0  0  0  0  0  0  0  0
    0.7190    2.8457    1.9773 C   0  0  0  0  0  0  0  0  0  0  0  0
   -0.2338    2.9162    2.5126 H   0  0  0  0  0  0  0  0  0  0  0  0
    1.5305    2.9998    2.6949 H   0  0  0  0  0  0  0  0  0  0  0  0
    0.7629    3.6446    1.2295 H   0  0  0  0  0  0  0  0  0  0  0  0
  1  2  1  0  0  0  0
  2  3  1  0  0  0  0
  2  4  1  0  0  0  0
  2  5  1  0  0  0  0
  5  6  2  0  0  0  0
  5  7  1  0  0  0  0
  7  8  1  0  0  0  0
  7  9  1  0  0  0  0
  9 10  1  0  0  0  0
  9 11  1  0  0  0  0
  9 18  1  0  0  0  0
 11 12  1  0  0  0  0
 11 13  1  0  0  0  0
 11 14  1  0  0  0  0
 14 15  2  0  0  0  0
 14 16  1  0  0  0  0
 16 17  1  0  0  0  0
 18 19  2  0  0  0  0
 18 20  1  0  0  0  0
 20 21  1  0  0  0  0
 20 22  1  0  0  0  0
 22 23  1  0  0  0  0
 22 24  1  0  0  0  0
 22 25  1  0  0  0  0
M  END
$$$$

  -OEChem-02102214113D

 25 24  0     1  0  0  0  0  0999 V2000
   -2.7799   -3.9525    0.4220 H   0  0  0  0  0  0  0  0  0  0  0  0
   -2.7846   -2.9071    0.1012 C   0  0  0  0  0  0  0  0  0  0  0  0
   -3.4465   -2.3392    0.7593 H   0  0  0  0  0  0  0  0  0  0  0  0
   -3.1657   -2.8549   -0.9215 H   0  0  0  0  0  0  0  0  0  0  0  0
   -1.3804   -2.3361    0.1598 C   0  0  0  0  0  0  0  0  0  0  0  0
   -0.4647   -3.0226    0.5819 O   0  0  0  0  0  0  0  0  0  0  0  0
   -1.1595   -1.0310   -0.2297 N   0  0  0  0  0  0  0  0  0  0  0  0
   -1.9755   -0.4681   -0.4653 H   0  0  0  0  0  0  0  0  0  0  0  0
    0.1390   -0.3415   -0.2029 C   0  0  1  0  0  0  0  0  0  0  0  0
    0.8440   -0.8766    0.4422 H   0  0  0  0  0  0  0  0  0  0  0  0
    0.6813   -0.2392   -1.6513 C   0  0  0  0  0  0  0  0  0  0  0  0
   -0.1308   -0.4068   -2.3640 H   0  0  0  0  0  0  0  0  0  0  0  0
    1.0570    0.7739   -1.8259 H   0  0  0  0  0  0  0  0  0  0  0  0
    1.8192   -1.2020   -1.9842 C   0  0  0  0  0  0  0  0  0  0  0  0
    2.4537   -0.9670   -2.9981 O   0  0  0  0  0  0  0  0  0  0  0  0
    2.0920   -2.2411   -1.1630 O   0  0  0  0  0  0  0  0  0  0  0  0
    2.8128   -2.7383   -1.5771 H   0  0  0  0  0  0  0  0  0  0  0  0
   -0.0320    1.0686    0.3971 C   0  0  0  0  0  0  0  0  0  0  0  0
   -0.9826    1.7639    0.0578 O   0  0  0  0  0  0  0  0  0  0  0  0
    0.8617    1.5470    1.3373 N   0  0  0  0  0  0  0  0  0  0  0  0
    1.6102    0.9276    1.6357 H   0  0  0  0  0  0  0  0  0  0  0  0
    0.7306    2.8525    1.9731 C   0  0  0  0  0  0  0  0  0  0  0  0
   -0.2143    2.9180    2.5227 H   0  0  0  0  0  0  0  0  0  0  0  0
    1.5522    3.0146    2.6775 H   0  0  0  0  0  0  0  0  0  0  0  0
    0.7578    3.6493    1.2222 H   0  0  0  0  0  0  0  0  0  0  0  0
  1  2  1  0  0  0  0
  2  3  1  0  0  0  0
  2  4  1  0  0  0  0
  2  5  1  0  0  0  0
  5  6  2  0  0  0  0
  5  7  1  0  0  0  0
  7  8  1  0  0  0  0
  7  9  1  0  0  0  0
  9 10  1  0  0  0  0
  9 11  1  0  0  0  0
  9 18  1  0  0  0  0
 11 12  1  0  0  0  0
 11 13  1  0  0  0  0
 11 14  1  0  0  0  0
 14 15  2  0  0  0  0
 14 16  1  0  0  0  0
 16 17  1  0  0  0  0
 18 19  2  0  0  0  0
 18 20  1  0  0  0  0
 20 21  1  0  0  0  0
 20 22  1  0  0  0  0
 22 23  1  0  0  0  0
 22 24  1  0  0  0  0
 22 25  1  0  0  0  0
M  END
$$$$

  -OEChem-02102214113D

 25 24  0     1  0  0  0  0  0999 V2000
   -2.7605   -3.9719    0.3999 H   0  0  0  0  0  0  0  0  0  0  0  0
   -2.7719   -2.9252    0.0835 C   0  0  0  0  0  0  0  0  0  0  0  0
   -3.4566   -2.3690    0.7280 H   0  0  0  0  0  0  0  0  0  0  0  0
   -3.1288   -2.8735   -0.9478 H   0  0  0  0  0  0  0  0  0  0  0  0
   -1.3776   -2.3356    0.1787 C   0  0  0  0  0  0  0  0  0  0  0  0
   -0.4714   -2.9999    0.6544 O   0  0  0  0  0  0  0  0  0  0  0  0
   -1.1616   -1.0302   -0.2135 N   0  0  0  0  0  0  0  0  0  0  0  0
   -1.9752   -0.4800   -0.4841 H   0  0  0  0  0  0  0  0  0  0  0  0
    0.1373   -0.3416   -0.1991 C   0  0  1  0  0  0  0  0  0  0  0  0
    0.8539   -0.8818    0.4296 H   0  0  0  0  0  0  0  0  0  0  0  0
    0.6677   -0.2254   -1.6501 C   0  0  0  0  0  0  0  0  0  0  0  0
   -0.1469   -0.3932   -2.3594 H   0  0  0  0  0  0  0  0  0  0  0  0
    1.0400    0.7895   -1.8237 H   0  0  0  0  0  0  0  0  0  0  0  0
    1.8006   -1.1934   -1.9782 C   0  0  0  0  0  0  0  0  0  0  0  0
    2.6173   -0.8339   -2.8086 O   0  0  0  0  0  0  0  0  0  0  0  0
    1.8362   -2.4026   -1.3767 O   0  0  0  0  0  0  0  0  0  0  0  0
    2.6010   -2.8722   -1.7409 H   0  0  0  0  0  0  0  0  0  0  0  0
   -0.0305    1.0677    0.4040 C   0  0  0  0  0  0  0  0  0  0  0  0
   -0.9797    1.7663    0.0673 O   0  0  0  0  0  0  0  0  0  0  0  0
    0.8713    1.5454    1.3366 N   0  0  0  0  0  0  0  0  0  0  0  0
    1.6208    0.9252    1.6306 H   0  0  0  0  0  0  0  0  0  0  0  0
    0.7508    2.8548    1.9666 C   0  0  0  0  0  0  0  0  0  0  0  0
   -0.1979    2.9342    2.5078 H   0  0  0  0  0  0  0  0  0  0  0  0
    1.5681    3.0095    2.6775 H   0  0  0  0  0  0  0  0  0  0  0  0
    0.7936    3.6481    1.2130 H   0  0  0  0  0  0  0  0  0  0  0  0
  1  2  1  0  0  0  0
  2  3  1  0  0  0  0
  2  4  1  0  0  0  0
  2  5  1  0  0  0  0
  5  6  2  0  0  0  0
  5  7  1  0  0  0  0
  7  8  1  0  0  0  0
  7  9  1  0  0  0  0
  9 10  1  0  0  0  0
  9 11  1  0  0  0  0
  9 18  1  0  0  0  0
 11 12  1  0  0  0  0
 11 13  1  0  0  0  0
 11 14  1  0  0  0  0
 14 15  2  0  0  0  0
 14 16  1  0  0  0  0
 16 17  1  0  0  0  0
 18 19  2  0  0  0  0
 18 20  1  0  0  0  0
 20 21  1  0  0  0  0
 20 22  1  0  0  0  0
 22 23  1  0  0  0  0
 22 24  1  0  0  0  0
 22 25  1  0  0  0  0
M  END
$$$$

  -OEChem-02102214113D

 25 24  0     1  0  0  0  0  0999 V2000
   -2.7433   -3.9849    0.3879 H   0  0  0  0  0  0  0  0  0  0  0  0
   -2.7609   -2.9382    0.0718 C   0  0  0  0  0  0  0  0  0  0  0  0
   -3.4565   -2.3880    0.7100 H   0  0  0  0  0  0  0  0  0  0  0  0
   -3.1083   -2.8890   -0.9629 H   0  0  0  0  0  0  0  0  0  0  0  0
   -1.3727   -2.3364    0.1799 C   0  0  0  0  0  0  0  0  0  0  0  0
   -0.4636   -2.9908    0.6649 O   0  0  0  0  0  0  0  0  0  0  0  0
   -1.1646   -1.0289   -0.2095 N   0  0  0  0  0  0  0  0  0  0  0  0
   -1.9788   -0.4847   -0.4898 H   0  0  0  0  0  0  0  0  0  0  0  0
    0.1334   -0.3399   -0.2016 C   0  0  1  0  0  0  0  0  0  0  0  0
    0.8570   -0.8843    0.4158 H   0  0  0  0  0  0  0  0  0  0  0  0
    0.6539   -0.2151   -1.6537 C   0  0  0  0  0  0  0  0  0  0  0  0
   -0.1613   -0.3856   -2.3617 H   0  0  0  0  0  0  0  0  0  0  0  0
    1.0248    0.7999   -1.8303 H   0  0  0  0  0  0  0  0  0  0  0  0
    1.7821   -1.1907   -1.9661 C   0  0  0  0  0  0  0  0  0  0  0  0
    2.7536   -0.7615   -2.5646 O   0  0  0  0  0  0  0  0  0  0  0  0
    1.6278   -2.4903   -1.6301 O   0  0  0  0  0  0  0  0  0  0  0  0
    2.4267   -2.9509   -1.9259 H   0  0  0  0  0  0  0  0  0  0  0  0
   -0.0302    1.0671    0.4083 C   0  0  0  0  0  0  0  0  0  0  0  0
   -0.9789    1.7685    0.0762 O   0  0  0  0  0  0  0  0  0  0  0  0
    0.8775    1.5425    1.3364 N   0  0  0  0  0  0  0  0  0  0  0  0
    1.6316    0.9238    1.6212 H   0  0  0  0  0  0  0  0  0  0  0  0
    0.7668    2.8542    1.9631 C   0  0  0  0  0  0  0  0  0  0  0  0
   -0.1770    2.9388    2.5120 H   0  0  0  0  0  0  0  0  0  0  0  0
    1.5906    3.0084    2.6666 H   0  0  0  0  0  0  0  0  0  0  0  0
    0.8065    3.6446    1.2062 H   0  0  0  0  0  0  0  0  0  0  0  0
  1  2  1  0  0  0  0
  2  3  1  0  0  0  0
  2  4  1  0  0  0  0
  2  5  1  0  0  0  0
  5  6  2  0  0  0  0
  5  7  1  0  0  0  0
  7  8  1  0  0  0  0
  7  9  1  0  0  0  0
  9 10  1  0  0  0  0
  9 11  1  0  0  0  0
  9 18  1  0  0  0  0
 11 12  1  0  0  0  0
 11 13  1  0  0  0  0
 11 14  1  0  0  0  0
 14 15  2  0  0  0  0
 14 16  1  0  0  0  0
 16 17  1  0  0  0  0
 18 19  2  0  0  0  0
 18 20  1  0  0  0  0
 20 21  1  0  0  0  0
 20 22  1  0  0  0  0
 22 23  1  0  0  0  0
 22 24  1  0  0  0  0
 22 25  1  0  0  0  0
M  END
$$$$

  -OEChem-02102214113D

 25 24  0     1  0  0  0  0  0999 V2000
   -2.7310   -3.9898    0.3923 H   0  0  0  0  0  0  0  0  0  0  0  0
   -2.7581   -2.9428    0.0778 C   0  0  0  0  0  0  0  0  0  0  0  0
   -3.4407   -2.3948    0.7318 H   0  0  0  0  0  0  0  0  0  0  0  0
   -3.1288   -2.8940   -0.9488 H   0  0  0  0  0  0  0  0  0  0  0  0
   -1.3687   -2.3385    0.1555 C   0  0  0  0  0  0  0  0  0  0  0  0
   -0.4438   -2.9971    0.6047 O   0  0  0  0  0  0  0  0  0  0  0  0
   -1.1711   -1.0267   -0.2254 N   0  0  0  0  0  0  0  0  0  0  0  0
   -1.9910   -0.4785   -0.4802 H   0  0  0  0  0  0  0  0  0  0  0  0
    0.1253   -0.3354   -0.2173 C   0  0  1  0  0  0  0  0  0  0  0  0
    0.8502   -0.8826    0.3963 H   0  0  0  0  0  0  0  0  0  0  0  0
    0.6454   -0.2061   -1.6669 C   0  0  0  0  0  0  0  0  0  0  0  0
   -0.1652   -0.3787   -2.3797 H   0  0  0  0  0  0  0  0  0  0  0  0
    1.0182    0.8078   -1.8448 H   0  0  0  0  0  0  0  0  0  0  0  0
    1.7722   -1.1884   -1.9542 C   0  0  0  0  0  0  0  0  0  0  0  0
    2.8561   -0.7378   -2.2834 O   0  0  0  0  0  0  0  0  0  0  0  0
    1.4968   -2.5104   -1.8976 O   0  0  0  0  0  0  0  0  0  0  0  0
    2.3195   -2.9750   -2.1110 H   0  0  0  0  0  0  0  0  0  0  0  0
   -0.0347    1.0672    0.4036 C   0  0  0  0  0  0  0  0  0  0  0  0
   -0.9901    1.7674    0.0889 O   0  0  0  0  0  0  0  0  0  0  0  0
    0.8781    1.5354    1.3303 N   0  0  0  0  0  0  0  0  0  0  0  0
    1.6498    0.9254    1.5855 H   0  0  0  0  0  0  0  0  0  0  0  0
    0.7753    2.8446    1.9633 C   0  0  0  0  0  0  0  0  0  0  0  0
   -0.1706    2.9347    2.5079 H   0  0  0  0  0  0  0  0  0  0  0  0
    1.5966    2.9875    2.6722 H   0  0  0  0  0  0  0  0  0  0  0  0
    0.8262    3.6386    1.2108 H   0  0  0  0  0  0  0  0  0  0  0  0
  1  2  1  0  0  0  0
  2  3  1  0  0  0  0
  2  4  1  0  0  0  0
  2  5  1  0  0  0  0
  5  6  2  0  0  0  0
  5  7  1  0  0  0  0
  7  8  1  0  0  0  0
  7  9  1  0  0  0  0
  9 10  1  0  0  0  0
  9 11  1  0  0  0  0
  9 18  1  0  0  0  0
 11 12  1  0  0  0  0
 11 13  1  0  0  0  0
 11 14  1  0  0  0  0
 14 15  2  0  0  0  0
 14 16  1  0  0  0  0
 16 17  1  0  0  0  0
 18 19  2  0  0  0  0
 18 20  1  0  0  0  0
 20 21  1  0  0  0  0
 20 22  1  0  0  0  0
 22 23  1  0  0  0  0
 22 24  1  0  0  0  0
 22 25  1  0  0  0  0
M  END
$$$$

  -OEChem-02102214113D

 25 24  0     1  0  0  0  0  0999 V2000
   -2.7196   -3.9906    0.3984 H   0  0  0  0  0  0  0  0  0  0  0  0
   -2.7554   -2.9435    0.0851 C   0  0  0  0  0  0  0  0  0  0  0  0
   -3.4172   -2.3956    0.7602 H   0  0  0  0  0  0  0  0  0  0  0  0
   -3.1572   -2.8931   -0.9297 H   0  0  0  0  0  0  0  0  0  0  0  0
   -1.3641   -2.3402    0.1205 C   0  0  0  0  0  0  0  0  0  0  0  0
   -0.4205   -3.0084    0.5135 O   0  0  0  0  0  0  0  0  0  0  0  0
   -1.1786   -1.0233   -0.2483 N   0  0  0  0  0  0  0  0  0  0  0  0
   -2.0063   -0.4685   -0.4609 H   0  0  0  0  0  0  0  0  0  0  0  0
    0.1147   -0.3276   -0.2372 C   0  0  1  0  0  0  0  0  0  0  0  0
    0.8396   -0.8761    0.3754 H   0  0  0  0  0  0  0  0  0  0  0  0
    0.6355   -0.1980   -1.6840 C   0  0  0  0  0  0  0  0  0  0  0  0
   -0.1705   -0.3741   -2.4014 H   0  0  0  0  0  0  0  0  0  0  0  0
    1.0116    0.8141   -1.8647 H   0  0  0  0  0  0  0  0  0  0  0  0
    1.7629   -1.1842   -1.9463 C   0  0  0  0  0  0  0  0  0  0  0  0
    2.9035   -0.7555   -1.9921 O   0  0  0  0  0  0  0  0  0  0  0  0
    1.4367   -2.4785   -2.1630 O   0  0  0  0  0  0  0  0  0  0  0  0
    2.2706   -2.9554   -2.2878 H   0  0  0  0  0  0  0  0  0  0  0  0
   -0.0411    1.0691    0.3971 C   0  0  0  0  0  0  0  0  0  0  0  0
   -1.0043    1.7677    0.1031 O   0  0  0  0  0  0  0  0  0  0  0  0
    0.8774    1.5272    1.3232 N   0  0  0  0  0  0  0  0  0  0  0  0
    1.6651    0.9251    1.5466 H   0  0  0  0  0  0  0  0  0  0  0  0
    0.7830    2.8324    1.9657 C   0  0  0  0  0  0  0  0  0  0  0  0
   -0.1626    2.9250    2.5102 H   0  0  0  0  0  0  0  0  0  0  0  0
    1.6043    2.9642    2.6767 H   0  0  0  0  0  0  0  0  0  0  0  0
    0.8396    3.6315    1.2191 H   0  0  0  0  0  0  0  0  0  0  0  0
  1  2  1  0  0  0  0
  2  3  1  0  0  0  0
  2  4  1  0  0  0  0
  2  5  1  0  0  0  0
  5  6  2  0  0  0  0
  5  7  1  0  0  0  0
  7  8  1  0  0  0  0
  7  9  1  0  0  0  0
  9 10  1  0  0  0  0
  9 11  1  0  0  0  0
  9 18  1  0  0  0  0
 11 12  1  0  0  0  0
 11 13  1  0  0  0  0
 11 14  1  0  0  0  0
 14 15  2  0  0  0  0
 14 16  1  0  0  0  0
 16 17  1  0  0  0  0
 18 19  2  0  0  0  0
 18 20  1  0  0  0  0
 20 21  1  0  0  0  0
 20 22  1  0  0  0  0
 22 23  1  0  0  0  0
 22 24  1  0  0  0  0
 22 25  1  0  0  0  0
M  END
$$$$

  -OEChem-02102214113D

 25 24  0     1  0  0  0  0  0999 V2000
   -2.7156   -3.9895    0.4036 H   0  0  0  0  0  0  0  0  0  0  0  0
   -2.7563   -2.9417    0.0933 C   0  0  0  0  0  0  0  0  0  0  0  0
   -3.3951   -2.3921    0.7890 H   0  0  0  0  0  0  0  0  0  0  0  0
   -3.1886   -2.8877   -0.9089 H   0  0  0  0  0  0  0  0  0  0  0  0
   -1.3620   -2.3441    0.0876 C   0  0  0  0  0  0  0  0  0  0  0  0
   -0.4043   -3.0246    0.4211 O   0  0  0  0  0  0  0  0  0  0  0  0
   -1.1841   -1.0229   -0.2682 N   0  0  0  0  0  0  0  0  0  0  0  0
   -2.0174   -0.4613   -0.4365 H   0  0  0  0  0  0  0  0  0  0  0  0
    0.1061   -0.3218   -0.2521 C   0  0  1  0  0  0  0  0  0  0  0  0
    0.8305   -0.8722    0.3595 H   0  0  0  0  0  0  0  0  0  0  0  0
    0.6291   -0.1904   -1.6963 C   0  0  0  0  0  0  0  0  0  0  0  0
   -0.1732   -0.3682   -2.4177 H   0  0  0  0  0  0  0  0  0  0  0  0
    1.0068    0.8208   -1.8773 H   0  0  0  0  0  0  0  0  0  0  0  0
    1.7594   -1.1759   -1.9427 C   0  0  0  0  0  0  0  0  0  0  0  0
    2.8990   -0.8101   -1.7083 O   0  0  0  0  0  0  0  0  0  0  0  0
    1.4453   -2.3971   -2.4327 O   0  0  0  0  0  0  0  0  0  0  0  0
    2.2767   -2.8915   -2.4878 H   0  0  0  0  0  0  0  0  0  0  0  0
   -0.0475    1.0689    0.3946 C   0  0  0  0  0  0  0  0  0  0  0  0
   -1.0178    1.7647    0.1180 O   0  0  0  0  0  0  0  0  0  0  0  0
    0.8742    1.5190    1.3213 N   0  0  0  0  0  0  0  0  0  0  0  0
    1.6758    0.9252    1.5174 H   0  0  0  0  0  0  0  0  0  0  0  0
    0.7885    2.8238    1.9657 C   0  0  0  0  0  0  0  0  0  0  0  0
   -0.1570    2.9219    2.5098 H   0  0  0  0  0  0  0  0  0  0  0  0
    1.6103    2.9488    2.6774 H   0  0  0  0  0  0  0  0  0  0  0  0
    0.8509    3.6234    1.2201 H   0  0  0  0  0  0  0  0  0  0  0  0
  1  2  1  0  0  0  0
  2  3  1  0  0  0  0
  2  4  1  0  0  0  0
  2  5  1  0  0  0  0
  5  6  2  0  0  0  0
  5  7  1  0  0  0  0
  7  8  1  0  0  0  0
  7  9  1  0  0  0  0
  9 10  1  0  0  0  0
  9 11  1  0  0  0  0
  9 18  1  0  0  0  0
 11 12  1  0  0  0  0
 11 13  1  0  0  0  0
 11 14  1  0  0  0  0
 14 15  2  0  0  0  0
 14 16  1  0  0  0  0
 16 17  1  0  0  0  0
 18 19  2  0  0  0  0
 18 20  1  0  0  0  0
 20 21  1  0  0  0  0
 20 22  1  0  0  0  0
 22 23  1  0  0  0  0
 22 24  1  0  0  0  0
 22 25  1  0  0  0  0
M  END
$$$$

  -OEChem-02102214113D

 25 24  0     1  0  0  0  0  0999 V2000
   -2.7065   -3.9858    0.4206 H   0  0  0  0  0  0  0  0  0  0  0  0
   -2.7547   -2.9394    0.1064 C   0  0  0  0  0  0  0  0  0  0  0  0
   -3.3751   -2.3869    0.8162 H   0  0  0  0  0  0  0  0  0  0  0  0
   -3.2132   -2.8902   -0.8842 H   0  0  0  0  0  0  0  0  0  0  0  0
   -1.3607   -2.3428    0.0613 C   0  0  0  0  0  0  0  0  0  0  0  0
   -0.3926   -3.0314    0.3442 O   0  0  0  0  0  0  0  0  0  0  0  0
   -1.1909   -1.0184   -0.2864 N   0  0  0  0  0  0  0  0  0  0  0  0
   -2.0287   -0.4530   -0.4174 H   0  0  0  0  0  0  0  0  0  0  0  0
    0.0969   -0.3126   -0.2667 C   0  0  1  0  0  0  0  0  0  0  0  0
    0.8175   -0.8641    0.3487 H   0  0  0  0  0  0  0  0  0  0  0  0
    0.6260   -0.1865   -1.7090 C   0  0  0  0  0  0  0  0  0  0  0  0
   -0.1734   -0.3681   -2.4328 H   0  0  0  0  0  0  0  0  0  0  0  0
    1.0040    0.8236   -1.8928 H   0  0  0  0  0  0  0  0  0  0  0  0
    1.7613   -1.1686   -1.9458 C   0  0  0  0  0  0  0  0  0  0  0  0
    2.8493   -0.9111   -1.4565 O   0  0  0  0  0  0  0  0  0  0  0  0
    1.5114   -2.2682   -2.6934 O   0  0  0  0  0  0  0  0  0  0  0  0
    2.3293   -2.7877   -2.6919 H   0  0  0  0  0  0  0  0  0  0  0  0
   -0.0522    1.0747    0.3870 C   0  0  0  0  0  0  0  0  0  0  0  0
   -1.0280    1.7686    0.1260 O   0  0  0  0  0  0  0  0  0  0  0  0
    0.8742    1.5168    1.3128 N   0  0  0  0  0  0  0  0  0  0  0  0
    1.6838    0.9270    1.4880 H   0  0  0  0  0  0  0  0  0  0  0  0
    0.7900    2.8142    1.9722 C   0  0  0  0  0  0  0  0  0  0  0  0
   -0.1625    2.9140    2.5032 H   0  0  0  0  0  0  0  0  0  0  0  0
    1.6015    2.9227    2.6980 H   0  0  0  0  0  0  0  0  0  0  0  0
    0.8708    3.6225    1.2379 H   0  0  0  0  0  0  0  0  0  0  0  0
  1  2  1  0  0  0  0
  2  3  1  0  0  0  0
  2  4  1  0  0  0  0
  2  5  1  0  0  0  0
  5  6  2  0  0  0  0
  5  7  1  0  0  0  0
  7  8  1  0  0  0  0
  7  9  1  0  0  0  0
  9 10  1  0  0  0  0
  9 11  1  0  0  0  0
  9 18  1  0  0  0  0
 11 12  1  0  0  0  0
 11 13  1  0  0  0  0
 11 14  1  0  0  0  0
 14 15  2  0  0  0  0
 14 16  1  0  0  0  0
 16 17  1  0  0  0  0
 18 19  2  0  0  0  0
 18 20  1  0  0  0  0
 20 21  1  0  0  0  0
 20 22  1  0  0  0  0
 22 23  1  0  0  0  0
 22 24  1  0  0  0  0
 22 25  1  0  0  0  0
M  END
$$$$

  -OEChem-02102214113D

 25 24  0     1  0  0  0  0  0999 V2000
   -2.7081   -3.9818    0.4328 H   0  0  0  0  0  0  0  0  0  0  0  0
   -2.7562   -2.9361    0.1162 C   0  0  0  0  0  0  0  0  0  0  0  0
   -3.3665   -2.3793    0.8312 H   0  0  0  0  0  0  0  0  0  0  0  0
   -3.2254   -2.8871   -0.8693 H   0  0  0  0  0  0  0  0  0  0  0  0
   -1.3611   -2.3443    0.0540 C   0  0  0  0  0  0  0  0  0  0  0  0
   -0.3910   -3.0394    0.3119 O   0  0  0  0  0  0  0  0  0  0  0  0
   -1.1922   -1.0194   -0.2919 N   0  0  0  0  0  0  0  0  0  0  0  0
   -2.0311   -0.4523   -0.4075 H   0  0  0  0  0  0  0  0  0  0  0  0
    0.0940   -0.3096   -0.2670 C   0  0  1  0  0  0  0  0  0  0  0  0
    0.8072   -0.8610    0.3564 H   0  0  0  0  0  0  0  0  0  0  0  0
    0.6295   -0.1904   -1.7095 C   0  0  0  0  0  0  0  0  0  0  0  0
   -0.1703   -0.3757   -2.4319 H   0  0  0  0  0  0  0  0  0  0  0  0
    1.0031    0.8206   -1.8959 H   0  0  0  0  0  0  0  0  0  0  0  0
    1.7723   -1.1633   -1.9585 C   0  0  0  0  0  0  0  0  0  0  0  0
    2.7736   -1.0647   -1.2670 O   0  0  0  0  0  0  0  0  0  0  0  0
    1.6234   -2.0825   -2.9399 O   0  0  0  0  0  0  0  0  0  0  0  0
    2.4235   -2.6290   -2.9179 H   0  0  0  0  0  0  0  0  0  0  0  0
   -0.0548    1.0777    0.3856 C   0  0  0  0  0  0  0  0  0  0  0  0
   -1.0296    1.7722    0.1228 O   0  0  0  0  0  0  0  0  0  0  0  0
    0.8709    1.5180    1.3128 N   0  0  0  0  0  0  0  0  0  0  0  0
    1.6779    0.9249    1.4905 H   0  0  0  0  0  0  0  0  0  0  0  0
    0.7866    2.8135    1.9758 C   0  0  0  0  0  0  0  0  0  0  0  0
   -0.1680    2.9136    2.5031 H   0  0  0  0  0  0  0  0  0  0  0  0
    1.5952    2.9179    2.7057 H   0  0  0  0  0  0  0  0  0  0  0  0
    0.8722    3.6243    1.2446 H   0  0  0  0  0  0  0  0  0  0  0  0
  1  2  1  0  0  0  0
  2  3  1  0  0  0  0
  2  4  1  0  0  0  0
  2  5  1  0  0  0  0
  5  6  2  0  0  0  0
  5  7  1  0  0  0  0
  7  8  1  0  0  0  0
  7  9  1  0  0  0  0
  9 10  1  0  0  0  0
  9 11  1  0  0  0  0
  9 18  1  0  0  0  0
 11 12  1  0  0  0  0
 11 13  1  0  0  0  0
 11 14  1  0  0  0  0
 14 15  2  0  0  0  0
 14 16  1  0  0  0  0
 16 17  1  0  0  0  0
 18 19  2  0  0  0  0
 18 20  1  0  0  0  0
 20 21  1  0  0  0  0
 20 22  1  0  0  0  0
 22 23  1  0  0  0  0
 22 24  1  0  0  0  0
 22 25  1  0  0  0  0
M  END
$$$$

  -OEChem-02102214113D

 25 24  0     1  0  0  0  0  0999 V2000
   -2.7204   -3.9747    0.4412 H   0  0  0  0  0  0  0  0  0  0  0  0
   -2.7625   -2.9285    0.1256 C   0  0  0  0  0  0  0  0  0  0  0  0
   -3.3674   -2.3683    0.8426 H   0  0  0  0  0  0  0  0  0  0  0  0
   -3.2339   -2.8756   -0.8586 H   0  0  0  0  0  0  0  0  0  0  0  0
   -1.3634   -2.3459    0.0607 C   0  0  0  0  0  0  0  0  0  0  0  0
   -0.3980   -3.0467    0.3191 O   0  0  0  0  0  0  0  0  0  0  0  0
   -1.1872   -1.0232   -0.2895 N   0  0  0  0  0  0  0  0  0  0  0  0
   -2.0243   -0.4539   -0.4074 H   0  0  0  0  0  0  0  0  0  0  0  0
    0.0992   -0.3137   -0.2584 C   0  0  1  0  0  0  0  0  0  0  0  0
    0.8027   -0.8629    0.3768 H   0  0  0  0  0  0  0  0  0  0  0  0
    0.6435   -0.2025   -1.7009 C   0  0  0  0  0  0  0  0  0  0  0  0
   -0.1586   -0.3869   -2.4211 H   0  0  0  0  0  0  0  0  0  0  0  0
    1.0123    0.8101   -1.8866 H   0  0  0  0  0  0  0  0  0  0  0  0
    1.7931   -1.1642   -1.9782 C   0  0  0  0  0  0  0  0  0  0  0  0
    2.6853   -1.2717   -1.1518 O   0  0  0  0  0  0  0  0  0  0  0  0
    1.7709   -1.8443   -3.1477 O   0  0  0  0  0  0  0  0  0  0  0  0
    2.5516   -2.4187   -3.1359 H   0  0  0  0  0  0  0  0  0  0  0  0
   -0.0551    1.0764    0.3863 C   0  0  0  0  0  0  0  0  0  0  0  0
   -1.0258    1.7717    0.1105 O   0  0  0  0  0  0  0  0  0  0  0  0
    0.8636    1.5203    1.3185 N   0  0  0  0  0  0  0  0  0  0  0  0
    1.6595    0.9193    1.5181 H   0  0  0  0  0  0  0  0  0  0  0  0
    0.7747    2.8177    1.9769 C   0  0  0  0  0  0  0  0  0  0  0  0
   -0.1763    2.9132    2.5114 H   0  0  0  0  0  0  0  0  0  0  0  0
    1.5885    2.9316    2.6993 H   0  0  0  0  0  0  0  0  0  0  0  0
    0.8483    3.6256    1.2414 H   0  0  0  0  0  0  0  0  0  0  0  0
  1  2  1  0  0  0  0
  2  3  1  0  0  0  0
  2  4  1  0  0  0  0
  2  5  1  0  0  0  0
  5  6  2  0  0  0  0
  5  7  1  0  0  0  0
  7  8  1  0  0  0  0
  7  9  1  0  0  0  0
  9 10  1  0  0  0  0
  9 11  1  0  0  0  0
  9 18  1  0  0  0  0
 11 12  1  0  0  0  0
 11 13  1  0  0  0  0
 11 14  1  0  0  0  0
 14 15  2  0  0  0  0
 14 16  1  0  0  0  0
 16 17  1  0  0  0  0
 18 19  2  0  0  0  0
 18 20  1  0  0  0  0
 20 21  1  0  0  0  0
 20 22  1  0  0  0  0
 22 23  1  0  0  0  0
 22 24  1  0  0  0  0
 22 25  1  0  0  0  0
M  END
$$$$

  -OEChem-02102214113D

 25 24  0     1  0  0  0  0  0999 V2000
   -2.7359   -3.9655    0.4363 H   0  0  0  0  0  0  0  0  0  0  0  0
   -2.7675   -2.9168    0.1276 C   0  0  0  0  0  0  0  0  0  0  0  0
   -3.3742   -2.3568    0.8433 H   0  0  0  0  0  0  0  0  0  0  0  0
   -3.2305   -2.8541   -0.8601 H   0  0  0  0  0  0  0  0  0  0  0  0
   -1.3638   -2.3438    0.0783 C   0  0  0  0  0  0  0  0  0  0  0  0
   -0.4079   -3.0493    0.3559 O   0  0  0  0  0  0  0  0  0  0  0  0
   -1.1752   -1.0256   -0.2817 N   0  0  0  0  0  0  0  0  0  0  0  0
   -2.0082   -0.4527   -0.4110 H   0  0  0  0  0  0  0  0  0  0  0  0
    0.1140   -0.3203   -0.2474 C   0  0  1  0  0  0  0  0  0  0  0  0
    0.8105   -0.8646    0.3992 H   0  0  0  0  0  0  0  0  0  0  0  0
    0.6624   -0.2181   -1.6923 C   0  0  0  0  0  0  0  0  0  0  0  0
   -0.1440   -0.3986   -2.4085 H   0  0  0  0  0  0  0  0  0  0  0  0
    1.0293    0.7954   -1.8779 H   0  0  0  0  0  0  0  0  0  0  0  0
    1.8132   -1.1729   -2.0009 C   0  0  0  0  0  0  0  0  0  0  0  0
    2.5774   -1.5122   -1.1122 O   0  0  0  0  0  0  0  0  0  0  0  0
    1.9328   -1.5880   -3.2829 O   0  0  0  0  0  0  0  0  0  0  0  0
    2.6873   -2.1966   -3.2937 H   0  0  0  0  0  0  0  0  0  0  0  0
   -0.0457    1.0754    0.3842 C   0  0  0  0  0  0  0  0  0  0  0  0
   -1.0120    1.7694    0.0899 O   0  0  0  0  0  0  0  0  0  0  0  0
    0.8632    1.5294    1.3213 N   0  0  0  0  0  0  0  0  0  0  0  0
    1.6434    0.9204    1.5552 H   0  0  0  0  0  0  0  0  0  0  0  0
    0.7535    2.8240    1.9822 C   0  0  0  0  0  0  0  0  0  0  0  0
   -0.1857    2.8906    2.5413 H   0  0  0  0  0  0  0  0  0  0  0  0
    1.5829    2.9631    2.6825 H   0  0  0  0  0  0  0  0  0  0  0  0
    0.7834    3.6337    1.2456 H   0  0  0  0  0  0  0  0  0  0  0  0
  1  2  1  0  0  0  0
  2  3  1  0  0  0  0
  2  4  1  0  0  0  0
  2  5  1  0  0  0  0
  5  6  2  0  0  0  0
  5  7  1  0  0  0  0
  7  8  1  0  0  0  0
  7  9  1  0  0  0  0
  9 10  1  0  0  0  0
  9 11  1  0  0  0  0
  9 18  1  0  0  0  0
 11 12  1  0  0  0  0
 11 13  1  0  0  0  0
 11 14  1  0  0  0  0
 14 15  2  0  0  0  0
 14 16  1  0  0  0  0
 16 17  1  0  0  0  0
 18 19  2  0  0  0  0
 18 20  1  0  0  0  0
 20 21  1  0  0  0  0
 20 22  1  0  0  0  0
 22 23  1  0  0  0  0
 22 24  1  0  0  0  0
 22 25  1  0  0  0  0
M  END
$$$$

  -OEChem-02102214113D

 25 24  0     1  0  0  0  0  0999 V2000
   -2.7535   -3.9582    0.4344 H   0  0  0  0  0  0  0  0  0  0  0  0
   -2.7728   -2.9105    0.1217 C   0  0  0  0  0  0  0  0  0  0  0  0
   -3.3935   -2.3451    0.8209 H   0  0  0  0  0  0  0  0  0  0  0  0
   -3.2118   -2.8490   -0.8769 H   0  0  0  0  0  0  0  0  0  0  0  0
   -1.3654   -2.3442    0.1041 C   0  0  0  0  0  0  0  0  0  0  0  0
   -0.4231   -3.0469    0.4293 O   0  0  0  0  0  0  0  0  0  0  0  0
   -1.1632   -1.0309   -0.2668 N   0  0  0  0  0  0  0  0  0  0  0  0
   -1.9907   -0.4593   -0.4307 H   0  0  0  0  0  0  0  0  0  0  0  0
    0.1291   -0.3306   -0.2331 C   0  0  1  0  0  0  0  0  0  0  0  0
    0.8263   -0.8695    0.4169 H   0  0  0  0  0  0  0  0  0  0  0  0
    0.6759   -0.2283   -1.6803 C   0  0  0  0  0  0  0  0  0  0  0  0
   -0.1351   -0.4002   -2.3935 H   0  0  0  0  0  0  0  0  0  0  0  0
    1.0436    0.7858   -1.8600 H   0  0  0  0  0  0  0  0  0  0  0  0
    1.8244   -1.1772   -2.0199 C   0  0  0  0  0  0  0  0  0  0  0  0
    2.4400   -1.7497   -1.1368 O   0  0  0  0  0  0  0  0  0  0  0  0
    2.1106   -1.3200   -3.3344 O   0  0  0  0  0  0  0  0  0  0  0  0
    2.8399   -1.9573   -3.3779 H   0  0  0  0  0  0  0  0  0  0  0  0
   -0.0371    1.0705    0.3858 C   0  0  0  0  0  0  0  0  0  0  0  0
   -0.9963    1.7652    0.0707 O   0  0  0  0  0  0  0  0  0  0  0  0
    0.8640    1.5343    1.3258 N   0  0  0  0  0  0  0  0  0  0  0  0
    1.6268    0.9170    1.5924 H   0  0  0  0  0  0  0  0  0  0  0  0
    0.7406    2.8299    1.9826 C   0  0  0  0  0  0  0  0  0  0  0  0
   -0.1910    2.8814    2.5558 H   0  0  0  0  0  0  0  0  0  0  0  0
    1.5783    2.9877    2.6686 H   0  0  0  0  0  0  0  0  0  0  0  0
    0.7438    3.6373    1.2427 H   0  0  0  0  0  0  0  0  0  0  0  0
  1  2  1  0  0  0  0
  2  3  1  0  0  0  0
  2  4  1  0  0  0  0
  2  5  1  0  0  0  0
  5  6  2  0  0  0  0
  5  7  1  0  0  0  0
  7  8  1  0  0  0  0
  7  9  1  0  0  0  0
  9 10  1  0  0  0  0
  9 11  1  0  0  0  0
  9 18  1  0  0  0  0
 11 12  1  0  0  0  0
 11 13  1  0  0  0  0
 11 14  1  0  0  0  0
 14 15  2  0  0  0  0
 14 16  1  0  0  0  0
 16 17  1  0  0  0  0
 18 19  2  0  0  0  0
 18 20  1  0  0  0  0
 20 21  1  0  0  0  0
 20 22  1  0  0  0  0
 22 23  1  0  0  0  0
 22 24  1  0  0  0  0
 22 25  1  0  0  0  0
M  END
$$$$

  -OEChem-02102214113D

 25 24  0     1  0  0  0  0  0999 V2000
   -2.7524   -3.9642    0.4125 H   0  0  0  0  0  0  0  0  0  0  0  0
   -2.7668   -2.9163    0.0999 C   0  0  0  0  0  0  0  0  0  0  0  0
   -3.4153   -2.3549    0.7767 H   0  0  0  0  0  0  0  0  0  0  0  0
   -3.1700   -2.8568   -0.9139 H   0  0  0  0  0  0  0  0  0  0  0  0
   -1.3630   -2.3421    0.1324 C   0  0  0  0  0  0  0  0  0  0  0  0
   -0.4332   -3.0331    0.5132 O   0  0  0  0  0  0  0  0  0  0  0  0
   -1.1542   -1.0319   -0.2455 N   0  0  0  0  0  0  0  0  0  0  0  0
   -1.9777   -0.4661   -0.4455 H   0  0  0  0  0  0  0  0  0  0  0  0
    0.1401   -0.3350   -0.2180 C   0  0  1  0  0  0  0  0  0  0  0  0
    0.8455   -0.8716    0.4255 H   0  0  0  0  0  0  0  0  0  0  0  0
    0.6758   -0.2285   -1.6700 C   0  0  0  0  0  0  0  0  0  0  0  0
   -0.1399   -0.3919   -2.3792 H   0  0  0  0  0  0  0  0  0  0  0  0
    1.0455    0.7861   -1.8446 H   0  0  0  0  0  0  0  0  0  0  0  0
    1.8189   -1.1764   -2.0302 C   0  0  0  0  0  0  0  0  0  0  0  0
    2.2671   -1.9583   -1.2104 O   0  0  0  0  0  0  0  0  0  0  0  0
    2.2854   -1.0849   -3.2966 O   0  0  0  0  0  0  0  0  0  0  0  0
    2.9817   -1.7555   -3.3699 H   0  0  0  0  0  0  0  0  0  0  0  0
   -0.0305    1.0687    0.3953 C   0  0  0  0  0  0  0  0  0  0  0  0
   -0.9858    1.7640    0.0694 O   0  0  0  0  0  0  0  0  0  0  0  0
    0.8684    1.5397    1.3340 N   0  0  0  0  0  0  0  0  0  0  0  0
    1.6219    0.9194    1.6186 H   0  0  0  0  0  0  0  0  0  0  0  0
    0.7402    2.8392    1.9824 C   0  0  0  0  0  0  0  0  0  0  0  0
   -0.2016    2.8992    2.5380 H   0  0  0  0  0  0  0  0  0  0  0  0
    1.5658    2.9962    2.6834 H   0  0  0  0  0  0  0  0  0  0  0  0
    0.7620    3.6421    1.2380 H   0  0  0  0  0  0  0  0  0  0  0  0
  1  2  1  0  0  0  0
  2  3  1  0  0  0  0
  2  4  1  0  0  0  0
  2  5  1  0  0  0  0
  5  6  2  0  0  0  0
  5  7  1  0  0  0  0
  7  8  1  0  0  0  0
  7  9  1  0  0  0  0
  9 10  1  0  0  0  0
  9 11  1  0  0  0  0
  9 18  1  0  0  0  0
 11 12  1  0  0  0  0
 11 13  1  0  0  0  0
 11 14  1  0  0  0  0
 14 15  2  0  0  0  0
 14 16  1  0  0  0  0
 16 17  1  0  0  0  0
 18 19  2  0  0  0  0
 18 20  1  0  0  0  0
 20 21  1  0  0  0  0
 20 22  1  0  0  0  0
 22 23  1  0  0  0  0
 22 24  1  0  0  0  0
 22 25  1  0  0  0  0
M  END
$$$$

  -OEChem-02102214113D

 25 24  0     1  0  0  0  0  0999 V2000
   -2.7452   -3.9752    0.3927 H   0  0  0  0  0  0  0  0  0  0  0  0
   -2.7598   -2.9269    0.0813 C   0  0  0  0  0  0  0  0  0  0  0  0
   -3.4334   -2.3727    0.7392 H   0  0  0  0  0  0  0  0  0  0  0  0
   -3.1333   -2.8701   -0.9439 H   0  0  0  0  0  0  0  0  0  0  0  0
   -1.3626   -2.3403    0.1566 C   0  0  0  0  0  0  0  0  0  0  0  0
   -0.4459   -3.0139    0.5958 O   0  0  0  0  0  0  0  0  0  0  0  0
   -1.1516   -1.0320   -0.2275 N   0  0  0  0  0  0  0  0  0  0  0  0
   -1.9704   -0.4773   -0.4717 H   0  0  0  0  0  0  0  0  0  0  0  0
    0.1438   -0.3369   -0.2087 C   0  0  1  0  0  0  0  0  0  0  0  0
    0.8596   -0.8742    0.4234 H   0  0  0  0  0  0  0  0  0  0  0  0
    0.6678   -0.2216   -1.6642 C   0  0  0  0  0  0  0  0  0  0  0  0
   -0.1519   -0.3771   -2.3706 H   0  0  0  0  0  0  0  0  0  0  0  0
    1.0395    0.7934   -1.8329 H   0  0  0  0  0  0  0  0  0  0  0  0
    1.8060   -1.1706   -2.0335 C   0  0  0  0  0  0  0  0  0  0  0  0
    2.0737   -2.1273   -1.3294 O   0  0  0  0  0  0  0  0  0  0  0  0
    2.4743   -0.8810   -3.1734 O   0  0  0  0  0  0  0  0  0  0  0  0
    3.1415   -1.5776   -3.2721 H   0  0  0  0  0  0  0  0  0  0  0  0
   -0.0261    1.0689    0.4010 C   0  0  0  0  0  0  0  0  0  0  0  0
   -0.9737    1.7695    0.0639 O   0  0  0  0  0  0  0  0  0  0  0  0
    0.8758    1.5431    1.3353 N   0  0  0  0  0  0  0  0  0  0  0  0
    1.6175    0.9159    1.6350 H   0  0  0  0  0  0  0  0  0  0  0  0
    0.7476    2.8439    1.9813 C   0  0  0  0  0  0  0  0  0  0  0  0
   -0.1980    2.9079    2.5302 H   0  0  0  0  0  0  0  0  0  0  0  0
    1.5687    2.9978    2.6882 H   0  0  0  0  0  0  0  0  0  0  0  0
    0.7781    3.6464    1.2368 H   0  0  0  0  0  0  0  0  0  0  0  0
  1  2  1  0  0  0  0
  2  3  1  0  0  0  0
  2  4  1  0  0  0  0
  2  5  1  0  0  0  0
  5  6  2  0  0  0  0
  5  7  1  0  0  0  0
  7  8  1  0  0  0  0
  7  9  1  0  0  0  0
  9 10  1  0  0  0  0
  9 11  1  0  0  0  0
  9 18  1  0  0  0  0
 11 12  1  0  0  0  0
 11 13  1  0  0  0  0
 11 14  1  0  0  0  0
 14 15  2  0  0  0  0
 14 16  1  0  0  0  0
 16 17  1  0  0  0  0
 18 19  2  0  0  0  0
 18 20  1  0  0  0  0
 20 21  1  0  0  0  0
 20 22  1  0  0  0  0
 22 23  1  0  0  0  0
 22 24  1  0  0  0  0
 22 25  1  0  0  0  0
M  END
$$$$

  -OEChem-02102214113D

 25 24  0     1  0  0  0  0  0999 V2000
   -2.7272   -3.9892    0.3710 H   0  0  0  0  0  0  0  0  0  0  0  0
   -2.7469   -2.9406    0.0611 C   0  0  0  0  0  0  0  0  0  0  0  0
   -3.4439   -2.3956    0.7022 H   0  0  0  0  0  0  0  0  0  0  0  0
   -3.0942   -2.8861   -0.9733 H   0  0  0  0  0  0  0  0  0  0  0  0
   -1.3596   -2.3370    0.1731 C   0  0  0  0  0  0  0  0  0  0  0  0
   -0.4512   -2.9914    0.6571 O   0  0  0  0  0  0  0  0  0  0  0  0
   -1.1533   -1.0285   -0.2135 N   0  0  0  0  0  0  0  0  0  0  0  0
   -1.9692   -0.4870   -0.4937 H   0  0  0  0  0  0  0  0  0  0  0  0
    0.1421   -0.3337   -0.2047 C   0  0  1  0  0  0  0  0  0  0  0  0
    0.8681   -0.8746    0.4130 H   0  0  0  0  0  0  0  0  0  0  0  0
    0.6527   -0.2090   -1.6630 C   0  0  0  0  0  0  0  0  0  0  0  0
   -0.1698   -0.3623   -2.3663 H   0  0  0  0  0  0  0  0  0  0  0  0
    1.0248    0.8065   -1.8300 H   0  0  0  0  0  0  0  0  0  0  0  0
    1.7860   -1.1634   -2.0284 C   0  0  0  0  0  0  0  0  0  0  0  0
    1.8731   -2.2499   -1.4867 O   0  0  0  0  0  0  0  0  0  0  0  0
    2.6574   -0.7325   -2.9692 O   0  0  0  0  0  0  0  0  0  0  0  0
    3.2932   -1.4547   -3.0906 H   0  0  0  0  0  0  0  0  0  0  0  0
   -0.0245    1.0720    0.4068 C   0  0  0  0  0  0  0  0  0  0  0  0
   -0.9699    1.7759    0.0705 O   0  0  0  0  0  0  0  0  0  0  0  0
    0.8838    1.5468    1.3346 N   0  0  0  0  0  0  0  0  0  0  0  0
    1.6210    0.9161    1.6377 H   0  0  0  0  0  0  0  0  0  0  0  0
    0.7591    2.8475    1.9812 C   0  0  0  0  0  0  0  0  0  0  0  0
   -0.1843    2.9118    2.5336 H   0  0  0  0  0  0  0  0  0  0  0  0
    1.5829    3.0010    2.6848 H   0  0  0  0  0  0  0  0  0  0  0  0
    0.7869    3.6500    1.2367 H   0  0  0  0  0  0  0  0  0  0  0  0
  1  2  1  0  0  0  0
  2  3  1  0  0  0  0
  2  4  1  0  0  0  0
  2  5  1  0  0  0  0
  5  6  2  0  0  0  0
  5  7  1  0  0  0  0
  7  8  1  0  0  0  0
  7  9  1  0  0  0  0
  9 10  1  0  0  0  0
  9 11  1  0  0  0  0
  9 18  1  0  0  0  0
 11 12  1  0  0  0  0
 11 13  1  0  0  0  0
 11 14  1  0  0  0  0
 14 15  2  0  0  0  0
 14 16  1  0  0  0  0
 16 17  1  0  0  0  0
 18 19  2  0  0  0  0
 18 20  1  0  0  0  0
 20 21  1  0  0  0  0
 20 22  1  0  0  0  0
 22 23  1  0  0  0  0
 22 24  1  0  0  0  0
 22 25  1  0  0  0  0
M  END
$$$$

  -OEChem-02102214113D

 25 24  0     1  0  0  0  0  0999 V2000
   -2.7069   -4.0008    0.3617 H   0  0  0  0  0  0  0  0  0  0  0  0
   -2.7348   -2.9519    0.0537 C   0  0  0  0  0  0  0  0  0  0  0  0
   -3.4395   -2.4144    0.6926 H   0  0  0  0  0  0  0  0  0  0  0  0
   -3.0779   -2.8989   -0.9822 H   0  0  0  0  0  0  0  0  0  0  0  0
   -1.3538   -2.3355    0.1734 C   0  0  0  0  0  0  0  0  0  0  0  0
   -0.4432   -2.9786    0.6693 O   0  0  0  0  0  0  0  0  0  0  0  0
   -1.1568   -1.0248   -0.2108 N   0  0  0  0  0  0  0  0  0  0  0  0
   -1.9734   -0.4910   -0.5030 H   0  0  0  0  0  0  0  0  0  0  0  0
    0.1377   -0.3288   -0.2089 C   0  0  1  0  0  0  0  0  0  0  0  0
    0.8714   -0.8731    0.3968 H   0  0  0  0  0  0  0  0  0  0  0  0
    0.6389   -0.1938   -1.6681 C   0  0  0  0  0  0  0  0  0  0  0  0
   -0.1845   -0.3470   -2.3706 H   0  0  0  0  0  0  0  0  0  0  0  0
    1.0106    0.8219   -1.8350 H   0  0  0  0  0  0  0  0  0  0  0  0
    1.7688   -1.1542   -2.0205 C   0  0  0  0  0  0  0  0  0  0  0  0
    1.6929   -2.3218   -1.6858 O   0  0  0  0  0  0  0  0  0  0  0  0
    2.8246   -0.6409   -2.6929 O   0  0  0  0  0  0  0  0  0  0  0  0
    3.4325   -1.3831   -2.8347 H   0  0  0  0  0  0  0  0  0  0  0  0
   -0.0273    1.0742    0.4096 C   0  0  0  0  0  0  0  0  0  0  0  0
   -0.9735    1.7799    0.0791 O   0  0  0  0  0  0  0  0  0  0  0  0
    0.8865    1.5470    1.3330 N   0  0  0  0  0  0  0  0  0  0  0  0
    1.6276    0.9174    1.6282 H   0  0  0  0  0  0  0  0  0  0  0  0
    0.7672    2.8481    1.9798 C   0  0  0  0  0  0  0  0  0  0  0  0
   -0.1784    2.9180    2.5278 H   0  0  0  0  0  0  0  0  0  0  0  0
    1.5888    2.9961    2.6874 H   0  0  0  0  0  0  0  0  0  0  0  0
    0.8031    3.6507    1.2356 H   0  0  0  0  0  0  0  0  0  0  0  0
  1  2  1  0  0  0  0
  2  3  1  0  0  0  0
  2  4  1  0  0  0  0
  2  5  1  0  0  0  0
  5  6  2  0  0  0  0
  5  7  1  0  0  0  0
  7  8  1  0  0  0  0
  7  9  1  0  0  0  0
  9 10  1  0  0  0  0
  9 11  1  0  0  0  0
  9 18  1  0  0  0  0
 11 12  1  0  0  0  0
 11 13  1  0  0  0  0
 11 14  1  0  0  0  0
 14 15  2  0  0  0  0
 14 16  1  0  0  0  0
 16 17  1  0  0  0  0
 18 19  2  0  0  0  0
 18 20  1  0  0  0  0
 20 21  1  0  0  0  0
 20 22  1  0  0  0  0
 22 23  1  0  0  0  0
 22 24  1  0  0  0  0
 22 25  1  0  0  0  0
M  END
$$$$

  -OEChem-02102214113D

 25 24  0     1  0  0  0  0  0999 V2000
   -2.6851   -4.0108    0.3551 H   0  0  0  0  0  0  0  0  0  0  0  0
   -2.7229   -2.9620    0.0474 C   0  0  0  0  0  0  0  0  0  0  0  0
   -3.4322   -2.4310    0.6869 H   0  0  0  0  0  0  0  0  0  0  0  0
   -3.0670   -2.9121   -0.9884 H   0  0  0  0  0  0  0  0  0  0  0  0
   -1.3474   -2.3335    0.1653 C   0  0  0  0  0  0  0  0  0  0  0  0
   -0.4268   -2.9716    0.6501 O   0  0  0  0  0  0  0  0  0  0  0  0
   -1.1616   -1.0197   -0.2141 N   0  0  0  0  0  0  0  0  0  0  0  0
   -1.9820   -0.4900   -0.5030 H   0  0  0  0  0  0  0  0  0  0  0  0
    0.1304   -0.3204   -0.2162 C   0  0  1  0  0  0  0  0  0  0  0  0
    0.8683   -0.8658    0.3834 H   0  0  0  0  0  0  0  0  0  0  0  0
    0.6260   -0.1818   -1.6745 C   0  0  0  0  0  0  0  0  0  0  0  0
   -0.1959   -0.3421   -2.3772 H   0  0  0  0  0  0  0  0  0  0  0  0
    0.9966    0.8332   -1.8473 H   0  0  0  0  0  0  0  0  0  0  0  0
    1.7548   -1.1484   -2.0052 C   0  0  0  0  0  0  0  0  0  0  0  0
    1.5563   -2.3456   -1.9091 O   0  0  0  0  0  0  0  0  0  0  0  0
    2.9455   -0.6162   -2.3651 O   0  0  0  0  0  0  0  0  0  0  0  0
    3.5319   -1.3713   -2.5288 H   0  0  0  0  0  0  0  0  0  0  0  0
   -0.0311    1.0799    0.4099 C   0  0  0  0  0  0  0  0  0  0  0  0
   -0.9823    1.7847    0.0922 O   0  0  0  0  0  0  0  0  0  0  0  0
    0.8883    1.5500    1.3292 N   0  0  0  0  0  0  0  0  0  0  0  0
    1.6416    0.9262    1.6054 H   0  0  0  0  0  0  0  0  0  0  0  0
    0.7747    2.8501    1.9794 C   0  0  0  0  0  0  0  0  0  0  0  0
   -0.1660    2.9194    2.5358 H   0  0  0  0  0  0  0  0  0  0  0  0
    1.6021    2.9964    2.6802 H   0  0  0  0  0  0  0  0  0  0  0  0
    0.8051    3.6540    1.2363 H   0  0  0  0  0  0  0  0  0  0  0  0
  1  2  1  0  0  0  0
  2  3  1  0  0  0  0
  2  4  1  0  0  0  0
  2  5  1  0  0  0  0
  5  6  2  0  0  0  0
  5  7  1  0  0  0  0
  7  8  1  0  0  0  0
  7  9  1  0  0  0  0
  9 10  1  0  0  0  0
  9 11  1  0  0  0  0
  9 18  1  0  0  0  0
 11 12  1  0  0  0  0
 11 13  1  0  0  0  0
 11 14  1  0  0  0  0
 14 15  2  0  0  0  0
 14 16  1  0  0  0  0
 16 17  1  0  0  0  0
 18 19  2  0  0  0  0
 18 20  1  0  0  0  0
 20 21  1  0  0  0  0
 20 22  1  0  0  0  0
 22 23  1  0  0  0  0
 22 24  1  0  0  0  0
 22 25  1  0  0  0  0
M  END
$$$$

  -OEChem-02102214113D

 25 24  0     1  0  0  0  0  0999 V2000
   -2.6724   -4.0131    0.3606 H   0  0  0  0  0  0  0  0  0  0  0  0
   -2.7168   -2.9646    0.0532 C   0  0  0  0  0  0  0  0  0  0  0  0
   -3.4139   -2.4343    0.7063 H   0  0  0  0  0  0  0  0  0  0  0  0
   -3.0808   -2.9154   -0.9758 H   0  0  0  0  0  0  0  0  0  0  0  0
   -1.3398   -2.3348    0.1451 C   0  0  0  0  0  0  0  0  0  0  0  0
   -0.4045   -2.9774    0.5954 O   0  0  0  0  0  0  0  0  0  0  0  0
   -1.1634   -1.0177   -0.2271 N   0  0  0  0  0  0  0  0  0  0  0  0
   -1.9895   -0.4849   -0.4934 H   0  0  0  0  0  0  0  0  0  0  0  0
    0.1259   -0.3141   -0.2269 C   0  0  1  0  0  0  0  0  0  0  0  0
    0.8645   -0.8592    0.3719 H   0  0  0  0  0  0  0  0  0  0  0  0
    0.6217   -0.1725   -1.6825 C   0  0  0  0  0  0  0  0  0  0  0  0
   -0.1974   -0.3363   -2.3882 H   0  0  0  0  0  0  0  0  0  0  0  0
    0.9949    0.8411   -1.8578 H   0  0  0  0  0  0  0  0  0  0  0  0
    1.7512   -1.1433   -1.9891 C   0  0  0  0  0  0  0  0  0  0  0  0
    1.4848   -2.3200   -2.1539 O   0  0  0  0  0  0  0  0  0  0  0  0
    3.0113   -0.6508   -2.0137 O   0  0  0  0  0  0  0  0  0  0  0  0
    3.5849   -1.4099   -2.2026 H   0  0  0  0  0  0  0  0  0  0  0  0
   -0.0362    1.0822    0.4071 C   0  0  0  0  0  0  0  0  0  0  0  0
   -0.9935    1.7838    0.1009 O   0  0  0  0  0  0  0  0  0  0  0  0
    0.8844    1.5490    1.3267 N   0  0  0  0  0  0  0  0  0  0  0  0
    1.6535    0.9349    1.5800 H   0  0  0  0  0  0  0  0  0  0  0  0
    0.7753    2.8492    1.9772 C   0  0  0  0  0  0  0  0  0  0  0  0
   -0.1657    2.9220    2.5327 H   0  0  0  0  0  0  0  0  0  0  0  0
    1.6025    2.9920    2.6791 H   0  0  0  0  0  0  0  0  0  0  0  0
    0.8092    3.6535    1.2347 H   0  0  0  0  0  0  0  0  0  0  0  0
  1  2  1  0  0  0  0
  2  3  1  0  0  0  0
  2  4  1  0  0  0  0
  2  5  1  0  0  0  0
  5  6  2  0  0  0  0
  5  7  1  0  0  0  0
  7  8  1  0  0  0  0
  7  9  1  0  0  0  0
  9 10  1  0  0  0  0
  9 11  1  0  0  0  0
  9 18  1  0  0  0  0
 11 12  1  0  0  0  0
 11 13  1  0  0  0  0
 11 14  1  0  0  0  0
 14 15  2  0  0  0  0
 14 16  1  0  0  0  0
 16 17  1  0  0  0  0
 18 19  2  0  0  0  0
 18 20  1  0  0  0  0
 20 21  1  0  0  0  0
 20 22  1  0  0  0  0
 22 23  1  0  0  0  0
 22 24  1  0  0  0  0
 22 25  1  0  0  0  0
M  END
$$$$

  -OEChem-02102214113D

 25 24  0     1  0  0  0  0  0999 V2000
   -2.6690   -4.0101    0.3704 H   0  0  0  0  0  0  0  0  0  0  0  0
   -2.7165   -2.9611    0.0649 C   0  0  0  0  0  0  0  0  0  0  0  0
   -3.3951   -2.4283    0.7354 H   0  0  0  0  0  0  0  0  0  0  0  0
   -3.1058   -2.9089   -0.9548 H   0  0  0  0  0  0  0  0  0  0  0  0
   -1.3352   -2.3369    0.1227 C   0  0  0  0  0  0  0  0  0  0  0  0
   -0.3863   -2.9891    0.5293 O   0  0  0  0  0  0  0  0  0  0  0  0
   -1.1646   -1.0173   -0.2431 N   0  0  0  0  0  0  0  0  0  0  0  0
   -1.9965   -0.4776   -0.4762 H   0  0  0  0  0  0  0  0  0  0  0  0
    0.1216   -0.3089   -0.2370 C   0  0  1  0  0  0  0  0  0  0  0  0
    0.8577   -0.8526    0.3663 H   0  0  0  0  0  0  0  0  0  0  0  0
    0.6252   -0.1710   -1.6887 C   0  0  0  0  0  0  0  0  0  0  0  0
   -0.1888   -0.3403   -2.3995 H   0  0  0  0  0  0  0  0  0  0  0  0
    1.0009    0.8409   -1.8671 H   0  0  0  0  0  0  0  0  0  0  0  0
    1.7585   -1.1439   -1.9692 C   0  0  0  0  0  0  0  0  0  0  0  0
    1.4879   -2.2527   -2.3943 O   0  0  0  0  0  0  0  0  0  0  0  0
    3.0167   -0.7370   -1.6804 O   0  0  0  0  0  0  0  0  0  0  0  0
    3.5900   -1.4889   -1.8978 H   0  0  0  0  0  0  0  0  0  0  0  0
   -0.0421    1.0846    0.4018 C   0  0  0  0  0  0  0  0  0  0  0  0
   -1.0067    1.7809    0.1074 O   0  0  0  0  0  0  0  0  0  0  0  0
    0.8781    1.5477    1.3235 N   0  0  0  0  0  0  0  0  0  0  0  0
    1.6614    0.9428    1.5546 H   0  0  0  0  0  0  0  0  0  0  0  0
    0.7723    2.8469    1.9762 C   0  0  0  0  0  0  0  0  0  0  0  0
   -0.1718    2.9245    2.5255 H   0  0  0  0  0  0  0  0  0  0  0  0
    1.5955    2.9824    2.6841 H   0  0  0  0  0  0  0  0  0  0  0  0
    0.8161    3.6523    1.2357 H   0  0  0  0  0  0  0  0  0  0  0  0
  1  2  1  0  0  0  0
  2  3  1  0  0  0  0
  2  4  1  0  0  0  0
  2  5  1  0  0  0  0
  5  6  2  0  0  0  0
  5  7  1  0  0  0  0
  7  8  1  0  0  0  0
  7  9  1  0  0  0  0
  9 10  1  0  0  0  0
  9 11  1  0  0  0  0
  9 18  1  0  0  0  0
 11 12  1  0  0  0  0
 11 13  1  0  0  0  0
 11 14  1  0  0  0  0
 14 15  2  0  0  0  0
 14 16  1  0  0  0  0
 16 17  1  0  0  0  0
 18 19  2  0  0  0  0
 18 20  1  0  0  0  0
 20 21  1  0  0  0  0
 20 22  1  0  0  0  0
 22 23  1  0  0  0  0
 22 24  1  0  0  0  0
 22 25  1  0  0  0  0
M  END
$$$$

  -OEChem-02102214113D

 25 24  0     1  0  0  0  0  0999 V2000
   -2.6698   -4.0034    0.3853 H   0  0  0  0  0  0  0  0  0  0  0  0
   -2.7205   -2.9542    0.0808 C   0  0  0  0  0  0  0  0  0  0  0  0
   -3.3786   -2.4179    0.7688 H   0  0  0  0  0  0  0  0  0  0  0  0
   -3.1370   -2.9006   -0.9280 H   0  0  0  0  0  0  0  0  0  0  0  0
   -1.3350   -2.3370    0.1012 C   0  0  0  0  0  0  0  0  0  0  0  0
   -0.3754   -3.0009    0.4612 O   0  0  0  0  0  0  0  0  0  0  0  0
   -1.1663   -1.0160   -0.2595 N   0  0  0  0  0  0  0  0  0  0  0  0
   -2.0018   -0.4663   -0.4543 H   0  0  0  0  0  0  0  0  0  0  0  0
    0.1192   -0.3066   -0.2441 C   0  0  1  0  0  0  0  0  0  0  0  0
    0.8487   -0.8500    0.3677 H   0  0  0  0  0  0  0  0  0  0  0  0
    0.6348   -0.1762   -1.6913 C   0  0  0  0  0  0  0  0  0  0  0  0
   -0.1735   -0.3469   -2.4086 H   0  0  0  0  0  0  0  0  0  0  0  0
    1.0162    0.8334   -1.8694 H   0  0  0  0  0  0  0  0  0  0  0  0
    1.7706   -1.1522   -1.9504 C   0  0  0  0  0  0  0  0  0  0  0  0
    1.5484   -2.1469   -2.6180 O   0  0  0  0  0  0  0  0  0  0  0  0
    2.9742   -0.8717   -1.3970 O   0  0  0  0  0  0  0  0  0  0  0  0
    3.5531   -1.6081   -1.6499 H   0  0  0  0  0  0  0  0  0  0  0  0
   -0.0457    1.0853    0.3974 C   0  0  0  0  0  0  0  0  0  0  0  0
   -1.0149    1.7778    0.1092 O   0  0  0  0  0  0  0  0  0  0  0  0
    0.8704    1.5457    1.3245 N   0  0  0  0  0  0  0  0  0  0  0  0
    1.6622    0.9472    1.5438 H   0  0  0  0  0  0  0  0  0  0  0  0
    0.7644    2.8452    1.9769 C   0  0  0  0  0  0  0  0  0  0  0  0
   -0.1910    2.9330    2.5053 H   0  0  0  0  0  0  0  0  0  0  0  0
    1.5725    2.9704    2.7040 H   0  0  0  0  0  0  0  0  0  0  0  0
    0.8343    3.6507    1.2384 H   0  0  0  0  0  0  0  0  0  0  0  0
  1  2  1  0  0  0  0
  2  3  1  0  0  0  0
  2  4  1  0  0  0  0
  2  5  1  0  0  0  0
  5  6  2  0  0  0  0
  5  7  1  0  0  0  0
  7  8  1  0  0  0  0
  7  9  1  0  0  0  0
  9 10  1  0  0  0  0
  9 11  1  0  0  0  0
  9 18  1  0  0  0  0
 11 12  1  0  0  0  0
 11 13  1  0  0  0  0
 11 14  1  0  0  0  0
 14 15  2  0  0  0  0
 14 16  1  0  0  0  0
 16 17  1  0  0  0  0
 18 19  2  0  0  0  0
 18 20  1  0  0  0  0
 20 21  1  0  0  0  0
 20 22  1  0  0  0  0
 22 23  1  0  0  0  0
 22 24  1  0  0  0  0
 22 25  1  0  0  0  0
M  END
$$$$

  -OEChem-02102214113D

 25 24  0     1  0  0  0  0  0999 V2000
   -2.6852   -3.9929    0.4024 H   0  0  0  0  0  0  0  0  0  0  0  0
   -2.7327   -2.9448    0.0942 C   0  0  0  0  0  0  0  0  0  0  0  0
   -3.3750   -2.4010    0.7909 H   0  0  0  0  0  0  0  0  0  0  0  0
   -3.1652   -2.8918   -0.9077 H   0  0  0  0  0  0  0  0  0  0  0  0
   -1.3424   -2.3383    0.0890 C   0  0  0  0  0  0  0  0  0  0  0  0
   -0.3790   -3.0138    0.4160 O   0  0  0  0  0  0  0  0  0  0  0  0
   -1.1702   -1.0173   -0.2699 N   0  0  0  0  0  0  0  0  0  0  0  0
   -2.0058   -0.4596   -0.4411 H   0  0  0  0  0  0  0  0  0  0  0  0
    0.1160   -0.3090   -0.2439 C   0  0  1  0  0  0  0  0  0  0  0  0
    0.8343   -0.8528    0.3803 H   0  0  0  0  0  0  0  0  0  0  0  0
    0.6472   -0.1884   -1.6872 C   0  0  0  0  0  0  0  0  0  0  0  0
   -0.1561   -0.3591   -2.4101 H   0  0  0  0  0  0  0  0  0  0  0  0
    1.0326    0.8196   -1.8644 H   0  0  0  0  0  0  0  0  0  0  0  0
    1.7864   -1.1651   -1.9356 C   0  0  0  0  0  0  0  0  0  0  0  0
    1.6570   -2.0022   -2.8117 O   0  0  0  0  0  0  0  0  0  0  0  0
    2.9026   -1.0364   -1.1786 O   0  0  0  0  0  0  0  0  0  0  0  0
    3.4954   -1.7475   -1.4692 H   0  0  0  0  0  0  0  0  0  0  0  0
   -0.0493    1.0834    0.3958 C   0  0  0  0  0  0  0  0  0  0  0  0
   -1.0184    1.7752    0.1058 O   0  0  0  0  0  0  0  0  0  0  0  0
    0.8616    1.5411    1.3293 N   0  0  0  0  0  0  0  0  0  0  0  0
    1.6551    0.9440    1.5471 H   0  0  0  0  0  0  0  0  0  0  0  0
    0.7573    2.8431    1.9770 C   0  0  0  0  0  0  0  0  0  0  0  0
   -0.2006    2.9363    2.4997 H   0  0  0  0  0  0  0  0  0  0  0  0
    1.5619    2.9679    2.7079 H   0  0  0  0  0  0  0  0  0  0  0  0
    0.8341    3.6458    1.2361 H   0  0  0  0  0  0  0  0  0  0  0  0
  1  2  1  0  0  0  0
  2  3  1  0  0  0  0
  2  4  1  0  0  0  0
  2  5  1  0  0  0  0
  5  6  2  0  0  0  0
  5  7  1  0  0  0  0
  7  8  1  0  0  0  0
  7  9  1  0  0  0  0
  9 10  1  0  0  0  0
  9 11  1  0  0  0  0
  9 18  1  0  0  0  0
 11 12  1  0  0  0  0
 11 13  1  0  0  0  0
 11 14  1  0  0  0  0
 14 15  2  0  0  0  0
 14 16  1  0  0  0  0
 16 17  1  0  0  0  0
 18 19  2  0  0  0  0
 18 20  1  0  0  0  0
 20 21  1  0  0  0  0
 20 22  1  0  0  0  0
 22 23  1  0  0  0  0
 22 24  1  0  0  0  0
 22 25  1  0  0  0  0
M  END
$$$$

  -OEChem-02102214113D

 25 24  0     1  0  0  0  0  0999 V2000
   -2.7129   -3.9796    0.4188 H   0  0  0  0  0  0  0  0  0  0  0  0
   -2.7525   -2.9321    0.1072 C   0  0  0  0  0  0  0  0  0  0  0  0
   -3.3825   -2.3790    0.8079 H   0  0  0  0  0  0  0  0  0  0  0  0
   -3.1945   -2.8778   -0.8906 H   0  0  0  0  0  0  0  0  0  0  0  0
   -1.3561   -2.3397    0.0869 C   0  0  0  0  0  0  0  0  0  0  0  0
   -0.3953   -3.0261    0.3982 O   0  0  0  0  0  0  0  0  0  0  0  0
   -1.1755   -1.0207   -0.2747 N   0  0  0  0  0  0  0  0  0  0  0  0
   -2.0090   -0.4567   -0.4349 H   0  0  0  0  0  0  0  0  0  0  0  0
    0.1123   -0.3150   -0.2392 C   0  0  1  0  0  0  0  0  0  0  0  0
    0.8163   -0.8590    0.4000 H   0  0  0  0  0  0  0  0  0  0  0  0
    0.6601   -0.2083   -1.6791 C   0  0  0  0  0  0  0  0  0  0  0  0
   -0.1391   -0.3827   -2.4058 H   0  0  0  0  0  0  0  0  0  0  0  0
    1.0456    0.7995   -1.8574 H   0  0  0  0  0  0  0  0  0  0  0  0
    1.8037   -1.1824   -1.9290 C   0  0  0  0  0  0  0  0  0  0  0  0
    1.7960   -1.8233   -2.9656 O   0  0  0  0  0  0  0  0  0  0  0  0
    2.8169   -1.2250   -1.0294 O   0  0  0  0  0  0  0  0  0  0  0  0
    3.4334   -1.8951   -1.3642 H   0  0  0  0  0  0  0  0  0  0  0  0
   -0.0519    1.0804    0.3928 C   0  0  0  0  0  0  0  0  0  0  0  0
   -1.0176    1.7737    0.0956 O   0  0  0  0  0  0  0  0  0  0  0  0
    0.8542    1.5363    1.3316 N   0  0  0  0  0  0  0  0  0  0  0  0
    1.6425    0.9350    1.5572 H   0  0  0  0  0  0  0  0  0  0  0  0
    0.7499    2.8389    1.9774 C   0  0  0  0  0  0  0  0  0  0  0  0
   -0.2107    2.9352    2.4946 H   0  0  0  0  0  0  0  0  0  0  0  0
    1.5508    2.9620    2.7127 H   0  0  0  0  0  0  0  0  0  0  0  0
    0.8330    3.6407    1.2361 H   0  0  0  0  0  0  0  0  0  0  0  0
  1  2  1  0  0  0  0
  2  3  1  0  0  0  0
  2  4  1  0  0  0  0
  2  5  1  0  0  0  0
  5  6  2  0  0  0  0
  5  7  1  0  0  0  0
  7  8  1  0  0  0  0
  7  9  1  0  0  0  0
  9 10  1  0  0  0  0
  9 11  1  0  0  0  0
  9 18  1  0  0  0  0
 11 12  1  0  0  0  0
 11 13  1  0  0  0  0
 11 14  1  0  0  0  0
 14 15  2  0  0  0  0
 14 16  1  0  0  0  0
 16 17  1  0  0  0  0
 18 19  2  0  0  0  0
 18 20  1  0  0  0  0
 20 21  1  0  0  0  0
 20 22  1  0  0  0  0
 22 23  1  0  0  0  0
 22 24  1  0  0  0  0
 22 25  1  0  0  0  0
M  END
$$$$

  -OEChem-02102214113D

 25 24  0     1  0  0  0  0  0999 V2000
   -2.7377   -3.9691    0.4329 H   0  0  0  0  0  0  0  0  0  0  0  0
   -2.7701   -2.9226    0.1172 C   0  0  0  0  0  0  0  0  0  0  0  0
   -3.3940   -2.3623    0.8177 H   0  0  0  0  0  0  0  0  0  0  0  0
   -3.2144   -2.8689   -0.8795 H   0  0  0  0  0  0  0  0  0  0  0  0
   -1.3692   -2.3409    0.0907 C   0  0  0  0  0  0  0  0  0  0  0  0
   -0.4129   -3.0368    0.3942 O   0  0  0  0  0  0  0  0  0  0  0  0
   -1.1797   -1.0242   -0.2750 N   0  0  0  0  0  0  0  0  0  0  0  0
   -2.0106   -0.4551   -0.4316 H   0  0  0  0  0  0  0  0  0  0  0  0
    0.1104   -0.3223   -0.2311 C   0  0  1  0  0  0  0  0  0  0  0  0
    0.8018   -0.8646    0.4218 H   0  0  0  0  0  0  0  0  0  0  0  0
    0.6694   -0.2269   -1.6697 C   0  0  0  0  0  0  0  0  0  0  0  0
   -0.1290   -0.3990   -2.3979 H   0  0  0  0  0  0  0  0  0  0  0  0
    1.0552    0.7810   -1.8464 H   0  0  0  0  0  0  0  0  0  0  0  0
    1.8158   -1.1971   -1.9366 C   0  0  0  0  0  0  0  0  0  0  0  0
    1.9464   -1.6100   -3.0760 O   0  0  0  0  0  0  0  0  0  0  0  0
    2.7037   -1.4543   -0.9450 O   0  0  0  0  0  0  0  0  0  0  0  0
    3.3418   -2.0808   -1.3206 H   0  0  0  0  0  0  0  0  0  0  0  0
   -0.0536    1.0767    0.3927 C   0  0  0  0  0  0  0  0  0  0  0  0
   -1.0136    1.7726    0.0836 O   0  0  0  0  0  0  0  0  0  0  0  0
    0.8465    1.5331    1.3371 N   0  0  0  0  0  0  0  0  0  0  0  0
    1.6294    0.9287    1.5728 H   0  0  0  0  0  0  0  0  0  0  0  0
    0.7435    2.8392    1.9766 C   0  0  0  0  0  0  0  0  0  0  0  0
   -0.2253    2.9475    2.4760 H   0  0  0  0  0  0  0  0  0  0  0  0
    1.5320    2.9563    2.7263 H   0  0  0  0  0  0  0  0  0  0  0  0
    0.8488    3.6378    1.2347 H   0  0  0  0  0  0  0  0  0  0  0  0
  1  2  1  0  0  0  0
  2  3  1  0  0  0  0
  2  4  1  0  0  0  0
  2  5  1  0  0  0  0
  5  6  2  0  0  0  0
  5  7  1  0  0  0  0
  7  8  1  0  0  0  0
  7  9  1  0  0  0  0
  9 10  1  0  0  0  0
  9 11  1  0  0  0  0
  9 18  1  0  0  0  0
 11 12  1  0  0  0  0
 11 13  1  0  0  0  0
 11 14  1  0  0  0  0
 14 15  2  0  0  0  0
 14 16  1  0  0  0  0
 16 17  1  0  0  0  0
 18 19  2  0  0  0  0
 18 20  1  0  0  0  0
 20 21  1  0  0  0  0
 20 22  1  0  0  0  0
 22 23  1  0  0  0  0
 22 24  1  0  0  0  0
 22 25  1  0  0  0  0
M  END
$$$$

  -OEChem-02102214113D

 25 24  0     1  0  0  0  0  0999 V2000
   -2.7678   -3.9472    0.4416 H   0  0  0  0  0  0  0  0  0  0  0  0
   -2.7860   -2.9006    0.1254 C   0  0  0  0  0  0  0  0  0  0  0  0
   -3.4047   -2.3323    0.8240 H   0  0  0  0  0  0  0  0  0  0  0  0
   -3.2272   -2.8422   -0.8725 H   0  0  0  0  0  0  0  0  0  0  0  0
   -1.3779   -2.3361    0.1031 C   0  0  0  0  0  0  0  0  0  0  0  0
   -0.4332   -3.0403    0.4214 O   0  0  0  0  0  0  0  0  0  0  0  0
   -1.1723   -1.0244   -0.2718 N   0  0  0  0  0  0  0  0  0  0  0  0
   -1.9973   -0.4485   -0.4346 H   0  0  0  0  0  0  0  0  0  0  0  0
    0.1225   -0.3302   -0.2266 C   0  0  1  0  0  0  0  0  0  0  0  0
    0.8072   -0.8681    0.4363 H   0  0  0  0  0  0  0  0  0  0  0  0
    0.6856   -0.2456   -1.6668 C   0  0  0  0  0  0  0  0  0  0  0  0
   -0.1161   -0.4161   -2.3913 H   0  0  0  0  0  0  0  0  0  0  0  0
    1.0711    0.7622   -1.8458 H   0  0  0  0  0  0  0  0  0  0  0  0
    1.8301   -1.2136   -1.9592 C   0  0  0  0  0  0  0  0  0  0  0  0
    2.1128   -1.3881   -3.1319 O   0  0  0  0  0  0  0  0  0  0  0  0
    2.5547   -1.7295   -0.9372 O   0  0  0  0  0  0  0  0  0  0  0  0
    3.2154   -2.3097   -1.3455 H   0  0  0  0  0  0  0  0  0  0  0  0
   -0.0439    1.0745    0.3852 C   0  0  0  0  0  0  0  0  0  0  0  0
   -1.0018    1.7683    0.0647 O   0  0  0  0  0  0  0  0  0  0  0  0
    0.8485    1.5390    1.3334 N   0  0  0  0  0  0  0  0  0  0  0  0
    1.6135    0.9257    1.6023 H   0  0  0  0  0  0  0  0  0  0  0  0
    0.7219    2.8385    1.9826 C   0  0  0  0  0  0  0  0  0  0  0  0
   -0.2258    2.9042    2.5276 H   0  0  0  0  0  0  0  0  0  0  0  0
    1.5400    2.9882    2.6936 H   0  0  0  0  0  0  0  0  0  0  0  0
    0.7580    3.6428    1.2402 H   0  0  0  0  0  0  0  0  0  0  0  0
  1  2  1  0  0  0  0
  2  3  1  0  0  0  0
  2  4  1  0  0  0  0
  2  5  1  0  0  0  0
  5  6  2  0  0  0  0
  5  7  1  0  0  0  0
  7  8  1  0  0  0  0
  7  9  1  0  0  0  0
  9 10  1  0  0  0  0
  9 11  1  0  0  0  0
  9 18  1  0  0  0  0
 11 12  1  0  0  0  0
 11 13  1  0  0  0  0
 11 14  1  0  0  0  0
 14 15  2  0  0  0  0
 14 16  1  0  0  0  0
 16 17  1  0  0  0  0
 18 19  2  0  0  0  0
 18 20  1  0  0  0  0
 20 21  1  0  0  0  0
 20 22  1  0  0  0  0
 22 23  1  0  0  0  0
 22 24  1  0  0  0  0
 22 25  1  0  0  0  0
M  END
$$$$

  -OEChem-02102214113D

 25 24  0     1  0  0  0  0  0999 V2000
   -2.7978   -3.9549    0.4281 H   0  0  0  0  0  0  0  0  0  0  0  0
   -2.7946   -2.9109    0.1025 C   0  0  0  0  0  0  0  0  0  0  0  0
   -3.4668   -2.3386    0.7462 H   0  0  0  0  0  0  0  0  0  0  0  0
   -3.1570   -2.8627   -0.9271 H   0  0  0  0  0  0  0  0  0  0  0  0
   -1.3907   -2.3419    0.1843 C   0  0  0  0  0  0  0  0  0  0  0  0
   -0.4889   -3.0217    0.6451 O   0  0  0  0  0  0  0  0  0  0  0  0
   -1.1597   -1.0414   -0.2155 N   0  0  0  0  0  0  0  0  0  0  0  0
   -1.9704   -0.4826   -0.4775 H   0  0  0  0  0  0  0  0  0  0  0  0
    0.1411   -0.3559   -0.1927 C   0  0  1  0  0  0  0  0  0  0  0  0
    0.8544   -0.8905    0.4441 H   0  0  0  0  0  0  0  0  0  0  0  0
    0.6711   -0.2457   -1.6416 C   0  0  0  0  0  0  0  0  0  0  0  0
   -0.1684   -0.1227   -2.3317 H   0  0  0  0  0  0  0  0  0  0  0  0
    1.2932    0.6505   -1.7234 H   0  0  0  0  0  0  0  0  0  0  0  0
    1.5324   -1.4152   -2.1111 C   0  0  0  0  0  0  0  0  0  0  0  0
    1.9607   -1.3529   -3.2505 O   0  0  0  0  0  0  0  0  0  0  0  0
    1.8645   -2.4006   -1.2475 O   0  0  0  0  0  0  0  0  0  0  0  0
    2.4044   -3.0331   -1.7441 H   0  0  0  0  0  0  0  0  0  0  0  0
   -0.0289    1.0591    0.3951 C   0  0  0  0  0  0  0  0  0  0  0  0
   -0.9723    1.7574    0.0420 O   0  0  0  0  0  0  0  0  0  0  0  0
    0.8647    1.5419    1.3332 N   0  0  0  0  0  0  0  0  0  0  0  0
    1.6086    0.9211    1.6400 H   0  0  0  0  0  0  0  0  0  0  0  0
    0.7387    2.8533    1.9576 C   0  0  0  0  0  0  0  0  0  0  0  0
   -0.2098    2.9308    2.4994 H   0  0  0  0  0  0  0  0  0  0  0  0
    1.5559    3.0144    2.6674 H   0  0  0  0  0  0  0  0  0  0  0  0
    0.7784    3.6435    1.2005 H   0  0  0  0  0  0  0  0  0  0  0  0
  1  2  1  0  0  0  0
  2  3  1  0  0  0  0
  2  4  1  0  0  0  0
  2  5  1  0  0  0  0
  5  6  2  0  0  0  0
  5  7  1  0  0  0  0
  7  8  1  0  0  0  0
  7  9  1  0  0  0  0
  9 10  1  0  0  0  0
  9 11  1  0  0  0  0
  9 18  1  0  0  0  0
 11 12  1  0  0  0  0
 11 13  1  0  0  0  0
 11 14  1  0  0  0  0
 14 15  2  0  0  0  0
 14 16  1  0  0  0  0
 16 17  1  0  0  0  0
 18 19  2  0  0  0  0
 18 20  1  0  0  0  0
 20 21  1  0  0  0  0
 20 22  1  0  0  0  0
 22 23  1  0  0  0  0
 22 24  1  0  0  0  0
 22 25  1  0  0  0  0
M  END
$$$$

  -OEChem-02102214113D

 25 24  0     1  0  0  0  0  0999 V2000
   -2.7801   -3.9752    0.4052 H   0  0  0  0  0  0  0  0  0  0  0  0
   -2.7797   -2.9316    0.0782 C   0  0  0  0  0  0  0  0  0  0  0  0
   -3.4915   -2.3700    0.6880 H   0  0  0  0  0  0  0  0  0  0  0  0
   -3.0936   -2.8911   -0.9676 H   0  0  0  0  0  0  0  0  0  0  0  0
   -1.3915   -2.3378    0.2253 C   0  0  0  0  0  0  0  0  0  0  0  0
   -0.5131   -2.9834    0.7737 O   0  0  0  0  0  0  0  0  0  0  0  0
   -1.1597   -1.0406   -0.1850 N   0  0  0  0  0  0  0  0  0  0  0  0
   -1.9603   -0.5021   -0.5112 H   0  0  0  0  0  0  0  0  0  0  0  0
    0.1442   -0.3609   -0.1756 C   0  0  1  0  0  0  0  0  0  0  0  0
    0.8667   -0.9002    0.4474 H   0  0  0  0  0  0  0  0  0  0  0  0
    0.6659   -0.2359   -1.6276 C   0  0  0  0  0  0  0  0  0  0  0  0
   -0.1789   -0.1074   -2.3098 H   0  0  0  0  0  0  0  0  0  0  0  0
    1.2856    0.6628   -1.7059 H   0  0  0  0  0  0  0  0  0  0  0  0
    1.5196   -1.4023   -2.1172 C   0  0  0  0  0  0  0  0  0  0  0  0
    2.1711   -1.2168   -3.1305 O   0  0  0  0  0  0  0  0  0  0  0  0
    1.5349   -2.5638   -1.4286 O   0  0  0  0  0  0  0  0  0  0  0  0
    2.1218   -3.1654   -1.9098 H   0  0  0  0  0  0  0  0  0  0  0  0
   -0.0235    1.0570    0.4071 C   0  0  0  0  0  0  0  0  0  0  0  0
   -0.9587    1.7605    0.0424 O   0  0  0  0  0  0  0  0  0  0  0  0
    0.8745    1.5446    1.3384 N   0  0  0  0  0  0  0  0  0  0  0  0
    1.6066    0.9181    1.6610 H   0  0  0  0  0  0  0  0  0  0  0  0
    0.7563    2.8636    1.9480 C   0  0  0  0  0  0  0  0  0  0  0  0
   -0.1887    2.9504    2.4945 H   0  0  0  0  0  0  0  0  0  0  0  0
    1.5786    3.0307    2.6503 H   0  0  0  0  0  0  0  0  0  0  0  0
    0.7932    3.6447    1.1813 H   0  0  0  0  0  0  0  0  0  0  0  0
  1  2  1  0  0  0  0
  2  3  1  0  0  0  0
  2  4  1  0  0  0  0
  2  5  1  0  0  0  0
  5  6  2  0  0  0  0
  5  7  1  0  0  0  0
  7  8  1  0  0  0  0
  7  9  1  0  0  0  0
  9 10  1  0  0  0  0
  9 11  1  0  0  0  0
  9 18  1  0  0  0  0
 11 12  1  0  0  0  0
 11 13  1  0  0  0  0
 11 14  1  0  0  0  0
 14 15  2  0  0  0  0
 14 16  1  0  0  0  0
 16 17  1  0  0  0  0
 18 19  2  0  0  0  0
 18 20  1  0  0  0  0
 20 21  1  0  0  0  0
 20 22  1  0  0  0  0
 22 23  1  0  0  0  0
 22 24  1  0  0  0  0
 22 25  1  0  0  0  0
M  END
$$$$

  -OEChem-02102214113D

 25 24  0     1  0  0  0  0  0999 V2000
   -2.7570   -3.9899    0.3968 H   0  0  0  0  0  0  0  0  0  0  0  0
   -2.7656   -2.9469    0.0682 C   0  0  0  0  0  0  0  0  0  0  0  0
   -3.4939   -2.3934    0.6658 H   0  0  0  0  0  0  0  0  0  0  0  0
   -3.0633   -2.9117   -0.9824 H   0  0  0  0  0  0  0  0  0  0  0  0
   -1.3875   -2.3355    0.2356 C   0  0  0  0  0  0  0  0  0  0  0  0
   -0.5099   -2.9655    0.8049 O   0  0  0  0  0  0  0  0  0  0  0  0
   -1.1637   -1.0370   -0.1756 N   0  0  0  0  0  0  0  0  0  0  0  0
   -1.9616   -0.5099   -0.5258 H   0  0  0  0  0  0  0  0  0  0  0  0
    0.1411   -0.3600   -0.1730 C   0  0  1  0  0  0  0  0  0  0  0  0
    0.8677   -0.9028    0.4420 H   0  0  0  0  0  0  0  0  0  0  0  0
    0.6607   -0.2269   -1.6245 C   0  0  0  0  0  0  0  0  0  0  0  0
   -0.1839   -0.0994   -2.3069 H   0  0  0  0  0  0  0  0  0  0  0  0
    1.2788    0.6733   -1.7023 H   0  0  0  0  0  0  0  0  0  0  0  0
    1.5091   -1.3996   -2.1065 C   0  0  0  0  0  0  0  0  0  0  0  0
    2.3726   -1.1570   -2.9320 O   0  0  0  0  0  0  0  0  0  0  0  0
    1.2369   -2.6453   -1.6620 O   0  0  0  0  0  0  0  0  0  0  0  0
    1.8703   -3.2381   -2.0926 H   0  0  0  0  0  0  0  0  0  0  0  0
   -0.0225    1.0571    0.4138 C   0  0  0  0  0  0  0  0  0  0  0  0
   -0.9540    1.7652    0.0487 O   0  0  0  0  0  0  0  0  0  0  0  0
    0.8802    1.5436    1.3413 N   0  0  0  0  0  0  0  0  0  0  0  0
    1.6116    0.9160    1.6636 H   0  0  0  0  0  0  0  0  0  0  0  0
    0.7699    2.8665    1.9444 C   0  0  0  0  0  0  0  0  0  0  0  0
   -0.1733    2.9602    2.4931 H   0  0  0  0  0  0  0  0  0  0  0  0
    1.5950    3.0344    2.6433 H   0  0  0  0  0  0  0  0  0  0  0  0
    0.8077    3.6430    1.1730 H   0  0  0  0  0  0  0  0  0  0  0  0
  1  2  1  0  0  0  0
  2  3  1  0  0  0  0
  2  4  1  0  0  0  0
  2  5  1  0  0  0  0
  5  6  2  0  0  0  0
  5  7  1  0  0  0  0
  7  8  1  0  0  0  0
  7  9  1  0  0  0  0
  9 10  1  0  0  0  0
  9 11  1  0  0  0  0
  9 18  1  0  0  0  0
 11 12  1  0  0  0  0
 11 13  1  0  0  0  0
 11 14  1  0  0  0  0
 14 15  2  0  0  0  0
 14 16  1  0  0  0  0
 16 17  1  0  0  0  0
 18 19  2  0  0  0  0
 18 20  1  0  0  0  0
 20 21  1  0  0  0  0
 20 22  1  0  0  0  0
 22 23  1  0  0  0  0
 22 24  1  0  0  0  0
 22 25  1  0  0  0  0
M  END
$$$$

  -OEChem-02102214113D

 25 24  0     1  0  0  0  0  0999 V2000
   -2.7441   -3.9936    0.4044 H   0  0  0  0  0  0  0  0  0  0  0  0
   -2.7605   -2.9511    0.0745 C   0  0  0  0  0  0  0  0  0  0  0  0
   -3.4792   -2.3987    0.6846 H   0  0  0  0  0  0  0  0  0  0  0  0
   -3.0777   -2.9182   -0.9705 H   0  0  0  0  0  0  0  0  0  0  0  0
   -1.3808   -2.3365    0.2157 C   0  0  0  0  0  0  0  0  0  0  0  0
   -0.4843   -2.9713    0.7504 O   0  0  0  0  0  0  0  0  0  0  0  0
   -1.1684   -1.0339   -0.1889 N   0  0  0  0  0  0  0  0  0  0  0  0
   -1.9732   -0.5035   -0.5179 H   0  0  0  0  0  0  0  0  0  0  0  0
    0.1343   -0.3542   -0.1872 C   0  0  1  0  0  0  0  0  0  0  0  0
    0.8623   -0.8977    0.4254 H   0  0  0  0  0  0  0  0  0  0  0  0
    0.6565   -0.2188   -1.6354 C   0  0  0  0  0  0  0  0  0  0  0  0
   -0.1842   -0.0991   -2.3236 H   0  0  0  0  0  0  0  0  0  0  0  0
    1.2723    0.6828   -1.7168 H   0  0  0  0  0  0  0  0  0  0  0  0
    1.5040   -1.4018   -2.0891 C   0  0  0  0  0  0  0  0  0  0  0  0
    2.5432   -1.1578   -2.6779 O   0  0  0  0  0  0  0  0  0  0  0  0
    1.0237   -2.6529   -1.9151 O   0  0  0  0  0  0  0  0  0  0  0  0
    1.6921   -3.2570   -2.2706 H   0  0  0  0  0  0  0  0  0  0  0  0
   -0.0270    1.0592    0.4091 C   0  0  0  0  0  0  0  0  0  0  0  0
   -0.9644    1.7671    0.0588 O   0  0  0  0  0  0  0  0  0  0  0  0
    0.8807    1.5393    1.3349 N   0  0  0  0  0  0  0  0  0  0  0  0
    1.6245    0.9156    1.6356 H   0  0  0  0  0  0  0  0  0  0  0  0
    0.7755    2.8583    1.9474 C   0  0  0  0  0  0  0  0  0  0  0  0
   -0.1679    2.9525    2.4957 H   0  0  0  0  0  0  0  0  0  0  0  0
    1.6003    3.0166    2.6489 H   0  0  0  0  0  0  0  0  0  0  0  0
    0.8179    3.6408    1.1822 H   0  0  0  0  0  0  0  0  0  0  0  0
  1  2  1  0  0  0  0
  2  3  1  0  0  0  0
  2  4  1  0  0  0  0
  2  5  1  0  0  0  0
  5  6  2  0  0  0  0
  5  7  1  0  0  0  0
  7  8  1  0  0  0  0
  7  9  1  0  0  0  0
  9 10  1  0  0  0  0
  9 11  1  0  0  0  0
  9 18  1  0  0  0  0
 11 12  1  0  0  0  0
 11 13  1  0  0  0  0
 11 14  1  0  0  0  0
 14 15  2  0  0  0  0
 14 16  1  0  0  0  0
 16 17  1  0  0  0  0
 18 19  2  0  0  0  0
 18 20  1  0  0  0  0
 20 21  1  0  0  0  0
 20 22  1  0  0  0  0
 22 23  1  0  0  0  0
 22 24  1  0  0  0  0
 22 25  1  0  0  0  0
M  END
$$$$

  -OEChem-02102214113D

 25 24  0     1  0  0  0  0  0999 V2000
   -2.7317   -3.9934    0.4036 H   0  0  0  0  0  0  0  0  0  0  0  0
   -2.7566   -2.9496    0.0787 C   0  0  0  0  0  0  0  0  0  0  0  0
   -3.4544   -2.3983    0.7136 H   0  0  0  0  0  0  0  0  0  0  0  0
   -3.1067   -2.9121   -0.9556 H   0  0  0  0  0  0  0  0  0  0  0  0
   -1.3717   -2.3385    0.1778 C   0  0  0  0  0  0  0  0  0  0  0  0
   -0.4514   -2.9878    0.6514 O   0  0  0  0  0  0  0  0  0  0  0  0
   -1.1717   -1.0299   -0.2127 N   0  0  0  0  0  0  0  0  0  0  0  0
   -1.9868   -0.4900   -0.4981 H   0  0  0  0  0  0  0  0  0  0  0  0
    0.1272   -0.3441   -0.2077 C   0  0  1  0  0  0  0  0  0  0  0  0
    0.8572   -0.8885    0.4020 H   0  0  0  0  0  0  0  0  0  0  0  0
    0.6458   -0.2107   -1.6545 C   0  0  0  0  0  0  0  0  0  0  0  0
   -0.1929   -0.1006   -2.3469 H   0  0  0  0  0  0  0  0  0  0  0  0
    1.2608    0.6906   -1.7446 H   0  0  0  0  0  0  0  0  0  0  0  0
    1.4922   -1.4048   -2.0752 C   0  0  0  0  0  0  0  0  0  0  0  0
    2.6486   -1.1974   -2.4015 O   0  0  0  0  0  0  0  0  0  0  0  0
    0.8966   -2.6164   -2.1604 O   0  0  0  0  0  0  0  0  0  0  0  0
    1.5855   -3.2414   -2.4310 H   0  0  0  0  0  0  0  0  0  0  0  0
   -0.0322    1.0625    0.4041 C   0  0  0  0  0  0  0  0  0  0  0  0
   -0.9793    1.7675    0.0751 O   0  0  0  0  0  0  0  0  0  0  0  0
    0.8797    1.5340    1.3301 N   0  0  0  0  0  0  0  0  0  0  0  0
    1.6389    0.9164    1.6039 H   0  0  0  0  0  0  0  0  0  0  0  0
    0.7795    2.8478    1.9541 C   0  0  0  0  0  0  0  0  0  0  0  0
   -0.1631    2.9408    2.5040 H   0  0  0  0  0  0  0  0  0  0  0  0
    1.6053    2.9969    2.6564 H   0  0  0  0  0  0  0  0  0  0  0  0
    0.8246    3.6363    1.1956 H   0  0  0  0  0  0  0  0  0  0  0  0
  1  2  1  0  0  0  0
  2  3  1  0  0  0  0
  2  4  1  0  0  0  0
  2  5  1  0  0  0  0
  5  6  2  0  0  0  0
  5  7  1  0  0  0  0
  7  8  1  0  0  0  0
  7  9  1  0  0  0  0
  9 10  1  0  0  0  0
  9 11  1  0  0  0  0
  9 18  1  0  0  0  0
 11 12  1  0  0  0  0
 11 13  1  0  0  0  0
 11 14  1  0  0  0  0
 14 15  2  0  0  0  0
 14 16  1  0  0  0  0
 16 17  1  0  0  0  0
 18 19  2  0  0  0  0
 18 20  1  0  0  0  0
 20 21  1  0  0  0  0
 20 22  1  0  0  0  0
 22 23  1  0  0  0  0
 22 24  1  0  0  0  0
 22 25  1  0  0  0  0
M  END
$$$$

  -OEChem-02102214113D

 25 24  0     1  0  0  0  0  0999 V2000
   -2.7186   -3.9908    0.4011 H   0  0  0  0  0  0  0  0  0  0  0  0
   -2.7521   -2.9451    0.0834 C   0  0  0  0  0  0  0  0  0  0  0  0
   -3.4225   -2.3951    0.7482 H   0  0  0  0  0  0  0  0  0  0  0  0
   -3.1414   -2.8994   -0.9364 H   0  0  0  0  0  0  0  0  0  0  0  0
   -1.3623   -2.3397    0.1328 C   0  0  0  0  0  0  0  0  0  0  0  0
   -0.4206   -3.0054    0.5364 O   0  0  0  0  0  0  0  0  0  0  0  0
   -1.1734   -1.0248   -0.2416 N   0  0  0  0  0  0  0  0  0  0  0  0
   -1.9982   -0.4733   -0.4726 H   0  0  0  0  0  0  0  0  0  0  0  0
    0.1217   -0.3328   -0.2312 C   0  0  1  0  0  0  0  0  0  0  0  0
    0.8527   -0.8793    0.3757 H   0  0  0  0  0  0  0  0  0  0  0  0
    0.6358   -0.2009   -1.6771 C   0  0  0  0  0  0  0  0  0  0  0  0
   -0.2007   -0.0970   -2.3734 H   0  0  0  0  0  0  0  0  0  0  0  0
    1.2529    0.6980   -1.7740 H   0  0  0  0  0  0  0  0  0  0  0  0
    1.4810   -1.4034   -2.0690 C   0  0  0  0  0  0  0  0  0  0  0  0
    2.6910   -1.2617   -2.1204 O   0  0  0  0  0  0  0  0  0  0  0  0
    0.8435   -2.5496   -2.4025 O   0  0  0  0  0  0  0  0  0  0  0  0
    1.5363   -3.2015   -2.5864 H   0  0  0  0  0  0  0  0  0  0  0  0
   -0.0358    1.0663    0.3972 C   0  0  0  0  0  0  0  0  0  0  0  0
   -0.9926    1.7678    0.0898 O   0  0  0  0  0  0  0  0  0  0  0  0
    0.8792    1.5289    1.3246 N   0  0  0  0  0  0  0  0  0  0  0  0
    1.6539    0.9187    1.5708 H   0  0  0  0  0  0  0  0  0  0  0  0
    0.7798    2.8358    1.9634 C   0  0  0  0  0  0  0  0  0  0  0  0
   -0.1653    2.9254    2.5095 H   0  0  0  0  0  0  0  0  0  0  0  0
    1.6022    2.9741    2.6719 H   0  0  0  0  0  0  0  0  0  0  0  0
    0.8311    3.6328    1.2141 H   0  0  0  0  0  0  0  0  0  0  0  0
  1  2  1  0  0  0  0
  2  3  1  0  0  0  0
  2  4  1  0  0  0  0
  2  5  1  0  0  0  0
  5  6  2  0  0  0  0
  5  7  1  0  0  0  0
  7  8  1  0  0  0  0
  7  9  1  0  0  0  0
  9 10  1  0  0  0  0
  9 11  1  0  0  0  0
  9 18  1  0  0  0  0
 11 12  1  0  0  0  0
 11 13  1  0  0  0  0
 11 14  1  0  0  0  0
 14 15  2  0  0  0  0
 14 16  1  0  0  0  0
 16 17  1  0  0  0  0
 18 19  2  0  0  0  0
 18 20  1  0  0  0  0
 20 21  1  0  0  0  0
 20 22  1  0  0  0  0
 22 23  1  0  0  0  0
 22 24  1  0  0  0  0
 22 25  1  0  0  0  0
M  END
$$$$

  -OEChem-02102214113D

 25 24  0     1  0  0  0  0  0999 V2000
   -2.7082   -3.9890    0.3954 H   0  0  0  0  0  0  0  0  0  0  0  0
   -2.7481   -2.9410    0.0853 C   0  0  0  0  0  0  0  0  0  0  0  0
   -3.3960   -2.3936    0.7741 H   0  0  0  0  0  0  0  0  0  0  0  0
   -3.1693   -2.8875   -0.9215 H   0  0  0  0  0  0  0  0  0  0  0  0
   -1.3551   -2.3403    0.0949 C   0  0  0  0  0  0  0  0  0  0  0  0
   -0.3991   -3.0205    0.4351 O   0  0  0  0  0  0  0  0  0  0  0  0
   -1.1736   -1.0206   -0.2650 N   0  0  0  0  0  0  0  0  0  0  0  0
   -2.0049   -0.4615   -0.4510 H   0  0  0  0  0  0  0  0  0  0  0  0
    0.1181   -0.3220   -0.2490 C   0  0  1  0  0  0  0  0  0  0  0  0
    0.8503   -0.8702    0.3555 H   0  0  0  0  0  0  0  0  0  0  0  0
    0.6284   -0.1913   -1.6943 C   0  0  0  0  0  0  0  0  0  0  0  0
   -0.2077   -0.0911   -2.3920 H   0  0  0  0  0  0  0  0  0  0  0  0
    1.2469    0.7056   -1.7960 H   0  0  0  0  0  0  0  0  0  0  0  0
    1.4752   -1.3969   -2.0684 C   0  0  0  0  0  0  0  0  0  0  0  0
    2.6744   -1.3442   -1.8517 O   0  0  0  0  0  0  0  0  0  0  0  0
    0.8584   -2.4555   -2.6436 O   0  0  0  0  0  0  0  0  0  0  0  0
    1.5406   -3.1342   -2.7572 H   0  0  0  0  0  0  0  0  0  0  0  0
   -0.0380    1.0704    0.3929 C   0  0  0  0  0  0  0  0  0  0  0  0
   -1.0014    1.7698    0.1020 O   0  0  0  0  0  0  0  0  0  0  0  0
    0.8793    1.5255    1.3215 N   0  0  0  0  0  0  0  0  0  0  0  0
    1.6620    0.9187    1.5510 H   0  0  0  0  0  0  0  0  0  0  0  0
    0.7806    2.8272    1.9705 C   0  0  0  0  0  0  0  0  0  0  0  0
   -0.1639    2.9121    2.5181 H   0  0  0  0  0  0  0  0  0  0  0  0
    1.6033    2.9605    2.6794 H   0  0  0  0  0  0  0  0  0  0  0  0
    0.8304    3.6299    1.2274 H   0  0  0  0  0  0  0  0  0  0  0  0
  1  2  1  0  0  0  0
  2  3  1  0  0  0  0
  2  4  1  0  0  0  0
  2  5  1  0  0  0  0
  5  6  2  0  0  0  0
  5  7  1  0  0  0  0
  7  8  1  0  0  0  0
  7  9  1  0  0  0  0
  9 10  1  0  0  0  0
  9 11  1  0  0  0  0
  9 18  1  0  0  0  0
 11 12  1  0  0  0  0
 11 13  1  0  0  0  0
 11 14  1  0  0  0  0
 14 15  2  0  0  0  0
 14 16  1  0  0  0  0
 16 17  1  0  0  0  0
 18 19  2  0  0  0  0
 18 20  1  0  0  0  0
 20 21  1  0  0  0  0
 20 22  1  0  0  0  0
 22 23  1  0  0  0  0
 22 24  1  0  0  0  0
 22 25  1  0  0  0  0
M  END
$$$$

  -OEChem-02102214113D

 25 24  0     1  0  0  0  0  0999 V2000
   -2.7031   -3.9837    0.4009 H   0  0  0  0  0  0  0  0  0  0  0  0
   -2.7471   -2.9352    0.0929 C   0  0  0  0  0  0  0  0  0  0  0  0
   -3.3735   -2.3865    0.8001 H   0  0  0  0  0  0  0  0  0  0  0  0
   -3.1960   -2.8787   -0.9016 H   0  0  0  0  0  0  0  0  0  0  0  0
   -1.3523   -2.3394    0.0654 C   0  0  0  0  0  0  0  0  0  0  0  0
   -0.3878   -3.0288    0.3581 O   0  0  0  0  0  0  0  0  0  0  0  0
   -1.1775   -1.0167   -0.2857 N   0  0  0  0  0  0  0  0  0  0  0  0
   -2.0138   -0.4530   -0.4321 H   0  0  0  0  0  0  0  0  0  0  0  0
    0.1103   -0.3107   -0.2637 C   0  0  1  0  0  0  0  0  0  0  0  0
    0.8385   -0.8588    0.3456 H   0  0  0  0  0  0  0  0  0  0  0  0
    0.6270   -0.1867   -1.7076 C   0  0  0  0  0  0  0  0  0  0  0  0
   -0.2064   -0.0936   -2.4096 H   0  0  0  0  0  0  0  0  0  0  0  0
    1.2436    0.7107   -1.8125 H   0  0  0  0  0  0  0  0  0  0  0  0
    1.4834   -1.3887   -2.0717 C   0  0  0  0  0  0  0  0  0  0  0  0
    2.6106   -1.4486   -1.6082 O   0  0  0  0  0  0  0  0  0  0  0  0
    0.9513   -2.3309   -2.8845 O   0  0  0  0  0  0  0  0  0  0  0  0
    1.6153   -3.0343   -2.9446 H   0  0  0  0  0  0  0  0  0  0  0  0
   -0.0444    1.0781    0.3847 C   0  0  0  0  0  0  0  0  0  0  0  0
   -1.0146    1.7742    0.1094 O   0  0  0  0  0  0  0  0  0  0  0  0
    0.8768    1.5247    1.3136 N   0  0  0  0  0  0  0  0  0  0  0  0
    1.6657    0.9192    1.5250 H   0  0  0  0  0  0  0  0  0  0  0  0
    0.7805    2.8176    1.9801 C   0  0  0  0  0  0  0  0  0  0  0  0
   -0.1593    2.8930    2.5372 H   0  0  0  0  0  0  0  0  0  0  0  0
    1.6093    2.9432    2.6835 H   0  0  0  0  0  0  0  0  0  0  0  0
    0.8220    3.6305    1.2475 H   0  0  0  0  0  0  0  0  0  0  0  0
  1  2  1  0  0  0  0
  2  3  1  0  0  0  0
  2  4  1  0  0  0  0
  2  5  1  0  0  0  0
  5  6  2  0  0  0  0
  5  7  1  0  0  0  0
  7  8  1  0  0  0  0
  7  9  1  0  0  0  0
  9 10  1  0  0  0  0
  9 11  1  0  0  0  0
  9 18  1  0  0  0  0
 11 12  1  0  0  0  0
 11 13  1  0  0  0  0
 11 14  1  0  0  0  0
 14 15  2  0  0  0  0
 14 16  1  0  0  0  0
 16 17  1  0  0  0  0
 18 19  2  0  0  0  0
 18 20  1  0  0  0  0
 20 21  1  0  0  0  0
 20 22  1  0  0  0  0
 22 23  1  0  0  0  0
 22 24  1  0  0  0  0
 22 25  1  0  0  0  0
M  END
$$$$

  -OEChem-02102214113D

 25 24  0     1  0  0  0  0  0999 V2000
   -2.7127   -3.9753    0.4146 H   0  0  0  0  0  0  0  0  0  0  0  0
   -2.7533   -2.9267    0.1073 C   0  0  0  0  0  0  0  0  0  0  0  0
   -3.3678   -2.3738    0.8218 H   0  0  0  0  0  0  0  0  0  0  0  0
   -3.2136   -2.8671   -0.8818 H   0  0  0  0  0  0  0  0  0  0  0  0
   -1.3546   -2.3410    0.0632 C   0  0  0  0  0  0  0  0  0  0  0  0
   -0.3922   -3.0392    0.3388 O   0  0  0  0  0  0  0  0  0  0  0  0
   -1.1740   -1.0195   -0.2890 N   0  0  0  0  0  0  0  0  0  0  0  0
   -2.0092   -0.4514   -0.4240 H   0  0  0  0  0  0  0  0  0  0  0  0
    0.1141   -0.3131   -0.2616 C   0  0  1  0  0  0  0  0  0  0  0  0
    0.8354   -0.8604    0.3562 H   0  0  0  0  0  0  0  0  0  0  0  0
    0.6373   -0.1931   -1.7055 C   0  0  0  0  0  0  0  0  0  0  0  0
   -0.1971   -0.0979   -2.4063 H   0  0  0  0  0  0  0  0  0  0  0  0
    1.2519    0.7057   -1.8081 H   0  0  0  0  0  0  0  0  0  0  0  0
    1.5011   -1.3863   -2.0878 C   0  0  0  0  0  0  0  0  0  0  0  0
    2.5089   -1.6028   -1.4344 O   0  0  0  0  0  0  0  0  0  0  0  0
    1.1042   -2.1501   -3.1318 O   0  0  0  0  0  0  0  0  0  0  0  0
    1.7450   -2.8753   -3.1853 H   0  0  0  0  0  0  0  0  0  0  0  0
   -0.0441    1.0769    0.3827 C   0  0  0  0  0  0  0  0  0  0  0  0
   -1.0130    1.7722    0.1008 O   0  0  0  0  0  0  0  0  0  0  0  0
    0.8720    1.5254    1.3154 N   0  0  0  0  0  0  0  0  0  0  0  0
    1.6566    0.9175    1.5362 H   0  0  0  0  0  0  0  0  0  0  0  0
    0.7697    2.8175    1.9825 C   0  0  0  0  0  0  0  0  0  0  0  0
   -0.1676    2.8858    2.5448 H   0  0  0  0  0  0  0  0  0  0  0  0
    1.6016    2.9494    2.6811 H   0  0  0  0  0  0  0  0  0  0  0  0
    0.8013    3.6306    1.2497 H   0  0  0  0  0  0  0  0  0  0  0  0
  1  2  1  0  0  0  0
  2  3  1  0  0  0  0
  2  4  1  0  0  0  0
  2  5  1  0  0  0  0
  5  6  2  0  0  0  0
  5  7  1  0  0  0  0
  7  8  1  0  0  0  0
  7  9  1  0  0  0  0
  9 10  1  0  0  0  0
  9 11  1  0  0  0  0
  9 18  1  0  0  0  0
 11 12  1  0  0  0  0
 11 13  1  0  0  0  0
 11 14  1  0  0  0  0
 14 15  2  0  0  0  0
 14 16  1  0  0  0  0
 16 17  1  0  0  0  0
 18 19  2  0  0  0  0
 18 20  1  0  0  0  0
 20 21  1  0  0  0  0
 20 22  1  0  0  0  0
 22 23  1  0  0  0  0
 22 24  1  0  0  0  0
 22 25  1  0  0  0  0
M  END
$$$$

  -OEChem-02102214113D

 25 24  0     1  0  0  0  0  0999 V2000
   -2.7353   -3.9648    0.4250 H   0  0  0  0  0  0  0  0  0  0  0  0
   -2.7625   -2.9159    0.1165 C   0  0  0  0  0  0  0  0  0  0  0  0
   -3.3782   -2.3564    0.8249 H   0  0  0  0  0  0  0  0  0  0  0  0
   -3.2125   -2.8525   -0.8771 H   0  0  0  0  0  0  0  0  0  0  0  0
   -1.3579   -2.3434    0.0853 C   0  0  0  0  0  0  0  0  0  0  0  0
   -0.4070   -3.0462    0.3853 O   0  0  0  0  0  0  0  0  0  0  0  0
   -1.1636   -1.0269   -0.2778 N   0  0  0  0  0  0  0  0  0  0  0  0
   -1.9943   -0.4553   -0.4264 H   0  0  0  0  0  0  0  0  0  0  0  0
    0.1274   -0.3250   -0.2483 C   0  0  1  0  0  0  0  0  0  0  0  0
    0.8427   -0.8681    0.3797 H   0  0  0  0  0  0  0  0  0  0  0  0
    0.6532   -0.2091   -1.6946 C   0  0  0  0  0  0  0  0  0  0  0  0
   -0.1851   -0.1060   -2.3896 H   0  0  0  0  0  0  0  0  0  0  0  0
    1.2663    0.6910   -1.7940 H   0  0  0  0  0  0  0  0  0  0  0  0
    1.5204   -1.3906   -2.1131 C   0  0  0  0  0  0  0  0  0  0  0  0
    2.3751   -1.7993   -1.3445 O   0  0  0  0  0  0  0  0  0  0  0  0
    1.2978   -1.9256   -3.3358 O   0  0  0  0  0  0  0  0  0  0  0  0
    1.9116   -2.6723   -3.4111 H   0  0  0  0  0  0  0  0  0  0  0  0
   -0.0361    1.0709    0.3817 C   0  0  0  0  0  0  0  0  0  0  0  0
   -1.0004    1.7650    0.0811 O   0  0  0  0  0  0  0  0  0  0  0  0
    0.8709    1.5296    1.3185 N   0  0  0  0  0  0  0  0  0  0  0  0
    1.6418    0.9158    1.5695 H   0  0  0  0  0  0  0  0  0  0  0  0
    0.7523    2.8228    1.9810 C   0  0  0  0  0  0  0  0  0  0  0  0
   -0.1784    2.8752    2.5555 H   0  0  0  0  0  0  0  0  0  0  0  0
    1.5912    2.9751    2.6669 H   0  0  0  0  0  0  0  0  0  0  0  0
    0.7575    3.6327    1.2438 H   0  0  0  0  0  0  0  0  0  0  0  0
  1  2  1  0  0  0  0
  2  3  1  0  0  0  0
  2  4  1  0  0  0  0
  2  5  1  0  0  0  0
  5  6  2  0  0  0  0
  5  7  1  0  0  0  0
  7  8  1  0  0  0  0
  7  9  1  0  0  0  0
  9 10  1  0  0  0  0
  9 11  1  0  0  0  0
  9 18  1  0  0  0  0
 11 12  1  0  0  0  0
 11 13  1  0  0  0  0
 11 14  1  0  0  0  0
 14 15  2  0  0  0  0
 14 16  1  0  0  0  0
 16 17  1  0  0  0  0
 18 19  2  0  0  0  0
 18 20  1  0  0  0  0
 20 21  1  0  0  0  0
 20 22  1  0  0  0  0
 22 23  1  0  0  0  0
 22 24  1  0  0  0  0
 22 25  1  0  0  0  0
M  END
$$$$

  -OEChem-02102214113D

 25 24  0     1  0  0  0  0  0999 V2000
   -2.7553   -3.9636    0.4262 H   0  0  0  0  0  0  0  0  0  0  0  0
   -2.7699   -2.9165    0.1113 C   0  0  0  0  0  0  0  0  0  0  0  0
   -3.4055   -2.3512    0.7972 H   0  0  0  0  0  0  0  0  0  0  0  0
   -3.1884   -2.8577   -0.8963 H   0  0  0  0  0  0  0  0  0  0  0  0
   -1.3632   -2.3483    0.1211 C   0  0  0  0  0  0  0  0  0  0  0  0
   -0.4287   -3.0455    0.4783 O   0  0  0  0  0  0  0  0  0  0  0  0
   -1.1545   -1.0375   -0.2542 N   0  0  0  0  0  0  0  0  0  0  0  0
   -1.9789   -0.4686   -0.4411 H   0  0  0  0  0  0  0  0  0  0  0  0
    0.1396   -0.3408   -0.2267 C   0  0  1  0  0  0  0  0  0  0  0  0
    0.8551   -0.8795    0.4047 H   0  0  0  0  0  0  0  0  0  0  0  0
    0.6636   -0.2224   -1.6763 C   0  0  0  0  0  0  0  0  0  0  0  0
   -0.1794   -0.1098   -2.3640 H   0  0  0  0  0  0  0  0  0  0  0  0
    1.2756    0.6788   -1.7697 H   0  0  0  0  0  0  0  0  0  0  0  0
    1.5311   -1.3905   -2.1363 C   0  0  0  0  0  0  0  0  0  0  0  0
    2.2060   -2.0025   -1.3263 O   0  0  0  0  0  0  0  0  0  0  0  0
    1.5135   -1.6788   -3.4581 O   0  0  0  0  0  0  0  0  0  0  0  0
    2.0980   -2.4446   -3.5673 H   0  0  0  0  0  0  0  0  0  0  0  0
   -0.0299    1.0612    0.3892 C   0  0  0  0  0  0  0  0  0  0  0  0
   -0.9872    1.7556    0.0672 O   0  0  0  0  0  0  0  0  0  0  0  0
    0.8696    1.5310    1.3278 N   0  0  0  0  0  0  0  0  0  0  0  0
    1.6300    0.9148    1.6031 H   0  0  0  0  0  0  0  0  0  0  0  0
    0.7465    2.8334    1.9712 C   0  0  0  0  0  0  0  0  0  0  0  0
   -0.1924    2.8969    2.5314 H   0  0  0  0  0  0  0  0  0  0  0  0
    1.5760    2.9922    2.6671 H   0  0  0  0  0  0  0  0  0  0  0  0
    0.7655    3.6335    1.2234 H   0  0  0  0  0  0  0  0  0  0  0  0
  1  2  1  0  0  0  0
  2  3  1  0  0  0  0
  2  4  1  0  0  0  0
  2  5  1  0  0  0  0
  5  6  2  0  0  0  0
  5  7  1  0  0  0  0
  7  8  1  0  0  0  0
  7  9  1  0  0  0  0
  9 10  1  0  0  0  0
  9 11  1  0  0  0  0
  9 18  1  0  0  0  0
 11 12  1  0  0  0  0
 11 13  1  0  0  0  0
 11 14  1  0  0  0  0
 14 15  2  0  0  0  0
 14 16  1  0  0  0  0
 16 17  1  0  0  0  0
 18 19  2  0  0  0  0
 18 20  1  0  0  0  0
 20 21  1  0  0  0  0
 20 22  1  0  0  0  0
 22 23  1  0  0  0  0
 22 24  1  0  0  0  0
 22 25  1  0  0  0  0
M  END
$$$$

  -OEChem-02102214113D

 25 24  0     1  0  0  0  0  0999 V2000
   -2.7604   -3.9706    0.4150 H   0  0  0  0  0  0  0  0  0  0  0  0
   -2.7694   -2.9237    0.0988 C   0  0  0  0  0  0  0  0  0  0  0  0
   -3.4302   -2.3605    0.7621 H   0  0  0  0  0  0  0  0  0  0  0  0
   -3.1543   -2.8679   -0.9222 H   0  0  0  0  0  0  0  0  0  0  0  0
   -1.3665   -2.3487    0.1557 C   0  0  0  0  0  0  0  0  0  0  0  0
   -0.4499   -3.0298    0.5829 O   0  0  0  0  0  0  0  0  0  0  0  0
   -1.1495   -1.0426   -0.2324 N   0  0  0  0  0  0  0  0  0  0  0  0
   -1.9678   -0.4832   -0.4677 H   0  0  0  0  0  0  0  0  0  0  0  0
    0.1470   -0.3493   -0.2104 C   0  0  1  0  0  0  0  0  0  0  0  0
    0.8660   -0.8856    0.4191 H   0  0  0  0  0  0  0  0  0  0  0  0
    0.6664   -0.2293   -1.6632 C   0  0  0  0  0  0  0  0  0  0  0  0
   -0.1797   -0.1090   -2.3456 H   0  0  0  0  0  0  0  0  0  0  0  0
    1.2787    0.6722   -1.7522 H   0  0  0  0  0  0  0  0  0  0  0  0
    1.5322   -1.3882   -2.1511 C   0  0  0  0  0  0  0  0  0  0  0  0
    2.0046   -2.1845   -1.3596 O   0  0  0  0  0  0  0  0  0  0  0  0
    1.7413   -1.4576   -3.4857 O   0  0  0  0  0  0  0  0  0  0  0  0
    2.2938   -2.2422   -3.6243 H   0  0  0  0  0  0  0  0  0  0  0  0
   -0.0237    1.0588    0.3925 C   0  0  0  0  0  0  0  0  0  0  0  0
   -0.9701    1.7583    0.0501 O   0  0  0  0  0  0  0  0  0  0  0  0
    0.8746    1.5356    1.3288 N   0  0  0  0  0  0  0  0  0  0  0  0
    1.6187    0.9112    1.6287 H   0  0  0  0  0  0  0  0  0  0  0  0
    0.7484    2.8408    1.9661 C   0  0  0  0  0  0  0  0  0  0  0  0
   -0.2032    2.9149    2.5029 H   0  0  0  0  0  0  0  0  0  0  0  0
    1.5620    2.9928    2.6820 H   0  0  0  0  0  0  0  0  0  0  0  0
    0.7933    3.6386    1.2172 H   0  0  0  0  0  0  0  0  0  0  0  0
  1  2  1  0  0  0  0
  2  3  1  0  0  0  0
  2  4  1  0  0  0  0
  2  5  1  0  0  0  0
  5  6  2  0  0  0  0
  5  7  1  0  0  0  0
  7  8  1  0  0  0  0
  7  9  1  0  0  0  0
  9 10  1  0  0  0  0
  9 11  1  0  0  0  0
  9 18  1  0  0  0  0
 11 12  1  0  0  0  0
 11 13  1  0  0  0  0
 11 14  1  0  0  0  0
 14 15  2  0  0  0  0
 14 16  1  0  0  0  0
 16 17  1  0  0  0  0
 18 19  2  0  0  0  0
 18 20  1  0  0  0  0
 20 21  1  0  0  0  0
 20 22  1  0  0  0  0
 22 23  1  0  0  0  0
 22 24  1  0  0  0  0
 22 25  1  0  0  0  0
M  END
$$$$

  -OEChem-02102214113D

 25 24  0     1  0  0  0  0  0999 V2000
   -2.7554   -3.9823    0.3901 H   0  0  0  0  0  0  0  0  0  0  0  0
   -2.7634   -2.9353    0.0742 C   0  0  0  0  0  0  0  0  0  0  0  0
   -3.4587   -2.3802    0.7085 H   0  0  0  0  0  0  0  0  0  0  0  0
   -3.1047   -2.8838   -0.9623 H   0  0  0  0  0  0  0  0  0  0  0  0
   -1.3708   -2.3445    0.1907 C   0  0  0  0  0  0  0  0  0  0  0  0
   -0.4751   -3.0019    0.6932 O   0  0  0  0  0  0  0  0  0  0  0  0
   -1.1484   -1.0423   -0.2083 N   0  0  0  0  0  0  0  0  0  0  0  0
   -1.9577   -0.4966   -0.4991 H   0  0  0  0  0  0  0  0  0  0  0  0
    0.1513   -0.3551   -0.1946 C   0  0  1  0  0  0  0  0  0  0  0  0
    0.8758   -0.8926    0.4278 H   0  0  0  0  0  0  0  0  0  0  0  0
    0.6642   -0.2295   -1.6500 C   0  0  0  0  0  0  0  0  0  0  0  0
   -0.1836   -0.0978   -2.3280 H   0  0  0  0  0  0  0  0  0  0  0  0
    1.2813    0.6698   -1.7332 H   0  0  0  0  0  0  0  0  0  0  0  0
    1.5232   -1.3850   -2.1576 C   0  0  0  0  0  0  0  0  0  0  0  0
    1.7767   -2.3362   -1.4415 O   0  0  0  0  0  0  0  0  0  0  0  0
    1.9755   -1.2738   -3.4274 O   0  0  0  0  0  0  0  0  0  0  0  0
    2.4889   -2.0792   -3.5949 H   0  0  0  0  0  0  0  0  0  0  0  0
   -0.0172    1.0575    0.3993 C   0  0  0  0  0  0  0  0  0  0  0  0
   -0.9550    1.7619    0.0430 O   0  0  0  0  0  0  0  0  0  0  0  0
    0.8827    1.5391    1.3317 N   0  0  0  0  0  0  0  0  0  0  0  0
    1.6132    0.9085    1.6508 H   0  0  0  0  0  0  0  0  0  0  0  0
    0.7564    2.8479    1.9617 C   0  0  0  0  0  0  0  0  0  0  0  0
   -0.1927    2.9233    2.5027 H   0  0  0  0  0  0  0  0  0  0  0  0
    1.5728    3.0058    2.6729 H   0  0  0  0  0  0  0  0  0  0  0  0
    0.7967    3.6412    1.2079 H   0  0  0  0  0  0  0  0  0  0  0  0
  1  2  1  0  0  0  0
  2  3  1  0  0  0  0
  2  4  1  0  0  0  0
  2  5  1  0  0  0  0
  5  6  2  0  0  0  0
  5  7  1  0  0  0  0
  7  8  1  0  0  0  0
  7  9  1  0  0  0  0
  9 10  1  0  0  0  0
  9 11  1  0  0  0  0
  9 18  1  0  0  0  0
 11 12  1  0  0  0  0
 11 13  1  0  0  0  0
 11 14  1  0  0  0  0
 14 15  2  0  0  0  0
 14 16  1  0  0  0  0
 16 17  1  0  0  0  0
 18 19  2  0  0  0  0
 18 20  1  0  0  0  0
 20 21  1  0  0  0  0
 20 22  1  0  0  0  0
 22 23  1  0  0  0  0
 22 24  1  0  0  0  0
 22 25  1  0  0  0  0
M  END
$$$$

  -OEChem-02102214113D

 25 24  0     1  0  0  0  0  0999 V2000
   -2.7383   -3.9965    0.3672 H   0  0  0  0  0  0  0  0  0  0  0  0
   -2.7510   -2.9500    0.0502 C   0  0  0  0  0  0  0  0  0  0  0  0
   -3.4761   -2.4053    0.6593 H   0  0  0  0  0  0  0  0  0  0  0  0
   -3.0567   -2.9044   -0.9976 H   0  0  0  0  0  0  0  0  0  0  0  0
   -1.3726   -2.3380    0.2143 C   0  0  0  0  0  0  0  0  0  0  0  0
   -0.4921   -2.9707    0.7734 O   0  0  0  0  0  0  0  0  0  0  0  0
   -1.1521   -1.0372   -0.1907 N   0  0  0  0  0  0  0  0  0  0  0  0
   -1.9538   -0.5084   -0.5287 H   0  0  0  0  0  0  0  0  0  0  0  0
    0.1498   -0.3544   -0.1848 C   0  0  1  0  0  0  0  0  0  0  0  0
    0.8797   -0.8955    0.4281 H   0  0  0  0  0  0  0  0  0  0  0  0
    0.6563   -0.2226   -1.6421 C   0  0  0  0  0  0  0  0  0  0  0  0
   -0.1916   -0.0834   -2.3180 H   0  0  0  0  0  0  0  0  0  0  0  0
    1.2769    0.6749   -1.7206 H   0  0  0  0  0  0  0  0  0  0  0  0
    1.5084   -1.3796   -2.1564 C   0  0  0  0  0  0  0  0  0  0  0  0
    1.5386   -2.4416   -1.5631 O   0  0  0  0  0  0  0  0  0  0  0  0
    2.2073   -1.1456   -3.2905 O   0  0  0  0  0  0  0  0  0  0  0  0
    2.6809   -1.9697   -3.4826 H   0  0  0  0  0  0  0  0  0  0  0  0
   -0.0141    1.0603    0.4068 C   0  0  0  0  0  0  0  0  0  0  0  0
   -0.9445    1.7710    0.0434 O   0  0  0  0  0  0  0  0  0  0  0  0
    0.8902    1.5423    1.3348 N   0  0  0  0  0  0  0  0  0  0  0  0
    1.6107    0.9056    1.6641 H   0  0  0  0  0  0  0  0  0  0  0  0
    0.7682    2.8531    1.9616 C   0  0  0  0  0  0  0  0  0  0  0  0
   -0.1781    2.9302    2.5073 H   0  0  0  0  0  0  0  0  0  0  0  0
    1.5889    3.0129    2.6677 H   0  0  0  0  0  0  0  0  0  0  0  0
    0.8041    3.6446    1.2056 H   0  0  0  0  0  0  0  0  0  0  0  0
  1  2  1  0  0  0  0
  2  3  1  0  0  0  0
  2  4  1  0  0  0  0
  2  5  1  0  0  0  0
  5  6  2  0  0  0  0
  5  7  1  0  0  0  0
  7  8  1  0  0  0  0
  7  9  1  0  0  0  0
  9 10  1  0  0  0  0
  9 11  1  0  0  0  0
  9 18  1  0  0  0  0
 11 12  1  0  0  0  0
 11 13  1  0  0  0  0
 11 14  1  0  0  0  0
 14 15  2  0  0  0  0
 14 16  1  0  0  0  0
 16 17  1  0  0  0  0
 18 19  2  0  0  0  0
 18 20  1  0  0  0  0
 20 21  1  0  0  0  0
 20 22  1  0  0  0  0
 22 23  1  0  0  0  0
 22 24  1  0  0  0  0
 22 25  1  0  0  0  0
M  END
$$$$

  -OEChem-02102214113D

 25 24  0     1  0  0  0  0  0999 V2000
   -2.7179   -4.0069    0.3639 H   0  0  0  0  0  0  0  0  0  0  0  0
   -2.7376   -2.9643    0.0344 C   0  0  0  0  0  0  0  0  0  0  0  0
   -3.4828   -2.4216    0.6208 H   0  0  0  0  0  0  0  0  0  0  0  0
   -3.0204   -2.9350   -1.0204 H   0  0  0  0  0  0  0  0  0  0  0  0
   -1.3712   -2.3324    0.2214 C   0  0  0  0  0  0  0  0  0  0  0  0
   -0.4938   -2.9475    0.8061 O   0  0  0  0  0  0  0  0  0  0  0  0
   -1.1591   -1.0298   -0.1836 N   0  0  0  0  0  0  0  0  0  0  0  0
   -1.9568   -0.5143   -0.5499 H   0  0  0  0  0  0  0  0  0  0  0  0
    0.1437   -0.3492   -0.1824 C   0  0  1  0  0  0  0  0  0  0  0  0
    0.8772   -0.8939    0.4228 H   0  0  0  0  0  0  0  0  0  0  0  0
    0.6472   -0.2096   -1.6396 C   0  0  0  0  0  0  0  0  0  0  0  0
   -0.1999   -0.0675   -2.3156 H   0  0  0  0  0  0  0  0  0  0  0  0
    1.2689    0.6878   -1.7147 H   0  0  0  0  0  0  0  0  0  0  0  0
    1.4945   -1.3714   -2.1496 C   0  0  0  0  0  0  0  0  0  0  0  0
    1.3130   -2.4972   -1.7247 O   0  0  0  0  0  0  0  0  0  0  0  0
    2.4294   -1.0727   -3.0808 O   0  0  0  0  0  0  0  0  0  0  0  0
    2.8640   -1.9124   -3.2964 H   0  0  0  0  0  0  0  0  0  0  0  0
   -0.0170    1.0639    0.4139 C   0  0  0  0  0  0  0  0  0  0  0  0
   -0.9403    1.7819    0.0470 O   0  0  0  0  0  0  0  0  0  0  0  0
    0.8921    1.5418    1.3394 N   0  0  0  0  0  0  0  0  0  0  0  0
    1.6040    0.8986    1.6747 H   0  0  0  0  0  0  0  0  0  0  0  0
    0.7796    2.8550    1.9627 C   0  0  0  0  0  0  0  0  0  0  0  0
   -0.1586    2.9347    2.5220 H   0  0  0  0  0  0  0  0  0  0  0  0
    1.6107    3.0178    2.6556 H   0  0  0  0  0  0  0  0  0  0  0  0
    0.8047    3.6432    1.2027 H   0  0  0  0  0  0  0  0  0  0  0  0
  1  2  1  0  0  0  0
  2  3  1  0  0  0  0
  2  4  1  0  0  0  0
  2  5  1  0  0  0  0
  5  6  2  0  0  0  0
  5  7  1  0  0  0  0
  7  8  1  0  0  0  0
  7  9  1  0  0  0  0
  9 10  1  0  0  0  0
  9 11  1  0  0  0  0
  9 18  1  0  0  0  0
 11 12  1  0  0  0  0
 11 13  1  0  0  0  0
 11 14  1  0  0  0  0
 14 15  2  0  0  0  0
 14 16  1  0  0  0  0
 16 17  1  0  0  0  0
 18 19  2  0  0  0  0
 18 20  1  0  0  0  0
 20 21  1  0  0  0  0
 20 22  1  0  0  0  0
 22 23  1  0  0  0  0
 22 24  1  0  0  0  0
 22 25  1  0  0  0  0
M  END
$$$$

  -OEChem-02102214113D

 25 24  0     1  0  0  0  0  0999 V2000
   -2.6997   -4.0130    0.3664 H   0  0  0  0  0  0  0  0  0  0  0  0
   -2.7265   -2.9729    0.0296 C   0  0  0  0  0  0  0  0  0  0  0  0
   -3.4763   -2.4314    0.6112 H   0  0  0  0  0  0  0  0  0  0  0  0
   -3.0079   -2.9529   -1.0259 H   0  0  0  0  0  0  0  0  0  0  0  0
   -1.3648   -2.3302    0.2134 C   0  0  0  0  0  0  0  0  0  0  0  0
   -0.4769   -2.9410    0.7875 O   0  0  0  0  0  0  0  0  0  0  0  0
   -1.1640   -1.0244   -0.1867 N   0  0  0  0  0  0  0  0  0  0  0  0
   -1.9646   -0.5131   -0.5525 H   0  0  0  0  0  0  0  0  0  0  0  0
    0.1366   -0.3410   -0.1888 C   0  0  1  0  0  0  0  0  0  0  0  0
    0.8739   -0.8866    0.4109 H   0  0  0  0  0  0  0  0  0  0  0  0
    0.6378   -0.1955   -1.6448 C   0  0  0  0  0  0  0  0  0  0  0  0
   -0.2088   -0.0575   -2.3226 H   0  0  0  0  0  0  0  0  0  0  0  0
    1.2571    0.7035   -1.7216 H   0  0  0  0  0  0  0  0  0  0  0  0
    1.4841   -1.3638   -2.1387 C   0  0  0  0  0  0  0  0  0  0  0  0
    1.1243   -2.5058   -1.9194 O   0  0  0  0  0  0  0  0  0  0  0  0
    2.6221   -1.0580   -2.8038 O   0  0  0  0  0  0  0  0  0  0  0  0
    3.0263   -1.9079   -3.0379 H   0  0  0  0  0  0  0  0  0  0  0  0
   -0.0231    1.0686    0.4158 C   0  0  0  0  0  0  0  0  0  0  0  0
   -0.9497    1.7873    0.0586 O   0  0  0  0  0  0  0  0  0  0  0  0
    0.8909    1.5423    1.3384 N   0  0  0  0  0  0  0  0  0  0  0  0
    1.6078    0.8996    1.6633 H   0  0  0  0  0  0  0  0  0  0  0  0
    0.7852    2.8543    1.9648 C   0  0  0  0  0  0  0  0  0  0  0  0
   -0.1483    2.9345    2.5319 H   0  0  0  0  0  0  0  0  0  0  0  0
    1.6222    3.0147    2.6512 H   0  0  0  0  0  0  0  0  0  0  0  0
    0.8055    3.6434    1.2057 H   0  0  0  0  0  0  0  0  0  0  0  0
  1  2  1  0  0  0  0
  2  3  1  0  0  0  0
  2  4  1  0  0  0  0
  2  5  1  0  0  0  0
  5  6  2  0  0  0  0
  5  7  1  0  0  0  0
  7  8  1  0  0  0  0
  7  9  1  0  0  0  0
  9 10  1  0  0  0  0
  9 11  1  0  0  0  0
  9 18  1  0  0  0  0
 11 12  1  0  0  0  0
 11 13  1  0  0  0  0
 11 14  1  0  0  0  0
 14 15  2  0  0  0  0
 14 16  1  0  0  0  0
 16 17  1  0  0  0  0
 18 19  2  0  0  0  0
 18 20  1  0  0  0  0
 20 21  1  0  0  0  0
 20 22  1  0  0  0  0
 22 23  1  0  0  0  0
 22 24  1  0  0  0  0
 22 25  1  0  0  0  0
M  END
$$$$

  -OEChem-02102214113D

 25 24  0     1  0  0  0  0  0999 V2000
   -2.6776   -4.0185    0.3601 H   0  0  0  0  0  0  0  0  0  0  0  0
   -2.7148   -2.9767    0.0299 C   0  0  0  0  0  0  0  0  0  0  0  0
   -3.4568   -2.4426    0.6280 H   0  0  0  0  0  0  0  0  0  0  0  0
   -3.0146   -2.9517   -1.0205 H   0  0  0  0  0  0  0  0  0  0  0  0
   -1.3528   -2.3293    0.1931 C   0  0  0  0  0  0  0  0  0  0  0  0
   -0.4452   -2.9461    0.7297 O   0  0  0  0  0  0  0  0  0  0  0  0
   -1.1645   -1.0189   -0.1983 N   0  0  0  0  0  0  0  0  0  0  0  0
   -1.9732   -0.5049   -0.5423 H   0  0  0  0  0  0  0  0  0  0  0  0
    0.1323   -0.3292   -0.2012 C   0  0  1  0  0  0  0  0  0  0  0  0
    0.8732   -0.8739    0.3948 H   0  0  0  0  0  0  0  0  0  0  0  0
    0.6287   -0.1828   -1.6562 C   0  0  0  0  0  0  0  0  0  0  0  0
   -0.2180   -0.0543   -2.3361 H   0  0  0  0  0  0  0  0  0  0  0  0
    1.2459    0.7168   -1.7409 H   0  0  0  0  0  0  0  0  0  0  0  0
    1.4745   -1.3609   -2.1222 C   0  0  0  0  0  0  0  0  0  0  0  0
    0.9852   -2.4762   -2.1321 O   0  0  0  0  0  0  0  0  0  0  0  0
    2.7546   -1.1052   -2.4786 O   0  0  0  0  0  0  0  0  0  0  0  0
    3.1341   -1.9630   -2.7257 H   0  0  0  0  0  0  0  0  0  0  0  0
   -0.0275    1.0756    0.4138 C   0  0  0  0  0  0  0  0  0  0  0  0
   -0.9625    1.7908    0.0724 O   0  0  0  0  0  0  0  0  0  0  0  0
    0.8900    1.5464    1.3346 N   0  0  0  0  0  0  0  0  0  0  0  0
    1.6230    0.9112    1.6374 H   0  0  0  0  0  0  0  0  0  0  0  0
    0.7845    2.8544    1.9695 C   0  0  0  0  0  0  0  0  0  0  0  0
   -0.1494    2.9310    2.5363 H   0  0  0  0  0  0  0  0  0  0  0  0
    1.6208    3.0100    2.6578 H   0  0  0  0  0  0  0  0  0  0  0  0
    0.8056    3.6486    1.2157 H   0  0  0  0  0  0  0  0  0  0  0  0
  1  2  1  0  0  0  0
  2  3  1  0  0  0  0
  2  4  1  0  0  0  0
  2  5  1  0  0  0  0
  5  6  2  0  0  0  0
  5  7  1  0  0  0  0
  7  8  1  0  0  0  0
  7  9  1  0  0  0  0
  9 10  1  0  0  0  0
  9 11  1  0  0  0  0
  9 18  1  0  0  0  0
 11 12  1  0  0  0  0
 11 13  1  0  0  0  0
 11 14  1  0  0  0  0
 14 15  2  0  0  0  0
 14 16  1  0  0  0  0
 16 17  1  0  0  0  0
 18 19  2  0  0  0  0
 18 20  1  0  0  0  0
 20 21  1  0  0  0  0
 20 22  1  0  0  0  0
 22 23  1  0  0  0  0
 22 24  1  0  0  0  0
 22 25  1  0  0  0  0
M  END
$$$$

  -OEChem-02102214113D

 25 24  0     1  0  0  0  0  0999 V2000
   -2.6605   -4.0203    0.3534 H   0  0  0  0  0  0  0  0  0  0  0  0
   -2.7056   -2.9746    0.0366 C   0  0  0  0  0  0  0  0  0  0  0  0
   -3.4272   -2.4458    0.6637 H   0  0  0  0  0  0  0  0  0  0  0  0
   -3.0384   -2.9366   -1.0034 H   0  0  0  0  0  0  0  0  0  0  0  0
   -1.3383   -2.3308    0.1637 C   0  0  0  0  0  0  0  0  0  0  0  0
   -0.4091   -2.9604    0.6461 O   0  0  0  0  0  0  0  0  0  0  0  0
   -1.1611   -1.0160   -0.2172 N   0  0  0  0  0  0  0  0  0  0  0  0
   -1.9801   -0.4953   -0.5254 H   0  0  0  0  0  0  0  0  0  0  0  0
    0.1307   -0.3180   -0.2164 C   0  0  1  0  0  0  0  0  0  0  0  0
    0.8738   -0.8607    0.3790 H   0  0  0  0  0  0  0  0  0  0  0  0
    0.6238   -0.1750   -1.6697 C   0  0  0  0  0  0  0  0  0  0  0  0
   -0.2224   -0.0580   -2.3529 H   0  0  0  0  0  0  0  0  0  0  0  0
    1.2407    0.7236   -1.7642 H   0  0  0  0  0  0  0  0  0  0  0  0
    1.4707   -1.3629   -2.1010 C   0  0  0  0  0  0  0  0  0  0  0  0
    0.9159   -2.4176   -2.3551 O   0  0  0  0  0  0  0  0  0  0  0  0
    2.8132   -1.1961   -2.1339 O   0  0  0  0  0  0  0  0  0  0  0  0
    3.1763   -2.0570   -2.3946 H   0  0  0  0  0  0  0  0  0  0  0  0
   -0.0301    1.0824    0.4086 C   0  0  0  0  0  0  0  0  0  0  0  0
   -0.9758    1.7914    0.0845 O   0  0  0  0  0  0  0  0  0  0  0  0
    0.8882    1.5514    1.3298 N   0  0  0  0  0  0  0  0  0  0  0  0
    1.6407    0.9272    1.6069 H   0  0  0  0  0  0  0  0  0  0  0  0
    0.7790    2.8545    1.9746 C   0  0  0  0  0  0  0  0  0  0  0  0
   -0.1595    2.9277    2.5341 H   0  0  0  0  0  0  0  0  0  0  0  0
    1.6093    3.0032    2.6717 H   0  0  0  0  0  0  0  0  0  0  0  0
    0.8074    3.6549    1.2278 H   0  0  0  0  0  0  0  0  0  0  0  0
  1  2  1  0  0  0  0
  2  3  1  0  0  0  0
  2  4  1  0  0  0  0
  2  5  1  0  0  0  0
  5  6  2  0  0  0  0
  5  7  1  0  0  0  0
  7  8  1  0  0  0  0
  7  9  1  0  0  0  0
  9 10  1  0  0  0  0
  9 11  1  0  0  0  0
  9 18  1  0  0  0  0
 11 12  1  0  0  0  0
 11 13  1  0  0  0  0
 11 14  1  0  0  0  0
 14 15  2  0  0  0  0
 14 16  1  0  0  0  0
 16 17  1  0  0  0  0
 18 19  2  0  0  0  0
 18 20  1  0  0  0  0
 20 21  1  0  0  0  0
 20 22  1  0  0  0  0
 22 23  1  0  0  0  0
 22 24  1  0  0  0  0
 22 25  1  0  0  0  0
M  END
$$$$

  -OEChem-02102214113D

 25 24  0     1  0  0  0  0  0999 V2000
   -2.6554   -4.0137    0.3640 H   0  0  0  0  0  0  0  0  0  0  0  0
   -2.7046   -2.9677    0.0488 C   0  0  0  0  0  0  0  0  0  0  0  0
   -3.4025   -2.4350    0.6992 H   0  0  0  0  0  0  0  0  0  0  0  0
   -3.0706   -2.9274   -0.9800 H   0  0  0  0  0  0  0  0  0  0  0  0
   -1.3298   -2.3322    0.1321 C   0  0  0  0  0  0  0  0  0  0  0  0
   -0.3825   -2.9770    0.5554 O   0  0  0  0  0  0  0  0  0  0  0  0
   -1.1583   -1.0140   -0.2390 N   0  0  0  0  0  0  0  0  0  0  0  0
   -1.9862   -0.4803   -0.4982 H   0  0  0  0  0  0  0  0  0  0  0  0
    0.1298   -0.3095   -0.2295 C   0  0  1  0  0  0  0  0  0  0  0  0
    0.8704   -0.8505    0.3706 H   0  0  0  0  0  0  0  0  0  0  0  0
    0.6273   -0.1744   -1.6798 C   0  0  0  0  0  0  0  0  0  0  0  0
   -0.2154   -0.0671   -2.3691 H   0  0  0  0  0  0  0  0  0  0  0  0
    1.2457    0.7222   -1.7809 H   0  0  0  0  0  0  0  0  0  0  0  0
    1.4778   -1.3698   -2.0778 C   0  0  0  0  0  0  0  0  0  0  0  0
    0.9298   -2.3358   -2.5800 O   0  0  0  0  0  0  0  0  0  0  0  0
    2.8032   -1.3128   -1.8101 O   0  0  0  0  0  0  0  0  0  0  0  0
    3.1619   -2.1692   -2.0908 H   0  0  0  0  0  0  0  0  0  0  0  0
   -0.0337    1.0867    0.4027 C   0  0  0  0  0  0  0  0  0  0  0  0
   -0.9881    1.7897    0.0913 O   0  0  0  0  0  0  0  0  0  0  0  0
    0.8825    1.5520    1.3276 N   0  0  0  0  0  0  0  0  0  0  0  0
    1.6474    0.9352    1.5874 H   0  0  0  0  0  0  0  0  0  0  0  0
    0.7721    2.8524    1.9774 C   0  0  0  0  0  0  0  0  0  0  0  0
   -0.1658    2.9222    2.5384 H   0  0  0  0  0  0  0  0  0  0  0  0
    1.6030    2.9997    2.6740 H   0  0  0  0  0  0  0  0  0  0  0  0
    0.7982    3.6559    1.2337 H   0  0  0  0  0  0  0  0  0  0  0  0
  1  2  1  0  0  0  0
  2  3  1  0  0  0  0
  2  4  1  0  0  0  0
  2  5  1  0  0  0  0
  5  6  2  0  0  0  0
  5  7  1  0  0  0  0
  7  8  1  0  0  0  0
  7  9  1  0  0  0  0
  9 10  1  0  0  0  0
  9 11  1  0  0  0  0
  9 18  1  0  0  0  0
 11 12  1  0  0  0  0
 11 13  1  0  0  0  0
 11 14  1  0  0  0  0
 14 15  2  0  0  0  0
 14 16  1  0  0  0  0
 16 17  1  0  0  0  0
 18 19  2  0  0  0  0
 18 20  1  0  0  0  0
 20 21  1  0  0  0  0
 20 22  1  0  0  0  0
 22 23  1  0  0  0  0
 22 24  1  0  0  0  0
 22 25  1  0  0  0  0
M  END
$$$$

  -OEChem-02102214113D

 25 24  0     1  0  0  0  0  0999 V2000
   -2.6636   -4.0038    0.3759 H   0  0  0  0  0  0  0  0  0  0  0  0
   -2.7120   -2.9569    0.0637 C   0  0  0  0  0  0  0  0  0  0  0  0
   -3.3880   -2.4198    0.7332 H   0  0  0  0  0  0  0  0  0  0  0  0
   -3.1053   -2.9116   -0.9548 H   0  0  0  0  0  0  0  0  0  0  0  0
   -1.3301   -2.3329    0.1116 C   0  0  0  0  0  0  0  0  0  0  0  0
   -0.3733   -2.9919    0.4890 O   0  0  0  0  0  0  0  0  0  0  0  0
   -1.1584   -1.0137   -0.2552 N   0  0  0  0  0  0  0  0  0  0  0  0
   -1.9906   -0.4701   -0.4786 H   0  0  0  0  0  0  0  0  0  0  0  0
    0.1281   -0.3061   -0.2376 C   0  0  1  0  0  0  0  0  0  0  0  0
    0.8623   -0.8459    0.3715 H   0  0  0  0  0  0  0  0  0  0  0  0
    0.6360   -0.1817   -1.6845 C   0  0  0  0  0  0  0  0  0  0  0  0
   -0.2012   -0.0805   -2.3817 H   0  0  0  0  0  0  0  0  0  0  0  0
    1.2573    0.7124   -1.7875 H   0  0  0  0  0  0  0  0  0  0  0  0
    1.4909   -1.3821   -2.0569 C   0  0  0  0  0  0  0  0  0  0  0  0
    1.0171   -2.2316   -2.7915 O   0  0  0  0  0  0  0  0  0  0  0  0
    2.7383   -1.4493   -1.5350 O   0  0  0  0  0  0  0  0  0  0  0  0
    3.1044   -2.2923   -1.8454 H   0  0  0  0  0  0  0  0  0  0  0  0
   -0.0361    1.0892    0.3953 C   0  0  0  0  0  0  0  0  0  0  0  0
   -0.9973    1.7868    0.0934 O   0  0  0  0  0  0  0  0  0  0  0  0
    0.8777    1.5517    1.3239 N   0  0  0  0  0  0  0  0  0  0  0  0
    1.6505    0.9400    1.5724 H   0  0  0  0  0  0  0  0  0  0  0  0
    0.7642    2.8487    1.9798 C   0  0  0  0  0  0  0  0  0  0  0  0
   -0.1705    2.9108    2.5470 H   0  0  0  0  0  0  0  0  0  0  0  0
    1.5987    2.9979    2.6719 H   0  0  0  0  0  0  0  0  0  0  0  0
    0.7812    3.6552    1.2390 H   0  0  0  0  0  0  0  0  0  0  0  0
  1  2  1  0  0  0  0
  2  3  1  0  0  0  0
  2  4  1  0  0  0  0
  2  5  1  0  0  0  0
  5  6  2  0  0  0  0
  5  7  1  0  0  0  0
  7  8  1  0  0  0  0
  7  9  1  0  0  0  0
  9 10  1  0  0  0  0
  9 11  1  0  0  0  0
  9 18  1  0  0  0  0
 11 12  1  0  0  0  0
 11 13  1  0  0  0  0
 11 14  1  0  0  0  0
 14 15  2  0  0  0  0
 14 16  1  0  0  0  0
 16 17  1  0  0  0  0
 18 19  2  0  0  0  0
 18 20  1  0  0  0  0
 20 21  1  0  0  0  0
 20 22  1  0  0  0  0
 22 23  1  0  0  0  0
 22 24  1  0  0  0  0
 22 25  1  0  0  0  0
M  END
$$$$

  -OEChem-02102214113D

 25 24  0     1  0  0  0  0  0999 V2000
   -2.6840   -3.9874    0.4022 H   0  0  0  0  0  0  0  0  0  0  0  0
   -2.7275   -2.9401    0.0904 C   0  0  0  0  0  0  0  0  0  0  0  0
   -3.3749   -2.3929    0.7798 H   0  0  0  0  0  0  0  0  0  0  0  0
   -3.1517   -2.8897   -0.9154 H   0  0  0  0  0  0  0  0  0  0  0  0
   -1.3364   -2.3354    0.0952 C   0  0  0  0  0  0  0  0  0  0  0  0
   -0.3761   -3.0119    0.4298 O   0  0  0  0  0  0  0  0  0  0  0  0
   -1.1589   -1.0170   -0.2704 N   0  0  0  0  0  0  0  0  0  0  0  0
   -1.9923   -0.4605   -0.4552 H   0  0  0  0  0  0  0  0  0  0  0  0
    0.1283   -0.3111   -0.2413 C   0  0  1  0  0  0  0  0  0  0  0  0
    0.8517   -0.8504    0.3807 H   0  0  0  0  0  0  0  0  0  0  0  0
    0.6512   -0.1947   -1.6841 C   0  0  0  0  0  0  0  0  0  0  0  0
   -0.1804   -0.0924   -2.3879 H   0  0  0  0  0  0  0  0  0  0  0  0
    1.2751    0.6978   -1.7821 H   0  0  0  0  0  0  0  0  0  0  0  0
    1.5103   -1.3957   -2.0497 C   0  0  0  0  0  0  0  0  0  0  0  0
    1.1644   -2.0944   -2.9869 O   0  0  0  0  0  0  0  0  0  0  0  0
    2.6389   -1.6068   -1.3310 O   0  0  0  0  0  0  0  0  0  0  0  0
    3.0212   -2.4262   -1.6823 H   0  0  0  0  0  0  0  0  0  0  0  0
   -0.0394    1.0847    0.3889 C   0  0  0  0  0  0  0  0  0  0  0  0
   -1.0024    1.7790    0.0851 O   0  0  0  0  0  0  0  0  0  0  0  0
    0.8667    1.5463    1.3254 N   0  0  0  0  0  0  0  0  0  0  0  0
    1.6437    0.9387    1.5712 H   0  0  0  0  0  0  0  0  0  0  0  0
    0.7494    2.8436    1.9803 C   0  0  0  0  0  0  0  0  0  0  0  0
   -0.2006    2.9160    2.5203 H   0  0  0  0  0  0  0  0  0  0  0  0
    1.5649    2.9812    2.6969 H   0  0  0  0  0  0  0  0  0  0  0  0
    0.7979    3.6507    1.2417 H   0  0  0  0  0  0  0  0  0  0  0  0
  1  2  1  0  0  0  0
  2  3  1  0  0  0  0
  2  4  1  0  0  0  0
  2  5  1  0  0  0  0
  5  6  2  0  0  0  0
  5  7  1  0  0  0  0
  7  8  1  0  0  0  0
  7  9  1  0  0  0  0
  9 10  1  0  0  0  0
  9 11  1  0  0  0  0
  9 18  1  0  0  0  0
 11 12  1  0  0  0  0
 11 13  1  0  0  0  0
 11 14  1  0  0  0  0
 14 15  2  0  0  0  0
 14 16  1  0  0  0  0
 16 17  1  0  0  0  0
 18 19  2  0  0  0  0
 18 20  1  0  0  0  0
 20 21  1  0  0  0  0
 20 22  1  0  0  0  0
 22 23  1  0  0  0  0
 22 24  1  0  0  0  0
 22 25  1  0  0  0  0
M  END
$$$$

  -OEChem-02102214113D

 25 24  0     1  0  0  0  0  0999 V2000
   -2.7195   -3.9713    0.4226 H   0  0  0  0  0  0  0  0  0  0  0  0
   -2.7509   -2.9239    0.1096 C   0  0  0  0  0  0  0  0  0  0  0  0
   -3.3829   -2.3664    0.8050 H   0  0  0  0  0  0  0  0  0  0  0  0
   -3.1853   -2.8683   -0.8915 H   0  0  0  0  0  0  0  0  0  0  0  0
   -1.3514   -2.3390    0.0989 C   0  0  0  0  0  0  0  0  0  0  0  0
   -0.3970   -3.0292    0.4207 O   0  0  0  0  0  0  0  0  0  0  0  0
   -1.1614   -1.0235   -0.2704 N   0  0  0  0  0  0  0  0  0  0  0  0
   -1.9916   -0.4578   -0.4421 H   0  0  0  0  0  0  0  0  0  0  0  0
    0.1287   -0.3222   -0.2343 C   0  0  1  0  0  0  0  0  0  0  0  0
    0.8412   -0.8608    0.4001 H   0  0  0  0  0  0  0  0  0  0  0  0
    0.6629   -0.2151   -1.6758 C   0  0  0  0  0  0  0  0  0  0  0  0
   -0.1664   -0.1090   -2.3818 H   0  0  0  0  0  0  0  0  0  0  0  0
    1.2892    0.6761   -1.7691 H   0  0  0  0  0  0  0  0  0  0  0  0
    1.5255   -1.4118   -2.0536 C   0  0  0  0  0  0  0  0  0  0  0  0
    1.3428   -1.9291   -3.1423 O   0  0  0  0  0  0  0  0  0  0  0  0
    2.5170   -1.7794   -1.2067 O   0  0  0  0  0  0  0  0  0  0  0  0
    2.9318   -2.5578   -1.6097 H   0  0  0  0  0  0  0  0  0  0  0  0
   -0.0416    1.0767    0.3883 C   0  0  0  0  0  0  0  0  0  0  0  0
   -1.0027    1.7698    0.0759 O   0  0  0  0  0  0  0  0  0  0  0  0
    0.8571    1.5405    1.3306 N   0  0  0  0  0  0  0  0  0  0  0  0
    1.6289    0.9310    1.5879 H   0  0  0  0  0  0  0  0  0  0  0  0
    0.7387    2.8422    1.9763 C   0  0  0  0  0  0  0  0  0  0  0  0
   -0.2246    2.9298    2.4899 H   0  0  0  0  0  0  0  0  0  0  0  0
    1.5360    2.9727    2.7143 H   0  0  0  0  0  0  0  0  0  0  0  0
    0.8173    3.6449    1.2354 H   0  0  0  0  0  0  0  0  0  0  0  0
  1  2  1  0  0  0  0
  2  3  1  0  0  0  0
  2  4  1  0  0  0  0
  2  5  1  0  0  0  0
  5  6  2  0  0  0  0
  5  7  1  0  0  0  0
  7  8  1  0  0  0  0
  7  9  1  0  0  0  0
  9 10  1  0  0  0  0
  9 11  1  0  0  0  0
  9 18  1  0  0  0  0
 11 12  1  0  0  0  0
 11 13  1  0  0  0  0
 11 14  1  0  0  0  0
 14 15  2  0  0  0  0
 14 16  1  0  0  0  0
 16 17  1  0  0  0  0
 18 19  2  0  0  0  0
 18 20  1  0  0  0  0
 20 21  1  0  0  0  0
 20 22  1  0  0  0  0
 22 23  1  0  0  0  0
 22 24  1  0  0  0  0
 22 25  1  0  0  0  0
M  END
$$$$

  -OEChem-02102214113D

 25 24  0     1  0  0  0  0  0999 V2000
   -2.7497   -3.9625    0.4338 H   0  0  0  0  0  0  0  0  0  0  0  0
   -2.7714   -2.9151    0.1198 C   0  0  0  0  0  0  0  0  0  0  0  0
   -3.3992   -2.3513    0.8139 H   0  0  0  0  0  0  0  0  0  0  0  0
   -3.2041   -2.8565   -0.8818 H   0  0  0  0  0  0  0  0  0  0  0  0
   -1.3666   -2.3427    0.1103 C   0  0  0  0  0  0  0  0  0  0  0  0
   -0.4206   -3.0417    0.4364 O   0  0  0  0  0  0  0  0  0  0  0  0
   -1.1655   -1.0301   -0.2636 N   0  0  0  0  0  0  0  0  0  0  0  0
   -1.9924   -0.4597   -0.4358 H   0  0  0  0  0  0  0  0  0  0  0  0
    0.1267   -0.3320   -0.2243 C   0  0  1  0  0  0  0  0  0  0  0  0
    0.8324   -0.8677    0.4194 H   0  0  0  0  0  0  0  0  0  0  0  0
    0.6671   -0.2322   -1.6665 C   0  0  0  0  0  0  0  0  0  0  0  0
   -0.1625   -0.1248   -2.3718 H   0  0  0  0  0  0  0  0  0  0  0  0
    1.2909    0.6610   -1.7577 H   0  0  0  0  0  0  0  0  0  0  0  0
    1.5343   -1.4211   -2.0666 C   0  0  0  0  0  0  0  0  0  0  0  0
    1.5410   -1.7392   -3.2435 O   0  0  0  0  0  0  0  0  0  0  0  0
    2.3528   -1.9751   -1.1400 O   0  0  0  0  0  0  0  0  0  0  0  0
    2.8018   -2.7095   -1.5857 H   0  0  0  0  0  0  0  0  0  0  0  0
   -0.0433    1.0706    0.3903 C   0  0  0  0  0  0  0  0  0  0  0  0
   -1.0003    1.7649    0.0684 O   0  0  0  0  0  0  0  0  0  0  0  0
    0.8517    1.5370    1.3352 N   0  0  0  0  0  0  0  0  0  0  0  0
    1.6189    0.9258    1.6018 H   0  0  0  0  0  0  0  0  0  0  0  0
    0.7363    2.8442    1.9706 C   0  0  0  0  0  0  0  0  0  0  0  0
   -0.2388    2.9500    2.4576 H   0  0  0  0  0  0  0  0  0  0  0  0
    1.5151    2.9666    2.7296 H   0  0  0  0  0  0  0  0  0  0  0  0
    0.8476    3.6412    1.2280 H   0  0  0  0  0  0  0  0  0  0  0  0
  1  2  1  0  0  0  0
  2  3  1  0  0  0  0
  2  4  1  0  0  0  0
  2  5  1  0  0  0  0
  5  6  2  0  0  0  0
  5  7  1  0  0  0  0
  7  8  1  0  0  0  0
  7  9  1  0  0  0  0
  9 10  1  0  0  0  0
  9 11  1  0  0  0  0
  9 18  1  0  0  0  0
 11 12  1  0  0  0  0
 11 13  1  0  0  0  0
 11 14  1  0  0  0  0
 14 15  2  0  0  0  0
 14 16  1  0  0  0  0
 16 17  1  0  0  0  0
 18 19  2  0  0  0  0
 18 20  1  0  0  0  0
 20 21  1  0  0  0  0
 20 22  1  0  0  0  0
 22 23  1  0  0  0  0
 22 24  1  0  0  0  0
 22 25  1  0  0  0  0
M  END
$$$$

  -OEChem-02102214113D

 25 24  0     1  0  0  0  0  0999 V2000
   -2.7820   -3.9540    0.4346 H   0  0  0  0  0  0  0  0  0  0  0  0
   -2.7902   -2.9058    0.1229 C   0  0  0  0  0  0  0  0  0  0  0  0
   -3.4260   -2.3393    0.8077 H   0  0  0  0  0  0  0  0  0  0  0  0
   -3.2053   -2.8420   -0.8859 H   0  0  0  0  0  0  0  0  0  0  0  0
   -1.3808   -2.3444    0.1392 C   0  0  0  0  0  0  0  0  0  0  0  0
   -0.4527   -3.0449    0.5083 O   0  0  0  0  0  0  0  0  0  0  0  0
   -1.1620   -1.0377   -0.2458 N   0  0  0  0  0  0  0  0  0  0  0  0
   -1.9817   -0.4664   -0.4470 H   0  0  0  0  0  0  0  0  0  0  0  0
    0.1349   -0.3463   -0.2101 C   0  0  1  0  0  0  0  0  0  0  0  0
    0.8412   -0.8799    0.4348 H   0  0  0  0  0  0  0  0  0  0  0  0
    0.6732   -0.2439   -1.6549 C   0  0  0  0  0  0  0  0  0  0  0  0
   -0.1604   -0.1277   -2.3538 H   0  0  0  0  0  0  0  0  0  0  0  0
    1.2970    0.6504   -1.7400 H   0  0  0  0  0  0  0  0  0  0  0  0
    1.5388   -1.4227   -2.0914 C   0  0  0  0  0  0  0  0  0  0  0  0
    1.7503   -1.5364   -3.2865 O   0  0  0  0  0  0  0  0  0  0  0  0
    2.1410   -2.1922   -1.1546 O   0  0  0  0  0  0  0  0  0  0  0  0
    2.6319   -2.8739   -1.6375 H   0  0  0  0  0  0  0  0  0  0  0  0
   -0.0377    1.0620    0.3914 C   0  0  0  0  0  0  0  0  0  0  0  0
   -0.9884    1.7570    0.0523 O   0  0  0  0  0  0  0  0  0  0  0  0
    0.8525    1.5369    1.3365 N   0  0  0  0  0  0  0  0  0  0  0  0
    1.6112    0.9234    1.6214 H   0  0  0  0  0  0  0  0  0  0  0  0
    0.7304    2.8474    1.9637 C   0  0  0  0  0  0  0  0  0  0  0  0
   -0.2432    2.9493    2.4549 H   0  0  0  0  0  0  0  0  0  0  0  0
    1.5121    2.9804    2.7177 H   0  0  0  0  0  0  0  0  0  0  0  0
    0.8323    3.6402    1.2152 H   0  0  0  0  0  0  0  0  0  0  0  0
  1  2  1  0  0  0  0
  2  3  1  0  0  0  0
  2  4  1  0  0  0  0
  2  5  1  0  0  0  0
  5  6  2  0  0  0  0
  5  7  1  0  0  0  0
  7  8  1  0  0  0  0
  7  9  1  0  0  0  0
  9 10  1  0  0  0  0
  9 11  1  0  0  0  0
  9 18  1  0  0  0  0
 11 12  1  0  0  0  0
 11 13  1  0  0  0  0
 11 14  1  0  0  0  0
 14 15  2  0  0  0  0
 14 16  1  0  0  0  0
 16 17  1  0  0  0  0
 18 19  2  0  0  0  0
 18 20  1  0  0  0  0
 20 21  1  0  0  0  0
 20 22  1  0  0  0  0
 22 23  1  0  0  0  0
 22 24  1  0  0  0  0
 22 25  1  0  0  0  0
M  END
$$$$

  -OEChem-02102214113D

 25 24  0     1  0  0  0  0  0999 V2000
   -2.8016   -3.9809    0.4191 H   0  0  0  0  0  0  0  0  0  0  0  0
   -2.7970   -2.9386    0.0880 C   0  0  0  0  0  0  0  0  0  0  0  0
   -3.5152   -2.3742    0.6875 H   0  0  0  0  0  0  0  0  0  0  0  0
   -3.0991   -2.9020   -0.9612 H   0  0  0  0  0  0  0  0  0  0  0  0
   -1.4105   -2.3446    0.2487 C   0  0  0  0  0  0  0  0  0  0  0  0
   -0.5425   -2.9818    0.8232 O   0  0  0  0  0  0  0  0  0  0  0  0
   -1.1736   -1.0507   -0.1702 N   0  0  0  0  0  0  0  0  0  0  0  0
   -1.9702   -0.5192   -0.5169 H   0  0  0  0  0  0  0  0  0  0  0  0
    0.1314   -0.3722   -0.1683 C   0  0  1  0  0  0  0  0  0  0  0  0
    0.8555   -0.9170    0.4481 H   0  0  0  0  0  0  0  0  0  0  0  0
    0.6540   -0.2441   -1.6181 C   0  0  0  0  0  0  0  0  0  0  0  0
   -0.1486    0.1421   -2.2533 H   0  0  0  0  0  0  0  0  0  0  0  0
    1.4663    0.4884   -1.6330 H   0  0  0  0  0  0  0  0  0  0  0  0
    1.1993   -1.5201   -2.2525 C   0  0  0  0  0  0  0  0  0  0  0  0
    1.6111   -1.4256   -3.3958 O   0  0  0  0  0  0  0  0  0  0  0  0
    1.2929   -2.6528   -1.5234 O   0  0  0  0  0  0  0  0  0  0  0  0
    1.6885   -3.3228   -2.1001 H   0  0  0  0  0  0  0  0  0  0  0  0
   -0.0249    1.0508    0.4044 C   0  0  0  0  0  0  0  0  0  0  0  0
   -0.9555    1.7592    0.0370 O   0  0  0  0  0  0  0  0  0  0  0  0
    0.8804    1.5391    1.3281 N   0  0  0  0  0  0  0  0  0  0  0  0
    1.6055    0.9076    1.6569 H   0  0  0  0  0  0  0  0  0  0  0  0
    0.7730    2.8633    1.9286 C   0  0  0  0  0  0  0  0  0  0  0  0
   -0.1692    2.9600    2.4783 H   0  0  0  0  0  0  0  0  0  0  0  0
    1.5992    3.0305    2.6262 H   0  0  0  0  0  0  0  0  0  0  0  0
    0.8115    3.6386    1.1561 H   0  0  0  0  0  0  0  0  0  0  0  0
  1  2  1  0  0  0  0
  2  3  1  0  0  0  0
  2  4  1  0  0  0  0
  2  5  1  0  0  0  0
  5  6  2  0  0  0  0
  5  7  1  0  0  0  0
  7  8  1  0  0  0  0
  7  9  1  0  0  0  0
  9 10  1  0  0  0  0
  9 11  1  0  0  0  0
  9 18  1  0  0  0  0
 11 12  1  0  0  0  0
 11 13  1  0  0  0  0
 11 14  1  0  0  0  0
 14 15  2  0  0  0  0
 14 16  1  0  0  0  0
 16 17  1  0  0  0  0
 18 19  2  0  0  0  0
 18 20  1  0  0  0  0
 20 21  1  0  0  0  0
 20 22  1  0  0  0  0
 22 23  1  0  0  0  0
 22 24  1  0  0  0  0
 22 25  1  0  0  0  0
M  END
$$$$

  -OEChem-02102214113D

 25 24  0     1  0  0  0  0  0999 V2000
   -2.7865   -3.9880    0.4443 H   0  0  0  0  0  0  0  0  0  0  0  0
   -2.7854   -2.9555    0.0839 C   0  0  0  0  0  0  0  0  0  0  0  0
   -3.5334   -2.3862    0.6406 H   0  0  0  0  0  0  0  0  0  0  0  0
   -3.0491   -2.9530   -0.9763 H   0  0  0  0  0  0  0  0  0  0  0  0
   -1.4138   -2.3367    0.2766 C   0  0  0  0  0  0  0  0  0  0  0  0
   -0.5513   -2.9515    0.8850 O   0  0  0  0  0  0  0  0  0  0  0  0
   -1.1817   -1.0448   -0.1520 N   0  0  0  0  0  0  0  0  0  0  0  0
   -1.9703   -0.5294   -0.5379 H   0  0  0  0  0  0  0  0  0  0  0  0
    0.1274   -0.3753   -0.1582 C   0  0  1  0  0  0  0  0  0  0  0  0
    0.8502   -0.9224    0.4568 H   0  0  0  0  0  0  0  0  0  0  0  0
    0.6603   -0.2410   -1.6048 C   0  0  0  0  0  0  0  0  0  0  0  0
   -0.1387    0.1499   -2.2412 H   0  0  0  0  0  0  0  0  0  0  0  0
    1.4718    0.4931   -1.6101 H   0  0  0  0  0  0  0  0  0  0  0  0
    1.2048   -1.5112   -2.2540 C   0  0  0  0  0  0  0  0  0  0  0  0
    1.8734   -1.3596   -3.2619 O   0  0  0  0  0  0  0  0  0  0  0  0
    0.9288   -2.7227   -1.7260 O   0  0  0  0  0  0  0  0  0  0  0  0
    1.3762   -3.3755   -2.2843 H   0  0  0  0  0  0  0  0  0  0  0  0
   -0.0236    1.0505    0.4101 C   0  0  0  0  0  0  0  0  0  0  0  0
   -0.9454    1.7656    0.0335 O   0  0  0  0  0  0  0  0  0  0  0  0
    0.8856    1.5392    1.3300 N   0  0  0  0  0  0  0  0  0  0  0  0
    1.5979    0.9009    1.6735 H   0  0  0  0  0  0  0  0  0  0  0  0
    0.7856    2.8682    1.9216 C   0  0  0  0  0  0  0  0  0  0  0  0
   -0.1466    2.9665    2.4877 H   0  0  0  0  0  0  0  0  0  0  0  0
    1.6246    3.0437    2.6018 H   0  0  0  0  0  0  0  0  0  0  0  0
    0.8069    3.6375    1.1424 H   0  0  0  0  0  0  0  0  0  0  0  0
  1  2  1  0  0  0  0
  2  3  1  0  0  0  0
  2  4  1  0  0  0  0
  2  5  1  0  0  0  0
  5  6  2  0  0  0  0
  5  7  1  0  0  0  0
  7  8  1  0  0  0  0
  7  9  1  0  0  0  0
  9 10  1  0  0  0  0
  9 11  1  0  0  0  0
  9 18  1  0  0  0  0
 11 12  1  0  0  0  0
 11 13  1  0  0  0  0
 11 14  1  0  0  0  0
 14 15  2  0  0  0  0
 14 16  1  0  0  0  0
 16 17  1  0  0  0  0
 18 19  2  0  0  0  0
 18 20  1  0  0  0  0
 20 21  1  0  0  0  0
 20 22  1  0  0  0  0
 22 23  1  0  0  0  0
 22 24  1  0  0  0  0
 22 25  1  0  0  0  0
M  END
$$$$

  -OEChem-02102214113D

 25 24  0     1  0  0  0  0  0999 V2000
   -2.7812   -3.9915    0.4452 H   0  0  0  0  0  0  0  0  0  0  0  0
   -2.7883   -2.9520    0.1058 C   0  0  0  0  0  0  0  0  0  0  0  0
   -3.5141   -2.3913    0.6996 H   0  0  0  0  0  0  0  0  0  0  0  0
   -3.0889   -2.9272   -0.9444 H   0  0  0  0  0  0  0  0  0  0  0  0
   -1.4086   -2.3415    0.2627 C   0  0  0  0  0  0  0  0  0  0  0  0
   -0.5278   -2.9668    0.8342 O   0  0  0  0  0  0  0  0  0  0  0  0
   -1.1828   -1.0470   -0.1610 N   0  0  0  0  0  0  0  0  0  0  0  0
   -1.9774   -0.5257   -0.5262 H   0  0  0  0  0  0  0  0  0  0  0  0
    0.1250   -0.3763   -0.1675 C   0  0  1  0  0  0  0  0  0  0  0  0
    0.8464   -0.9228    0.4497 H   0  0  0  0  0  0  0  0  0  0  0  0
    0.6711   -0.2387   -1.6082 C   0  0  0  0  0  0  0  0  0  0  0  0
   -0.1237    0.1460   -2.2531 H   0  0  0  0  0  0  0  0  0  0  0  0
    1.4781    0.5008   -1.6076 H   0  0  0  0  0  0  0  0  0  0  0  0
    1.2205   -1.5148   -2.2425 C   0  0  0  0  0  0  0  0  0  0  0  0
    2.1177   -1.3756   -3.0561 O   0  0  0  0  0  0  0  0  0  0  0  0
    0.6478   -2.7081   -1.9716 O   0  0  0  0  0  0  0  0  0  0  0  0
    1.1410   -3.3693   -2.4795 H   0  0  0  0  0  0  0  0  0  0  0  0
   -0.0296    1.0463    0.4079 C   0  0  0  0  0  0  0  0  0  0  0  0
   -0.9571    1.7580    0.0394 O   0  0  0  0  0  0  0  0  0  0  0  0
    0.8792    1.5341    1.3286 N   0  0  0  0  0  0  0  0  0  0  0  0
    1.6086    0.9047    1.6515 H   0  0  0  0  0  0  0  0  0  0  0  0
    0.7817    2.8628    1.9206 C   0  0  0  0  0  0  0  0  0  0  0  0
   -0.1605    2.9711    2.4683 H   0  0  0  0  0  0  0  0  0  0  0  0
    1.6081    3.0274    2.6187 H   0  0  0  0  0  0  0  0  0  0  0  0
    0.8281    3.6330    1.1434 H   0  0  0  0  0  0  0  0  0  0  0  0
  1  2  1  0  0  0  0
  2  3  1  0  0  0  0
  2  4  1  0  0  0  0
  2  5  1  0  0  0  0
  5  6  2  0  0  0  0
  5  7  1  0  0  0  0
  7  8  1  0  0  0  0
  7  9  1  0  0  0  0
  9 10  1  0  0  0  0
  9 11  1  0  0  0  0
  9 18  1  0  0  0  0
 11 12  1  0  0  0  0
 11 13  1  0  0  0  0
 11 14  1  0  0  0  0
 14 15  2  0  0  0  0
 14 16  1  0  0  0  0
 16 17  1  0  0  0  0
 18 19  2  0  0  0  0
 18 20  1  0  0  0  0
 20 21  1  0  0  0  0
 20 22  1  0  0  0  0
 22 23  1  0  0  0  0
 22 24  1  0  0  0  0
 22 25  1  0  0  0  0
M  END
$$$$

  -OEChem-02102214113D

 25 24  0     1  0  0  0  0  0999 V2000
   -2.7658   -3.9904    0.4531 H   0  0  0  0  0  0  0  0  0  0  0  0
   -2.7822   -2.9521    0.1107 C   0  0  0  0  0  0  0  0  0  0  0  0
   -3.4922   -2.3896    0.7216 H   0  0  0  0  0  0  0  0  0  0  0  0
   -3.1098   -2.9306   -0.9314 H   0  0  0  0  0  0  0  0  0  0  0  0
   -1.3988   -2.3413    0.2300 C   0  0  0  0  0  0  0  0  0  0  0  0
   -0.4915   -2.9829    0.7390 O   0  0  0  0  0  0  0  0  0  0  0  0
   -1.1856   -1.0406   -0.1812 N   0  0  0  0  0  0  0  0  0  0  0  0
   -1.9903   -0.5101   -0.5097 H   0  0  0  0  0  0  0  0  0  0  0  0
    0.1189   -0.3646   -0.1856 C   0  0  1  0  0  0  0  0  0  0  0  0
    0.8412   -0.9111    0.4305 H   0  0  0  0  0  0  0  0  0  0  0  0
    0.6654   -0.2321   -1.6239 C   0  0  0  0  0  0  0  0  0  0  0  0
   -0.1277    0.1413   -2.2775 H   0  0  0  0  0  0  0  0  0  0  0  0
    1.4710    0.5087   -1.6313 H   0  0  0  0  0  0  0  0  0  0  0  0
    1.2114   -1.5266   -2.2204 C   0  0  0  0  0  0  0  0  0  0  0  0
    2.2799   -1.4596   -2.8039 O   0  0  0  0  0  0  0  0  0  0  0  0
    0.4439   -2.6403   -2.2060 O   0  0  0  0  0  0  0  0  0  0  0  0
    0.9646   -3.3316   -2.6413 H   0  0  0  0  0  0  0  0  0  0  0  0
   -0.0329    1.0520    0.4040 C   0  0  0  0  0  0  0  0  0  0  0  0
   -0.9684    1.7628    0.0547 O   0  0  0  0  0  0  0  0  0  0  0  0
    0.8803    1.5319    1.3245 N   0  0  0  0  0  0  0  0  0  0  0  0
    1.6211    0.9055    1.6272 H   0  0  0  0  0  0  0  0  0  0  0  0
    0.7831    2.8545    1.9303 C   0  0  0  0  0  0  0  0  0  0  0  0
   -0.1578    2.9554    2.4816 H   0  0  0  0  0  0  0  0  0  0  0  0
    1.6114    3.0136    2.6276 H   0  0  0  0  0  0  0  0  0  0  0  0
    0.8255    3.6322    1.1604 H   0  0  0  0  0  0  0  0  0  0  0  0
  1  2  1  0  0  0  0
  2  3  1  0  0  0  0
  2  4  1  0  0  0  0
  2  5  1  0  0  0  0
  5  6  2  0  0  0  0
  5  7  1  0  0  0  0
  7  8  1  0  0  0  0
  7  9  1  0  0  0  0
  9 10  1  0  0  0  0
  9 11  1  0  0  0  0
  9 18  1  0  0  0  0
 11 12  1  0  0  0  0
 11 13  1  0  0  0  0
 11 14  1  0  0  0  0
 14 15  2  0  0  0  0
 14 16  1  0  0  0  0
 16 17  1  0  0  0  0
 18 19  2  0  0  0  0
 18 20  1  0  0  0  0
 20 21  1  0  0  0  0
 20 22  1  0  0  0  0
 22 23  1  0  0  0  0
 22 24  1  0  0  0  0
 22 25  1  0  0  0  0
M  END
$$$$

  -OEChem-02102214113D

 25 24  0     1  0  0  0  0  0999 V2000
   -2.7524   -3.9895    0.4372 H   0  0  0  0  0  0  0  0  0  0  0  0
   -2.7754   -2.9470    0.1081 C   0  0  0  0  0  0  0  0  0  0  0  0
   -3.4606   -2.3884    0.7503 H   0  0  0  0  0  0  0  0  0  0  0  0
   -3.1394   -2.9107   -0.9215 H   0  0  0  0  0  0  0  0  0  0  0  0
   -1.3856   -2.3444    0.1845 C   0  0  0  0  0  0  0  0  0  0  0  0
   -0.4561   -3.0049    0.6243 O   0  0  0  0  0  0  0  0  0  0  0  0
   -1.1840   -1.0368   -0.2084 N   0  0  0  0  0  0  0  0  0  0  0  0
   -2.0001   -0.4946   -0.4868 H   0  0  0  0  0  0  0  0  0  0  0  0
    0.1151   -0.3517   -0.2075 C   0  0  1  0  0  0  0  0  0  0  0  0
    0.8413   -0.9004    0.4026 H   0  0  0  0  0  0  0  0  0  0  0  0
    0.6521   -0.2208   -1.6464 C   0  0  0  0  0  0  0  0  0  0  0  0
   -0.1438    0.1414   -2.3031 H   0  0  0  0  0  0  0  0  0  0  0  0
    1.4564    0.5214   -1.6673 H   0  0  0  0  0  0  0  0  0  0  0  0
    1.1932   -1.5314   -2.2068 C   0  0  0  0  0  0  0  0  0  0  0  0
    2.3662   -1.5584   -2.5392 O   0  0  0  0  0  0  0  0  0  0  0  0
    0.3327   -2.5536   -2.4247 O   0  0  0  0  0  0  0  0  0  0  0  0
    0.8669   -3.2821   -2.7751 H   0  0  0  0  0  0  0  0  0  0  0  0
   -0.0370    1.0565    0.4008 C   0  0  0  0  0  0  0  0  0  0  0  0
   -0.9824    1.7638    0.0718 O   0  0  0  0  0  0  0  0  0  0  0  0
    0.8788    1.5286    1.3227 N   0  0  0  0  0  0  0  0  0  0  0  0
    1.6335    0.9078    1.6016 H   0  0  0  0  0  0  0  0  0  0  0  0
    0.7835    2.8451    1.9422 C   0  0  0  0  0  0  0  0  0  0  0  0
   -0.1589    2.9437    2.4914 H   0  0  0  0  0  0  0  0  0  0  0  0
    1.6094    2.9937    2.6443 H   0  0  0  0  0  0  0  0  0  0  0  0
    0.8319    3.6306    1.1807 H   0  0  0  0  0  0  0  0  0  0  0  0
  1  2  1  0  0  0  0
  2  3  1  0  0  0  0
  2  4  1  0  0  0  0
  2  5  1  0  0  0  0
  5  6  2  0  0  0  0
  5  7  1  0  0  0  0
  7  8  1  0  0  0  0
  7  9  1  0  0  0  0
  9 10  1  0  0  0  0
  9 11  1  0  0  0  0
  9 18  1  0  0  0  0
 11 12  1  0  0  0  0
 11 13  1  0  0  0  0
 11 14  1  0  0  0  0
 14 15  2  0  0  0  0
 14 16  1  0  0  0  0
 16 17  1  0  0  0  0
 18 19  2  0  0  0  0
 18 20  1  0  0  0  0
 20 21  1  0  0  0  0
 20 22  1  0  0  0  0
 22 23  1  0  0  0  0
 22 24  1  0  0  0  0
 22 25  1  0  0  0  0
M  END
$$$$

  -OEChem-02102214113D

 25 24  0     1  0  0  0  0  0999 V2000
   -2.7339   -3.9882    0.4186 H   0  0  0  0  0  0  0  0  0  0  0  0
   -2.7650   -2.9436    0.0970 C   0  0  0  0  0  0  0  0  0  0  0  0
   -3.4294   -2.3887    0.7636 H   0  0  0  0  0  0  0  0  0  0  0  0
   -3.1603   -2.9002   -0.9207 H   0  0  0  0  0  0  0  0  0  0  0  0
   -1.3727   -2.3431    0.1351 C   0  0  0  0  0  0  0  0  0  0  0  0
   -0.4260   -3.0174    0.5117 O   0  0  0  0  0  0  0  0  0  0  0  0
   -1.1829   -1.0284   -0.2391 N   0  0  0  0  0  0  0  0  0  0  0  0
   -2.0088   -0.4781   -0.4685 H   0  0  0  0  0  0  0  0  0  0  0  0
    0.1108   -0.3329   -0.2322 C   0  0  1  0  0  0  0  0  0  0  0  0
    0.8404   -0.8837    0.3721 H   0  0  0  0  0  0  0  0  0  0  0  0
    0.6372   -0.2057   -1.6723 C   0  0  0  0  0  0  0  0  0  0  0  0
   -0.1606    0.1455   -2.3325 H   0  0  0  0  0  0  0  0  0  0  0  0
    1.4421    0.5349   -1.7071 H   0  0  0  0  0  0  0  0  0  0  0  0
    1.1752   -1.5302   -2.1963 C   0  0  0  0  0  0  0  0  0  0  0  0
    2.3854   -1.6634   -2.2662 O   0  0  0  0  0  0  0  0  0  0  0  0
    0.2911   -2.4615   -2.6276 O   0  0  0  0  0  0  0  0  0  0  0  0
    0.8213   -3.2291   -2.8901 H   0  0  0  0  0  0  0  0  0  0  0  0
   -0.0391    1.0672    0.3939 C   0  0  0  0  0  0  0  0  0  0  0  0
   -0.9945    1.7716    0.0892 O   0  0  0  0  0  0  0  0  0  0  0  0
    0.8820    1.5283    1.3160 N   0  0  0  0  0  0  0  0  0  0  0  0
    1.6486    0.9108    1.5689 H   0  0  0  0  0  0  0  0  0  0  0  0
    0.7856    2.8334    1.9586 C   0  0  0  0  0  0  0  0  0  0  0  0
   -0.1560    2.9204    2.5111 H   0  0  0  0  0  0  0  0  0  0  0  0
    1.6126    2.9709    2.6619 H   0  0  0  0  0  0  0  0  0  0  0  0
    0.8309    3.6324    1.2110 H   0  0  0  0  0  0  0  0  0  0  0  0
  1  2  1  0  0  0  0
  2  3  1  0  0  0  0
  2  4  1  0  0  0  0
  2  5  1  0  0  0  0
  5  6  2  0  0  0  0
  5  7  1  0  0  0  0
  7  8  1  0  0  0  0
  7  9  1  0  0  0  0
  9 10  1  0  0  0  0
  9 11  1  0  0  0  0
  9 18  1  0  0  0  0
 11 12  1  0  0  0  0
 11 13  1  0  0  0  0
 11 14  1  0  0  0  0
 14 15  2  0  0  0  0
 14 16  1  0  0  0  0
 16 17  1  0  0  0  0
 18 19  2  0  0  0  0
 18 20  1  0  0  0  0
 20 21  1  0  0  0  0
 20 22  1  0  0  0  0
 22 23  1  0  0  0  0
 22 24  1  0  0  0  0
 22 25  1  0  0  0  0
M  END
$$$$

  -OEChem-02102214113D

 25 24  0     1  0  0  0  0  0999 V2000
   -2.7198   -3.9873    0.3983 H   0  0  0  0  0  0  0  0  0  0  0  0
   -2.7563   -2.9396    0.0871 C   0  0  0  0  0  0  0  0  0  0  0  0
   -3.4032   -2.3896    0.7747 H   0  0  0  0  0  0  0  0  0  0  0  0
   -3.1762   -2.8859   -0.9202 H   0  0  0  0  0  0  0  0  0  0  0  0
   -1.3618   -2.3429    0.0969 C   0  0  0  0  0  0  0  0  0  0  0  0
   -0.4060   -3.0283    0.4258 O   0  0  0  0  0  0  0  0  0  0  0  0
   -1.1775   -1.0236   -0.2624 N   0  0  0  0  0  0  0  0  0  0  0  0
   -2.0087   -0.4671   -0.4559 H   0  0  0  0  0  0  0  0  0  0  0  0
    0.1123   -0.3207   -0.2483 C   0  0  1  0  0  0  0  0  0  0  0  0
    0.8448   -0.8734    0.3514 H   0  0  0  0  0  0  0  0  0  0  0  0
    0.6292   -0.1928   -1.6898 C   0  0  0  0  0  0  0  0  0  0  0  0
   -0.1717    0.1547   -2.3487 H   0  0  0  0  0  0  0  0  0  0  0  0
    1.4352    0.5457   -1.7333 H   0  0  0  0  0  0  0  0  0  0  0  0
    1.1656   -1.5228   -2.1962 C   0  0  0  0  0  0  0  0  0  0  0  0
    2.3461   -1.7672   -2.0111 O   0  0  0  0  0  0  0  0  0  0  0  0
    0.3161   -2.3562   -2.8426 O   0  0  0  0  0  0  0  0  0  0  0  0
    0.8289   -3.1555   -3.0364 H   0  0  0  0  0  0  0  0  0  0  0  0
   -0.0393    1.0724    0.3914 C   0  0  0  0  0  0  0  0  0  0  0  0
   -1.0009    1.7742    0.1008 O   0  0  0  0  0  0  0  0  0  0  0  0
    0.8823    1.5267    1.3163 N   0  0  0  0  0  0  0  0  0  0  0  0
    1.6554    0.9116    1.5561 H   0  0  0  0  0  0  0  0  0  0  0  0
    0.7850    2.8265    1.9693 C   0  0  0  0  0  0  0  0  0  0  0  0
   -0.1566    2.9087    2.5225 H   0  0  0  0  0  0  0  0  0  0  0  0
    1.6117    2.9593    2.6735 H   0  0  0  0  0  0  0  0  0  0  0  0
    0.8296    3.6310    1.2276 H   0  0  0  0  0  0  0  0  0  0  0  0
  1  2  1  0  0  0  0
  2  3  1  0  0  0  0
  2  4  1  0  0  0  0
  2  5  1  0  0  0  0
  5  6  2  0  0  0  0
  5  7  1  0  0  0  0
  7  8  1  0  0  0  0
  7  9  1  0  0  0  0
  9 10  1  0  0  0  0
  9 11  1  0  0  0  0
  9 18  1  0  0  0  0
 11 12  1  0  0  0  0
 11 13  1  0  0  0  0
 11 14  1  0  0  0  0
 14 15  2  0  0  0  0
 14 16  1  0  0  0  0
 16 17  1  0  0  0  0
 18 19  2  0  0  0  0
 18 20  1  0  0  0  0
 20 21  1  0  0  0  0
 20 22  1  0  0  0  0
 22 23  1  0  0  0  0
 22 24  1  0  0  0  0
 22 25  1  0  0  0  0
M  END
$$$$

  -OEChem-02102214113D

 25 24  0     1  0  0  0  0  0999 V2000
   -2.7157   -3.9839    0.3886 H   0  0  0  0  0  0  0  0  0  0  0  0
   -2.7521   -2.9346    0.0829 C   0  0  0  0  0  0  0  0  0  0  0  0
   -3.3882   -2.3853    0.7811 H   0  0  0  0  0  0  0  0  0  0  0  0
   -3.1842   -2.8738   -0.9188 H   0  0  0  0  0  0  0  0  0  0  0  0
   -1.3557   -2.3428    0.0790 C   0  0  0  0  0  0  0  0  0  0  0  0
   -0.3982   -3.0340    0.3876 O   0  0  0  0  0  0  0  0  0  0  0  0
   -1.1729   -1.0221   -0.2745 N   0  0  0  0  0  0  0  0  0  0  0  0
   -2.0068   -0.4631   -0.4487 H   0  0  0  0  0  0  0  0  0  0  0  0
    0.1135   -0.3126   -0.2563 C   0  0  1  0  0  0  0  0  0  0  0  0
    0.8456   -0.8649    0.3447 H   0  0  0  0  0  0  0  0  0  0  0  0
    0.6274   -0.1873   -1.6991 C   0  0  0  0  0  0  0  0  0  0  0  0
   -0.1763    0.1559   -2.3568 H   0  0  0  0  0  0  0  0  0  0  0  0
    1.4313    0.5527   -1.7476 H   0  0  0  0  0  0  0  0  0  0  0  0
    1.1701   -1.5159   -2.2021 C   0  0  0  0  0  0  0  0  0  0  0  0
    2.2576   -1.8800   -1.7867 O   0  0  0  0  0  0  0  0  0  0  0  0
    0.4180   -2.2317   -3.0709 O   0  0  0  0  0  0  0  0  0  0  0  0
    0.9068   -3.0554   -3.2209 H   0  0  0  0  0  0  0  0  0  0  0  0
   -0.0397    1.0781    0.3868 C   0  0  0  0  0  0  0  0  0  0  0  0
   -1.0058    1.7768    0.1037 O   0  0  0  0  0  0  0  0  0  0  0  0
    0.8831    1.5288    1.3120 N   0  0  0  0  0  0  0  0  0  0  0  0
    1.6590    0.9143    1.5438 H   0  0  0  0  0  0  0  0  0  0  0  0
    0.7825    2.8212    1.9784 C   0  0  0  0  0  0  0  0  0  0  0  0
   -0.1549    2.8913    2.5404 H   0  0  0  0  0  0  0  0  0  0  0  0
    1.6145    2.9523    2.6770 H   0  0  0  0  0  0  0  0  0  0  0  0
    0.8157    3.6335    1.2446 H   0  0  0  0  0  0  0  0  0  0  0  0
  1  2  1  0  0  0  0
  2  3  1  0  0  0  0
  2  4  1  0  0  0  0
  2  5  1  0  0  0  0
  5  6  2  0  0  0  0
  5  7  1  0  0  0  0
  7  8  1  0  0  0  0
  7  9  1  0  0  0  0
  9 10  1  0  0  0  0
  9 11  1  0  0  0  0
  9 18  1  0  0  0  0
 11 12  1  0  0  0  0
 11 13  1  0  0  0  0
 11 14  1  0  0  0  0
 14 15  2  0  0  0  0
 14 16  1  0  0  0  0
 16 17  1  0  0  0  0
 18 19  2  0  0  0  0
 18 20  1  0  0  0  0
 20 21  1  0  0  0  0
 20 22  1  0  0  0  0
 22 23  1  0  0  0  0
 22 24  1  0  0  0  0
 22 25  1  0  0  0  0
M  END
$$$$

  -OEChem-02102214113D

 25 24  0     1  0  0  0  0  0999 V2000
   -2.7299   -3.9807    0.3946 H   0  0  0  0  0  0  0  0  0  0  0  0
   -2.7577   -2.9310    0.0894 C   0  0  0  0  0  0  0  0  0  0  0  0
   -3.3952   -2.3786    0.7840 H   0  0  0  0  0  0  0  0  0  0  0  0
   -3.1831   -2.8675   -0.9151 H   0  0  0  0  0  0  0  0  0  0  0  0
   -1.3574   -2.3476    0.0954 C   0  0  0  0  0  0  0  0  0  0  0  0
   -0.4098   -3.0414    0.4254 O   0  0  0  0  0  0  0  0  0  0  0  0
   -1.1636   -1.0303   -0.2655 N   0  0  0  0  0  0  0  0  0  0  0  0
   -1.9942   -0.4688   -0.4478 H   0  0  0  0  0  0  0  0  0  0  0  0
    0.1251   -0.3232   -0.2453 C   0  0  1  0  0  0  0  0  0  0  0  0
    0.8553   -0.8734    0.3596 H   0  0  0  0  0  0  0  0  0  0  0  0
    0.6367   -0.1959   -1.6911 C   0  0  0  0  0  0  0  0  0  0  0  0
   -0.1693    0.1569   -2.3411 H   0  0  0  0  0  0  0  0  0  0  0  0
    1.4416    0.5429   -1.7365 H   0  0  0  0  0  0  0  0  0  0  0  0
    1.1824   -1.5127   -2.2240 C   0  0  0  0  0  0  0  0  0  0  0  0
    2.1216   -2.0266   -1.6397 O   0  0  0  0  0  0  0  0  0  0  0  0
    0.5910   -2.0529   -3.3149 O   0  0  0  0  0  0  0  0  0  0  0  0
    1.0502   -2.8923   -3.4716 H   0  0  0  0  0  0  0  0  0  0  0  0
   -0.0326    1.0719    0.3881 C   0  0  0  0  0  0  0  0  0  0  0  0
   -0.9944    1.7703    0.0895 O   0  0  0  0  0  0  0  0  0  0  0  0
    0.8826    1.5310    1.3168 N   0  0  0  0  0  0  0  0  0  0  0  0
    1.6500    0.9140    1.5693 H   0  0  0  0  0  0  0  0  0  0  0  0
    0.7721    2.8272    1.9750 C   0  0  0  0  0  0  0  0  0  0  0  0
   -0.1651    2.8929    2.5380 H   0  0  0  0  0  0  0  0  0  0  0  0
    1.6041    2.9709    2.6712 H   0  0  0  0  0  0  0  0  0  0  0  0
    0.7966    3.6351    1.2359 H   0  0  0  0  0  0  0  0  0  0  0  0
  1  2  1  0  0  0  0
  2  3  1  0  0  0  0
  2  4  1  0  0  0  0
  2  5  1  0  0  0  0
  5  6  2  0  0  0  0
  5  7  1  0  0  0  0
  7  8  1  0  0  0  0
  7  9  1  0  0  0  0
  9 10  1  0  0  0  0
  9 11  1  0  0  0  0
  9 18  1  0  0  0  0
 11 12  1  0  0  0  0
 11 13  1  0  0  0  0
 11 14  1  0  0  0  0
 14 15  2  0  0  0  0
 14 16  1  0  0  0  0
 16 17  1  0  0  0  0
 18 19  2  0  0  0  0
 18 20  1  0  0  0  0
 20 21  1  0  0  0  0
 20 22  1  0  0  0  0
 22 23  1  0  0  0  0
 22 24  1  0  0  0  0
 22 25  1  0  0  0  0
M  END
$$$$

  -OEChem-02102214113D

 25 24  0     1  0  0  0  0  0999 V2000
   -2.7457   -3.9811    0.4019 H   0  0  0  0  0  0  0  0  0  0  0  0
   -2.7639   -2.9331    0.0904 C   0  0  0  0  0  0  0  0  0  0  0  0
   -3.4174   -2.3758    0.7658 H   0  0  0  0  0  0  0  0  0  0  0  0
   -3.1640   -2.8745   -0.9247 H   0  0  0  0  0  0  0  0  0  0  0  0
   -1.3629   -2.3524    0.1285 C   0  0  0  0  0  0  0  0  0  0  0  0
   -0.4312   -3.0391    0.5121 O   0  0  0  0  0  0  0  0  0  0  0  0
   -1.1585   -1.0403   -0.2452 N   0  0  0  0  0  0  0  0  0  0  0  0
   -1.9838   -0.4816   -0.4573 H   0  0  0  0  0  0  0  0  0  0  0  0
    0.1325   -0.3372   -0.2272 C   0  0  1  0  0  0  0  0  0  0  0  0
    0.8613   -0.8838    0.3822 H   0  0  0  0  0  0  0  0  0  0  0  0
    0.6445   -0.2084   -1.6757 C   0  0  0  0  0  0  0  0  0  0  0  0
   -0.1646    0.1520   -2.3179 H   0  0  0  0  0  0  0  0  0  0  0  0
    1.4477    0.5322   -1.7167 H   0  0  0  0  0  0  0  0  0  0  0  0
    1.1954   -1.5094   -2.2465 C   0  0  0  0  0  0  0  0  0  0  0  0
    1.9424   -2.1863   -1.5613 O   0  0  0  0  0  0  0  0  0  0  0  0
    0.8220   -1.8482   -3.5022 O   0  0  0  0  0  0  0  0  0  0  0  0
    1.2479   -2.7009   -3.6797 H   0  0  0  0  0  0  0  0  0  0  0  0
   -0.0293    1.0640    0.3918 C   0  0  0  0  0  0  0  0  0  0  0  0
   -0.9855    1.7627    0.0761 O   0  0  0  0  0  0  0  0  0  0  0  0
    0.8810    1.5316    1.3211 N   0  0  0  0  0  0  0  0  0  0  0  0
    1.6374    0.9104    1.5954 H   0  0  0  0  0  0  0  0  0  0  0  0
    0.7688    2.8351    1.9644 C   0  0  0  0  0  0  0  0  0  0  0  0
   -0.1697    2.9072    2.5240 H   0  0  0  0  0  0  0  0  0  0  0  0
    1.5991    2.9865    2.6610 H   0  0  0  0  0  0  0  0  0  0  0  0
    0.7955    3.6346    1.2165 H   0  0  0  0  0  0  0  0  0  0  0  0
  1  2  1  0  0  0  0
  2  3  1  0  0  0  0
  2  4  1  0  0  0  0
  2  5  1  0  0  0  0
  5  6  2  0  0  0  0
  5  7  1  0  0  0  0
  7  8  1  0  0  0  0
  7  9  1  0  0  0  0
  9 10  1  0  0  0  0
  9 11  1  0  0  0  0
  9 18  1  0  0  0  0
 11 12  1  0  0  0  0
 11 13  1  0  0  0  0
 11 14  1  0  0  0  0
 14 15  2  0  0  0  0
 14 16  1  0  0  0  0
 16 17  1  0  0  0  0
 18 19  2  0  0  0  0
 18 20  1  0  0  0  0
 20 21  1  0  0  0  0
 20 22  1  0  0  0  0
 22 23  1  0  0  0  0
 22 24  1  0  0  0  0
 22 25  1  0  0  0  0
M  END
$$$$

  -OEChem-02102214113D

 25 24  0     1  0  0  0  0  0999 V2000
   -2.7565   -3.9883    0.3994 H   0  0  0  0  0  0  0  0  0  0  0  0
   -2.7668   -2.9420    0.0815 C   0  0  0  0  0  0  0  0  0  0  0  0
   -3.4513   -2.3842    0.7250 H   0  0  0  0  0  0  0  0  0  0  0  0
   -3.1234   -2.8912   -0.9500 H   0  0  0  0  0  0  0  0  0  0  0  0
   -1.3719   -2.3531    0.1763 C   0  0  0  0  0  0  0  0  0  0  0  0
   -0.4647   -3.0175    0.6476 O   0  0  0  0  0  0  0  0  0  0  0  0
   -1.1566   -1.0479   -0.2165 N   0  0  0  0  0  0  0  0  0  0  0  0
   -1.9725   -0.5015   -0.4874 H   0  0  0  0  0  0  0  0  0  0  0  0
    0.1387   -0.3520   -0.2059 C   0  0  1  0  0  0  0  0  0  0  0  0
    0.8683   -0.8957    0.4053 H   0  0  0  0  0  0  0  0  0  0  0  0
    0.6480   -0.2220   -1.6580 C   0  0  0  0  0  0  0  0  0  0  0  0
   -0.1638    0.1479   -2.2912 H   0  0  0  0  0  0  0  0  0  0  0  0
    1.4511    0.5187   -1.6942 H   0  0  0  0  0  0  0  0  0  0  0  0
    1.1984   -1.5071   -2.2668 C   0  0  0  0  0  0  0  0  0  0  0  0
    1.7218   -2.3416   -1.5505 O   0  0  0  0  0  0  0  0  0  0  0  0
    1.0828   -1.6458   -3.6075 O   0  0  0  0  0  0  0  0  0  0  0  0
    1.4747   -2.5076   -3.8163 H   0  0  0  0  0  0  0  0  0  0  0  0
   -0.0217    1.0583    0.3935 C   0  0  0  0  0  0  0  0  0  0  0  0
   -0.9660    1.7622    0.0540 O   0  0  0  0  0  0  0  0  0  0  0  0
    0.8874    1.5347    1.3196 N   0  0  0  0  0  0  0  0  0  0  0  0
    1.6253    0.9047    1.6227 H   0  0  0  0  0  0  0  0  0  0  0  0
    0.7719    2.8430    1.9524 C   0  0  0  0  0  0  0  0  0  0  0  0
   -0.1683    2.9175    2.5091 H   0  0  0  0  0  0  0  0  0  0  0  0
    1.6004    3.0009    2.6496 H   0  0  0  0  0  0  0  0  0  0  0  0
    0.7988    3.6368    1.1984 H   0  0  0  0  0  0  0  0  0  0  0  0
  1  2  1  0  0  0  0
  2  3  1  0  0  0  0
  2  4  1  0  0  0  0
  2  5  1  0  0  0  0
  5  6  2  0  0  0  0
  5  7  1  0  0  0  0
  7  8  1  0  0  0  0
  7  9  1  0  0  0  0
  9 10  1  0  0  0  0
  9 11  1  0  0  0  0
  9 18  1  0  0  0  0
 11 12  1  0  0  0  0
 11 13  1  0  0  0  0
 11 14  1  0  0  0  0
 14 15  2  0  0  0  0
 14 16  1  0  0  0  0
 16 17  1  0  0  0  0
 18 19  2  0  0  0  0
 18 20  1  0  0  0  0
 20 21  1  0  0  0  0
 20 22  1  0  0  0  0
 22 23  1  0  0  0  0
 22 24  1  0  0  0  0
 22 25  1  0  0  0  0
M  END
$$$$

  -OEChem-02102214113D

 25 24  0     1  0  0  0  0  0999 V2000
   -2.7542   -4.0016    0.3857 H   0  0  0  0  0  0  0  0  0  0  0  0
   -2.7636   -2.9570    0.0621 C   0  0  0  0  0  0  0  0  0  0  0  0
   -3.4838   -2.4049    0.6706 H   0  0  0  0  0  0  0  0  0  0  0  0
   -3.0733   -2.9165   -0.9850 H   0  0  0  0  0  0  0  0  0  0  0  0
   -1.3822   -2.3495    0.2173 C   0  0  0  0  0  0  0  0  0  0  0  0
   -0.5000   -2.9855    0.7696 O   0  0  0  0  0  0  0  0  0  0  0  0
   -1.1607   -1.0494   -0.1900 N   0  0  0  0  0  0  0  0  0  0  0  0
   -1.9648   -0.5190   -0.5201 H   0  0  0  0  0  0  0  0  0  0  0  0
    0.1394   -0.3623   -0.1864 C   0  0  1  0  0  0  0  0  0  0  0  0
    0.8698   -0.9071    0.4230 H   0  0  0  0  0  0  0  0  0  0  0  0
    0.6479   -0.2297   -1.6404 C   0  0  0  0  0  0  0  0  0  0  0  0
   -0.1621    0.1513   -2.2690 H   0  0  0  0  0  0  0  0  0  0  0  0
    1.4544    0.5082   -1.6700 H   0  0  0  0  0  0  0  0  0  0  0  0
    1.1939   -1.5039   -2.2776 C   0  0  0  0  0  0  0  0  0  0  0  0
    1.4709   -2.4695   -1.5903 O   0  0  0  0  0  0  0  0  0  0  0  0
    1.3573   -1.4793   -3.6200 O   0  0  0  0  0  0  0  0  0  0  0  0
    1.7082   -2.3513   -3.8579 H   0  0  0  0  0  0  0  0  0  0  0  0
   -0.0168    1.0545    0.4000 C   0  0  0  0  0  0  0  0  0  0  0  0
   -0.9489    1.7655    0.0416 O   0  0  0  0  0  0  0  0  0  0  0  0
    0.8928    1.5359    1.3229 N   0  0  0  0  0  0  0  0  0  0  0  0
    1.6164    0.8997    1.6466 H   0  0  0  0  0  0  0  0  0  0  0  0
    0.7830    2.8518    1.9412 C   0  0  0  0  0  0  0  0  0  0  0  0
   -0.1543    2.9350    2.5015 H   0  0  0  0  0  0  0  0  0  0  0  0
    1.6151    3.0158    2.6326 H   0  0  0  0  0  0  0  0  0  0  0  0
    0.8086    3.6372    1.1784 H   0  0  0  0  0  0  0  0  0  0  0  0
  1  2  1  0  0  0  0
  2  3  1  0  0  0  0
  2  4  1  0  0  0  0
  2  5  1  0  0  0  0
  5  6  2  0  0  0  0
  5  7  1  0  0  0  0
  7  8  1  0  0  0  0
  7  9  1  0  0  0  0
  9 10  1  0  0  0  0
  9 11  1  0  0  0  0
  9 18  1  0  0  0  0
 11 12  1  0  0  0  0
 11 13  1  0  0  0  0
 11 14  1  0  0  0  0
 14 15  2  0  0  0  0
 14 16  1  0  0  0  0
 16 17  1  0  0  0  0
 18 19  2  0  0  0  0
 18 20  1  0  0  0  0
 20 21  1  0  0  0  0
 20 22  1  0  0  0  0
 22 23  1  0  0  0  0
 22 24  1  0  0  0  0
 22 25  1  0  0  0  0
M  END
$$$$

  -OEChem-02102214113D

 25 24  0     1  0  0  0  0  0999 V2000
   -2.7464   -4.0096    0.3868 H   0  0  0  0  0  0  0  0  0  0  0  0
   -2.7588   -2.9689    0.0506 C   0  0  0  0  0  0  0  0  0  0  0  0
   -3.5058   -2.4197    0.6286 H   0  0  0  0  0  0  0  0  0  0  0  0
   -3.0340   -2.9448   -1.0065 H   0  0  0  0  0  0  0  0  0  0  0  0
   -1.3908   -2.3424    0.2438 C   0  0  0  0  0  0  0  0  0  0  0  0
   -0.5255   -2.9534    0.8500 O   0  0  0  0  0  0  0  0  0  0  0  0
   -1.1679   -1.0452   -0.1736 N   0  0  0  0  0  0  0  0  0  0  0  0
   -1.9608   -0.5317   -0.5529 H   0  0  0  0  0  0  0  0  0  0  0  0
    0.1374   -0.3675   -0.1748 C   0  0  1  0  0  0  0  0  0  0  0  0
    0.8668   -0.9151    0.4326 H   0  0  0  0  0  0  0  0  0  0  0  0
    0.6499   -0.2320   -1.6288 C   0  0  0  0  0  0  0  0  0  0  0  0
   -0.1548    0.1606   -2.2569 H   0  0  0  0  0  0  0  0  0  0  0  0
    1.4612    0.5013   -1.6482 H   0  0  0  0  0  0  0  0  0  0  0  0
    1.1915   -1.4993   -2.2850 C   0  0  0  0  0  0  0  0  0  0  0  0
    1.2134   -2.5557   -1.6818 O   0  0  0  0  0  0  0  0  0  0  0  0
    1.6387   -1.3634   -3.5543 O   0  0  0  0  0  0  0  0  0  0  0  0
    1.9444   -2.2439   -3.8215 H   0  0  0  0  0  0  0  0  0  0  0  0
   -0.0135    1.0532    0.4045 C   0  0  0  0  0  0  0  0  0  0  0  0
   -0.9317    1.7735    0.0292 O   0  0  0  0  0  0  0  0  0  0  0  0
    0.8976    1.5352    1.3259 N   0  0  0  0  0  0  0  0  0  0  0  0
    1.6008    0.8888    1.6732 H   0  0  0  0  0  0  0  0  0  0  0  0
    0.7923    2.8554    1.9357 C   0  0  0  0  0  0  0  0  0  0  0  0
   -0.1438    2.9445    2.4972 H   0  0  0  0  0  0  0  0  0  0  0  0
    1.6265    3.0226    2.6239 H   0  0  0  0  0  0  0  0  0  0  0  0
    0.8179    3.6355    1.1674 H   0  0  0  0  0  0  0  0  0  0  0  0
  1  2  1  0  0  0  0
  2  3  1  0  0  0  0
  2  4  1  0  0  0  0
  2  5  1  0  0  0  0
  5  6  2  0  0  0  0
  5  7  1  0  0  0  0
  7  8  1  0  0  0  0
  7  9  1  0  0  0  0
  9 10  1  0  0  0  0
  9 11  1  0  0  0  0
  9 18  1  0  0  0  0
 11 12  1  0  0  0  0
 11 13  1  0  0  0  0
 11 14  1  0  0  0  0
 14 15  2  0  0  0  0
 14 16  1  0  0  0  0
 16 17  1  0  0  0  0
 18 19  2  0  0  0  0
 18 20  1  0  0  0  0
 20 21  1  0  0  0  0
 20 22  1  0  0  0  0
 22 23  1  0  0  0  0
 22 24  1  0  0  0  0
 22 25  1  0  0  0  0
M  END
$$$$

  -OEChem-02102214113D

 25 24  0     1  0  0  0  0  0999 V2000
   -2.7381   -4.0164    0.3830 H   0  0  0  0  0  0  0  0  0  0  0  0
   -2.7545   -2.9776    0.0417 C   0  0  0  0  0  0  0  0  0  0  0  0
   -3.5195   -2.4334    0.6005 H   0  0  0  0  0  0  0  0  0  0  0  0
   -3.0068   -2.9614   -1.0211 H   0  0  0  0  0  0  0  0  0  0  0  0
   -1.3973   -2.3362    0.2598 C   0  0  0  0  0  0  0  0  0  0  0  0
   -0.5365   -2.9340    0.8867 O   0  0  0  0  0  0  0  0  0  0  0  0
   -1.1774   -1.0398   -0.1623 N   0  0  0  0  0  0  0  0  0  0  0  0
   -1.9639   -0.5383   -0.5696 H   0  0  0  0  0  0  0  0  0  0  0  0
    0.1304   -0.3679   -0.1699 C   0  0  1  0  0  0  0  0  0  0  0  0
    0.8592   -0.9183    0.4355 H   0  0  0  0  0  0  0  0  0  0  0  0
    0.6485   -0.2288   -1.6219 C   0  0  0  0  0  0  0  0  0  0  0  0
   -0.1510    0.1708   -2.2518 H   0  0  0  0  0  0  0  0  0  0  0  0
    1.4623    0.5024   -1.6321 H   0  0  0  0  0  0  0  0  0  0  0  0
    1.1886   -1.4936   -2.2852 C   0  0  0  0  0  0  0  0  0  0  0  0
    0.9660   -2.5930   -1.8137 O   0  0  0  0  0  0  0  0  0  0  0  0
    1.9169   -1.3057   -3.4096 O   0  0  0  0  0  0  0  0  0  0  0  0
    2.1829   -2.1910   -3.7024 H   0  0  0  0  0  0  0  0  0  0  0  0
   -0.0154    1.0541    0.4081 C   0  0  0  0  0  0  0  0  0  0  0  0
   -0.9296    1.7785    0.0308 O   0  0  0  0  0  0  0  0  0  0  0  0
    0.9004    1.5341    1.3259 N   0  0  0  0  0  0  0  0  0  0  0  0
    1.5993    0.8844    1.6758 H   0  0  0  0  0  0  0  0  0  0  0  0
    0.8011    2.8557    1.9334 C   0  0  0  0  0  0  0  0  0  0  0  0
   -0.1327    2.9485    2.4980 H   0  0  0  0  0  0  0  0  0  0  0  0
    1.6382    3.0212    2.6185 H   0  0  0  0  0  0  0  0  0  0  0  0
    0.8266    3.6342    1.1636 H   0  0  0  0  0  0  0  0  0  0  0  0
  1  2  1  0  0  0  0
  2  3  1  0  0  0  0
  2  4  1  0  0  0  0
  2  5  1  0  0  0  0
  5  6  2  0  0  0  0
  5  7  1  0  0  0  0
  7  8  1  0  0  0  0
  7  9  1  0  0  0  0
  9 10  1  0  0  0  0
  9 11  1  0  0  0  0
  9 18  1  0  0  0  0
 11 12  1  0  0  0  0
 11 13  1  0  0  0  0
 11 14  1  0  0  0  0
 14 15  2  0  0  0  0
 14 16  1  0  0  0  0
 16 17  1  0  0  0  0
 18 19  2  0  0  0  0
 18 20  1  0  0  0  0
 20 21  1  0  0  0  0
 20 22  1  0  0  0  0
 22 23  1  0  0  0  0
 22 24  1  0  0  0  0
 22 25  1  0  0  0  0
M  END
$$$$

  -OEChem-02102214113D

 25 24  0     1  0  0  0  0  0999 V2000
   -2.7282   -4.0191    0.3855 H   0  0  0  0  0  0  0  0  0  0  0  0
   -2.7490   -2.9830    0.0367 C   0  0  0  0  0  0  0  0  0  0  0  0
   -3.5190   -2.4388    0.5883 H   0  0  0  0  0  0  0  0  0  0  0  0
   -2.9959   -2.9757   -1.0276 H   0  0  0  0  0  0  0  0  0  0  0  0
   -1.3965   -2.3326    0.2562 C   0  0  0  0  0  0  0  0  0  0  0  0
   -0.5268   -2.9288    0.8732 O   0  0  0  0  0  0  0  0  0  0  0  0
   -1.1836   -1.0339   -0.1623 N   0  0  0  0  0  0  0  0  0  0  0  0
   -1.9696   -0.5380   -0.5769 H   0  0  0  0  0  0  0  0  0  0  0  0
    0.1239   -0.3625   -0.1722 C   0  0  1  0  0  0  0  0  0  0  0  0
    0.8532   -0.9138    0.4314 H   0  0  0  0  0  0  0  0  0  0  0  0
    0.6461   -0.2206   -1.6222 C   0  0  0  0  0  0  0  0  0  0  0  0
   -0.1500    0.1800   -2.2559 H   0  0  0  0  0  0  0  0  0  0  0  0
    1.4596    0.5108   -1.6272 H   0  0  0  0  0  0  0  0  0  0  0  0
    1.1861   -1.4889   -2.2795 C   0  0  0  0  0  0  0  0  0  0  0  0
    0.7464   -2.5828   -1.9773 O   0  0  0  0  0  0  0  0  0  0  0  0
    2.1638   -1.3134   -3.1980 O   0  0  0  0  0  0  0  0  0  0  0  0
    2.3932   -2.2020   -3.5114 H   0  0  0  0  0  0  0  0  0  0  0  0
   -0.0208    1.0570    0.4127 C   0  0  0  0  0  0  0  0  0  0  0  0
   -0.9344    1.7844    0.0398 O   0  0  0  0  0  0  0  0  0  0  0  0
    0.8980    1.5336    1.3294 N   0  0  0  0  0  0  0  0  0  0  0  0
    1.6000    0.8839    1.6727 H   0  0  0  0  0  0  0  0  0  0  0  0
    0.8054    2.8555    1.9374 C   0  0  0  0  0  0  0  0  0  0  0  0
   -0.1243    2.9502    2.5083 H   0  0  0  0  0  0  0  0  0  0  0  0
    1.6475    3.0197    2.6165 H   0  0  0  0  0  0  0  0  0  0  0  0
    0.8271    3.6336    1.1671 H   0  0  0  0  0  0  0  0  0  0  0  0
  1  2  1  0  0  0  0
  2  3  1  0  0  0  0
  2  4  1  0  0  0  0
  2  5  1  0  0  0  0
  5  6  2  0  0  0  0
  5  7  1  0  0  0  0
  7  8  1  0  0  0  0
  7  9  1  0  0  0  0
  9 10  1  0  0  0  0
  9 11  1  0  0  0  0
  9 18  1  0  0  0  0
 11 12  1  0  0  0  0
 11 13  1  0  0  0  0
 11 14  1  0  0  0  0
 14 15  2  0  0  0  0
 14 16  1  0  0  0  0
 16 17  1  0  0  0  0
 18 19  2  0  0  0  0
 18 20  1  0  0  0  0
 20 21  1  0  0  0  0
 20 22  1  0  0  0  0
 22 23  1  0  0  0  0
 22 24  1  0  0  0  0
 22 25  1  0  0  0  0
M  END
$$$$

  -OEChem-02102214113D

 25 24  0     1  0  0  0  0  0999 V2000
   -2.7156   -4.0191    0.3860 H   0  0  0  0  0  0  0  0  0  0  0  0
   -2.7415   -2.9823    0.0395 C   0  0  0  0  0  0  0  0  0  0  0  0
   -3.5021   -2.4387    0.6048 H   0  0  0  0  0  0  0  0  0  0  0  0
   -3.0063   -2.9728   -1.0205 H   0  0  0  0  0  0  0  0  0  0  0  0
   -1.3853   -2.3327    0.2369 C   0  0  0  0  0  0  0  0  0  0  0  0
   -0.4969   -2.9386    0.8175 O   0  0  0  0  0  0  0  0  0  0  0  0
   -1.1826   -1.0297   -0.1729 N   0  0  0  0  0  0  0  0  0  0  0  0
   -1.9757   -0.5307   -0.5702 H   0  0  0  0  0  0  0  0  0  0  0  0
    0.1215   -0.3529   -0.1827 C   0  0  1  0  0  0  0  0  0  0  0  0
    0.8536   -0.9031    0.4185 H   0  0  0  0  0  0  0  0  0  0  0  0
    0.6441   -0.2082   -1.6306 C   0  0  0  0  0  0  0  0  0  0  0  0
   -0.1519    0.1856   -2.2685 H   0  0  0  0  0  0  0  0  0  0  0  0
    1.4546    0.5266   -1.6382 H   0  0  0  0  0  0  0  0  0  0  0  0
    1.1846   -1.4859   -2.2679 C   0  0  0  0  0  0  0  0  0  0  0  0
    0.5698   -2.5319   -2.1626 O   0  0  0  0  0  0  0  0  0  0  0  0
    2.3601   -1.3807   -2.9298 O   0  0  0  0  0  0  0  0  0  0  0  0
    2.5576   -2.2716   -3.2581 H   0  0  0  0  0  0  0  0  0  0  0  0
   -0.0256    1.0619    0.4126 C   0  0  0  0  0  0  0  0  0  0  0  0
   -0.9447    1.7874    0.0500 O   0  0  0  0  0  0  0  0  0  0  0  0
    0.8948    1.5357    1.3290 N   0  0  0  0  0  0  0  0  0  0  0  0
    1.6036    0.8880    1.6618 H   0  0  0  0  0  0  0  0  0  0  0  0
    0.8005    2.8539    1.9447 C   0  0  0  0  0  0  0  0  0  0  0  0
   -0.1306    2.9449    2.5142 H   0  0  0  0  0  0  0  0  0  0  0  0
    1.6412    3.0141    2.6268 H   0  0  0  0  0  0  0  0  0  0  0  0
    0.8238    3.6369    1.1793 H   0  0  0  0  0  0  0  0  0  0  0  0
  1  2  1  0  0  0  0
  2  3  1  0  0  0  0
  2  4  1  0  0  0  0
  2  5  1  0  0  0  0
  5  6  2  0  0  0  0
  5  7  1  0  0  0  0
  7  8  1  0  0  0  0
  7  9  1  0  0  0  0
  9 10  1  0  0  0  0
  9 11  1  0  0  0  0
  9 18  1  0  0  0  0
 11 12  1  0  0  0  0
 11 13  1  0  0  0  0
 11 14  1  0  0  0  0
 14 15  2  0  0  0  0
 14 16  1  0  0  0  0
 16 17  1  0  0  0  0
 18 19  2  0  0  0  0
 18 20  1  0  0  0  0
 20 21  1  0  0  0  0
 20 22  1  0  0  0  0
 22 23  1  0  0  0  0
 22 24  1  0  0  0  0
 22 25  1  0  0  0  0
M  END
$$$$

  -OEChem-02102214113D

 25 24  0     1  0  0  0  0  0999 V2000
   -2.6914   -4.0243    0.3669 H   0  0  0  0  0  0  0  0  0  0  0  0
   -2.7292   -2.9814    0.0401 C   0  0  0  0  0  0  0  0  0  0  0  0
   -3.4726   -2.4488    0.6380 H   0  0  0  0  0  0  0  0  0  0  0  0
   -3.0270   -2.9534   -1.0109 H   0  0  0  0  0  0  0  0  0  0  0  0
   -1.3681   -2.3331    0.2066 C   0  0  0  0  0  0  0  0  0  0  0  0
   -0.4567   -2.9522    0.7357 O   0  0  0  0  0  0  0  0  0  0  0  0
   -1.1773   -1.0246   -0.1906 N   0  0  0  0  0  0  0  0  0  0  0  0
   -1.9814   -0.5190   -0.5566 H   0  0  0  0  0  0  0  0  0  0  0  0
    0.1213   -0.3381   -0.1981 C   0  0  1  0  0  0  0  0  0  0  0  0
    0.8572   -0.8867    0.4000 H   0  0  0  0  0  0  0  0  0  0  0  0
    0.6383   -0.1949   -1.6454 C   0  0  0  0  0  0  0  0  0  0  0  0
   -0.1615    0.1854   -2.2870 H   0  0  0  0  0  0  0  0  0  0  0  0
    1.4457    0.5430   -1.6651 H   0  0  0  0  0  0  0  0  0  0  0  0
    1.1778   -1.4877   -2.2483 C   0  0  0  0  0  0  0  0  0  0  0  0
    0.4432   -2.4542   -2.3568 O   0  0  0  0  0  0  0  0  0  0  0  0
    2.4804   -1.4982   -2.6143 O   0  0  0  0  0  0  0  0  0  0  0  0
    2.6519   -2.3935   -2.9455 H   0  0  0  0  0  0  0  0  0  0  0  0
   -0.0280    1.0710    0.4101 C   0  0  0  0  0  0  0  0  0  0  0  0
   -0.9573    1.7916    0.0646 O   0  0  0  0  0  0  0  0  0  0  0  0
    0.8938    1.5428    1.3263 N   0  0  0  0  0  0  0  0  0  0  0  0
    1.6223    0.9046    1.6339 H   0  0  0  0  0  0  0  0  0  0  0  0
    0.7930    2.8539    1.9563 C   0  0  0  0  0  0  0  0  0  0  0  0
   -0.1441    2.9386    2.5166 H   0  0  0  0  0  0  0  0  0  0  0  0
    1.6256    3.0060    2.6497 H   0  0  0  0  0  0  0  0  0  0  0  0
    0.8244    3.6459    1.2006 H   0  0  0  0  0  0  0  0  0  0  0  0
  1  2  1  0  0  0  0
  2  3  1  0  0  0  0
  2  4  1  0  0  0  0
  2  5  1  0  0  0  0
  5  6  2  0  0  0  0
  5  7  1  0  0  0  0
  7  8  1  0  0  0  0
  7  9  1  0  0  0  0
  9 10  1  0  0  0  0
  9 11  1  0  0  0  0
  9 18  1  0  0  0  0
 11 12  1  0  0  0  0
 11 13  1  0  0  0  0
 11 14  1  0  0  0  0
 14 15  2  0  0  0  0
 14 16  1  0  0  0  0
 16 17  1  0  0  0  0
 18 19  2  0  0  0  0
 18 20  1  0  0  0  0
 20 21  1  0  0  0  0
 20 22  1  0  0  0  0
 22 23  1  0  0  0  0
 22 24  1  0  0  0  0
 22 25  1  0  0  0  0
M  END
$$$$

  -OEChem-02102214113D

 25 24  0     1  0  0  0  0  0999 V2000
   -2.6703   -4.0231    0.3599 H   0  0  0  0  0  0  0  0  0  0  0  0
   -2.7146   -2.9790    0.0381 C   0  0  0  0  0  0  0  0  0  0  0  0
   -3.4399   -2.4476    0.6588 H   0  0  0  0  0  0  0  0  0  0  0  0
   -3.0415   -2.9457   -1.0040 H   0  0  0  0  0  0  0  0  0  0  0  0
   -1.3483   -2.3340    0.1691 C   0  0  0  0  0  0  0  0  0  0  0  0
   -0.4153   -2.9665    0.6415 O   0  0  0  0  0  0  0  0  0  0  0  0
   -1.1700   -1.0197   -0.2136 N   0  0  0  0  0  0  0  0  0  0  0  0
   -1.9860   -0.5050   -0.5391 H   0  0  0  0  0  0  0  0  0  0  0  0
    0.1218   -0.3214   -0.2143 C   0  0  1  0  0  0  0  0  0  0  0  0
    0.8611   -0.8680    0.3818 H   0  0  0  0  0  0  0  0  0  0  0  0
    0.6322   -0.1837   -1.6609 C   0  0  0  0  0  0  0  0  0  0  0  0
   -0.1703    0.1816   -2.3082 H   0  0  0  0  0  0  0  0  0  0  0  0
    1.4389    0.5541   -1.6948 H   0  0  0  0  0  0  0  0  0  0  0  0
    1.1705   -1.4944   -2.2189 C   0  0  0  0  0  0  0  0  0  0  0  0
    0.3832   -2.3639   -2.5528 O   0  0  0  0  0  0  0  0  0  0  0  0
    2.5145   -1.6392   -2.2778 O   0  0  0  0  0  0  0  0  0  0  0  0
    2.6662   -2.5371   -2.6114 H   0  0  0  0  0  0  0  0  0  0  0  0
   -0.0316    1.0810    0.4070 C   0  0  0  0  0  0  0  0  0  0  0  0
   -0.9733    1.7942    0.0807 O   0  0  0  0  0  0  0  0  0  0  0  0
    0.8907    1.5485    1.3249 N   0  0  0  0  0  0  0  0  0  0  0  0
    1.6365    0.9190    1.6078 H   0  0  0  0  0  0  0  0  0  0  0  0
    0.7879    2.8538    1.9663 C   0  0  0  0  0  0  0  0  0  0  0  0
   -0.1478    2.9314    2.5299 H   0  0  0  0  0  0  0  0  0  0  0  0
    1.6220    3.0020    2.6590 H   0  0  0  0  0  0  0  0  0  0  0  0
    0.8150    3.6521    1.2172 H   0  0  0  0  0  0  0  0  0  0  0  0
  1  2  1  0  0  0  0
  2  3  1  0  0  0  0
  2  4  1  0  0  0  0
  2  5  1  0  0  0  0
  5  6  2  0  0  0  0
  5  7  1  0  0  0  0
  7  8  1  0  0  0  0
  7  9  1  0  0  0  0
  9 10  1  0  0  0  0
  9 11  1  0  0  0  0
  9 18  1  0  0  0  0
 11 12  1  0  0  0  0
 11 13  1  0  0  0  0
 11 14  1  0  0  0  0
 14 15  2  0  0  0  0
 14 16  1  0  0  0  0
 16 17  1  0  0  0  0
 18 19  2  0  0  0  0
 18 20  1  0  0  0  0
 20 21  1  0  0  0  0
 20 22  1  0  0  0  0
 22 23  1  0  0  0  0
 22 24  1  0  0  0  0
 22 25  1  0  0  0  0
M  END
$$$$

  -OEChem-02102214113D

 25 24  0     1  0  0  0  0  0999 V2000
   -2.6607   -4.0170    0.3578 H   0  0  0  0  0  0  0  0  0  0  0  0
   -2.7078   -2.9704    0.0444 C   0  0  0  0  0  0  0  0  0  0  0  0
   -3.4095   -2.4385    0.6912 H   0  0  0  0  0  0  0  0  0  0  0  0
   -3.0675   -2.9275   -0.9866 H   0  0  0  0  0  0  0  0  0  0  0  0
   -1.3337   -2.3353    0.1362 C   0  0  0  0  0  0  0  0  0  0  0  0
   -0.3850   -2.9835    0.5521 O   0  0  0  0  0  0  0  0  0  0  0  0
   -1.1605   -1.0177   -0.2360 N   0  0  0  0  0  0  0  0  0  0  0  0
   -1.9863   -0.4904   -0.5141 H   0  0  0  0  0  0  0  0  0  0  0  0
    0.1264   -0.3104   -0.2285 C   0  0  1  0  0  0  0  0  0  0  0  0
    0.8666   -0.8552    0.3688 H   0  0  0  0  0  0  0  0  0  0  0  0
    0.6320   -0.1814   -1.6747 C   0  0  0  0  0  0  0  0  0  0  0  0
   -0.1722    0.1725   -2.3268 H   0  0  0  0  0  0  0  0  0  0  0  0
    1.4398    0.5539   -1.7209 H   0  0  0  0  0  0  0  0  0  0  0  0
    1.1693   -1.5069   -2.1923 C   0  0  0  0  0  0  0  0  0  0  0  0
    0.4044   -2.2715   -2.7563 O   0  0  0  0  0  0  0  0  0  0  0  0
    2.4744   -1.7819   -1.9637 O   0  0  0  0  0  0  0  0  0  0  0  0
    2.6167   -2.6779   -2.3067 H   0  0  0  0  0  0  0  0  0  0  0  0
   -0.0311    1.0877    0.4001 C   0  0  0  0  0  0  0  0  0  0  0  0
   -0.9822    1.7939    0.0870 O   0  0  0  0  0  0  0  0  0  0  0  0
    0.8890    1.5530    1.3214 N   0  0  0  0  0  0  0  0  0  0  0  0
    1.6446    0.9293    1.5915 H   0  0  0  0  0  0  0  0  0  0  0  0
    0.7788    2.8522    1.9740 C   0  0  0  0  0  0  0  0  0  0  0  0
   -0.1598    2.9212    2.5341 H   0  0  0  0  0  0  0  0  0  0  0  0
    1.6093    2.9972    2.6718 H   0  0  0  0  0  0  0  0  0  0  0  0
    0.8060    3.6573    1.2321 H   0  0  0  0  0  0  0  0  0  0  0  0
  1  2  1  0  0  0  0
  2  3  1  0  0  0  0
  2  4  1  0  0  0  0
  2  5  1  0  0  0  0
  5  6  2  0  0  0  0
  5  7  1  0  0  0  0
  7  8  1  0  0  0  0
  7  9  1  0  0  0  0
  9 10  1  0  0  0  0
  9 11  1  0  0  0  0
  9 18  1  0  0  0  0
 11 12  1  0  0  0  0
 11 13  1  0  0  0  0
 11 14  1  0  0  0  0
 14 15  2  0  0  0  0
 14 16  1  0  0  0  0
 16 17  1  0  0  0  0
 18 19  2  0  0  0  0
 18 20  1  0  0  0  0
 20 21  1  0  0  0  0
 20 22  1  0  0  0  0
 22 23  1  0  0  0  0
 22 24  1  0  0  0  0
 22 25  1  0  0  0  0
M  END
$$$$

  -OEChem-02102214113D

 25 24  0     1  0  0  0  0  0999 V2000
   -2.6708   -4.0049    0.3746 H   0  0  0  0  0  0  0  0  0  0  0  0
   -2.7157   -2.9583    0.0607 C   0  0  0  0  0  0  0  0  0  0  0  0
   -3.3911   -2.4183    0.7284 H   0  0  0  0  0  0  0  0  0  0  0  0
   -3.1078   -2.9132   -0.9584 H   0  0  0  0  0  0  0  0  0  0  0  0
   -1.3324   -2.3378    0.1088 C   0  0  0  0  0  0  0  0  0  0  0  0
   -0.3754   -3.0026    0.4756 O   0  0  0  0  0  0  0  0  0  0  0  0
   -1.1583   -1.0185   -0.2566 N   0  0  0  0  0  0  0  0  0  0  0  0
   -1.9902   -0.4774   -0.4872 H   0  0  0  0  0  0  0  0  0  0  0  0
    0.1263   -0.3065   -0.2386 C   0  0  1  0  0  0  0  0  0  0  0  0
    0.8608   -0.8505    0.3661 H   0  0  0  0  0  0  0  0  0  0  0  0
    0.6397   -0.1867   -1.6817 C   0  0  0  0  0  0  0  0  0  0  0  0
   -0.1609    0.1602   -2.3421 H   0  0  0  0  0  0  0  0  0  0  0  0
    1.4493    0.5466   -1.7292 H   0  0  0  0  0  0  0  0  0  0  0  0
    1.1812   -1.5203   -2.1723 C   0  0  0  0  0  0  0  0  0  0  0  0
    0.5145   -2.1702   -2.9604 O   0  0  0  0  0  0  0  0  0  0  0  0
    2.3852   -1.9171   -1.6973 O   0  0  0  0  0  0  0  0  0  0  0  0
    2.5322   -2.8025   -2.0646 H   0  0  0  0  0  0  0  0  0  0  0  0
   -0.0331    1.0897    0.3925 C   0  0  0  0  0  0  0  0  0  0  0  0
   -0.9919    1.7898    0.0895 O   0  0  0  0  0  0  0  0  0  0  0  0
    0.8836    1.5517    1.3188 N   0  0  0  0  0  0  0  0  0  0  0  0
    1.6478    0.9334    1.5772 H   0  0  0  0  0  0  0  0  0  0  0  0
    0.7703    2.8475    1.9775 C   0  0  0  0  0  0  0  0  0  0  0  0
   -0.1662    2.9099    2.5417 H   0  0  0  0  0  0  0  0  0  0  0  0
    1.6028    2.9933    2.6727 H   0  0  0  0  0  0  0  0  0  0  0  0
    0.7911    3.6557    1.2388 H   0  0  0  0  0  0  0  0  0  0  0  0
  1  2  1  0  0  0  0
  2  3  1  0  0  0  0
  2  4  1  0  0  0  0
  2  5  1  0  0  0  0
  5  6  2  0  0  0  0
  5  7  1  0  0  0  0
  7  8  1  0  0  0  0
  7  9  1  0  0  0  0
  9 10  1  0  0  0  0
  9 11  1  0  0  0  0
  9 18  1  0  0  0  0
 11 12  1  0  0  0  0
 11 13  1  0  0  0  0
 11 14  1  0  0  0  0
 14 15  2  0  0  0  0
 14 16  1  0  0  0  0
 16 17  1  0  0  0  0
 18 19  2  0  0  0  0
 18 20  1  0  0  0  0
 20 21  1  0  0  0  0
 20 22  1  0  0  0  0
 22 23  1  0  0  0  0
 22 24  1  0  0  0  0
 22 25  1  0  0  0  0
M  END
$$$$

  -OEChem-02102214113D

 25 24  0     1  0  0  0  0  0999 V2000
   -2.6981   -3.9894    0.3907 H   0  0  0  0  0  0  0  0  0  0  0  0
   -2.7339   -2.9416    0.0798 C   0  0  0  0  0  0  0  0  0  0  0  0
   -3.3907   -2.3934    0.7595 H   0  0  0  0  0  0  0  0  0  0  0  0
   -3.1419   -2.8889   -0.9325 H   0  0  0  0  0  0  0  0  0  0  0  0
   -1.3416   -2.3402    0.1066 C   0  0  0  0  0  0  0  0  0  0  0  0
   -0.3881   -3.0201    0.4526 O   0  0  0  0  0  0  0  0  0  0  0  0
   -1.1561   -1.0235   -0.2614 N   0  0  0  0  0  0  0  0  0  0  0  0
   -1.9870   -0.4706   -0.4671 H   0  0  0  0  0  0  0  0  0  0  0  0
    0.1311   -0.3149   -0.2362 C   0  0  1  0  0  0  0  0  0  0  0  0
    0.8583   -0.8585    0.3779 H   0  0  0  0  0  0  0  0  0  0  0  0
    0.6518   -0.2012   -1.6780 C   0  0  0  0  0  0  0  0  0  0  0  0
   -0.1455    0.1494   -2.3406 H   0  0  0  0  0  0  0  0  0  0  0  0
    1.4643    0.5288   -1.7209 H   0  0  0  0  0  0  0  0  0  0  0  0
    1.1939   -1.5348   -2.1695 C   0  0  0  0  0  0  0  0  0  0  0  0
    0.6813   -2.0470   -3.1505 O   0  0  0  0  0  0  0  0  0  0  0  0
    2.2564   -2.0599   -1.5146 O   0  0  0  0  0  0  0  0  0  0  0  0
    2.4215   -2.9214   -1.9276 H   0  0  0  0  0  0  0  0  0  0  0  0
   -0.0316    1.0836    0.3888 C   0  0  0  0  0  0  0  0  0  0  0  0
   -0.9909    1.7806    0.0798 O   0  0  0  0  0  0  0  0  0  0  0  0
    0.8772    1.5488    1.3211 N   0  0  0  0  0  0  0  0  0  0  0  0
    1.6409    0.9326    1.5858 H   0  0  0  0  0  0  0  0  0  0  0  0
    0.7566    2.8460    1.9756 C   0  0  0  0  0  0  0  0  0  0  0  0
   -0.1794    2.9041    2.5412 H   0  0  0  0  0  0  0  0  0  0  0  0
    1.5893    2.9999    2.6685 H   0  0  0  0  0  0  0  0  0  0  0  0
    0.7712    3.6518    1.2340 H   0  0  0  0  0  0  0  0  0  0  0  0
  1  2  1  0  0  0  0
  2  3  1  0  0  0  0
  2  4  1  0  0  0  0
  2  5  1  0  0  0  0
  5  6  2  0  0  0  0
  5  7  1  0  0  0  0
  7  8  1  0  0  0  0
  7  9  1  0  0  0  0
  9 10  1  0  0  0  0
  9 11  1  0  0  0  0
  9 18  1  0  0  0  0
 11 12  1  0  0  0  0
 11 13  1  0  0  0  0
 11 14  1  0  0  0  0
 14 15  2  0  0  0  0
 14 16  1  0  0  0  0
 16 17  1  0  0  0  0
 18 19  2  0  0  0  0
 18 20  1  0  0  0  0
 20 21  1  0  0  0  0
 20 22  1  0  0  0  0
 22 23  1  0  0  0  0
 22 24  1  0  0  0  0
 22 25  1  0  0  0  0
M  END
$$$$

  -OEChem-02102214113D

 25 24  0     1  0  0  0  0  0999 V2000
   -2.7396   -3.9726    0.4176 H   0  0  0  0  0  0  0  0  0  0  0  0
   -2.7625   -2.9263    0.1001 C   0  0  0  0  0  0  0  0  0  0  0  0
   -3.4073   -2.3656    0.7810 H   0  0  0  0  0  0  0  0  0  0  0  0
   -3.1766   -2.8738   -0.9098 H   0  0  0  0  0  0  0  0  0  0  0  0
   -1.3617   -2.3443    0.1149 C   0  0  0  0  0  0  0  0  0  0  0  0
   -0.4180   -3.0365    0.4612 O   0  0  0  0  0  0  0  0  0  0  0  0
   -1.1623   -1.0311   -0.2589 N   0  0  0  0  0  0  0  0  0  0  0  0
   -1.9902   -0.4691   -0.4526 H   0  0  0  0  0  0  0  0  0  0  0  0
    0.1274   -0.3263   -0.2305 C   0  0  1  0  0  0  0  0  0  0  0  0
    0.8464   -0.8692    0.3934 H   0  0  0  0  0  0  0  0  0  0  0  0
    0.6592   -0.2184   -1.6707 C   0  0  0  0  0  0  0  0  0  0  0  0
   -0.1352    0.1348   -2.3355 H   0  0  0  0  0  0  0  0  0  0  0  0
    1.4721    0.5115   -1.7070 H   0  0  0  0  0  0  0  0  0  0  0  0
    1.2084   -1.5453   -2.1763 C   0  0  0  0  0  0  0  0  0  0  0  0
    0.9001   -1.9069   -3.2993 O   0  0  0  0  0  0  0  0  0  0  0  0
    2.1046   -2.1971   -1.3979 O   0  0  0  0  0  0  0  0  0  0  0  0
    2.3144   -3.0211   -1.8630 H   0  0  0  0  0  0  0  0  0  0  0  0
   -0.0352    1.0764    0.3848 C   0  0  0  0  0  0  0  0  0  0  0  0
   -0.9948    1.7712    0.0720 O   0  0  0  0  0  0  0  0  0  0  0  0
    0.8704    1.5428    1.3195 N   0  0  0  0  0  0  0  0  0  0  0  0
    1.6300    0.9245    1.5909 H   0  0  0  0  0  0  0  0  0  0  0  0
    0.7511    2.8423    1.9695 C   0  0  0  0  0  0  0  0  0  0  0  0
   -0.1858    2.9046    2.5330 H   0  0  0  0  0  0  0  0  0  0  0  0
    1.5831    2.9958    2.6637 H   0  0  0  0  0  0  0  0  0  0  0  0
    0.7688    3.6459    1.2257 H   0  0  0  0  0  0  0  0  0  0  0  0
  1  2  1  0  0  0  0
  2  3  1  0  0  0  0
  2  4  1  0  0  0  0
  2  5  1  0  0  0  0
  5  6  2  0  0  0  0
  5  7  1  0  0  0  0
  7  8  1  0  0  0  0
  7  9  1  0  0  0  0
  9 10  1  0  0  0  0
  9 11  1  0  0  0  0
  9 18  1  0  0  0  0
 11 12  1  0  0  0  0
 11 13  1  0  0  0  0
 11 14  1  0  0  0  0
 14 15  2  0  0  0  0
 14 16  1  0  0  0  0
 16 17  1  0  0  0  0
 18 19  2  0  0  0  0
 18 20  1  0  0  0  0
 20 21  1  0  0  0  0
 20 22  1  0  0  0  0
 22 23  1  0  0  0  0
 22 24  1  0  0  0  0
 22 25  1  0  0  0  0
M  END
$$$$

  -OEChem-02102214113D

 25 24  0     1  0  0  0  0  0999 V2000
   -2.7783   -3.9636    0.4273 H   0  0  0  0  0  0  0  0  0  0  0  0
   -2.7855   -2.9151    0.1165 C   0  0  0  0  0  0  0  0  0  0  0  0
   -3.4287   -2.3502    0.7955 H   0  0  0  0  0  0  0  0  0  0  0  0
   -3.1910   -2.8511   -0.8960 H   0  0  0  0  0  0  0  0  0  0  0  0
   -1.3779   -2.3504    0.1474 C   0  0  0  0  0  0  0  0  0  0  0  0
   -0.4536   -3.0449    0.5368 O   0  0  0  0  0  0  0  0  0  0  0  0
   -1.1599   -1.0434   -0.2381 N   0  0  0  0  0  0  0  0  0  0  0  0
   -1.9799   -0.4793   -0.4574 H   0  0  0  0  0  0  0  0  0  0  0  0
    0.1346   -0.3466   -0.2126 C   0  0  1  0  0  0  0  0  0  0  0  0
    0.8538   -0.8884    0.4121 H   0  0  0  0  0  0  0  0  0  0  0  0
    0.6612   -0.2347   -1.6571 C   0  0  0  0  0  0  0  0  0  0  0  0
   -0.1365    0.1301   -2.3116 H   0  0  0  0  0  0  0  0  0  0  0  0
    1.4747    0.4950   -1.6875 H   0  0  0  0  0  0  0  0  0  0  0  0
    1.2093   -1.5466   -2.2055 C   0  0  0  0  0  0  0  0  0  0  0  0
    1.1217   -1.7367   -3.4065 O   0  0  0  0  0  0  0  0  0  0  0  0
    1.9023   -2.3558   -1.3709 O   0  0  0  0  0  0  0  0  0  0  0  0
    2.1626   -3.1285   -1.8941 H   0  0  0  0  0  0  0  0  0  0  0  0
   -0.0323    1.0617    0.3895 C   0  0  0  0  0  0  0  0  0  0  0  0
   -0.9847    1.7571    0.0561 O   0  0  0  0  0  0  0  0  0  0  0  0
    0.8660    1.5384    1.3259 N   0  0  0  0  0  0  0  0  0  0  0  0
    1.6221    0.9227    1.6123 H   0  0  0  0  0  0  0  0  0  0  0  0
    0.7431    2.8468    1.9575 C   0  0  0  0  0  0  0  0  0  0  0  0
   -0.2266    2.9428    2.4576 H   0  0  0  0  0  0  0  0  0  0  0  0
    1.5308    2.9821    2.7051 H   0  0  0  0  0  0  0  0  0  0  0  0
    0.8343    3.6419    1.2101 H   0  0  0  0  0  0  0  0  0  0  0  0
  1  2  1  0  0  0  0
  2  3  1  0  0  0  0
  2  4  1  0  0  0  0
  2  5  1  0  0  0  0
  5  6  2  0  0  0  0
  5  7  1  0  0  0  0
  7  8  1  0  0  0  0
  7  9  1  0  0  0  0
  9 10  1  0  0  0  0
  9 11  1  0  0  0  0
  9 18  1  0  0  0  0
 11 12  1  0  0  0  0
 11 13  1  0  0  0  0
 11 14  1  0  0  0  0
 14 15  2  0  0  0  0
 14 16  1  0  0  0  0
 16 17  1  0  0  0  0
 18 19  2  0  0  0  0
 18 20  1  0  0  0  0
 20 21  1  0  0  0  0
 20 22  1  0  0  0  0
 22 23  1  0  0  0  0
 22 24  1  0  0  0  0
 22 25  1  0  0  0  0
M  END
$$$$

  -OEChem-02102214113D

 25 24  0     1  0  0  0  0  0999 V2000
   -2.8060   -3.9666    0.4270 H   0  0  0  0  0  0  0  0  0  0  0  0
   -2.8021   -2.9232    0.1000 C   0  0  0  0  0  0  0  0  0  0  0  0
   -3.4843   -2.3524    0.7346 H   0  0  0  0  0  0  0  0  0  0  0  0
   -3.1520   -2.8774   -0.9341 H   0  0  0  0  0  0  0  0  0  0  0  0
   -1.4012   -2.3494    0.1993 C   0  0  0  0  0  0  0  0  0  0  0  0
   -0.5060   -3.0212    0.6844 O   0  0  0  0  0  0  0  0  0  0  0  0
   -1.1694   -1.0498   -0.2035 N   0  0  0  0  0  0  0  0  0  0  0  0
   -1.9791   -0.4982   -0.4831 H   0  0  0  0  0  0  0  0  0  0  0  0
    0.1302   -0.3606   -0.1896 C   0  0  1  0  0  0  0  0  0  0  0  0
    0.8505   -0.9028    0.4334 H   0  0  0  0  0  0  0  0  0  0  0  0
    0.6553   -0.2433   -1.6372 C   0  0  0  0  0  0  0  0  0  0  0  0
   -0.1452    0.1306   -2.2826 H   0  0  0  0  0  0  0  0  0  0  0  0
    1.4673    0.4884   -1.6608 H   0  0  0  0  0  0  0  0  0  0  0  0
    1.2052   -1.5363   -2.2296 C   0  0  0  0  0  0  0  0  0  0  0  0
    1.3632   -1.5671   -3.4379 O   0  0  0  0  0  0  0  0  0  0  0  0
    1.6362   -2.5126   -1.3999 O   0  0  0  0  0  0  0  0  0  0  0  0
    1.9682   -3.2272   -1.9631 H   0  0  0  0  0  0  0  0  0  0  0  0
   -0.0298    1.0564    0.3952 C   0  0  0  0  0  0  0  0  0  0  0  0
   -0.9735    1.7570    0.0477 O   0  0  0  0  0  0  0  0  0  0  0  0
    0.8733    1.5383    1.3243 N   0  0  0  0  0  0  0  0  0  0  0  0
    1.6136    0.9132    1.6309 H   0  0  0  0  0  0  0  0  0  0  0  0
    0.7601    2.8536    1.9428 C   0  0  0  0  0  0  0  0  0  0  0  0
   -0.1831    2.9391    2.4924 H   0  0  0  0  0  0  0  0  0  0  0  0
    1.5845    3.0141    2.6443 H   0  0  0  0  0  0  0  0  0  0  0  0
    0.7969    3.6395    1.1812 H   0  0  0  0  0  0  0  0  0  0  0  0
  1  2  1  0  0  0  0
  2  3  1  0  0  0  0
  2  4  1  0  0  0  0
  2  5  1  0  0  0  0
  5  6  2  0  0  0  0
  5  7  1  0  0  0  0
  7  8  1  0  0  0  0
  7  9  1  0  0  0  0
  9 10  1  0  0  0  0
  9 11  1  0  0  0  0
  9 18  1  0  0  0  0
 11 12  1  0  0  0  0
 11 13  1  0  0  0  0
 11 14  1  0  0  0  0
 14 15  2  0  0  0  0
 14 16  1  0  0  0  0
 16 17  1  0  0  0  0
 18 19  2  0  0  0  0
 18 20  1  0  0  0  0
 20 21  1  0  0  0  0
 20 22  1  0  0  0  0
 22 23  1  0  0  0  0
 22 24  1  0  0  0  0
 22 25  1  0  0  0  0
M  END
$$$$

  -OEChem-02102214113D

 25 24  0     1  0  0  0  0  0999 V2000
   -2.8121   -3.9875    0.4823 H   0  0  0  0  0  0  0  0  0  0  0  0
   -2.8133   -2.9559    0.1200 C   0  0  0  0  0  0  0  0  0  0  0  0
   -3.5512   -2.3829    0.6867 H   0  0  0  0  0  0  0  0  0  0  0  0
   -3.0924   -2.9548   -0.9364 H   0  0  0  0  0  0  0  0  0  0  0  0
   -1.4374   -2.3413    0.2927 C   0  0  0  0  0  0  0  0  0  0  0  0
   -0.5694   -2.9570    0.8925 O   0  0  0  0  0  0  0  0  0  0  0  0
   -1.2067   -1.0507   -0.1416 N   0  0  0  0  0  0  0  0  0  0  0  0
   -2.0001   -0.5333   -0.5150 H   0  0  0  0  0  0  0  0  0  0  0  0
    0.1026   -0.3808   -0.1631 C   0  0  1  0  0  0  0  0  0  0  0  0
    0.8221   -0.9339    0.4504 H   0  0  0  0  0  0  0  0  0  0  0  0
    0.6498   -0.2521   -1.6062 C   0  0  0  0  0  0  0  0  0  0  0  0
   -0.0472    0.3616   -2.1852 H   0  0  0  0  0  0  0  0  0  0  0  0
    1.6029    0.2825   -1.5654 H   0  0  0  0  0  0  0  0  0  0  0  0
    0.8861   -1.5356   -2.4002 C   0  0  0  0  0  0  0  0  0  0  0  0
    1.3159   -1.3916   -3.5317 O   0  0  0  0  0  0  0  0  0  0  0  0
    0.6915   -2.7462   -1.8351 O   0  0  0  0  0  0  0  0  0  0  0  0
    0.9496   -3.4030   -2.4985 H   0  0  0  0  0  0  0  0  0  0  0  0
   -0.0335    1.0480    0.4013 C   0  0  0  0  0  0  0  0  0  0  0  0
   -0.9623    1.7630    0.0426 O   0  0  0  0  0  0  0  0  0  0  0  0
    0.8900    1.5347    1.3079 N   0  0  0  0  0  0  0  0  0  0  0  0
    1.6063    0.8951    1.6399 H   0  0  0  0  0  0  0  0  0  0  0  0
    0.7986    2.8613    1.9058 C   0  0  0  0  0  0  0  0  0  0  0  0
   -0.1287    2.9596    2.4799 H   0  0  0  0  0  0  0  0  0  0  0  0
    1.6433    3.0317    2.5803 H   0  0  0  0  0  0  0  0  0  0  0  0
    0.8160    3.6336    1.1294 H   0  0  0  0  0  0  0  0  0  0  0  0
  1  2  1  0  0  0  0
  2  3  1  0  0  0  0
  2  4  1  0  0  0  0
  2  5  1  0  0  0  0
  5  6  2  0  0  0  0
  5  7  1  0  0  0  0
  7  8  1  0  0  0  0
  7  9  1  0  0  0  0
  9 10  1  0  0  0  0
  9 11  1  0  0  0  0
  9 18  1  0  0  0  0
 11 12  1  0  0  0  0
 11 13  1  0  0  0  0
 11 14  1  0  0  0  0
 14 15  2  0  0  0  0
 14 16  1  0  0  0  0
 16 17  1  0  0  0  0
 18 19  2  0  0  0  0
 18 20  1  0  0  0  0
 20 21  1  0  0  0  0
 20 22  1  0  0  0  0
 22 23  1  0  0  0  0
 22 24  1  0  0  0  0
 22 25  1  0  0  0  0
M  END
$$$$

  -OEChem-02102214113D

 25 24  0     1  0  0  0  0  0999 V2000
   -2.8196   -3.9797    0.5276 H   0  0  0  0  0  0  0  0  0  0  0  0
   -2.8180   -2.9556    0.1440 C   0  0  0  0  0  0  0  0  0  0  0  0
   -3.5539   -2.3688    0.6986 H   0  0  0  0  0  0  0  0  0  0  0  0
   -3.0966   -2.9749   -0.9122 H   0  0  0  0  0  0  0  0  0  0  0  0
   -1.4404   -2.3410    0.3020 C   0  0  0  0  0  0  0  0  0  0  0  0
   -0.5580   -2.9632    0.8748 O   0  0  0  0  0  0  0  0  0  0  0  0
   -1.2131   -1.0507   -0.1351 N   0  0  0  0  0  0  0  0  0  0  0  0
   -2.0059   -0.5361   -0.5132 H   0  0  0  0  0  0  0  0  0  0  0  0
    0.0980   -0.3858   -0.1621 C   0  0  1  0  0  0  0  0  0  0  0  0
    0.8135   -0.9375    0.4569 H   0  0  0  0  0  0  0  0  0  0  0  0
    0.6640   -0.2570   -1.5990 C   0  0  0  0  0  0  0  0  0  0  0  0
   -0.0283    0.3557   -2.1844 H   0  0  0  0  0  0  0  0  0  0  0  0
    1.6140    0.2830   -1.5442 H   0  0  0  0  0  0  0  0  0  0  0  0
    0.9120   -1.5341   -2.4034 C   0  0  0  0  0  0  0  0  0  0  0  0
    1.6109   -1.4061   -3.3940 O   0  0  0  0  0  0  0  0  0  0  0  0
    0.3476   -2.7091   -2.0497 O   0  0  0  0  0  0  0  0  0  0  0  0
    0.6626   -3.3642   -2.6901 H   0  0  0  0  0  0  0  0  0  0  0  0
   -0.0373    1.0430    0.4029 C   0  0  0  0  0  0  0  0  0  0  0  0
   -0.9660    1.7584    0.0447 O   0  0  0  0  0  0  0  0  0  0  0  0
    0.8879    1.5306    1.3074 N   0  0  0  0  0  0  0  0  0  0  0  0
    1.6071    0.8928    1.6367 H   0  0  0  0  0  0  0  0  0  0  0  0
    0.7999    2.8596    1.9008 C   0  0  0  0  0  0  0  0  0  0  0  0
   -0.1213    2.9587    2.4846 H   0  0  0  0  0  0  0  0  0  0  0  0
    1.6515    3.0348    2.5652 H   0  0  0  0  0  0  0  0  0  0  0  0
    0.8075    3.6287    1.1212 H   0  0  0  0  0  0  0  0  0  0  0  0
  1  2  1  0  0  0  0
  2  3  1  0  0  0  0
  2  4  1  0  0  0  0
  2  5  1  0  0  0  0
  5  6  2  0  0  0  0
  5  7  1  0  0  0  0
  7  8  1  0  0  0  0
  7  9  1  0  0  0  0
  9 10  1  0  0  0  0
  9 11  1  0  0  0  0
  9 18  1  0  0  0  0
 11 12  1  0  0  0  0
 11 13  1  0  0  0  0
 11 14  1  0  0  0  0
 14 15  2  0  0  0  0
 14 16  1  0  0  0  0
 16 17  1  0  0  0  0
 18 19  2  0  0  0  0
 18 20  1  0  0  0  0
 20 21  1  0  0  0  0
 20 22  1  0  0  0  0
 22 23  1  0  0  0  0
 22 24  1  0  0  0  0
 22 25  1  0  0  0  0
M  END
$$$$

  -OEChem-02102214113D

 25 24  0     1  0  0  0  0  0999 V2000
   -2.8115   -3.9772    0.5423 H   0  0  0  0  0  0  0  0  0  0  0  0
   -2.8161   -2.9531    0.1590 C   0  0  0  0  0  0  0  0  0  0  0  0
   -3.5352   -2.3640    0.7331 H   0  0  0  0  0  0  0  0  0  0  0  0
   -3.1227   -2.9711   -0.8895 H   0  0  0  0  0  0  0  0  0  0  0  0
   -1.4326   -2.3434    0.2799 C   0  0  0  0  0  0  0  0  0  0  0  0
   -0.5268   -2.9822    0.7955 O   0  0  0  0  0  0  0  0  0  0  0  0
   -1.2158   -1.0484   -0.1480 N   0  0  0  0  0  0  0  0  0  0  0  0
   -2.0173   -0.5270   -0.4976 H   0  0  0  0  0  0  0  0  0  0  0  0
    0.0918   -0.3785   -0.1743 C   0  0  1  0  0  0  0  0  0  0  0  0
    0.8062   -0.9287    0.4474 H   0  0  0  0  0  0  0  0  0  0  0  0
    0.6679   -0.2558   -1.6063 C   0  0  0  0  0  0  0  0  0  0  0  0
   -0.0235    0.3458   -2.2035 H   0  0  0  0  0  0  0  0  0  0  0  0
    1.6138    0.2914   -1.5499 H   0  0  0  0  0  0  0  0  0  0  0  0
    0.9205   -1.5485   -2.3850 C   0  0  0  0  0  0  0  0  0  0  0  0
    1.8362   -1.5138   -3.1893 O   0  0  0  0  0  0  0  0  0  0  0  0
    0.0824   -2.6039   -2.2715 O   0  0  0  0  0  0  0  0  0  0  0  0
    0.4314   -3.2867   -2.8638 H   0  0  0  0  0  0  0  0  0  0  0  0
   -0.0432    1.0460    0.4009 C   0  0  0  0  0  0  0  0  0  0  0  0
   -0.9760    1.7612    0.0534 O   0  0  0  0  0  0  0  0  0  0  0  0
    0.8852    1.5287    1.3047 N   0  0  0  0  0  0  0  0  0  0  0  0
    1.6141    0.8936    1.6174 H   0  0  0  0  0  0  0  0  0  0  0  0
    0.7988    2.8534    1.9078 C   0  0  0  0  0  0  0  0  0  0  0  0
   -0.1196    2.9473    2.4969 H   0  0  0  0  0  0  0  0  0  0  0  0
    1.6536    3.0244    2.5695 H   0  0  0  0  0  0  0  0  0  0  0  0
    0.8016    3.6281    1.1337 H   0  0  0  0  0  0  0  0  0  0  0  0
  1  2  1  0  0  0  0
  2  3  1  0  0  0  0
  2  4  1  0  0  0  0
  2  5  1  0  0  0  0
  5  6  2  0  0  0  0
  5  7  1  0  0  0  0
  7  8  1  0  0  0  0
  7  9  1  0  0  0  0
  9 10  1  0  0  0  0
  9 11  1  0  0  0  0
  9 18  1  0  0  0  0
 11 12  1  0  0  0  0
 11 13  1  0  0  0  0
 11 14  1  0  0  0  0
 14 15  2  0  0  0  0
 14 16  1  0  0  0  0
 16 17  1  0  0  0  0
 18 19  2  0  0  0  0
 18 20  1  0  0  0  0
 20 21  1  0  0  0  0
 20 22  1  0  0  0  0
 22 23  1  0  0  0  0
 22 24  1  0  0  0  0
 22 25  1  0  0  0  0
M  END
$$$$

  -OEChem-02102214113D

 25 24  0     1  0  0  0  0  0999 V2000
   -2.7899   -3.9852    0.5096 H   0  0  0  0  0  0  0  0  0  0  0  0
   -2.8099   -2.9477    0.1646 C   0  0  0  0  0  0  0  0  0  0  0  0
   -3.4958   -2.3784    0.7963 H   0  0  0  0  0  0  0  0  0  0  0  0
   -3.1706   -2.9265   -0.8666 H   0  0  0  0  0  0  0  0  0  0  0  0
   -1.4194   -2.3464    0.2362 C   0  0  0  0  0  0  0  0  0  0  0  0
   -0.4913   -3.0056    0.6814 O   0  0  0  0  0  0  0  0  0  0  0  0
   -1.2130   -1.0445   -0.1743 N   0  0  0  0  0  0  0  0  0  0  0  0
   -2.0250   -0.5098   -0.4769 H   0  0  0  0  0  0  0  0  0  0  0  0
    0.0896   -0.3661   -0.1944 C   0  0  1  0  0  0  0  0  0  0  0  0
    0.8055   -0.9174    0.4246 H   0  0  0  0  0  0  0  0  0  0  0  0
    0.6632   -0.2471   -1.6248 C   0  0  0  0  0  0  0  0  0  0  0  0
   -0.0309    0.3421   -2.2309 H   0  0  0  0  0  0  0  0  0  0  0  0
    1.6075    0.3042   -1.5789 H   0  0  0  0  0  0  0  0  0  0  0  0
    0.9087   -1.5629   -2.3639 C   0  0  0  0  0  0  0  0  0  0  0  0
    1.9725   -1.6654   -2.9513 O   0  0  0  0  0  0  0  0  0  0  0  0
   -0.0891   -2.4712   -2.4805 O   0  0  0  0  0  0  0  0  0  0  0  0
    0.2768   -3.1984   -3.0062 H   0  0  0  0  0  0  0  0  0  0  0  0
   -0.0473    1.0506    0.3981 C   0  0  0  0  0  0  0  0  0  0  0  0
   -0.9893    1.7624    0.0694 O   0  0  0  0  0  0  0  0  0  0  0  0
    0.8818    1.5267    1.3047 N   0  0  0  0  0  0  0  0  0  0  0  0
    1.6265    0.8984    1.5932 H   0  0  0  0  0  0  0  0  0  0  0  0
    0.7938    2.8456    1.9201 C   0  0  0  0  0  0  0  0  0  0  0  0
   -0.1408    2.9457    2.4821 H   0  0  0  0  0  0  0  0  0  0  0  0
    1.6295    2.9980    2.6098 H   0  0  0  0  0  0  0  0  0  0  0  0
    0.8303    3.6281    1.1548 H   0  0  0  0  0  0  0  0  0  0  0  0
  1  2  1  0  0  0  0
  2  3  1  0  0  0  0
  2  4  1  0  0  0  0
  2  5  1  0  0  0  0
  5  6  2  0  0  0  0
  5  7  1  0  0  0  0
  7  8  1  0  0  0  0
  7  9  1  0  0  0  0
  9 10  1  0  0  0  0
  9 11  1  0  0  0  0
  9 18  1  0  0  0  0
 11 12  1  0  0  0  0
 11 13  1  0  0  0  0
 11 14  1  0  0  0  0
 14 15  2  0  0  0  0
 14 16  1  0  0  0  0
 16 17  1  0  0  0  0
 18 19  2  0  0  0  0
 18 20  1  0  0  0  0
 20 21  1  0  0  0  0
 20 22  1  0  0  0  0
 22 23  1  0  0  0  0
 22 24  1  0  0  0  0
 22 25  1  0  0  0  0
M  END
$$$$

  -OEChem-02102214113D

 25 24  0     1  0  0  0  0  0999 V2000
   -2.7736   -3.9875    0.4784 H   0  0  0  0  0  0  0  0  0  0  0  0
   -2.8001   -2.9455    0.1478 C   0  0  0  0  0  0  0  0  0  0  0  0
   -3.4654   -2.3829    0.8071 H   0  0  0  0  0  0  0  0  0  0  0  0
   -3.1914   -2.9093   -0.8717 H   0  0  0  0  0  0  0  0  0  0  0  0
   -1.4060   -2.3491    0.1857 C   0  0  0  0  0  0  0  0  0  0  0  0
   -0.4624   -3.0237    0.5694 O   0  0  0  0  0  0  0  0  0  0  0  0
   -1.2092   -1.0396   -0.2031 N   0  0  0  0  0  0  0  0  0  0  0  0
   -2.0304   -0.4964   -0.4635 H   0  0  0  0  0  0  0  0  0  0  0  0
    0.0873   -0.3492   -0.2145 C   0  0  1  0  0  0  0  0  0  0  0  0
    0.8077   -0.9040    0.3966 H   0  0  0  0  0  0  0  0  0  0  0  0
    0.6486   -0.2292   -1.6458 C   0  0  0  0  0  0  0  0  0  0  0  0
   -0.0507    0.3501   -2.2552 H   0  0  0  0  0  0  0  0  0  0  0  0
    1.5926    0.3232   -1.6155 H   0  0  0  0  0  0  0  0  0  0  0  0
    0.8836   -1.5653   -2.3455 C   0  0  0  0  0  0  0  0  0  0  0  0
    2.0249   -1.8135   -2.6962 O   0  0  0  0  0  0  0  0  0  0  0  0
   -0.1785   -2.3433   -2.6666 O   0  0  0  0  0  0  0  0  0  0  0  0
    0.1918   -3.1211   -3.1108 H   0  0  0  0  0  0  0  0  0  0  0  0
   -0.0503    1.0582    0.3982 C   0  0  0  0  0  0  0  0  0  0  0  0
   -1.0013    1.7669    0.0901 O   0  0  0  0  0  0  0  0  0  0  0  0
    0.8809    1.5251    1.3073 N   0  0  0  0  0  0  0  0  0  0  0  0
    1.6400    0.9027    1.5699 H   0  0  0  0  0  0  0  0  0  0  0  0
    0.7960    2.8383    1.9351 C   0  0  0  0  0  0  0  0  0  0  0  0
   -0.1402    2.9363    2.4947 H   0  0  0  0  0  0  0  0  0  0  0  0
    1.6298    2.9807    2.6293 H   0  0  0  0  0  0  0  0  0  0  0  0
    0.8382    3.6282    1.1777 H   0  0  0  0  0  0  0  0  0  0  0  0
  1  2  1  0  0  0  0
  2  3  1  0  0  0  0
  2  4  1  0  0  0  0
  2  5  1  0  0  0  0
  5  6  2  0  0  0  0
  5  7  1  0  0  0  0
  7  8  1  0  0  0  0
  7  9  1  0  0  0  0
  9 10  1  0  0  0  0
  9 11  1  0  0  0  0
  9 18  1  0  0  0  0
 11 12  1  0  0  0  0
 11 13  1  0  0  0  0
 11 14  1  0  0  0  0
 14 15  2  0  0  0  0
 14 16  1  0  0  0  0
 16 17  1  0  0  0  0
 18 19  2  0  0  0  0
 18 20  1  0  0  0  0
 20 21  1  0  0  0  0
 20 22  1  0  0  0  0
 22 23  1  0  0  0  0
 22 24  1  0  0  0  0
 22 25  1  0  0  0  0
M  END
$$$$

  -OEChem-02102214113D

 25 24  0     1  0  0  0  0  0999 V2000
   -2.7556   -3.9879    0.4395 H   0  0  0  0  0  0  0  0  0  0  0  0
   -2.7865   -2.9433    0.1175 C   0  0  0  0  0  0  0  0  0  0  0  0
   -3.4436   -2.3862    0.7895 H   0  0  0  0  0  0  0  0  0  0  0  0
   -3.1905   -2.8989   -0.8968 H   0  0  0  0  0  0  0  0  0  0  0  0
   -1.3927   -2.3460    0.1430 C   0  0  0  0  0  0  0  0  0  0  0  0
   -0.4409   -3.0278    0.4906 O   0  0  0  0  0  0  0  0  0  0  0  0
   -1.2033   -1.0309   -0.2291 N   0  0  0  0  0  0  0  0  0  0  0  0
   -2.0308   -0.4832   -0.4594 H   0  0  0  0  0  0  0  0  0  0  0  0
    0.0882   -0.3301   -0.2334 C   0  0  1  0  0  0  0  0  0  0  0  0
    0.8133   -0.8865    0.3709 H   0  0  0  0  0  0  0  0  0  0  0  0
    0.6351   -0.2108   -1.6675 C   0  0  0  0  0  0  0  0  0  0  0  0
   -0.0699    0.3601   -2.2785 H   0  0  0  0  0  0  0  0  0  0  0  0
    1.5801    0.3400   -1.6538 H   0  0  0  0  0  0  0  0  0  0  0  0
    0.8602   -1.5633   -2.3326 C   0  0  0  0  0  0  0  0  0  0  0  0
    2.0109   -1.9529   -2.4371 O   0  0  0  0  0  0  0  0  0  0  0  0
   -0.2046   -2.2285   -2.8427 O   0  0  0  0  0  0  0  0  0  0  0  0
    0.1543   -3.0523   -3.2061 H   0  0  0  0  0  0  0  0  0  0  0  0
   -0.0494    1.0699    0.3942 C   0  0  0  0  0  0  0  0  0  0  0  0
   -1.0075    1.7764    0.1039 O   0  0  0  0  0  0  0  0  0  0  0  0
    0.8853    1.5271    1.3046 N   0  0  0  0  0  0  0  0  0  0  0  0
    1.6497    0.9044    1.5514 H   0  0  0  0  0  0  0  0  0  0  0  0
    0.7988    2.8301    1.9528 C   0  0  0  0  0  0  0  0  0  0  0  0
   -0.1248    2.9076    2.5361 H   0  0  0  0  0  0  0  0  0  0  0  0
    1.6474    2.9739    2.6285 H   0  0  0  0  0  0  0  0  0  0  0  0
    0.8122    3.6310    1.2060 H   0  0  0  0  0  0  0  0  0  0  0  0
  1  2  1  0  0  0  0
  2  3  1  0  0  0  0
  2  4  1  0  0  0  0
  2  5  1  0  0  0  0
  5  6  2  0  0  0  0
  5  7  1  0  0  0  0
  7  8  1  0  0  0  0
  7  9  1  0  0  0  0
  9 10  1  0  0  0  0
  9 11  1  0  0  0  0
  9 18  1  0  0  0  0
 11 12  1  0  0  0  0
 11 13  1  0  0  0  0
 11 14  1  0  0  0  0
 14 15  2  0  0  0  0
 14 16  1  0  0  0  0
 16 17  1  0  0  0  0
 18 19  2  0  0  0  0
 18 20  1  0  0  0  0
 20 21  1  0  0  0  0
 20 22  1  0  0  0  0
 22 23  1  0  0  0  0
 22 24  1  0  0  0  0
 22 25  1  0  0  0  0
M  END
$$$$

  -OEChem-02102214113D

 25 24  0     1  0  0  0  0  0999 V2000
   -2.7437   -3.9885    0.4055 H   0  0  0  0  0  0  0  0  0  0  0  0
   -2.7748   -2.9403    0.0956 C   0  0  0  0  0  0  0  0  0  0  0  0
   -3.4231   -2.3890    0.7807 H   0  0  0  0  0  0  0  0  0  0  0  0
   -3.1894   -2.8830   -0.9137 H   0  0  0  0  0  0  0  0  0  0  0  0
   -1.3791   -2.3472    0.1136 C   0  0  0  0  0  0  0  0  0  0  0  0
   -0.4267   -3.0346    0.4453 O   0  0  0  0  0  0  0  0  0  0  0  0
   -1.1907   -1.0293   -0.2477 N   0  0  0  0  0  0  0  0  0  0  0  0
   -2.0212   -0.4767   -0.4555 H   0  0  0  0  0  0  0  0  0  0  0  0
    0.0980   -0.3222   -0.2439 C   0  0  1  0  0  0  0  0  0  0  0  0
    0.8271   -0.8814    0.3535 H   0  0  0  0  0  0  0  0  0  0  0  0
    0.6306   -0.1977   -1.6817 C   0  0  0  0  0  0  0  0  0  0  0  0
   -0.0795    0.3729   -2.2873 H   0  0  0  0  0  0  0  0  0  0  0  0
    1.5774    0.3498   -1.6798 H   0  0  0  0  0  0  0  0  0  0  0  0
    0.8483   -1.5550   -2.3355 C   0  0  0  0  0  0  0  0  0  0  0  0
    1.9424   -2.0769   -2.2048 O   0  0  0  0  0  0  0  0  0  0  0  0
   -0.1681   -2.1074   -3.0405 O   0  0  0  0  0  0  0  0  0  0  0  0
    0.1644   -2.9666   -3.3423 H   0  0  0  0  0  0  0  0  0  0  0  0
   -0.0443    1.0732    0.3929 C   0  0  0  0  0  0  0  0  0  0  0  0
   -1.0056    1.7771    0.1066 O   0  0  0  0  0  0  0  0  0  0  0  0
    0.8867    1.5286    1.3080 N   0  0  0  0  0  0  0  0  0  0  0  0
    1.6536    0.9077    1.5519 H   0  0  0  0  0  0  0  0  0  0  0  0
    0.7949    2.8278    1.9637 C   0  0  0  0  0  0  0  0  0  0  0  0
   -0.1320    2.9016    2.5425 H   0  0  0  0  0  0  0  0  0  0  0  0
    1.6395    2.9681    2.6452 H   0  0  0  0  0  0  0  0  0  0  0  0
    0.8120    3.6335    1.2220 H   0  0  0  0  0  0  0  0  0  0  0  0
  1  2  1  0  0  0  0
  2  3  1  0  0  0  0
  2  4  1  0  0  0  0
  2  5  1  0  0  0  0
  5  6  2  0  0  0  0
  5  7  1  0  0  0  0
  7  8  1  0  0  0  0
  7  9  1  0  0  0  0
  9 10  1  0  0  0  0
  9 11  1  0  0  0  0
  9 18  1  0  0  0  0
 11 12  1  0  0  0  0
 11 13  1  0  0  0  0
 11 14  1  0  0  0  0
 14 15  2  0  0  0  0
 14 16  1  0  0  0  0
 16 17  1  0  0  0  0
 18 19  2  0  0  0  0
 18 20  1  0  0  0  0
 20 21  1  0  0  0  0
 20 22  1  0  0  0  0
 22 23  1  0  0  0  0
 22 24  1  0  0  0  0
 22 25  1  0  0  0  0
M  END
$$$$

  -OEChem-02102214113D

 25 24  0     1  0  0  0  0  0999 V2000
   -2.7400   -3.9919    0.3910 H   0  0  0  0  0  0  0  0  0  0  0  0
   -2.7698   -2.9422    0.0860 C   0  0  0  0  0  0  0  0  0  0  0  0
   -3.4211   -2.3944    0.7714 H   0  0  0  0  0  0  0  0  0  0  0  0
   -3.1803   -2.8804   -0.9248 H   0  0  0  0  0  0  0  0  0  0  0  0
   -1.3736   -2.3499    0.1132 C   0  0  0  0  0  0  0  0  0  0  0  0
   -0.4271   -3.0352    0.4634 O   0  0  0  0  0  0  0  0  0  0  0  0
   -1.1823   -1.0326   -0.2490 N   0  0  0  0  0  0  0  0  0  0  0  0
   -2.0123   -0.4810   -0.4614 H   0  0  0  0  0  0  0  0  0  0  0  0
    0.1053   -0.3224   -0.2426 C   0  0  1  0  0  0  0  0  0  0  0  0
    0.8369   -0.8812    0.3525 H   0  0  0  0  0  0  0  0  0  0  0  0
    0.6301   -0.1930   -1.6831 C   0  0  0  0  0  0  0  0  0  0  0  0
   -0.0830    0.3808   -2.2823 H   0  0  0  0  0  0  0  0  0  0  0  0
    1.5775    0.3530   -1.6855 H   0  0  0  0  0  0  0  0  0  0  0  0
    0.8486   -1.5454   -2.3446 C   0  0  0  0  0  0  0  0  0  0  0  0
    1.8234   -2.1941   -2.0052 O   0  0  0  0  0  0  0  0  0  0  0  0
   -0.0494   -1.9655   -3.2668 O   0  0  0  0  0  0  0  0  0  0  0  0
    0.2535   -2.8445   -3.5415 H   0  0  0  0  0  0  0  0  0  0  0  0
   -0.0401    1.0736    0.3916 C   0  0  0  0  0  0  0  0  0  0  0  0
   -1.0010    1.7767    0.1022 O   0  0  0  0  0  0  0  0  0  0  0  0
    0.8891    1.5301    1.3079 N   0  0  0  0  0  0  0  0  0  0  0  0
    1.6533    0.9077    1.5565 H   0  0  0  0  0  0  0  0  0  0  0  0
    0.7931    2.8280    1.9650 C   0  0  0  0  0  0  0  0  0  0  0  0
   -0.1400    2.9020    2.5335 H   0  0  0  0  0  0  0  0  0  0  0  0
    1.6305    2.9656    2.6559 H   0  0  0  0  0  0  0  0  0  0  0  0
    0.8195    3.6347    1.2248 H   0  0  0  0  0  0  0  0  0  0  0  0
  1  2  1  0  0  0  0
  2  3  1  0  0  0  0
  2  4  1  0  0  0  0
  2  5  1  0  0  0  0
  5  6  2  0  0  0  0
  5  7  1  0  0  0  0
  7  8  1  0  0  0  0
  7  9  1  0  0  0  0
  9 10  1  0  0  0  0
  9 11  1  0  0  0  0
  9 18  1  0  0  0  0
 11 12  1  0  0  0  0
 11 13  1  0  0  0  0
 11 14  1  0  0  0  0
 14 15  2  0  0  0  0
 14 16  1  0  0  0  0
 16 17  1  0  0  0  0
 18 19  2  0  0  0  0
 18 20  1  0  0  0  0
 20 21  1  0  0  0  0
 20 22  1  0  0  0  0
 22 23  1  0  0  0  0
 22 24  1  0  0  0  0
 22 25  1  0  0  0  0
M  END
$$$$

  -OEChem-02102214113D

 25 24  0     1  0  0  0  0  0999 V2000
   -2.7448   -3.9967    0.3865 H   0  0  0  0  0  0  0  0  0  0  0  0
   -2.7684   -2.9474    0.0793 C   0  0  0  0  0  0  0  0  0  0  0  0
   -3.4348   -2.3987    0.7493 H   0  0  0  0  0  0  0  0  0  0  0  0
   -3.1565   -2.8877   -0.9404 H   0  0  0  0  0  0  0  0  0  0  0  0
   -1.3730   -2.3552    0.1368 C   0  0  0  0  0  0  0  0  0  0  0  0
   -0.4415   -3.0317    0.5389 O   0  0  0  0  0  0  0  0  0  0  0  0
   -1.1734   -1.0414   -0.2347 N   0  0  0  0  0  0  0  0  0  0  0  0
   -1.9987   -0.4927   -0.4712 H   0  0  0  0  0  0  0  0  0  0  0  0
    0.1162   -0.3343   -0.2286 C   0  0  1  0  0  0  0  0  0  0  0  0
    0.8487   -0.8919    0.3663 H   0  0  0  0  0  0  0  0  0  0  0  0
    0.6337   -0.1988   -1.6733 C   0  0  0  0  0  0  0  0  0  0  0  0
   -0.0823    0.3842   -2.2606 H   0  0  0  0  0  0  0  0  0  0  0  0
    1.5816    0.3458   -1.6755 H   0  0  0  0  0  0  0  0  0  0  0  0
    0.8525   -1.5375   -2.3636 C   0  0  0  0  0  0  0  0  0  0  0  0
    1.6492   -2.3175   -1.8717 O   0  0  0  0  0  0  0  0  0  0  0  0
    0.1414   -1.8007   -3.4849 O   0  0  0  0  0  0  0  0  0  0  0  0
    0.4063   -2.6926   -3.7575 H   0  0  0  0  0  0  0  0  0  0  0  0
   -0.0332    1.0663    0.3952 C   0  0  0  0  0  0  0  0  0  0  0  0
   -0.9885    1.7703    0.0893 O   0  0  0  0  0  0  0  0  0  0  0  0
    0.8902    1.5307    1.3134 N   0  0  0  0  0  0  0  0  0  0  0  0
    1.6431    0.9042    1.5851 H   0  0  0  0  0  0  0  0  0  0  0  0
    0.7906    2.8355    1.9564 C   0  0  0  0  0  0  0  0  0  0  0  0
   -0.1423    2.9132    2.5248 H   0  0  0  0  0  0  0  0  0  0  0  0
    1.6282    2.9837    2.6447 H   0  0  0  0  0  0  0  0  0  0  0  0
    0.8140    3.6335    1.2068 H   0  0  0  0  0  0  0  0  0  0  0  0
  1  2  1  0  0  0  0
  2  3  1  0  0  0  0
  2  4  1  0  0  0  0
  2  5  1  0  0  0  0
  5  6  2  0  0  0  0
  5  7  1  0  0  0  0
  7  8  1  0  0  0  0
  7  9  1  0  0  0  0
  9 10  1  0  0  0  0
  9 11  1  0  0  0  0
  9 18  1  0  0  0  0
 11 12  1  0  0  0  0
 11 13  1  0  0  0  0
 11 14  1  0  0  0  0
 14 15  2  0  0  0  0
 14 16  1  0  0  0  0
 16 17  1  0  0  0  0
 18 19  2  0  0  0  0
 18 20  1  0  0  0  0
 20 21  1  0  0  0  0
 20 22  1  0  0  0  0
 22 23  1  0  0  0  0
 22 24  1  0  0  0  0
 22 25  1  0  0  0  0
M  END
$$$$

  -OEChem-02102214113D

 25 24  0     1  0  0  0  0  0999 V2000
   -2.7490   -4.0060    0.3883 H   0  0  0  0  0  0  0  0  0  0  0  0
   -2.7684   -2.9587    0.0745 C   0  0  0  0  0  0  0  0  0  0  0  0
   -3.4645   -2.4111    0.7144 H   0  0  0  0  0  0  0  0  0  0  0  0
   -3.1166   -2.9078   -0.9598 H   0  0  0  0  0  0  0  0  0  0  0  0
   -1.3812   -2.3551    0.1830 C   0  0  0  0  0  0  0  0  0  0  0  0
   -0.4723   -3.0077    0.6683 O   0  0  0  0  0  0  0  0  0  0  0  0
   -1.1746   -1.0478   -0.2083 N   0  0  0  0  0  0  0  0  0  0  0  0
   -1.9921   -0.5098   -0.4910 H   0  0  0  0  0  0  0  0  0  0  0  0
    0.1191   -0.3481   -0.2103 C   0  0  1  0  0  0  0  0  0  0  0  0
    0.8519   -0.9031    0.3868 H   0  0  0  0  0  0  0  0  0  0  0  0
    0.6344   -0.2113   -1.6582 C   0  0  0  0  0  0  0  0  0  0  0  0
   -0.0829    0.3799   -2.2356 H   0  0  0  0  0  0  0  0  0  0  0  0
    1.5820    0.3335   -1.6575 H   0  0  0  0  0  0  0  0  0  0  0  0
    0.8549   -1.5333   -2.3826 C   0  0  0  0  0  0  0  0  0  0  0  0
    1.4252   -2.4391   -1.8015 O   0  0  0  0  0  0  0  0  0  0  0  0
    0.4042   -1.6306   -3.6549 O   0  0  0  0  0  0  0  0  0  0  0  0
    0.6318   -2.5271   -3.9453 H   0  0  0  0  0  0  0  0  0  0  0  0
   -0.0281    1.0610    0.3943 C   0  0  0  0  0  0  0  0  0  0  0  0
   -0.9751    1.7685    0.0704 O   0  0  0  0  0  0  0  0  0  0  0  0
    0.8955    1.5322    1.3084 N   0  0  0  0  0  0  0  0  0  0  0  0
    1.6349    0.8990    1.6008 H   0  0  0  0  0  0  0  0  0  0  0  0
    0.7944    2.8408    1.9430 C   0  0  0  0  0  0  0  0  0  0  0  0
   -0.1375    2.9199    2.5127 H   0  0  0  0  0  0  0  0  0  0  0  0
    1.6331    2.9944    2.6288 H   0  0  0  0  0  0  0  0  0  0  0  0
    0.8151    3.6344    1.1887 H   0  0  0  0  0  0  0  0  0  0  0  0
  1  2  1  0  0  0  0
  2  3  1  0  0  0  0
  2  4  1  0  0  0  0
  2  5  1  0  0  0  0
  5  6  2  0  0  0  0
  5  7  1  0  0  0  0
  7  8  1  0  0  0  0
  7  9  1  0  0  0  0
  9 10  1  0  0  0  0
  9 11  1  0  0  0  0
  9 18  1  0  0  0  0
 11 12  1  0  0  0  0
 11 13  1  0  0  0  0
 11 14  1  0  0  0  0
 14 15  2  0  0  0  0
 14 16  1  0  0  0  0
 16 17  1  0  0  0  0
 18 19  2  0  0  0  0
 18 20  1  0  0  0  0
 20 21  1  0  0  0  0
 20 22  1  0  0  0  0
 22 23  1  0  0  0  0
 22 24  1  0  0  0  0
 22 25  1  0  0  0  0
M  END
$$$$

  -OEChem-02102214113D

 25 24  0     1  0  0  0  0  0999 V2000
   -2.7517   -4.0162    0.3937 H   0  0  0  0  0  0  0  0  0  0  0  0
   -2.7697   -2.9717    0.0703 C   0  0  0  0  0  0  0  0  0  0  0  0
   -3.4950   -2.4258    0.6782 H   0  0  0  0  0  0  0  0  0  0  0  0
   -3.0783   -2.9334   -0.9770 H   0  0  0  0  0  0  0  0  0  0  0  0
   -1.3934   -2.3534    0.2273 C   0  0  0  0  0  0  0  0  0  0  0  0
   -0.5085   -2.9785    0.7886 O   0  0  0  0  0  0  0  0  0  0  0  0
   -1.1798   -1.0520   -0.1817 N   0  0  0  0  0  0  0  0  0  0  0  0
   -1.9857   -0.5296   -0.5202 H   0  0  0  0  0  0  0  0  0  0  0  0
    0.1194   -0.3624   -0.1916 C   0  0  1  0  0  0  0  0  0  0  0  0
    0.8510   -0.9160    0.4076 H   0  0  0  0  0  0  0  0  0  0  0  0
    0.6355   -0.2261   -1.6425 C   0  0  0  0  0  0  0  0  0  0  0  0
   -0.0806    0.3731   -2.2130 H   0  0  0  0  0  0  0  0  0  0  0  0
    1.5835    0.3180   -1.6367 H   0  0  0  0  0  0  0  0  0  0  0  0
    0.8576   -1.5297   -2.4025 C   0  0  0  0  0  0  0  0  0  0  0  0
    1.1703   -2.5402   -1.8001 O   0  0  0  0  0  0  0  0  0  0  0  0
    0.7057   -1.4839   -3.7462 O   0  0  0  0  0  0  0  0  0  0  0  0
    0.8913   -2.3813   -4.0628 H   0  0  0  0  0  0  0  0  0  0  0  0
   -0.0239    1.0548    0.3969 C   0  0  0  0  0  0  0  0  0  0  0  0
   -0.9586    1.7690    0.0520 O   0  0  0  0  0  0  0  0  0  0  0  0
    0.8997    1.5325    1.3079 N   0  0  0  0  0  0  0  0  0  0  0  0
    1.6223    0.8919    1.6251 H   0  0  0  0  0  0  0  0  0  0  0  0
    0.8022    2.8481    1.9285 C   0  0  0  0  0  0  0  0  0  0  0  0
   -0.1288    2.9352    2.4985 H   0  0  0  0  0  0  0  0  0  0  0  0
    1.6424    3.0074    2.6111 H   0  0  0  0  0  0  0  0  0  0  0  0
    0.8231    3.6339    1.1661 H   0  0  0  0  0  0  0  0  0  0  0  0
  1  2  1  0  0  0  0
  2  3  1  0  0  0  0
  2  4  1  0  0  0  0
  2  5  1  0  0  0  0
  5  6  2  0  0  0  0
  5  7  1  0  0  0  0
  7  8  1  0  0  0  0
  7  9  1  0  0  0  0
  9 10  1  0  0  0  0
  9 11  1  0  0  0  0
  9 18  1  0  0  0  0
 11 12  1  0  0  0  0
 11 13  1  0  0  0  0
 11 14  1  0  0  0  0
 14 15  2  0  0  0  0
 14 16  1  0  0  0  0
 16 17  1  0  0  0  0
 18 19  2  0  0  0  0
 18 20  1  0  0  0  0
 20 21  1  0  0  0  0
 20 22  1  0  0  0  0
 22 23  1  0  0  0  0
 22 24  1  0  0  0  0
 22 25  1  0  0  0  0
M  END
$$$$

  -OEChem-02102214113D

 25 24  0     1  0  0  0  0  0999 V2000
   -2.7557   -4.0206    0.4110 H   0  0  0  0  0  0  0  0  0  0  0  0
   -2.7735   -2.9802    0.0746 C   0  0  0  0  0  0  0  0  0  0  0  0
   -3.5192   -2.4331    0.6561 H   0  0  0  0  0  0  0  0  0  0  0  0
   -3.0544   -2.9572   -0.9808 H   0  0  0  0  0  0  0  0  0  0  0  0
   -1.4069   -2.3484    0.2598 C   0  0  0  0  0  0  0  0  0  0  0  0
   -0.5366   -2.9527    0.8664 O   0  0  0  0  0  0  0  0  0  0  0  0
   -1.1905   -1.0515   -0.1632 N   0  0  0  0  0  0  0  0  0  0  0  0
   -1.9856   -0.5452   -0.5473 H   0  0  0  0  0  0  0  0  0  0  0  0
    0.1141   -0.3724   -0.1806 C   0  0  1  0  0  0  0  0  0  0  0  0
    0.8423   -0.9266    0.4219 H   0  0  0  0  0  0  0  0  0  0  0  0
    0.6395   -0.2382   -1.6307 C   0  0  0  0  0  0  0  0  0  0  0  0
   -0.0685    0.3703   -2.2013 H   0  0  0  0  0  0  0  0  0  0  0  0
    1.5900    0.3013   -1.6119 H   0  0  0  0  0  0  0  0  0  0  0  0
    0.8661   -1.5262   -2.4182 C   0  0  0  0  0  0  0  0  0  0  0  0
    0.9062   -2.6041   -1.8551 O   0  0  0  0  0  0  0  0  0  0  0  0
    1.0312   -1.3829   -3.7532 O   0  0  0  0  0  0  0  0  0  0  0  0
    1.1726   -2.2775   -4.0992 H   0  0  0  0  0  0  0  0  0  0  0  0
   -0.0231    1.0507    0.3965 C   0  0  0  0  0  0  0  0  0  0  0  0
   -0.9477    1.7717    0.0386 O   0  0  0  0  0  0  0  0  0  0  0  0
    0.9031    1.5304    1.3039 N   0  0  0  0  0  0  0  0  0  0  0  0
    1.6124    0.8836    1.6375 H   0  0  0  0  0  0  0  0  0  0  0  0
    0.8089    2.8497    1.9171 C   0  0  0  0  0  0  0  0  0  0  0  0
   -0.1224    2.9425    2.4858 H   0  0  0  0  0  0  0  0  0  0  0  0
    1.6488    3.0111    2.5996 H   0  0  0  0  0  0  0  0  0  0  0  0
    0.8327    3.6311    1.1502 H   0  0  0  0  0  0  0  0  0  0  0  0
  1  2  1  0  0  0  0
  2  3  1  0  0  0  0
  2  4  1  0  0  0  0
  2  5  1  0  0  0  0
  5  6  2  0  0  0  0
  5  7  1  0  0  0  0
  7  8  1  0  0  0  0
  7  9  1  0  0  0  0
  9 10  1  0  0  0  0
  9 11  1  0  0  0  0
  9 18  1  0  0  0  0
 11 12  1  0  0  0  0
 11 13  1  0  0  0  0
 11 14  1  0  0  0  0
 14 15  2  0  0  0  0
 14 16  1  0  0  0  0
 16 17  1  0  0  0  0
 18 19  2  0  0  0  0
 18 20  1  0  0  0  0
 20 21  1  0  0  0  0
 20 22  1  0  0  0  0
 22 23  1  0  0  0  0
 22 24  1  0  0  0  0
 22 25  1  0  0  0  0
M  END
$$$$

  -OEChem-02102214113D

 25 24  0     1  0  0  0  0  0999 V2000
   -2.7630   -4.0211    0.4295 H   0  0  0  0  0  0  0  0  0  0  0  0
   -2.7796   -2.9868    0.0748 C   0  0  0  0  0  0  0  0  0  0  0  0
   -3.5411   -2.4338    0.6298 H   0  0  0  0  0  0  0  0  0  0  0  0
   -3.0357   -2.9838   -0.9873 H   0  0  0  0  0  0  0  0  0  0  0  0
   -1.4209   -2.3446    0.2798 C   0  0  0  0  0  0  0  0  0  0  0  0
   -0.5542   -2.9408    0.9008 O   0  0  0  0  0  0  0  0  0  0  0  0
   -1.2036   -1.0497   -0.1494 N   0  0  0  0  0  0  0  0  0  0  0  0
   -1.9923   -0.5522   -0.5570 H   0  0  0  0  0  0  0  0  0  0  0  0
    0.1047   -0.3784   -0.1725 C   0  0  1  0  0  0  0  0  0  0  0  0
    0.8290   -0.9337    0.4332 H   0  0  0  0  0  0  0  0  0  0  0  0
    0.6417   -0.2449   -1.6201 C   0  0  0  0  0  0  0  0  0  0  0  0
   -0.0582    0.3710   -2.1928 H   0  0  0  0  0  0  0  0  0  0  0  0
    1.5934    0.2920   -1.5879 H   0  0  0  0  0  0  0  0  0  0  0  0
    0.8753   -1.5214   -2.4271 C   0  0  0  0  0  0  0  0  0  0  0  0
    0.6499   -2.6209   -1.9569 O   0  0  0  0  0  0  0  0  0  0  0  0
    1.3540   -1.3393   -3.6793 O   0  0  0  0  0  0  0  0  0  0  0  0
    1.4568   -2.2276   -4.0543 H   0  0  0  0  0  0  0  0  0  0  0  0
   -0.0268    1.0470    0.4007 C   0  0  0  0  0  0  0  0  0  0  0  0
   -0.9441    1.7736    0.0354 O   0  0  0  0  0  0  0  0  0  0  0  0
    0.9026    1.5259    1.3053 N   0  0  0  0  0  0  0  0  0  0  0  0
    1.6048    0.8753    1.6461 H   0  0  0  0  0  0  0  0  0  0  0  0
    0.8196    2.8509    1.9077 C   0  0  0  0  0  0  0  0  0  0  0  0
   -0.1042    2.9517    2.4871 H   0  0  0  0  0  0  0  0  0  0  0  0
    1.6687    3.0152    2.5780 H   0  0  0  0  0  0  0  0  0  0  0  0
    0.8365    3.6258    1.1338 H   0  0  0  0  0  0  0  0  0  0  0  0
  1  2  1  0  0  0  0
  2  3  1  0  0  0  0
  2  4  1  0  0  0  0
  2  5  1  0  0  0  0
  5  6  2  0  0  0  0
  5  7  1  0  0  0  0
  7  8  1  0  0  0  0
  7  9  1  0  0  0  0
  9 10  1  0  0  0  0
  9 11  1  0  0  0  0
  9 18  1  0  0  0  0
 11 12  1  0  0  0  0
 11 13  1  0  0  0  0
 11 14  1  0  0  0  0
 14 15  2  0  0  0  0
 14 16  1  0  0  0  0
 16 17  1  0  0  0  0
 18 19  2  0  0  0  0
 18 20  1  0  0  0  0
 20 21  1  0  0  0  0
 20 22  1  0  0  0  0
 22 23  1  0  0  0  0
 22 24  1  0  0  0  0
 22 25  1  0  0  0  0
M  END
$$$$

  -OEChem-02102214113D

 25 24  0     1  0  0  0  0  0999 V2000
   -2.7802   -4.0065    0.4692 H   0  0  0  0  0  0  0  0  0  0  0  0
   -2.7841   -2.9856    0.0775 C   0  0  0  0  0  0  0  0  0  0  0  0
   -3.5548   -2.4106    0.5962 H   0  0  0  0  0  0  0  0  0  0  0  0
   -3.0178   -3.0195   -0.9894 H   0  0  0  0  0  0  0  0  0  0  0  0
   -1.4270   -2.3410    0.2865 C   0  0  0  0  0  0  0  0  0  0  0  0
   -0.5554   -2.9389    0.8999 O   0  0  0  0  0  0  0  0  0  0  0  0
   -1.2096   -1.0465   -0.1439 N   0  0  0  0  0  0  0  0  0  0  0  0
   -1.9948   -0.5536   -0.5635 H   0  0  0  0  0  0  0  0  0  0  0  0
    0.1014   -0.3808   -0.1718 C   0  0  1  0  0  0  0  0  0  0  0  0
    0.8232   -0.9374    0.4358 H   0  0  0  0  0  0  0  0  0  0  0  0
    0.6481   -0.2465   -1.6163 C   0  0  0  0  0  0  0  0  0  0  0  0
   -0.0435    0.3750   -2.1923 H   0  0  0  0  0  0  0  0  0  0  0  0
    1.6013    0.2874   -1.5717 H   0  0  0  0  0  0  0  0  0  0  0  0
    0.8848   -1.5187   -2.4313 C   0  0  0  0  0  0  0  0  0  0  0  0
    0.4155   -2.5902   -2.0952 O   0  0  0  0  0  0  0  0  0  0  0  0
    1.6429   -1.3628   -3.5408 O   0  0  0  0  0  0  0  0  0  0  0  0
    1.7025   -2.2421   -3.9452 H   0  0  0  0  0  0  0  0  0  0  0  0
   -0.0266    1.0449    0.4028 C   0  0  0  0  0  0  0  0  0  0  0  0
   -0.9437    1.7726    0.0393 O   0  0  0  0  0  0  0  0  0  0  0  0
    0.9047    1.5242    1.3056 N   0  0  0  0  0  0  0  0  0  0  0  0
    1.6092    0.8747    1.6441 H   0  0  0  0  0  0  0  0  0  0  0  0
    0.8199    2.8486    1.9098 C   0  0  0  0  0  0  0  0  0  0  0  0
   -0.0986    2.9429    2.4984 H   0  0  0  0  0  0  0  0  0  0  0  0
    1.6746    3.0186    2.5715 H   0  0  0  0  0  0  0  0  0  0  0  0
    0.8236    3.6238    1.1362 H   0  0  0  0  0  0  0  0  0  0  0  0
  1  2  1  0  0  0  0
  2  3  1  0  0  0  0
  2  4  1  0  0  0  0
  2  5  1  0  0  0  0
  5  6  2  0  0  0  0
  5  7  1  0  0  0  0
  7  8  1  0  0  0  0
  7  9  1  0  0  0  0
  9 10  1  0  0  0  0
  9 11  1  0  0  0  0
  9 18  1  0  0  0  0
 11 12  1  0  0  0  0
 11 13  1  0  0  0  0
 11 14  1  0  0  0  0
 14 15  2  0  0  0  0
 14 16  1  0  0  0  0
 16 17  1  0  0  0  0
 18 19  2  0  0  0  0
 18 20  1  0  0  0  0
 20 21  1  0  0  0  0
 20 22  1  0  0  0  0
 22 23  1  0  0  0  0
 22 24  1  0  0  0  0
 22 25  1  0  0  0  0
M  END
$$$$

  -OEChem-02102214113D

 25 24  0     1  0  0  0  0  0999 V2000
   -2.7667   -4.0208    0.4362 H   0  0  0  0  0  0  0  0  0  0  0  0
   -2.7866   -2.9869    0.0806 C   0  0  0  0  0  0  0  0  0  0  0  0
   -3.5432   -2.4336    0.6417 H   0  0  0  0  0  0  0  0  0  0  0  0
   -3.0528   -2.9853   -0.9792 H   0  0  0  0  0  0  0  0  0  0  0  0
   -1.4264   -2.3434    0.2705 C   0  0  0  0  0  0  0  0  0  0  0  0
   -0.5378   -2.9520    0.8484 O   0  0  0  0  0  0  0  0  0  0  0  0
   -1.2177   -1.0445   -0.1508 N   0  0  0  0  0  0  0  0  0  0  0  0
   -2.0076   -0.5514   -0.5609 H   0  0  0  0  0  0  0  0  0  0  0  0
    0.0901   -0.3739   -0.1776 C   0  0  1  0  0  0  0  0  0  0  0  0
    0.8110   -0.9302    0.4307 H   0  0  0  0  0  0  0  0  0  0  0  0
    0.6474   -0.2377   -1.6172 C   0  0  0  0  0  0  0  0  0  0  0  0
   -0.0402    0.3809   -2.2011 H   0  0  0  0  0  0  0  0  0  0  0  0
    1.5983    0.3000   -1.5637 H   0  0  0  0  0  0  0  0  0  0  0  0
    0.8930   -1.5147   -2.4230 C   0  0  0  0  0  0  0  0  0  0  0  0
    0.2203   -2.5152   -2.2506 O   0  0  0  0  0  0  0  0  0  0  0  0
    1.8973   -1.4492   -3.3274 O   0  0  0  0  0  0  0  0  0  0  0  0
    1.9331   -2.3232   -3.7458 H   0  0  0  0  0  0  0  0  0  0  0  0
   -0.0381    1.0474    0.4073 C   0  0  0  0  0  0  0  0  0  0  0  0
   -0.9562    1.7772    0.0511 O   0  0  0  0  0  0  0  0  0  0  0  0
    0.8962    1.5217    1.3098 N   0  0  0  0  0  0  0  0  0  0  0  0
    1.6063    0.8728    1.6372 H   0  0  0  0  0  0  0  0  0  0  0  0
    0.8249    2.8490    1.9096 C   0  0  0  0  0  0  0  0  0  0  0  0
   -0.0946    2.9560    2.4948 H   0  0  0  0  0  0  0  0  0  0  0  0
    1.6793    3.0107    2.5739 H   0  0  0  0  0  0  0  0  0  0  0  0
    0.8408    3.6221    1.1340 H   0  0  0  0  0  0  0  0  0  0  0  0
  1  2  1  0  0  0  0
  2  3  1  0  0  0  0
  2  4  1  0  0  0  0
  2  5  1  0  0  0  0
  5  6  2  0  0  0  0
  5  7  1  0  0  0  0
  7  8  1  0  0  0  0
  7  9  1  0  0  0  0
  9 10  1  0  0  0  0
  9 11  1  0  0  0  0
  9 18  1  0  0  0  0
 11 12  1  0  0  0  0
 11 13  1  0  0  0  0
 11 14  1  0  0  0  0
 14 15  2  0  0  0  0
 14 16  1  0  0  0  0
 16 17  1  0  0  0  0
 18 19  2  0  0  0  0
 18 20  1  0  0  0  0
 20 21  1  0  0  0  0
 20 22  1  0  0  0  0
 22 23  1  0  0  0  0
 22 24  1  0  0  0  0
 22 25  1  0  0  0  0
M  END
$$$$

  -OEChem-02102214113D

 25 24  0     1  0  0  0  0  0999 V2000
   -2.7490   -4.0177    0.4307 H   0  0  0  0  0  0  0  0  0  0  0  0
   -2.7760   -2.9823    0.0802 C   0  0  0  0  0  0  0  0  0  0  0  0
   -3.5199   -2.4313    0.6601 H   0  0  0  0  0  0  0  0  0  0  0  0
   -3.0645   -2.9755   -0.9736 H   0  0  0  0  0  0  0  0  0  0  0  0
   -1.4117   -2.3401    0.2434 C   0  0  0  0  0  0  0  0  0  0  0  0
   -0.5037   -2.9606    0.7772 O   0  0  0  0  0  0  0  0  0  0  0  0
   -1.2129   -1.0362   -0.1670 N   0  0  0  0  0  0  0  0  0  0  0  0
   -2.0107   -0.5377   -0.5553 H   0  0  0  0  0  0  0  0  0  0  0  0
    0.0908   -0.3588   -0.1915 C   0  0  1  0  0  0  0  0  0  0  0  0
    0.8140   -0.9140    0.4152 H   0  0  0  0  0  0  0  0  0  0  0  0
    0.6483   -0.2241   -1.6291 C   0  0  0  0  0  0  0  0  0  0  0  0
   -0.0413    0.3856   -2.2198 H   0  0  0  0  0  0  0  0  0  0  0  0
    1.5973    0.3174   -1.5806 H   0  0  0  0  0  0  0  0  0  0  0  0
    0.8915   -1.5176   -2.4080 C   0  0  0  0  0  0  0  0  0  0  0  0
    0.0611   -2.4098   -2.4143 O   0  0  0  0  0  0  0  0  0  0  0  0
    2.0690   -1.5999   -3.0699 O   0  0  0  0  0  0  0  0  0  0  0  0
    2.0729   -2.4728   -3.4921 H   0  0  0  0  0  0  0  0  0  0  0  0
   -0.0409    1.0568    0.4052 C   0  0  0  0  0  0  0  0  0  0  0  0
   -0.9656    1.7842    0.0619 O   0  0  0  0  0  0  0  0  0  0  0  0
    0.8947    1.5265    1.3083 N   0  0  0  0  0  0  0  0  0  0  0  0
    1.6127    0.8797    1.6224 H   0  0  0  0  0  0  0  0  0  0  0  0
    0.8149    2.8446    1.9260 C   0  0  0  0  0  0  0  0  0  0  0  0
   -0.1100    2.9414    2.5042 H   0  0  0  0  0  0  0  0  0  0  0  0
    1.6627    2.9987    2.6004 H   0  0  0  0  0  0  0  0  0  0  0  0
    0.8359    3.6279    1.1610 H   0  0  0  0  0  0  0  0  0  0  0  0
  1  2  1  0  0  0  0
  2  3  1  0  0  0  0
  2  4  1  0  0  0  0
  2  5  1  0  0  0  0
  5  6  2  0  0  0  0
  5  7  1  0  0  0  0
  7  8  1  0  0  0  0
  7  9  1  0  0  0  0
  9 10  1  0  0  0  0
  9 11  1  0  0  0  0
  9 18  1  0  0  0  0
 11 12  1  0  0  0  0
 11 13  1  0  0  0  0
 11 14  1  0  0  0  0
 14 15  2  0  0  0  0
 14 16  1  0  0  0  0
 16 17  1  0  0  0  0
 18 19  2  0  0  0  0
 18 20  1  0  0  0  0
 20 21  1  0  0  0  0
 20 22  1  0  0  0  0
 22 23  1  0  0  0  0
 22 24  1  0  0  0  0
 22 25  1  0  0  0  0
M  END
$$$$

  -OEChem-02102214113D

 25 24  0     1  0  0  0  0  0999 V2000
   -2.7230   -4.0231    0.3997 H   0  0  0  0  0  0  0  0  0  0  0  0
   -2.7585   -2.9831    0.0643 C   0  0  0  0  0  0  0  0  0  0  0  0
   -3.4913   -2.4416    0.6671 H   0  0  0  0  0  0  0  0  0  0  0  0
   -3.0690   -2.9621   -0.9833 H   0  0  0  0  0  0  0  0  0  0  0  0
   -1.3920   -2.3408    0.2086 C   0  0  0  0  0  0  0  0  0  0  0  0
   -0.4656   -2.9737    0.6938 O   0  0  0  0  0  0  0  0  0  0  0  0
   -1.2043   -1.0307   -0.1854 N   0  0  0  0  0  0  0  0  0  0  0  0
   -2.0112   -0.5272   -0.5482 H   0  0  0  0  0  0  0  0  0  0  0  0
    0.0924   -0.3405   -0.2024 C   0  0  1  0  0  0  0  0  0  0  0  0
    0.8193   -0.8949    0.4008 H   0  0  0  0  0  0  0  0  0  0  0  0
    0.6426   -0.2088   -1.6401 C   0  0  0  0  0  0  0  0  0  0  0  0
   -0.0549    0.3862   -2.2368 H   0  0  0  0  0  0  0  0  0  0  0  0
    1.5891    0.3379   -1.6068 H   0  0  0  0  0  0  0  0  0  0  0  0
    0.8804   -1.5248   -2.3780 C   0  0  0  0  0  0  0  0  0  0  0  0
   -0.0473   -2.2914   -2.5782 O   0  0  0  0  0  0  0  0  0  0  0  0
    2.1517   -1.7799   -2.7658 O   0  0  0  0  0  0  0  0  0  0  0  0
    2.1281   -2.6542   -3.1843 H   0  0  0  0  0  0  0  0  0  0  0  0
   -0.0427    1.0683    0.4086 C   0  0  0  0  0  0  0  0  0  0  0  0
   -0.9751    1.7918    0.0787 O   0  0  0  0  0  0  0  0  0  0  0  0
    0.8926    1.5347    1.3140 N   0  0  0  0  0  0  0  0  0  0  0  0
    1.6270    0.8960    1.6062 H   0  0  0  0  0  0  0  0  0  0  0  0
    0.8104    2.8486    1.9410 C   0  0  0  0  0  0  0  0  0  0  0  0
   -0.1137    2.9391    2.5217 H   0  0  0  0  0  0  0  0  0  0  0  0
    1.6590    3.0003    2.6152 H   0  0  0  0  0  0  0  0  0  0  0  0
    0.8276    3.6375    1.1815 H   0  0  0  0  0  0  0  0  0  0  0  0
  1  2  1  0  0  0  0
  2  3  1  0  0  0  0
  2  4  1  0  0  0  0
  2  5  1  0  0  0  0
  5  6  2  0  0  0  0
  5  7  1  0  0  0  0
  7  8  1  0  0  0  0
  7  9  1  0  0  0  0
  9 10  1  0  0  0  0
  9 11  1  0  0  0  0
  9 18  1  0  0  0  0
 11 12  1  0  0  0  0
 11 13  1  0  0  0  0
 11 14  1  0  0  0  0
 14 15  2  0  0  0  0
 14 16  1  0  0  0  0
 16 17  1  0  0  0  0
 18 19  2  0  0  0  0
 18 20  1  0  0  0  0
 20 21  1  0  0  0  0
 20 22  1  0  0  0  0
 22 23  1  0  0  0  0
 22 24  1  0  0  0  0
 22 25  1  0  0  0  0
M  END
$$$$

  -OEChem-02102214113D

 25 24  0     1  0  0  0  0  0999 V2000
   -2.6985   -4.0205    0.3831 H   0  0  0  0  0  0  0  0  0  0  0  0
   -2.7408   -2.9774    0.0583 C   0  0  0  0  0  0  0  0  0  0  0  0
   -3.4523   -2.4393    0.6891 H   0  0  0  0  0  0  0  0  0  0  0  0
   -3.0843   -2.9456   -0.9787 H   0  0  0  0  0  0  0  0  0  0  0  0
   -1.3683   -2.3409    0.1645 C   0  0  0  0  0  0  0  0  0  0  0  0
   -0.4239   -2.9879    0.5925 O   0  0  0  0  0  0  0  0  0  0  0  0
   -1.1907   -1.0252   -0.2137 N   0  0  0  0  0  0  0  0  0  0  0  0
   -2.0103   -0.5100   -0.5294 H   0  0  0  0  0  0  0  0  0  0  0  0
    0.0987   -0.3213   -0.2215 C   0  0  1  0  0  0  0  0  0  0  0  0
    0.8291   -0.8741    0.3792 H   0  0  0  0  0  0  0  0  0  0  0  0
    0.6407   -0.1947   -1.6589 C   0  0  0  0  0  0  0  0  0  0  0  0
   -0.0626    0.3857   -2.2632 H   0  0  0  0  0  0  0  0  0  0  0  0
    1.5871    0.3527   -1.6431 H   0  0  0  0  0  0  0  0  0  0  0  0
    0.8712   -1.5364   -2.3453 C   0  0  0  0  0  0  0  0  0  0  0  0
   -0.0861   -2.1750   -2.7523 O   0  0  0  0  0  0  0  0  0  0  0  0
    2.1513   -1.9650   -2.4411 O   0  0  0  0  0  0  0  0  0  0  0  0
    2.1046   -2.8434   -2.8490 H   0  0  0  0  0  0  0  0  0  0  0  0
   -0.0431    1.0806    0.4025 C   0  0  0  0  0  0  0  0  0  0  0  0
   -0.9890    1.7953    0.0933 O   0  0  0  0  0  0  0  0  0  0  0  0
    0.8909    1.5429    1.3112 N   0  0  0  0  0  0  0  0  0  0  0  0
    1.6408    0.9123    1.5808 H   0  0  0  0  0  0  0  0  0  0  0  0
    0.7996    2.8466    1.9575 C   0  0  0  0  0  0  0  0  0  0  0  0
   -0.1298    2.9261    2.5312 H   0  0  0  0  0  0  0  0  0  0  0  0
    1.6414    2.9892    2.6419 H   0  0  0  0  0  0  0  0  0  0  0  0
    0.8222    3.6471    1.2106 H   0  0  0  0  0  0  0  0  0  0  0  0
  1  2  1  0  0  0  0
  2  3  1  0  0  0  0
  2  4  1  0  0  0  0
  2  5  1  0  0  0  0
  5  6  2  0  0  0  0
  5  7  1  0  0  0  0
  7  8  1  0  0  0  0
  7  9  1  0  0  0  0
  9 10  1  0  0  0  0
  9 11  1  0  0  0  0
  9 18  1  0  0  0  0
 11 12  1  0  0  0  0
 11 13  1  0  0  0  0
 11 14  1  0  0  0  0
 14 15  2  0  0  0  0
 14 16  1  0  0  0  0
 16 17  1  0  0  0  0
 18 19  2  0  0  0  0
 18 20  1  0  0  0  0
 20 21  1  0  0  0  0
 20 22  1  0  0  0  0
 22 23  1  0  0  0  0
 22 24  1  0  0  0  0
 22 25  1  0  0  0  0
M  END
$$$$

  -OEChem-02102214113D

 25 24  0     1  0  0  0  0  0999 V2000
   -2.6863   -4.0167    0.3703 H   0  0  0  0  0  0  0  0  0  0  0  0
   -2.7297   -2.9710    0.0532 C   0  0  0  0  0  0  0  0  0  0  0  0
   -3.4244   -2.4332    0.7026 H   0  0  0  0  0  0  0  0  0  0  0  0
   -3.0962   -2.9301   -0.9756 H   0  0  0  0  0  0  0  0  0  0  0  0
   -1.3520   -2.3420    0.1337 C   0  0  0  0  0  0  0  0  0  0  0  0
   -0.3987   -3.0009    0.5209 O   0  0  0  0  0  0  0  0  0  0  0  0
   -1.1777   -1.0235   -0.2348 N   0  0  0  0  0  0  0  0  0  0  0  0
   -2.0052   -0.4975   -0.5109 H   0  0  0  0  0  0  0  0  0  0  0  0
    0.1071   -0.3103   -0.2319 C   0  0  1  0  0  0  0  0  0  0  0  0
    0.8390   -0.8621    0.3686 H   0  0  0  0  0  0  0  0  0  0  0  0
    0.6406   -0.1903   -1.6701 C   0  0  0  0  0  0  0  0  0  0  0  0
   -0.0666    0.3808   -2.2794 H   0  0  0  0  0  0  0  0  0  0  0  0
    1.5888    0.3538   -1.6675 H   0  0  0  0  0  0  0  0  0  0  0  0
    0.8631   -1.5513   -2.3151 C   0  0  0  0  0  0  0  0  0  0  0  0
   -0.0505   -2.0691   -2.9374 O   0  0  0  0  0  0  0  0  0  0  0  0
    2.0749   -2.1277   -2.1402 O   0  0  0  0  0  0  0  0  0  0  0  0
    2.0129   -3.0022   -2.5543 H   0  0  0  0  0  0  0  0  0  0  0  0
   -0.0395    1.0880    0.3977 C   0  0  0  0  0  0  0  0  0  0  0  0
   -0.9925    1.7965    0.0961 O   0  0  0  0  0  0  0  0  0  0  0  0
    0.8906    1.5485    1.3114 N   0  0  0  0  0  0  0  0  0  0  0  0
    1.6460    0.9216    1.5744 H   0  0  0  0  0  0  0  0  0  0  0  0
    0.7913    2.8472    1.9667 C   0  0  0  0  0  0  0  0  0  0  0  0
   -0.1360    2.9145    2.5453 H   0  0  0  0  0  0  0  0  0  0  0  0
    1.6352    2.9932    2.6480 H   0  0  0  0  0  0  0  0  0  0  0  0
    0.8028    3.6526    1.2248 H   0  0  0  0  0  0  0  0  0  0  0  0
  1  2  1  0  0  0  0
  2  3  1  0  0  0  0
  2  4  1  0  0  0  0
  2  5  1  0  0  0  0
  5  6  2  0  0  0  0
  5  7  1  0  0  0  0
  7  8  1  0  0  0  0
  7  9  1  0  0  0  0
  9 10  1  0  0  0  0
  9 11  1  0  0  0  0
  9 18  1  0  0  0  0
 11 12  1  0  0  0  0
 11 13  1  0  0  0  0
 11 14  1  0  0  0  0
 14 15  2  0  0  0  0
 14 16  1  0  0  0  0
 16 17  1  0  0  0  0
 18 19  2  0  0  0  0
 18 20  1  0  0  0  0
 20 21  1  0  0  0  0
 20 22  1  0  0  0  0
 22 23  1  0  0  0  0
 22 24  1  0  0  0  0
 22 25  1  0  0  0  0
M  END
$$$$

  -OEChem-02102214113D

 25 24  0     1  0  0  0  0  0999 V2000
   -2.6984   -4.0052    0.3797 H   0  0  0  0  0  0  0  0  0  0  0  0
   -2.7372   -2.9584    0.0657 C   0  0  0  0  0  0  0  0  0  0  0  0
   -3.4105   -2.4148    0.7328 H   0  0  0  0  0  0  0  0  0  0  0  0
   -3.1275   -2.9106   -0.9540 H   0  0  0  0  0  0  0  0  0  0  0  0
   -1.3506   -2.3454    0.1159 C   0  0  0  0  0  0  0  0  0  0  0  0
   -0.3967   -3.0186    0.4741 O   0  0  0  0  0  0  0  0  0  0  0  0
   -1.1699   -1.0269   -0.2490 N   0  0  0  0  0  0  0  0  0  0  0  0
   -2.0008   -0.4874   -0.4872 H   0  0  0  0  0  0  0  0  0  0  0  0
    0.1142   -0.3110   -0.2374 C   0  0  1  0  0  0  0  0  0  0  0  0
    0.8436   -0.8631    0.3659 H   0  0  0  0  0  0  0  0  0  0  0  0
    0.6480   -0.1950   -1.6749 C   0  0  0  0  0  0  0  0  0  0  0  0
   -0.0592    0.3733   -2.2873 H   0  0  0  0  0  0  0  0  0  0  0  0
    1.5982    0.3454   -1.6752 H   0  0  0  0  0  0  0  0  0  0  0  0
    0.8677   -1.5642   -2.3006 C   0  0  0  0  0  0  0  0  0  0  0  0
    0.0734   -1.9673   -3.1347 O   0  0  0  0  0  0  0  0  0  0  0  0
    1.9561   -2.2607   -1.8980 O   0  0  0  0  0  0  0  0  0  0  0  0
    1.8983   -3.1223   -2.3382 H   0  0  0  0  0  0  0  0  0  0  0  0
   -0.0367    1.0865    0.3922 C   0  0  0  0  0  0  0  0  0  0  0  0
   -0.9961    1.7880    0.0948 O   0  0  0  0  0  0  0  0  0  0  0  0
    0.8873    1.5482    1.3114 N   0  0  0  0  0  0  0  0  0  0  0  0
    1.6472    0.9259    1.5722 H   0  0  0  0  0  0  0  0  0  0  0  0
    0.7802    2.8453    1.9688 C   0  0  0  0  0  0  0  0  0  0  0  0
   -0.1488    2.9070    2.5454 H   0  0  0  0  0  0  0  0  0  0  0  0
    1.6218    2.9946    2.6522 H   0  0  0  0  0  0  0  0  0  0  0  0
    0.7892    3.6519    1.2281 H   0  0  0  0  0  0  0  0  0  0  0  0
  1  2  1  0  0  0  0
  2  3  1  0  0  0  0
  2  4  1  0  0  0  0
  2  5  1  0  0  0  0
  5  6  2  0  0  0  0
  5  7  1  0  0  0  0
  7  8  1  0  0  0  0
  7  9  1  0  0  0  0
  9 10  1  0  0  0  0
  9 11  1  0  0  0  0
  9 18  1  0  0  0  0
 11 12  1  0  0  0  0
 11 13  1  0  0  0  0
 11 14  1  0  0  0  0
 14 15  2  0  0  0  0
 14 16  1  0  0  0  0
 16 17  1  0  0  0  0
 18 19  2  0  0  0  0
 18 20  1  0  0  0  0
 20 21  1  0  0  0  0
 20 22  1  0  0  0  0
 22 23  1  0  0  0  0
 22 24  1  0  0  0  0
 22 25  1  0  0  0  0
M  END
$$$$

  -OEChem-02102214113D

 25 24  0     1  0  0  0  0  0999 V2000
   -2.7332   -3.9921    0.4003 H   0  0  0  0  0  0  0  0  0  0  0  0
   -2.7601   -2.9448    0.0864 C   0  0  0  0  0  0  0  0  0  0  0  0
   -3.4211   -2.3920    0.7584 H   0  0  0  0  0  0  0  0  0  0  0  0
   -3.1577   -2.8921   -0.9301 H   0  0  0  0  0  0  0  0  0  0  0  0
   -1.3650   -2.3506    0.1258 C   0  0  0  0  0  0  0  0  0  0  0  0
   -0.4213   -3.0341    0.4891 O   0  0  0  0  0  0  0  0  0  0  0  0
   -1.1707   -1.0358   -0.2454 N   0  0  0  0  0  0  0  0  0  0  0  0
   -1.9995   -0.4859   -0.4678 H   0  0  0  0  0  0  0  0  0  0  0  0
    0.1161   -0.3233   -0.2306 C   0  0  1  0  0  0  0  0  0  0  0  0
    0.8409   -0.8754    0.3788 H   0  0  0  0  0  0  0  0  0  0  0  0
    0.6540   -0.2085   -1.6678 C   0  0  0  0  0  0  0  0  0  0  0  0
   -0.0505    0.3647   -2.2786 H   0  0  0  0  0  0  0  0  0  0  0  0
    1.6056    0.3290   -1.6638 H   0  0  0  0  0  0  0  0  0  0  0  0
    0.8759   -1.5732   -2.3024 C   0  0  0  0  0  0  0  0  0  0  0  0
    0.2635   -1.8557   -3.3188 O   0  0  0  0  0  0  0  0  0  0  0  0
    1.8117   -2.3733   -1.7404 O   0  0  0  0  0  0  0  0  0  0  0  0
    1.7891   -3.2050   -2.2372 H   0  0  0  0  0  0  0  0  0  0  0  0
   -0.0370    1.0782    0.3894 C   0  0  0  0  0  0  0  0  0  0  0  0
   -0.9968    1.7768    0.0863 O   0  0  0  0  0  0  0  0  0  0  0  0
    0.8817    1.5437    1.3117 N   0  0  0  0  0  0  0  0  0  0  0  0
    1.6404    0.9226    1.5788 H   0  0  0  0  0  0  0  0  0  0  0  0
    0.7722    2.8443    1.9613 C   0  0  0  0  0  0  0  0  0  0  0  0
   -0.1632    2.9133    2.5267 H   0  0  0  0  0  0  0  0  0  0  0  0
    1.6063    2.9935    2.6539 H   0  0  0  0  0  0  0  0  0  0  0  0
    0.7939    3.6468    1.2164 H   0  0  0  0  0  0  0  0  0  0  0  0
  1  2  1  0  0  0  0
  2  3  1  0  0  0  0
  2  4  1  0  0  0  0
  2  5  1  0  0  0  0
  5  6  2  0  0  0  0
  5  7  1  0  0  0  0
  7  8  1  0  0  0  0
  7  9  1  0  0  0  0
  9 10  1  0  0  0  0
  9 11  1  0  0  0  0
  9 18  1  0  0  0  0
 11 12  1  0  0  0  0
 11 13  1  0  0  0  0
 11 14  1  0  0  0  0
 14 15  2  0  0  0  0
 14 16  1  0  0  0  0
 16 17  1  0  0  0  0
 18 19  2  0  0  0  0
 18 20  1  0  0  0  0
 20 21  1  0  0  0  0
 20 22  1  0  0  0  0
 22 23  1  0  0  0  0
 22 24  1  0  0  0  0
 22 25  1  0  0  0  0
M  END
$$$$

  -OEChem-02102214113D

 25 24  0     1  0  0  0  0  0999 V2000
   -2.7739   -3.9818    0.4201 H   0  0  0  0  0  0  0  0  0  0  0  0
   -2.7864   -2.9361    0.1002 C   0  0  0  0  0  0  0  0  0  0  0  0
   -3.4508   -2.3736    0.7604 H   0  0  0  0  0  0  0  0  0  0  0  0
   -3.1701   -2.8853   -0.9217 H   0  0  0  0  0  0  0  0  0  0  0  0
   -1.3863   -2.3546    0.1565 C   0  0  0  0  0  0  0  0  0  0  0  0
   -0.4612   -3.0375    0.5645 O   0  0  0  0  0  0  0  0  0  0  0  0
   -1.1765   -1.0454   -0.2269 N   0  0  0  0  0  0  0  0  0  0  0  0
   -1.9994   -0.4934   -0.4651 H   0  0  0  0  0  0  0  0  0  0  0  0
    0.1145   -0.3394   -0.2165 C   0  0  1  0  0  0  0  0  0  0  0  0
    0.8370   -0.8914    0.3954 H   0  0  0  0  0  0  0  0  0  0  0  0
    0.6519   -0.2230   -1.6560 C   0  0  0  0  0  0  0  0  0  0  0  0
   -0.0523    0.3581   -2.2600 H   0  0  0  0  0  0  0  0  0  0  0  0
    1.6046    0.3125   -1.6469 H   0  0  0  0  0  0  0  0  0  0  0  0
    0.8765   -1.5751   -2.3181 C   0  0  0  0  0  0  0  0  0  0  0  0
    0.4890   -1.7321   -3.4636 O   0  0  0  0  0  0  0  0  0  0  0  0
    1.6269   -2.4815   -1.6503 O   0  0  0  0  0  0  0  0  0  0  0  0
    1.6629   -3.2724   -2.2084 H   0  0  0  0  0  0  0  0  0  0  0  0
   -0.0374    1.0685    0.3899 C   0  0  0  0  0  0  0  0  0  0  0  0
   -0.9940    1.7671    0.0761 O   0  0  0  0  0  0  0  0  0  0  0  0
    0.8799    1.5396    1.3109 N   0  0  0  0  0  0  0  0  0  0  0  0
    1.6332    0.9166    1.5888 H   0  0  0  0  0  0  0  0  0  0  0  0
    0.7723    2.8456    1.9499 C   0  0  0  0  0  0  0  0  0  0  0  0
   -0.1663    2.9231    2.5086 H   0  0  0  0  0  0  0  0  0  0  0  0
    1.6025    2.9956    2.6467 H   0  0  0  0  0  0  0  0  0  0  0  0
    0.8024    3.6424    1.1993 H   0  0  0  0  0  0  0  0  0  0  0  0
  1  2  1  0  0  0  0
  2  3  1  0  0  0  0
  2  4  1  0  0  0  0
  2  5  1  0  0  0  0
  5  6  2  0  0  0  0
  5  7  1  0  0  0  0
  7  8  1  0  0  0  0
  7  9  1  0  0  0  0
  9 10  1  0  0  0  0
  9 11  1  0  0  0  0
  9 18  1  0  0  0  0
 11 12  1  0  0  0  0
 11 13  1  0  0  0  0
 11 14  1  0  0  0  0
 14 15  2  0  0  0  0
 14 16  1  0  0  0  0
 16 17  1  0  0  0  0
 18 19  2  0  0  0  0
 18 20  1  0  0  0  0
 20 21  1  0  0  0  0
 20 22  1  0  0  0  0
 22 23  1  0  0  0  0
 22 24  1  0  0  0  0
 22 25  1  0  0  0  0
M  END
$$$$

  -OEChem-02102214113D

 25 24  0     1  0  0  0  0  0999 V2000
   -2.8041   -3.9806    0.4283 H   0  0  0  0  0  0  0  0  0  0  0  0
   -2.8052   -2.9364    0.1041 C   0  0  0  0  0  0  0  0  0  0  0  0
   -3.4916   -2.3707    0.7385 H   0  0  0  0  0  0  0  0  0  0  0  0
   -3.1535   -2.8897   -0.9303 H   0  0  0  0  0  0  0  0  0  0  0  0
   -1.4076   -2.3555    0.2066 C   0  0  0  0  0  0  0  0  0  0  0  0
   -0.5092   -3.0220    0.6933 O   0  0  0  0  0  0  0  0  0  0  0  0
   -1.1820   -1.0540   -0.1942 N   0  0  0  0  0  0  0  0  0  0  0  0
   -1.9942   -0.5083   -0.4782 H   0  0  0  0  0  0  0  0  0  0  0  0
    0.1154   -0.3600   -0.1918 C   0  0  1  0  0  0  0  0  0  0  0  0
    0.8387   -0.9124    0.4186 H   0  0  0  0  0  0  0  0  0  0  0  0
    0.6467   -0.2367   -1.6360 C   0  0  0  0  0  0  0  0  0  0  0  0
   -0.0580    0.3586   -2.2253 H   0  0  0  0  0  0  0  0  0  0  0  0
    1.6006    0.2968   -1.6208 H   0  0  0  0  0  0  0  0  0  0  0  0
    0.8698   -1.5653   -2.3477 C   0  0  0  0  0  0  0  0  0  0  0  0
    0.7337   -1.5872   -3.5590 O   0  0  0  0  0  0  0  0  0  0  0  0
    1.3758   -2.5981   -1.6372 O   0  0  0  0  0  0  0  0  0  0  0  0
    1.4840   -3.3339   -2.2575 H   0  0  0  0  0  0  0  0  0  0  0  0
   -0.0348    1.0555    0.3980 C   0  0  0  0  0  0  0  0  0  0  0  0
   -0.9803    1.7591    0.0617 O   0  0  0  0  0  0  0  0  0  0  0  0
    0.8800    1.5350    1.3167 N   0  0  0  0  0  0  0  0  0  0  0  0
    1.6204    0.9076    1.6184 H   0  0  0  0  0  0  0  0  0  0  0  0
    0.7781    2.8534    1.9307 C   0  0  0  0  0  0  0  0  0  0  0  0
   -0.1595    2.9452    2.4890 H   0  0  0  0  0  0  0  0  0  0  0  0
    1.6100    3.0144    2.6230 H   0  0  0  0  0  0  0  0  0  0  0  0
    0.8102    3.6353    1.1646 H   0  0  0  0  0  0  0  0  0  0  0  0
  1  2  1  0  0  0  0
  2  3  1  0  0  0  0
  2  4  1  0  0  0  0
  2  5  1  0  0  0  0
  5  6  2  0  0  0  0
  5  7  1  0  0  0  0
  7  8  1  0  0  0  0
  7  9  1  0  0  0  0
  9 10  1  0  0  0  0
  9 11  1  0  0  0  0
  9 18  1  0  0  0  0
 11 12  1  0  0  0  0
 11 13  1  0  0  0  0
 11 14  1  0  0  0  0
 14 15  2  0  0  0  0
 14 16  1  0  0  0  0
 16 17  1  0  0  0  0
 18 19  2  0  0  0  0
 18 20  1  0  0  0  0
 20 21  1  0  0  0  0
 20 22  1  0  0  0  0
 22 23  1  0  0  0  0
 22 24  1  0  0  0  0
 22 25  1  0  0  0  0
M  END
$$$$

  -OEChem-02102214113D

 25 24  0     1  0  0  0  0  0999 V2000
   -2.8095   -3.9865    0.4470 H   0  0  0  0  0  0  0  0  0  0  0  0
   -2.8103   -2.9473    0.1062 C   0  0  0  0  0  0  0  0  0  0  0  0
   -3.5301   -2.3807    0.7018 H   0  0  0  0  0  0  0  0  0  0  0  0
   -3.1142   -2.9216   -0.9428 H   0  0  0  0  0  0  0  0  0  0  0  0
   -1.4257   -2.3464    0.2587 C   0  0  0  0  0  0  0  0  0  0  0  0
   -0.5510   -2.9803    0.8271 O   0  0  0  0  0  0  0  0  0  0  0  0
   -1.1945   -1.0520   -0.1630 N   0  0  0  0  0  0  0  0  0  0  0  0
   -1.9942   -0.5243   -0.5084 H   0  0  0  0  0  0  0  0  0  0  0  0
    0.1099   -0.3711   -0.1747 C   0  0  1  0  0  0  0  0  0  0  0  0
    0.8329   -0.9235    0.4357 H   0  0  0  0  0  0  0  0  0  0  0  0
    0.6424   -0.2454   -1.6213 C   0  0  0  0  0  0  0  0  0  0  0  0
   -0.0601    0.3614   -2.2011 H   0  0  0  0  0  0  0  0  0  0  0  0
    1.5971    0.2868   -1.5971 H   0  0  0  0  0  0  0  0  0  0  0  0
    0.8675   -1.5503   -2.3783 C   0  0  0  0  0  0  0  0  0  0  0  0
    1.0085   -1.4666   -3.5862 O   0  0  0  0  0  0  0  0  0  0  0  0
    1.0514   -2.6974   -1.6897 O   0  0  0  0  0  0  0  0  0  0  0  0
    1.2369   -3.3871   -2.3436 H   0  0  0  0  0  0  0  0  0  0  0  0
   -0.0309    1.0532    0.3979 C   0  0  0  0  0  0  0  0  0  0  0  0
   -0.9667    1.7638    0.0488 O   0  0  0  0  0  0  0  0  0  0  0  0
    0.8896    1.5369    1.3088 N   0  0  0  0  0  0  0  0  0  0  0  0
    1.6152    0.9014    1.6288 H   0  0  0  0  0  0  0  0  0  0  0  0
    0.7895    2.8571    1.9191 C   0  0  0  0  0  0  0  0  0  0  0  0
   -0.1442    2.9484    2.4840 H   0  0  0  0  0  0  0  0  0  0  0  0
    1.6261    3.0221    2.6047 H   0  0  0  0  0  0  0  0  0  0  0  0
    0.8141    3.6371    1.1509 H   0  0  0  0  0  0  0  0  0  0  0  0
  1  2  1  0  0  0  0
  2  3  1  0  0  0  0
  2  4  1  0  0  0  0
  2  5  1  0  0  0  0
  5  6  2  0  0  0  0
  5  7  1  0  0  0  0
  7  8  1  0  0  0  0
  7  9  1  0  0  0  0
  9 10  1  0  0  0  0
  9 11  1  0  0  0  0
  9 18  1  0  0  0  0
 11 12  1  0  0  0  0
 11 13  1  0  0  0  0
 11 14  1  0  0  0  0
 14 15  2  0  0  0  0
 14 16  1  0  0  0  0
 16 17  1  0  0  0  0
 18 19  2  0  0  0  0
 18 20  1  0  0  0  0
 20 21  1  0  0  0  0
 20 22  1  0  0  0  0
 22 23  1  0  0  0  0
 22 24  1  0  0  0  0
 22 25  1  0  0  0  0
M  END
$$$$

  -OEChem-02102214113D

 25 24  0     1  0  0  0  0  0999 V2000
   -2.8354   -3.9788    0.5773 H   0  0  0  0  0  0  0  0  0  0  0  0
   -2.8427   -2.9540    0.1961 C   0  0  0  0  0  0  0  0  0  0  0  0
   -3.5597   -2.3668    0.7747 H   0  0  0  0  0  0  0  0  0  0  0  0
   -3.1542   -2.9699   -0.8509 H   0  0  0  0  0  0  0  0  0  0  0  0
   -1.4587   -2.3447    0.3132 C   0  0  0  0  0  0  0  0  0  0  0  0
   -0.5603   -2.9744    0.8517 O   0  0  0  0  0  0  0  0  0  0  0  0
   -1.2412   -1.0523   -0.1236 N   0  0  0  0  0  0  0  0  0  0  0  0
   -2.0450   -0.5318   -0.4693 H   0  0  0  0  0  0  0  0  0  0  0  0
    0.0677   -0.3841   -0.1743 C   0  0  1  0  0  0  0  0  0  0  0  0
    0.7832   -0.9406    0.4401 H   0  0  0  0  0  0  0  0  0  0  0  0
    0.6443   -0.2630   -1.6111 C   0  0  0  0  0  0  0  0  0  0  0  0
    0.1004    0.5370   -2.1234 H   0  0  0  0  0  0  0  0  0  0  0  0
    1.6883    0.0515   -1.5304 H   0  0  0  0  0  0  0  0  0  0  0  0
    0.6004   -1.4668   -2.5558 C   0  0  0  0  0  0  0  0  0  0  0  0
    1.0756   -1.2774   -3.6624 O   0  0  0  0  0  0  0  0  0  0  0  0
    0.1119   -2.6639   -2.1638 O   0  0  0  0  0  0  0  0  0  0  0  0
    0.2445   -3.2663   -2.9107 H   0  0  0  0  0  0  0  0  0  0  0  0
   -0.0546    1.0435    0.3974 C   0  0  0  0  0  0  0  0  0  0  0  0
   -0.9953    1.7571    0.0684 O   0  0  0  0  0  0  0  0  0  0  0  0
    0.8899    1.5277    1.2835 N   0  0  0  0  0  0  0  0  0  0  0  0
    1.6179    0.8895    1.5919 H   0  0  0  0  0  0  0  0  0  0  0  0
    0.8109    2.8510    1.8906 C   0  0  0  0  0  0  0  0  0  0  0  0
   -0.0983    2.9428    2.4940 H   0  0  0  0  0  0  0  0  0  0  0  0
    1.6754    3.0220    2.5392 H   0  0  0  0  0  0  0  0  0  0  0  0
    0.8007    3.6271    1.1180 H   0  0  0  0  0  0  0  0  0  0  0  0
  1  2  1  0  0  0  0
  2  3  1  0  0  0  0
  2  4  1  0  0  0  0
  2  5  1  0  0  0  0
  5  6  2  0  0  0  0
  5  7  1  0  0  0  0
  7  8  1  0  0  0  0
  7  9  1  0  0  0  0
  9 10  1  0  0  0  0
  9 11  1  0  0  0  0
  9 18  1  0  0  0  0
 11 12  1  0  0  0  0
 11 13  1  0  0  0  0
 11 14  1  0  0  0  0
 14 15  2  0  0  0  0
 14 16  1  0  0  0  0
 16 17  1  0  0  0  0
 18 19  2  0  0  0  0
 18 20  1  0  0  0  0
 20 21  1  0  0  0  0
 20 22  1  0  0  0  0
 22 23  1  0  0  0  0
 22 24  1  0  0  0  0
 22 25  1  0  0  0  0
M  END
$$$$

  -OEChem-02102214113D

 25 24  0     1  0  0  0  0  0999 V2000
   -2.8356   -3.9751    0.6076 H   0  0  0  0  0  0  0  0  0  0  0  0
   -2.8463   -2.9516    0.2229 C   0  0  0  0  0  0  0  0  0  0  0  0
   -3.5470   -2.3587    0.8154 H   0  0  0  0  0  0  0  0  0  0  0  0
   -3.1815   -2.9694   -0.8169 H   0  0  0  0  0  0  0  0  0  0  0  0
   -1.4574   -2.3477    0.3057 C   0  0  0  0  0  0  0  0  0  0  0  0
   -0.5400   -2.9923    0.7927 O   0  0  0  0  0  0  0  0  0  0  0  0
   -1.2472   -1.0526   -0.1261 N   0  0  0  0  0  0  0  0  0  0  0  0
   -2.0554   -0.5293   -0.4568 H   0  0  0  0  0  0  0  0  0  0  0  0
    0.0598   -0.3829   -0.1791 C   0  0  1  0  0  0  0  0  0  0  0  0
    0.7717   -0.9372    0.4414 H   0  0  0  0  0  0  0  0  0  0  0  0
    0.6534   -0.2689   -1.6093 C   0  0  0  0  0  0  0  0  0  0  0  0
    0.1091    0.5235   -2.1319 H   0  0  0  0  0  0  0  0  0  0  0  0
    1.6937    0.0562   -1.5163 H   0  0  0  0  0  0  0  0  0  0  0  0
    0.6264   -1.4765   -2.5527 C   0  0  0  0  0  0  0  0  0  0  0  0
    1.3564   -1.3867   -3.5251 O   0  0  0  0  0  0  0  0  0  0  0  0
   -0.2028   -2.5265   -2.3563 O   0  0  0  0  0  0  0  0  0  0  0  0
   -0.0219   -3.1459   -3.0791 H   0  0  0  0  0  0  0  0  0  0  0  0
   -0.0602    1.0423    0.3988 C   0  0  0  0  0  0  0  0  0  0  0  0
   -1.0031    1.7564    0.0772 O   0  0  0  0  0  0  0  0  0  0  0  0
    0.8876    1.5243    1.2828 N   0  0  0  0  0  0  0  0  0  0  0  0
    1.6208    0.8878    1.5823 H   0  0  0  0  0  0  0  0  0  0  0  0
    0.8120    2.8475    1.8902 C   0  0  0  0  0  0  0  0  0  0  0  0
   -0.0934    2.9385    2.4994 H   0  0  0  0  0  0  0  0  0  0  0  0
    1.6807    3.0194    2.5329 H   0  0  0  0  0  0  0  0  0  0  0  0
    0.7960    3.6234    1.1175 H   0  0  0  0  0  0  0  0  0  0  0  0
  1  2  1  0  0  0  0
  2  3  1  0  0  0  0
  2  4  1  0  0  0  0
  2  5  1  0  0  0  0
  5  6  2  0  0  0  0
  5  7  1  0  0  0  0
  7  8  1  0  0  0  0
  7  9  1  0  0  0  0
  9 10  1  0  0  0  0
  9 11  1  0  0  0  0
  9 18  1  0  0  0  0
 11 12  1  0  0  0  0
 11 13  1  0  0  0  0
 11 14  1  0  0  0  0
 14 15  2  0  0  0  0
 14 16  1  0  0  0  0
 16 17  1  0  0  0  0
 18 19  2  0  0  0  0
 18 20  1  0  0  0  0
 20 21  1  0  0  0  0
 20 22  1  0  0  0  0
 22 23  1  0  0  0  0
 22 24  1  0  0  0  0
 22 25  1  0  0  0  0
M  END
$$$$

  -OEChem-02102214113D

 25 24  0     1  0  0  0  0  0999 V2000
   -2.8182   -3.9875    0.5809 H   0  0  0  0  0  0  0  0  0  0  0  0
   -2.8411   -2.9525    0.2286 C   0  0  0  0  0  0  0  0  0  0  0  0
   -3.5162   -2.3770    0.8663 H   0  0  0  0  0  0  0  0  0  0  0  0
   -3.2173   -2.9378   -0.7972 H   0  0  0  0  0  0  0  0  0  0  0  0
   -1.4483   -2.3532    0.2741 C   0  0  0  0  0  0  0  0  0  0  0  0
   -0.5114   -3.0155    0.6954 O   0  0  0  0  0  0  0  0  0  0  0  0
   -1.2491   -1.0515   -0.1412 N   0  0  0  0  0  0  0  0  0  0  0  0
   -2.0662   -0.5217   -0.4384 H   0  0  0  0  0  0  0  0  0  0  0  0
    0.0520   -0.3717   -0.1908 C   0  0  1  0  0  0  0  0  0  0  0  0
    0.7641   -0.9257    0.4296 H   0  0  0  0  0  0  0  0  0  0  0  0
    0.6512   -0.2627   -1.6169 C   0  0  0  0  0  0  0  0  0  0  0  0
    0.1004    0.5162   -2.1524 H   0  0  0  0  0  0  0  0  0  0  0  0
    1.6880    0.0745   -1.5262 H   0  0  0  0  0  0  0  0  0  0  0  0
    0.6246   -1.4935   -2.5295 C   0  0  0  0  0  0  0  0  0  0  0  0
    1.5395   -1.5681   -3.3322 O   0  0  0  0  0  0  0  0  0  0  0  0
   -0.4305   -2.3423   -2.5419 O   0  0  0  0  0  0  0  0  0  0  0  0
   -0.2243   -3.0063   -3.2169 H   0  0  0  0  0  0  0  0  0  0  0  0
   -0.0681    1.0464    0.4026 C   0  0  0  0  0  0  0  0  0  0  0  0
   -1.0175    1.7590    0.0978 O   0  0  0  0  0  0  0  0  0  0  0  0
    0.8832    1.5218    1.2864 N   0  0  0  0  0  0  0  0  0  0  0  0
    1.6348    0.8934    1.5562 H   0  0  0  0  0  0  0  0  0  0  0  0
    0.8147    2.8432    1.8987 C   0  0  0  0  0  0  0  0  0  0  0  0
   -0.1044    2.9468    2.4850 H   0  0  0  0  0  0  0  0  0  0  0  0
    1.6690    2.9968    2.5650 H   0  0  0  0  0  0  0  0  0  0  0  0
    0.8322    3.6226    1.1296 H   0  0  0  0  0  0  0  0  0  0  0  0
  1  2  1  0  0  0  0
  2  3  1  0  0  0  0
  2  4  1  0  0  0  0
  2  5  1  0  0  0  0
  5  6  2  0  0  0  0
  5  7  1  0  0  0  0
  7  8  1  0  0  0  0
  7  9  1  0  0  0  0
  9 10  1  0  0  0  0
  9 11  1  0  0  0  0
  9 18  1  0  0  0  0
 11 12  1  0  0  0  0
 11 13  1  0  0  0  0
 11 14  1  0  0  0  0
 14 15  2  0  0  0  0
 14 16  1  0  0  0  0
 16 17  1  0  0  0  0
 18 19  2  0  0  0  0
 18 20  1  0  0  0  0
 20 21  1  0  0  0  0
 20 22  1  0  0  0  0
 22 23  1  0  0  0  0
 22 24  1  0  0  0  0
 22 25  1  0  0  0  0
M  END
$$$$

  -OEChem-02102214113D

 25 24  0     1  0  0  0  0  0999 V2000
   -2.7965   -3.9940    0.5430 H   0  0  0  0  0  0  0  0  0  0  0  0
   -2.8272   -2.9523    0.2119 C   0  0  0  0  0  0  0  0  0  0  0  0
   -3.4857   -2.3892    0.8776 H   0  0  0  0  0  0  0  0  0  0  0  0
   -3.2287   -2.9166   -0.8037 H   0  0  0  0  0  0  0  0  0  0  0  0
   -1.4333   -2.3547    0.2354 C   0  0  0  0  0  0  0  0  0  0  0  0
   -0.4854   -3.0275    0.6119 O   0  0  0  0  0  0  0  0  0  0  0  0
   -1.2415   -1.0472   -0.1629 N   0  0  0  0  0  0  0  0  0  0  0  0
   -2.0640   -0.5127   -0.4365 H   0  0  0  0  0  0  0  0  0  0  0  0
    0.0545   -0.3579   -0.2043 C   0  0  1  0  0  0  0  0  0  0  0  0
    0.7703   -0.9139    0.4103 H   0  0  0  0  0  0  0  0  0  0  0  0
    0.6418   -0.2496   -1.6324 C   0  0  0  0  0  0  0  0  0  0  0  0
    0.0859    0.5221   -2.1729 H   0  0  0  0  0  0  0  0  0  0  0  0
    1.6798    0.0880   -1.5570 H   0  0  0  0  0  0  0  0  0  0  0  0
    0.5952   -1.5049   -2.5073 C   0  0  0  0  0  0  0  0  0  0  0  0
    1.6167   -1.7710   -3.1178 O   0  0  0  0  0  0  0  0  0  0  0  0
   -0.5752   -2.1575   -2.7118 O   0  0  0  0  0  0  0  0  0  0  0  0
   -0.3676   -2.8750   -3.3295 H   0  0  0  0  0  0  0  0  0  0  0  0
   -0.0685    1.0528    0.4048 C   0  0  0  0  0  0  0  0  0  0  0  0
   -1.0220    1.7638    0.1101 O   0  0  0  0  0  0  0  0  0  0  0  0
    0.8823    1.5224    1.2922 N   0  0  0  0  0  0  0  0  0  0  0  0
    1.6423    0.8979    1.5467 H   0  0  0  0  0  0  0  0  0  0  0  0
    0.8131    2.8392    1.9149 C   0  0  0  0  0  0  0  0  0  0  0  0
   -0.1184    2.9484    2.4804 H   0  0  0  0  0  0  0  0  0  0  0  0
    1.6526    2.9768    2.6033 H   0  0  0  0  0  0  0  0  0  0  0  0
    0.8574    3.6254    1.1538 H   0  0  0  0  0  0  0  0  0  0  0  0
  1  2  1  0  0  0  0
  2  3  1  0  0  0  0
  2  4  1  0  0  0  0
  2  5  1  0  0  0  0
  5  6  2  0  0  0  0
  5  7  1  0  0  0  0
  7  8  1  0  0  0  0
  7  9  1  0  0  0  0
  9 10  1  0  0  0  0
  9 11  1  0  0  0  0
  9 18  1  0  0  0  0
 11 12  1  0  0  0  0
 11 13  1  0  0  0  0
 11 14  1  0  0  0  0
 14 15  2  0  0  0  0
 14 16  1  0  0  0  0
 16 17  1  0  0  0  0
 18 19  2  0  0  0  0
 18 20  1  0  0  0  0
 20 21  1  0  0  0  0
 20 22  1  0  0  0  0
 22 23  1  0  0  0  0
 22 24  1  0  0  0  0
 22 25  1  0  0  0  0
M  END
$$$$

  -OEChem-02102214113D

 25 24  0     1  0  0  0  0  0999 V2000
   -2.7821   -3.9932    0.5007 H   0  0  0  0  0  0  0  0  0  0  0  0
   -2.8154   -2.9496    0.1764 C   0  0  0  0  0  0  0  0  0  0  0  0
   -3.4684   -2.3908    0.8512 H   0  0  0  0  0  0  0  0  0  0  0  0
   -3.2257   -2.9077   -0.8355 H   0  0  0  0  0  0  0  0  0  0  0  0
   -1.4213   -2.3523    0.1918 C   0  0  0  0  0  0  0  0  0  0  0  0
   -0.4672   -3.0327    0.5364 O   0  0  0  0  0  0  0  0  0  0  0  0
   -1.2341   -1.0396   -0.1892 N   0  0  0  0  0  0  0  0  0  0  0  0
   -2.0609   -0.5014   -0.4431 H   0  0  0  0  0  0  0  0  0  0  0  0
    0.0574   -0.3403   -0.2194 C   0  0  1  0  0  0  0  0  0  0  0  0
    0.7765   -0.9001    0.3885 H   0  0  0  0  0  0  0  0  0  0  0  0
    0.6322   -0.2304   -1.6490 C   0  0  0  0  0  0  0  0  0  0  0  0
    0.0695    0.5340   -2.1929 H   0  0  0  0  0  0  0  0  0  0  0  0
    1.6712    0.1074   -1.5913 H   0  0  0  0  0  0  0  0  0  0  0  0
    0.5664   -1.5073   -2.4852 C   0  0  0  0  0  0  0  0  0  0  0  0
    1.6269   -1.9624   -2.8789 O   0  0  0  0  0  0  0  0  0  0  0  0
   -0.6388   -1.9975   -2.8670 O   0  0  0  0  0  0  0  0  0  0  0  0
   -0.4400   -2.7734   -3.4129 H   0  0  0  0  0  0  0  0  0  0  0  0
   -0.0662    1.0635    0.4038 C   0  0  0  0  0  0  0  0  0  0  0  0
   -1.0241    1.7736    0.1221 O   0  0  0  0  0  0  0  0  0  0  0  0
    0.8849    1.5243    1.2953 N   0  0  0  0  0  0  0  0  0  0  0  0
    1.6480    0.8991    1.5392 H   0  0  0  0  0  0  0  0  0  0  0  0
    0.8143    2.8334    1.9333 C   0  0  0  0  0  0  0  0  0  0  0  0
   -0.0980    2.9187    2.5330 H   0  0  0  0  0  0  0  0  0  0  0  0
    1.6761    2.9805    2.5915 H   0  0  0  0  0  0  0  0  0  0  0  0
    0.8162    3.6278    1.1795 H   0  0  0  0  0  0  0  0  0  0  0  0
  1  2  1  0  0  0  0
  2  3  1  0  0  0  0
  2  4  1  0  0  0  0
  2  5  1  0  0  0  0
  5  6  2  0  0  0  0
  5  7  1  0  0  0  0
  7  8  1  0  0  0  0
  7  9  1  0  0  0  0
  9 10  1  0  0  0  0
  9 11  1  0  0  0  0
  9 18  1  0  0  0  0
 11 12  1  0  0  0  0
 11 13  1  0  0  0  0
 11 14  1  0  0  0  0
 14 15  2  0  0  0  0
 14 16  1  0  0  0  0
 16 17  1  0  0  0  0
 18 19  2  0  0  0  0
 18 20  1  0  0  0  0
 20 21  1  0  0  0  0
 20 22  1  0  0  0  0
 22 23  1  0  0  0  0
 22 24  1  0  0  0  0
 22 25  1  0  0  0  0
M  END
$$$$

  -OEChem-02102214113D

 25 24  0     1  0  0  0  0  0999 V2000
   -2.7650   -3.9965    0.4620 H   0  0  0  0  0  0  0  0  0  0  0  0
   -2.8005   -2.9495    0.1482 C   0  0  0  0  0  0  0  0  0  0  0  0
   -3.4462   -2.3972    0.8351 H   0  0  0  0  0  0  0  0  0  0  0  0
   -3.2214   -2.8968   -0.8588 H   0  0  0  0  0  0  0  0  0  0  0  0
   -1.4059   -2.3534    0.1561 C   0  0  0  0  0  0  0  0  0  0  0  0
   -0.4501   -3.0369    0.4871 O   0  0  0  0  0  0  0  0  0  0  0  0
   -1.2216   -1.0369   -0.2121 N   0  0  0  0  0  0  0  0  0  0  0  0
   -2.0520   -0.4938   -0.4439 H   0  0  0  0  0  0  0  0  0  0  0  0
    0.0669   -0.3301   -0.2318 C   0  0  1  0  0  0  0  0  0  0  0  0
    0.7910   -0.8928    0.3675 H   0  0  0  0  0  0  0  0  0  0  0  0
    0.6258   -0.2111   -1.6650 C   0  0  0  0  0  0  0  0  0  0  0  0
    0.0583    0.5523   -2.2051 H   0  0  0  0  0  0  0  0  0  0  0  0
    1.6664    0.1231   -1.6235 H   0  0  0  0  0  0  0  0  0  0  0  0
    0.5432   -1.4973   -2.4799 C   0  0  0  0  0  0  0  0  0  0  0  0
    1.5771   -2.1202   -2.6512 O   0  0  0  0  0  0  0  0  0  0  0  0
   -0.6419   -1.8489   -3.0367 O   0  0  0  0  0  0  0  0  0  0  0  0
   -0.4664   -2.6715   -3.5186 H   0  0  0  0  0  0  0  0  0  0  0  0
   -0.0622    1.0680    0.4026 C   0  0  0  0  0  0  0  0  0  0  0  0
   -1.0216    1.7773    0.1242 O   0  0  0  0  0  0  0  0  0  0  0  0
    0.8855    1.5243    1.3001 N   0  0  0  0  0  0  0  0  0  0  0  0
    1.6492    0.8987    1.5414 H   0  0  0  0  0  0  0  0  0  0  0  0
    0.8119    2.8301    1.9446 C   0  0  0  0  0  0  0  0  0  0  0  0
   -0.1235    2.9297    2.5056 H   0  0  0  0  0  0  0  0  0  0  0  0
    1.6467    2.9562    2.6407 H   0  0  0  0  0  0  0  0  0  0  0  0
    0.8610    3.6287    1.1968 H   0  0  0  0  0  0  0  0  0  0  0  0
  1  2  1  0  0  0  0
  2  3  1  0  0  0  0
  2  4  1  0  0  0  0
  2  5  1  0  0  0  0
  5  6  2  0  0  0  0
  5  7  1  0  0  0  0
  7  8  1  0  0  0  0
  7  9  1  0  0  0  0
  9 10  1  0  0  0  0
  9 11  1  0  0  0  0
  9 18  1  0  0  0  0
 11 12  1  0  0  0  0
 11 13  1  0  0  0  0
 11 14  1  0  0  0  0
 14 15  2  0  0  0  0
 14 16  1  0  0  0  0
 16 17  1  0  0  0  0
 18 19  2  0  0  0  0
 18 20  1  0  0  0  0
 20 21  1  0  0  0  0
 20 22  1  0  0  0  0
 22 23  1  0  0  0  0
 22 24  1  0  0  0  0
 22 25  1  0  0  0  0
M  END
$$$$

  -OEChem-02102214113D

 25 24  0     1  0  0  0  0  0999 V2000
   -2.7558   -3.9978    0.4100 H   0  0  0  0  0  0  0  0  0  0  0  0
   -2.7890   -2.9474    0.1073 C   0  0  0  0  0  0  0  0  0  0  0  0
   -3.4477   -2.4044    0.7893 H   0  0  0  0  0  0  0  0  0  0  0  0
   -3.1932   -2.8852   -0.9059 H   0  0  0  0  0  0  0  0  0  0  0  0
   -1.3962   -2.3476    0.1448 C   0  0  0  0  0  0  0  0  0  0  0  0
   -0.4475   -3.0272    0.5008 O   0  0  0  0  0  0  0  0  0  0  0  0
   -1.2077   -1.0314   -0.2228 N   0  0  0  0  0  0  0  0  0  0  0  0
   -2.0364   -0.4879   -0.4593 H   0  0  0  0  0  0  0  0  0  0  0  0
    0.0812   -0.3233   -0.2370 C   0  0  1  0  0  0  0  0  0  0  0  0
    0.8076   -0.8873    0.3586 H   0  0  0  0  0  0  0  0  0  0  0  0
    0.6267   -0.2023   -1.6742 C   0  0  0  0  0  0  0  0  0  0  0  0
    0.0577    0.5632   -2.2103 H   0  0  0  0  0  0  0  0  0  0  0  0
    1.6703    0.1239   -1.6454 H   0  0  0  0  0  0  0  0  0  0  0  0
    0.5292   -1.4935   -2.4760 C   0  0  0  0  0  0  0  0  0  0  0  0
    1.4723   -2.2640   -2.4280 O   0  0  0  0  0  0  0  0  0  0  0  0
   -0.5845   -1.7174   -3.2144 O   0  0  0  0  0  0  0  0  0  0  0  0
   -0.4447   -2.5781   -3.6380 H   0  0  0  0  0  0  0  0  0  0  0  0
   -0.0489    1.0751    0.3959 C   0  0  0  0  0  0  0  0  0  0  0  0
   -1.0102    1.7822    0.1181 O   0  0  0  0  0  0  0  0  0  0  0  0
    0.8956    1.5314    1.2964 N   0  0  0  0  0  0  0  0  0  0  0  0
    1.6541    0.9027    1.5461 H   0  0  0  0  0  0  0  0  0  0  0  0
    0.8074    2.8286    1.9563 C   0  0  0  0  0  0  0  0  0  0  0  0
   -0.1035    2.8894    2.5612 H   0  0  0  0  0  0  0  0  0  0  0  0
    1.6697    2.9793    2.6129 H   0  0  0  0  0  0  0  0  0  0  0  0
    0.7928    3.6346    1.2149 H   0  0  0  0  0  0  0  0  0  0  0  0
  1  2  1  0  0  0  0
  2  3  1  0  0  0  0
  2  4  1  0  0  0  0
  2  5  1  0  0  0  0
  5  6  2  0  0  0  0
  5  7  1  0  0  0  0
  7  8  1  0  0  0  0
  7  9  1  0  0  0  0
  9 10  1  0  0  0  0
  9 11  1  0  0  0  0
  9 18  1  0  0  0  0
 11 12  1  0  0  0  0
 11 13  1  0  0  0  0
 11 14  1  0  0  0  0
 14 15  2  0  0  0  0
 14 16  1  0  0  0  0
 16 17  1  0  0  0  0
 18 19  2  0  0  0  0
 18 20  1  0  0  0  0
 20 21  1  0  0  0  0
 20 22  1  0  0  0  0
 22 23  1  0  0  0  0
 22 24  1  0  0  0  0
 22 25  1  0  0  0  0
M  END
$$$$

  -OEChem-02102214113D

 25 24  0     1  0  0  0  0  0999 V2000
   -2.7506   -4.0062    0.4034 H   0  0  0  0  0  0  0  0  0  0  0  0
   -2.7830   -2.9565    0.0983 C   0  0  0  0  0  0  0  0  0  0  0  0
   -3.4480   -2.4132    0.7739 H   0  0  0  0  0  0  0  0  0  0  0  0
   -3.1792   -2.8969   -0.9183 H   0  0  0  0  0  0  0  0  0  0  0  0
   -1.3911   -2.3552    0.1472 C   0  0  0  0  0  0  0  0  0  0  0  0
   -0.4514   -3.0265    0.5404 O   0  0  0  0  0  0  0  0  0  0  0  0
   -1.2005   -1.0395   -0.2232 N   0  0  0  0  0  0  0  0  0  0  0  0
   -2.0277   -0.4969   -0.4675 H   0  0  0  0  0  0  0  0  0  0  0  0
    0.0888   -0.3309   -0.2320 C   0  0  1  0  0  0  0  0  0  0  0  0
    0.8170   -0.8955    0.3606 H   0  0  0  0  0  0  0  0  0  0  0  0
    0.6282   -0.1975   -1.6711 C   0  0  0  0  0  0  0  0  0  0  0  0
    0.0593    0.5759   -2.1962 H   0  0  0  0  0  0  0  0  0  0  0  0
    1.6723    0.1253   -1.6442 H   0  0  0  0  0  0  0  0  0  0  0  0
    0.5294   -1.4783   -2.4879 C   0  0  0  0  0  0  0  0  0  0  0  0
    1.3227   -2.3721   -2.2511 O   0  0  0  0  0  0  0  0  0  0  0  0
   -0.4372   -1.5655   -3.4322 O   0  0  0  0  0  0  0  0  0  0  0  0
   -0.3327   -2.4429   -3.8309 H   0  0  0  0  0  0  0  0  0  0  0  0
   -0.0469    1.0688    0.3976 C   0  0  0  0  0  0  0  0  0  0  0  0
   -1.0035    1.7775    0.1075 O   0  0  0  0  0  0  0  0  0  0  0  0
    0.8919    1.5279    1.3030 N   0  0  0  0  0  0  0  0  0  0  0  0
    1.6477    0.8992    1.5607 H   0  0  0  0  0  0  0  0  0  0  0  0
    0.8074    2.8323    1.9493 C   0  0  0  0  0  0  0  0  0  0  0  0
   -0.1216    2.9173    2.5228 H   0  0  0  0  0  0  0  0  0  0  0  0
    1.6497    2.9711    2.6339 H   0  0  0  0  0  0  0  0  0  0  0  0
    0.8342    3.6321    1.2017 H   0  0  0  0  0  0  0  0  0  0  0  0
  1  2  1  0  0  0  0
  2  3  1  0  0  0  0
  2  4  1  0  0  0  0
  2  5  1  0  0  0  0
  5  6  2  0  0  0  0
  5  7  1  0  0  0  0
  7  8  1  0  0  0  0
  7  9  1  0  0  0  0
  9 10  1  0  0  0  0
  9 11  1  0  0  0  0
  9 18  1  0  0  0  0
 11 12  1  0  0  0  0
 11 13  1  0  0  0  0
 11 14  1  0  0  0  0
 14 15  2  0  0  0  0
 14 16  1  0  0  0  0
 16 17  1  0  0  0  0
 18 19  2  0  0  0  0
 18 20  1  0  0  0  0
 20 21  1  0  0  0  0
 20 22  1  0  0  0  0
 22 23  1  0  0  0  0
 22 24  1  0  0  0  0
 22 25  1  0  0  0  0
M  END
$$$$

  -OEChem-02102214113D

 25 24  0     1  0  0  0  0  0999 V2000
   -2.7481   -4.0126    0.3977 H   0  0  0  0  0  0  0  0  0  0  0  0
   -2.7772   -2.9650    0.0855 C   0  0  0  0  0  0  0  0  0  0  0  0
   -3.4691   -2.4223    0.7340 H   0  0  0  0  0  0  0  0  0  0  0  0
   -3.1380   -2.9148   -0.9446 H   0  0  0  0  0  0  0  0  0  0  0  0
   -1.3921   -2.3536    0.1792 C   0  0  0  0  0  0  0  0  0  0  0  0
   -0.4705   -3.0049    0.6428 O   0  0  0  0  0  0  0  0  0  0  0  0
   -1.1975   -1.0421   -0.2057 N   0  0  0  0  0  0  0  0  0  0  0  0
   -2.0198   -0.5075   -0.4808 H   0  0  0  0  0  0  0  0  0  0  0  0
    0.0943   -0.3379   -0.2224 C   0  0  1  0  0  0  0  0  0  0  0  0
    0.8247   -0.9000    0.3701 H   0  0  0  0  0  0  0  0  0  0  0  0
    0.6273   -0.2040   -1.6662 C   0  0  0  0  0  0  0  0  0  0  0  0
    0.0572    0.5744   -2.1831 H   0  0  0  0  0  0  0  0  0  0  0  0
    1.6719    0.1169   -1.6430 H   0  0  0  0  0  0  0  0  0  0  0  0
    0.5283   -1.4741   -2.5010 C   0  0  0  0  0  0  0  0  0  0  0  0
    1.1157   -2.4701   -2.1183 O   0  0  0  0  0  0  0  0  0  0  0  0
   -0.2150   -1.4335   -3.6315 O   0  0  0  0  0  0  0  0  0  0  0  0
   -0.1524   -2.3204   -4.0177 H   0  0  0  0  0  0  0  0  0  0  0  0
   -0.0409    1.0678    0.3939 C   0  0  0  0  0  0  0  0  0  0  0  0
   -0.9954    1.7764    0.0961 O   0  0  0  0  0  0  0  0  0  0  0  0
    0.8992    1.5319    1.2951 N   0  0  0  0  0  0  0  0  0  0  0  0
    1.6466    0.8985    1.5656 H   0  0  0  0  0  0  0  0  0  0  0  0
    0.8087    2.8340    1.9443 C   0  0  0  0  0  0  0  0  0  0  0  0
   -0.1157    2.9088    2.5267 H   0  0  0  0  0  0  0  0  0  0  0  0
    1.6564    2.9789    2.6209 H   0  0  0  0  0  0  0  0  0  0  0  0
    0.8212    3.6356    1.1982 H   0  0  0  0  0  0  0  0  0  0  0  0
  1  2  1  0  0  0  0
  2  3  1  0  0  0  0
  2  4  1  0  0  0  0
  2  5  1  0  0  0  0
  5  6  2  0  0  0  0
  5  7  1  0  0  0  0
  7  8  1  0  0  0  0
  7  9  1  0  0  0  0
  9 10  1  0  0  0  0
  9 11  1  0  0  0  0
  9 18  1  0  0  0  0
 11 12  1  0  0  0  0
 11 13  1  0  0  0  0
 11 14  1  0  0  0  0
 14 15  2  0  0  0  0
 14 16  1  0  0  0  0
 16 17  1  0  0  0  0
 18 19  2  0  0  0  0
 18 20  1  0  0  0  0
 20 21  1  0  0  0  0
 20 22  1  0  0  0  0
 22 23  1  0  0  0  0
 22 24  1  0  0  0  0
 22 25  1  0  0  0  0
M  END
$$$$

  -OEChem-02102214113D

 25 24  0     1  0  0  0  0  0999 V2000
   -2.7481   -4.0233    0.4122 H   0  0  0  0  0  0  0  0  0  0  0  0
   -2.7752   -2.9822    0.0787 C   0  0  0  0  0  0  0  0  0  0  0  0
   -3.5021   -2.4355    0.6842 H   0  0  0  0  0  0  0  0  0  0  0  0
   -3.0883   -2.9564   -0.9678 H   0  0  0  0  0  0  0  0  0  0  0  0
   -1.4029   -2.3521    0.2232 C   0  0  0  0  0  0  0  0  0  0  0  0
   -0.5012   -2.9763    0.7589 O   0  0  0  0  0  0  0  0  0  0  0  0
   -1.2056   -1.0455   -0.1787 N   0  0  0  0  0  0  0  0  0  0  0  0
   -2.0190   -0.5266   -0.5048 H   0  0  0  0  0  0  0  0  0  0  0  0
    0.0908   -0.3498   -0.2049 C   0  0  1  0  0  0  0  0  0  0  0  0
    0.8213   -0.9106    0.3886 H   0  0  0  0  0  0  0  0  0  0  0  0
    0.6217   -0.2175   -1.6524 C   0  0  0  0  0  0  0  0  0  0  0  0
    0.0528    0.5675   -2.1605 H   0  0  0  0  0  0  0  0  0  0  0  0
    1.6663    0.1029   -1.6267 H   0  0  0  0  0  0  0  0  0  0  0  0
    0.5276   -1.4691   -2.5186 C   0  0  0  0  0  0  0  0  0  0  0  0
    0.8644   -2.5442   -2.0566 O   0  0  0  0  0  0  0  0  0  0  0  0
    0.0772   -1.3126   -3.7850 O   0  0  0  0  0  0  0  0  0  0  0  0
    0.0982   -2.1963   -4.1828 H   0  0  0  0  0  0  0  0  0  0  0  0
   -0.0377    1.0636    0.3965 C   0  0  0  0  0  0  0  0  0  0  0  0
   -0.9829    1.7784    0.0833 O   0  0  0  0  0  0  0  0  0  0  0  0
    0.9052    1.5326    1.2923 N   0  0  0  0  0  0  0  0  0  0  0  0
    1.6356    0.8901    1.5865 H   0  0  0  0  0  0  0  0  0  0  0  0
    0.8198    2.8411    1.9294 C   0  0  0  0  0  0  0  0  0  0  0  0
   -0.0908    2.9147    2.5334 H   0  0  0  0  0  0  0  0  0  0  0  0
    1.6828    3.0006    2.5830 H   0  0  0  0  0  0  0  0  0  0  0  0
    0.8072    3.6351    1.1752 H   0  0  0  0  0  0  0  0  0  0  0  0
  1  2  1  0  0  0  0
  2  3  1  0  0  0  0
  2  4  1  0  0  0  0
  2  5  1  0  0  0  0
  5  6  2  0  0  0  0
  5  7  1  0  0  0  0
  7  8  1  0  0  0  0
  7  9  1  0  0  0  0
  9 10  1  0  0  0  0
  9 11  1  0  0  0  0
  9 18  1  0  0  0  0
 11 12  1  0  0  0  0
 11 13  1  0  0  0  0
 11 14  1  0  0  0  0
 14 15  2  0  0  0  0
 14 16  1  0  0  0  0
 16 17  1  0  0  0  0
 18 19  2  0  0  0  0
 18 20  1  0  0  0  0
 20 21  1  0  0  0  0
 20 22  1  0  0  0  0
 22 23  1  0  0  0  0
 22 24  1  0  0  0  0
 22 25  1  0  0  0  0
M  END
$$$$

  -OEChem-02102214113D

 25 24  0     1  0  0  0  0  0999 V2000
   -2.7567   -4.0255    0.4483 H   0  0  0  0  0  0  0  0  0  0  0  0
   -2.7815   -2.9912    0.0940 C   0  0  0  0  0  0  0  0  0  0  0  0
   -3.5272   -2.4380    0.6698 H   0  0  0  0  0  0  0  0  0  0  0  0
   -3.0668   -2.9881   -0.9607 H   0  0  0  0  0  0  0  0  0  0  0  0
   -1.4172   -2.3499    0.2616 C   0  0  0  0  0  0  0  0  0  0  0  0
   -0.5283   -2.9556    0.8397 O   0  0  0  0  0  0  0  0  0  0  0  0
   -1.2162   -1.0486   -0.1562 N   0  0  0  0  0  0  0  0  0  0  0  0
   -2.0208   -0.5435   -0.5222 H   0  0  0  0  0  0  0  0  0  0  0  0
    0.0854   -0.3637   -0.1938 C   0  0  1  0  0  0  0  0  0  0  0  0
    0.8137   -0.9237    0.4028 H   0  0  0  0  0  0  0  0  0  0  0  0
    0.6219   -0.2338   -1.6426 C   0  0  0  0  0  0  0  0  0  0  0  0
    0.0579    0.5580   -2.1455 H   0  0  0  0  0  0  0  0  0  0  0  0
    1.6662    0.0857   -1.6075 H   0  0  0  0  0  0  0  0  0  0  0  0
    0.5388   -1.4638   -2.5441 C   0  0  0  0  0  0  0  0  0  0  0  0
    0.6005   -2.5836   -2.0704 O   0  0  0  0  0  0  0  0  0  0  0  0
    0.4188   -1.2279   -3.8712 O   0  0  0  0  0  0  0  0  0  0  0  0
    0.3960   -2.1003   -4.2937 H   0  0  0  0  0  0  0  0  0  0  0  0
   -0.0382    1.0561    0.3950 C   0  0  0  0  0  0  0  0  0  0  0  0
   -0.9753    1.7759    0.0694 O   0  0  0  0  0  0  0  0  0  0  0  0
    0.9076    1.5298    1.2856 N   0  0  0  0  0  0  0  0  0  0  0  0
    1.6268    0.8822    1.5958 H   0  0  0  0  0  0  0  0  0  0  0  0
    0.8247    2.8430    1.9142 C   0  0  0  0  0  0  0  0  0  0  0  0
   -0.0854    2.9223    2.5181 H   0  0  0  0  0  0  0  0  0  0  0  0
    1.6882    3.0054    2.5664 H   0  0  0  0  0  0  0  0  0  0  0  0
    0.8135    3.6316    1.1543 H   0  0  0  0  0  0  0  0  0  0  0  0
  1  2  1  0  0  0  0
  2  3  1  0  0  0  0
  2  4  1  0  0  0  0
  2  5  1  0  0  0  0
  5  6  2  0  0  0  0
  5  7  1  0  0  0  0
  7  8  1  0  0  0  0
  7  9  1  0  0  0  0
  9 10  1  0  0  0  0
  9 11  1  0  0  0  0
  9 18  1  0  0  0  0
 11 12  1  0  0  0  0
 11 13  1  0  0  0  0
 11 14  1  0  0  0  0
 14 15  2  0  0  0  0
 14 16  1  0  0  0  0
 16 17  1  0  0  0  0
 18 19  2  0  0  0  0
 18 20  1  0  0  0  0
 20 21  1  0  0  0  0
 20 22  1  0  0  0  0
 22 23  1  0  0  0  0
 22 24  1  0  0  0  0
 22 25  1  0  0  0  0
M  END
$$$$

  -OEChem-02102214113D

 25 24  0     1  0  0  0  0  0999 V2000
   -2.7745   -4.0227    0.4846 H   0  0  0  0  0  0  0  0  0  0  0  0
   -2.7960   -2.9937    0.1150 C   0  0  0  0  0  0  0  0  0  0  0  0
   -3.5478   -2.4319    0.6742 H   0  0  0  0  0  0  0  0  0  0  0  0
   -3.0700   -3.0057   -0.9426 H   0  0  0  0  0  0  0  0  0  0  0  0
   -1.4334   -2.3500    0.2865 C   0  0  0  0  0  0  0  0  0  0  0  0
   -0.5451   -2.9519    0.8708 O   0  0  0  0  0  0  0  0  0  0  0  0
   -1.2297   -1.0518   -0.1405 N   0  0  0  0  0  0  0  0  0  0  0  0
   -2.0298   -0.5519   -0.5224 H   0  0  0  0  0  0  0  0  0  0  0  0
    0.0761   -0.3760   -0.1875 C   0  0  1  0  0  0  0  0  0  0  0  0
    0.8005   -0.9355    0.4140 H   0  0  0  0  0  0  0  0  0  0  0  0
    0.6260   -0.2482   -1.6340 C   0  0  0  0  0  0  0  0  0  0  0  0
    0.0697    0.5488   -2.1372 H   0  0  0  0  0  0  0  0  0  0  0  0
    1.6700    0.0706   -1.5825 H   0  0  0  0  0  0  0  0  0  0  0  0
    0.5597   -1.4588   -2.5659 C   0  0  0  0  0  0  0  0  0  0  0  0
    0.3446   -2.5788   -2.1407 O   0  0  0  0  0  0  0  0  0  0  0  0
    0.7744   -1.1976   -3.8759 O   0  0  0  0  0  0  0  0  0  0  0  0
    0.7154   -2.0528   -4.3290 H   0  0  0  0  0  0  0  0  0  0  0  0
   -0.0431    1.0471    0.3953 C   0  0  0  0  0  0  0  0  0  0  0  0
   -0.9747    1.7709    0.0623 O   0  0  0  0  0  0  0  0  0  0  0  0
    0.9056    1.5232    1.2815 N   0  0  0  0  0  0  0  0  0  0  0  0
    1.6191    0.8735    1.5998 H   0  0  0  0  0  0  0  0  0  0  0  0
    0.8302    2.8425    1.8979 C   0  0  0  0  0  0  0  0  0  0  0  0
   -0.0791    2.9321    2.5018 H   0  0  0  0  0  0  0  0  0  0  0  0
    1.6953    3.0071    2.5476 H   0  0  0  0  0  0  0  0  0  0  0  0
    0.8221    3.6237    1.1304 H   0  0  0  0  0  0  0  0  0  0  0  0
  1  2  1  0  0  0  0
  2  3  1  0  0  0  0
  2  4  1  0  0  0  0
  2  5  1  0  0  0  0
  5  6  2  0  0  0  0
  5  7  1  0  0  0  0
  7  8  1  0  0  0  0
  7  9  1  0  0  0  0
  9 10  1  0  0  0  0
  9 11  1  0  0  0  0
  9 18  1  0  0  0  0
 11 12  1  0  0  0  0
 11 13  1  0  0  0  0
 11 14  1  0  0  0  0
 14 15  2  0  0  0  0
 14 16  1  0  0  0  0
 16 17  1  0  0  0  0
 18 19  2  0  0  0  0
 18 20  1  0  0  0  0
 20 21  1  0  0  0  0
 20 22  1  0  0  0  0
 22 23  1  0  0  0  0
 22 24  1  0  0  0  0
 22 25  1  0  0  0  0
M  END
$$$$

  -OEChem-02102214113D

 25 24  0     1  0  0  0  0  0999 V2000
   -2.7921   -4.0165    0.5165 H   0  0  0  0  0  0  0  0  0  0  0  0
   -2.8090   -2.9944    0.1282 C   0  0  0  0  0  0  0  0  0  0  0  0
   -3.5655   -2.4223    0.6703 H   0  0  0  0  0  0  0  0  0  0  0  0
   -3.0730   -3.0260   -0.9316 H   0  0  0  0  0  0  0  0  0  0  0  0
   -1.4470   -2.3490    0.2996 C   0  0  0  0  0  0  0  0  0  0  0  0
   -0.5536   -2.9537    0.8741 O   0  0  0  0  0  0  0  0  0  0  0  0
   -1.2430   -1.0518   -0.1307 N   0  0  0  0  0  0  0  0  0  0  0  0
   -2.0405   -0.5578   -0.5248 H   0  0  0  0  0  0  0  0  0  0  0  0
    0.0648   -0.3808   -0.1848 C   0  0  1  0  0  0  0  0  0  0  0  0
    0.7860   -0.9400    0.4205 H   0  0  0  0  0  0  0  0  0  0  0  0
    0.6281   -0.2559   -1.6278 C   0  0  0  0  0  0  0  0  0  0  0  0
    0.0805    0.5442   -2.1349 H   0  0  0  0  0  0  0  0  0  0  0  0
    1.6719    0.0614   -1.5596 H   0  0  0  0  0  0  0  0  0  0  0  0
    0.5778   -1.4558   -2.5773 C   0  0  0  0  0  0  0  0  0  0  0  0
    0.1059   -2.5275   -2.2448 O   0  0  0  0  0  0  0  0  0  0  0  0
    1.1041   -1.2351   -3.8039 O   0  0  0  0  0  0  0  0  0  0  0  0
    1.0121   -2.0721   -4.2846 H   0  0  0  0  0  0  0  0  0  0  0  0
   -0.0485    1.0436    0.3964 C   0  0  0  0  0  0  0  0  0  0  0  0
   -0.9770    1.7710    0.0632 O   0  0  0  0  0  0  0  0  0  0  0  0
    0.9051    1.5186    1.2779 N   0  0  0  0  0  0  0  0  0  0  0  0
    1.6181    0.8676    1.5949 H   0  0  0  0  0  0  0  0  0  0  0  0
    0.8378    2.8406    1.8891 C   0  0  0  0  0  0  0  0  0  0  0  0
   -0.0639    2.9332    2.5034 H   0  0  0  0  0  0  0  0  0  0  0  0
    1.7108    3.0074    2.5272 H   0  0  0  0  0  0  0  0  0  0  0  0
    0.8208    3.6190    1.1191 H   0  0  0  0  0  0  0  0  0  0  0  0
  1  2  1  0  0  0  0
  2  3  1  0  0  0  0
  2  4  1  0  0  0  0
  2  5  1  0  0  0  0
  5  6  2  0  0  0  0
  5  7  1  0  0  0  0
  7  8  1  0  0  0  0
  7  9  1  0  0  0  0
  9 10  1  0  0  0  0
  9 11  1  0  0  0  0
  9 18  1  0  0  0  0
 11 12  1  0  0  0  0
 11 13  1  0  0  0  0
 11 14  1  0  0  0  0
 14 15  2  0  0  0  0
 14 16  1  0  0  0  0
 16 17  1  0  0  0  0
 18 19  2  0  0  0  0
 18 20  1  0  0  0  0
 20 21  1  0  0  0  0
 20 22  1  0  0  0  0
 22 23  1  0  0  0  0
 22 24  1  0  0  0  0
 22 25  1  0  0  0  0
M  END
$$$$

  -OEChem-02102214113D

 25 24  0     1  0  0  0  0  0999 V2000
   -2.7990   -4.0114    0.5255 H   0  0  0  0  0  0  0  0  0  0  0  0
   -2.8158   -2.9902    0.1349 C   0  0  0  0  0  0  0  0  0  0  0  0
   -3.5670   -2.4145    0.6806 H   0  0  0  0  0  0  0  0  0  0  0  0
   -3.0866   -3.0229   -0.9232 H   0  0  0  0  0  0  0  0  0  0  0  0
   -1.4514   -2.3474    0.2953 C   0  0  0  0  0  0  0  0  0  0  0  0
   -0.5468   -2.9623    0.8412 O   0  0  0  0  0  0  0  0  0  0  0  0
   -1.2507   -1.0485   -0.1309 N   0  0  0  0  0  0  0  0  0  0  0  0
   -2.0487   -0.5565   -0.5264 H   0  0  0  0  0  0  0  0  0  0  0  0
    0.0567   -0.3785   -0.1874 C   0  0  1  0  0  0  0  0  0  0  0  0
    0.7756   -0.9376    0.4206 H   0  0  0  0  0  0  0  0  0  0  0  0
    0.6306   -0.2572   -1.6265 C   0  0  0  0  0  0  0  0  0  0  0  0
    0.0903    0.5439   -2.1398 H   0  0  0  0  0  0  0  0  0  0  0  0
    1.6742    0.0586   -1.5459 H   0  0  0  0  0  0  0  0  0  0  0  0
    0.5901   -1.4573   -2.5784 C   0  0  0  0  0  0  0  0  0  0  0  0
   -0.1062   -2.4342   -2.3681 O   0  0  0  0  0  0  0  0  0  0  0  0
    1.3855   -1.3447   -3.6672 O   0  0  0  0  0  0  0  0  0  0  0  0
    1.2654   -2.1664   -4.1676 H   0  0  0  0  0  0  0  0  0  0  0  0
   -0.0539    1.0441    0.3989 C   0  0  0  0  0  0  0  0  0  0  0  0
   -0.9813    1.7741    0.0683 O   0  0  0  0  0  0  0  0  0  0  0  0
    0.9026    1.5164    1.2788 N   0  0  0  0  0  0  0  0  0  0  0  0
    1.6200    0.8665    1.5876 H   0  0  0  0  0  0  0  0  0  0  0  0
    0.8398    2.8382    1.8913 C   0  0  0  0  0  0  0  0  0  0  0  0
   -0.0607    2.9333    2.5073 H   0  0  0  0  0  0  0  0  0  0  0  0
    1.7142    3.0018    2.5286 H   0  0  0  0  0  0  0  0  0  0  0  0
    0.8240    3.6172    1.1217 H   0  0  0  0  0  0  0  0  0  0  0  0
  1  2  1  0  0  0  0
  2  3  1  0  0  0  0
  2  4  1  0  0  0  0
  2  5  1  0  0  0  0
  5  6  2  0  0  0  0
  5  7  1  0  0  0  0
  7  8  1  0  0  0  0
  7  9  1  0  0  0  0
  9 10  1  0  0  0  0
  9 11  1  0  0  0  0
  9 18  1  0  0  0  0
 11 12  1  0  0  0  0
 11 13  1  0  0  0  0
 11 14  1  0  0  0  0
 14 15  2  0  0  0  0
 14 16  1  0  0  0  0
 16 17  1  0  0  0  0
 18 19  2  0  0  0  0
 18 20  1  0  0  0  0
 20 21  1  0  0  0  0
 20 22  1  0  0  0  0
 22 23  1  0  0  0  0
 22 24  1  0  0  0  0
 22 25  1  0  0  0  0
M  END
$$$$

  -OEChem-02102214113D

 25 24  0     1  0  0  0  0  0999 V2000
   -2.7894   -4.0147    0.5013 H   0  0  0  0  0  0  0  0  0  0  0  0
   -2.8155   -2.9850    0.1346 C   0  0  0  0  0  0  0  0  0  0  0  0
   -3.5510   -2.4216    0.7135 H   0  0  0  0  0  0  0  0  0  0  0  0
   -3.1152   -2.9933   -0.9162 H   0  0  0  0  0  0  0  0  0  0  0  0
   -1.4465   -2.3468    0.2727 C   0  0  0  0  0  0  0  0  0  0  0  0
   -0.5285   -2.9735    0.7818 O   0  0  0  0  0  0  0  0  0  0  0  0
   -1.2523   -1.0437   -0.1426 N   0  0  0  0  0  0  0  0  0  0  0  0
   -2.0540   -0.5501   -0.5292 H   0  0  0  0  0  0  0  0  0  0  0  0
    0.0516   -0.3682   -0.1956 C   0  0  1  0  0  0  0  0  0  0  0  0
    0.7699   -0.9275    0.4128 H   0  0  0  0  0  0  0  0  0  0  0  0
    0.6335   -0.2479   -1.6304 C   0  0  0  0  0  0  0  0  0  0  0  0
    0.0942    0.5484   -2.1517 H   0  0  0  0  0  0  0  0  0  0  0  0
    1.6752    0.0730   -1.5448 H   0  0  0  0  0  0  0  0  0  0  0  0
    0.5971   -1.4593   -2.5682 C   0  0  0  0  0  0  0  0  0  0  0  0
   -0.2793   -2.3037   -2.5011 O   0  0  0  0  0  0  0  0  0  0  0  0
    1.6042   -1.5167   -3.4703 O   0  0  0  0  0  0  0  0  0  0  0  0
    1.4579   -2.3303   -3.9770 H   0  0  0  0  0  0  0  0  0  0  0  0
   -0.0598    1.0492    0.4015 C   0  0  0  0  0  0  0  0  0  0  0  0
   -0.9881    1.7808    0.0777 O   0  0  0  0  0  0  0  0  0  0  0  0
    0.8983    1.5161    1.2825 N   0  0  0  0  0  0  0  0  0  0  0  0
    1.6181    0.8654    1.5840 H   0  0  0  0  0  0  0  0  0  0  0  0
    0.8387    2.8356    1.9002 C   0  0  0  0  0  0  0  0  0  0  0  0
   -0.0689    2.9350    2.5050 H   0  0  0  0  0  0  0  0  0  0  0  0
    1.7062    2.9894    2.5493 H   0  0  0  0  0  0  0  0  0  0  0  0
    0.8388    3.6180    1.1338 H   0  0  0  0  0  0  0  0  0  0  0  0
  1  2  1  0  0  0  0
  2  3  1  0  0  0  0
  2  4  1  0  0  0  0
  2  5  1  0  0  0  0
  5  6  2  0  0  0  0
  5  7  1  0  0  0  0
  7  8  1  0  0  0  0
  7  9  1  0  0  0  0
  9 10  1  0  0  0  0
  9 11  1  0  0  0  0
  9 18  1  0  0  0  0
 11 12  1  0  0  0  0
 11 13  1  0  0  0  0
 11 14  1  0  0  0  0
 14 15  2  0  0  0  0
 14 16  1  0  0  0  0
 16 17  1  0  0  0  0
 18 19  2  0  0  0  0
 18 20  1  0  0  0  0
 20 21  1  0  0  0  0
 20 22  1  0  0  0  0
 22 23  1  0  0  0  0
 22 24  1  0  0  0  0
 22 25  1  0  0  0  0
M  END
$$$$

  -OEChem-02102214113D

 25 24  0     1  0  0  0  0  0999 V2000
   -2.7697   -4.0145    0.4742 H   0  0  0  0  0  0  0  0  0  0  0  0
   -2.8017   -2.9808    0.1193 C   0  0  0  0  0  0  0  0  0  0  0  0
   -3.5280   -2.4241    0.7159 H   0  0  0  0  0  0  0  0  0  0  0  0
   -3.1180   -2.9772   -0.9268 H   0  0  0  0  0  0  0  0  0  0  0  0
   -1.4313   -2.3433    0.2426 C   0  0  0  0  0  0  0  0  0  0  0  0
   -0.5001   -2.9808    0.7123 O   0  0  0  0  0  0  0  0  0  0  0  0
   -1.2444   -1.0355   -0.1596 N   0  0  0  0  0  0  0  0  0  0  0  0
   -2.0514   -0.5381   -0.5305 H   0  0  0  0  0  0  0  0  0  0  0  0
    0.0548   -0.3517   -0.2049 C   0  0  1  0  0  0  0  0  0  0  0  0
    0.7731   -0.9104    0.4041 H   0  0  0  0  0  0  0  0  0  0  0  0
    0.6365   -0.2348   -1.6382 C   0  0  0  0  0  0  0  0  0  0  0  0
    0.0937    0.5531   -2.1685 H   0  0  0  0  0  0  0  0  0  0  0  0
    1.6777    0.0898   -1.5586 H   0  0  0  0  0  0  0  0  0  0  0  0
    0.5927   -1.4684   -2.5450 C   0  0  0  0  0  0  0  0  0  0  0  0
   -0.4122   -2.1539   -2.6357 O   0  0  0  0  0  0  0  0  0  0  0  0
    1.7315   -1.7366   -3.2254 O   0  0  0  0  0  0  0  0  0  0  0  0
    1.5519   -2.5440   -3.7313 H   0  0  0  0  0  0  0  0  0  0  0  0
   -0.0609    1.0600    0.4035 C   0  0  0  0  0  0  0  0  0  0  0  0
   -0.9951    1.7883    0.0899 O   0  0  0  0  0  0  0  0  0  0  0  0
    0.8958    1.5230    1.2883 N   0  0  0  0  0  0  0  0  0  0  0  0
    1.6239    0.8756    1.5769 H   0  0  0  0  0  0  0  0  0  0  0  0
    0.8309    2.8361    1.9188 C   0  0  0  0  0  0  0  0  0  0  0  0
   -0.0794    2.9275    2.5206 H   0  0  0  0  0  0  0  0  0  0  0  0
    1.6951    2.9846    2.5734 H   0  0  0  0  0  0  0  0  0  0  0  0
    0.8330    3.6259    1.1602 H   0  0  0  0  0  0  0  0  0  0  0  0
  1  2  1  0  0  0  0
  2  3  1  0  0  0  0
  2  4  1  0  0  0  0
  2  5  1  0  0  0  0
  5  6  2  0  0  0  0
  5  7  1  0  0  0  0
  7  8  1  0  0  0  0
  7  9  1  0  0  0  0
  9 10  1  0  0  0  0
  9 11  1  0  0  0  0
  9 18  1  0  0  0  0
 11 12  1  0  0  0  0
 11 13  1  0  0  0  0
 11 14  1  0  0  0  0
 14 15  2  0  0  0  0
 14 16  1  0  0  0  0
 16 17  1  0  0  0  0
 18 19  2  0  0  0  0
 18 20  1  0  0  0  0
 20 21  1  0  0  0  0
 20 22  1  0  0  0  0
 22 23  1  0  0  0  0
 22 24  1  0  0  0  0
 22 25  1  0  0  0  0
M  END
$$$$

  -OEChem-02102214113D

 25 24  0     1  0  0  0  0  0999 V2000
   -2.7474   -4.0210    0.4304 H   0  0  0  0  0  0  0  0  0  0  0  0
   -2.7860   -2.9801    0.0981 C   0  0  0  0  0  0  0  0  0  0  0  0
   -3.4976   -2.4354    0.7229 H   0  0  0  0  0  0  0  0  0  0  0  0
   -3.1275   -2.9542   -0.9398 H   0  0  0  0  0  0  0  0  0  0  0  0
   -1.4120   -2.3461    0.2027 C   0  0  0  0  0  0  0  0  0  0  0  0
   -0.4680   -2.9961    0.6274 O   0  0  0  0  0  0  0  0  0  0  0  0
   -1.2315   -1.0327   -0.1823 N   0  0  0  0  0  0  0  0  0  0  0  0
   -2.0470   -0.5263   -0.5222 H   0  0  0  0  0  0  0  0  0  0  0  0
    0.0607   -0.3347   -0.2143 C   0  0  1  0  0  0  0  0  0  0  0  0
    0.7811   -0.8932    0.3927 H   0  0  0  0  0  0  0  0  0  0  0  0
    0.6385   -0.2183   -1.6454 C   0  0  0  0  0  0  0  0  0  0  0  0
    0.0865    0.5573   -2.1843 H   0  0  0  0  0  0  0  0  0  0  0  0
    1.6784    0.1124   -1.5786 H   0  0  0  0  0  0  0  0  0  0  0  0
    0.5848   -1.4780   -2.5104 C   0  0  0  0  0  0  0  0  0  0  0  0
   -0.4861   -1.9994   -2.7782 O   0  0  0  0  0  0  0  0  0  0  0  0
    1.7739   -1.9637   -2.9372 O   0  0  0  0  0  0  0  0  0  0  0  0
    1.5666   -2.7689   -3.4360 H   0  0  0  0  0  0  0  0  0  0  0  0
   -0.0612    1.0707    0.4069 C   0  0  0  0  0  0  0  0  0  0  0  0
   -1.0036    1.7935    0.1060 O   0  0  0  0  0  0  0  0  0  0  0  0
    0.8916    1.5305    1.2973 N   0  0  0  0  0  0  0  0  0  0  0  0
    1.6358    0.8923    1.5644 H   0  0  0  0  0  0  0  0  0  0  0  0
    0.8240    2.8406    1.9337 C   0  0  0  0  0  0  0  0  0  0  0  0
   -0.0902    2.9303    2.5298 H   0  0  0  0  0  0  0  0  0  0  0  0
    1.6838    2.9852    2.5949 H   0  0  0  0  0  0  0  0  0  0  0  0
    0.8318    3.6344    1.1792 H   0  0  0  0  0  0  0  0  0  0  0  0
  1  2  1  0  0  0  0
  2  3  1  0  0  0  0
  2  4  1  0  0  0  0
  2  5  1  0  0  0  0
  5  6  2  0  0  0  0
  5  7  1  0  0  0  0
  7  8  1  0  0  0  0
  7  9  1  0  0  0  0
  9 10  1  0  0  0  0
  9 11  1  0  0  0  0
  9 18  1  0  0  0  0
 11 12  1  0  0  0  0
 11 13  1  0  0  0  0
 11 14  1  0  0  0  0
 14 15  2  0  0  0  0
 14 16  1  0  0  0  0
 16 17  1  0  0  0  0
 18 19  2  0  0  0  0
 18 20  1  0  0  0  0
 20 21  1  0  0  0  0
 20 22  1  0  0  0  0
 22 23  1  0  0  0  0
 22 24  1  0  0  0  0
 22 25  1  0  0  0  0
M  END
$$$$

  -OEChem-02102214113D

 25 24  0     1  0  0  0  0  0999 V2000
   -2.7245   -4.0171    0.4047 H   0  0  0  0  0  0  0  0  0  0  0  0
   -2.7672   -2.9723    0.0854 C   0  0  0  0  0  0  0  0  0  0  0  0
   -3.4595   -2.4319    0.7353 H   0  0  0  0  0  0  0  0  0  0  0  0
   -3.1359   -2.9327   -0.9427 H   0  0  0  0  0  0  0  0  0  0  0  0
   -1.3880   -2.3457    0.1616 C   0  0  0  0  0  0  0  0  0  0  0  0
   -0.4342   -3.0072    0.5432 O   0  0  0  0  0  0  0  0  0  0  0  0
   -1.2117   -1.0285   -0.2103 N   0  0  0  0  0  0  0  0  0  0  0  0
   -2.0359   -0.5104   -0.5100 H   0  0  0  0  0  0  0  0  0  0  0  0
    0.0750   -0.3189   -0.2292 C   0  0  1  0  0  0  0  0  0  0  0  0
    0.7976   -0.8769    0.3760 H   0  0  0  0  0  0  0  0  0  0  0  0
    0.6442   -0.2057   -1.6608 C   0  0  0  0  0  0  0  0  0  0  0  0
    0.0865    0.5607   -2.2077 H   0  0  0  0  0  0  0  0  0  0  0  0
    1.6858    0.1225   -1.6105 H   0  0  0  0  0  0  0  0  0  0  0  0
    0.5729   -1.4932   -2.4768 C   0  0  0  0  0  0  0  0  0  0  0  0
   -0.4982   -1.8595   -2.9355 O   0  0  0  0  0  0  0  0  0  0  0  0
    1.7281   -2.1798   -2.6365 O   0  0  0  0  0  0  0  0  0  0  0  0
    1.4925   -2.9837   -3.1242 H   0  0  0  0  0  0  0  0  0  0  0  0
   -0.0558    1.0811    0.4012 C   0  0  0  0  0  0  0  0  0  0  0  0
   -1.0080    1.7955    0.1120 O   0  0  0  0  0  0  0  0  0  0  0  0
    0.8909    1.5396    1.2986 N   0  0  0  0  0  0  0  0  0  0  0  0
    1.6458    0.9088    1.5530 H   0  0  0  0  0  0  0  0  0  0  0  0
    0.8077    2.8405    1.9519 C   0  0  0  0  0  0  0  0  0  0  0  0
   -0.1176    2.9193    2.5323 H   0  0  0  0  0  0  0  0  0  0  0  0
    1.6545    2.9780    2.6312 H   0  0  0  0  0  0  0  0  0  0  0  0
    0.8270    3.6447    1.2088 H   0  0  0  0  0  0  0  0  0  0  0  0
  1  2  1  0  0  0  0
  2  3  1  0  0  0  0
  2  4  1  0  0  0  0
  2  5  1  0  0  0  0
  5  6  2  0  0  0  0
  5  7  1  0  0  0  0
  7  8  1  0  0  0  0
  7  9  1  0  0  0  0
  9 10  1  0  0  0  0
  9 11  1  0  0  0  0
  9 18  1  0  0  0  0
 11 12  1  0  0  0  0
 11 13  1  0  0  0  0
 11 14  1  0  0  0  0
 14 15  2  0  0  0  0
 14 16  1  0  0  0  0
 16 17  1  0  0  0  0
 18 19  2  0  0  0  0
 18 20  1  0  0  0  0
 20 21  1  0  0  0  0
 20 22  1  0  0  0  0
 22 23  1  0  0  0  0
 22 24  1  0  0  0  0
 22 25  1  0  0  0  0
M  END
$$$$

  -OEChem-02102214113D

 25 24  0     1  0  0  0  0  0999 V2000
   -2.7218   -4.0128    0.3907 H   0  0  0  0  0  0  0  0  0  0  0  0
   -2.7615   -2.9648    0.0810 C   0  0  0  0  0  0  0  0  0  0  0  0
   -3.4399   -2.4252    0.7463 H   0  0  0  0  0  0  0  0  0  0  0  0
   -3.1457   -2.9133   -0.9408 H   0  0  0  0  0  0  0  0  0  0  0  0
   -1.3769   -2.3486    0.1405 C   0  0  0  0  0  0  0  0  0  0  0  0
   -0.4223   -3.0194    0.5014 O   0  0  0  0  0  0  0  0  0  0  0  0
   -1.1969   -1.0309   -0.2266 N   0  0  0  0  0  0  0  0  0  0  0  0
   -2.0251   -0.5006   -0.4933 H   0  0  0  0  0  0  0  0  0  0  0  0
    0.0877   -0.3158   -0.2329 C   0  0  1  0  0  0  0  0  0  0  0  0
    0.8100   -0.8736    0.3730 H   0  0  0  0  0  0  0  0  0  0  0  0
    0.6502   -0.2044   -1.6646 C   0  0  0  0  0  0  0  0  0  0  0  0
    0.0897    0.5578   -2.2146 H   0  0  0  0  0  0  0  0  0  0  0  0
    1.6936    0.1191   -1.6253 H   0  0  0  0  0  0  0  0  0  0  0  0
    0.5654   -1.5075   -2.4491 C   0  0  0  0  0  0  0  0  0  0  0  0
   -0.4325   -1.7390   -3.1136 O   0  0  0  0  0  0  0  0  0  0  0  0
    1.6255   -2.3447   -2.3687 O   0  0  0  0  0  0  0  0  0  0  0  0
    1.3823   -3.1332   -2.8769 H   0  0  0  0  0  0  0  0  0  0  0  0
   -0.0510    1.0828    0.3978 C   0  0  0  0  0  0  0  0  0  0  0  0
   -1.0091    1.7897    0.1101 O   0  0  0  0  0  0  0  0  0  0  0  0
    0.8873    1.5425    1.3033 N   0  0  0  0  0  0  0  0  0  0  0  0
    1.6459    0.9162    1.5580 H   0  0  0  0  0  0  0  0  0  0  0  0
    0.7967    2.8431    1.9560 C   0  0  0  0  0  0  0  0  0  0  0  0
   -0.1306    2.9186    2.5336 H   0  0  0  0  0  0  0  0  0  0  0  0
    1.6410    2.9844    2.6375 H   0  0  0  0  0  0  0  0  0  0  0  0
    0.8151    3.6465    1.2121 H   0  0  0  0  0  0  0  0  0  0  0  0
  1  2  1  0  0  0  0
  2  3  1  0  0  0  0
  2  4  1  0  0  0  0
  2  5  1  0  0  0  0
  5  6  2  0  0  0  0
  5  7  1  0  0  0  0
  7  8  1  0  0  0  0
  7  9  1  0  0  0  0
  9 10  1  0  0  0  0
  9 11  1  0  0  0  0
  9 18  1  0  0  0  0
 11 12  1  0  0  0  0
 11 13  1  0  0  0  0
 11 14  1  0  0  0  0
 14 15  2  0  0  0  0
 14 16  1  0  0  0  0
 16 17  1  0  0  0  0
 18 19  2  0  0  0  0
 18 20  1  0  0  0  0
 20 21  1  0  0  0  0
 20 22  1  0  0  0  0
 22 23  1  0  0  0  0
 22 24  1  0  0  0  0
 22 25  1  0  0  0  0
M  END
$$$$

  -OEChem-02102214113D

 25 24  0     1  0  0  0  0  0999 V2000
   -2.7393   -4.0044    0.4007 H   0  0  0  0  0  0  0  0  0  0  0  0
   -2.7707   -2.9572    0.0878 C   0  0  0  0  0  0  0  0  0  0  0  0
   -3.4400   -2.4094    0.7555 H   0  0  0  0  0  0  0  0  0  0  0  0
   -3.1611   -2.9056   -0.9316 H   0  0  0  0  0  0  0  0  0  0  0  0
   -1.3801   -2.3538    0.1385 C   0  0  0  0  0  0  0  0  0  0  0  0
   -0.4328   -3.0323    0.5023 O   0  0  0  0  0  0  0  0  0  0  0  0
   -1.1918   -1.0375   -0.2305 N   0  0  0  0  0  0  0  0  0  0  0  0
   -2.0208   -0.4981   -0.4760 H   0  0  0  0  0  0  0  0  0  0  0  0
    0.0938   -0.3218   -0.2305 C   0  0  1  0  0  0  0  0  0  0  0  0
    0.8146   -0.8809    0.3763 H   0  0  0  0  0  0  0  0  0  0  0  0
    0.6547   -0.2083   -1.6622 C   0  0  0  0  0  0  0  0  0  0  0  0
    0.0955    0.5567   -2.2107 H   0  0  0  0  0  0  0  0  0  0  0  0
    1.7000    0.1090   -1.6247 H   0  0  0  0  0  0  0  0  0  0  0  0
    0.5642   -1.5145   -2.4386 C   0  0  0  0  0  0  0  0  0  0  0  0
   -0.2889   -1.6322   -3.3031 O   0  0  0  0  0  0  0  0  0  0  0  0
    1.4822   -2.4665   -2.1528 O   0  0  0  0  0  0  0  0  0  0  0  0
    1.2563   -3.2339   -2.6993 H   0  0  0  0  0  0  0  0  0  0  0  0
   -0.0485    1.0786    0.3954 C   0  0  0  0  0  0  0  0  0  0  0  0
   -1.0081    1.7821    0.1037 O   0  0  0  0  0  0  0  0  0  0  0  0
    0.8842    1.5411    1.3053 N   0  0  0  0  0  0  0  0  0  0  0  0
    1.6422    0.9163    1.5654 H   0  0  0  0  0  0  0  0  0  0  0  0
    0.7906    2.8446    1.9522 C   0  0  0  0  0  0  0  0  0  0  0  0
   -0.1298    2.9152    2.5414 H   0  0  0  0  0  0  0  0  0  0  0  0
    1.6426    2.9968    2.6218 H   0  0  0  0  0  0  0  0  0  0  0  0
    0.7923    3.6445    1.2041 H   0  0  0  0  0  0  0  0  0  0  0  0
  1  2  1  0  0  0  0
  2  3  1  0  0  0  0
  2  4  1  0  0  0  0
  2  5  1  0  0  0  0
  5  6  2  0  0  0  0
  5  7  1  0  0  0  0
  7  8  1  0  0  0  0
  7  9  1  0  0  0  0
  9 10  1  0  0  0  0
  9 11  1  0  0  0  0
  9 18  1  0  0  0  0
 11 12  1  0  0  0  0
 11 13  1  0  0  0  0
 11 14  1  0  0  0  0
 14 15  2  0  0  0  0
 14 16  1  0  0  0  0
 16 17  1  0  0  0  0
 18 19  2  0  0  0  0
 18 20  1  0  0  0  0
 20 21  1  0  0  0  0
 20 22  1  0  0  0  0
 22 23  1  0  0  0  0
 22 24  1  0  0  0  0
 22 25  1  0  0  0  0
M  END
$$$$

  -OEChem-02102214113D

 25 24  0     1  0  0  0  0  0999 V2000
   -2.7678   -3.9946    0.4247 H   0  0  0  0  0  0  0  0  0  0  0  0
   -2.7892   -2.9487    0.1062 C   0  0  0  0  0  0  0  0  0  0  0  0
   -3.4580   -2.3921    0.7672 H   0  0  0  0  0  0  0  0  0  0  0  0
   -3.1737   -2.8996   -0.9154 H   0  0  0  0  0  0  0  0  0  0  0  0
   -1.3942   -2.3557    0.1628 C   0  0  0  0  0  0  0  0  0  0  0  0
   -0.4616   -3.0315    0.5659 O   0  0  0  0  0  0  0  0  0  0  0  0
   -1.1941   -1.0444   -0.2185 N   0  0  0  0  0  0  0  0  0  0  0  0
   -2.0193   -0.5012   -0.4688 H   0  0  0  0  0  0  0  0  0  0  0  0
    0.0953   -0.3341   -0.2221 C   0  0  1  0  0  0  0  0  0  0  0  0
    0.8157   -0.8927    0.3857 H   0  0  0  0  0  0  0  0  0  0  0  0
    0.6528   -0.2199   -1.6564 C   0  0  0  0  0  0  0  0  0  0  0  0
    0.0950    0.5508   -2.1982 H   0  0  0  0  0  0  0  0  0  0  0  0
    1.6991    0.0937   -1.6177 H   0  0  0  0  0  0  0  0  0  0  0  0
    0.5613   -1.5179   -2.4467 C   0  0  0  0  0  0  0  0  0  0  0  0
   -0.0895   -1.5341   -3.4782 O   0  0  0  0  0  0  0  0  0  0  0  0
    1.3059   -2.5607   -2.0128 O   0  0  0  0  0  0  0  0  0  0  0  0
    1.1293   -3.2946   -2.6195 H   0  0  0  0  0  0  0  0  0  0  0  0
   -0.0460    1.0725    0.3906 C   0  0  0  0  0  0  0  0  0  0  0  0
   -1.0066    1.7731    0.0950 O   0  0  0  0  0  0  0  0  0  0  0  0
    0.8851    1.5401    1.2994 N   0  0  0  0  0  0  0  0  0  0  0  0
    1.6416    0.9159    1.5651 H   0  0  0  0  0  0  0  0  0  0  0  0
    0.7866    2.8436    1.9453 C   0  0  0  0  0  0  0  0  0  0  0  0
   -0.1432    2.9182    2.5191 H   0  0  0  0  0  0  0  0  0  0  0  0
    1.6277    2.9917    2.6294 H   0  0  0  0  0  0  0  0  0  0  0  0
    0.8045    3.6439    1.1980 H   0  0  0  0  0  0  0  0  0  0  0  0
  1  2  1  0  0  0  0
  2  3  1  0  0  0  0
  2  4  1  0  0  0  0
  2  5  1  0  0  0  0
  5  6  2  0  0  0  0
  5  7  1  0  0  0  0
  7  8  1  0  0  0  0
  7  9  1  0  0  0  0
  9 10  1  0  0  0  0
  9 11  1  0  0  0  0
  9 18  1  0  0  0  0
 11 12  1  0  0  0  0
 11 13  1  0  0  0  0
 11 14  1  0  0  0  0
 14 15  2  0  0  0  0
 14 16  1  0  0  0  0
 16 17  1  0  0  0  0
 18 19  2  0  0  0  0
 18 20  1  0  0  0  0
 20 21  1  0  0  0  0
 20 22  1  0  0  0  0
 22 23  1  0  0  0  0
 22 24  1  0  0  0  0
 22 25  1  0  0  0  0
M  END
$$$$

  -OEChem-02102214113D

 25 24  0     1  0  0  0  0  0999 V2000
   -2.7948   -3.9919    0.4423 H   0  0  0  0  0  0  0  0  0  0  0  0
   -2.8075   -2.9471    0.1197 C   0  0  0  0  0  0  0  0  0  0  0  0
   -3.4892   -2.3872    0.7643 H   0  0  0  0  0  0  0  0  0  0  0  0
   -3.1700   -2.9010   -0.9100 H   0  0  0  0  0  0  0  0  0  0  0  0
   -1.4128   -2.3568    0.2044 C   0  0  0  0  0  0  0  0  0  0  0  0
   -0.5000   -3.0210    0.6676 O   0  0  0  0  0  0  0  0  0  0  0  0
   -1.2013   -1.0515   -0.1920 N   0  0  0  0  0  0  0  0  0  0  0  0
   -2.0199   -0.5093   -0.4645 H   0  0  0  0  0  0  0  0  0  0  0  0
    0.0933   -0.3514   -0.2042 C   0  0  1  0  0  0  0  0  0  0  0  0
    0.8139   -0.9103    0.4033 H   0  0  0  0  0  0  0  0  0  0  0  0
    0.6448   -0.2319   -1.6431 C   0  0  0  0  0  0  0  0  0  0  0  0
    0.0882    0.5494   -2.1713 H   0  0  0  0  0  0  0  0  0  0  0  0
    1.6922    0.0773   -1.6025 H   0  0  0  0  0  0  0  0  0  0  0  0
    0.5536   -1.5094   -2.4684 C   0  0  0  0  0  0  0  0  0  0  0  0
    0.1480   -1.4279   -3.6155 O   0  0  0  0  0  0  0  0  0  0  0  0
    1.0787   -2.6386   -1.9419 O   0  0  0  0  0  0  0  0  0  0  0  0
    0.9726   -3.3308   -2.6108 H   0  0  0  0  0  0  0  0  0  0  0  0
   -0.0458    1.0616    0.3951 C   0  0  0  0  0  0  0  0  0  0  0  0
   -0.9996    1.7652    0.0840 O   0  0  0  0  0  0  0  0  0  0  0  0
    0.8849    1.5357    1.3010 N   0  0  0  0  0  0  0  0  0  0  0  0
    1.6336    0.9085    1.5816 H   0  0  0  0  0  0  0  0  0  0  0  0
    0.7911    2.8482    1.9288 C   0  0  0  0  0  0  0  0  0  0  0  0
   -0.1422    2.9370    2.4949 H   0  0  0  0  0  0  0  0  0  0  0  0
    1.6285    2.9998    2.6166 H   0  0  0  0  0  0  0  0  0  0  0  0
    0.8193    3.6376    1.1703 H   0  0  0  0  0  0  0  0  0  0  0  0
  1  2  1  0  0  0  0
  2  3  1  0  0  0  0
  2  4  1  0  0  0  0
  2  5  1  0  0  0  0
  5  6  2  0  0  0  0
  5  7  1  0  0  0  0
  7  8  1  0  0  0  0
  7  9  1  0  0  0  0
  9 10  1  0  0  0  0
  9 11  1  0  0  0  0
  9 18  1  0  0  0  0
 11 12  1  0  0  0  0
 11 13  1  0  0  0  0
 11 14  1  0  0  0  0
 14 15  2  0  0  0  0
 14 16  1  0  0  0  0
 16 17  1  0  0  0  0
 18 19  2  0  0  0  0
 18 20  1  0  0  0  0
 20 21  1  0  0  0  0
 20 22  1  0  0  0  0
 22 23  1  0  0  0  0
 22 24  1  0  0  0  0
 22 25  1  0  0  0  0
M  END
$$$$

  -OEChem-02102214113D

 25 24  0     1  0  0  0  0  0999 V2000
   -2.8103   -3.9894    0.4747 H   0  0  0  0  0  0  0  0  0  0  0  0
   -2.8187   -2.9525    0.1277 C   0  0  0  0  0  0  0  0  0  0  0  0
   -3.5308   -2.3840    0.7307 H   0  0  0  0  0  0  0  0  0  0  0  0
   -3.1387   -2.9336   -0.9168 H   0  0  0  0  0  0  0  0  0  0  0  0
   -1.4332   -2.3483    0.2557 C   0  0  0  0  0  0  0  0  0  0  0  0
   -0.5401   -2.9865    0.7900 O   0  0  0  0  0  0  0  0  0  0  0  0
   -1.2153   -1.0498   -0.1605 N   0  0  0  0  0  0  0  0  0  0  0  0
   -2.0247   -0.5195   -0.4788 H   0  0  0  0  0  0  0  0  0  0  0  0
    0.0860   -0.3629   -0.1881 C   0  0  1  0  0  0  0  0  0  0  0  0
    0.8071   -0.9219    0.4182 H   0  0  0  0  0  0  0  0  0  0  0  0
    0.6339   -0.2432   -1.6314 C   0  0  0  0  0  0  0  0  0  0  0  0
    0.0807    0.5474   -2.1492 H   0  0  0  0  0  0  0  0  0  0  0  0
    1.6821    0.0629   -1.5862 H   0  0  0  0  0  0  0  0  0  0  0  0
    0.5466   -1.4963   -2.4967 C   0  0  0  0  0  0  0  0  0  0  0  0
    0.4194   -1.3375   -3.6987 O   0  0  0  0  0  0  0  0  0  0  0  0
    0.7893   -2.6991   -1.9308 O   0  0  0  0  0  0  0  0  0  0  0  0
    0.7692   -3.3501   -2.6474 H   0  0  0  0  0  0  0  0  0  0  0  0
   -0.0435    1.0580    0.3952 C   0  0  0  0  0  0  0  0  0  0  0  0
   -0.9914    1.7663    0.0764 O   0  0  0  0  0  0  0  0  0  0  0  0
    0.8935    1.5362    1.2923 N   0  0  0  0  0  0  0  0  0  0  0  0
    1.6271    0.9002    1.5922 H   0  0  0  0  0  0  0  0  0  0  0  0
    0.8019    2.8504    1.9168 C   0  0  0  0  0  0  0  0  0  0  0  0
   -0.1154    2.9297    2.5097 H   0  0  0  0  0  0  0  0  0  0  0  0
    1.6574    3.0156    2.5788 H   0  0  0  0  0  0  0  0  0  0  0  0
    0.7982    3.6374    1.1552 H   0  0  0  0  0  0  0  0  0  0  0  0
  1  2  1  0  0  0  0
  2  3  1  0  0  0  0
  2  4  1  0  0  0  0
  2  5  1  0  0  0  0
  5  6  2  0  0  0  0
  5  7  1  0  0  0  0
  7  8  1  0  0  0  0
  7  9  1  0  0  0  0
  9 10  1  0  0  0  0
  9 11  1  0  0  0  0
  9 18  1  0  0  0  0
 11 12  1  0  0  0  0
 11 13  1  0  0  0  0
 11 14  1  0  0  0  0
 14 15  2  0  0  0  0
 14 16  1  0  0  0  0
 16 17  1  0  0  0  0
 18 19  2  0  0  0  0
 18 20  1  0  0  0  0
 20 21  1  0  0  0  0
 20 22  1  0  0  0  0
 22 23  1  0  0  0  0
 22 24  1  0  0  0  0
 22 25  1  0  0  0  0
M  END
$$$$

  -OEChem-02102214113D

 25 24  0     1  0  0  0  0  0999 V2000
   -2.8232   -3.9882    0.5179 H   0  0  0  0  0  0  0  0  0  0  0  0
   -2.8320   -2.9553    0.1594 C   0  0  0  0  0  0  0  0  0  0  0  0
   -3.5506   -2.3823    0.7503 H   0  0  0  0  0  0  0  0  0  0  0  0
   -3.1432   -2.9499   -0.8880 H   0  0  0  0  0  0  0  0  0  0  0  0
   -1.4492   -2.3455    0.2922 C   0  0  0  0  0  0  0  0  0  0  0  0
   -0.5612   -2.9715    0.8505 O   0  0  0  0  0  0  0  0  0  0  0  0
   -1.2287   -1.0514   -0.1378 N   0  0  0  0  0  0  0  0  0  0  0  0
   -2.0328   -0.5269   -0.4772 H   0  0  0  0  0  0  0  0  0  0  0  0
    0.0781   -0.3767   -0.1773 C   0  0  1  0  0  0  0  0  0  0  0  0
    0.7969   -0.9351    0.4319 H   0  0  0  0  0  0  0  0  0  0  0  0
    0.6358   -0.2535   -1.6196 C   0  0  0  0  0  0  0  0  0  0  0  0
    0.0875    0.5455   -2.1294 H   0  0  0  0  0  0  0  0  0  0  0  0
    1.6830    0.0541   -1.5588 H   0  0  0  0  0  0  0  0  0  0  0  0
    0.5661   -1.4762   -2.5335 C   0  0  0  0  0  0  0  0  0  0  0  0
    0.7427   -1.2696   -3.7219 O   0  0  0  0  0  0  0  0  0  0  0  0
    0.4595   -2.7172   -2.0109 O   0  0  0  0  0  0  0  0  0  0  0  0
    0.5201   -3.3334   -2.7556 H   0  0  0  0  0  0  0  0  0  0  0  0
   -0.0474    1.0491    0.3972 C   0  0  0  0  0  0  0  0  0  0  0  0
   -0.9899    1.7609    0.0693 O   0  0  0  0  0  0  0  0  0  0  0  0
    0.8923    1.5318    1.2893 N   0  0  0  0  0  0  0  0  0  0  0  0
    1.6198    0.8936    1.5990 H   0  0  0  0  0  0  0  0  0  0  0  0
    0.8070    2.8527    1.9007 C   0  0  0  0  0  0  0  0  0  0  0  0
   -0.1110    2.9439    2.4907 H   0  0  0  0  0  0  0  0  0  0  0  0
    1.6618    3.0192    2.5634 H   0  0  0  0  0  0  0  0  0  0  0  0
    0.8097    3.6318    1.1310 H   0  0  0  0  0  0  0  0  0  0  0  0
  1  2  1  0  0  0  0
  2  3  1  0  0  0  0
  2  4  1  0  0  0  0
  2  5  1  0  0  0  0
  5  6  2  0  0  0  0
  5  7  1  0  0  0  0
  7  8  1  0  0  0  0
  7  9  1  0  0  0  0
  9 10  1  0  0  0  0
  9 11  1  0  0  0  0
  9 18  1  0  0  0  0
 11 12  1  0  0  0  0
 11 13  1  0  0  0  0
 11 14  1  0  0  0  0
 14 15  2  0  0  0  0
 14 16  1  0  0  0  0
 16 17  1  0  0  0  0
 18 19  2  0  0  0  0
 18 20  1  0  0  0  0
 20 21  1  0  0  0  0
 20 22  1  0  0  0  0
 22 23  1  0  0  0  0
 22 24  1  0  0  0  0
 22 25  1  0  0  0  0
M  END
$$$$

  -OEChem-02102214113D

 25 24  0     1  0  0  0  0  0999 V2000
   -2.8305   -3.9816    0.6451 H   0  0  0  0  0  0  0  0  0  0  0  0
   -2.8552   -2.9536    0.2731 C   0  0  0  0  0  0  0  0  0  0  0  0
   -3.5345   -2.3681    0.8971 H   0  0  0  0  0  0  0  0  0  0  0  0
   -3.2268   -2.9594   -0.7543 H   0  0  0  0  0  0  0  0  0  0  0  0
   -1.4642   -2.3500    0.3128 C   0  0  0  0  0  0  0  0  0  0  0  0
   -0.5289   -3.0018    0.7538 O   0  0  0  0  0  0  0  0  0  0  0  0
   -1.2704   -1.0498   -0.1117 N   0  0  0  0  0  0  0  0  0  0  0  0
   -2.0911   -0.5213   -0.4013 H   0  0  0  0  0  0  0  0  0  0  0  0
    0.0319   -0.3747   -0.1938 C   0  0  1  0  0  0  0  0  0  0  0  0
    0.7502   -0.9311    0.4172 H   0  0  0  0  0  0  0  0  0  0  0  0
    0.6229   -0.2635   -1.6296 C   0  0  0  0  0  0  0  0  0  0  0  0
    0.2710    0.6797   -2.0594 H   0  0  0  0  0  0  0  0  0  0  0  0
    1.7100   -0.1913   -1.5373 H   0  0  0  0  0  0  0  0  0  0  0  0
    0.3235   -1.3216   -2.6993 C   0  0  0  0  0  0  0  0  0  0  0  0
    0.8482   -1.1150   -3.7803 O   0  0  0  0  0  0  0  0  0  0  0  0
   -0.4445   -2.4083   -2.4576 O   0  0  0  0  0  0  0  0  0  0  0  0
   -0.4325   -2.9268   -3.2760 H   0  0  0  0  0  0  0  0  0  0  0  0
   -0.0799    1.0444    0.4014 C   0  0  0  0  0  0  0  0  0  0  0  0
   -1.0394    1.7527    0.1186 O   0  0  0  0  0  0  0  0  0  0  0  0
    0.8883    1.5235    1.2646 N   0  0  0  0  0  0  0  0  0  0  0  0
    1.6417    0.8940    1.5259 H   0  0  0  0  0  0  0  0  0  0  0  0
    0.8202    2.8391    1.8901 C   0  0  0  0  0  0  0  0  0  0  0  0
   -0.0722    2.9183    2.5200 H   0  0  0  0  0  0  0  0  0  0  0  0
    1.7019    3.0070    2.5162 H   0  0  0  0  0  0  0  0  0  0  0  0
    0.7841    3.6247    1.1278 H   0  0  0  0  0  0  0  0  0  0  0  0
  1  2  1  0  0  0  0
  2  3  1  0  0  0  0
  2  4  1  0  0  0  0
  2  5  1  0  0  0  0
  5  6  2  0  0  0  0
  5  7  1  0  0  0  0
  7  8  1  0  0  0  0
  7  9  1  0  0  0  0
  9 10  1  0  0  0  0
  9 11  1  0  0  0  0
  9 18  1  0  0  0  0
 11 12  1  0  0  0  0
 11 13  1  0  0  0  0
 11 14  1  0  0  0  0
 14 15  2  0  0  0  0
 14 16  1  0  0  0  0
 16 17  1  0  0  0  0
 18 19  2  0  0  0  0
 18 20  1  0  0  0  0
 20 21  1  0  0  0  0
 20 22  1  0  0  0  0
 22 23  1  0  0  0  0
 22 24  1  0  0  0  0
 22 25  1  0  0  0  0
M  END
$$$$

  -OEChem-02102214113D

 25 24  0     1  0  0  0  0  0999 V2000
   -2.8129   -3.9936    0.6340 H   0  0  0  0  0  0  0  0  0  0  0  0
   -2.8480   -2.9593    0.2811 C   0  0  0  0  0  0  0  0  0  0  0  0
   -3.5157   -2.3872    0.9294 H   0  0  0  0  0  0  0  0  0  0  0  0
   -3.2413   -2.9477   -0.7382 H   0  0  0  0  0  0  0  0  0  0  0  0
   -1.4584   -2.3519    0.3025 C   0  0  0  0  0  0  0  0  0  0  0  0
   -0.5095   -3.0121    0.6996 O   0  0  0  0  0  0  0  0  0  0  0  0
   -1.2747   -1.0478   -0.1126 N   0  0  0  0  0  0  0  0  0  0  0  0
   -2.0990   -0.5247   -0.4015 H   0  0  0  0  0  0  0  0  0  0  0  0
    0.0228   -0.3657   -0.1976 C   0  0  1  0  0  0  0  0  0  0  0  0
    0.7408   -0.9207    0.4151 H   0  0  0  0  0  0  0  0  0  0  0  0
    0.6206   -0.2650   -1.6306 C   0  0  0  0  0  0  0  0  0  0  0  0
    0.2595    0.6686   -2.0733 H   0  0  0  0  0  0  0  0  0  0  0  0
    1.7064   -0.1778   -1.5328 H   0  0  0  0  0  0  0  0  0  0  0  0
    0.3303   -1.3394   -2.6882 C   0  0  0  0  0  0  0  0  0  0  0  0
    1.0692   -1.3098   -3.6577 O   0  0  0  0  0  0  0  0  0  0  0  0
   -0.7226   -2.1864   -2.6008 O   0  0  0  0  0  0  0  0  0  0  0  0
   -0.6797   -2.7388   -3.3959 H   0  0  0  0  0  0  0  0  0  0  0  0
   -0.0845    1.0498    0.4063 C   0  0  0  0  0  0  0  0  0  0  0  0
   -1.0439    1.7611    0.1317 O   0  0  0  0  0  0  0  0  0  0  0  0
    0.8904    1.5244    1.2646 N   0  0  0  0  0  0  0  0  0  0  0  0
    1.6471    0.8943    1.5153 H   0  0  0  0  0  0  0  0  0  0  0  0
    0.8280    2.8370    1.8968 C   0  0  0  0  0  0  0  0  0  0  0  0
   -0.0695    2.9204    2.5188 H   0  0  0  0  0  0  0  0  0  0  0  0
    1.7050    2.9935    2.5323 H   0  0  0  0  0  0  0  0  0  0  0  0
    0.8062    3.6273    1.1390 H   0  0  0  0  0  0  0  0  0  0  0  0
  1  2  1  0  0  0  0
  2  3  1  0  0  0  0
  2  4  1  0  0  0  0
  2  5  1  0  0  0  0
  5  6  2  0  0  0  0
  5  7  1  0  0  0  0
  7  8  1  0  0  0  0
  7  9  1  0  0  0  0
  9 10  1  0  0  0  0
  9 11  1  0  0  0  0
  9 18  1  0  0  0  0
 11 12  1  0  0  0  0
 11 13  1  0  0  0  0
 11 14  1  0  0  0  0
 14 15  2  0  0  0  0
 14 16  1  0  0  0  0
 16 17  1  0  0  0  0
 18 19  2  0  0  0  0
 18 20  1  0  0  0  0
 20 21  1  0  0  0  0
 20 22  1  0  0  0  0
 22 23  1  0  0  0  0
 22 24  1  0  0  0  0
 22 25  1  0  0  0  0
M  END
$$$$

  -OEChem-02102214113D

 25 24  0     1  0  0  0  0  0999 V2000
   -2.7983   -4.0024    0.6027 H   0  0  0  0  0  0  0  0  0  0  0  0
   -2.8386   -2.9633    0.2647 C   0  0  0  0  0  0  0  0  0  0  0  0
   -3.4966   -2.4004    0.9311 H   0  0  0  0  0  0  0  0  0  0  0  0
   -3.2474   -2.9374   -0.7483 H   0  0  0  0  0  0  0  0  0  0  0  0
   -1.4489   -2.3554    0.2743 C   0  0  0  0  0  0  0  0  0  0  0  0
   -0.4918   -3.0238    0.6352 O   0  0  0  0  0  0  0  0  0  0  0  0
   -1.2712   -1.0466   -0.1259 N   0  0  0  0  0  0  0  0  0  0  0  0
   -2.0986   -0.5253   -0.4104 H   0  0  0  0  0  0  0  0  0  0  0  0
    0.0209   -0.3542   -0.2034 C   0  0  1  0  0  0  0  0  0  0  0  0
    0.7399   -0.9102    0.4073 H   0  0  0  0  0  0  0  0  0  0  0  0
    0.6172   -0.2564   -1.6346 C   0  0  0  0  0  0  0  0  0  0  0  0
    0.2473    0.6679   -2.0881 H   0  0  0  0  0  0  0  0  0  0  0  0
    1.7030   -0.1600   -1.5430 H   0  0  0  0  0  0  0  0  0  0  0  0
    0.3140   -1.3551   -2.6611 C   0  0  0  0  0  0  0  0  0  0  0  0
    1.1889   -1.5475   -3.4883 O   0  0  0  0  0  0  0  0  0  0  0  0
   -0.9070   -1.9384   -2.7407 O   0  0  0  0  0  0  0  0  0  0  0  0
   -0.8557   -2.5426   -3.4969 H   0  0  0  0  0  0  0  0  0  0  0  0
   -0.0871    1.0553    0.4123 C   0  0  0  0  0  0  0  0  0  0  0  0
   -1.0488    1.7666    0.1467 O   0  0  0  0  0  0  0  0  0  0  0  0
    0.8892    1.5236    1.2723 N   0  0  0  0  0  0  0  0  0  0  0  0
    1.6528    0.8960    1.5082 H   0  0  0  0  0  0  0  0  0  0  0  0
    0.8316    2.8342    1.9088 C   0  0  0  0  0  0  0  0  0  0  0  0
   -0.0578    2.9133    2.5429 H   0  0  0  0  0  0  0  0  0  0  0  0
    1.7167    2.9911    2.5328 H   0  0  0  0  0  0  0  0  0  0  0  0
    0.7976    3.6265    1.1534 H   0  0  0  0  0  0  0  0  0  0  0  0
  1  2  1  0  0  0  0
  2  3  1  0  0  0  0
  2  4  1  0  0  0  0
  2  5  1  0  0  0  0
  5  6  2  0  0  0  0
  5  7  1  0  0  0  0
  7  8  1  0  0  0  0
  7  9  1  0  0  0  0
  9 10  1  0  0  0  0
  9 11  1  0  0  0  0
  9 18  1  0  0  0  0
 11 12  1  0  0  0  0
 11 13  1  0  0  0  0
 11 14  1  0  0  0  0
 14 15  2  0  0  0  0
 14 16  1  0  0  0  0
 16 17  1  0  0  0  0
 18 19  2  0  0  0  0
 18 20  1  0  0  0  0
 20 21  1  0  0  0  0
 20 22  1  0  0  0  0
 22 23  1  0  0  0  0
 22 24  1  0  0  0  0
 22 25  1  0  0  0  0
M  END
$$$$

  -OEChem-02102214113D

 25 24  0     1  0  0  0  0  0999 V2000
   -2.7834   -4.0075    0.5506 H   0  0  0  0  0  0  0  0  0  0  0  0
   -2.8255   -2.9626    0.2306 C   0  0  0  0  0  0  0  0  0  0  0  0
   -3.4781   -2.4105    0.9111 H   0  0  0  0  0  0  0  0  0  0  0  0
   -3.2421   -2.9190   -0.7787 H   0  0  0  0  0  0  0  0  0  0  0  0
   -1.4356   -2.3555    0.2404 C   0  0  0  0  0  0  0  0  0  0  0  0
   -0.4756   -3.0287    0.5824 O   0  0  0  0  0  0  0  0  0  0  0  0
   -1.2598   -1.0431   -0.1464 N   0  0  0  0  0  0  0  0  0  0  0  0
   -2.0893   -0.5193   -0.4206 H   0  0  0  0  0  0  0  0  0  0  0  0
    0.0289   -0.3424   -0.2124 C   0  0  1  0  0  0  0  0  0  0  0  0
    0.7510   -0.9004    0.3928 H   0  0  0  0  0  0  0  0  0  0  0  0
    0.6127   -0.2424   -1.6457 C   0  0  0  0  0  0  0  0  0  0  0  0
    0.2357    0.6765   -2.1039 H   0  0  0  0  0  0  0  0  0  0  0  0
    1.6997   -0.1458   -1.5711 H   0  0  0  0  0  0  0  0  0  0  0  0
    0.2810   -1.3627   -2.6356 C   0  0  0  0  0  0  0  0  0  0  0  0
    1.2131   -1.7889   -3.2960 O   0  0  0  0  0  0  0  0  0  0  0  0
   -1.0081   -1.7137   -2.8703 O   0  0  0  0  0  0  0  0  0  0  0  0
   -0.9703   -2.3780   -3.5752 H   0  0  0  0  0  0  0  0  0  0  0  0
   -0.0819    1.0622    0.4135 C   0  0  0  0  0  0  0  0  0  0  0  0
   -1.0471    1.7713    0.1556 O   0  0  0  0  0  0  0  0  0  0  0  0
    0.8915    1.5265    1.2792 N   0  0  0  0  0  0  0  0  0  0  0  0
    1.6575    0.9001    1.5105 H   0  0  0  0  0  0  0  0  0  0  0  0
    0.8294    2.8325    1.9248 C   0  0  0  0  0  0  0  0  0  0  0  0
   -0.0610    2.9056    2.5581 H   0  0  0  0  0  0  0  0  0  0  0  0
    1.7128    2.9875    2.5518 H   0  0  0  0  0  0  0  0  0  0  0  0
    0.7946    3.6297    1.1745 H   0  0  0  0  0  0  0  0  0  0  0  0
  1  2  1  0  0  0  0
  2  3  1  0  0  0  0
  2  4  1  0  0  0  0
  2  5  1  0  0  0  0
  5  6  2  0  0  0  0
  5  7  1  0  0  0  0
  7  8  1  0  0  0  0
  7  9  1  0  0  0  0
  9 10  1  0  0  0  0
  9 11  1  0  0  0  0
  9 18  1  0  0  0  0
 11 12  1  0  0  0  0
 11 13  1  0  0  0  0
 11 14  1  0  0  0  0
 14 15  2  0  0  0  0
 14 16  1  0  0  0  0
 16 17  1  0  0  0  0
 18 19  2  0  0  0  0
 18 20  1  0  0  0  0
 20 21  1  0  0  0  0
 20 22  1  0  0  0  0
 22 23  1  0  0  0  0
 22 24  1  0  0  0  0
 22 25  1  0  0  0  0
M  END
$$$$

  -OEChem-02102214113D

 25 24  0     1  0  0  0  0  0999 V2000
   -2.7698   -4.0084    0.5004 H   0  0  0  0  0  0  0  0  0  0  0  0
   -2.8121   -2.9601    0.1924 C   0  0  0  0  0  0  0  0  0  0  0  0
   -3.4625   -2.4154    0.8808 H   0  0  0  0  0  0  0  0  0  0  0  0
   -3.2314   -2.9049   -0.8151 H   0  0  0  0  0  0  0  0  0  0  0  0
   -1.4219   -2.3541    0.2060 C   0  0  0  0  0  0  0  0  0  0  0  0
   -0.4622   -3.0290    0.5438 O   0  0  0  0  0  0  0  0  0  0  0  0
   -1.2463   -1.0389   -0.1704 N   0  0  0  0  0  0  0  0  0  0  0  0
   -2.0766   -0.5116   -0.4365 H   0  0  0  0  0  0  0  0  0  0  0  0
    0.0405   -0.3321   -0.2221 C   0  0  1  0  0  0  0  0  0  0  0  0
    0.7654   -0.8931    0.3775 H   0  0  0  0  0  0  0  0  0  0  0  0
    0.6108   -0.2244   -1.6578 C   0  0  0  0  0  0  0  0  0  0  0  0
    0.2293    0.6928   -2.1160 H   0  0  0  0  0  0  0  0  0  0  0  0
    1.6992   -0.1315   -1.6019 H   0  0  0  0  0  0  0  0  0  0  0  0
    0.2508   -1.3582   -2.6169 C   0  0  0  0  0  0  0  0  0  0  0  0
    1.1742   -2.0007   -3.0870 O   0  0  0  0  0  0  0  0  0  0  0  0
   -1.0391   -1.5192   -3.0052 O   0  0  0  0  0  0  0  0  0  0  0  0
   -1.0260   -2.2417   -3.6513 H   0  0  0  0  0  0  0  0  0  0  0  0
   -0.0760    1.0683    0.4113 C   0  0  0  0  0  0  0  0  0  0  0  0
   -1.0398    1.7785    0.1510 O   0  0  0  0  0  0  0  0  0  0  0  0
    0.8918    1.5274    1.2856 N   0  0  0  0  0  0  0  0  0  0  0  0
    1.6548    0.8985    1.5194 H   0  0  0  0  0  0  0  0  0  0  0  0
    0.8259    2.8295    1.9382 C   0  0  0  0  0  0  0  0  0  0  0  0
   -0.0766    2.9052    2.5540 H   0  0  0  0  0  0  0  0  0  0  0  0
    1.6976    2.9739    2.5838 H   0  0  0  0  0  0  0  0  0  0  0  0
    0.8115    3.6312    1.1923 H   0  0  0  0  0  0  0  0  0  0  0  0
  1  2  1  0  0  0  0
  2  3  1  0  0  0  0
  2  4  1  0  0  0  0
  2  5  1  0  0  0  0
  5  6  2  0  0  0  0
  5  7  1  0  0  0  0
  7  8  1  0  0  0  0
  7  9  1  0  0  0  0
  9 10  1  0  0  0  0
  9 11  1  0  0  0  0
  9 18  1  0  0  0  0
 11 12  1  0  0  0  0
 11 13  1  0  0  0  0
 11 14  1  0  0  0  0
 14 15  2  0  0  0  0
 14 16  1  0  0  0  0
 16 17  1  0  0  0  0
 18 19  2  0  0  0  0
 18 20  1  0  0  0  0
 20 21  1  0  0  0  0
 20 22  1  0  0  0  0
 22 23  1  0  0  0  0
 22 24  1  0  0  0  0
 22 25  1  0  0  0  0
M  END
$$$$

  -OEChem-02102214113D

 25 24  0     1  0  0  0  0  0999 V2000
   -2.7595   -4.0068    0.4537 H   0  0  0  0  0  0  0  0  0  0  0  0
   -2.8009   -2.9560    0.1536 C   0  0  0  0  0  0  0  0  0  0  0  0
   -3.4565   -2.4175    0.8421 H   0  0  0  0  0  0  0  0  0  0  0  0
   -3.2138   -2.8928   -0.8561 H   0  0  0  0  0  0  0  0  0  0  0  0
   -1.4113   -2.3491    0.1811 C   0  0  0  0  0  0  0  0  0  0  0  0
   -0.4562   -3.0229    0.5323 O   0  0  0  0  0  0  0  0  0  0  0  0
   -1.2323   -1.0331   -0.1913 N   0  0  0  0  0  0  0  0  0  0  0  0
   -2.0616   -0.5012   -0.4518 H   0  0  0  0  0  0  0  0  0  0  0  0
    0.0556   -0.3255   -0.2313 C   0  0  1  0  0  0  0  0  0  0  0  0
    0.7815   -0.8892    0.3647 H   0  0  0  0  0  0  0  0  0  0  0  0
    0.6151   -0.2114   -1.6691 C   0  0  0  0  0  0  0  0  0  0  0  0
    0.2366    0.7082   -2.1253 H   0  0  0  0  0  0  0  0  0  0  0  0
    1.7048   -0.1292   -1.6276 H   0  0  0  0  0  0  0  0  0  0  0  0
    0.2317   -1.3508   -2.6078 C   0  0  0  0  0  0  0  0  0  0  0  0
    1.0860   -2.1788   -2.8723 O   0  0  0  0  0  0  0  0  0  0  0  0
   -1.0085   -1.3562   -3.1558 O   0  0  0  0  0  0  0  0  0  0  0  0
   -1.0297   -2.1281   -3.7416 H   0  0  0  0  0  0  0  0  0  0  0  0
   -0.0651    1.0735    0.4041 C   0  0  0  0  0  0  0  0  0  0  0  0
   -1.0305    1.7812    0.1431 O   0  0  0  0  0  0  0  0  0  0  0  0
    0.8957    1.5310    1.2868 N   0  0  0  0  0  0  0  0  0  0  0  0
    1.6589    0.9029    1.5226 H   0  0  0  0  0  0  0  0  0  0  0  0
    0.8183    2.8270    1.9503 C   0  0  0  0  0  0  0  0  0  0  0  0
   -0.0866    2.8904    2.5638 H   0  0  0  0  0  0  0  0  0  0  0  0
    1.6869    2.9724    2.5996 H   0  0  0  0  0  0  0  0  0  0  0  0
    0.8003    3.6349    1.2112 H   0  0  0  0  0  0  0  0  0  0  0  0
  1  2  1  0  0  0  0
  2  3  1  0  0  0  0
  2  4  1  0  0  0  0
  2  5  1  0  0  0  0
  5  6  2  0  0  0  0
  5  7  1  0  0  0  0
  7  8  1  0  0  0  0
  7  9  1  0  0  0  0
  9 10  1  0  0  0  0
  9 11  1  0  0  0  0
  9 18  1  0  0  0  0
 11 12  1  0  0  0  0
 11 13  1  0  0  0  0
 11 14  1  0  0  0  0
 14 15  2  0  0  0  0
 14 16  1  0  0  0  0
 16 17  1  0  0  0  0
 18 19  2  0  0  0  0
 18 20  1  0  0  0  0
 20 21  1  0  0  0  0
 20 22  1  0  0  0  0
 22 23  1  0  0  0  0
 22 24  1  0  0  0  0
 22 25  1  0  0  0  0
M  END
$$$$

  -OEChem-02102214113D

 25 24  0     1  0  0  0  0  0999 V2000
   -2.7531   -4.0088    0.4283 H   0  0  0  0  0  0  0  0  0  0  0  0
   -2.7929   -2.9588    0.1251 C   0  0  0  0  0  0  0  0  0  0  0  0
   -3.4559   -2.4199    0.8062 H   0  0  0  0  0  0  0  0  0  0  0  0
   -3.1963   -2.8999   -0.8885 H   0  0  0  0  0  0  0  0  0  0  0  0
   -1.4043   -2.3496    0.1651 C   0  0  0  0  0  0  0  0  0  0  0  0
   -0.4555   -3.0165    0.5448 O   0  0  0  0  0  0  0  0  0  0  0  0
   -1.2242   -1.0325   -0.2058 N   0  0  0  0  0  0  0  0  0  0  0  0
   -2.0531   -0.4981   -0.4625 H   0  0  0  0  0  0  0  0  0  0  0  0
    0.0650   -0.3242   -0.2356 C   0  0  1  0  0  0  0  0  0  0  0  0
    0.7905   -0.8902    0.3586 H   0  0  0  0  0  0  0  0  0  0  0  0
    0.6208   -0.2013   -1.6738 C   0  0  0  0  0  0  0  0  0  0  0  0
    0.2457    0.7221   -2.1254 H   0  0  0  0  0  0  0  0  0  0  0  0
    1.7111   -0.1266   -1.6383 H   0  0  0  0  0  0  0  0  0  0  0  0
    0.2277   -1.3392   -2.6073 C   0  0  0  0  0  0  0  0  0  0  0  0
    0.9588   -2.3121   -2.6665 O   0  0  0  0  0  0  0  0  0  0  0  0
   -0.9066   -1.2101   -3.3367 O   0  0  0  0  0  0  0  0  0  0  0  0
   -0.9673   -2.0174   -3.8696 H   0  0  0  0  0  0  0  0  0  0  0  0
   -0.0592    1.0747    0.4000 C   0  0  0  0  0  0  0  0  0  0  0  0
   -1.0221    1.7835    0.1327 O   0  0  0  0  0  0  0  0  0  0  0  0
    0.8961    1.5308    1.2897 N   0  0  0  0  0  0  0  0  0  0  0  0
    1.6551    0.9003    1.5329 H   0  0  0  0  0  0  0  0  0  0  0  0
    0.8160    2.8270    1.9527 C   0  0  0  0  0  0  0  0  0  0  0  0
   -0.0910    2.8899    2.5631 H   0  0  0  0  0  0  0  0  0  0  0  0
    1.6826    2.9730    2.6048 H   0  0  0  0  0  0  0  0  0  0  0  0
    0.8003    3.6350    1.2137 H   0  0  0  0  0  0  0  0  0  0  0  0
  1  2  1  0  0  0  0
  2  3  1  0  0  0  0
  2  4  1  0  0  0  0
  2  5  1  0  0  0  0
  5  6  2  0  0  0  0
  5  7  1  0  0  0  0
  7  8  1  0  0  0  0
  7  9  1  0  0  0  0
  9 10  1  0  0  0  0
  9 11  1  0  0  0  0
  9 18  1  0  0  0  0
 11 12  1  0  0  0  0
 11 13  1  0  0  0  0
 11 14  1  0  0  0  0
 14 15  2  0  0  0  0
 14 16  1  0  0  0  0
 16 17  1  0  0  0  0
 18 19  2  0  0  0  0
 18 20  1  0  0  0  0
 20 21  1  0  0  0  0
 20 22  1  0  0  0  0
 22 23  1  0  0  0  0
 22 24  1  0  0  0  0
 22 25  1  0  0  0  0
M  END
$$$$

  -OEChem-02102214113D

 25 24  0     1  0  0  0  0  0999 V2000
   -2.7487   -4.0114    0.4168 H   0  0  0  0  0  0  0  0  0  0  0  0
   -2.7852   -2.9634    0.1066 C   0  0  0  0  0  0  0  0  0  0  0  0
   -3.4677   -2.4230    0.7669 H   0  0  0  0  0  0  0  0  0  0  0  0
   -3.1624   -2.9126   -0.9175 H   0  0  0  0  0  0  0  0  0  0  0  0
   -1.4002   -2.3488    0.1776 C   0  0  0  0  0  0  0  0  0  0  0  0
   -0.4631   -3.0047    0.6029 O   0  0  0  0  0  0  0  0  0  0  0  0
   -1.2161   -1.0341   -0.2015 N   0  0  0  0  0  0  0  0  0  0  0  0
   -2.0429   -0.5000   -0.4647 H   0  0  0  0  0  0  0  0  0  0  0  0
    0.0755   -0.3299   -0.2325 C   0  0  1  0  0  0  0  0  0  0  0  0
    0.8028   -0.8952    0.3602 H   0  0  0  0  0  0  0  0  0  0  0  0
    0.6241   -0.2027   -1.6742 C   0  0  0  0  0  0  0  0  0  0  0  0
    0.2524    0.7265   -2.1172 H   0  0  0  0  0  0  0  0  0  0  0  0
    1.7148   -0.1350   -1.6451 H   0  0  0  0  0  0  0  0  0  0  0  0
    0.2246   -1.3323   -2.6150 C   0  0  0  0  0  0  0  0  0  0  0  0
    0.7770   -2.4114   -2.4936 O   0  0  0  0  0  0  0  0  0  0  0  0
   -0.7325   -1.0825   -3.5394 O   0  0  0  0  0  0  0  0  0  0  0  0
   -0.8377   -1.9071   -4.0377 H   0  0  0  0  0  0  0  0  0  0  0  0
   -0.0516    1.0721    0.3959 C   0  0  0  0  0  0  0  0  0  0  0  0
   -1.0134    1.7797    0.1210 O   0  0  0  0  0  0  0  0  0  0  0  0
    0.9001    1.5325    1.2868 N   0  0  0  0  0  0  0  0  0  0  0  0
    1.6529    0.8995    1.5424 H   0  0  0  0  0  0  0  0  0  0  0  0
    0.8125    2.8283    1.9497 C   0  0  0  0  0  0  0  0  0  0  0  0
   -0.0972    2.8878    2.5567 H   0  0  0  0  0  0  0  0  0  0  0  0
    1.6760    2.9774    2.6051 H   0  0  0  0  0  0  0  0  0  0  0  0
    0.7967    3.6365    1.2107 H   0  0  0  0  0  0  0  0  0  0  0  0
  1  2  1  0  0  0  0
  2  3  1  0  0  0  0
  2  4  1  0  0  0  0
  2  5  1  0  0  0  0
  5  6  2  0  0  0  0
  5  7  1  0  0  0  0
  7  8  1  0  0  0  0
  7  9  1  0  0  0  0
  9 10  1  0  0  0  0
  9 11  1  0  0  0  0
  9 18  1  0  0  0  0
 11 12  1  0  0  0  0
 11 13  1  0  0  0  0
 11 14  1  0  0  0  0
 14 15  2  0  0  0  0
 14 16  1  0  0  0  0
 16 17  1  0  0  0  0
 18 19  2  0  0  0  0
 18 20  1  0  0  0  0
 20 21  1  0  0  0  0
 20 22  1  0  0  0  0
 22 23  1  0  0  0  0
 22 24  1  0  0  0  0
 22 25  1  0  0  0  0
M  END
$$$$

  -OEChem-02102214113D

 25 24  0     1  0  0  0  0  0999 V2000
   -2.7473   -4.0193    0.4300 H   0  0  0  0  0  0  0  0  0  0  0  0
   -2.7825   -2.9758    0.1047 C   0  0  0  0  0  0  0  0  0  0  0  0
   -3.4869   -2.4317    0.7381 H   0  0  0  0  0  0  0  0  0  0  0  0
   -3.1309   -2.9418   -0.9302 H   0  0  0  0  0  0  0  0  0  0  0  0
   -1.4043   -2.3504    0.2064 C   0  0  0  0  0  0  0  0  0  0  0  0
   -0.4802   -2.9881    0.6854 O   0  0  0  0  0  0  0  0  0  0  0  0
   -1.2189   -1.0387   -0.1842 N   0  0  0  0  0  0  0  0  0  0  0  0
   -2.0419   -0.5119   -0.4716 H   0  0  0  0  0  0  0  0  0  0  0  0
    0.0755   -0.3399   -0.2232 C   0  0  1  0  0  0  0  0  0  0  0  0
    0.8045   -0.9042    0.3684 H   0  0  0  0  0  0  0  0  0  0  0  0
    0.6201   -0.2102   -1.6684 C   0  0  0  0  0  0  0  0  0  0  0  0
    0.2522    0.7253   -2.1018 H   0  0  0  0  0  0  0  0  0  0  0  0
    1.7107   -0.1452   -1.6385 H   0  0  0  0  0  0  0  0  0  0  0  0
    0.2262   -1.3244   -2.6324 C   0  0  0  0  0  0  0  0  0  0  0  0
    0.5526   -2.4701   -2.3776 O   0  0  0  0  0  0  0  0  0  0  0  0
   -0.4737   -0.9781   -3.7381 O   0  0  0  0  0  0  0  0  0  0  0  0
   -0.6194   -1.8021   -4.2272 H   0  0  0  0  0  0  0  0  0  0  0  0
   -0.0496    1.0665    0.3961 C   0  0  0  0  0  0  0  0  0  0  0  0
   -1.0076    1.7760    0.1123 O   0  0  0  0  0  0  0  0  0  0  0  0
    0.9034    1.5318    1.2833 N   0  0  0  0  0  0  0  0  0  0  0  0
    1.6486    0.8954    1.5520 H   0  0  0  0  0  0  0  0  0  0  0  0
    0.8162    2.8315    1.9384 C   0  0  0  0  0  0  0  0  0  0  0  0
   -0.0928    2.8944    2.5458 H   0  0  0  0  0  0  0  0  0  0  0  0
    1.6803    2.9850    2.5921 H   0  0  0  0  0  0  0  0  0  0  0  0
    0.7990    3.6352    1.1948 H   0  0  0  0  0  0  0  0  0  0  0  0
  1  2  1  0  0  0  0
  2  3  1  0  0  0  0
  2  4  1  0  0  0  0
  2  5  1  0  0  0  0
  5  6  2  0  0  0  0
  5  7  1  0  0  0  0
  7  8  1  0  0  0  0
  7  9  1  0  0  0  0
  9 10  1  0  0  0  0
  9 11  1  0  0  0  0
  9 18  1  0  0  0  0
 11 12  1  0  0  0  0
 11 13  1  0  0  0  0
 11 14  1  0  0  0  0
 14 15  2  0  0  0  0
 14 16  1  0  0  0  0
 16 17  1  0  0  0  0
 18 19  2  0  0  0  0
 18 20  1  0  0  0  0
 20 21  1  0  0  0  0
 20 22  1  0  0  0  0
 22 23  1  0  0  0  0
 22 24  1  0  0  0  0
 22 25  1  0  0  0  0
M  END
$$$$

  -OEChem-02102214113D

 25 24  0     1  0  0  0  0  0999 V2000
   -2.7538   -4.0262    0.4659 H   0  0  0  0  0  0  0  0  0  0  0  0
   -2.7878   -2.9899    0.1186 C   0  0  0  0  0  0  0  0  0  0  0  0
   -3.5131   -2.4387    0.7219 H   0  0  0  0  0  0  0  0  0  0  0  0
   -3.1077   -2.9801   -0.9261 H   0  0  0  0  0  0  0  0  0  0  0  0
   -1.4170   -2.3527    0.2441 C   0  0  0  0  0  0  0  0  0  0  0  0
   -0.5015   -2.9740    0.7615 O   0  0  0  0  0  0  0  0  0  0  0  0
   -1.2308   -1.0445   -0.1596 N   0  0  0  0  0  0  0  0  0  0  0  0
   -2.0489   -0.5294   -0.4790 H   0  0  0  0  0  0  0  0  0  0  0  0
    0.0670   -0.3532   -0.2117 C   0  0  1  0  0  0  0  0  0  0  0  0
    0.7965   -0.9161    0.3804 H   0  0  0  0  0  0  0  0  0  0  0  0
    0.6137   -0.2223   -1.6591 C   0  0  0  0  0  0  0  0  0  0  0  0
    0.2493    0.7190   -2.0828 H   0  0  0  0  0  0  0  0  0  0  0  0
    1.7038   -0.1569   -1.6230 H   0  0  0  0  0  0  0  0  0  0  0  0
    0.2361   -1.3147   -2.6577 C   0  0  0  0  0  0  0  0  0  0  0  0
    0.3015   -2.4869   -2.3329 O   0  0  0  0  0  0  0  0  0  0  0  0
   -0.1455   -0.9079   -3.8910 O   0  0  0  0  0  0  0  0  0  0  0  0
   -0.3294   -1.7170   -4.3920 H   0  0  0  0  0  0  0  0  0  0  0  0
   -0.0540    1.0580    0.3984 C   0  0  0  0  0  0  0  0  0  0  0  0
   -1.0064    1.7715    0.1050 O   0  0  0  0  0  0  0  0  0  0  0  0
    0.9034    1.5276    1.2784 N   0  0  0  0  0  0  0  0  0  0  0  0
    1.6417    0.8877    1.5576 H   0  0  0  0  0  0  0  0  0  0  0  0
    0.8239    2.8344    1.9200 C   0  0  0  0  0  0  0  0  0  0  0  0
   -0.0754    2.9022    2.5413 H   0  0  0  0  0  0  0  0  0  0  0  0
    1.6983    2.9973    2.5576 H   0  0  0  0  0  0  0  0  0  0  0  0
    0.7932    3.6297    1.1676 H   0  0  0  0  0  0  0  0  0  0  0  0
  1  2  1  0  0  0  0
  2  3  1  0  0  0  0
  2  4  1  0  0  0  0
  2  5  1  0  0  0  0
  5  6  2  0  0  0  0
  5  7  1  0  0  0  0
  7  8  1  0  0  0  0
  7  9  1  0  0  0  0
  9 10  1  0  0  0  0
  9 11  1  0  0  0  0
  9 18  1  0  0  0  0
 11 12  1  0  0  0  0
 11 13  1  0  0  0  0
 11 14  1  0  0  0  0
 14 15  2  0  0  0  0
 14 16  1  0  0  0  0
 16 17  1  0  0  0  0
 18 19  2  0  0  0  0
 18 20  1  0  0  0  0
 20 21  1  0  0  0  0
 20 22  1  0  0  0  0
 22 23  1  0  0  0  0
 22 24  1  0  0  0  0
 22 25  1  0  0  0  0
M  END
$$$$

  -OEChem-02102214113D

 25 24  0     1  0  0  0  0  0999 V2000
   -2.7693   -4.0255    0.5130 H   0  0  0  0  0  0  0  0  0  0  0  0
   -2.7998   -2.9964    0.1447 C   0  0  0  0  0  0  0  0  0  0  0  0
   -3.5343   -2.4340    0.7260 H   0  0  0  0  0  0  0  0  0  0  0  0
   -3.1042   -3.0083   -0.9046 H   0  0  0  0  0  0  0  0  0  0  0  0
   -1.4319   -2.3543    0.2759 C   0  0  0  0  0  0  0  0  0  0  0  0
   -0.5171   -2.9704    0.8019 O   0  0  0  0  0  0  0  0  0  0  0  0
   -1.2453   -1.0492   -0.1381 N   0  0  0  0  0  0  0  0  0  0  0  0
   -2.0597   -0.5433   -0.4798 H   0  0  0  0  0  0  0  0  0  0  0  0
    0.0550   -0.3647   -0.2050 C   0  0  1  0  0  0  0  0  0  0  0  0
    0.7841   -0.9256    0.3890 H   0  0  0  0  0  0  0  0  0  0  0  0
    0.6084   -0.2373   -1.6533 C   0  0  0  0  0  0  0  0  0  0  0  0
    0.2452    0.7064   -2.0727 H   0  0  0  0  0  0  0  0  0  0  0  0
    1.6978   -0.1675   -1.6057 H   0  0  0  0  0  0  0  0  0  0  0  0
    0.2548   -1.3096   -2.6862 C   0  0  0  0  0  0  0  0  0  0  0  0
    0.0480   -2.4628   -2.3534 O   0  0  0  0  0  0  0  0  0  0  0  0
    0.2141   -0.8967   -3.9743 O   0  0  0  0  0  0  0  0  0  0  0  0
   -0.0037   -1.6829   -4.4978 H   0  0  0  0  0  0  0  0  0  0  0  0
   -0.0612    1.0502    0.3986 C   0  0  0  0  0  0  0  0  0  0  0  0
   -1.0097    1.7670    0.1008 O   0  0  0  0  0  0  0  0  0  0  0  0
    0.9023    1.5235    1.2703 N   0  0  0  0  0  0  0  0  0  0  0  0
    1.6360    0.8807    1.5550 H   0  0  0  0  0  0  0  0  0  0  0  0
    0.8304    2.8350    1.9034 C   0  0  0  0  0  0  0  0  0  0  0  0
   -0.0619    2.9078    2.5340 H   0  0  0  0  0  0  0  0  0  0  0  0
    1.7120    3.0015    2.5298 H   0  0  0  0  0  0  0  0  0  0  0  0
    0.7920    3.6248    1.1457 H   0  0  0  0  0  0  0  0  0  0  0  0
  1  2  1  0  0  0  0
  2  3  1  0  0  0  0
  2  4  1  0  0  0  0
  2  5  1  0  0  0  0
  5  6  2  0  0  0  0
  5  7  1  0  0  0  0
  7  8  1  0  0  0  0
  7  9  1  0  0  0  0
  9 10  1  0  0  0  0
  9 11  1  0  0  0  0
  9 18  1  0  0  0  0
 11 12  1  0  0  0  0
 11 13  1  0  0  0  0
 11 14  1  0  0  0  0
 14 15  2  0  0  0  0
 14 16  1  0  0  0  0
 16 17  1  0  0  0  0
 18 19  2  0  0  0  0
 18 20  1  0  0  0  0
 20 21  1  0  0  0  0
 20 22  1  0  0  0  0
 22 23  1  0  0  0  0
 22 24  1  0  0  0  0
 22 25  1  0  0  0  0
M  END
$$$$

  -OEChem-02102214113D

 25 24  0     1  0  0  0  0  0999 V2000
   -2.7846   -4.0257    0.5484 H   0  0  0  0  0  0  0  0  0  0  0  0
   -2.8166   -2.9982    0.1751 C   0  0  0  0  0  0  0  0  0  0  0  0
   -3.5464   -2.4318    0.7586 H   0  0  0  0  0  0  0  0  0  0  0  0
   -3.1281   -3.0142   -0.8723 H   0  0  0  0  0  0  0  0  0  0  0  0
   -1.4468   -2.3575    0.2936 C   0  0  0  0  0  0  0  0  0  0  0  0
   -0.5261   -2.9763    0.8065 O   0  0  0  0  0  0  0  0  0  0  0  0
   -1.2614   -1.0535   -0.1249 N   0  0  0  0  0  0  0  0  0  0  0  0
   -2.0752   -0.5529   -0.4753 H   0  0  0  0  0  0  0  0  0  0  0  0
    0.0400   -0.3733   -0.2030 C   0  0  1  0  0  0  0  0  0  0  0  0
    0.7670   -0.9334    0.3942 H   0  0  0  0  0  0  0  0  0  0  0  0
    0.6051   -0.2490   -1.6491 C   0  0  0  0  0  0  0  0  0  0  0  0
    0.2454    0.6959   -2.0685 H   0  0  0  0  0  0  0  0  0  0  0  0
    1.6936   -0.1758   -1.5855 H   0  0  0  0  0  0  0  0  0  0  0  0
    0.2778   -1.3054   -2.7096 C   0  0  0  0  0  0  0  0  0  0  0  0
   -0.1905   -2.3923   -2.4218 O   0  0  0  0  0  0  0  0  0  0  0  0
    0.5695   -0.9466   -3.9813 O   0  0  0  0  0  0  0  0  0  0  0  0
    0.3260   -1.7060   -4.5326 H   0  0  0  0  0  0  0  0  0  0  0  0
   -0.0707    1.0430    0.3989 C   0  0  0  0  0  0  0  0  0  0  0  0
   -1.0161    1.7636    0.1003 O   0  0  0  0  0  0  0  0  0  0  0  0
    0.8991    1.5167    1.2633 N   0  0  0  0  0  0  0  0  0  0  0  0
    1.6330    0.8733    1.5460 H   0  0  0  0  0  0  0  0  0  0  0  0
    0.8381    2.8333    1.8873 C   0  0  0  0  0  0  0  0  0  0  0  0
   -0.0557    2.9201    2.5139 H   0  0  0  0  0  0  0  0  0  0  0  0
    1.7187    2.9951    2.5161 H   0  0  0  0  0  0  0  0  0  0  0  0
    0.8108    3.6182    1.1241 H   0  0  0  0  0  0  0  0  0  0  0  0
  1  2  1  0  0  0  0
  2  3  1  0  0  0  0
  2  4  1  0  0  0  0
  2  5  1  0  0  0  0
  5  6  2  0  0  0  0
  5  7  1  0  0  0  0
  7  8  1  0  0  0  0
  7  9  1  0  0  0  0
  9 10  1  0  0  0  0
  9 11  1  0  0  0  0
  9 18  1  0  0  0  0
 11 12  1  0  0  0  0
 11 13  1  0  0  0  0
 11 14  1  0  0  0  0
 14 15  2  0  0  0  0
 14 16  1  0  0  0  0
 16 17  1  0  0  0  0
 18 19  2  0  0  0  0
 18 20  1  0  0  0  0
 20 21  1  0  0  0  0
 20 22  1  0  0  0  0
 22 23  1  0  0  0  0
 22 24  1  0  0  0  0
 22 25  1  0  0  0  0
M  END
$$$$

  -OEChem-02102214113D

 25 24  0     1  0  0  0  0  0999 V2000
   -2.7950   -4.0264    0.5581 H   0  0  0  0  0  0  0  0  0  0  0  0
   -2.8297   -2.9953    0.1957 C   0  0  0  0  0  0  0  0  0  0  0  0
   -3.5468   -2.4325    0.7978 H   0  0  0  0  0  0  0  0  0  0  0  0
   -3.1602   -2.9996   -0.8459 H   0  0  0  0  0  0  0  0  0  0  0  0
   -1.4563   -2.3593    0.2959 C   0  0  0  0  0  0  0  0  0  0  0  0
   -0.5271   -2.9863    0.7835 O   0  0  0  0  0  0  0  0  0  0  0  0
   -1.2729   -1.0547   -0.1208 N   0  0  0  0  0  0  0  0  0  0  0  0
   -2.0867   -0.5569   -0.4754 H   0  0  0  0  0  0  0  0  0  0  0  0
    0.0281   -0.3757   -0.2043 C   0  0  1  0  0  0  0  0  0  0  0  0
    0.7528   -0.9352    0.3964 H   0  0  0  0  0  0  0  0  0  0  0  0
    0.6052   -0.2547   -1.6465 C   0  0  0  0  0  0  0  0  0  0  0  0
    0.2515    0.6903   -2.0702 H   0  0  0  0  0  0  0  0  0  0  0  0
    1.6927   -0.1805   -1.5674 H   0  0  0  0  0  0  0  0  0  0  0  0
    0.2972   -1.3055   -2.7201 C   0  0  0  0  0  0  0  0  0  0  0  0
   -0.4046   -2.2791   -2.5104 O   0  0  0  0  0  0  0  0  0  0  0  0
    0.8779   -1.0668   -3.9189 O   0  0  0  0  0  0  0  0  0  0  0  0
    0.6124   -1.8018   -4.4926 H   0  0  0  0  0  0  0  0  0  0  0  0
   -0.0787    1.0395    0.4004 C   0  0  0  0  0  0  0  0  0  0  0  0
   -1.0222    1.7635    0.1045 O   0  0  0  0  0  0  0  0  0  0  0  0
    0.8957    1.5109    1.2609 N   0  0  0  0  0  0  0  0  0  0  0  0
    1.6324    0.8680    1.5370 H   0  0  0  0  0  0  0  0  0  0  0  0
    0.8437    2.8306    1.8787 C   0  0  0  0  0  0  0  0  0  0  0  0
   -0.0583    2.9320    2.4914 H   0  0  0  0  0  0  0  0  0  0  0  0
    1.7168    2.9831    2.5205 H   0  0  0  0  0  0  0  0  0  0  0  0
    0.8387    3.6123    1.1117 H   0  0  0  0  0  0  0  0  0  0  0  0
  1  2  1  0  0  0  0
  2  3  1  0  0  0  0
  2  4  1  0  0  0  0
  2  5  1  0  0  0  0
  5  6  2  0  0  0  0
  5  7  1  0  0  0  0
  7  8  1  0  0  0  0
  7  9  1  0  0  0  0
  9 10  1  0  0  0  0
  9 11  1  0  0  0  0
  9 18  1  0  0  0  0
 11 12  1  0  0  0  0
 11 13  1  0  0  0  0
 11 14  1  0  0  0  0
 14 15  2  0  0  0  0
 14 16  1  0  0  0  0
 16 17  1  0  0  0  0
 18 19  2  0  0  0  0
 18 20  1  0  0  0  0
 20 21  1  0  0  0  0
 20 22  1  0  0  0  0
 22 23  1  0  0  0  0
 22 24  1  0  0  0  0
 22 25  1  0  0  0  0
M  END
$$$$

  -OEChem-02102214113D

 25 24  0     1  0  0  0  0  0999 V2000
   -2.7973   -4.0226    0.5538 H   0  0  0  0  0  0  0  0  0  0  0  0
   -2.8324   -2.9927    0.1881 C   0  0  0  0  0  0  0  0  0  0  0  0
   -3.5514   -2.4287    0.7869 H   0  0  0  0  0  0  0  0  0  0  0  0
   -3.1606   -2.9999   -0.8544 H   0  0  0  0  0  0  0  0  0  0  0  0
   -1.4599   -2.3550    0.2892 C   0  0  0  0  0  0  0  0  0  0  0  0
   -0.5237   -2.9888    0.7543 O   0  0  0  0  0  0  0  0  0  0  0  0
   -1.2803   -1.0482   -0.1210 N   0  0  0  0  0  0  0  0  0  0  0  0
   -2.0935   -0.5553   -0.4836 H   0  0  0  0  0  0  0  0  0  0  0  0
    0.0190   -0.3677   -0.2049 C   0  0  1  0  0  0  0  0  0  0  0  0
    0.7415   -0.9277    0.3975 H   0  0  0  0  0  0  0  0  0  0  0  0
    0.6035   -0.2541   -1.6444 C   0  0  0  0  0  0  0  0  0  0  0  0
    0.2532    0.6883   -2.0762 H   0  0  0  0  0  0  0  0  0  0  0  0
    1.6904   -0.1788   -1.5562 H   0  0  0  0  0  0  0  0  0  0  0  0
    0.3034   -1.3126   -2.7142 C   0  0  0  0  0  0  0  0  0  0  0  0
   -0.5923   -2.1318   -2.6027 O   0  0  0  0  0  0  0  0  0  0  0  0
    1.1157   -1.2604   -3.7952 O   0  0  0  0  0  0  0  0  0  0  0  0
    0.8248   -1.9778   -4.3787 H   0  0  0  0  0  0  0  0  0  0  0  0
   -0.0816    1.0454    0.4053 C   0  0  0  0  0  0  0  0  0  0  0  0
   -1.0215    1.7746    0.1113 O   0  0  0  0  0  0  0  0  0  0  0  0
    0.8977    1.5116    1.2633 N   0  0  0  0  0  0  0  0  0  0  0  0
    1.6302    0.8640    1.5397 H   0  0  0  0  0  0  0  0  0  0  0  0
    0.8519    2.8300    1.8845 C   0  0  0  0  0  0  0  0  0  0  0  0
   -0.0400    2.9269    2.5124 H   0  0  0  0  0  0  0  0  0  0  0  0
    1.7355    2.9847    2.5111 H   0  0  0  0  0  0  0  0  0  0  0  0
    0.8308    3.6134    1.1195 H   0  0  0  0  0  0  0  0  0  0  0  0
  1  2  1  0  0  0  0
  2  3  1  0  0  0  0
  2  4  1  0  0  0  0
  2  5  1  0  0  0  0
  5  6  2  0  0  0  0
  5  7  1  0  0  0  0
  7  8  1  0  0  0  0
  7  9  1  0  0  0  0
  9 10  1  0  0  0  0
  9 11  1  0  0  0  0
  9 18  1  0  0  0  0
 11 12  1  0  0  0  0
 11 13  1  0  0  0  0
 11 14  1  0  0  0  0
 14 15  2  0  0  0  0
 14 16  1  0  0  0  0
 16 17  1  0  0  0  0
 18 19  2  0  0  0  0
 18 20  1  0  0  0  0
 20 21  1  0  0  0  0
 20 22  1  0  0  0  0
 22 23  1  0  0  0  0
 22 24  1  0  0  0  0
 22 25  1  0  0  0  0
M  END
$$$$

  -OEChem-02102214113D

 25 24  0     1  0  0  0  0  0999 V2000
   -2.7870   -4.0222    0.5224 H   0  0  0  0  0  0  0  0  0  0  0  0
   -2.8267   -2.9875    0.1712 C   0  0  0  0  0  0  0  0  0  0  0  0
   -3.5430   -2.4332    0.7822 H   0  0  0  0  0  0  0  0  0  0  0  0
   -3.1621   -2.9813   -0.8689 H   0  0  0  0  0  0  0  0  0  0  0  0
   -1.4545   -2.3490    0.2708 C   0  0  0  0  0  0  0  0  0  0  0  0
   -0.5119   -2.9906    0.7113 O   0  0  0  0  0  0  0  0  0  0  0  0
   -1.2775   -1.0397   -0.1304 N   0  0  0  0  0  0  0  0  0  0  0  0
   -2.0910   -0.5486   -0.4957 H   0  0  0  0  0  0  0  0  0  0  0  0
    0.0188   -0.3541   -0.2093 C   0  0  1  0  0  0  0  0  0  0  0  0
    0.7403   -0.9145    0.3945 H   0  0  0  0  0  0  0  0  0  0  0  0
    0.6074   -0.2465   -1.6462 C   0  0  0  0  0  0  0  0  0  0  0  0
    0.2547    0.6903   -2.0878 H   0  0  0  0  0  0  0  0  0  0  0  0
    1.6942   -0.1670   -1.5563 H   0  0  0  0  0  0  0  0  0  0  0  0
    0.3029   -1.3229   -2.6965 C   0  0  0  0  0  0  0  0  0  0  0  0
   -0.7393   -1.9569   -2.6996 O   0  0  0  0  0  0  0  0  0  0  0  0
    1.2756   -1.5079   -3.6191 O   0  0  0  0  0  0  0  0  0  0  0  0
    0.9564   -2.2144   -4.2012 H   0  0  0  0  0  0  0  0  0  0  0  0
   -0.0814    1.0556    0.4077 C   0  0  0  0  0  0  0  0  0  0  0  0
   -1.0226    1.7857    0.1205 O   0  0  0  0  0  0  0  0  0  0  0  0
    0.8987    1.5170    1.2671 N   0  0  0  0  0  0  0  0  0  0  0  0
    1.6356    0.8701    1.5333 H   0  0  0  0  0  0  0  0  0  0  0  0
    0.8506    2.8294    1.9003 C   0  0  0  0  0  0  0  0  0  0  0  0
   -0.0445    2.9214    2.5246 H   0  0  0  0  0  0  0  0  0  0  0  0
    1.7308    2.9767    2.5335 H   0  0  0  0  0  0  0  0  0  0  0  0
    0.8342    3.6200    1.1426 H   0  0  0  0  0  0  0  0  0  0  0  0
  1  2  1  0  0  0  0
  2  3  1  0  0  0  0
  2  4  1  0  0  0  0
  2  5  1  0  0  0  0
  5  6  2  0  0  0  0
  5  7  1  0  0  0  0
  7  8  1  0  0  0  0
  7  9  1  0  0  0  0
  9 10  1  0  0  0  0
  9 11  1  0  0  0  0
  9 18  1  0  0  0  0
 11 12  1  0  0  0  0
 11 13  1  0  0  0  0
 11 14  1  0  0  0  0
 14 15  2  0  0  0  0
 14 16  1  0  0  0  0
 16 17  1  0  0  0  0
 18 19  2  0  0  0  0
 18 20  1  0  0  0  0
 20 21  1  0  0  0  0
 20 22  1  0  0  0  0
 22 23  1  0  0  0  0
 22 24  1  0  0  0  0
 22 25  1  0  0  0  0
M  END
$$$$

  -OEChem-02102214113D

 25 24  0     1  0  0  0  0  0999 V2000
   -2.7733   -4.0231    0.4833 H   0  0  0  0  0  0  0  0  0  0  0  0
   -2.8156   -2.9830    0.1489 C   0  0  0  0  0  0  0  0  0  0  0  0
   -3.5209   -2.4367    0.7794 H   0  0  0  0  0  0  0  0  0  0  0  0
   -3.1668   -2.9593   -0.8857 H   0  0  0  0  0  0  0  0  0  0  0  0
   -1.4413   -2.3484    0.2392 C   0  0  0  0  0  0  0  0  0  0  0  0
   -0.4923   -2.9986    0.6521 O   0  0  0  0  0  0  0  0  0  0  0  0
   -1.2668   -1.0358   -0.1492 N   0  0  0  0  0  0  0  0  0  0  0  0
   -2.0822   -0.5417   -0.5070 H   0  0  0  0  0  0  0  0  0  0  0  0
    0.0251   -0.3410   -0.2135 C   0  0  1  0  0  0  0  0  0  0  0  0
    0.7447   -0.9014    0.3925 H   0  0  0  0  0  0  0  0  0  0  0  0
    0.6163   -0.2350   -1.6469 C   0  0  0  0  0  0  0  0  0  0  0  0
    0.2596    0.6955   -2.0988 H   0  0  0  0  0  0  0  0  0  0  0  0
    1.7031   -0.1517   -1.5606 H   0  0  0  0  0  0  0  0  0  0  0  0
    0.3003   -1.3344   -2.6673 C   0  0  0  0  0  0  0  0  0  0  0  0
   -0.8322   -1.7683   -2.8074 O   0  0  0  0  0  0  0  0  0  0  0  0
    1.3527   -1.7735   -3.3965 O   0  0  0  0  0  0  0  0  0  0  0  0
    1.0017   -2.4660   -3.9769 H   0  0  0  0  0  0  0  0  0  0  0  0
   -0.0818    1.0640    0.4120 C   0  0  0  0  0  0  0  0  0  0  0  0
   -1.0256    1.7918    0.1285 O   0  0  0  0  0  0  0  0  0  0  0  0
    0.8929    1.5216    1.2795 N   0  0  0  0  0  0  0  0  0  0  0  0
    1.6369    0.8787    1.5355 H   0  0  0  0  0  0  0  0  0  0  0  0
    0.8443    2.8328    1.9152 C   0  0  0  0  0  0  0  0  0  0  0  0
   -0.0554    2.9269    2.5327 H   0  0  0  0  0  0  0  0  0  0  0  0
    1.7201    2.9756    2.5555 H   0  0  0  0  0  0  0  0  0  0  0  0
    0.8366    3.6248    1.1588 H   0  0  0  0  0  0  0  0  0  0  0  0
  1  2  1  0  0  0  0
  2  3  1  0  0  0  0
  2  4  1  0  0  0  0
  2  5  1  0  0  0  0
  5  6  2  0  0  0  0
  5  7  1  0  0  0  0
  7  8  1  0  0  0  0
  7  9  1  0  0  0  0
  9 10  1  0  0  0  0
  9 11  1  0  0  0  0
  9 18  1  0  0  0  0
 11 12  1  0  0  0  0
 11 13  1  0  0  0  0
 11 14  1  0  0  0  0
 14 15  2  0  0  0  0
 14 16  1  0  0  0  0
 16 17  1  0  0  0  0
 18 19  2  0  0  0  0
 18 20  1  0  0  0  0
 20 21  1  0  0  0  0
 20 22  1  0  0  0  0
 22 23  1  0  0  0  0
 22 24  1  0  0  0  0
 22 25  1  0  0  0  0
M  END
$$$$

  -OEChem-02102214113D

 25 24  0     1  0  0  0  0  0999 V2000
   -2.7559   -4.0231    0.4398 H   0  0  0  0  0  0  0  0  0  0  0  0
   -2.7992   -2.9777    0.1219 C   0  0  0  0  0  0  0  0  0  0  0  0
   -3.4950   -2.4395    0.7698 H   0  0  0  0  0  0  0  0  0  0  0  0
   -3.1645   -2.9371   -0.9075 H   0  0  0  0  0  0  0  0  0  0  0  0
   -1.4218   -2.3478    0.2043 C   0  0  0  0  0  0  0  0  0  0  0  0
   -0.4677   -3.0072    0.5887 O   0  0  0  0  0  0  0  0  0  0  0  0
   -1.2480   -1.0320   -0.1727 N   0  0  0  0  0  0  0  0  0  0  0  0
   -2.0687   -0.5284   -0.5054 H   0  0  0  0  0  0  0  0  0  0  0  0
    0.0393   -0.3260   -0.2220 C   0  0  1  0  0  0  0  0  0  0  0  0
    0.7592   -0.8862    0.3839 H   0  0  0  0  0  0  0  0  0  0  0  0
    0.6261   -0.2226   -1.6540 C   0  0  0  0  0  0  0  0  0  0  0  0
    0.2602    0.6991   -2.1161 H   0  0  0  0  0  0  0  0  0  0  0  0
    1.7135   -0.1359   -1.5814 H   0  0  0  0  0  0  0  0  0  0  0  0
    0.2894   -1.3496   -2.6316 C   0  0  0  0  0  0  0  0  0  0  0  0
   -0.8717   -1.5875   -2.9268 O   0  0  0  0  0  0  0  0  0  0  0  0
    1.3393   -2.0414   -3.1322 O   0  0  0  0  0  0  0  0  0  0  0  0
    0.9592   -2.7267   -3.7026 H   0  0  0  0  0  0  0  0  0  0  0  0
   -0.0737    1.0758    0.4095 C   0  0  0  0  0  0  0  0  0  0  0  0
   -1.0251    1.7966    0.1343 O   0  0  0  0  0  0  0  0  0  0  0  0
    0.8945    1.5330    1.2847 N   0  0  0  0  0  0  0  0  0  0  0  0
    1.6471    0.8967    1.5319 H   0  0  0  0  0  0  0  0  0  0  0  0
    0.8313    2.8369    1.9343 C   0  0  0  0  0  0  0  0  0  0  0  0
   -0.0776    2.9199    2.5397 H   0  0  0  0  0  0  0  0  0  0  0  0
    1.6968    2.9764    2.5892 H   0  0  0  0  0  0  0  0  0  0  0  0
    0.8311    3.6378    1.1873 H   0  0  0  0  0  0  0  0  0  0  0  0
  1  2  1  0  0  0  0
  2  3  1  0  0  0  0
  2  4  1  0  0  0  0
  2  5  1  0  0  0  0
  5  6  2  0  0  0  0
  5  7  1  0  0  0  0
  7  8  1  0  0  0  0
  7  9  1  0  0  0  0
  9 10  1  0  0  0  0
  9 11  1  0  0  0  0
  9 18  1  0  0  0  0
 11 12  1  0  0  0  0
 11 13  1  0  0  0  0
 11 14  1  0  0  0  0
 14 15  2  0  0  0  0
 14 16  1  0  0  0  0
 16 17  1  0  0  0  0
 18 19  2  0  0  0  0
 18 20  1  0  0  0  0
 20 21  1  0  0  0  0
 20 22  1  0  0  0  0
 22 23  1  0  0  0  0
 22 24  1  0  0  0  0
 22 25  1  0  0  0  0
M  END
$$$$

  -OEChem-02102214113D

 25 24  0     1  0  0  0  0  0999 V2000
   -2.7437   -4.0176    0.4163 H   0  0  0  0  0  0  0  0  0  0  0  0
   -2.7853   -2.9696    0.1069 C   0  0  0  0  0  0  0  0  0  0  0  0
   -3.4676   -2.4324    0.7700 H   0  0  0  0  0  0  0  0  0  0  0  0
   -3.1661   -2.9180   -0.9161 H   0  0  0  0  0  0  0  0  0  0  0  0
   -1.4033   -2.3484    0.1720 C   0  0  0  0  0  0  0  0  0  0  0  0
   -0.4475   -3.0152    0.5373 O   0  0  0  0  0  0  0  0  0  0  0  0
   -1.2280   -1.0313   -0.1986 N   0  0  0  0  0  0  0  0  0  0  0  0
   -2.0532   -0.5163   -0.5025 H   0  0  0  0  0  0  0  0  0  0  0  0
    0.0567   -0.3175   -0.2300 C   0  0  1  0  0  0  0  0  0  0  0  0
    0.7754   -0.8772    0.3780 H   0  0  0  0  0  0  0  0  0  0  0  0
    0.6394   -0.2149   -1.6607 C   0  0  0  0  0  0  0  0  0  0  0  0
    0.2683    0.7011   -2.1305 H   0  0  0  0  0  0  0  0  0  0  0  0
    1.7277   -0.1308   -1.6014 H   0  0  0  0  0  0  0  0  0  0  0  0
    0.2805   -1.3644   -2.5979 C   0  0  0  0  0  0  0  0  0  0  0  0
   -0.8432   -1.4275   -3.0727 O   0  0  0  0  0  0  0  0  0  0  0  0
    1.2539   -2.2676   -2.8587 O   0  0  0  0  0  0  0  0  0  0  0  0
    0.8518   -2.9367   -3.4328 H   0  0  0  0  0  0  0  0  0  0  0  0
   -0.0669    1.0823    0.4029 C   0  0  0  0  0  0  0  0  0  0  0  0
   -1.0238    1.7959    0.1282 O   0  0  0  0  0  0  0  0  0  0  0  0
    0.8911    1.5393    1.2894 N   0  0  0  0  0  0  0  0  0  0  0  0
    1.6474    0.9070    1.5360 H   0  0  0  0  0  0  0  0  0  0  0  0
    0.8152    2.8383    1.9473 C   0  0  0  0  0  0  0  0  0  0  0  0
   -0.0975    2.9110    2.5481 H   0  0  0  0  0  0  0  0  0  0  0  0
    1.6761    2.9791    2.6079 H   0  0  0  0  0  0  0  0  0  0  0  0
    0.8140    3.6437    1.2053 H   0  0  0  0  0  0  0  0  0  0  0  0
  1  2  1  0  0  0  0
  2  3  1  0  0  0  0
  2  4  1  0  0  0  0
  2  5  1  0  0  0  0
  5  6  2  0  0  0  0
  5  7  1  0  0  0  0
  7  8  1  0  0  0  0
  7  9  1  0  0  0  0
  9 10  1  0  0  0  0
  9 11  1  0  0  0  0
  9 18  1  0  0  0  0
 11 12  1  0  0  0  0
 11 13  1  0  0  0  0
 11 14  1  0  0  0  0
 14 15  2  0  0  0  0
 14 16  1  0  0  0  0
 16 17  1  0  0  0  0
 18 19  2  0  0  0  0
 18 20  1  0  0  0  0
 20 21  1  0  0  0  0
 20 22  1  0  0  0  0
 22 23  1  0  0  0  0
 22 24  1  0  0  0  0
 22 25  1  0  0  0  0
M  END
$$$$

  -OEChem-02102214113D

 25 24  0     1  0  0  0  0  0999 V2000
   -2.7451   -4.0108    0.4142 H   0  0  0  0  0  0  0  0  0  0  0  0
   -2.7837   -2.9622    0.1061 C   0  0  0  0  0  0  0  0  0  0  0  0
   -3.4536   -2.4214    0.7789 H   0  0  0  0  0  0  0  0  0  0  0  0
   -3.1784   -2.9085   -0.9117 H   0  0  0  0  0  0  0  0  0  0  0  0
   -1.3965   -2.3502    0.1547 C   0  0  0  0  0  0  0  0  0  0  0  0
   -0.4430   -3.0235    0.5129 O   0  0  0  0  0  0  0  0  0  0  0  0
   -1.2160   -1.0332   -0.2149 N   0  0  0  0  0  0  0  0  0  0  0  0
   -2.0449   -0.5035   -0.4820 H   0  0  0  0  0  0  0  0  0  0  0  0
    0.0694   -0.3175   -0.2346 C   0  0  1  0  0  0  0  0  0  0  0  0
    0.7860   -0.8779    0.3753 H   0  0  0  0  0  0  0  0  0  0  0  0
    0.6508   -0.2146   -1.6642 C   0  0  0  0  0  0  0  0  0  0  0  0
    0.2833    0.7017   -2.1372 H   0  0  0  0  0  0  0  0  0  0  0  0
    1.7401   -0.1400   -1.6113 H   0  0  0  0  0  0  0  0  0  0  0  0
    0.2763   -1.3752   -2.5776 C   0  0  0  0  0  0  0  0  0  0  0  0
   -0.7400   -1.2990   -3.2496 O   0  0  0  0  0  0  0  0  0  0  0  0
    1.1200   -2.4325   -2.6101 O   0  0  0  0  0  0  0  0  0  0  0  0
    0.7187   -3.0805   -3.2079 H   0  0  0  0  0  0  0  0  0  0  0  0
   -0.0612    1.0827    0.3961 C   0  0  0  0  0  0  0  0  0  0  0  0
   -1.0244    1.7883    0.1231 O   0  0  0  0  0  0  0  0  0  0  0  0
    0.8876    1.5419    1.2912 N   0  0  0  0  0  0  0  0  0  0  0  0
    1.6489    0.9153    1.5363 H   0  0  0  0  0  0  0  0  0  0  0  0
    0.8020    2.8392    1.9514 C   0  0  0  0  0  0  0  0  0  0  0  0
   -0.1097    2.9033    2.5547 H   0  0  0  0  0  0  0  0  0  0  0  0
    1.6633    2.9861    2.6102 H   0  0  0  0  0  0  0  0  0  0  0  0
    0.7919    3.6462    1.2111 H   0  0  0  0  0  0  0  0  0  0  0  0
  1  2  1  0  0  0  0
  2  3  1  0  0  0  0
  2  4  1  0  0  0  0
  2  5  1  0  0  0  0
  5  6  2  0  0  0  0
  5  7  1  0  0  0  0
  7  8  1  0  0  0  0
  7  9  1  0  0  0  0
  9 10  1  0  0  0  0
  9 11  1  0  0  0  0
  9 18  1  0  0  0  0
 11 12  1  0  0  0  0
 11 13  1  0  0  0  0
 11 14  1  0  0  0  0
 14 15  2  0  0  0  0
 14 16  1  0  0  0  0
 16 17  1  0  0  0  0
 18 19  2  0  0  0  0
 18 20  1  0  0  0  0
 20 21  1  0  0  0  0
 20 22  1  0  0  0  0
 22 23  1  0  0  0  0
 22 24  1  0  0  0  0
 22 25  1  0  0  0  0
M  END
$$$$

  -OEChem-02102214113D

 25 24  0     1  0  0  0  0  0999 V2000
   -2.7603   -4.0022    0.4342 H   0  0  0  0  0  0  0  0  0  0  0  0
   -2.7925   -2.9550    0.1208 C   0  0  0  0  0  0  0  0  0  0  0  0
   -3.4578   -2.4061    0.7916 H   0  0  0  0  0  0  0  0  0  0  0  0
   -3.1886   -2.9039   -0.8965 H   0  0  0  0  0  0  0  0  0  0  0  0
   -1.4011   -2.3527    0.1652 C   0  0  0  0  0  0  0  0  0  0  0  0
   -0.4564   -3.0261    0.5444 O   0  0  0  0  0  0  0  0  0  0  0  0
   -1.2131   -1.0386   -0.2120 N   0  0  0  0  0  0  0  0  0  0  0  0
   -2.0414   -0.5002   -0.4633 H   0  0  0  0  0  0  0  0  0  0  0  0
    0.0751   -0.3270   -0.2297 C   0  0  1  0  0  0  0  0  0  0  0  0
    0.7910   -0.8875    0.3813 H   0  0  0  0  0  0  0  0  0  0  0  0
    0.6529   -0.2222   -1.6609 C   0  0  0  0  0  0  0  0  0  0  0  0
    0.2905    0.6993   -2.1285 H   0  0  0  0  0  0  0  0  0  0  0  0
    1.7426   -0.1565   -1.6103 H   0  0  0  0  0  0  0  0  0  0  0  0
    0.2715   -1.3791   -2.5758 C   0  0  0  0  0  0  0  0  0  0  0  0
   -0.5737   -1.1971   -3.4366 O   0  0  0  0  0  0  0  0  0  0  0  0
    0.9516   -2.5392   -2.4258 O   0  0  0  0  0  0  0  0  0  0  0  0
    0.5860   -3.1560   -3.0768 H   0  0  0  0  0  0  0  0  0  0  0  0
   -0.0586    1.0766    0.3930 C   0  0  0  0  0  0  0  0  0  0  0  0
   -1.0231    1.7787    0.1148 O   0  0  0  0  0  0  0  0  0  0  0  0
    0.8850    1.5399    1.2912 N   0  0  0  0  0  0  0  0  0  0  0  0
    1.6464    0.9154    1.5418 H   0  0  0  0  0  0  0  0  0  0  0  0
    0.7943    2.8397    1.9458 C   0  0  0  0  0  0  0  0  0  0  0  0
   -0.1209    2.9052    2.5436 H   0  0  0  0  0  0  0  0  0  0  0  0
    1.6517    2.9902    2.6090 H   0  0  0  0  0  0  0  0  0  0  0  0
    0.7878    3.6436    1.2020 H   0  0  0  0  0  0  0  0  0  0  0  0
  1  2  1  0  0  0  0
  2  3  1  0  0  0  0
  2  4  1  0  0  0  0
  2  5  1  0  0  0  0
  5  6  2  0  0  0  0
  5  7  1  0  0  0  0
  7  8  1  0  0  0  0
  7  9  1  0  0  0  0
  9 10  1  0  0  0  0
  9 11  1  0  0  0  0
  9 18  1  0  0  0  0
 11 12  1  0  0  0  0
 11 13  1  0  0  0  0
 11 14  1  0  0  0  0
 14 15  2  0  0  0  0
 14 16  1  0  0  0  0
 16 17  1  0  0  0  0
 18 19  2  0  0  0  0
 18 20  1  0  0  0  0
 20 21  1  0  0  0  0
 20 22  1  0  0  0  0
 22 23  1  0  0  0  0
 22 24  1  0  0  0  0
 22 25  1  0  0  0  0
M  END
$$$$

  -OEChem-02102214113D

 25 24  0     1  0  0  0  0  0999 V2000
   -2.7804   -3.9991    0.4614 H   0  0  0  0  0  0  0  0  0  0  0  0
   -2.8067   -2.9542    0.1399 C   0  0  0  0  0  0  0  0  0  0  0  0
   -3.4789   -2.3994    0.7988 H   0  0  0  0  0  0  0  0  0  0  0  0
   -3.1904   -2.9097   -0.8822 H   0  0  0  0  0  0  0  0  0  0  0  0
   -1.4143   -2.3546    0.1961 C   0  0  0  0  0  0  0  0  0  0  0  0
   -0.4824   -3.0194    0.6195 O   0  0  0  0  0  0  0  0  0  0  0  0
   -1.2185   -1.0447   -0.1938 N   0  0  0  0  0  0  0  0  0  0  0  0
   -2.0435   -0.5043   -0.4508 H   0  0  0  0  0  0  0  0  0  0  0  0
    0.0742   -0.3411   -0.2189 C   0  0  1  0  0  0  0  0  0  0  0  0
    0.7912   -0.9021    0.3901 H   0  0  0  0  0  0  0  0  0  0  0  0
    0.6470   -0.2299   -1.6532 C   0  0  0  0  0  0  0  0  0  0  0  0
    0.2898    0.7001   -2.1084 H   0  0  0  0  0  0  0  0  0  0  0  0
    1.7370   -0.1718   -1.6024 H   0  0  0  0  0  0  0  0  0  0  0  0
    0.2648   -1.3707   -2.5889 C   0  0  0  0  0  0  0  0  0  0  0  0
   -0.3567   -1.1091   -3.6051 O   0  0  0  0  0  0  0  0  0  0  0  0
    0.7404   -2.6036   -2.3014 O   0  0  0  0  0  0  0  0  0  0  0  0
    0.4371   -3.1873   -3.0120 H   0  0  0  0  0  0  0  0  0  0  0  0
   -0.0580    1.0676    0.3933 C   0  0  0  0  0  0  0  0  0  0  0  0
   -1.0221    1.7683    0.1098 O   0  0  0  0  0  0  0  0  0  0  0  0
    0.8853    1.5368    1.2889 N   0  0  0  0  0  0  0  0  0  0  0  0
    1.6435    0.9120    1.5482 H   0  0  0  0  0  0  0  0  0  0  0  0
    0.7956    2.8420    1.9327 C   0  0  0  0  0  0  0  0  0  0  0  0
   -0.1246    2.9167    2.5217 H   0  0  0  0  0  0  0  0  0  0  0  0
    1.6478    2.9935    2.6023 H   0  0  0  0  0  0  0  0  0  0  0  0
    0.7996    3.6400    1.1827 H   0  0  0  0  0  0  0  0  0  0  0  0
  1  2  1  0  0  0  0
  2  3  1  0  0  0  0
  2  4  1  0  0  0  0
  2  5  1  0  0  0  0
  5  6  2  0  0  0  0
  5  7  1  0  0  0  0
  7  8  1  0  0  0  0
  7  9  1  0  0  0  0
  9 10  1  0  0  0  0
  9 11  1  0  0  0  0
  9 18  1  0  0  0  0
 11 12  1  0  0  0  0
 11 13  1  0  0  0  0
 11 14  1  0  0  0  0
 14 15  2  0  0  0  0
 14 16  1  0  0  0  0
 16 17  1  0  0  0  0
 18 19  2  0  0  0  0
 18 20  1  0  0  0  0
 20 21  1  0  0  0  0
 20 22  1  0  0  0  0
 22 23  1  0  0  0  0
 22 24  1  0  0  0  0
 22 25  1  0  0  0  0
M  END
$$$$

  -OEChem-02102214113D

 25 24  0     1  0  0  0  0  0999 V2000
   -2.7974   -3.9953    0.4952 H   0  0  0  0  0  0  0  0  0  0  0  0
   -2.8202   -2.9542    0.1613 C   0  0  0  0  0  0  0  0  0  0  0  0
   -3.5048   -2.3932    0.8019 H   0  0  0  0  0  0  0  0  0  0  0  0
   -3.1858   -2.9227   -0.8678 H   0  0  0  0  0  0  0  0  0  0  0  0
   -1.4300   -2.3515    0.2356 C   0  0  0  0  0  0  0  0  0  0  0  0
   -0.5101   -3.0027    0.7049 O   0  0  0  0  0  0  0  0  0  0  0  0
   -1.2290   -1.0465   -0.1690 N   0  0  0  0  0  0  0  0  0  0  0  0
   -2.0501   -0.5072   -0.4396 H   0  0  0  0  0  0  0  0  0  0  0  0
    0.0689   -0.3540   -0.2071 C   0  0  1  0  0  0  0  0  0  0  0  0
    0.7879   -0.9144    0.3998 H   0  0  0  0  0  0  0  0  0  0  0  0
    0.6357   -0.2390   -1.6459 C   0  0  0  0  0  0  0  0  0  0  0  0
    0.2856    0.6999   -2.0880 H   0  0  0  0  0  0  0  0  0  0  0  0
    1.7258   -0.1886   -1.5929 H   0  0  0  0  0  0  0  0  0  0  0  0
    0.2575   -1.3575   -2.6127 C   0  0  0  0  0  0  0  0  0  0  0  0
   -0.1000   -1.0428   -3.7352 O   0  0  0  0  0  0  0  0  0  0  0  0
    0.4877   -2.6367   -2.2393 O   0  0  0  0  0  0  0  0  0  0  0  0
    0.2629   -3.1896   -3.0019 H   0  0  0  0  0  0  0  0  0  0  0  0
   -0.0587    1.0600    0.3946 C   0  0  0  0  0  0  0  0  0  0  0  0
   -1.0189    1.7635    0.1033 O   0  0  0  0  0  0  0  0  0  0  0  0
    0.8878    1.5341    1.2842 N   0  0  0  0  0  0  0  0  0  0  0  0
    1.6374    0.9047    1.5571 H   0  0  0  0  0  0  0  0  0  0  0  0
    0.8007    2.8436    1.9198 C   0  0  0  0  0  0  0  0  0  0  0  0
   -0.1160    2.9213    2.5139 H   0  0  0  0  0  0  0  0  0  0  0  0
    1.6569    3.0004    2.5829 H   0  0  0  0  0  0  0  0  0  0  0  0
    0.7992    3.6367    1.1646 H   0  0  0  0  0  0  0  0  0  0  0  0
  1  2  1  0  0  0  0
  2  3  1  0  0  0  0
  2  4  1  0  0  0  0
  2  5  1  0  0  0  0
  5  6  2  0  0  0  0
  5  7  1  0  0  0  0
  7  8  1  0  0  0  0
  7  9  1  0  0  0  0
  9 10  1  0  0  0  0
  9 11  1  0  0  0  0
  9 18  1  0  0  0  0
 11 12  1  0  0  0  0
 11 13  1  0  0  0  0
 11 14  1  0  0  0  0
 14 15  2  0  0  0  0
 14 16  1  0  0  0  0
 16 17  1  0  0  0  0
 18 19  2  0  0  0  0
 18 20  1  0  0  0  0
 20 21  1  0  0  0  0
 20 22  1  0  0  0  0
 22 23  1  0  0  0  0
 22 24  1  0  0  0  0
 22 25  1  0  0  0  0
M  END
$$$$

  -OEChem-02102214113D

 25 24  0     1  0  0  0  0  0999 V2000
   -2.8195   -3.9872    0.5510 H   0  0  0  0  0  0  0  0  0  0  0  0
   -2.8372   -2.9540    0.1933 C   0  0  0  0  0  0  0  0  0  0  0  0
   -3.5317   -2.3786    0.8099 H   0  0  0  0  0  0  0  0  0  0  0  0
   -3.1858   -2.9461   -0.8421 H   0  0  0  0  0  0  0  0  0  0  0  0
   -1.4486   -2.3490    0.2747 C   0  0  0  0  0  0  0  0  0  0  0  0
   -0.5333   -2.9918    0.7660 O   0  0  0  0  0  0  0  0  0  0  0  0
   -1.2452   -1.0481   -0.1431 N   0  0  0  0  0  0  0  0  0  0  0  0
   -2.0628   -0.5138   -0.4324 H   0  0  0  0  0  0  0  0  0  0  0  0
    0.0569   -0.3654   -0.1963 C   0  0  1  0  0  0  0  0  0  0  0  0
    0.7762   -0.9252    0.4109 H   0  0  0  0  0  0  0  0  0  0  0  0
    0.6255   -0.2472   -1.6369 C   0  0  0  0  0  0  0  0  0  0  0  0
    0.2773    0.6975   -2.0680 H   0  0  0  0  0  0  0  0  0  0  0  0
    1.7154   -0.1948   -1.5751 H   0  0  0  0  0  0  0  0  0  0  0  0
    0.2668   -1.3380   -2.6458 C   0  0  0  0  0  0  0  0  0  0  0  0
    0.2062   -1.0022   -3.8163 O   0  0  0  0  0  0  0  0  0  0  0  0
    0.2035   -2.6280   -2.2467 O   0  0  0  0  0  0  0  0  0  0  0  0
    0.0690   -3.1536   -3.0490 H   0  0  0  0  0  0  0  0  0  0  0  0
   -0.0647    1.0531    0.3968 C   0  0  0  0  0  0  0  0  0  0  0  0
   -1.0214    1.7599    0.1017 O   0  0  0  0  0  0  0  0  0  0  0  0
    0.8881    1.5297    1.2779 N   0  0  0  0  0  0  0  0  0  0  0  0
    1.6350    0.8980    1.5526 H   0  0  0  0  0  0  0  0  0  0  0  0
    0.8084    2.8428    1.9066 C   0  0  0  0  0  0  0  0  0  0  0  0
   -0.0903    2.9163    2.5281 H   0  0  0  0  0  0  0  0  0  0  0  0
    1.6835    3.0122    2.5413 H   0  0  0  0  0  0  0  0  0  0  0  0
    0.7766    3.6305    1.1463 H   0  0  0  0  0  0  0  0  0  0  0  0
  1  2  1  0  0  0  0
  2  3  1  0  0  0  0
  2  4  1  0  0  0  0
  2  5  1  0  0  0  0
  5  6  2  0  0  0  0
  5  7  1  0  0  0  0
  7  8  1  0  0  0  0
  7  9  1  0  0  0  0
  9 10  1  0  0  0  0
  9 11  1  0  0  0  0
  9 18  1  0  0  0  0
 11 12  1  0  0  0  0
 11 13  1  0  0  0  0
 11 14  1  0  0  0  0
 14 15  2  0  0  0  0
 14 16  1  0  0  0  0
 16 17  1  0  0  0  0
 18 19  2  0  0  0  0
 18 20  1  0  0  0  0
 20 21  1  0  0  0  0
 20 22  1  0  0  0  0
 22 23  1  0  0  0  0
 22 24  1  0  0  0  0
 22 25  1  0  0  0  0
M  END
$$$$

  -OEChem-02102214113D

 25 24  0     1  0  0  0  0  0999 V2000
   -2.8311   -3.9823    0.6087 H   0  0  0  0  0  0  0  0  0  0  0  0
   -2.8507   -2.9536    0.2381 C   0  0  0  0  0  0  0  0  0  0  0  0
   -3.5398   -2.3698    0.8528 H   0  0  0  0  0  0  0  0  0  0  0  0
   -3.2075   -2.9580   -0.7946 H   0  0  0  0  0  0  0  0  0  0  0  0
   -1.4607   -2.3495    0.3016 C   0  0  0  0  0  0  0  0  0  0  0  0
   -0.5390   -2.9931    0.7808 O   0  0  0  0  0  0  0  0  0  0  0  0
   -1.2596   -1.0501   -0.1230 N   0  0  0  0  0  0  0  0  0  0  0  0
   -2.0774   -0.5184   -0.4153 H   0  0  0  0  0  0  0  0  0  0  0  0
    0.0444   -0.3743   -0.1927 C   0  0  1  0  0  0  0  0  0  0  0  0
    0.7639   -0.9328    0.4151 H   0  0  0  0  0  0  0  0  0  0  0  0
    0.6224   -0.2547   -1.6321 C   0  0  0  0  0  0  0  0  0  0  0  0
    0.2754    0.6933   -2.0567 H   0  0  0  0  0  0  0  0  0  0  0  0
    1.7110   -0.1961   -1.5551 H   0  0  0  0  0  0  0  0  0  0  0  0
    0.2934   -1.3198   -2.6823 C   0  0  0  0  0  0  0  0  0  0  0  0
    0.5387   -1.0118   -3.8363 O   0  0  0  0  0  0  0  0  0  0  0  0
   -0.1147   -2.5587   -2.3273 O   0  0  0  0  0  0  0  0  0  0  0  0
   -0.1661   -3.0694   -3.1489 H   0  0  0  0  0  0  0  0  0  0  0  0
   -0.0732    1.0454    0.3994 C   0  0  0  0  0  0  0  0  0  0  0  0
   -1.0307    1.7526    0.1074 O   0  0  0  0  0  0  0  0  0  0  0  0
    0.8865    1.5251    1.2715 N   0  0  0  0  0  0  0  0  0  0  0  0
    1.6357    0.8944    1.5427 H   0  0  0  0  0  0  0  0  0  0  0  0
    0.8134    2.8417    1.8938 C   0  0  0  0  0  0  0  0  0  0  0  0
   -0.0830    2.9215    2.5179 H   0  0  0  0  0  0  0  0  0  0  0  0
    1.6910    3.0108    2.5249 H   0  0  0  0  0  0  0  0  0  0  0  0
    0.7822    3.6258    1.1298 H   0  0  0  0  0  0  0  0  0  0  0  0
  1  2  1  0  0  0  0
  2  3  1  0  0  0  0
  2  4  1  0  0  0  0
  2  5  1  0  0  0  0
  5  6  2  0  0  0  0
  5  7  1  0  0  0  0
  7  8  1  0  0  0  0
  7  9  1  0  0  0  0
  9 10  1  0  0  0  0
  9 11  1  0  0  0  0
  9 18  1  0  0  0  0
 11 12  1  0  0  0  0
 11 13  1  0  0  0  0
 11 14  1  0  0  0  0
 14 15  2  0  0  0  0
 14 16  1  0  0  0  0
 16 17  1  0  0  0  0
 18 19  2  0  0  0  0
 18 20  1  0  0  0  0
 20 21  1  0  0  0  0
 20 22  1  0  0  0  0
 22 23  1  0  0  0  0
 22 24  1  0  0  0  0
 22 25  1  0  0  0  0
M  END
$$$$

  -OEChem-02102214113D

 25 24  0     1  0  0  0  0  0999 V2000
   -2.7895   -4.0077    0.6648 H   0  0  0  0  0  0  0  0  0  0  0  0
   -2.8383   -2.9716    0.3186 C   0  0  0  0  0  0  0  0  0  0  0  0
   -3.4891   -2.4051    0.9888 H   0  0  0  0  0  0  0  0  0  0  0  0
   -3.2604   -2.9561   -0.6891 H   0  0  0  0  0  0  0  0  0  0  0  0
   -1.4506   -2.3593    0.3047 C   0  0  0  0  0  0  0  0  0  0  0  0
   -0.4881   -3.0206    0.6651 O   0  0  0  0  0  0  0  0  0  0  0  0
   -1.2839   -1.0492   -0.0982 N   0  0  0  0  0  0  0  0  0  0  0  0
   -2.1172   -0.5273   -0.3625 H   0  0  0  0  0  0  0  0  0  0  0  0
    0.0078   -0.3608   -0.2062 C   0  0  1  0  0  0  0  0  0  0  0  0
    0.7390   -0.9142    0.3921 H   0  0  0  0  0  0  0  0  0  0  0  0
    0.5874   -0.2453   -1.6492 C   0  0  0  0  0  0  0  0  0  0  0  0
    0.4704    0.7931   -1.9754 H   0  0  0  0  0  0  0  0  0  0  0  0
    1.6610   -0.4420   -1.5855 H   0  0  0  0  0  0  0  0  0  0  0  0
    0.0469   -1.0907   -2.8127 C   0  0  0  0  0  0  0  0  0  0  0  0
    0.6017   -0.8883   -3.8795 O   0  0  0  0  0  0  0  0  0  0  0  0
   -0.9627   -1.9832   -2.6760 O   0  0  0  0  0  0  0  0  0  0  0  0
   -1.0796   -2.3793   -3.5528 H   0  0  0  0  0  0  0  0  0  0  0  0
   -0.1017    1.0451    0.4203 C   0  0  0  0  0  0  0  0  0  0  0  0
   -1.0712    1.7515    0.1698 O   0  0  0  0  0  0  0  0  0  0  0  0
    0.8853    1.5201    1.2643 N   0  0  0  0  0  0  0  0  0  0  0  0
    1.6555    0.8971    1.4897 H   0  0  0  0  0  0  0  0  0  0  0  0
    0.8315    2.8325    1.8978 C   0  0  0  0  0  0  0  0  0  0  0  0
   -0.0529    2.9133    2.5386 H   0  0  0  0  0  0  0  0  0  0  0  0
    1.7212    2.9924    2.5146 H   0  0  0  0  0  0  0  0  0  0  0  0
    0.7904    3.6222    1.1401 H   0  0  0  0  0  0  0  0  0  0  0  0
  1  2  1  0  0  0  0
  2  3  1  0  0  0  0
  2  4  1  0  0  0  0
  2  5  1  0  0  0  0
  5  6  2  0  0  0  0
  5  7  1  0  0  0  0
  7  8  1  0  0  0  0
  7  9  1  0  0  0  0
  9 10  1  0  0  0  0
  9 11  1  0  0  0  0
  9 18  1  0  0  0  0
 11 12  1  0  0  0  0
 11 13  1  0  0  0  0
 11 14  1  0  0  0  0
 14 15  2  0  0  0  0
 14 16  1  0  0  0  0
 16 17  1  0  0  0  0
 18 19  2  0  0  0  0
 18 20  1  0  0  0  0
 20 21  1  0  0  0  0
 20 22  1  0  0  0  0
 22 23  1  0  0  0  0
 22 24  1  0  0  0  0
 22 25  1  0  0  0  0
M  END
$$$$

  -OEChem-02102214113D

 25 24  0     1  0  0  0  0  0999 V2000
   -2.7716   -4.0215    0.6319 H   0  0  0  0  0  0  0  0  0  0  0  0
   -2.8251   -2.9806    0.3013 C   0  0  0  0  0  0  0  0  0  0  0  0
   -3.4840   -2.4288    0.9760 H   0  0  0  0  0  0  0  0  0  0  0  0
   -3.2417   -2.9522   -0.7084 H   0  0  0  0  0  0  0  0  0  0  0  0
   -1.4415   -2.3587    0.3044 C   0  0  0  0  0  0  0  0  0  0  0  0
   -0.4750   -3.0188    0.6554 O   0  0  0  0  0  0  0  0  0  0  0  0
   -1.2801   -1.0477   -0.0939 N   0  0  0  0  0  0  0  0  0  0  0  0
   -2.1120   -0.5414   -0.3916 H   0  0  0  0  0  0  0  0  0  0  0  0
    0.0066   -0.3518   -0.2046 C   0  0  1  0  0  0  0  0  0  0  0  0
    0.7404   -0.9035    0.3926 H   0  0  0  0  0  0  0  0  0  0  0  0
    0.5819   -0.2468   -1.6491 C   0  0  0  0  0  0  0  0  0  0  0  0
    0.4483    0.7847   -1.9894 H   0  0  0  0  0  0  0  0  0  0  0  0
    1.6590   -0.4271   -1.5875 H   0  0  0  0  0  0  0  0  0  0  0  0
    0.0348   -1.1122   -2.7941 C   0  0  0  0  0  0  0  0  0  0  0  0
    0.7459   -1.1485   -3.7839 O   0  0  0  0  0  0  0  0  0  0  0  0
   -1.1923   -1.6869   -2.7587 O   0  0  0  0  0  0  0  0  0  0  0  0
   -1.2959   -2.1262   -3.6166 H   0  0  0  0  0  0  0  0  0  0  0  0
   -0.0986    1.0530    0.4238 C   0  0  0  0  0  0  0  0  0  0  0  0
   -1.0668    1.7625    0.1777 O   0  0  0  0  0  0  0  0  0  0  0  0
    0.8946    1.5250    1.2620 N   0  0  0  0  0  0  0  0  0  0  0  0
    1.6622    0.8981    1.4859 H   0  0  0  0  0  0  0  0  0  0  0  0
    0.8389    2.8304    1.9090 C   0  0  0  0  0  0  0  0  0  0  0  0
   -0.0425    2.9007    2.5552 H   0  0  0  0  0  0  0  0  0  0  0  0
    1.7310    2.9873    2.5230 H   0  0  0  0  0  0  0  0  0  0  0  0
    0.7909    3.6278    1.1598 H   0  0  0  0  0  0  0  0  0  0  0  0
  1  2  1  0  0  0  0
  2  3  1  0  0  0  0
  2  4  1  0  0  0  0
  2  5  1  0  0  0  0
  5  6  2  0  0  0  0
  5  7  1  0  0  0  0
  7  8  1  0  0  0  0
  7  9  1  0  0  0  0
  9 10  1  0  0  0  0
  9 11  1  0  0  0  0
  9 18  1  0  0  0  0
 11 12  1  0  0  0  0
 11 13  1  0  0  0  0
 11 14  1  0  0  0  0
 14 15  2  0  0  0  0
 14 16  1  0  0  0  0
 16 17  1  0  0  0  0
 18 19  2  0  0  0  0
 18 20  1  0  0  0  0
 20 21  1  0  0  0  0
 20 22  1  0  0  0  0
 22 23  1  0  0  0  0
 22 24  1  0  0  0  0
 22 25  1  0  0  0  0
M  END
$$$$

  -OEChem-02102214113D

 25 24  0     1  0  0  0  0  0999 V2000
   -2.7584   -4.0301    0.5898 H   0  0  0  0  0  0  0  0  0  0  0  0
   -2.8129   -2.9859    0.2698 C   0  0  0  0  0  0  0  0  0  0  0  0
   -3.4723   -2.4419    0.9503 H   0  0  0  0  0  0  0  0  0  0  0  0
   -3.2298   -2.9473   -0.7395 H   0  0  0  0  0  0  0  0  0  0  0  0
   -1.4305   -2.3619    0.2804 C   0  0  0  0  0  0  0  0  0  0  0  0
   -0.4629   -3.0230    0.6250 O   0  0  0  0  0  0  0  0  0  0  0  0
   -1.2703   -1.0484   -0.1087 N   0  0  0  0  0  0  0  0  0  0  0  0
   -2.1004   -0.5469   -0.4204 H   0  0  0  0  0  0  0  0  0  0  0  0
    0.0137   -0.3449   -0.2064 C   0  0  1  0  0  0  0  0  0  0  0  0
    0.7483   -0.8974    0.3886 H   0  0  0  0  0  0  0  0  0  0  0  0
    0.5824   -0.2393   -1.6514 C   0  0  0  0  0  0  0  0  0  0  0  0
    0.4397    0.7876   -2.0008 H   0  0  0  0  0  0  0  0  0  0  0  0
    1.6609   -0.4145   -1.6003 H   0  0  0  0  0  0  0  0  0  0  0  0
    0.0077   -1.1246   -2.7647 C   0  0  0  0  0  0  0  0  0  0  0  0
    0.7917   -1.4270   -3.6483 O   0  0  0  0  0  0  0  0  0  0  0  0
   -1.3210   -1.3872   -2.8449 O   0  0  0  0  0  0  0  0  0  0  0  0
   -1.4370   -1.8809   -3.6711 H   0  0  0  0  0  0  0  0  0  0  0  0
   -0.0949    1.0574    0.4272 C   0  0  0  0  0  0  0  0  0  0  0  0
   -1.0605    1.7689    0.1778 O   0  0  0  0  0  0  0  0  0  0  0  0
    0.8946    1.5257    1.2722 N   0  0  0  0  0  0  0  0  0  0  0  0
    1.6573    0.8950    1.5025 H   0  0  0  0  0  0  0  0  0  0  0  0
    0.8395    2.8308    1.9202 C   0  0  0  0  0  0  0  0  0  0  0  0
   -0.0395    2.8999    2.5698 H   0  0  0  0  0  0  0  0  0  0  0  0
    1.7337    2.9884    2.5308 H   0  0  0  0  0  0  0  0  0  0  0  0
    0.7879    3.6285    1.1716 H   0  0  0  0  0  0  0  0  0  0  0  0
  1  2  1  0  0  0  0
  2  3  1  0  0  0  0
  2  4  1  0  0  0  0
  2  5  1  0  0  0  0
  5  6  2  0  0  0  0
  5  7  1  0  0  0  0
  7  8  1  0  0  0  0
  7  9  1  0  0  0  0
  9 10  1  0  0  0  0
  9 11  1  0  0  0  0
  9 18  1  0  0  0  0
 11 12  1  0  0  0  0
 11 13  1  0  0  0  0
 11 14  1  0  0  0  0
 14 15  2  0  0  0  0
 14 16  1  0  0  0  0
 16 17  1  0  0  0  0
 18 19  2  0  0  0  0
 18 20  1  0  0  0  0
 20 21  1  0  0  0  0
 20 22  1  0  0  0  0
 22 23  1  0  0  0  0
 22 24  1  0  0  0  0
 22 25  1  0  0  0  0
M  END
$$$$

  -OEChem-02102214113D

 25 24  0     1  0  0  0  0  0999 V2000
   -2.7528   -4.0279    0.5387 H   0  0  0  0  0  0  0  0  0  0  0  0
   -2.8049   -2.9802    0.2300 C   0  0  0  0  0  0  0  0  0  0  0  0
   -3.4636   -2.4423    0.9160 H   0  0  0  0  0  0  0  0  0  0  0  0
   -3.2217   -2.9298   -0.7788 H   0  0  0  0  0  0  0  0  0  0  0  0
   -1.4210   -2.3596    0.2486 C   0  0  0  0  0  0  0  0  0  0  0  0
   -0.4560   -3.0238    0.5933 O   0  0  0  0  0  0  0  0  0  0  0  0
   -1.2564   -1.0446   -0.1330 N   0  0  0  0  0  0  0  0  0  0  0  0
   -2.0859   -0.5349   -0.4338 H   0  0  0  0  0  0  0  0  0  0  0  0
    0.0275   -0.3371   -0.2148 C   0  0  1  0  0  0  0  0  0  0  0  0
    0.7616   -0.8923    0.3786 H   0  0  0  0  0  0  0  0  0  0  0  0
    0.5886   -0.2271   -1.6597 C   0  0  0  0  0  0  0  0  0  0  0  0
    0.4424    0.7973   -2.0149 H   0  0  0  0  0  0  0  0  0  0  0  0
    1.6675   -0.4044   -1.6240 H   0  0  0  0  0  0  0  0  0  0  0  0
   -0.0210   -1.1275   -2.7371 C   0  0  0  0  0  0  0  0  0  0  0  0
    0.7627   -1.6918   -3.4812 O   0  0  0  0  0  0  0  0  0  0  0  0
   -1.3631   -1.1349   -2.9371 O   0  0  0  0  0  0  0  0  0  0  0  0
   -1.5049   -1.6911   -3.7184 H   0  0  0  0  0  0  0  0  0  0  0  0
   -0.0863    1.0628    0.4224 C   0  0  0  0  0  0  0  0  0  0  0  0
   -1.0542    1.7717    0.1744 O   0  0  0  0  0  0  0  0  0  0  0  0
    0.8959    1.5277    1.2775 N   0  0  0  0  0  0  0  0  0  0  0  0
    1.6627    0.9003    1.5028 H   0  0  0  0  0  0  0  0  0  0  0  0
    0.8318    2.8274    1.9353 C   0  0  0  0  0  0  0  0  0  0  0  0
   -0.0501    2.8863    2.5819 H   0  0  0  0  0  0  0  0  0  0  0  0
    1.7232    2.9849    2.5502 H   0  0  0  0  0  0  0  0  0  0  0  0
    0.7785    3.6311    1.1932 H   0  0  0  0  0  0  0  0  0  0  0  0
  1  2  1  0  0  0  0
  2  3  1  0  0  0  0
  2  4  1  0  0  0  0
  2  5  1  0  0  0  0
  5  6  2  0  0  0  0
  5  7  1  0  0  0  0
  7  8  1  0  0  0  0
  7  9  1  0  0  0  0
  9 10  1  0  0  0  0
  9 11  1  0  0  0  0
  9 18  1  0  0  0  0
 11 12  1  0  0  0  0
 11 13  1  0  0  0  0
 11 14  1  0  0  0  0
 14 15  2  0  0  0  0
 14 16  1  0  0  0  0
 16 17  1  0  0  0  0
 18 19  2  0  0  0  0
 18 20  1  0  0  0  0
 20 21  1  0  0  0  0
 20 22  1  0  0  0  0
 22 23  1  0  0  0  0
 22 24  1  0  0  0  0
 22 25  1  0  0  0  0
M  END
$$$$

  -OEChem-02102214113D

 25 24  0     1  0  0  0  0  0999 V2000
   -2.7499   -4.0173    0.4938 H   0  0  0  0  0  0  0  0  0  0  0  0
   -2.7982   -2.9678    0.1909 C   0  0  0  0  0  0  0  0  0  0  0  0
   -3.4542   -2.4307    0.8802 H   0  0  0  0  0  0  0  0  0  0  0  0
   -3.2150   -2.9108   -0.8175 H   0  0  0  0  0  0  0  0  0  0  0  0
   -1.4119   -2.3530    0.2123 C   0  0  0  0  0  0  0  0  0  0  0  0
   -0.4509   -3.0201    0.5613 O   0  0  0  0  0  0  0  0  0  0  0  0
   -1.2422   -1.0368   -0.1629 N   0  0  0  0  0  0  0  0  0  0  0  0
   -2.0714   -0.5170   -0.4478 H   0  0  0  0  0  0  0  0  0  0  0  0
    0.0440   -0.3291   -0.2270 C   0  0  1  0  0  0  0  0  0  0  0  0
    0.7765   -0.8876    0.3655 H   0  0  0  0  0  0  0  0  0  0  0  0
    0.6000   -0.2145   -1.6713 C   0  0  0  0  0  0  0  0  0  0  0  0
    0.4567    0.8092   -2.0295 H   0  0  0  0  0  0  0  0  0  0  0  0
    1.6776   -0.4007   -1.6490 H   0  0  0  0  0  0  0  0  0  0  0  0
   -0.0394   -1.1235   -2.7198 C   0  0  0  0  0  0  0  0  0  0  0  0
    0.6858   -1.9188   -3.2920 O   0  0  0  0  0  0  0  0  0  0  0  0
   -1.3418   -0.9352   -3.0490 O   0  0  0  0  0  0  0  0  0  0  0  0
   -1.5203   -1.5564   -3.7713 H   0  0  0  0  0  0  0  0  0  0  0  0
   -0.0758    1.0686    0.4137 C   0  0  0  0  0  0  0  0  0  0  0  0
   -1.0446    1.7755    0.1642 O   0  0  0  0  0  0  0  0  0  0  0  0
    0.8966    1.5302    1.2819 N   0  0  0  0  0  0  0  0  0  0  0  0
    1.6617    0.9024    1.5120 H   0  0  0  0  0  0  0  0  0  0  0  0
    0.8208    2.8239    1.9504 C   0  0  0  0  0  0  0  0  0  0  0  0
   -0.0677    2.8739    2.5886 H   0  0  0  0  0  0  0  0  0  0  0  0
    1.7054    2.9795    2.5755 H   0  0  0  0  0  0  0  0  0  0  0  0
    0.7718    3.6335    1.2145 H   0  0  0  0  0  0  0  0  0  0  0  0
  1  2  1  0  0  0  0
  2  3  1  0  0  0  0
  2  4  1  0  0  0  0
  2  5  1  0  0  0  0
  5  6  2  0  0  0  0
  5  7  1  0  0  0  0
  7  8  1  0  0  0  0
  7  9  1  0  0  0  0
  9 10  1  0  0  0  0
  9 11  1  0  0  0  0
  9 18  1  0  0  0  0
 11 12  1  0  0  0  0
 11 13  1  0  0  0  0
 11 14  1  0  0  0  0
 14 15  2  0  0  0  0
 14 16  1  0  0  0  0
 16 17  1  0  0  0  0
 18 19  2  0  0  0  0
 18 20  1  0  0  0  0
 20 21  1  0  0  0  0
 20 22  1  0  0  0  0
 22 23  1  0  0  0  0
 22 24  1  0  0  0  0
 22 25  1  0  0  0  0
M  END
$$$$

  -OEChem-02102214113D

 25 24  0     1  0  0  0  0  0999 V2000
   -2.7471   -4.0098    0.4659 H   0  0  0  0  0  0  0  0  0  0  0  0
   -2.7929   -2.9611    0.1594 C   0  0  0  0  0  0  0  0  0  0  0  0
   -3.4499   -2.4211    0.8455 H   0  0  0  0  0  0  0  0  0  0  0  0
   -3.2074   -2.9065   -0.8500 H   0  0  0  0  0  0  0  0  0  0  0  0
   -1.4056   -2.3485    0.1819 C   0  0  0  0  0  0  0  0  0  0  0  0
   -0.4473   -3.0162    0.5365 O   0  0  0  0  0  0  0  0  0  0  0  0
   -1.2343   -1.0305   -0.1882 N   0  0  0  0  0  0  0  0  0  0  0  0
   -2.0658   -0.4992   -0.4441 H   0  0  0  0  0  0  0  0  0  0  0  0
    0.0533   -0.3222   -0.2375 C   0  0  1  0  0  0  0  0  0  0  0  0
    0.7828   -0.8838    0.3559 H   0  0  0  0  0  0  0  0  0  0  0  0
    0.6107   -0.2031   -1.6795 C   0  0  0  0  0  0  0  0  0  0  0  0
    0.4718    0.8213   -2.0383 H   0  0  0  0  0  0  0  0  0  0  0  0
    1.6870   -0.3961   -1.6635 H   0  0  0  0  0  0  0  0  0  0  0  0
   -0.0426   -1.1162   -2.7122 C   0  0  0  0  0  0  0  0  0  0  0  0
    0.5797   -2.0947   -3.0877 O   0  0  0  0  0  0  0  0  0  0  0  0
   -1.2601   -0.7732   -3.1996 O   0  0  0  0  0  0  0  0  0  0  0  0
   -1.4758   -1.4459   -3.8631 H   0  0  0  0  0  0  0  0  0  0  0  0
   -0.0698    1.0738    0.4057 C   0  0  0  0  0  0  0  0  0  0  0  0
   -1.0379    1.7807    0.1534 O   0  0  0  0  0  0  0  0  0  0  0  0
    0.8956    1.5309    1.2837 N   0  0  0  0  0  0  0  0  0  0  0  0
    1.6564    0.9001    1.5197 H   0  0  0  0  0  0  0  0  0  0  0  0
    0.8150    2.8212    1.9579 C   0  0  0  0  0  0  0  0  0  0  0  0
   -0.0785    2.8685    2.5894 H   0  0  0  0  0  0  0  0  0  0  0  0
    1.6947    2.9732    2.5907 H   0  0  0  0  0  0  0  0  0  0  0  0
    0.7721    3.6344    1.2255 H   0  0  0  0  0  0  0  0  0  0  0  0
  1  2  1  0  0  0  0
  2  3  1  0  0  0  0
  2  4  1  0  0  0  0
  2  5  1  0  0  0  0
  5  6  2  0  0  0  0
  5  7  1  0  0  0  0
  7  8  1  0  0  0  0
  7  9  1  0  0  0  0
  9 10  1  0  0  0  0
  9 11  1  0  0  0  0
  9 18  1  0  0  0  0
 11 12  1  0  0  0  0
 11 13  1  0  0  0  0
 11 14  1  0  0  0  0
 14 15  2  0  0  0  0
 14 16  1  0  0  0  0
 16 17  1  0  0  0  0
 18 19  2  0  0  0  0
 18 20  1  0  0  0  0
 20 21  1  0  0  0  0
 20 22  1  0  0  0  0
 22 23  1  0  0  0  0
 22 24  1  0  0  0  0
 22 25  1  0  0  0  0
M  END
$$$$

  -OEChem-02102214113D

 25 24  0     1  0  0  0  0  0999 V2000
   -2.7454   -4.0089    0.4525 H   0  0  0  0  0  0  0  0  0  0  0  0
   -2.7894   -2.9624    0.1380 C   0  0  0  0  0  0  0  0  0  0  0  0
   -3.4542   -2.4184    0.8134 H   0  0  0  0  0  0  0  0  0  0  0  0
   -3.1932   -2.9160   -0.8763 H   0  0  0  0  0  0  0  0  0  0  0  0
   -1.4028   -2.3482    0.1710 C   0  0  0  0  0  0  0  0  0  0  0  0
   -0.4505   -3.0101    0.5518 O   0  0  0  0  0  0  0  0  0  0  0  0
   -1.2287   -1.0300   -0.2000 N   0  0  0  0  0  0  0  0  0  0  0  0
   -2.0601   -0.4925   -0.4426 H   0  0  0  0  0  0  0  0  0  0  0  0
    0.0618   -0.3247   -0.2408 C   0  0  1  0  0  0  0  0  0  0  0  0
    0.7893   -0.8882    0.3533 H   0  0  0  0  0  0  0  0  0  0  0  0
    0.6207   -0.1988   -1.6816 C   0  0  0  0  0  0  0  0  0  0  0  0
    0.4908    0.8285   -2.0356 H   0  0  0  0  0  0  0  0  0  0  0  0
    1.6949   -0.4026   -1.6692 H   0  0  0  0  0  0  0  0  0  0  0  0
   -0.0391   -1.1060   -2.7133 C   0  0  0  0  0  0  0  0  0  0  0  0
    0.4295   -2.2163   -2.8945 O   0  0  0  0  0  0  0  0  0  0  0  0
   -1.1139   -0.6293   -3.3852 O   0  0  0  0  0  0  0  0  0  0  0  0
   -1.3745   -1.3317   -3.9997 H   0  0  0  0  0  0  0  0  0  0  0  0
   -0.0653    1.0714    0.4012 C   0  0  0  0  0  0  0  0  0  0  0  0
   -1.0338    1.7764    0.1445 O   0  0  0  0  0  0  0  0  0  0  0  0
    0.8933    1.5287    1.2865 N   0  0  0  0  0  0  0  0  0  0  0  0
    1.6559    0.9007    1.5241 H   0  0  0  0  0  0  0  0  0  0  0  0
    0.8100    2.8215    1.9556 C   0  0  0  0  0  0  0  0  0  0  0  0
   -0.0880    2.8724    2.5804 H   0  0  0  0  0  0  0  0  0  0  0  0
    1.6853    2.9747    2.5944 H   0  0  0  0  0  0  0  0  0  0  0  0
    0.7739    3.6322    1.2199 H   0  0  0  0  0  0  0  0  0  0  0  0
  1  2  1  0  0  0  0
  2  3  1  0  0  0  0
  2  4  1  0  0  0  0
  2  5  1  0  0  0  0
  5  6  2  0  0  0  0
  5  7  1  0  0  0  0
  7  8  1  0  0  0  0
  7  9  1  0  0  0  0
  9 10  1  0  0  0  0
  9 11  1  0  0  0  0
  9 18  1  0  0  0  0
 11 12  1  0  0  0  0
 11 13  1  0  0  0  0
 11 14  1  0  0  0  0
 14 15  2  0  0  0  0
 14 16  1  0  0  0  0
 16 17  1  0  0  0  0
 18 19  2  0  0  0  0
 18 20  1  0  0  0  0
 20 21  1  0  0  0  0
 20 22  1  0  0  0  0
 22 23  1  0  0  0  0
 22 24  1  0  0  0  0
 22 25  1  0  0  0  0
M  END
$$$$

  -OEChem-02102214113D

 25 24  0     1  0  0  0  0  0999 V2000
   -2.7396   -4.0093    0.4555 H   0  0  0  0  0  0  0  0  0  0  0  0
   -2.7830   -2.9656    0.1319 C   0  0  0  0  0  0  0  0  0  0  0  0
   -3.4620   -2.4191    0.7909 H   0  0  0  0  0  0  0  0  0  0  0  0
   -3.1687   -2.9296   -0.8898 H   0  0  0  0  0  0  0  0  0  0  0  0
   -1.3998   -2.3457    0.1837 C   0  0  0  0  0  0  0  0  0  0  0  0
   -0.4547   -2.9970    0.5998 O   0  0  0  0  0  0  0  0  0  0  0  0
   -1.2255   -1.0293   -0.1952 N   0  0  0  0  0  0  0  0  0  0  0  0
   -2.0559   -0.4939   -0.4441 H   0  0  0  0  0  0  0  0  0  0  0  0
    0.0672   -0.3287   -0.2410 C   0  0  1  0  0  0  0  0  0  0  0  0
    0.7965   -0.8907    0.3523 H   0  0  0  0  0  0  0  0  0  0  0  0
    0.6213   -0.2021   -1.6849 C   0  0  0  0  0  0  0  0  0  0  0  0
    0.4991    0.8286   -2.0323 H   0  0  0  0  0  0  0  0  0  0  0  0
    1.6937   -0.4132   -1.6770 H   0  0  0  0  0  0  0  0  0  0  0  0
   -0.0396   -1.1011   -2.7243 C   0  0  0  0  0  0  0  0  0  0  0  0
    0.2313   -2.2894   -2.7295 O   0  0  0  0  0  0  0  0  0  0  0  0
   -0.9034   -0.5289   -3.5955 O   0  0  0  0  0  0  0  0  0  0  0  0
   -1.2065   -1.2428   -4.1765 H   0  0  0  0  0  0  0  0  0  0  0  0
   -0.0616    1.0696    0.3958 C   0  0  0  0  0  0  0  0  0  0  0  0
   -1.0295    1.7738    0.1339 O   0  0  0  0  0  0  0  0  0  0  0  0
    0.8964    1.5301    1.2800 N   0  0  0  0  0  0  0  0  0  0  0  0
    1.6542    0.8994    1.5262 H   0  0  0  0  0  0  0  0  0  0  0  0
    0.8061    2.8201    1.9536 C   0  0  0  0  0  0  0  0  0  0  0  0
   -0.1065    2.8747    2.5564 H   0  0  0  0  0  0  0  0  0  0  0  0
    1.6662    2.9631    2.6148 H   0  0  0  0  0  0  0  0  0  0  0  0
    0.7939    3.6343    1.2215 H   0  0  0  0  0  0  0  0  0  0  0  0
  1  2  1  0  0  0  0
  2  3  1  0  0  0  0
  2  4  1  0  0  0  0
  2  5  1  0  0  0  0
  5  6  2  0  0  0  0
  5  7  1  0  0  0  0
  7  8  1  0  0  0  0
  7  9  1  0  0  0  0
  9 10  1  0  0  0  0
  9 11  1  0  0  0  0
  9 18  1  0  0  0  0
 11 12  1  0  0  0  0
 11 13  1  0  0  0  0
 11 14  1  0  0  0  0
 14 15  2  0  0  0  0
 14 16  1  0  0  0  0
 16 17  1  0  0  0  0
 18 19  2  0  0  0  0
 18 20  1  0  0  0  0
 20 21  1  0  0  0  0
 20 22  1  0  0  0  0
 22 23  1  0  0  0  0
 22 24  1  0  0  0  0
 22 25  1  0  0  0  0
M  END
$$$$

  -OEChem-02102214113D

 25 24  0     1  0  0  0  0  0999 V2000
   -2.7438   -4.0158    0.4793 H   0  0  0  0  0  0  0  0  0  0  0  0
   -2.7851   -2.9778    0.1380 C   0  0  0  0  0  0  0  0  0  0  0  0
   -3.4833   -2.4251    0.7710 H   0  0  0  0  0  0  0  0  0  0  0  0
   -3.1452   -2.9611   -0.8934 H   0  0  0  0  0  0  0  0  0  0  0  0
   -1.4068   -2.3487    0.2125 C   0  0  0  0  0  0  0  0  0  0  0  0
   -0.4678   -2.9892    0.6595 O   0  0  0  0  0  0  0  0  0  0  0  0
   -1.2315   -1.0347   -0.1758 N   0  0  0  0  0  0  0  0  0  0  0  0
   -2.0598   -0.5056   -0.4433 H   0  0  0  0  0  0  0  0  0  0  0  0
    0.0639   -0.3398   -0.2332 C   0  0  1  0  0  0  0  0  0  0  0  0
    0.7953   -0.9006    0.3587 H   0  0  0  0  0  0  0  0  0  0  0  0
    0.6156   -0.2099   -1.6801 C   0  0  0  0  0  0  0  0  0  0  0  0
    0.4994    0.8254   -2.0164 H   0  0  0  0  0  0  0  0  0  0  0  0
    1.6873   -0.4235   -1.6712 H   0  0  0  0  0  0  0  0  0  0  0  0
   -0.0328   -1.0920   -2.7448 C   0  0  0  0  0  0  0  0  0  0  0  0
    0.0017   -2.3046   -2.6238 O   0  0  0  0  0  0  0  0  0  0  0  0
   -0.6181   -0.4666   -3.7929 O   0  0  0  0  0  0  0  0  0  0  0  0
   -0.9616   -1.1697   -4.3646 H   0  0  0  0  0  0  0  0  0  0  0  0
   -0.0629    1.0619    0.3978 C   0  0  0  0  0  0  0  0  0  0  0  0
   -1.0276    1.7679    0.1284 O   0  0  0  0  0  0  0  0  0  0  0  0
    0.8975    1.5282    1.2764 N   0  0  0  0  0  0  0  0  0  0  0  0
    1.6498    0.8951    1.5327 H   0  0  0  0  0  0  0  0  0  0  0  0
    0.8092    2.8235    1.9401 C   0  0  0  0  0  0  0  0  0  0  0  0
   -0.0915    2.8753    2.5609 H   0  0  0  0  0  0  0  0  0  0  0  0
    1.6814    2.9804    2.5819 H   0  0  0  0  0  0  0  0  0  0  0  0
    0.7747    3.6313    1.2014 H   0  0  0  0  0  0  0  0  0  0  0  0
  1  2  1  0  0  0  0
  2  3  1  0  0  0  0
  2  4  1  0  0  0  0
  2  5  1  0  0  0  0
  5  6  2  0  0  0  0
  5  7  1  0  0  0  0
  7  8  1  0  0  0  0
  7  9  1  0  0  0  0
  9 10  1  0  0  0  0
  9 11  1  0  0  0  0
  9 18  1  0  0  0  0
 11 12  1  0  0  0  0
 11 13  1  0  0  0  0
 11 14  1  0  0  0  0
 14 15  2  0  0  0  0
 14 16  1  0  0  0  0
 16 17  1  0  0  0  0
 18 19  2  0  0  0  0
 18 20  1  0  0  0  0
 20 21  1  0  0  0  0
 20 22  1  0  0  0  0
 22 23  1  0  0  0  0
 22 24  1  0  0  0  0
 22 25  1  0  0  0  0
M  END
$$$$

  -OEChem-02102214113D

 25 24  0     1  0  0  0  0  0999 V2000
   -2.7499   -4.0261    0.5195 H   0  0  0  0  0  0  0  0  0  0  0  0
   -2.7935   -2.9917    0.1673 C   0  0  0  0  0  0  0  0  0  0  0  0
   -3.4986   -2.4356    0.7894 H   0  0  0  0  0  0  0  0  0  0  0  0
   -3.1458   -2.9871   -0.8669 H   0  0  0  0  0  0  0  0  0  0  0  0
   -1.4186   -2.3556    0.2447 C   0  0  0  0  0  0  0  0  0  0  0  0
   -0.4783   -2.9898    0.6992 O   0  0  0  0  0  0  0  0  0  0  0  0
   -1.2465   -1.0432   -0.1514 N   0  0  0  0  0  0  0  0  0  0  0  0
   -2.0740   -0.5230   -0.4365 H   0  0  0  0  0  0  0  0  0  0  0  0
    0.0494   -0.3521   -0.2257 C   0  0  1  0  0  0  0  0  0  0  0  0
    0.7839   -0.9110    0.3637 H   0  0  0  0  0  0  0  0  0  0  0  0
    0.6025   -0.2191   -1.6751 C   0  0  0  0  0  0  0  0  0  0  0  0
    0.4866    0.8199   -1.9994 H   0  0  0  0  0  0  0  0  0  0  0  0
    1.6751   -0.4275   -1.6586 H   0  0  0  0  0  0  0  0  0  0  0  0
   -0.0180   -1.0803   -2.7773 C   0  0  0  0  0  0  0  0  0  0  0  0
   -0.2382   -2.2648   -2.5910 O   0  0  0  0  0  0  0  0  0  0  0  0
   -0.2765   -0.4571   -3.9507 O   0  0  0  0  0  0  0  0  0  0  0  0
   -0.6484   -1.1347   -4.5354 H   0  0  0  0  0  0  0  0  0  0  0  0
   -0.0730    1.0517    0.4023 C   0  0  0  0  0  0  0  0  0  0  0  0
   -1.0347    1.7607    0.1295 O   0  0  0  0  0  0  0  0  0  0  0  0
    0.8945    1.5227    1.2707 N   0  0  0  0  0  0  0  0  0  0  0  0
    1.6459    0.8892    1.5289 H   0  0  0  0  0  0  0  0  0  0  0  0
    0.8164    2.8260    1.9202 C   0  0  0  0  0  0  0  0  0  0  0  0
   -0.0837    2.8921    2.5403 H   0  0  0  0  0  0  0  0  0  0  0  0
    1.6899    2.9829    2.5605 H   0  0  0  0  0  0  0  0  0  0  0  0
    0.7877    3.6257    1.1724 H   0  0  0  0  0  0  0  0  0  0  0  0
  1  2  1  0  0  0  0
  2  3  1  0  0  0  0
  2  4  1  0  0  0  0
  2  5  1  0  0  0  0
  5  6  2  0  0  0  0
  5  7  1  0  0  0  0
  7  8  1  0  0  0  0
  7  9  1  0  0  0  0
  9 10  1  0  0  0  0
  9 11  1  0  0  0  0
  9 18  1  0  0  0  0
 11 12  1  0  0  0  0
 11 13  1  0  0  0  0
 11 14  1  0  0  0  0
 14 15  2  0  0  0  0
 14 16  1  0  0  0  0
 16 17  1  0  0  0  0
 18 19  2  0  0  0  0
 18 20  1  0  0  0  0
 20 21  1  0  0  0  0
 20 22  1  0  0  0  0
 22 23  1  0  0  0  0
 22 24  1  0  0  0  0
 22 25  1  0  0  0  0
M  END
$$$$

  -OEChem-02102214113D

 25 24  0     1  0  0  0  0  0999 V2000
   -2.7619   -4.0291    0.5606 H   0  0  0  0  0  0  0  0  0  0  0  0
   -2.8049   -2.9995    0.1954 C   0  0  0  0  0  0  0  0  0  0  0  0
   -3.5154   -2.4369    0.8054 H   0  0  0  0  0  0  0  0  0  0  0  0
   -3.1494   -3.0082   -0.8416 H   0  0  0  0  0  0  0  0  0  0  0  0
   -1.4320   -2.3596    0.2742 C   0  0  0  0  0  0  0  0  0  0  0  0
   -0.4891   -2.9905    0.7289 O   0  0  0  0  0  0  0  0  0  0  0  0
   -1.2636   -1.0487   -0.1282 N   0  0  0  0  0  0  0  0  0  0  0  0
   -2.0891   -0.5422   -0.4416 H   0  0  0  0  0  0  0  0  0  0  0  0
    0.0319   -0.3606   -0.2201 C   0  0  1  0  0  0  0  0  0  0  0  0
    0.7678   -0.9177    0.3690 H   0  0  0  0  0  0  0  0  0  0  0  0
    0.5898   -0.2292   -1.6707 C   0  0  0  0  0  0  0  0  0  0  0  0
    0.4726    0.8116   -1.9891 H   0  0  0  0  0  0  0  0  0  0  0  0
    1.6633   -0.4310   -1.6427 H   0  0  0  0  0  0  0  0  0  0  0  0
   -0.0001   -1.0743   -2.8055 C   0  0  0  0  0  0  0  0  0  0  0  0
   -0.4748   -2.1792   -2.6051 O   0  0  0  0  0  0  0  0  0  0  0  0
    0.0697   -0.5182   -4.0374 O   0  0  0  0  0  0  0  0  0  0  0  0
   -0.3259   -1.1634   -4.6430 H   0  0  0  0  0  0  0  0  0  0  0  0
   -0.0849    1.0448    0.4057 C   0  0  0  0  0  0  0  0  0  0  0  0
   -1.0430    1.7584    0.1318 O   0  0  0  0  0  0  0  0  0  0  0  0
    0.8922    1.5171    1.2624 N   0  0  0  0  0  0  0  0  0  0  0  0
    1.6410    0.8808    1.5211 H   0  0  0  0  0  0  0  0  0  0  0  0
    0.8268    2.8258    1.9021 C   0  0  0  0  0  0  0  0  0  0  0  0
   -0.0586    2.8956    2.5429 H   0  0  0  0  0  0  0  0  0  0  0  0
    1.7152    2.9905    2.5196 H   0  0  0  0  0  0  0  0  0  0  0  0
    0.7794    3.6186    1.1479 H   0  0  0  0  0  0  0  0  0  0  0  0
  1  2  1  0  0  0  0
  2  3  1  0  0  0  0
  2  4  1  0  0  0  0
  2  5  1  0  0  0  0
  5  6  2  0  0  0  0
  5  7  1  0  0  0  0
  7  8  1  0  0  0  0
  7  9  1  0  0  0  0
  9 10  1  0  0  0  0
  9 11  1  0  0  0  0
  9 18  1  0  0  0  0
 11 12  1  0  0  0  0
 11 13  1  0  0  0  0
 11 14  1  0  0  0  0
 14 15  2  0  0  0  0
 14 16  1  0  0  0  0
 16 17  1  0  0  0  0
 18 19  2  0  0  0  0
 18 20  1  0  0  0  0
 20 21  1  0  0  0  0
 20 22  1  0  0  0  0
 22 23  1  0  0  0  0
 22 24  1  0  0  0  0
 22 25  1  0  0  0  0
M  END
$$$$

  -OEChem-02102214113D

 25 24  0     1  0  0  0  0  0999 V2000
   -2.7653   -4.0339    0.5795 H   0  0  0  0  0  0  0  0  0  0  0  0
   -2.8137   -3.0033    0.2172 C   0  0  0  0  0  0  0  0  0  0  0  0
   -3.5239   -2.4448    0.8314 H   0  0  0  0  0  0  0  0  0  0  0  0
   -3.1623   -3.0103   -0.8184 H   0  0  0  0  0  0  0  0  0  0  0  0
   -1.4431   -2.3582    0.2919 C   0  0  0  0  0  0  0  0  0  0  0  0
   -0.4947   -2.9886    0.7360 O   0  0  0  0  0  0  0  0  0  0  0  0
   -1.2796   -1.0479   -0.1132 N   0  0  0  0  0  0  0  0  0  0  0  0
   -2.1034   -0.5550   -0.4512 H   0  0  0  0  0  0  0  0  0  0  0  0
    0.0149   -0.3612   -0.2188 C   0  0  1  0  0  0  0  0  0  0  0  0
    0.7512   -0.9171    0.3710 H   0  0  0  0  0  0  0  0  0  0  0  0
    0.5774   -0.2370   -1.6697 C   0  0  0  0  0  0  0  0  0  0  0  0
    0.4585    0.8027   -1.9904 H   0  0  0  0  0  0  0  0  0  0  0  0
    1.6516   -0.4328   -1.6302 H   0  0  0  0  0  0  0  0  0  0  0  0
    0.0121   -1.0758   -2.8239 C   0  0  0  0  0  0  0  0  0  0  0  0
   -0.6962   -2.0522   -2.6464 O   0  0  0  0  0  0  0  0  0  0  0  0
    0.3825   -0.6562   -4.0560 O   0  0  0  0  0  0  0  0  0  0  0  0
   -0.0303   -1.2718   -4.6806 H   0  0  0  0  0  0  0  0  0  0  0  0
   -0.0930    1.0453    0.4062 C   0  0  0  0  0  0  0  0  0  0  0  0
   -1.0463    1.7654    0.1334 O   0  0  0  0  0  0  0  0  0  0  0  0
    0.8946    1.5157    1.2520 N   0  0  0  0  0  0  0  0  0  0  0  0
    1.6384    0.8738    1.5109 H   0  0  0  0  0  0  0  0  0  0  0  0
    0.8386    2.8240    1.8931 C   0  0  0  0  0  0  0  0  0  0  0  0
   -0.0472    2.9001    2.5325 H   0  0  0  0  0  0  0  0  0  0  0  0
    1.7269    2.9806    2.5127 H   0  0  0  0  0  0  0  0  0  0  0  0
    0.7989    3.6184    1.1402 H   0  0  0  0  0  0  0  0  0  0  0  0
  1  2  1  0  0  0  0
  2  3  1  0  0  0  0
  2  4  1  0  0  0  0
  2  5  1  0  0  0  0
  5  6  2  0  0  0  0
  5  7  1  0  0  0  0
  7  8  1  0  0  0  0
  7  9  1  0  0  0  0
  9 10  1  0  0  0  0
  9 11  1  0  0  0  0
  9 18  1  0  0  0  0
 11 12  1  0  0  0  0
 11 13  1  0  0  0  0
 11 14  1  0  0  0  0
 14 15  2  0  0  0  0
 14 16  1  0  0  0  0
 16 17  1  0  0  0  0
 18 19  2  0  0  0  0
 18 20  1  0  0  0  0
 20 21  1  0  0  0  0
 20 22  1  0  0  0  0
 22 23  1  0  0  0  0
 22 24  1  0  0  0  0
 22 25  1  0  0  0  0
M  END
$$$$

  -OEChem-02102214113D

 25 24  0     1  0  0  0  0  0999 V2000
   -2.7732   -4.0362    0.5741 H   0  0  0  0  0  0  0  0  0  0  0  0
   -2.8225   -3.0028    0.2208 C   0  0  0  0  0  0  0  0  0  0  0  0
   -3.5306   -2.4496    0.8421 H   0  0  0  0  0  0  0  0  0  0  0  0
   -3.1751   -3.0007   -0.8136 H   0  0  0  0  0  0  0  0  0  0  0  0
   -1.4515   -2.3585    0.2968 C   0  0  0  0  0  0  0  0  0  0  0  0
   -0.5002   -2.9938    0.7280 O   0  0  0  0  0  0  0  0  0  0  0  0
   -1.2890   -1.0474   -0.1049 N   0  0  0  0  0  0  0  0  0  0  0  0
   -2.1106   -0.5629   -0.4604 H   0  0  0  0  0  0  0  0  0  0  0  0
    0.0038   -0.3597   -0.2158 C   0  0  1  0  0  0  0  0  0  0  0  0
    0.7396   -0.9155    0.3745 H   0  0  0  0  0  0  0  0  0  0  0  0
    0.5717   -0.2410   -1.6655 C   0  0  0  0  0  0  0  0  0  0  0  0
    0.4551    0.7975   -1.9901 H   0  0  0  0  0  0  0  0  0  0  0  0
    1.6460   -0.4357   -1.6153 H   0  0  0  0  0  0  0  0  0  0  0  0
    0.0212   -1.0807   -2.8280 C   0  0  0  0  0  0  0  0  0  0  0  0
   -0.8850   -1.8867   -2.7006 O   0  0  0  0  0  0  0  0  0  0  0  0
    0.6359   -0.8554   -4.0124 O   0  0  0  0  0  0  0  0  0  0  0  0
    0.2049   -1.4443   -4.6506 H   0  0  0  0  0  0  0  0  0  0  0  0
   -0.0977    1.0458    0.4123 C   0  0  0  0  0  0  0  0  0  0  0  0
   -1.0488    1.7699    0.1429 O   0  0  0  0  0  0  0  0  0  0  0  0
    0.8958    1.5139    1.2528 N   0  0  0  0  0  0  0  0  0  0  0  0
    1.6429    0.8727    1.5037 H   0  0  0  0  0  0  0  0  0  0  0  0
    0.8499    2.8254    1.8883 C   0  0  0  0  0  0  0  0  0  0  0  0
   -0.0344    2.9099    2.5288 H   0  0  0  0  0  0  0  0  0  0  0  0
    1.7403    2.9791    2.5056 H   0  0  0  0  0  0  0  0  0  0  0  0
    0.8139    3.6167    1.1320 H   0  0  0  0  0  0  0  0  0  0  0  0
  1  2  1  0  0  0  0
  2  3  1  0  0  0  0
  2  4  1  0  0  0  0
  2  5  1  0  0  0  0
  5  6  2  0  0  0  0
  5  7  1  0  0  0  0
  7  8  1  0  0  0  0
  7  9  1  0  0  0  0
  9 10  1  0  0  0  0
  9 11  1  0  0  0  0
  9 18  1  0  0  0  0
 11 12  1  0  0  0  0
 11 13  1  0  0  0  0
 11 14  1  0  0  0  0
 14 15  2  0  0  0  0
 14 16  1  0  0  0  0
 16 17  1  0  0  0  0
 18 19  2  0  0  0  0
 18 20  1  0  0  0  0
 20 21  1  0  0  0  0
 20 22  1  0  0  0  0
 22 23  1  0  0  0  0
 22 24  1  0  0  0  0
 22 25  1  0  0  0  0
M  END
$$$$

  -OEChem-02102214113D

 25 24  0     1  0  0  0  0  0999 V2000
   -2.7743   -4.0371    0.5534 H   0  0  0  0  0  0  0  0  0  0  0  0
   -2.8247   -3.0000    0.2110 C   0  0  0  0  0  0  0  0  0  0  0  0
   -3.5307   -2.4531    0.8404 H   0  0  0  0  0  0  0  0  0  0  0  0
   -3.1805   -2.9867   -0.8222 H   0  0  0  0  0  0  0  0  0  0  0  0
   -1.4538   -2.3560    0.2894 C   0  0  0  0  0  0  0  0  0  0  0  0
   -0.4993   -2.9965    0.7052 O   0  0  0  0  0  0  0  0  0  0  0  0
   -1.2918   -1.0440   -0.1070 N   0  0  0  0  0  0  0  0  0  0  0  0
   -2.1106   -0.5647   -0.4763 H   0  0  0  0  0  0  0  0  0  0  0  0
   -0.0008   -0.3537   -0.2135 C   0  0  1  0  0  0  0  0  0  0  0  0
    0.7322   -0.9099    0.3797 H   0  0  0  0  0  0  0  0  0  0  0  0
    0.5726   -0.2406   -1.6608 C   0  0  0  0  0  0  0  0  0  0  0  0
    0.4576    0.7953   -1.9937 H   0  0  0  0  0  0  0  0  0  0  0  0
    1.6467   -0.4353   -1.6019 H   0  0  0  0  0  0  0  0  0  0  0  0
    0.0256   -1.0892   -2.8184 C   0  0  0  0  0  0  0  0  0  0  0  0
   -1.0343   -1.6906   -2.7608 O   0  0  0  0  0  0  0  0  0  0  0  0
    0.8174   -1.1088   -3.9156 O   0  0  0  0  0  0  0  0  0  0  0  0
    0.3630   -1.6732   -4.5596 H   0  0  0  0  0  0  0  0  0  0  0  0
   -0.0995    1.0507    0.4173 C   0  0  0  0  0  0  0  0  0  0  0  0
   -1.0473    1.7789    0.1479 O   0  0  0  0  0  0  0  0  0  0  0  0
    0.8955    1.5144    1.2585 N   0  0  0  0  0  0  0  0  0  0  0  0
    1.6421    0.8714    1.5064 H   0  0  0  0  0  0  0  0  0  0  0  0
    0.8567    2.8270    1.8921 C   0  0  0  0  0  0  0  0  0  0  0  0
   -0.0281    2.9185    2.5309 H   0  0  0  0  0  0  0  0  0  0  0  0
    1.7472    2.9754    2.5105 H   0  0  0  0  0  0  0  0  0  0  0  0
    0.8268    3.6172    1.1344 H   0  0  0  0  0  0  0  0  0  0  0  0
  1  2  1  0  0  0  0
  2  3  1  0  0  0  0
  2  4  1  0  0  0  0
  2  5  1  0  0  0  0
  5  6  2  0  0  0  0
  5  7  1  0  0  0  0
  7  8  1  0  0  0  0
  7  9  1  0  0  0  0
  9 10  1  0  0  0  0
  9 11  1  0  0  0  0
  9 18  1  0  0  0  0
 11 12  1  0  0  0  0
 11 13  1  0  0  0  0
 11 14  1  0  0  0  0
 14 15  2  0  0  0  0
 14 16  1  0  0  0  0
 16 17  1  0  0  0  0
 18 19  2  0  0  0  0
 18 20  1  0  0  0  0
 20 21  1  0  0  0  0
 20 22  1  0  0  0  0
 22 23  1  0  0  0  0
 22 24  1  0  0  0  0
 22 25  1  0  0  0  0
M  END
$$$$

  -OEChem-02102214113D

 25 24  0     1  0  0  0  0  0999 V2000
   -2.7690   -4.0360    0.5170 H   0  0  0  0  0  0  0  0  0  0  0  0
   -2.8195   -2.9949    0.1869 C   0  0  0  0  0  0  0  0  0  0  0  0
   -3.5246   -2.4556    0.8238 H   0  0  0  0  0  0  0  0  0  0  0  0
   -3.1772   -2.9689   -0.8455 H   0  0  0  0  0  0  0  0  0  0  0  0
   -1.4486   -2.3516    0.2715 C   0  0  0  0  0  0  0  0  0  0  0  0
   -0.4928   -2.9974    0.6754 O   0  0  0  0  0  0  0  0  0  0  0  0
   -1.2847   -1.0381   -0.1179 N   0  0  0  0  0  0  0  0  0  0  0  0
   -2.1002   -0.5614   -0.4989 H   0  0  0  0  0  0  0  0  0  0  0  0
    0.0048   -0.3432   -0.2136 C   0  0  1  0  0  0  0  0  0  0  0  0
    0.7349   -0.9001    0.3828 H   0  0  0  0  0  0  0  0  0  0  0  0
    0.5812   -0.2358   -1.6585 C   0  0  0  0  0  0  0  0  0  0  0  0
    0.4639    0.7962   -2.0021 H   0  0  0  0  0  0  0  0  0  0  0  0
    1.6557   -0.4282   -1.5984 H   0  0  0  0  0  0  0  0  0  0  0  0
    0.0224   -1.1022   -2.7959 C   0  0  0  0  0  0  0  0  0  0  0  0
   -1.1395   -1.4757   -2.8235 O   0  0  0  0  0  0  0  0  0  0  0  0
    0.9129   -1.4058   -3.7688 O   0  0  0  0  0  0  0  0  0  0  0  0
    0.4308   -1.9520   -4.4083 H   0  0  0  0  0  0  0  0  0  0  0  0
   -0.0945    1.0598    0.4201 C   0  0  0  0  0  0  0  0  0  0  0  0
   -1.0401    1.7899    0.1491 O   0  0  0  0  0  0  0  0  0  0  0  0
    0.8973    1.5207    1.2666 N   0  0  0  0  0  0  0  0  0  0  0  0
    1.6429    0.8770    1.5151 H   0  0  0  0  0  0  0  0  0  0  0  0
    0.8547    2.8302    1.9066 C   0  0  0  0  0  0  0  0  0  0  0  0
   -0.0327    2.9178    2.5423 H   0  0  0  0  0  0  0  0  0  0  0  0
    1.7422    2.9765    2.5297 H   0  0  0  0  0  0  0  0  0  0  0  0
    0.8281    3.6242    1.1528 H   0  0  0  0  0  0  0  0  0  0  0  0
  1  2  1  0  0  0  0
  2  3  1  0  0  0  0
  2  4  1  0  0  0  0
  2  5  1  0  0  0  0
  5  6  2  0  0  0  0
  5  7  1  0  0  0  0
  7  8  1  0  0  0  0
  7  9  1  0  0  0  0
  9 10  1  0  0  0  0
  9 11  1  0  0  0  0
  9 18  1  0  0  0  0
 11 12  1  0  0  0  0
 11 13  1  0  0  0  0
 11 14  1  0  0  0  0
 14 15  2  0  0  0  0
 14 16  1  0  0  0  0
 16 17  1  0  0  0  0
 18 19  2  0  0  0  0
 18 20  1  0  0  0  0
 20 21  1  0  0  0  0
 20 22  1  0  0  0  0
 22 23  1  0  0  0  0
 22 24  1  0  0  0  0
 22 25  1  0  0  0  0
M  END
$$$$

  -OEChem-02102214113D

 25 24  0     1  0  0  0  0  0999 V2000
   -2.7598   -4.0320    0.4726 H   0  0  0  0  0  0  0  0  0  0  0  0
   -2.8088   -2.9861    0.1575 C   0  0  0  0  0  0  0  0  0  0  0  0
   -3.5085   -2.4534    0.8058 H   0  0  0  0  0  0  0  0  0  0  0  0
   -3.1727   -2.9441   -0.8723 H   0  0  0  0  0  0  0  0  0  0  0  0
   -1.4358   -2.3478    0.2443 C   0  0  0  0  0  0  0  0  0  0  0  0
   -0.4798   -2.9998    0.6366 O   0  0  0  0  0  0  0  0  0  0  0  0
   -1.2685   -1.0333   -0.1381 N   0  0  0  0  0  0  0  0  0  0  0  0
   -2.0842   -0.5494   -0.5104 H   0  0  0  0  0  0  0  0  0  0  0  0
    0.0189   -0.3316   -0.2171 C   0  0  1  0  0  0  0  0  0  0  0  0
    0.7462   -0.8885    0.3829 H   0  0  0  0  0  0  0  0  0  0  0  0
    0.5974   -0.2293   -1.6591 C   0  0  0  0  0  0  0  0  0  0  0  0
    0.4735    0.7977   -2.0153 H   0  0  0  0  0  0  0  0  0  0  0  0
    1.6730   -0.4178   -1.6043 H   0  0  0  0  0  0  0  0  0  0  0  0
    0.0173   -1.1200   -2.7637 C   0  0  0  0  0  0  0  0  0  0  0  0
   -1.1886   -1.2600   -2.8985 O   0  0  0  0  0  0  0  0  0  0  0  0
    0.9239   -1.7164   -3.5727 O   0  0  0  0  0  0  0  0  0  0  0  0
    0.4113   -2.2439   -4.2039 H   0  0  0  0  0  0  0  0  0  0  0  0
   -0.0871    1.0700    0.4181 C   0  0  0  0  0  0  0  0  0  0  0  0
   -1.0382    1.7946    0.1522 O   0  0  0  0  0  0  0  0  0  0  0  0
    0.8969    1.5293    1.2746 N   0  0  0  0  0  0  0  0  0  0  0  0
    1.6491    0.8905    1.5162 H   0  0  0  0  0  0  0  0  0  0  0  0
    0.8437    2.8335    1.9246 C   0  0  0  0  0  0  0  0  0  0  0  0
   -0.0512    2.9136    2.5508 H   0  0  0  0  0  0  0  0  0  0  0  0
    1.7235    2.9768    2.5591 H   0  0  0  0  0  0  0  0  0  0  0  0
    0.8232    3.6337    1.1770 H   0  0  0  0  0  0  0  0  0  0  0  0
  1  2  1  0  0  0  0
  2  3  1  0  0  0  0
  2  4  1  0  0  0  0
  2  5  1  0  0  0  0
  5  6  2  0  0  0  0
  5  7  1  0  0  0  0
  7  8  1  0  0  0  0
  7  9  1  0  0  0  0
  9 10  1  0  0  0  0
  9 11  1  0  0  0  0
  9 18  1  0  0  0  0
 11 12  1  0  0  0  0
 11 13  1  0  0  0  0
 11 14  1  0  0  0  0
 14 15  2  0  0  0  0
 14 16  1  0  0  0  0
 16 17  1  0  0  0  0
 18 19  2  0  0  0  0
 18 20  1  0  0  0  0
 20 21  1  0  0  0  0
 20 22  1  0  0  0  0
 22 23  1  0  0  0  0
 22 24  1  0  0  0  0
 22 25  1  0  0  0  0
M  END
$$$$

  -OEChem-02102214113D

 25 24  0     1  0  0  0  0  0999 V2000
   -2.7511   -4.0248    0.4535 H   0  0  0  0  0  0  0  0  0  0  0  0
   -2.7978   -2.9756    0.1490 C   0  0  0  0  0  0  0  0  0  0  0  0
   -3.4736   -2.4424    0.8219 H   0  0  0  0  0  0  0  0  0  0  0  0
   -3.1905   -2.9206   -0.8694 H   0  0  0  0  0  0  0  0  0  0  0  0
   -1.4161   -2.3525    0.2027 C   0  0  0  0  0  0  0  0  0  0  0  0
   -0.4573   -3.0170    0.5645 O   0  0  0  0  0  0  0  0  0  0  0  0
   -1.2450   -1.0361   -0.1709 N   0  0  0  0  0  0  0  0  0  0  0  0
   -2.0672   -0.5314   -0.5000 H   0  0  0  0  0  0  0  0  0  0  0  0
    0.0409   -0.3278   -0.2256 C   0  0  1  0  0  0  0  0  0  0  0  0
    0.7646   -0.8850    0.3784 H   0  0  0  0  0  0  0  0  0  0  0  0
    0.6218   -0.2217   -1.6631 C   0  0  0  0  0  0  0  0  0  0  0  0
    0.4938    0.8024   -2.0264 H   0  0  0  0  0  0  0  0  0  0  0  0
    1.6973   -0.4129   -1.6174 H   0  0  0  0  0  0  0  0  0  0  0  0
    0.0158   -1.1306   -2.7332 C   0  0  0  0  0  0  0  0  0  0  0  0
   -1.1725   -1.0495   -3.0048 O   0  0  0  0  0  0  0  0  0  0  0  0
    0.8611   -1.9916   -3.3467 O   0  0  0  0  0  0  0  0  0  0  0  0
    0.3217   -2.4920   -3.9774 H   0  0  0  0  0  0  0  0  0  0  0  0
   -0.0803    1.0709    0.4130 C   0  0  0  0  0  0  0  0  0  0  0  0
   -1.0354    1.7882    0.1422 O   0  0  0  0  0  0  0  0  0  0  0  0
    0.8875    1.5314    1.2872 N   0  0  0  0  0  0  0  0  0  0  0  0
    1.6445    0.8991    1.5310 H   0  0  0  0  0  0  0  0  0  0  0  0
    0.8215    2.8362    1.9349 C   0  0  0  0  0  0  0  0  0  0  0  0
   -0.1055    2.9330    2.5098 H   0  0  0  0  0  0  0  0  0  0  0  0
    1.6663    2.9631    2.6187 H   0  0  0  0  0  0  0  0  0  0  0  0
    0.8574    3.6363    1.1880 H   0  0  0  0  0  0  0  0  0  0  0  0
  1  2  1  0  0  0  0
  2  3  1  0  0  0  0
  2  4  1  0  0  0  0
  2  5  1  0  0  0  0
  5  6  2  0  0  0  0
  5  7  1  0  0  0  0
  7  8  1  0  0  0  0
  7  9  1  0  0  0  0
  9 10  1  0  0  0  0
  9 11  1  0  0  0  0
  9 18  1  0  0  0  0
 11 12  1  0  0  0  0
 11 13  1  0  0  0  0
 11 14  1  0  0  0  0
 14 15  2  0  0  0  0
 14 16  1  0  0  0  0
 16 17  1  0  0  0  0
 18 19  2  0  0  0  0
 18 20  1  0  0  0  0
 20 21  1  0  0  0  0
 20 22  1  0  0  0  0
 22 23  1  0  0  0  0
 22 24  1  0  0  0  0
 22 25  1  0  0  0  0
M  END
$$$$

  -OEChem-02102214113D

 25 24  0     1  0  0  0  0  0999 V2000
   -2.7471   -4.0159    0.4286 H   0  0  0  0  0  0  0  0  0  0  0  0
   -2.7908   -2.9657    0.1269 C   0  0  0  0  0  0  0  0  0  0  0  0
   -3.4607   -2.4309    0.8045 H   0  0  0  0  0  0  0  0  0  0  0  0
   -3.1886   -2.9066   -0.8893 H   0  0  0  0  0  0  0  0  0  0  0  0
   -1.4061   -2.3488    0.1758 C   0  0  0  0  0  0  0  0  0  0  0  0
   -0.4488   -3.0183    0.5314 O   0  0  0  0  0  0  0  0  0  0  0  0
   -1.2310   -1.0320   -0.1951 N   0  0  0  0  0  0  0  0  0  0  0  0
   -2.0579   -0.5109   -0.4857 H   0  0  0  0  0  0  0  0  0  0  0  0
    0.0549   -0.3196   -0.2332 C   0  0  1  0  0  0  0  0  0  0  0  0
    0.7737   -0.8771    0.3764 H   0  0  0  0  0  0  0  0  0  0  0  0
    0.6397   -0.2200   -1.6668 C   0  0  0  0  0  0  0  0  0  0  0  0
    0.5098    0.7998   -2.0418 H   0  0  0  0  0  0  0  0  0  0  0  0
    1.7148   -0.4138   -1.6278 H   0  0  0  0  0  0  0  0  0  0  0  0
    0.0127   -1.1505   -2.7010 C   0  0  0  0  0  0  0  0  0  0  0  0
   -1.0945   -0.8906   -3.1456 O   0  0  0  0  0  0  0  0  0  0  0  0
    0.7385   -2.2263   -3.0848 O   0  0  0  0  0  0  0  0  0  0  0  0
    0.1906   -2.7069   -3.7232 H   0  0  0  0  0  0  0  0  0  0  0  0
   -0.0718    1.0794    0.4031 C   0  0  0  0  0  0  0  0  0  0  0  0
   -1.0357    1.7876    0.1401 O   0  0  0  0  0  0  0  0  0  0  0  0
    0.8870    1.5392    1.2874 N   0  0  0  0  0  0  0  0  0  0  0  0
    1.6492    0.9118    1.5277 H   0  0  0  0  0  0  0  0  0  0  0  0
    0.8074    2.8369    1.9478 C   0  0  0  0  0  0  0  0  0  0  0  0
   -0.0940    2.8978    2.5668 H   0  0  0  0  0  0  0  0  0  0  0  0
    1.6797    2.9887    2.5910 H   0  0  0  0  0  0  0  0  0  0  0  0
    0.7807    3.6429    1.2068 H   0  0  0  0  0  0  0  0  0  0  0  0
  1  2  1  0  0  0  0
  2  3  1  0  0  0  0
  2  4  1  0  0  0  0
  2  5  1  0  0  0  0
  5  6  2  0  0  0  0
  5  7  1  0  0  0  0
  7  8  1  0  0  0  0
  7  9  1  0  0  0  0
  9 10  1  0  0  0  0
  9 11  1  0  0  0  0
  9 18  1  0  0  0  0
 11 12  1  0  0  0  0
 11 13  1  0  0  0  0
 11 14  1  0  0  0  0
 14 15  2  0  0  0  0
 14 16  1  0  0  0  0
 16 17  1  0  0  0  0
 18 19  2  0  0  0  0
 18 20  1  0  0  0  0
 20 21  1  0  0  0  0
 20 22  1  0  0  0  0
 22 23  1  0  0  0  0
 22 24  1  0  0  0  0
 22 25  1  0  0  0  0
M  END
$$$$

  -OEChem-02102214113D

 25 24  0     1  0  0  0  0  0999 V2000
   -2.7531   -4.0070    0.4489 H   0  0  0  0  0  0  0  0  0  0  0  0
   -2.7930   -2.9580    0.1426 C   0  0  0  0  0  0  0  0  0  0  0  0
   -3.4478   -2.4149    0.8282 H   0  0  0  0  0  0  0  0  0  0  0  0
   -3.2059   -2.9009   -0.8676 H   0  0  0  0  0  0  0  0  0  0  0  0
   -1.4025   -2.3526    0.1667 C   0  0  0  0  0  0  0  0  0  0  0  0
   -0.4479   -3.0260    0.5214 O   0  0  0  0  0  0  0  0  0  0  0  0
   -1.2231   -1.0368   -0.2073 N   0  0  0  0  0  0  0  0  0  0  0  0
   -2.0534   -0.4997   -0.4560 H   0  0  0  0  0  0  0  0  0  0  0  0
    0.0650   -0.3267   -0.2361 C   0  0  1  0  0  0  0  0  0  0  0  0
    0.7815   -0.8841    0.3765 H   0  0  0  0  0  0  0  0  0  0  0  0
    0.6513   -0.2229   -1.6676 C   0  0  0  0  0  0  0  0  0  0  0  0
    0.5289    0.7993   -2.0396 H   0  0  0  0  0  0  0  0  0  0  0  0
    1.7245   -0.4272   -1.6319 H   0  0  0  0  0  0  0  0  0  0  0  0
    0.0129   -1.1535   -2.6926 C   0  0  0  0  0  0  0  0  0  0  0  0
   -0.9514   -0.7590   -3.3276 O   0  0  0  0  0  0  0  0  0  0  0  0
    0.5806   -2.3689   -2.8710 O   0  0  0  0  0  0  0  0  0  0  0  0
    0.0535   -2.8167   -3.5490 H   0  0  0  0  0  0  0  0  0  0  0  0
   -0.0697    1.0734    0.3959 C   0  0  0  0  0  0  0  0  0  0  0  0
   -1.0389    1.7738    0.1311 O   0  0  0  0  0  0  0  0  0  0  0  0
    0.8798    1.5362    1.2886 N   0  0  0  0  0  0  0  0  0  0  0  0
    1.6470    0.9148    1.5286 H   0  0  0  0  0  0  0  0  0  0  0  0
    0.7930    2.8354    1.9449 C   0  0  0  0  0  0  0  0  0  0  0  0
   -0.1209    2.9024    2.5447 H   0  0  0  0  0  0  0  0  0  0  0  0
    1.6522    2.9835    2.6064 H   0  0  0  0  0  0  0  0  0  0  0  0
    0.7866    3.6399    1.2017 H   0  0  0  0  0  0  0  0  0  0  0  0
  1  2  1  0  0  0  0
  2  3  1  0  0  0  0
  2  4  1  0  0  0  0
  2  5  1  0  0  0  0
  5  6  2  0  0  0  0
  5  7  1  0  0  0  0
  7  8  1  0  0  0  0
  7  9  1  0  0  0  0
  9 10  1  0  0  0  0
  9 11  1  0  0  0  0
  9 18  1  0  0  0  0
 11 12  1  0  0  0  0
 11 13  1  0  0  0  0
 11 14  1  0  0  0  0
 14 15  2  0  0  0  0
 14 16  1  0  0  0  0
 16 17  1  0  0  0  0
 18 19  2  0  0  0  0
 18 20  1  0  0  0  0
 20 21  1  0  0  0  0
 20 22  1  0  0  0  0
 22 23  1  0  0  0  0
 22 24  1  0  0  0  0
 22 25  1  0  0  0  0
M  END
$$$$

  -OEChem-02102214113D

 25 24  0     1  0  0  0  0  0999 V2000
   -2.7632   -3.9982    0.4737 H   0  0  0  0  0  0  0  0  0  0  0  0
   -2.7995   -2.9514    0.1591 C   0  0  0  0  0  0  0  0  0  0  0  0
   -3.4549   -2.4012    0.8387 H   0  0  0  0  0  0  0  0  0  0  0  0
   -3.2100   -2.9014   -0.8524 H   0  0  0  0  0  0  0  0  0  0  0  0
   -1.4072   -2.3499    0.1821 C   0  0  0  0  0  0  0  0  0  0  0  0
   -0.4589   -3.0199    0.5590 O   0  0  0  0  0  0  0  0  0  0  0  0
   -1.2238   -1.0369   -0.2017 N   0  0  0  0  0  0  0  0  0  0  0  0
   -2.0543   -0.4930   -0.4344 H   0  0  0  0  0  0  0  0  0  0  0  0
    0.0679   -0.3328   -0.2355 C   0  0  1  0  0  0  0  0  0  0  0  0
    0.7847   -0.8896    0.3776 H   0  0  0  0  0  0  0  0  0  0  0  0
    0.6512   -0.2299   -1.6685 C   0  0  0  0  0  0  0  0  0  0  0  0
    0.5375    0.7951   -2.0365 H   0  0  0  0  0  0  0  0  0  0  0  0
    1.7221   -0.4445   -1.6345 H   0  0  0  0  0  0  0  0  0  0  0  0
    0.0080   -1.1552   -2.6955 C   0  0  0  0  0  0  0  0  0  0  0  0
   -0.7612   -0.6779   -3.5128 O   0  0  0  0  0  0  0  0  0  0  0  0
    0.3836   -2.4553   -2.6932 O   0  0  0  0  0  0  0  0  0  0  0  0
   -0.0962   -2.8774   -3.4209 H   0  0  0  0  0  0  0  0  0  0  0  0
   -0.0659    1.0712    0.3884 C   0  0  0  0  0  0  0  0  0  0  0  0
   -1.0394    1.7667    0.1256 O   0  0  0  0  0  0  0  0  0  0  0  0
    0.8829    1.5381    1.2795 N   0  0  0  0  0  0  0  0  0  0  0  0
    1.6477    0.9159    1.5251 H   0  0  0  0  0  0  0  0  0  0  0  0
    0.7862    2.8327    1.9436 C   0  0  0  0  0  0  0  0  0  0  0  0
   -0.1194    2.8818    2.5573 H   0  0  0  0  0  0  0  0  0  0  0  0
    1.6530    2.9913    2.5926 H   0  0  0  0  0  0  0  0  0  0  0  0
    0.7552    3.6410    1.2052 H   0  0  0  0  0  0  0  0  0  0  0  0
  1  2  1  0  0  0  0
  2  3  1  0  0  0  0
  2  4  1  0  0  0  0
  2  5  1  0  0  0  0
  5  6  2  0  0  0  0
  5  7  1  0  0  0  0
  7  8  1  0  0  0  0
  7  9  1  0  0  0  0
  9 10  1  0  0  0  0
  9 11  1  0  0  0  0
  9 18  1  0  0  0  0
 11 12  1  0  0  0  0
 11 13  1  0  0  0  0
 11 14  1  0  0  0  0
 14 15  2  0  0  0  0
 14 16  1  0  0  0  0
 16 17  1  0  0  0  0
 18 19  2  0  0  0  0
 18 20  1  0  0  0  0
 20 21  1  0  0  0  0
 20 22  1  0  0  0  0
 22 23  1  0  0  0  0
 22 24  1  0  0  0  0
 22 25  1  0  0  0  0
M  END
$$$$

  -OEChem-02102214113D

 25 24  0     1  0  0  0  0  0999 V2000
   -2.7760   -3.9938    0.5145 H   0  0  0  0  0  0  0  0  0  0  0  0
   -2.8097   -2.9513    0.1857 C   0  0  0  0  0  0  0  0  0  0  0  0
   -3.4686   -2.3916    0.8539 H   0  0  0  0  0  0  0  0  0  0  0  0
   -3.2140   -2.9145   -0.8286 H   0  0  0  0  0  0  0  0  0  0  0  0
   -1.4171   -2.3503    0.2092 C   0  0  0  0  0  0  0  0  0  0  0  0
   -0.4747   -3.0129    0.6141 O   0  0  0  0  0  0  0  0  0  0  0  0
   -1.2314   -1.0400   -0.1847 N   0  0  0  0  0  0  0  0  0  0  0  0
   -2.0607   -0.4939   -0.4149 H   0  0  0  0  0  0  0  0  0  0  0  0
    0.0641   -0.3439   -0.2278 C   0  0  1  0  0  0  0  0  0  0  0  0
    0.7828   -0.9005    0.3830 H   0  0  0  0  0  0  0  0  0  0  0  0
    0.6419   -0.2352   -1.6644 C   0  0  0  0  0  0  0  0  0  0  0  0
    0.5380    0.7956   -2.0195 H   0  0  0  0  0  0  0  0  0  0  0  0
    1.7111   -0.4588   -1.6320 H   0  0  0  0  0  0  0  0  0  0  0  0
    0.0020   -1.1427   -2.7117 C   0  0  0  0  0  0  0  0  0  0  0  0
   -0.5282   -0.6216   -3.6783 O   0  0  0  0  0  0  0  0  0  0  0  0
    0.1551   -2.4807   -2.5791 O   0  0  0  0  0  0  0  0  0  0  0  0
   -0.2569   -2.8792   -3.3598 H   0  0  0  0  0  0  0  0  0  0  0  0
   -0.0679    1.0631    0.3899 C   0  0  0  0  0  0  0  0  0  0  0  0
   -1.0399    1.7591    0.1218 O   0  0  0  0  0  0  0  0  0  0  0  0
    0.8822    1.5339    1.2774 N   0  0  0  0  0  0  0  0  0  0  0  0
    1.6447    0.9109    1.5286 H   0  0  0  0  0  0  0  0  0  0  0  0
    0.7872    2.8327    1.9334 C   0  0  0  0  0  0  0  0  0  0  0  0
   -0.1174    2.8866    2.5484 H   0  0  0  0  0  0  0  0  0  0  0  0
    1.6551    2.9953    2.5799 H   0  0  0  0  0  0  0  0  0  0  0  0
    0.7559    3.6359    1.1894 H   0  0  0  0  0  0  0  0  0  0  0  0
  1  2  1  0  0  0  0
  2  3  1  0  0  0  0
  2  4  1  0  0  0  0
  2  5  1  0  0  0  0
  5  6  2  0  0  0  0
  5  7  1  0  0  0  0
  7  8  1  0  0  0  0
  7  9  1  0  0  0  0
  9 10  1  0  0  0  0
  9 11  1  0  0  0  0
  9 18  1  0  0  0  0
 11 12  1  0  0  0  0
 11 13  1  0  0  0  0
 11 14  1  0  0  0  0
 14 15  2  0  0  0  0
 14 16  1  0  0  0  0
 16 17  1  0  0  0  0
 18 19  2  0  0  0  0
 18 20  1  0  0  0  0
 20 21  1  0  0  0  0
 20 22  1  0  0  0  0
 22 23  1  0  0  0  0
 22 24  1  0  0  0  0
 22 25  1  0  0  0  0
M  END
$$$$

  -OEChem-02102214113D

 25 24  0     1  0  0  0  0  0999 V2000
   -2.7959   -3.9858    0.5702 H   0  0  0  0  0  0  0  0  0  0  0  0
   -2.8264   -2.9494    0.2226 C   0  0  0  0  0  0  0  0  0  0  0  0
   -3.4881   -2.3770    0.8770 H   0  0  0  0  0  0  0  0  0  0  0  0
   -3.2245   -2.9307   -0.7946 H   0  0  0  0  0  0  0  0  0  0  0  0
   -1.4328   -2.3506    0.2428 C   0  0  0  0  0  0  0  0  0  0  0  0
   -0.4928   -3.0100    0.6596 O   0  0  0  0  0  0  0  0  0  0  0  0
   -1.2447   -1.0431   -0.1606 N   0  0  0  0  0  0  0  0  0  0  0  0
   -2.0727   -0.4956   -0.3909 H   0  0  0  0  0  0  0  0  0  0  0  0
    0.0543   -0.3555   -0.2201 C   0  0  1  0  0  0  0  0  0  0  0  0
    0.7762   -0.9124    0.3865 H   0  0  0  0  0  0  0  0  0  0  0  0
    0.6285   -0.2392   -1.6600 C   0  0  0  0  0  0  0  0  0  0  0  0
    0.5318    0.7978   -1.9992 H   0  0  0  0  0  0  0  0  0  0  0  0
    1.6964   -0.4675   -1.6245 H   0  0  0  0  0  0  0  0  0  0  0  0
    0.0031   -1.1225   -2.7394 C   0  0  0  0  0  0  0  0  0  0  0  0
   -0.2540   -0.5986   -3.8100 O   0  0  0  0  0  0  0  0  0  0  0  0
   -0.0893   -2.4563   -2.5291 O   0  0  0  0  0  0  0  0  0  0  0  0
   -0.4168   -2.8367   -3.3574 H   0  0  0  0  0  0  0  0  0  0  0  0
   -0.0735    1.0539    0.3937 C   0  0  0  0  0  0  0  0  0  0  0  0
   -1.0456    1.7500    0.1256 O   0  0  0  0  0  0  0  0  0  0  0  0
    0.8824    1.5289    1.2725 N   0  0  0  0  0  0  0  0  0  0  0  0
    1.6453    0.9065    1.5236 H   0  0  0  0  0  0  0  0  0  0  0  0
    0.7915    2.8314    1.9217 C   0  0  0  0  0  0  0  0  0  0  0  0
   -0.0982    2.8805    2.5584 H   0  0  0  0  0  0  0  0  0  0  0  0
    1.6737    3.0067    2.5448 H   0  0  0  0  0  0  0  0  0  0  0  0
    0.7335    3.6296    1.1739 H   0  0  0  0  0  0  0  0  0  0  0  0
  1  2  1  0  0  0  0
  2  3  1  0  0  0  0
  2  4  1  0  0  0  0
  2  5  1  0  0  0  0
  5  6  2  0  0  0  0
  5  7  1  0  0  0  0
  7  8  1  0  0  0  0
  7  9  1  0  0  0  0
  9 10  1  0  0  0  0
  9 11  1  0  0  0  0
  9 18  1  0  0  0  0
 11 12  1  0  0  0  0
 11 13  1  0  0  0  0
 11 14  1  0  0  0  0
 14 15  2  0  0  0  0
 14 16  1  0  0  0  0
 16 17  1  0  0  0  0
 18 19  2  0  0  0  0
 18 20  1  0  0  0  0
 20 21  1  0  0  0  0
 20 22  1  0  0  0  0
 22 23  1  0  0  0  0
 22 24  1  0  0  0  0
 22 25  1  0  0  0  0
M  END
$$$$

  -OEChem-02102214113D

 25 24  0     1  0  0  0  0  0999 V2000
   -2.8042   -3.9852    0.6225 H   0  0  0  0  0  0  0  0  0  0  0  0
   -2.8367   -2.9520    0.2660 C   0  0  0  0  0  0  0  0  0  0  0  0
   -3.4960   -2.3740    0.9179 H   0  0  0  0  0  0  0  0  0  0  0  0
   -3.2387   -2.9424   -0.7498 H   0  0  0  0  0  0  0  0  0  0  0  0
   -1.4435   -2.3523    0.2741 C   0  0  0  0  0  0  0  0  0  0  0  0
   -0.4993   -3.0097    0.6856 O   0  0  0  0  0  0  0  0  0  0  0  0
   -1.2599   -1.0458   -0.1349 N   0  0  0  0  0  0  0  0  0  0  0  0
   -2.0889   -0.5039   -0.3731 H   0  0  0  0  0  0  0  0  0  0  0  0
    0.0390   -0.3623   -0.2143 C   0  0  1  0  0  0  0  0  0  0  0  0
    0.7656   -0.9181    0.3879 H   0  0  0  0  0  0  0  0  0  0  0  0
    0.6105   -0.2399   -1.6575 C   0  0  0  0  0  0  0  0  0  0  0  0
    0.5120    0.8010   -1.9836 H   0  0  0  0  0  0  0  0  0  0  0  0
    1.6795   -0.4629   -1.6162 H   0  0  0  0  0  0  0  0  0  0  0  0
    0.0116   -1.0993   -2.7750 C   0  0  0  0  0  0  0  0  0  0  0  0
    0.0446   -0.6192   -3.8953 O   0  0  0  0  0  0  0  0  0  0  0  0
   -0.3654   -2.3771   -2.5368 O   0  0  0  0  0  0  0  0  0  0  0  0
   -0.6071   -2.7485   -3.3983 H   0  0  0  0  0  0  0  0  0  0  0  0
   -0.0845    1.0474    0.4003 C   0  0  0  0  0  0  0  0  0  0  0  0
   -1.0550    1.7467    0.1340 O   0  0  0  0  0  0  0  0  0  0  0  0
    0.8812    1.5242    1.2671 N   0  0  0  0  0  0  0  0  0  0  0  0
    1.6407    0.8981    1.5191 H   0  0  0  0  0  0  0  0  0  0  0  0
    0.8020    2.8305    1.9097 C   0  0  0  0  0  0  0  0  0  0  0  0
   -0.0897    2.8927    2.5425 H   0  0  0  0  0  0  0  0  0  0  0  0
    1.6835    2.9981    2.5359 H   0  0  0  0  0  0  0  0  0  0  0  0
    0.7571    3.6255    1.1577 H   0  0  0  0  0  0  0  0  0  0  0  0
  1  2  1  0  0  0  0
  2  3  1  0  0  0  0
  2  4  1  0  0  0  0
  2  5  1  0  0  0  0
  5  6  2  0  0  0  0
  5  7  1  0  0  0  0
  7  8  1  0  0  0  0
  7  9  1  0  0  0  0
  9 10  1  0  0  0  0
  9 11  1  0  0  0  0
  9 18  1  0  0  0  0
 11 12  1  0  0  0  0
 11 13  1  0  0  0  0
 11 14  1  0  0  0  0
 14 15  2  0  0  0  0
 14 16  1  0  0  0  0
 16 17  1  0  0  0  0
 18 19  2  0  0  0  0
 18 20  1  0  0  0  0
 20 21  1  0  0  0  0
 20 22  1  0  0  0  0
 22 23  1  0  0  0  0
 22 24  1  0  0  0  0
 22 25  1  0  0  0  0
M  END
$$$$

  -OEChem-02102214113D

 25 24  0     1  0  0  0  0  0999 V2000
   -2.7998   -3.9917    0.6494 H   0  0  0  0  0  0  0  0  0  0  0  0
   -2.8389   -2.9571    0.2975 C   0  0  0  0  0  0  0  0  0  0  0  0
   -3.4987   -2.3851    0.9542 H   0  0  0  0  0  0  0  0  0  0  0  0
   -3.2446   -2.9452   -0.7170 H   0  0  0  0  0  0  0  0  0  0  0  0
   -1.4486   -2.3506    0.3026 C   0  0  0  0  0  0  0  0  0  0  0  0
   -0.4973   -3.0079    0.6988 O   0  0  0  0  0  0  0  0  0  0  0  0
   -1.2712   -1.0443   -0.1094 N   0  0  0  0  0  0  0  0  0  0  0  0
   -2.1014   -0.5115   -0.3620 H   0  0  0  0  0  0  0  0  0  0  0  0
    0.0261   -0.3632   -0.2107 C   0  0  1  0  0  0  0  0  0  0  0  0
    0.7570   -0.9170    0.3877 H   0  0  0  0  0  0  0  0  0  0  0  0
    0.5960   -0.2452   -1.6572 C   0  0  0  0  0  0  0  0  0  0  0  0
    0.4926    0.7962   -1.9794 H   0  0  0  0  0  0  0  0  0  0  0  0
    1.6666   -0.4594   -1.6081 H   0  0  0  0  0  0  0  0  0  0  0  0
    0.0257   -1.0903   -2.8046 C   0  0  0  0  0  0  0  0  0  0  0  0
    0.3392   -0.7167   -3.9222 O   0  0  0  0  0  0  0  0  0  0  0  0
   -0.6752   -2.2277   -2.5868 O   0  0  0  0  0  0  0  0  0  0  0  0
   -0.8447   -2.6036   -3.4637 H   0  0  0  0  0  0  0  0  0  0  0  0
   -0.0898    1.0465    0.4065 C   0  0  0  0  0  0  0  0  0  0  0  0
   -1.0623    1.7469    0.1504 O   0  0  0  0  0  0  0  0  0  0  0  0
    0.8879    1.5258    1.2588 N   0  0  0  0  0  0  0  0  0  0  0  0
    1.6558    0.9038    1.4952 H   0  0  0  0  0  0  0  0  0  0  0  0
    0.8120    2.8300    1.9066 C   0  0  0  0  0  0  0  0  0  0  0  0
   -0.0813    2.8938    2.5370 H   0  0  0  0  0  0  0  0  0  0  0  0
    1.6919    2.9915    2.5367 H   0  0  0  0  0  0  0  0  0  0  0  0
    0.7721    3.6281    1.1578 H   0  0  0  0  0  0  0  0  0  0  0  0
  1  2  1  0  0  0  0
  2  3  1  0  0  0  0
  2  4  1  0  0  0  0
  2  5  1  0  0  0  0
  5  6  2  0  0  0  0
  5  7  1  0  0  0  0
  7  8  1  0  0  0  0
  7  9  1  0  0  0  0
  9 10  1  0  0  0  0
  9 11  1  0  0  0  0
  9 18  1  0  0  0  0
 11 12  1  0  0  0  0
 11 13  1  0  0  0  0
 11 14  1  0  0  0  0
 14 15  2  0  0  0  0
 14 16  1  0  0  0  0
 16 17  1  0  0  0  0
 18 19  2  0  0  0  0
 18 20  1  0  0  0  0
 20 21  1  0  0  0  0
 20 22  1  0  0  0  0
 22 23  1  0  0  0  0
 22 24  1  0  0  0  0
 22 25  1  0  0  0  0
M  END
$$$$

  -OEChem-02102214113D

 25 24  0     1  0  0  0  0  0999 V2000
   -2.7355   -4.0390    0.6394 H   0  0  0  0  0  0  0  0  0  0  0  0
   -2.7975   -2.9991    0.3074 C   0  0  0  0  0  0  0  0  0  0  0  0
   -3.4649   -2.4533    0.9785 H   0  0  0  0  0  0  0  0  0  0  0  0
   -3.2095   -2.9753   -0.7043 H   0  0  0  0  0  0  0  0  0  0  0  0
   -1.4203   -2.3640    0.3171 C   0  0  0  0  0  0  0  0  0  0  0  0
   -0.4486   -3.0148    0.6712 O   0  0  0  0  0  0  0  0  0  0  0  0
   -1.2704   -1.0514   -0.0787 N   0  0  0  0  0  0  0  0  0  0  0  0
   -2.1027   -0.5606   -0.4009 H   0  0  0  0  0  0  0  0  0  0  0  0
    0.0132   -0.3543   -0.2071 C   0  0  1  0  0  0  0  0  0  0  0  0
    0.7656   -0.8979    0.3739 H   0  0  0  0  0  0  0  0  0  0  0  0
    0.5538   -0.2237   -1.6651 C   0  0  0  0  0  0  0  0  0  0  0  0
    0.7138    0.8374   -1.8815 H   0  0  0  0  0  0  0  0  0  0  0  0
    1.5367   -0.7024   -1.6809 H   0  0  0  0  0  0  0  0  0  0  0  0
   -0.2133   -0.7871   -2.8725 C   0  0  0  0  0  0  0  0  0  0  0  0
    0.3394   -0.6064   -3.9442 O   0  0  0  0  0  0  0  0  0  0  0  0
   -1.4207   -1.3955   -2.7706 O   0  0  0  0  0  0  0  0  0  0  0  0
   -1.6689   -1.6278   -3.6785 H   0  0  0  0  0  0  0  0  0  0  0  0
   -0.1037    1.0449    0.4338 C   0  0  0  0  0  0  0  0  0  0  0  0
   -1.0760    1.7503    0.1921 O   0  0  0  0  0  0  0  0  0  0  0  0
    0.8925    1.5232    1.2653 N   0  0  0  0  0  0  0  0  0  0  0  0
    1.6651    0.9007    1.4846 H   0  0  0  0  0  0  0  0  0  0  0  0
    0.8322    2.8271    1.9148 C   0  0  0  0  0  0  0  0  0  0  0  0
   -0.0410    2.8882    2.5728 H   0  0  0  0  0  0  0  0  0  0  0  0
    1.7310    2.9916    2.5167 H   0  0  0  0  0  0  0  0  0  0  0  0
    0.7663    3.6248    1.1675 H   0  0  0  0  0  0  0  0  0  0  0  0
  1  2  1  0  0  0  0
  2  3  1  0  0  0  0
  2  4  1  0  0  0  0
  2  5  1  0  0  0  0
  5  6  2  0  0  0  0
  5  7  1  0  0  0  0
  7  8  1  0  0  0  0
  7  9  1  0  0  0  0
  9 10  1  0  0  0  0
  9 11  1  0  0  0  0
  9 18  1  0  0  0  0
 11 12  1  0  0  0  0
 11 13  1  0  0  0  0
 11 14  1  0  0  0  0
 14 15  2  0  0  0  0
 14 16  1  0  0  0  0
 16 17  1  0  0  0  0
 18 19  2  0  0  0  0
 18 20  1  0  0  0  0
 20 21  1  0  0  0  0
 20 22  1  0  0  0  0
 22 23  1  0  0  0  0
 22 24  1  0  0  0  0
 22 25  1  0  0  0  0
M  END
$$$$

  -OEChem-02102214113D

 25 24  0     1  0  0  0  0  0999 V2000
   -2.7235   -4.0560    0.6053 H   0  0  0  0  0  0  0  0  0  0  0  0
   -2.7872   -3.0143    0.2788 C   0  0  0  0  0  0  0  0  0  0  0  0
   -3.4637   -2.4757    0.9467 H   0  0  0  0  0  0  0  0  0  0  0  0
   -3.1894   -2.9863   -0.7368 H   0  0  0  0  0  0  0  0  0  0  0  0
   -1.4132   -2.3726    0.3067 C   0  0  0  0  0  0  0  0  0  0  0  0
   -0.4423   -3.0212    0.6658 O   0  0  0  0  0  0  0  0  0  0  0  0
   -1.2632   -1.0589   -0.0842 N   0  0  0  0  0  0  0  0  0  0  0  0
   -2.0891   -0.5786   -0.4392 H   0  0  0  0  0  0  0  0  0  0  0  0
    0.0188   -0.3559   -0.2005 C   0  0  1  0  0  0  0  0  0  0  0  0
    0.7716   -0.8995    0.3801 H   0  0  0  0  0  0  0  0  0  0  0  0
    0.5551   -0.2239   -1.6586 C   0  0  0  0  0  0  0  0  0  0  0  0
    0.7037    0.8367   -1.8834 H   0  0  0  0  0  0  0  0  0  0  0  0
    1.5420   -0.6952   -1.6793 H   0  0  0  0  0  0  0  0  0  0  0  0
   -0.2326   -0.7975   -2.8459 C   0  0  0  0  0  0  0  0  0  0  0  0
    0.4039   -0.8940   -3.8814 O   0  0  0  0  0  0  0  0  0  0  0  0
   -1.5677   -1.0322   -2.7867 O   0  0  0  0  0  0  0  0  0  0  0  0
   -1.8212   -1.3035   -3.6824 H   0  0  0  0  0  0  0  0  0  0  0  0
   -0.1013    1.0429    0.4411 C   0  0  0  0  0  0  0  0  0  0  0  0
   -1.0659    1.7541    0.1867 O   0  0  0  0  0  0  0  0  0  0  0  0
    0.8902    1.5197    1.2792 N   0  0  0  0  0  0  0  0  0  0  0  0
    1.6586    0.8948    1.5061 H   0  0  0  0  0  0  0  0  0  0  0  0
    0.8371    2.8311    1.9145 C   0  0  0  0  0  0  0  0  0  0  0  0
   -0.0374    2.9045    2.5695 H   0  0  0  0  0  0  0  0  0  0  0  0
    1.7357    2.9965    2.5165 H   0  0  0  0  0  0  0  0  0  0  0  0
    0.7786    3.6214    1.1587 H   0  0  0  0  0  0  0  0  0  0  0  0
  1  2  1  0  0  0  0
  2  3  1  0  0  0  0
  2  4  1  0  0  0  0
  2  5  1  0  0  0  0
  5  6  2  0  0  0  0
  5  7  1  0  0  0  0
  7  8  1  0  0  0  0
  7  9  1  0  0  0  0
  9 10  1  0  0  0  0
  9 11  1  0  0  0  0
  9 18  1  0  0  0  0
 11 12  1  0  0  0  0
 11 13  1  0  0  0  0
 11 14  1  0  0  0  0
 14 15  2  0  0  0  0
 14 16  1  0  0  0  0
 16 17  1  0  0  0  0
 18 19  2  0  0  0  0
 18 20  1  0  0  0  0
 20 21  1  0  0  0  0
 20 22  1  0  0  0  0
 22 23  1  0  0  0  0
 22 24  1  0  0  0  0
 22 25  1  0  0  0  0
M  END
$$$$

  -OEChem-02102214113D

 25 24  0     1  0  0  0  0  0999 V2000
   -2.7221   -4.0509    0.5653 H   0  0  0  0  0  0  0  0  0  0  0  0
   -2.7821   -3.0068    0.2460 C   0  0  0  0  0  0  0  0  0  0  0  0
   -3.4541   -2.4699    0.9198 H   0  0  0  0  0  0  0  0  0  0  0  0
   -3.1882   -2.9705   -0.7678 H   0  0  0  0  0  0  0  0  0  0  0  0
   -1.4056   -2.3702    0.2743 C   0  0  0  0  0  0  0  0  0  0  0  0
   -0.4366   -3.0218    0.6319 O   0  0  0  0  0  0  0  0  0  0  0  0
   -1.2517   -1.0552   -0.1105 N   0  0  0  0  0  0  0  0  0  0  0  0
   -2.0767   -0.5669   -0.4580 H   0  0  0  0  0  0  0  0  0  0  0  0
    0.0304   -0.3474   -0.2089 C   0  0  1  0  0  0  0  0  0  0  0  0
    0.7803   -0.8925    0.3739 H   0  0  0  0  0  0  0  0  0  0  0  0
    0.5654   -0.2187   -1.6651 C   0  0  0  0  0  0  0  0  0  0  0  0
    0.7030    0.8401   -1.9032 H   0  0  0  0  0  0  0  0  0  0  0  0
    1.5549   -0.6843   -1.6932 H   0  0  0  0  0  0  0  0  0  0  0  0
   -0.2545   -0.8118   -2.8169 C   0  0  0  0  0  0  0  0  0  0  0  0
    0.3854   -1.2013   -3.7788 O   0  0  0  0  0  0  0  0  0  0  0  0
   -1.6096   -0.7293   -2.8217 O   0  0  0  0  0  0  0  0  0  0  0  0
   -1.8870   -1.0632   -3.6887 H   0  0  0  0  0  0  0  0  0  0  0  0
   -0.0928    1.0505    0.4335 C   0  0  0  0  0  0  0  0  0  0  0  0
   -1.0580    1.7610    0.1800 O   0  0  0  0  0  0  0  0  0  0  0  0
    0.8922    1.5226    1.2819 N   0  0  0  0  0  0  0  0  0  0  0  0
    1.6587    0.8965    1.5113 H   0  0  0  0  0  0  0  0  0  0  0  0
    0.8291    2.8266    1.9315 C   0  0  0  0  0  0  0  0  0  0  0  0
   -0.0507    2.8891    2.5808 H   0  0  0  0  0  0  0  0  0  0  0  0
    1.7223    2.9892    2.5425 H   0  0  0  0  0  0  0  0  0  0  0  0
    0.7727    3.6253    1.1842 H   0  0  0  0  0  0  0  0  0  0  0  0
  1  2  1  0  0  0  0
  2  3  1  0  0  0  0
  2  4  1  0  0  0  0
  2  5  1  0  0  0  0
  5  6  2  0  0  0  0
  5  7  1  0  0  0  0
  7  8  1  0  0  0  0
  7  9  1  0  0  0  0
  9 10  1  0  0  0  0
  9 11  1  0  0  0  0
  9 18  1  0  0  0  0
 11 12  1  0  0  0  0
 11 13  1  0  0  0  0
 11 14  1  0  0  0  0
 14 15  2  0  0  0  0
 14 16  1  0  0  0  0
 16 17  1  0  0  0  0
 18 19  2  0  0  0  0
 18 20  1  0  0  0  0
 20 21  1  0  0  0  0
 20 22  1  0  0  0  0
 22 23  1  0  0  0  0
 22 24  1  0  0  0  0
 22 25  1  0  0  0  0
M  END
$$$$

  -OEChem-02102214113D

 25 24  0     1  0  0  0  0  0999 V2000
   -2.7292   -4.0316    0.5297 H   0  0  0  0  0  0  0  0  0  0  0  0
   -2.7833   -2.9860    0.2141 C   0  0  0  0  0  0  0  0  0  0  0  0
   -3.4452   -2.4456    0.8952 H   0  0  0  0  0  0  0  0  0  0  0  0
   -3.1975   -2.9434   -0.7961 H   0  0  0  0  0  0  0  0  0  0  0  0
   -1.4012   -2.3618    0.2333 C   0  0  0  0  0  0  0  0  0  0  0  0
   -0.4349   -3.0227    0.5802 O   0  0  0  0  0  0  0  0  0  0  0  0
   -1.2390   -1.0458   -0.1447 N   0  0  0  0  0  0  0  0  0  0  0  0
   -2.0678   -0.5336   -0.4462 H   0  0  0  0  0  0  0  0  0  0  0  0
    0.0455   -0.3382   -0.2237 C   0  0  1  0  0  0  0  0  0  0  0  0
    0.7899   -0.8871    0.3630 H   0  0  0  0  0  0  0  0  0  0  0  0
    0.5842   -0.2111   -1.6763 C   0  0  0  0  0  0  0  0  0  0  0  0
    0.7184    0.8458   -1.9239 H   0  0  0  0  0  0  0  0  0  0  0  0
    1.5735   -0.6772   -1.7108 H   0  0  0  0  0  0  0  0  0  0  0  0
   -0.2645   -0.8169   -2.7960 C   0  0  0  0  0  0  0  0  0  0  0  0
    0.3195   -1.4772   -3.6383 O   0  0  0  0  0  0  0  0  0  0  0  0
   -1.5772   -0.4876   -2.8934 O   0  0  0  0  0  0  0  0  0  0  0  0
   -1.8886   -0.8946   -3.7161 H   0  0  0  0  0  0  0  0  0  0  0  0
   -0.0830    1.0576    0.4212 C   0  0  0  0  0  0  0  0  0  0  0  0
   -1.0539    1.7624    0.1740 O   0  0  0  0  0  0  0  0  0  0  0  0
    0.8922    1.5250    1.2830 N   0  0  0  0  0  0  0  0  0  0  0  0
    1.6610    0.9009    1.5103 H   0  0  0  0  0  0  0  0  0  0  0  0
    0.8144    2.8197    1.9492 C   0  0  0  0  0  0  0  0  0  0  0  0
   -0.0656    2.8634    2.5997 H   0  0  0  0  0  0  0  0  0  0  0  0
    1.7063    2.9849    2.5611 H   0  0  0  0  0  0  0  0  0  0  0  0
    0.7481    3.6271    1.2122 H   0  0  0  0  0  0  0  0  0  0  0  0
  1  2  1  0  0  0  0
  2  3  1  0  0  0  0
  2  4  1  0  0  0  0
  2  5  1  0  0  0  0
  5  6  2  0  0  0  0
  5  7  1  0  0  0  0
  7  8  1  0  0  0  0
  7  9  1  0  0  0  0
  9 10  1  0  0  0  0
  9 11  1  0  0  0  0
  9 18  1  0  0  0  0
 11 12  1  0  0  0  0
 11 13  1  0  0  0  0
 11 14  1  0  0  0  0
 14 15  2  0  0  0  0
 14 16  1  0  0  0  0
 16 17  1  0  0  0  0
 18 19  2  0  0  0  0
 18 20  1  0  0  0  0
 20 21  1  0  0  0  0
 20 22  1  0  0  0  0
 22 23  1  0  0  0  0
 22 24  1  0  0  0  0
 22 25  1  0  0  0  0
M  END
$$$$

  -OEChem-02102214113D

 25 24  0     1  0  0  0  0  0999 V2000
   -2.7349   -4.0127    0.5047 H   0  0  0  0  0  0  0  0  0  0  0  0
   -2.7844   -2.9674    0.1875 C   0  0  0  0  0  0  0  0  0  0  0  0
   -3.4369   -2.4212    0.8729 H   0  0  0  0  0  0  0  0  0  0  0  0
   -3.2065   -2.9242   -0.8193 H   0  0  0  0  0  0  0  0  0  0  0  0
   -1.3975   -2.3533    0.1933 C   0  0  0  0  0  0  0  0  0  0  0  0
   -0.4330   -3.0212    0.5312 O   0  0  0  0  0  0  0  0  0  0  0  0
   -1.2301   -1.0357   -0.1780 N   0  0  0  0  0  0  0  0  0  0  0  0
   -2.0620   -0.5036   -0.4329 H   0  0  0  0  0  0  0  0  0  0  0  0
    0.0574   -0.3294   -0.2390 C   0  0  1  0  0  0  0  0  0  0  0  0
    0.7957   -0.8824    0.3515 H   0  0  0  0  0  0  0  0  0  0  0  0
    0.6032   -0.2025   -1.6868 C   0  0  0  0  0  0  0  0  0  0  0  0
    0.7383    0.8531   -1.9396 H   0  0  0  0  0  0  0  0  0  0  0  0
    1.5904   -0.6722   -1.7255 H   0  0  0  0  0  0  0  0  0  0  0  0
   -0.2633   -0.8155   -2.7849 C   0  0  0  0  0  0  0  0  0  0  0  0
    0.2226   -1.7022   -3.4659 O   0  0  0  0  0  0  0  0  0  0  0  0
   -1.4953   -0.2957   -3.0082 O   0  0  0  0  0  0  0  0  0  0  0  0
   -1.8465   -0.7702   -3.7766 H   0  0  0  0  0  0  0  0  0  0  0  0
   -0.0749    1.0645    0.4093 C   0  0  0  0  0  0  0  0  0  0  0  0
   -1.0504    1.7646    0.1672 O   0  0  0  0  0  0  0  0  0  0  0  0
    0.8912    1.5271    1.2840 N   0  0  0  0  0  0  0  0  0  0  0  0
    1.6590    0.9026    1.5141 H   0  0  0  0  0  0  0  0  0  0  0  0
    0.8028    2.8153    1.9615 C   0  0  0  0  0  0  0  0  0  0  0  0
   -0.0847    2.8509    2.6020 H   0  0  0  0  0  0  0  0  0  0  0  0
    1.6870    2.9764    2.5855 H   0  0  0  0  0  0  0  0  0  0  0  0
    0.7434    3.6295    1.2316 H   0  0  0  0  0  0  0  0  0  0  0  0
  1  2  1  0  0  0  0
  2  3  1  0  0  0  0
  2  4  1  0  0  0  0
  2  5  1  0  0  0  0
  5  6  2  0  0  0  0
  5  7  1  0  0  0  0
  7  8  1  0  0  0  0
  7  9  1  0  0  0  0
  9 10  1  0  0  0  0
  9 11  1  0  0  0  0
  9 18  1  0  0  0  0
 11 12  1  0  0  0  0
 11 13  1  0  0  0  0
 11 14  1  0  0  0  0
 14 15  2  0  0  0  0
 14 16  1  0  0  0  0
 16 17  1  0  0  0  0
 18 19  2  0  0  0  0
 18 20  1  0  0  0  0
 20 21  1  0  0  0  0
 20 22  1  0  0  0  0
 22 23  1  0  0  0  0
 22 24  1  0  0  0  0
 22 25  1  0  0  0  0
M  END
$$$$

  -OEChem-02102214113D

 25 24  0     1  0  0  0  0  0999 V2000
   -2.7383   -4.0009    0.4896 H   0  0  0  0  0  0  0  0  0  0  0  0
   -2.7839   -2.9568    0.1673 C   0  0  0  0  0  0  0  0  0  0  0  0
   -3.4330   -2.4043    0.8509 H   0  0  0  0  0  0  0  0  0  0  0  0
   -3.2072   -2.9169   -0.8393 H   0  0  0  0  0  0  0  0  0  0  0  0
   -1.3944   -2.3487    0.1677 C   0  0  0  0  0  0  0  0  0  0  0  0
   -0.4330   -3.0190    0.5097 O   0  0  0  0  0  0  0  0  0  0  0  0
   -1.2238   -1.0302   -0.2010 N   0  0  0  0  0  0  0  0  0  0  0  0
   -2.0574   -0.4857   -0.4208 H   0  0  0  0  0  0  0  0  0  0  0  0
    0.0667   -0.3269   -0.2487 C   0  0  1  0  0  0  0  0  0  0  0  0
    0.8000   -0.8820    0.3460 H   0  0  0  0  0  0  0  0  0  0  0  0
    0.6200   -0.1980   -1.6926 C   0  0  0  0  0  0  0  0  0  0  0  0
    0.7623    0.8568   -1.9455 H   0  0  0  0  0  0  0  0  0  0  0  0
    1.6036   -0.6744   -1.7340 H   0  0  0  0  0  0  0  0  0  0  0  0
   -0.2556   -0.8108   -2.7810 C   0  0  0  0  0  0  0  0  0  0  0  0
    0.0912   -1.8687   -3.2780 O   0  0  0  0  0  0  0  0  0  0  0  0
   -1.3625   -0.1317   -3.1663 O   0  0  0  0  0  0  0  0  0  0  0  0
   -1.7596   -0.6528   -3.8800 H   0  0  0  0  0  0  0  0  0  0  0  0
   -0.0712    1.0655    0.4009 C   0  0  0  0  0  0  0  0  0  0  0  0
   -1.0497    1.7616    0.1586 O   0  0  0  0  0  0  0  0  0  0  0  0
    0.8862    1.5256    1.2862 N   0  0  0  0  0  0  0  0  0  0  0  0
    1.6588    0.9056    1.5119 H   0  0  0  0  0  0  0  0  0  0  0  0
    0.7932    2.8128    1.9647 C   0  0  0  0  0  0  0  0  0  0  0  0
   -0.1028    2.8513    2.5933 H   0  0  0  0  0  0  0  0  0  0  0  0
    1.6693    2.9696    2.6011 H   0  0  0  0  0  0  0  0  0  0  0  0
    0.7463    3.6277    1.2348 H   0  0  0  0  0  0  0  0  0  0  0  0
  1  2  1  0  0  0  0
  2  3  1  0  0  0  0
  2  4  1  0  0  0  0
  2  5  1  0  0  0  0
  5  6  2  0  0  0  0
  5  7  1  0  0  0  0
  7  8  1  0  0  0  0
  7  9  1  0  0  0  0
  9 10  1  0  0  0  0
  9 11  1  0  0  0  0
  9 18  1  0  0  0  0
 11 12  1  0  0  0  0
 11 13  1  0  0  0  0
 11 14  1  0  0  0  0
 14 15  2  0  0  0  0
 14 16  1  0  0  0  0
 16 17  1  0  0  0  0
 18 19  2  0  0  0  0
 18 20  1  0  0  0  0
 20 21  1  0  0  0  0
 20 22  1  0  0  0  0
 22 23  1  0  0  0  0
 22 24  1  0  0  0  0
 22 25  1  0  0  0  0
M  END
$$$$

  -OEChem-02102214113D

 25 24  0     1  0  0  0  0  0999 V2000
   -2.7387   -3.9960    0.4815 H   0  0  0  0  0  0  0  0  0  0  0  0
   -2.7813   -2.9538    0.1534 C   0  0  0  0  0  0  0  0  0  0  0  0
   -3.4384   -2.3983    0.8266 H   0  0  0  0  0  0  0  0  0  0  0  0
   -3.1932   -2.9197   -0.8580 H   0  0  0  0  0  0  0  0  0  0  0  0
   -1.3923   -2.3449    0.1651 C   0  0  0  0  0  0  0  0  0  0  0  0
   -0.4350   -3.0109    0.5272 O   0  0  0  0  0  0  0  0  0  0  0  0
   -1.2198   -1.0271   -0.2068 N   0  0  0  0  0  0  0  0  0  0  0  0
   -2.0536   -0.4785   -0.4134 H   0  0  0  0  0  0  0  0  0  0  0  0
    0.0732   -0.3281   -0.2528 C   0  0  1  0  0  0  0  0  0  0  0  0
    0.8049   -0.8840    0.3431 H   0  0  0  0  0  0  0  0  0  0  0  0
    0.6276   -0.1991   -1.6965 C   0  0  0  0  0  0  0  0  0  0  0  0
    0.7787    0.8553   -1.9470 H   0  0  0  0  0  0  0  0  0  0  0  0
    1.6070   -0.6836   -1.7413 H   0  0  0  0  0  0  0  0  0  0  0  0
   -0.2509   -0.8075   -2.7844 C   0  0  0  0  0  0  0  0  0  0  0  0
   -0.0800   -1.9753   -3.0912 O   0  0  0  0  0  0  0  0  0  0  0  0
   -1.1797   -0.0110   -3.3634 O   0  0  0  0  0  0  0  0  0  0  0  0
   -1.6222   -0.5567   -4.0305 H   0  0  0  0  0  0  0  0  0  0  0  0
   -0.0658    1.0652    0.3940 C   0  0  0  0  0  0  0  0  0  0  0  0
   -1.0453    1.7588    0.1484 O   0  0  0  0  0  0  0  0  0  0  0  0
    0.8879    1.5271    1.2822 N   0  0  0  0  0  0  0  0  0  0  0  0
    1.6585    0.9067    1.5140 H   0  0  0  0  0  0  0  0  0  0  0  0
    0.7871    2.8120    1.9642 C   0  0  0  0  0  0  0  0  0  0  0  0
   -0.1153    2.8474    2.5837 H   0  0  0  0  0  0  0  0  0  0  0  0
    1.6565    2.9673    2.6103 H   0  0  0  0  0  0  0  0  0  0  0  0
    0.7470    3.6297    1.2368 H   0  0  0  0  0  0  0  0  0  0  0  0
  1  2  1  0  0  0  0
  2  3  1  0  0  0  0
  2  4  1  0  0  0  0
  2  5  1  0  0  0  0
  5  6  2  0  0  0  0
  5  7  1  0  0  0  0
  7  8  1  0  0  0  0
  7  9  1  0  0  0  0
  9 10  1  0  0  0  0
  9 11  1  0  0  0  0
  9 18  1  0  0  0  0
 11 12  1  0  0  0  0
 11 13  1  0  0  0  0
 11 14  1  0  0  0  0
 14 15  2  0  0  0  0
 14 16  1  0  0  0  0
 16 17  1  0  0  0  0
 18 19  2  0  0  0  0
 18 20  1  0  0  0  0
 20 21  1  0  0  0  0
 20 22  1  0  0  0  0
 22 23  1  0  0  0  0
 22 24  1  0  0  0  0
 22 25  1  0  0  0  0
M  END
$$$$

  -OEChem-02102214113D

 25 24  0     1  0  0  0  0  0999 V2000
   -2.7380   -4.0013    0.4944 H   0  0  0  0  0  0  0  0  0  0  0  0
   -2.7815   -2.9636    0.1524 C   0  0  0  0  0  0  0  0  0  0  0  0
   -3.4527   -2.4034    0.8077 H   0  0  0  0  0  0  0  0  0  0  0  0
   -3.1764   -2.9452   -0.8663 H   0  0  0  0  0  0  0  0  0  0  0  0
   -1.3962   -2.3468    0.1787 C   0  0  0  0  0  0  0  0  0  0  0  0
   -0.4418   -3.0049    0.5634 O   0  0  0  0  0  0  0  0  0  0  0  0
   -1.2248   -1.0295   -0.1975 N   0  0  0  0  0  0  0  0  0  0  0  0
   -2.0583   -0.4857   -0.4155 H   0  0  0  0  0  0  0  0  0  0  0  0
    0.0697   -0.3338   -0.2488 C   0  0  1  0  0  0  0  0  0  0  0  0
    0.8027   -0.8890    0.3461 H   0  0  0  0  0  0  0  0  0  0  0  0
    0.6240   -0.2002   -1.6935 C   0  0  0  0  0  0  0  0  0  0  0  0
    0.7855    0.8549   -1.9345 H   0  0  0  0  0  0  0  0  0  0  0  0
    1.5998   -0.6911   -1.7388 H   0  0  0  0  0  0  0  0  0  0  0  0
   -0.2442   -0.7973   -2.7974 C   0  0  0  0  0  0  0  0  0  0  0  0
   -0.2794   -2.0089   -2.9354 O   0  0  0  0  0  0  0  0  0  0  0  0
   -0.9355    0.0627   -3.5813 O   0  0  0  0  0  0  0  0  0  0  0  0
   -1.4159   -0.4844   -4.2205 H   0  0  0  0  0  0  0  0  0  0  0  0
   -0.0688    1.0604    0.3961 C   0  0  0  0  0  0  0  0  0  0  0  0
   -1.0444    1.7568    0.1422 O   0  0  0  0  0  0  0  0  0  0  0  0
    0.8859    1.5244    1.2821 N   0  0  0  0  0  0  0  0  0  0  0  0
    1.6527    0.9018    1.5202 H   0  0  0  0  0  0  0  0  0  0  0  0
    0.7897    2.8142    1.9553 C   0  0  0  0  0  0  0  0  0  0  0  0
   -0.1013    2.8493    2.5912 H   0  0  0  0  0  0  0  0  0  0  0  0
    1.6703    2.9802    2.5835 H   0  0  0  0  0  0  0  0  0  0  0  0
    0.7315    3.6258    1.2222 H   0  0  0  0  0  0  0  0  0  0  0  0
  1  2  1  0  0  0  0
  2  3  1  0  0  0  0
  2  4  1  0  0  0  0
  2  5  1  0  0  0  0
  5  6  2  0  0  0  0
  5  7  1  0  0  0  0
  7  8  1  0  0  0  0
  7  9  1  0  0  0  0
  9 10  1  0  0  0  0
  9 11  1  0  0  0  0
  9 18  1  0  0  0  0
 11 12  1  0  0  0  0
 11 13  1  0  0  0  0
 11 14  1  0  0  0  0
 14 15  2  0  0  0  0
 14 16  1  0  0  0  0
 16 17  1  0  0  0  0
 18 19  2  0  0  0  0
 18 20  1  0  0  0  0
 20 21  1  0  0  0  0
 20 22  1  0  0  0  0
 22 23  1  0  0  0  0
 22 24  1  0  0  0  0
 22 25  1  0  0  0  0
M  END
$$$$

  -OEChem-02102214113D

 25 24  0     1  0  0  0  0  0999 V2000
   -2.7376   -4.0133    0.5141 H   0  0  0  0  0  0  0  0  0  0  0  0
   -2.7822   -2.9776    0.1664 C   0  0  0  0  0  0  0  0  0  0  0  0
   -3.4678   -2.4184    0.8075 H   0  0  0  0  0  0  0  0  0  0  0  0
   -3.1596   -2.9669   -0.8590 H   0  0  0  0  0  0  0  0  0  0  0  0
   -1.4016   -2.3512    0.2113 C   0  0  0  0  0  0  0  0  0  0  0  0
   -0.4484   -3.0001    0.6154 O   0  0  0  0  0  0  0  0  0  0  0  0
   -1.2338   -1.0356   -0.1728 N   0  0  0  0  0  0  0  0  0  0  0  0
   -2.0667   -0.5041   -0.4199 H   0  0  0  0  0  0  0  0  0  0  0  0
    0.0610   -0.3431   -0.2422 C   0  0  1  0  0  0  0  0  0  0  0  0
    0.7991   -0.8961    0.3482 H   0  0  0  0  0  0  0  0  0  0  0  0
    0.6107   -0.2045   -1.6911 C   0  0  0  0  0  0  0  0  0  0  0  0
    0.7791    0.8526   -1.9193 H   0  0  0  0  0  0  0  0  0  0  0  0
    1.5855   -0.6966   -1.7364 H   0  0  0  0  0  0  0  0  0  0  0  0
   -0.2378   -0.7862   -2.8220 C   0  0  0  0  0  0  0  0  0  0  0  0
   -0.5040   -1.9769   -2.8344 O   0  0  0  0  0  0  0  0  0  0  0  0
   -0.6467    0.0750   -3.7826 O   0  0  0  0  0  0  0  0  0  0  0  0
   -1.1620   -0.4510   -4.4125 H   0  0  0  0  0  0  0  0  0  0  0  0
   -0.0750    1.0530    0.4000 C   0  0  0  0  0  0  0  0  0  0  0  0
   -1.0469    1.7527    0.1399 O   0  0  0  0  0  0  0  0  0  0  0  0
    0.8865    1.5228    1.2757 N   0  0  0  0  0  0  0  0  0  0  0  0
    1.6508    0.8986    1.5178 H   0  0  0  0  0  0  0  0  0  0  0  0
    0.7949    2.8168    1.9413 C   0  0  0  0  0  0  0  0  0  0  0  0
   -0.0996    2.8611    2.5713 H   0  0  0  0  0  0  0  0  0  0  0  0
    1.6725    2.9803    2.5741 H   0  0  0  0  0  0  0  0  0  0  0  0
    0.7457    3.6245    1.2033 H   0  0  0  0  0  0  0  0  0  0  0  0
  1  2  1  0  0  0  0
  2  3  1  0  0  0  0
  2  4  1  0  0  0  0
  2  5  1  0  0  0  0
  5  6  2  0  0  0  0
  5  7  1  0  0  0  0
  7  8  1  0  0  0  0
  7  9  1  0  0  0  0
  9 10  1  0  0  0  0
  9 11  1  0  0  0  0
  9 18  1  0  0  0  0
 11 12  1  0  0  0  0
 11 13  1  0  0  0  0
 11 14  1  0  0  0  0
 14 15  2  0  0  0  0
 14 16  1  0  0  0  0
 16 17  1  0  0  0  0
 18 19  2  0  0  0  0
 18 20  1  0  0  0  0
 20 21  1  0  0  0  0
 20 22  1  0  0  0  0
 22 23  1  0  0  0  0
 22 24  1  0  0  0  0
 22 25  1  0  0  0  0
M  END
$$$$

  -OEChem-02102214113D

 25 24  0     1  0  0  0  0  0999 V2000
   -2.7385   -4.0277    0.5467 H   0  0  0  0  0  0  0  0  0  0  0  0
   -2.7875   -2.9946    0.1921 C   0  0  0  0  0  0  0  0  0  0  0  0
   -3.4829   -2.4365    0.8233 H   0  0  0  0  0  0  0  0  0  0  0  0
   -3.1556   -2.9926   -0.8368 H   0  0  0  0  0  0  0  0  0  0  0  0
   -1.4122   -2.3578    0.2455 C   0  0  0  0  0  0  0  0  0  0  0  0
   -0.4566   -2.9994    0.6563 O   0  0  0  0  0  0  0  0  0  0  0  0
   -1.2505   -1.0433   -0.1444 N   0  0  0  0  0  0  0  0  0  0  0  0
   -2.0819   -0.5286   -0.4280 H   0  0  0  0  0  0  0  0  0  0  0  0
    0.0428   -0.3520   -0.2344 C   0  0  1  0  0  0  0  0  0  0  0  0
    0.7862   -0.9028    0.3515 H   0  0  0  0  0  0  0  0  0  0  0  0
    0.5902   -0.2087   -1.6868 C   0  0  0  0  0  0  0  0  0  0  0  0
    0.7593    0.8513   -1.9014 H   0  0  0  0  0  0  0  0  0  0  0  0
    1.5676   -0.6961   -1.7272 H   0  0  0  0  0  0  0  0  0  0  0  0
   -0.2275   -0.7741   -2.8527 C   0  0  0  0  0  0  0  0  0  0  0  0
   -0.7306   -1.8842   -2.7918 O   0  0  0  0  0  0  0  0  0  0  0  0
   -0.3283    0.0214   -3.9432 O   0  0  0  0  0  0  0  0  0  0  0  0
   -0.8626   -0.4711   -4.5845 H   0  0  0  0  0  0  0  0  0  0  0  0
   -0.0874    1.0452    0.4072 C   0  0  0  0  0  0  0  0  0  0  0  0
   -1.0539    1.7509    0.1432 O   0  0  0  0  0  0  0  0  0  0  0  0
    0.8848    1.5184    1.2692 N   0  0  0  0  0  0  0  0  0  0  0  0
    1.6445    0.8901    1.5151 H   0  0  0  0  0  0  0  0  0  0  0  0
    0.8064    2.8197    1.9224 C   0  0  0  0  0  0  0  0  0  0  0  0
   -0.0773    2.8723    2.5672 H   0  0  0  0  0  0  0  0  0  0  0  0
    1.6950    2.9888    2.5381 H   0  0  0  0  0  0  0  0  0  0  0  0
    0.7464    3.6199    1.1770 H   0  0  0  0  0  0  0  0  0  0  0  0
  1  2  1  0  0  0  0
  2  3  1  0  0  0  0
  2  4  1  0  0  0  0
  2  5  1  0  0  0  0
  5  6  2  0  0  0  0
  5  7  1  0  0  0  0
  7  8  1  0  0  0  0
  7  9  1  0  0  0  0
  9 10  1  0  0  0  0
  9 11  1  0  0  0  0
  9 18  1  0  0  0  0
 11 12  1  0  0  0  0
 11 13  1  0  0  0  0
 11 14  1  0  0  0  0
 14 15  2  0  0  0  0
 14 16  1  0  0  0  0
 16 17  1  0  0  0  0
 18 19  2  0  0  0  0
 18 20  1  0  0  0  0
 20 21  1  0  0  0  0
 20 22  1  0  0  0  0
 22 23  1  0  0  0  0
 22 24  1  0  0  0  0
 22 25  1  0  0  0  0
M  END
$$$$

  -OEChem-02102214113D

 25 24  0     1  0  0  0  0  0999 V2000
   -2.7382   -4.0392    0.5615 H   0  0  0  0  0  0  0  0  0  0  0  0
   -2.7918   -3.0046    0.2120 C   0  0  0  0  0  0  0  0  0  0  0  0
   -3.4954   -2.4546    0.8412 H   0  0  0  0  0  0  0  0  0  0  0  0
   -3.1527   -2.9990   -0.8196 H   0  0  0  0  0  0  0  0  0  0  0  0
   -1.4211   -2.3587    0.2781 C   0  0  0  0  0  0  0  0  0  0  0  0
   -0.4630   -2.9952    0.6916 O   0  0  0  0  0  0  0  0  0  0  0  0
   -1.2650   -1.0454   -0.1170 N   0  0  0  0  0  0  0  0  0  0  0  0
   -2.0931   -0.5518   -0.4440 H   0  0  0  0  0  0  0  0  0  0  0  0
    0.0260   -0.3550   -0.2284 C   0  0  1  0  0  0  0  0  0  0  0  0
    0.7744   -0.9037    0.3531 H   0  0  0  0  0  0  0  0  0  0  0  0
    0.5684   -0.2149   -1.6857 C   0  0  0  0  0  0  0  0  0  0  0  0
    0.7340    0.8464   -1.8961 H   0  0  0  0  0  0  0  0  0  0  0  0
    1.5487   -0.6964   -1.7201 H   0  0  0  0  0  0  0  0  0  0  0  0
   -0.2239   -0.7715   -2.8766 C   0  0  0  0  0  0  0  0  0  0  0  0
   -0.9511   -1.7462   -2.7781 O   0  0  0  0  0  0  0  0  0  0  0  0
   -0.0315   -0.1168   -4.0453 O   0  0  0  0  0  0  0  0  0  0  0  0
   -0.5809   -0.5738   -4.7001 H   0  0  0  0  0  0  0  0  0  0  0  0
   -0.0959    1.0436    0.4124 C   0  0  0  0  0  0  0  0  0  0  0  0
   -1.0581    1.7554    0.1490 O   0  0  0  0  0  0  0  0  0  0  0  0
    0.8889    1.5186    1.2591 N   0  0  0  0  0  0  0  0  0  0  0  0
    1.6454    0.8862    1.5046 H   0  0  0  0  0  0  0  0  0  0  0  0
    0.8197    2.8213    1.9104 C   0  0  0  0  0  0  0  0  0  0  0  0
   -0.0628    2.8805    2.5562 H   0  0  0  0  0  0  0  0  0  0  0  0
    1.7100    2.9855    2.5250 H   0  0  0  0  0  0  0  0  0  0  0  0
    0.7640    3.6204    1.1636 H   0  0  0  0  0  0  0  0  0  0  0  0
  1  2  1  0  0  0  0
  2  3  1  0  0  0  0
  2  4  1  0  0  0  0
  2  5  1  0  0  0  0
  5  6  2  0  0  0  0
  5  7  1  0  0  0  0
  7  8  1  0  0  0  0
  7  9  1  0  0  0  0
  9 10  1  0  0  0  0
  9 11  1  0  0  0  0
  9 18  1  0  0  0  0
 11 12  1  0  0  0  0
 11 13  1  0  0  0  0
 11 14  1  0  0  0  0
 14 15  2  0  0  0  0
 14 16  1  0  0  0  0
 16 17  1  0  0  0  0
 18 19  2  0  0  0  0
 18 20  1  0  0  0  0
 20 21  1  0  0  0  0
 20 22  1  0  0  0  0
 22 23  1  0  0  0  0
 22 24  1  0  0  0  0
 22 25  1  0  0  0  0
M  END
$$$$

  -OEChem-02102214113D

 25 24  0     1  0  0  0  0  0999 V2000
   -2.7391   -4.0479    0.5618 H   0  0  0  0  0  0  0  0  0  0  0  0
   -2.7964   -3.0109    0.2204 C   0  0  0  0  0  0  0  0  0  0  0  0
   -3.5052   -2.4691    0.8508 H   0  0  0  0  0  0  0  0  0  0  0  0
   -3.1535   -2.9987   -0.8124 H   0  0  0  0  0  0  0  0  0  0  0  0
   -1.4297   -2.3580    0.2973 C   0  0  0  0  0  0  0  0  0  0  0  0
   -0.4699   -2.9915    0.7115 O   0  0  0  0  0  0  0  0  0  0  0  0
   -1.2771   -1.0453   -0.0992 N   0  0  0  0  0  0  0  0  0  0  0  0
   -2.1000   -0.5710   -0.4662 H   0  0  0  0  0  0  0  0  0  0  0  0
    0.0122   -0.3548   -0.2224 C   0  0  1  0  0  0  0  0  0  0  0  0
    0.7628   -0.9026    0.3572 H   0  0  0  0  0  0  0  0  0  0  0  0
    0.5529   -0.2192   -1.6822 C   0  0  0  0  0  0  0  0  0  0  0  0
    0.7175    0.8420   -1.8940 H   0  0  0  0  0  0  0  0  0  0  0  0
    1.5347   -0.6984   -1.7096 H   0  0  0  0  0  0  0  0  0  0  0  0
   -0.2219   -0.7729   -2.8879 C   0  0  0  0  0  0  0  0  0  0  0  0
   -1.1429   -1.5660   -2.7815 O   0  0  0  0  0  0  0  0  0  0  0  0
    0.2172   -0.3215   -4.0856 O   0  0  0  0  0  0  0  0  0  0  0  0
   -0.3461   -0.7443   -4.7516 H   0  0  0  0  0  0  0  0  0  0  0  0
   -0.1016    1.0447    0.4181 C   0  0  0  0  0  0  0  0  0  0  0  0
   -1.0587    1.7632    0.1548 O   0  0  0  0  0  0  0  0  0  0  0  0
    0.8927    1.5180    1.2547 N   0  0  0  0  0  0  0  0  0  0  0  0
    1.6461    0.8817    1.4992 H   0  0  0  0  0  0  0  0  0  0  0  0
    0.8347    2.8234    1.9017 C   0  0  0  0  0  0  0  0  0  0  0  0
   -0.0463    2.8914    2.5487 H   0  0  0  0  0  0  0  0  0  0  0  0
    1.7271    2.9829    2.5144 H   0  0  0  0  0  0  0  0  0  0  0  0
    0.7836    3.6205    1.1525 H   0  0  0  0  0  0  0  0  0  0  0  0
  1  2  1  0  0  0  0
  2  3  1  0  0  0  0
  2  4  1  0  0  0  0
  2  5  1  0  0  0  0
  5  6  2  0  0  0  0
  5  7  1  0  0  0  0
  7  8  1  0  0  0  0
  7  9  1  0  0  0  0
  9 10  1  0  0  0  0
  9 11  1  0  0  0  0
  9 18  1  0  0  0  0
 11 12  1  0  0  0  0
 11 13  1  0  0  0  0
 11 14  1  0  0  0  0
 14 15  2  0  0  0  0
 14 16  1  0  0  0  0
 16 17  1  0  0  0  0
 18 19  2  0  0  0  0
 18 20  1  0  0  0  0
 20 21  1  0  0  0  0
 20 22  1  0  0  0  0
 22 23  1  0  0  0  0
 22 24  1  0  0  0  0
 22 25  1  0  0  0  0
M  END
$$$$

  -OEChem-02102214113D

 25 24  0     1  0  0  0  0  0999 V2000
   -2.7423   -4.0531    0.5500 H   0  0  0  0  0  0  0  0  0  0  0  0
   -2.8009   -3.0136    0.2160 C   0  0  0  0  0  0  0  0  0  0  0  0
   -3.5129   -2.4782    0.8485 H   0  0  0  0  0  0  0  0  0  0  0  0
   -3.1554   -2.9944   -0.8177 H   0  0  0  0  0  0  0  0  0  0  0  0
   -1.4361   -2.3576    0.3027 C   0  0  0  0  0  0  0  0  0  0  0  0
   -0.4763   -2.9914    0.7162 O   0  0  0  0  0  0  0  0  0  0  0  0
   -1.2834   -1.0450   -0.0927 N   0  0  0  0  0  0  0  0  0  0  0  0
   -2.0999   -0.5831   -0.4895 H   0  0  0  0  0  0  0  0  0  0  0  0
    0.0050   -0.3535   -0.2161 C   0  0  1  0  0  0  0  0  0  0  0  0
    0.7551   -0.9014    0.3639 H   0  0  0  0  0  0  0  0  0  0  0  0
    0.5473   -0.2212   -1.6759 C   0  0  0  0  0  0  0  0  0  0  0  0
    0.7137    0.8385   -1.8921 H   0  0  0  0  0  0  0  0  0  0  0  0
    1.5289   -0.7016   -1.6964 H   0  0  0  0  0  0  0  0  0  0  0  0
   -0.2203   -0.7760   -2.8862 C   0  0  0  0  0  0  0  0  0  0  0  0
   -1.2929   -1.3506   -2.7944 O   0  0  0  0  0  0  0  0  0  0  0  0
    0.4017   -0.5783   -4.0715 O   0  0  0  0  0  0  0  0  0  0  0  0
   -0.1781   -0.9682   -4.7434 H   0  0  0  0  0  0  0  0  0  0  0  0
   -0.1041    1.0465    0.4240 C   0  0  0  0  0  0  0  0  0  0  0  0
   -1.0550    1.7716    0.1569 O   0  0  0  0  0  0  0  0  0  0  0  0
    0.8936    1.5169    1.2583 N   0  0  0  0  0  0  0  0  0  0  0  0
    1.6439    0.8773    1.5036 H   0  0  0  0  0  0  0  0  0  0  0  0
    0.8467    2.8265    1.8979 C   0  0  0  0  0  0  0  0  0  0  0  0
   -0.0304    2.9039    2.5491 H   0  0  0  0  0  0  0  0  0  0  0  0
    1.7434    2.9843    2.5048 H   0  0  0  0  0  0  0  0  0  0  0  0
    0.7966    3.6194    1.1441 H   0  0  0  0  0  0  0  0  0  0  0  0
  1  2  1  0  0  0  0
  2  3  1  0  0  0  0
  2  4  1  0  0  0  0
  2  5  1  0  0  0  0
  5  6  2  0  0  0  0
  5  7  1  0  0  0  0
  7  8  1  0  0  0  0
  7  9  1  0  0  0  0
  9 10  1  0  0  0  0
  9 11  1  0  0  0  0
  9 18  1  0  0  0  0
 11 12  1  0  0  0  0
 11 13  1  0  0  0  0
 11 14  1  0  0  0  0
 14 15  2  0  0  0  0
 14 16  1  0  0  0  0
 16 17  1  0  0  0  0
 18 19  2  0  0  0  0
 18 20  1  0  0  0  0
 20 21  1  0  0  0  0
 20 22  1  0  0  0  0
 22 23  1  0  0  0  0
 22 24  1  0  0  0  0
 22 25  1  0  0  0  0
M  END
$$$$

  -OEChem-02102214113D

 25 24  0     1  0  0  0  0  0999 V2000
   -2.7452   -4.0519    0.5268 H   0  0  0  0  0  0  0  0  0  0  0  0
   -2.8020   -3.0093    0.2021 C   0  0  0  0  0  0  0  0  0  0  0  0
   -3.5121   -2.4780    0.8402 H   0  0  0  0  0  0  0  0  0  0  0  0
   -3.1580   -2.9802   -0.8309 H   0  0  0  0  0  0  0  0  0  0  0  0
   -1.4363   -2.3562    0.2936 C   0  0  0  0  0  0  0  0  0  0  0  0
   -0.4774   -2.9942    0.7025 O   0  0  0  0  0  0  0  0  0  0  0  0
   -1.2807   -1.0435   -0.0987 N   0  0  0  0  0  0  0  0  0  0  0  0
   -2.0925   -0.5841   -0.5097 H   0  0  0  0  0  0  0  0  0  0  0  0
    0.0071   -0.3495   -0.2124 C   0  0  1  0  0  0  0  0  0  0  0  0
    0.7538   -0.8978    0.3715 H   0  0  0  0  0  0  0  0  0  0  0  0
    0.5533   -0.2224   -1.6700 C   0  0  0  0  0  0  0  0  0  0  0  0
    0.7216    0.8351   -1.8942 H   0  0  0  0  0  0  0  0  0  0  0  0
    1.5341   -0.7050   -1.6845 H   0  0  0  0  0  0  0  0  0  0  0  0
   -0.2190   -0.7868   -2.8725 C   0  0  0  0  0  0  0  0  0  0  0  0
   -1.3928   -1.1170   -2.8130 O   0  0  0  0  0  0  0  0  0  0  0  0
    0.5092   -0.8782   -4.0096 O   0  0  0  0  0  0  0  0  0  0  0  0
   -0.0903   -1.2385   -4.6807 H   0  0  0  0  0  0  0  0  0  0  0  0
   -0.1019    1.0510    0.4268 C   0  0  0  0  0  0  0  0  0  0  0  0
   -1.0481    1.7801    0.1547 O   0  0  0  0  0  0  0  0  0  0  0  0
    0.8932    1.5183    1.2662 N   0  0  0  0  0  0  0  0  0  0  0  0
    1.6395    0.8760    1.5164 H   0  0  0  0  0  0  0  0  0  0  0  0
    0.8498    2.8299    1.9020 C   0  0  0  0  0  0  0  0  0  0  0  0
   -0.0282    2.9120    2.5513 H   0  0  0  0  0  0  0  0  0  0  0  0
    1.7461    2.9862    2.5100 H   0  0  0  0  0  0  0  0  0  0  0  0
    0.8040    3.6208    1.1458 H   0  0  0  0  0  0  0  0  0  0  0  0
  1  2  1  0  0  0  0
  2  3  1  0  0  0  0
  2  4  1  0  0  0  0
  2  5  1  0  0  0  0
  5  6  2  0  0  0  0
  5  7  1  0  0  0  0
  7  8  1  0  0  0  0
  7  9  1  0  0  0  0
  9 10  1  0  0  0  0
  9 11  1  0  0  0  0
  9 18  1  0  0  0  0
 11 12  1  0  0  0  0
 11 13  1  0  0  0  0
 11 14  1  0  0  0  0
 14 15  2  0  0  0  0
 14 16  1  0  0  0  0
 16 17  1  0  0  0  0
 18 19  2  0  0  0  0
 18 20  1  0  0  0  0
 20 21  1  0  0  0  0
 20 22  1  0  0  0  0
 22 23  1  0  0  0  0
 22 24  1  0  0  0  0
 22 25  1  0  0  0  0
M  END
$$$$

  -OEChem-02102214113D

 25 24  0     1  0  0  0  0  0999 V2000
   -2.7461   -4.0461    0.4963 H   0  0  0  0  0  0  0  0  0  0  0  0
   -2.8008   -2.9999    0.1830 C   0  0  0  0  0  0  0  0  0  0  0  0
   -3.5031   -2.4722    0.8327 H   0  0  0  0  0  0  0  0  0  0  0  0
   -3.1654   -2.9579   -0.8464 H   0  0  0  0  0  0  0  0  0  0  0  0
   -1.4311   -2.3543    0.2703 C   0  0  0  0  0  0  0  0  0  0  0  0
   -0.4729   -2.9997    0.6682 O   0  0  0  0  0  0  0  0  0  0  0  0
   -1.2691   -1.0412   -0.1172 N   0  0  0  0  0  0  0  0  0  0  0  0
   -2.0795   -0.5723   -0.5211 H   0  0  0  0  0  0  0  0  0  0  0  0
    0.0185   -0.3431   -0.2135 C   0  0  1  0  0  0  0  0  0  0  0  0
    0.7597   -0.8917    0.3774 H   0  0  0  0  0  0  0  0  0  0  0  0
    0.5714   -0.2222   -1.6669 C   0  0  0  0  0  0  0  0  0  0  0  0
    0.7356    0.8333   -1.9028 H   0  0  0  0  0  0  0  0  0  0  0  0
    1.5534   -0.7028   -1.6775 H   0  0  0  0  0  0  0  0  0  0  0  0
   -0.2162   -0.8038   -2.8490 C   0  0  0  0  0  0  0  0  0  0  0  0
   -1.4353   -0.8770   -2.8420 O   0  0  0  0  0  0  0  0  0  0  0  0
    0.5376   -1.2065   -3.8988 O   0  0  0  0  0  0  0  0  0  0  0  0
   -0.0862   -1.5382   -4.5625 H   0  0  0  0  0  0  0  0  0  0  0  0
   -0.0950    1.0575    0.4247 C   0  0  0  0  0  0  0  0  0  0  0  0
   -1.0426    1.7839    0.1520 O   0  0  0  0  0  0  0  0  0  0  0  0
    0.8918    1.5234    1.2747 N   0  0  0  0  0  0  0  0  0  0  0  0
    1.6416    0.8845    1.5230 H   0  0  0  0  0  0  0  0  0  0  0  0
    0.8416    2.8329    1.9144 C   0  0  0  0  0  0  0  0  0  0  0  0
   -0.0452    2.9140    2.5518 H   0  0  0  0  0  0  0  0  0  0  0  0
    1.7296    2.9858    2.5353 H   0  0  0  0  0  0  0  0  0  0  0  0
    0.8077    3.6266    1.1606 H   0  0  0  0  0  0  0  0  0  0  0  0
  1  2  1  0  0  0  0
  2  3  1  0  0  0  0
  2  4  1  0  0  0  0
  2  5  1  0  0  0  0
  5  6  2  0  0  0  0
  5  7  1  0  0  0  0
  7  8  1  0  0  0  0
  7  9  1  0  0  0  0
  9 10  1  0  0  0  0
  9 11  1  0  0  0  0
  9 18  1  0  0  0  0
 11 12  1  0  0  0  0
 11 13  1  0  0  0  0
 11 14  1  0  0  0  0
 14 15  2  0  0  0  0
 14 16  1  0  0  0  0
 16 17  1  0  0  0  0
 18 19  2  0  0  0  0
 18 20  1  0  0  0  0
 20 21  1  0  0  0  0
 20 22  1  0  0  0  0
 22 23  1  0  0  0  0
 22 24  1  0  0  0  0
 22 25  1  0  0  0  0
M  END
$$$$

  -OEChem-02102214113D

 25 24  0     1  0  0  0  0  0999 V2000
   -2.7439   -4.0334    0.4678 H   0  0  0  0  0  0  0  0  0  0  0  0
   -2.7949   -2.9849    0.1619 C   0  0  0  0  0  0  0  0  0  0  0  0
   -3.4842   -2.4563    0.8247 H   0  0  0  0  0  0  0  0  0  0  0  0
   -3.1736   -2.9336   -0.8620 H   0  0  0  0  0  0  0  0  0  0  0  0
   -1.4190   -2.3510    0.2350 C   0  0  0  0  0  0  0  0  0  0  0  0
   -0.4609   -3.0062    0.6159 O   0  0  0  0  0  0  0  0  0  0  0  0
   -1.2511   -1.0371   -0.1466 N   0  0  0  0  0  0  0  0  0  0  0  0
   -2.0662   -0.5478   -0.5164 H   0  0  0  0  0  0  0  0  0  0  0  0
    0.0360   -0.3339   -0.2207 C   0  0  1  0  0  0  0  0  0  0  0  0
    0.7707   -0.8826    0.3778 H   0  0  0  0  0  0  0  0  0  0  0  0
    0.5971   -0.2210   -1.6686 C   0  0  0  0  0  0  0  0  0  0  0  0
    0.7538    0.8322   -1.9191 H   0  0  0  0  0  0  0  0  0  0  0  0
    1.5807   -0.6984   -1.6786 H   0  0  0  0  0  0  0  0  0  0  0  0
   -0.2138   -0.8263   -2.8189 C   0  0  0  0  0  0  0  0  0  0  0  0
   -1.4201   -0.6492   -2.8961 O   0  0  0  0  0  0  0  0  0  0  0  0
    0.4886   -1.5366   -3.7325 O   0  0  0  0  0  0  0  0  0  0  0  0
   -0.1579   -1.8435   -4.3861 H   0  0  0  0  0  0  0  0  0  0  0  0
   -0.0858    1.0661    0.4170 C   0  0  0  0  0  0  0  0  0  0  0  0
   -1.0405    1.7849    0.1494 O   0  0  0  0  0  0  0  0  0  0  0  0
    0.8894    1.5303    1.2812 N   0  0  0  0  0  0  0  0  0  0  0  0
    1.6444    0.8963    1.5264 H   0  0  0  0  0  0  0  0  0  0  0  0
    0.8245    2.8340    1.9314 C   0  0  0  0  0  0  0  0  0  0  0  0
   -0.0686    2.9041    2.5612 H   0  0  0  0  0  0  0  0  0  0  0  0
    1.7056    2.9871    2.5620 H   0  0  0  0  0  0  0  0  0  0  0  0
    0.7921    3.6340    1.1842 H   0  0  0  0  0  0  0  0  0  0  0  0
  1  2  1  0  0  0  0
  2  3  1  0  0  0  0
  2  4  1  0  0  0  0
  2  5  1  0  0  0  0
  5  6  2  0  0  0  0
  5  7  1  0  0  0  0
  7  8  1  0  0  0  0
  7  9  1  0  0  0  0
  9 10  1  0  0  0  0
  9 11  1  0  0  0  0
  9 18  1  0  0  0  0
 11 12  1  0  0  0  0
 11 13  1  0  0  0  0
 11 14  1  0  0  0  0
 14 15  2  0  0  0  0
 14 16  1  0  0  0  0
 16 17  1  0  0  0  0
 18 19  2  0  0  0  0
 18 20  1  0  0  0  0
 20 21  1  0  0  0  0
 20 22  1  0  0  0  0
 22 23  1  0  0  0  0
 22 24  1  0  0  0  0
 22 25  1  0  0  0  0
M  END
$$$$

  -OEChem-02102214113D

 25 24  0     1  0  0  0  0  0999 V2000
   -2.7459   -4.0211    0.4597 H   0  0  0  0  0  0  0  0  0  0  0  0
   -2.7913   -2.9714    0.1568 C   0  0  0  0  0  0  0  0  0  0  0  0
   -3.4588   -2.4363    0.8366 H   0  0  0  0  0  0  0  0  0  0  0  0
   -3.1936   -2.9141   -0.8576 H   0  0  0  0  0  0  0  0  0  0  0  0
   -1.4066   -2.3534    0.1987 C   0  0  0  0  0  0  0  0  0  0  0  0
   -0.4477   -3.0198    0.5565 O   0  0  0  0  0  0  0  0  0  0  0  0
   -1.2330   -1.0387   -0.1786 N   0  0  0  0  0  0  0  0  0  0  0  0
   -2.0564   -0.5235   -0.4908 H   0  0  0  0  0  0  0  0  0  0  0  0
    0.0539   -0.3309   -0.2308 C   0  0  1  0  0  0  0  0  0  0  0  0
    0.7821   -0.8796    0.3756 H   0  0  0  0  0  0  0  0  0  0  0  0
    0.6254   -0.2200   -1.6717 C   0  0  0  0  0  0  0  0  0  0  0  0
    0.7746    0.8320   -1.9323 H   0  0  0  0  0  0  0  0  0  0  0  0
    1.6107   -0.6936   -1.6847 H   0  0  0  0  0  0  0  0  0  0  0  0
   -0.2076   -0.8434   -2.7908 C   0  0  0  0  0  0  0  0  0  0  0  0
   -1.3436   -0.4442   -2.9934 O   0  0  0  0  0  0  0  0  0  0  0  0
    0.3828   -1.8130   -3.5279 O   0  0  0  0  0  0  0  0  0  0  0  0
   -0.2744   -2.0866   -4.1853 H   0  0  0  0  0  0  0  0  0  0  0  0
   -0.0792    1.0684    0.4051 C   0  0  0  0  0  0  0  0  0  0  0  0
   -1.0431    1.7762    0.1415 O   0  0  0  0  0  0  0  0  0  0  0  0
    0.8823    1.5330    1.2841 N   0  0  0  0  0  0  0  0  0  0  0  0
    1.6460    0.9074    1.5240 H   0  0  0  0  0  0  0  0  0  0  0  0
    0.8033    2.8330    1.9398 C   0  0  0  0  0  0  0  0  0  0  0  0
   -0.1088    2.9041    2.5417 H   0  0  0  0  0  0  0  0  0  0  0  0
    1.6646    2.9771    2.5991 H   0  0  0  0  0  0  0  0  0  0  0  0
    0.7985    3.6371    1.1963 H   0  0  0  0  0  0  0  0  0  0  0  0
  1  2  1  0  0  0  0
  2  3  1  0  0  0  0
  2  4  1  0  0  0  0
  2  5  1  0  0  0  0
  5  6  2  0  0  0  0
  5  7  1  0  0  0  0
  7  8  1  0  0  0  0
  7  9  1  0  0  0  0
  9 10  1  0  0  0  0
  9 11  1  0  0  0  0
  9 18  1  0  0  0  0
 11 12  1  0  0  0  0
 11 13  1  0  0  0  0
 11 14  1  0  0  0  0
 14 15  2  0  0  0  0
 14 16  1  0  0  0  0
 16 17  1  0  0  0  0
 18 19  2  0  0  0  0
 18 20  1  0  0  0  0
 20 21  1  0  0  0  0
 20 22  1  0  0  0  0
 22 23  1  0  0  0  0
 22 24  1  0  0  0  0
 22 25  1  0  0  0  0
M  END
$$$$

  -OEChem-02102214113D

 25 24  0     1  0  0  0  0  0999 V2000
   -2.7487   -4.0032    0.4656 H   0  0  0  0  0  0  0  0  0  0  0  0
   -2.7903   -2.9544    0.1593 C   0  0  0  0  0  0  0  0  0  0  0  0
   -3.4372   -2.4095    0.8511 H   0  0  0  0  0  0  0  0  0  0  0  0
   -3.2143   -2.8971   -0.8462 H   0  0  0  0  0  0  0  0  0  0  0  0
   -1.3988   -2.3505    0.1693 C   0  0  0  0  0  0  0  0  0  0  0  0
   -0.4398   -3.0247    0.5111 O   0  0  0  0  0  0  0  0  0  0  0  0
   -1.2218   -1.0354   -0.2058 N   0  0  0  0  0  0  0  0  0  0  0  0
   -2.0519   -0.4982   -0.4572 H   0  0  0  0  0  0  0  0  0  0  0  0
    0.0666   -0.3276   -0.2437 C   0  0  1  0  0  0  0  0  0  0  0  0
    0.7887   -0.8768    0.3699 H   0  0  0  0  0  0  0  0  0  0  0  0
    0.6476   -0.2231   -1.6789 C   0  0  0  0  0  0  0  0  0  0  0  0
    0.7962    0.8273   -1.9471 H   0  0  0  0  0  0  0  0  0  0  0  0
    1.6310   -0.7001   -1.6929 H   0  0  0  0  0  0  0  0  0  0  0  0
   -0.1996   -0.8593   -2.7763 C   0  0  0  0  0  0  0  0  0  0  0  0
   -1.2113   -0.2879   -3.1489 O   0  0  0  0  0  0  0  0  0  0  0  0
    0.2326   -2.0305   -3.2995 O   0  0  0  0  0  0  0  0  0  0  0  0
   -0.4161   -2.2790   -3.9747 H   0  0  0  0  0  0  0  0  0  0  0  0
   -0.0730    1.0715    0.3914 C   0  0  0  0  0  0  0  0  0  0  0  0
   -1.0487    1.7672    0.1397 O   0  0  0  0  0  0  0  0  0  0  0  0
    0.8788    1.5360    1.2808 N   0  0  0  0  0  0  0  0  0  0  0  0
    1.6487    0.9165    1.5165 H   0  0  0  0  0  0  0  0  0  0  0  0
    0.7825    2.8276    1.9509 C   0  0  0  0  0  0  0  0  0  0  0  0
   -0.1176    2.8704    2.5734 H   0  0  0  0  0  0  0  0  0  0  0  0
    1.6546    2.9876    2.5922 H   0  0  0  0  0  0  0  0  0  0  0  0
    0.7413    3.6383    1.2158 H   0  0  0  0  0  0  0  0  0  0  0  0
  1  2  1  0  0  0  0
  2  3  1  0  0  0  0
  2  4  1  0  0  0  0
  2  5  1  0  0  0  0
  5  6  2  0  0  0  0
  5  7  1  0  0  0  0
  7  8  1  0  0  0  0
  7  9  1  0  0  0  0
  9 10  1  0  0  0  0
  9 11  1  0  0  0  0
  9 18  1  0  0  0  0
 11 12  1  0  0  0  0
 11 13  1  0  0  0  0
 11 14  1  0  0  0  0
 14 15  2  0  0  0  0
 14 16  1  0  0  0  0
 16 17  1  0  0  0  0
 18 19  2  0  0  0  0
 18 20  1  0  0  0  0
 20 21  1  0  0  0  0
 20 22  1  0  0  0  0
 22 23  1  0  0  0  0
 22 24  1  0  0  0  0
 22 25  1  0  0  0  0
M  END
$$$$

  -OEChem-02102214113D

 25 24  0     1  0  0  0  0  0999 V2000
   -2.7522   -3.9932    0.4951 H   0  0  0  0  0  0  0  0  0  0  0  0
   -2.7928   -2.9468    0.1800 C   0  0  0  0  0  0  0  0  0  0  0  0
   -3.4278   -2.3934    0.8761 H   0  0  0  0  0  0  0  0  0  0  0  0
   -3.2299   -2.8963   -0.8202 H   0  0  0  0  0  0  0  0  0  0  0  0
   -1.3982   -2.3506    0.1650 C   0  0  0  0  0  0  0  0  0  0  0  0
   -0.4400   -3.0274    0.5033 O   0  0  0  0  0  0  0  0  0  0  0  0
   -1.2195   -1.0363   -0.2143 N   0  0  0  0  0  0  0  0  0  0  0  0
   -2.0522   -0.4844   -0.4202 H   0  0  0  0  0  0  0  0  0  0  0  0
    0.0727   -0.3345   -0.2481 C   0  0  1  0  0  0  0  0  0  0  0  0
    0.7921   -0.8842    0.3680 H   0  0  0  0  0  0  0  0  0  0  0  0
    0.6570   -0.2286   -1.6813 C   0  0  0  0  0  0  0  0  0  0  0  0
    0.8164    0.8215   -1.9455 H   0  0  0  0  0  0  0  0  0  0  0  0
    1.6352   -0.7164   -1.6970 H   0  0  0  0  0  0  0  0  0  0  0  0
   -0.1965   -0.8596   -2.7760 C   0  0  0  0  0  0  0  0  0  0  0  0
   -1.0341   -0.1714   -3.3345 O   0  0  0  0  0  0  0  0  0  0  0  0
    0.0476   -2.1508   -3.1010 O   0  0  0  0  0  0  0  0  0  0  0  0
   -0.5651   -2.3671   -3.8193 H   0  0  0  0  0  0  0  0  0  0  0  0
   -0.0711    1.0653    0.3840 C   0  0  0  0  0  0  0  0  0  0  0  0
   -1.0530    1.7531    0.1335 O   0  0  0  0  0  0  0  0  0  0  0  0
    0.8738    1.5328    1.2791 N   0  0  0  0  0  0  0  0  0  0  0  0
    1.6475    0.9182    1.5153 H   0  0  0  0  0  0  0  0  0  0  0  0
    0.7686    2.8238    1.9489 C   0  0  0  0  0  0  0  0  0  0  0  0
   -0.1295    2.8589    2.5743 H   0  0  0  0  0  0  0  0  0  0  0  0
    1.6416    2.9924    2.5870 H   0  0  0  0  0  0  0  0  0  0  0  0
    0.7172    3.6338    1.2137 H   0  0  0  0  0  0  0  0  0  0  0  0
  1  2  1  0  0  0  0
  2  3  1  0  0  0  0
  2  4  1  0  0  0  0
  2  5  1  0  0  0  0
  5  6  2  0  0  0  0
  5  7  1  0  0  0  0
  7  8  1  0  0  0  0
  7  9  1  0  0  0  0
  9 10  1  0  0  0  0
  9 11  1  0  0  0  0
  9 18  1  0  0  0  0
 11 12  1  0  0  0  0
 11 13  1  0  0  0  0
 11 14  1  0  0  0  0
 14 15  2  0  0  0  0
 14 16  1  0  0  0  0
 16 17  1  0  0  0  0
 18 19  2  0  0  0  0
 18 20  1  0  0  0  0
 20 21  1  0  0  0  0
 20 22  1  0  0  0  0
 22 23  1  0  0  0  0
 22 24  1  0  0  0  0
 22 25  1  0  0  0  0
M  END
$$$$

  -OEChem-02102214113D

 25 24  0     1  0  0  0  0  0999 V2000
   -2.7559   -3.9883    0.5273 H   0  0  0  0  0  0  0  0  0  0  0  0
   -2.7958   -2.9451    0.2017 C   0  0  0  0  0  0  0  0  0  0  0  0
   -3.4296   -2.3836    0.8922 H   0  0  0  0  0  0  0  0  0  0  0  0
   -3.2333   -2.9043   -0.7987 H   0  0  0  0  0  0  0  0  0  0  0  0
   -1.4004   -2.3509    0.1801 C   0  0  0  0  0  0  0  0  0  0  0  0
   -0.4437   -3.0245    0.5296 O   0  0  0  0  0  0  0  0  0  0  0  0
   -1.2223   -1.0379   -0.2056 N   0  0  0  0  0  0  0  0  0  0  0  0
   -2.0559   -0.4818   -0.3945 H   0  0  0  0  0  0  0  0  0  0  0  0
    0.0716   -0.3403   -0.2468 C   0  0  1  0  0  0  0  0  0  0  0  0
    0.7934   -0.8888    0.3677 H   0  0  0  0  0  0  0  0  0  0  0  0
    0.6509   -0.2314   -1.6822 C   0  0  0  0  0  0  0  0  0  0  0  0
    0.8187    0.8196   -1.9385 H   0  0  0  0  0  0  0  0  0  0  0  0
    1.6252   -0.7261   -1.7023 H   0  0  0  0  0  0  0  0  0  0  0  0
   -0.2032   -0.8541   -2.7823 C   0  0  0  0  0  0  0  0  0  0  0  0
   -0.8309   -0.1121   -3.5184 O   0  0  0  0  0  0  0  0  0  0  0  0
   -0.1667   -2.1991   -2.9342 O   0  0  0  0  0  0  0  0  0  0  0  0
   -0.7263   -2.3975   -3.6996 H   0  0  0  0  0  0  0  0  0  0  0  0
   -0.0730    1.0609    0.3821 C   0  0  0  0  0  0  0  0  0  0  0  0
   -1.0583    1.7448    0.1334 O   0  0  0  0  0  0  0  0  0  0  0  0
    0.8730    1.5317    1.2741 N   0  0  0  0  0  0  0  0  0  0  0  0
    1.6495    0.9193    1.5071 H   0  0  0  0  0  0  0  0  0  0  0  0
    0.7657    2.8214    1.9458 C   0  0  0  0  0  0  0  0  0  0  0  0
   -0.1376    2.8582    2.5638 H   0  0  0  0  0  0  0  0  0  0  0  0
    1.6337    2.9853    2.5914 H   0  0  0  0  0  0  0  0  0  0  0  0
    0.7234    3.6330    1.2118 H   0  0  0  0  0  0  0  0  0  0  0  0
  1  2  1  0  0  0  0
  2  3  1  0  0  0  0
  2  4  1  0  0  0  0
  2  5  1  0  0  0  0
  5  6  2  0  0  0  0
  5  7  1  0  0  0  0
  7  8  1  0  0  0  0
  7  9  1  0  0  0  0
  9 10  1  0  0  0  0
  9 11  1  0  0  0  0
  9 18  1  0  0  0  0
 11 12  1  0  0  0  0
 11 13  1  0  0  0  0
 11 14  1  0  0  0  0
 14 15  2  0  0  0  0
 14 16  1  0  0  0  0
 16 17  1  0  0  0  0
 18 19  2  0  0  0  0
 18 20  1  0  0  0  0
 20 21  1  0  0  0  0
 20 22  1  0  0  0  0
 22 23  1  0  0  0  0
 22 24  1  0  0  0  0
 22 25  1  0  0  0  0
M  END
$$$$

  -OEChem-02102214113D

 25 24  0     1  0  0  0  0  0999 V2000
   -2.7651   -3.9857    0.5756 H   0  0  0  0  0  0  0  0  0  0  0  0
   -2.8052   -2.9468    0.2365 C   0  0  0  0  0  0  0  0  0  0  0  0
   -3.4389   -2.3765    0.9199 H   0  0  0  0  0  0  0  0  0  0  0  0
   -3.2422   -2.9193   -0.7644 H   0  0  0  0  0  0  0  0  0  0  0  0
   -1.4095   -2.3533    0.2065 C   0  0  0  0  0  0  0  0  0  0  0  0
   -0.4528   -3.0252    0.5603 O   0  0  0  0  0  0  0  0  0  0  0  0
   -1.2320   -1.0415   -0.1851 N   0  0  0  0  0  0  0  0  0  0  0  0
   -2.0661   -0.4843   -0.3666 H   0  0  0  0  0  0  0  0  0  0  0  0
    0.0643   -0.3501   -0.2406 C   0  0  1  0  0  0  0  0  0  0  0  0
    0.7909   -0.8994    0.3676 H   0  0  0  0  0  0  0  0  0  0  0  0
    0.6360   -0.2318   -1.6803 C   0  0  0  0  0  0  0  0  0  0  0  0
    0.8142    0.8214   -1.9214 H   0  0  0  0  0  0  0  0  0  0  0  0
    1.6063   -0.7341   -1.7051 H   0  0  0  0  0  0  0  0  0  0  0  0
   -0.2102   -0.8354   -2.7998 C   0  0  0  0  0  0  0  0  0  0  0  0
   -0.5959   -0.0903   -3.6843 O   0  0  0  0  0  0  0  0  0  0  0  0
   -0.3895   -2.1777   -2.8299 O   0  0  0  0  0  0  0  0  0  0  0  0
   -0.8776   -2.3625   -3.6459 H   0  0  0  0  0  0  0  0  0  0  0  0
   -0.0771    1.0518    0.3877 C   0  0  0  0  0  0  0  0  0  0  0  0
   -1.0599    1.7378    0.1338 O   0  0  0  0  0  0  0  0  0  0  0  0
    0.8732    1.5269    1.2726 N   0  0  0  0  0  0  0  0  0  0  0  0
    1.6460    0.9125    1.5126 H   0  0  0  0  0  0  0  0  0  0  0  0
    0.7687    2.8213    1.9360 C   0  0  0  0  0  0  0  0  0  0  0  0
   -0.1288    2.8598    2.5623 H   0  0  0  0  0  0  0  0  0  0  0  0
    1.6424    2.9924    2.5721 H   0  0  0  0  0  0  0  0  0  0  0  0
    0.7166    3.6278    1.1968 H   0  0  0  0  0  0  0  0  0  0  0  0
  1  2  1  0  0  0  0
  2  3  1  0  0  0  0
  2  4  1  0  0  0  0
  2  5  1  0  0  0  0
  5  6  2  0  0  0  0
  5  7  1  0  0  0  0
  7  8  1  0  0  0  0
  7  9  1  0  0  0  0
  9 10  1  0  0  0  0
  9 11  1  0  0  0  0
  9 18  1  0  0  0  0
 11 12  1  0  0  0  0
 11 13  1  0  0  0  0
 11 14  1  0  0  0  0
 14 15  2  0  0  0  0
 14 16  1  0  0  0  0
 16 17  1  0  0  0  0
 18 19  2  0  0  0  0
 18 20  1  0  0  0  0
 20 21  1  0  0  0  0
 20 22  1  0  0  0  0
 22 23  1  0  0  0  0
 22 24  1  0  0  0  0
 22 25  1  0  0  0  0
M  END
$$$$

  -OEChem-02102214113D

 25 24  0     1  0  0  0  0  0999 V2000
   -2.7674   -3.9930    0.6144 H   0  0  0  0  0  0  0  0  0  0  0  0
   -2.8115   -2.9562    0.2702 C   0  0  0  0  0  0  0  0  0  0  0  0
   -3.4495   -2.3857    0.9492 H   0  0  0  0  0  0  0  0  0  0  0  0
   -3.2458   -2.9356   -0.7321 H   0  0  0  0  0  0  0  0  0  0  0  0
   -1.4187   -2.3564    0.2400 C   0  0  0  0  0  0  0  0  0  0  0  0
   -0.4589   -3.0242    0.5940 O   0  0  0  0  0  0  0  0  0  0  0  0
   -1.2467   -1.0448   -0.1550 N   0  0  0  0  0  0  0  0  0  0  0  0
   -2.0821   -0.4933   -0.3449 H   0  0  0  0  0  0  0  0  0  0  0  0
    0.0491   -0.3562   -0.2315 C   0  0  1  0  0  0  0  0  0  0  0  0
    0.7833   -0.9053    0.3674 H   0  0  0  0  0  0  0  0  0  0  0  0
    0.6103   -0.2262   -1.6765 C   0  0  0  0  0  0  0  0  0  0  0  0
    0.7927    0.8299   -1.9011 H   0  0  0  0  0  0  0  0  0  0  0  0
    1.5796   -0.7297   -1.7045 H   0  0  0  0  0  0  0  0  0  0  0  0
   -0.2186   -0.8090   -2.8237 C   0  0  0  0  0  0  0  0  0  0  0  0
   -0.3449   -0.1146   -3.8179 O   0  0  0  0  0  0  0  0  0  0  0  0
   -0.6303   -2.0986   -2.7700 O   0  0  0  0  0  0  0  0  0  0  0  0
   -1.0391   -2.2810   -3.6292 H   0  0  0  0  0  0  0  0  0  0  0  0
   -0.0873    1.0447    0.4004 C   0  0  0  0  0  0  0  0  0  0  0  0
   -1.0683    1.7342    0.1482 O   0  0  0  0  0  0  0  0  0  0  0  0
    0.8735    1.5223    1.2725 N   0  0  0  0  0  0  0  0  0  0  0  0
    1.6501    0.9093    1.5039 H   0  0  0  0  0  0  0  0  0  0  0  0
    0.7826    2.8233    1.9247 C   0  0  0  0  0  0  0  0  0  0  0  0
   -0.1224    2.8820    2.5386 H   0  0  0  0  0  0  0  0  0  0  0  0
    1.6504    2.9843    2.5716 H   0  0  0  0  0  0  0  0  0  0  0  0
    0.7545    3.6246    1.1788 H   0  0  0  0  0  0  0  0  0  0  0  0
  1  2  1  0  0  0  0
  2  3  1  0  0  0  0
  2  4  1  0  0  0  0
  2  5  1  0  0  0  0
  5  6  2  0  0  0  0
  5  7  1  0  0  0  0
  7  8  1  0  0  0  0
  7  9  1  0  0  0  0
  9 10  1  0  0  0  0
  9 11  1  0  0  0  0
  9 18  1  0  0  0  0
 11 12  1  0  0  0  0
 11 13  1  0  0  0  0
 11 14  1  0  0  0  0
 14 15  2  0  0  0  0
 14 16  1  0  0  0  0
 16 17  1  0  0  0  0
 18 19  2  0  0  0  0
 18 20  1  0  0  0  0
 20 21  1  0  0  0  0
 20 22  1  0  0  0  0
 22 23  1  0  0  0  0
 22 24  1  0  0  0  0
 22 25  1  0  0  0  0
M  END
$$$$

  -OEChem-02102214113D

 25 24  0     1  0  0  0  0  0999 V2000
   -2.7687   -3.9963    0.6531 H   0  0  0  0  0  0  0  0  0  0  0  0
   -2.8162   -2.9607    0.3057 C   0  0  0  0  0  0  0  0  0  0  0  0
   -3.4548   -2.3897    0.9838 H   0  0  0  0  0  0  0  0  0  0  0  0
   -3.2521   -2.9445   -0.6961 H   0  0  0  0  0  0  0  0  0  0  0  0
   -1.4254   -2.3565    0.2710 C   0  0  0  0  0  0  0  0  0  0  0  0
   -0.4610   -3.0224    0.6174 O   0  0  0  0  0  0  0  0  0  0  0  0
   -1.2591   -1.0451   -0.1266 N   0  0  0  0  0  0  0  0  0  0  0  0
   -2.0959   -0.5045   -0.3386 H   0  0  0  0  0  0  0  0  0  0  0  0
    0.0345   -0.3579   -0.2271 C   0  0  1  0  0  0  0  0  0  0  0  0
    0.7756   -0.9057    0.3644 H   0  0  0  0  0  0  0  0  0  0  0  0
    0.5884   -0.2228   -1.6771 C   0  0  0  0  0  0  0  0  0  0  0  0
    0.7716    0.8357   -1.8901 H   0  0  0  0  0  0  0  0  0  0  0  0
    1.5591   -0.7243   -1.7011 H   0  0  0  0  0  0  0  0  0  0  0  0
   -0.2126   -0.7883   -2.8568 C   0  0  0  0  0  0  0  0  0  0  0  0
   -0.0724   -0.2020   -3.9167 O   0  0  0  0  0  0  0  0  0  0  0  0
   -0.8929   -1.9555   -2.7525 O   0  0  0  0  0  0  0  0  0  0  0  0
   -1.2255   -2.1446   -3.6428 H   0  0  0  0  0  0  0  0  0  0  0  0
   -0.0949    1.0421    0.4087 C   0  0  0  0  0  0  0  0  0  0  0  0
   -1.0767    1.7340    0.1653 O   0  0  0  0  0  0  0  0  0  0  0  0
    0.8792    1.5218    1.2649 N   0  0  0  0  0  0  0  0  0  0  0  0
    1.6563    0.9072    1.4900 H   0  0  0  0  0  0  0  0  0  0  0  0
    0.7936    2.8207    1.9218 C   0  0  0  0  0  0  0  0  0  0  0  0
   -0.0935    2.8678    2.5623 H   0  0  0  0  0  0  0  0  0  0  0  0
    1.6785    2.9907    2.5427 H   0  0  0  0  0  0  0  0  0  0  0  0
    0.7346    3.6231    1.1786 H   0  0  0  0  0  0  0  0  0  0  0  0
  1  2  1  0  0  0  0
  2  3  1  0  0  0  0
  2  4  1  0  0  0  0
  2  5  1  0  0  0  0
  5  6  2  0  0  0  0
  5  7  1  0  0  0  0
  7  8  1  0  0  0  0
  7  9  1  0  0  0  0
  9 10  1  0  0  0  0
  9 11  1  0  0  0  0
  9 18  1  0  0  0  0
 11 12  1  0  0  0  0
 11 13  1  0  0  0  0
 11 14  1  0  0  0  0
 14 15  2  0  0  0  0
 14 16  1  0  0  0  0
 16 17  1  0  0  0  0
 18 19  2  0  0  0  0
 18 20  1  0  0  0  0
 20 21  1  0  0  0  0
 20 22  1  0  0  0  0
 22 23  1  0  0  0  0
 22 24  1  0  0  0  0
 22 25  1  0  0  0  0
M  END
$$$$

  -OEChem-02102214113D

 25 24  0     1  0  0  0  0  0999 V2000
   -2.7566   -4.0147    0.6634 H   0  0  0  0  0  0  0  0  0  0  0  0
   -2.8112   -2.9773    0.3221 C   0  0  0  0  0  0  0  0  0  0  0  0
   -3.4578   -2.4157    1.0005 H   0  0  0  0  0  0  0  0  0  0  0  0
   -3.2423   -2.9583   -0.6817 H   0  0  0  0  0  0  0  0  0  0  0  0
   -1.4259   -2.3603    0.2981 C   0  0  0  0  0  0  0  0  0  0  0  0
   -0.4562   -3.0202    0.6411 O   0  0  0  0  0  0  0  0  0  0  0  0
   -1.2691   -1.0479   -0.0980 N   0  0  0  0  0  0  0  0  0  0  0  0
   -2.1069   -0.5281   -0.3528 H   0  0  0  0  0  0  0  0  0  0  0  0
    0.0190   -0.3565   -0.2186 C   0  0  1  0  0  0  0  0  0  0  0  0
    0.7672   -0.9026    0.3656 H   0  0  0  0  0  0  0  0  0  0  0  0
    0.5669   -0.2198   -1.6729 C   0  0  0  0  0  0  0  0  0  0  0  0
    0.7395    0.8412   -1.8815 H   0  0  0  0  0  0  0  0  0  0  0  0
    1.5440   -0.7094   -1.6916 H   0  0  0  0  0  0  0  0  0  0  0  0
   -0.2062   -0.7771   -2.8780 C   0  0  0  0  0  0  0  0  0  0  0  0
    0.1728   -0.3611   -3.9597 O   0  0  0  0  0  0  0  0  0  0  0  0
   -1.1695   -1.7229   -2.7596 O   0  0  0  0  0  0  0  0  0  0  0  0
   -1.4430   -1.9292   -3.6663 H   0  0  0  0  0  0  0  0  0  0  0  0
   -0.1035    1.0418    0.4226 C   0  0  0  0  0  0  0  0  0  0  0  0
   -1.0820    1.7397    0.1837 O   0  0  0  0  0  0  0  0  0  0  0  0
    0.8846    1.5209    1.2631 N   0  0  0  0  0  0  0  0  0  0  0  0
    1.6613    0.9032    1.4809 H   0  0  0  0  0  0  0  0  0  0  0  0
    0.8140    2.8226    1.9162 C   0  0  0  0  0  0  0  0  0  0  0  0
   -0.0621    2.8757    2.5711 H   0  0  0  0  0  0  0  0  0  0  0  0
    1.7095    2.9917    2.5218 H   0  0  0  0  0  0  0  0  0  0  0  0
    0.7453    3.6219    1.1708 H   0  0  0  0  0  0  0  0  0  0  0  0
  1  2  1  0  0  0  0
  2  3  1  0  0  0  0
  2  4  1  0  0  0  0
  2  5  1  0  0  0  0
  5  6  2  0  0  0  0
  5  7  1  0  0  0  0
  7  8  1  0  0  0  0
  7  9  1  0  0  0  0
  9 10  1  0  0  0  0
  9 11  1  0  0  0  0
  9 18  1  0  0  0  0
 11 12  1  0  0  0  0
 11 13  1  0  0  0  0
 11 14  1  0  0  0  0
 14 15  2  0  0  0  0
 14 16  1  0  0  0  0
 16 17  1  0  0  0  0
 18 19  2  0  0  0  0
 18 20  1  0  0  0  0
 20 21  1  0  0  0  0
 20 22  1  0  0  0  0
 22 23  1  0  0  0  0
 22 24  1  0  0  0  0
 22 25  1  0  0  0  0
M  END
$$$$

  -OEChem-02102214113D

 25 24  0     1  0  0  0  0  0999 V2000
   -2.6920   -4.0758    0.5845 H   0  0  0  0  0  0  0  0  0  0  0  0
   -2.7603   -3.0340    0.2593 C   0  0  0  0  0  0  0  0  0  0  0  0
   -3.4534   -2.5038    0.9168 H   0  0  0  0  0  0  0  0  0  0  0  0
   -3.1456   -3.0076   -0.7630 H   0  0  0  0  0  0  0  0  0  0  0  0
   -1.3931   -2.3790    0.3129 C   0  0  0  0  0  0  0  0  0  0  0  0
   -0.4238   -3.0169    0.6949 O   0  0  0  0  0  0  0  0  0  0  0  0
   -1.2466   -1.0663   -0.0812 N   0  0  0  0  0  0  0  0  0  0  0  0
   -2.0647   -0.6031   -0.4764 H   0  0  0  0  0  0  0  0  0  0  0  0
    0.0354   -0.3645   -0.2012 C   0  0  1  0  0  0  0  0  0  0  0  0
    0.8038   -0.9003    0.3659 H   0  0  0  0  0  0  0  0  0  0  0  0
    0.5386   -0.2009   -1.6660 C   0  0  0  0  0  0  0  0  0  0  0  0
    0.9771    0.7950   -1.7831 H   0  0  0  0  0  0  0  0  0  0  0  0
    1.3494   -0.9230   -1.7967 H   0  0  0  0  0  0  0  0  0  0  0  0
   -0.4044   -0.4205   -2.8592 C   0  0  0  0  0  0  0  0  0  0  0  0
    0.1163   -0.2623   -3.9501 O   0  0  0  0  0  0  0  0  0  0  0  0
   -1.7269   -0.6880   -2.7145 O   0  0  0  0  0  0  0  0  0  0  0  0
   -2.0831   -0.7128   -3.6161 H   0  0  0  0  0  0  0  0  0  0  0  0
   -0.0988    1.0323    0.4419 C   0  0  0  0  0  0  0  0  0  0  0  0
   -1.0601    1.7433    0.1740 O   0  0  0  0  0  0  0  0  0  0  0  0
    0.8873    1.5154    1.2827 N   0  0  0  0  0  0  0  0  0  0  0  0
    1.6541    0.8922    1.5193 H   0  0  0  0  0  0  0  0  0  0  0  0
    0.8266    2.8290    1.9126 C   0  0  0  0  0  0  0  0  0  0  0  0
   -0.0634    2.9095    2.5456 H   0  0  0  0  0  0  0  0  0  0  0  0
    1.7109    2.9911    2.5363 H   0  0  0  0  0  0  0  0  0  0  0  0
    0.7914    3.6169    1.1528 H   0  0  0  0  0  0  0  0  0  0  0  0
  1  2  1  0  0  0  0
  2  3  1  0  0  0  0
  2  4  1  0  0  0  0
  2  5  1  0  0  0  0
  5  6  2  0  0  0  0
  5  7  1  0  0  0  0
  7  8  1  0  0  0  0
  7  9  1  0  0  0  0
  9 10  1  0  0  0  0
  9 11  1  0  0  0  0
  9 18  1  0  0  0  0
 11 12  1  0  0  0  0
 11 13  1  0  0  0  0
 11 14  1  0  0  0  0
 14 15  2  0  0  0  0
 14 16  1  0  0  0  0
 16 17  1  0  0  0  0
 18 19  2  0  0  0  0
 18 20  1  0  0  0  0
 20 21  1  0  0  0  0
 20 22  1  0  0  0  0
 22 23  1  0  0  0  0
 22 24  1  0  0  0  0
 22 25  1  0  0  0  0
M  END
$$$$

  -OEChem-02102214113D

 25 24  0     1  0  0  0  0  0999 V2000
   -2.6979   -4.0661    0.5603 H   0  0  0  0  0  0  0  0  0  0  0  0
   -2.7606   -3.0232    0.2374 C   0  0  0  0  0  0  0  0  0  0  0  0
   -3.4433   -2.4882    0.9018 H   0  0  0  0  0  0  0  0  0  0  0  0
   -3.1552   -2.9921   -0.7810 H   0  0  0  0  0  0  0  0  0  0  0  0
   -1.3881   -2.3789    0.2796 C   0  0  0  0  0  0  0  0  0  0  0  0
   -0.4183   -3.0246    0.6463 O   0  0  0  0  0  0  0  0  0  0  0  0
   -1.2373   -1.0645   -0.1067 N   0  0  0  0  0  0  0  0  0  0  0  0
   -2.0590   -0.5827   -0.4725 H   0  0  0  0  0  0  0  0  0  0  0  0
    0.0434   -0.3566   -0.2087 C   0  0  1  0  0  0  0  0  0  0  0  0
    0.8076   -0.8937    0.3630 H   0  0  0  0  0  0  0  0  0  0  0  0
    0.5495   -0.2034   -1.6717 C   0  0  0  0  0  0  0  0  0  0  0  0
    0.9729    0.7968   -1.8045 H   0  0  0  0  0  0  0  0  0  0  0  0
    1.3683   -0.9176   -1.7984 H   0  0  0  0  0  0  0  0  0  0  0  0
   -0.4145   -0.4439   -2.8414 C   0  0  0  0  0  0  0  0  0  0  0  0
    0.1160   -0.5866   -3.9298 O   0  0  0  0  0  0  0  0  0  0  0  0
   -1.7606   -0.3582   -2.6882 O   0  0  0  0  0  0  0  0  0  0  0  0
   -2.1288   -0.4400   -3.5813 H   0  0  0  0  0  0  0  0  0  0  0  0
   -0.0931    1.0393    0.4361 C   0  0  0  0  0  0  0  0  0  0  0  0
   -1.0561    1.7495    0.1734 O   0  0  0  0  0  0  0  0  0  0  0  0
    0.8874    1.5171    1.2865 N   0  0  0  0  0  0  0  0  0  0  0  0
    1.6504    0.8909    1.5270 H   0  0  0  0  0  0  0  0  0  0  0  0
    0.8192    2.8244    1.9288 C   0  0  0  0  0  0  0  0  0  0  0  0
   -0.0632    2.8887    2.5742 H   0  0  0  0  0  0  0  0  0  0  0  0
    1.7098    2.9920    2.5420 H   0  0  0  0  0  0  0  0  0  0  0  0
    0.7642    3.6185    1.1766 H   0  0  0  0  0  0  0  0  0  0  0  0
  1  2  1  0  0  0  0
  2  3  1  0  0  0  0
  2  4  1  0  0  0  0
  2  5  1  0  0  0  0
  5  6  2  0  0  0  0
  5  7  1  0  0  0  0
  7  8  1  0  0  0  0
  7  9  1  0  0  0  0
  9 10  1  0  0  0  0
  9 11  1  0  0  0  0
  9 18  1  0  0  0  0
 11 12  1  0  0  0  0
 11 13  1  0  0  0  0
 11 14  1  0  0  0  0
 14 15  2  0  0  0  0
 14 16  1  0  0  0  0
 16 17  1  0  0  0  0
 18 19  2  0  0  0  0
 18 20  1  0  0  0  0
 20 21  1  0  0  0  0
 20 22  1  0  0  0  0
 22 23  1  0  0  0  0
 22 24  1  0  0  0  0
 22 25  1  0  0  0  0
M  END
$$$$

  -OEChem-02102214113D

 25 24  0     1  0  0  0  0  0999 V2000
   -2.7075   -4.0435    0.5348 H   0  0  0  0  0  0  0  0  0  0  0  0
   -2.7645   -2.9991    0.2156 C   0  0  0  0  0  0  0  0  0  0  0  0
   -3.4309   -2.4592    0.8927 H   0  0  0  0  0  0  0  0  0  0  0  0
   -3.1751   -2.9608   -0.7963 H   0  0  0  0  0  0  0  0  0  0  0  0
   -1.3848   -2.3691    0.2369 C   0  0  0  0  0  0  0  0  0  0  0  0
   -0.4149   -3.0260    0.5824 O   0  0  0  0  0  0  0  0  0  0  0  0
   -1.2280   -1.0532   -0.1418 N   0  0  0  0  0  0  0  0  0  0  0  0
   -2.0554   -0.5465   -0.4581 H   0  0  0  0  0  0  0  0  0  0  0  0
    0.0540   -0.3431   -0.2244 C   0  0  1  0  0  0  0  0  0  0  0  0
    0.8109   -0.8831    0.3544 H   0  0  0  0  0  0  0  0  0  0  0  0
    0.5687   -0.2011   -1.6828 C   0  0  0  0  0  0  0  0  0  0  0  0
    0.9814    0.8011   -1.8300 H   0  0  0  0  0  0  0  0  0  0  0  0
    1.3920   -0.9108   -1.8060 H   0  0  0  0  0  0  0  0  0  0  0  0
   -0.4200   -0.4614   -2.8240 C   0  0  0  0  0  0  0  0  0  0  0  0
    0.0530   -0.8991   -3.8590 O   0  0  0  0  0  0  0  0  0  0  0  0
   -1.7190   -0.0865   -2.7072 O   0  0  0  0  0  0  0  0  0  0  0  0
   -2.1189   -0.2486   -3.5750 H   0  0  0  0  0  0  0  0  0  0  0  0
   -0.0845    1.0517    0.4226 C   0  0  0  0  0  0  0  0  0  0  0  0
   -1.0562    1.7552    0.1759 O   0  0  0  0  0  0  0  0  0  0  0  0
    0.8892    1.5227    1.2845 N   0  0  0  0  0  0  0  0  0  0  0  0
    1.6601    0.9013    1.5118 H   0  0  0  0  0  0  0  0  0  0  0  0
    0.8060    2.8161    1.9527 C   0  0  0  0  0  0  0  0  0  0  0  0
   -0.0879    2.8654    2.5835 H   0  0  0  0  0  0  0  0  0  0  0  0
    1.6847    2.9725    2.5857 H   0  0  0  0  0  0  0  0  0  0  0  0
    0.7625    3.6253    1.2161 H   0  0  0  0  0  0  0  0  0  0  0  0
  1  2  1  0  0  0  0
  2  3  1  0  0  0  0
  2  4  1  0  0  0  0
  2  5  1  0  0  0  0
  5  6  2  0  0  0  0
  5  7  1  0  0  0  0
  7  8  1  0  0  0  0
  7  9  1  0  0  0  0
  9 10  1  0  0  0  0
  9 11  1  0  0  0  0
  9 18  1  0  0  0  0
 11 12  1  0  0  0  0
 11 13  1  0  0  0  0
 11 14  1  0  0  0  0
 14 15  2  0  0  0  0
 14 16  1  0  0  0  0
 16 17  1  0  0  0  0
 18 19  2  0  0  0  0
 18 20  1  0  0  0  0
 20 21  1  0  0  0  0
 20 22  1  0  0  0  0
 22 23  1  0  0  0  0
 22 24  1  0  0  0  0
 22 25  1  0  0  0  0
M  END
$$$$

  -OEChem-02102214113D

 25 24  0     1  0  0  0  0  0999 V2000
   -2.7210   -4.0153    0.5224 H   0  0  0  0  0  0  0  0  0  0  0  0
   -2.7728   -2.9714    0.2010 C   0  0  0  0  0  0  0  0  0  0  0  0
   -3.4181   -2.4215    0.8902 H   0  0  0  0  0  0  0  0  0  0  0  0
   -3.2050   -2.9324   -0.8017 H   0  0  0  0  0  0  0  0  0  0  0  0
   -1.3857   -2.3578    0.1905 C   0  0  0  0  0  0  0  0  0  0  0  0
   -0.4167   -3.0262    0.5150 O   0  0  0  0  0  0  0  0  0  0  0  0
   -1.2216   -1.0404   -0.1813 N   0  0  0  0  0  0  0  0  0  0  0  0
   -2.0545   -0.5066   -0.4309 H   0  0  0  0  0  0  0  0  0  0  0  0
    0.0639   -0.3320   -0.2434 C   0  0  1  0  0  0  0  0  0  0  0  0
    0.8106   -0.8758    0.3449 H   0  0  0  0  0  0  0  0  0  0  0  0
    0.5961   -0.1977   -1.6940 C   0  0  0  0  0  0  0  0  0  0  0  0
    1.0053    0.8045   -1.8490 H   0  0  0  0  0  0  0  0  0  0  0  0
    1.4213   -0.9063   -1.8119 H   0  0  0  0  0  0  0  0  0  0  0  0
   -0.4082   -0.4697   -2.8146 C   0  0  0  0  0  0  0  0  0  0  0  0
   -0.0377   -1.1685   -3.7426 O   0  0  0  0  0  0  0  0  0  0  0  0
   -1.6171    0.1431   -2.7838 O   0  0  0  0  0  0  0  0  0  0  0  0
   -2.0574   -0.0941   -3.6136 H   0  0  0  0  0  0  0  0  0  0  0  0
   -0.0776    1.0610    0.4062 C   0  0  0  0  0  0  0  0  0  0  0  0
   -1.0610    1.7544    0.1780 O   0  0  0  0  0  0  0  0  0  0  0  0
    0.8870    1.5252    1.2818 N   0  0  0  0  0  0  0  0  0  0  0  0
    1.6626    0.9070    1.5024 H   0  0  0  0  0  0  0  0  0  0  0  0
    0.7896    2.8071    1.9699 C   0  0  0  0  0  0  0  0  0  0  0  0
   -0.0951    2.8295    2.6150 H   0  0  0  0  0  0  0  0  0  0  0  0
    1.6752    2.9721    2.5910 H   0  0  0  0  0  0  0  0  0  0  0  0
    0.7185    3.6256    1.2458 H   0  0  0  0  0  0  0  0  0  0  0  0
  1  2  1  0  0  0  0
  2  3  1  0  0  0  0
  2  4  1  0  0  0  0
  2  5  1  0  0  0  0
  5  6  2  0  0  0  0
  5  7  1  0  0  0  0
  7  8  1  0  0  0  0
  7  9  1  0  0  0  0
  9 10  1  0  0  0  0
  9 11  1  0  0  0  0
  9 18  1  0  0  0  0
 11 12  1  0  0  0  0
 11 13  1  0  0  0  0
 11 14  1  0  0  0  0
 14 15  2  0  0  0  0
 14 16  1  0  0  0  0
 16 17  1  0  0  0  0
 18 19  2  0  0  0  0
 18 20  1  0  0  0  0
 20 21  1  0  0  0  0
 20 22  1  0  0  0  0
 22 23  1  0  0  0  0
 22 24  1  0  0  0  0
 22 25  1  0  0  0  0
M  END
$$$$

  -OEChem-02102214113D

 25 24  0     1  0  0  0  0  0999 V2000
   -2.7252   -3.9957    0.5073 H   0  0  0  0  0  0  0  0  0  0  0  0
   -2.7745   -2.9519    0.1853 C   0  0  0  0  0  0  0  0  0  0  0  0
   -3.4102   -2.3978    0.8803 H   0  0  0  0  0  0  0  0  0  0  0  0
   -3.2153   -2.9122   -0.8137 H   0  0  0  0  0  0  0  0  0  0  0  0
   -1.3840   -2.3466    0.1600 C   0  0  0  0  0  0  0  0  0  0  0  0
   -0.4160   -3.0213    0.4743 O   0  0  0  0  0  0  0  0  0  0  0  0
   -1.2165   -1.0284   -0.2088 N   0  0  0  0  0  0  0  0  0  0  0  0
   -2.0520   -0.4780   -0.4077 H   0  0  0  0  0  0  0  0  0  0  0  0
    0.0726   -0.3241   -0.2574 C   0  0  1  0  0  0  0  0  0  0  0  0
    0.8118   -0.8709    0.3376 H   0  0  0  0  0  0  0  0  0  0  0  0
    0.6162   -0.1971   -1.7030 C   0  0  0  0  0  0  0  0  0  0  0  0
    1.0268    0.8037   -1.8639 H   0  0  0  0  0  0  0  0  0  0  0  0
    1.4395   -0.9083   -1.8190 H   0  0  0  0  0  0  0  0  0  0  0  0
   -0.3994   -0.4748   -2.8092 C   0  0  0  0  0  0  0  0  0  0  0  0
   -0.1690   -1.3853   -3.5870 O   0  0  0  0  0  0  0  0  0  0  0  0
   -1.4799    0.3354   -2.9098 O   0  0  0  0  0  0  0  0  0  0  0  0
   -1.9674    0.0373   -3.6919 H   0  0  0  0  0  0  0  0  0  0  0  0
   -0.0714    1.0680    0.3932 C   0  0  0  0  0  0  0  0  0  0  0  0
   -1.0640    1.7519    0.1767 O   0  0  0  0  0  0  0  0  0  0  0  0
    0.8856    1.5286    1.2789 N   0  0  0  0  0  0  0  0  0  0  0  0
    1.6668    0.9151    1.4924 H   0  0  0  0  0  0  0  0  0  0  0  0
    0.7775    2.8026    1.9799 C   0  0  0  0  0  0  0  0  0  0  0  0
   -0.1222    2.8219    2.6039 H   0  0  0  0  0  0  0  0  0  0  0  0
    1.6485    2.9552    2.6243 H   0  0  0  0  0  0  0  0  0  0  0  0
    0.7279    3.6304    1.2646 H   0  0  0  0  0  0  0  0  0  0  0  0
  1  2  1  0  0  0  0
  2  3  1  0  0  0  0
  2  4  1  0  0  0  0
  2  5  1  0  0  0  0
  5  6  2  0  0  0  0
  5  7  1  0  0  0  0
  7  8  1  0  0  0  0
  7  9  1  0  0  0  0
  9 10  1  0  0  0  0
  9 11  1  0  0  0  0
  9 18  1  0  0  0  0
 11 12  1  0  0  0  0
 11 13  1  0  0  0  0
 11 14  1  0  0  0  0
 14 15  2  0  0  0  0
 14 16  1  0  0  0  0
 16 17  1  0  0  0  0
 18 19  2  0  0  0  0
 18 20  1  0  0  0  0
 20 21  1  0  0  0  0
 20 22  1  0  0  0  0
 22 23  1  0  0  0  0
 22 24  1  0  0  0  0
 22 25  1  0  0  0  0
M  END
$$$$

  -OEChem-02102214113D

 25 24  0     1  0  0  0  0  0999 V2000
   -2.7295   -3.9861    0.5020 H   0  0  0  0  0  0  0  0  0  0  0  0
   -2.7763   -2.9438    0.1748 C   0  0  0  0  0  0  0  0  0  0  0  0
   -3.4095   -2.3845    0.8676 H   0  0  0  0  0  0  0  0  0  0  0  0
   -3.2185   -2.9075   -0.8238 H   0  0  0  0  0  0  0  0  0  0  0  0
   -1.3841   -2.3426    0.1447 C   0  0  0  0  0  0  0  0  0  0  0  0
   -0.4179   -3.0187    0.4623 O   0  0  0  0  0  0  0  0  0  0  0  0
   -1.2138   -1.0241   -0.2241 N   0  0  0  0  0  0  0  0  0  0  0  0
   -2.0499   -0.4648   -0.3920 H   0  0  0  0  0  0  0  0  0  0  0  0
    0.0789   -0.3244   -0.2649 C   0  0  1  0  0  0  0  0  0  0  0  0
    0.8134   -0.8729    0.3345 H   0  0  0  0  0  0  0  0  0  0  0  0
    0.6308   -0.1972   -1.7069 C   0  0  0  0  0  0  0  0  0  0  0  0
    1.0494    0.8007   -1.8661 H   0  0  0  0  0  0  0  0  0  0  0  0
    1.4489   -0.9136   -1.8247 H   0  0  0  0  0  0  0  0  0  0  0  0
   -0.3885   -0.4708   -2.8084 C   0  0  0  0  0  0  0  0  0  0  0  0
   -0.3271   -1.5290   -3.4117 O   0  0  0  0  0  0  0  0  0  0  0  0
   -1.2971    0.4933   -3.0830 O   0  0  0  0  0  0  0  0  0  0  0  0
   -1.8341    0.1577   -3.8157 H   0  0  0  0  0  0  0  0  0  0  0  0
   -0.0678    1.0674    0.3852 C   0  0  0  0  0  0  0  0  0  0  0  0
   -1.0635    1.7467    0.1671 O   0  0  0  0  0  0  0  0  0  0  0  0
    0.8826    1.5278    1.2781 N   0  0  0  0  0  0  0  0  0  0  0  0
    1.6657    0.9171    1.4926 H   0  0  0  0  0  0  0  0  0  0  0  0
    0.7685    2.8013    1.9792 C   0  0  0  0  0  0  0  0  0  0  0  0
   -0.1345    2.8183    2.5984 H   0  0  0  0  0  0  0  0  0  0  0  0
    1.6359    2.9555    2.6282 H   0  0  0  0  0  0  0  0  0  0  0  0
    0.7204    3.6293    1.2641 H   0  0  0  0  0  0  0  0  0  0  0  0
  1  2  1  0  0  0  0
  2  3  1  0  0  0  0
  2  4  1  0  0  0  0
  2  5  1  0  0  0  0
  5  6  2  0  0  0  0
  5  7  1  0  0  0  0
  7  8  1  0  0  0  0
  7  9  1  0  0  0  0
  9 10  1  0  0  0  0
  9 11  1  0  0  0  0
  9 18  1  0  0  0  0
 11 12  1  0  0  0  0
 11 13  1  0  0  0  0
 11 14  1  0  0  0  0
 14 15  2  0  0  0  0
 14 16  1  0  0  0  0
 16 17  1  0  0  0  0
 18 19  2  0  0  0  0
 18 20  1  0  0  0  0
 20 21  1  0  0  0  0
 20 22  1  0  0  0  0
 22 23  1  0  0  0  0
 22 24  1  0  0  0  0
 22 25  1  0  0  0  0
M  END
$$$$

  -OEChem-02102214113D

 25 24  0     1  0  0  0  0  0999 V2000
   -2.7330   -3.9859    0.4961 H   0  0  0  0  0  0  0  0  0  0  0  0
   -2.7757   -2.9448    0.1643 C   0  0  0  0  0  0  0  0  0  0  0  0
   -3.4190   -2.3830    0.8457 H   0  0  0  0  0  0  0  0  0  0  0  0
   -3.2033   -2.9128   -0.8408 H   0  0  0  0  0  0  0  0  0  0  0  0
   -1.3836   -2.3429    0.1502 C   0  0  0  0  0  0  0  0  0  0  0  0
   -0.4214   -3.0166    0.4852 O   0  0  0  0  0  0  0  0  0  0  0  0
   -1.2105   -1.0254   -0.2214 N   0  0  0  0  0  0  0  0  0  0  0  0
   -2.0458   -0.4668   -0.3930 H   0  0  0  0  0  0  0  0  0  0  0  0
    0.0844   -0.3306   -0.2636 C   0  0  1  0  0  0  0  0  0  0  0  0
    0.8197   -0.8793    0.3345 H   0  0  0  0  0  0  0  0  0  0  0  0
    0.6345   -0.1986   -1.7065 C   0  0  0  0  0  0  0  0  0  0  0  0
    1.0618    0.7964   -1.8605 H   0  0  0  0  0  0  0  0  0  0  0  0
    1.4465   -0.9205   -1.8312 H   0  0  0  0  0  0  0  0  0  0  0  0
   -0.3842   -0.4623   -2.8106 C   0  0  0  0  0  0  0  0  0  0  0  0
   -0.5159   -1.5995   -3.2323 O   0  0  0  0  0  0  0  0  0  0  0  0
   -1.0844    0.5949   -3.2821 O   0  0  0  0  0  0  0  0  0  0  0  0
   -1.6682    0.2463   -3.9719 H   0  0  0  0  0  0  0  0  0  0  0  0
   -0.0649    1.0613    0.3851 C   0  0  0  0  0  0  0  0  0  0  0  0
   -1.0565    1.7422    0.1528 O   0  0  0  0  0  0  0  0  0  0  0  0
    0.8815    1.5258    1.2799 N   0  0  0  0  0  0  0  0  0  0  0  0
    1.6612    0.9143    1.5047 H   0  0  0  0  0  0  0  0  0  0  0  0
    0.7652    2.8045    1.9712 C   0  0  0  0  0  0  0  0  0  0  0  0
   -0.1385    2.8252    2.5894 H   0  0  0  0  0  0  0  0  0  0  0  0
    1.6317    2.9651    2.6197 H   0  0  0  0  0  0  0  0  0  0  0  0
    0.7169    3.6270    1.2496 H   0  0  0  0  0  0  0  0  0  0  0  0
  1  2  1  0  0  0  0
  2  3  1  0  0  0  0
  2  4  1  0  0  0  0
  2  5  1  0  0  0  0
  5  6  2  0  0  0  0
  5  7  1  0  0  0  0
  7  8  1  0  0  0  0
  7  9  1  0  0  0  0
  9 10  1  0  0  0  0
  9 11  1  0  0  0  0
  9 18  1  0  0  0  0
 11 12  1  0  0  0  0
 11 13  1  0  0  0  0
 11 14  1  0  0  0  0
 14 15  2  0  0  0  0
 14 16  1  0  0  0  0
 16 17  1  0  0  0  0
 18 19  2  0  0  0  0
 18 20  1  0  0  0  0
 20 21  1  0  0  0  0
 20 22  1  0  0  0  0
 22 23  1  0  0  0  0
 22 24  1  0  0  0  0
 22 25  1  0  0  0  0
M  END
$$$$

  -OEChem-02102214113D

 25 24  0     1  0  0  0  0  0999 V2000
   -2.7320   -3.9980    0.4966 H   0  0  0  0  0  0  0  0  0  0  0  0
   -2.7750   -2.9583    0.1605 C   0  0  0  0  0  0  0  0  0  0  0  0
   -3.4377   -2.3991    0.8250 H   0  0  0  0  0  0  0  0  0  0  0  0
   -3.1798   -2.9330   -0.8542 H   0  0  0  0  0  0  0  0  0  0  0  0
   -1.3873   -2.3461    0.1756 C   0  0  0  0  0  0  0  0  0  0  0  0
   -0.4287   -3.0103    0.5394 O   0  0  0  0  0  0  0  0  0  0  0  0
   -1.2147   -1.0302   -0.2020 N   0  0  0  0  0  0  0  0  0  0  0  0
   -2.0484   -0.4844   -0.4141 H   0  0  0  0  0  0  0  0  0  0  0  0
    0.0806   -0.3381   -0.2558 C   0  0  1  0  0  0  0  0  0  0  0  0
    0.8199   -0.8854    0.3385 H   0  0  0  0  0  0  0  0  0  0  0  0
    0.6254   -0.1984   -1.7018 C   0  0  0  0  0  0  0  0  0  0  0  0
    1.0612    0.7949   -1.8456 H   0  0  0  0  0  0  0  0  0  0  0  0
    1.4333   -0.9236   -1.8321 H   0  0  0  0  0  0  0  0  0  0  0  0
   -0.3822   -0.4500   -2.8210 C   0  0  0  0  0  0  0  0  0  0  0  0
   -0.7224   -1.5943   -3.0757 O   0  0  0  0  0  0  0  0  0  0  0  0
   -0.8394    0.6306   -3.4947 O   0  0  0  0  0  0  0  0  0  0  0  0
   -1.4606    0.2929   -4.1569 H   0  0  0  0  0  0  0  0  0  0  0  0
   -0.0676    1.0551    0.3896 C   0  0  0  0  0  0  0  0  0  0  0  0
   -1.0507    1.7426    0.1403 O   0  0  0  0  0  0  0  0  0  0  0  0
    0.8821    1.5245    1.2784 N   0  0  0  0  0  0  0  0  0  0  0  0
    1.6571    0.9102    1.5114 H   0  0  0  0  0  0  0  0  0  0  0  0
    0.7713    2.8094    1.9589 C   0  0  0  0  0  0  0  0  0  0  0  0
   -0.1285    2.8365    2.5828 H   0  0  0  0  0  0  0  0  0  0  0  0
    1.6424    2.9747    2.6004 H   0  0  0  0  0  0  0  0  0  0  0  0
    0.7194    3.6256    1.2303 H   0  0  0  0  0  0  0  0  0  0  0  0
  1  2  1  0  0  0  0
  2  3  1  0  0  0  0
  2  4  1  0  0  0  0
  2  5  1  0  0  0  0
  5  6  2  0  0  0  0
  5  7  1  0  0  0  0
  7  8  1  0  0  0  0
  7  9  1  0  0  0  0
  9 10  1  0  0  0  0
  9 11  1  0  0  0  0
  9 18  1  0  0  0  0
 11 12  1  0  0  0  0
 11 13  1  0  0  0  0
 11 14  1  0  0  0  0
 14 15  2  0  0  0  0
 14 16  1  0  0  0  0
 16 17  1  0  0  0  0
 18 19  2  0  0  0  0
 18 20  1  0  0  0  0
 20 21  1  0  0  0  0
 20 22  1  0  0  0  0
 22 23  1  0  0  0  0
 22 24  1  0  0  0  0
 22 25  1  0  0  0  0
M  END
$$$$

  -OEChem-02102214113D

 25 24  0     1  0  0  0  0  0999 V2000
   -2.7275   -4.0195    0.5093 H   0  0  0  0  0  0  0  0  0  0  0  0
   -2.7748   -2.9813    0.1697 C   0  0  0  0  0  0  0  0  0  0  0  0
   -3.4565   -2.4271    0.8191 H   0  0  0  0  0  0  0  0  0  0  0  0
   -3.1587   -2.9623   -0.8533 H   0  0  0  0  0  0  0  0  0  0  0  0
   -1.3945   -2.3542    0.2114 C   0  0  0  0  0  0  0  0  0  0  0  0
   -0.4359   -3.0073    0.5960 O   0  0  0  0  0  0  0  0  0  0  0  0
   -1.2280   -1.0393   -0.1715 N   0  0  0  0  0  0  0  0  0  0  0  0
   -2.0597   -0.5152   -0.4377 H   0  0  0  0  0  0  0  0  0  0  0  0
    0.0657   -0.3477   -0.2442 C   0  0  1  0  0  0  0  0  0  0  0  0
    0.8116   -0.8931    0.3433 H   0  0  0  0  0  0  0  0  0  0  0  0
    0.6052   -0.1962   -1.6938 C   0  0  0  0  0  0  0  0  0  0  0  0
    1.0476    0.7965   -1.8214 H   0  0  0  0  0  0  0  0  0  0  0  0
    1.4125   -0.9213   -1.8265 H   0  0  0  0  0  0  0  0  0  0  0  0
   -0.3779   -0.4323   -2.8418 C   0  0  0  0  0  0  0  0  0  0  0  0
   -0.9330   -1.5126   -2.9674 O   0  0  0  0  0  0  0  0  0  0  0  0
   -0.5672    0.6017   -3.6940 O   0  0  0  0  0  0  0  0  0  0  0  0
   -1.2124    0.2957   -4.3488 H   0  0  0  0  0  0  0  0  0  0  0  0
   -0.0792    1.0459    0.4010 C   0  0  0  0  0  0  0  0  0  0  0  0
   -1.0522    1.7429    0.1379 O   0  0  0  0  0  0  0  0  0  0  0  0
    0.8794    1.5193    1.2777 N   0  0  0  0  0  0  0  0  0  0  0  0
    1.6476    0.8995    1.5190 H   0  0  0  0  0  0  0  0  0  0  0  0
    0.7852    2.8162    1.9373 C   0  0  0  0  0  0  0  0  0  0  0  0
   -0.1061    2.8593    2.5720 H   0  0  0  0  0  0  0  0  0  0  0  0
    1.6656    2.9874    2.5643 H   0  0  0  0  0  0  0  0  0  0  0  0
    0.7283    3.6200    1.1956 H   0  0  0  0  0  0  0  0  0  0  0  0
  1  2  1  0  0  0  0
  2  3  1  0  0  0  0
  2  4  1  0  0  0  0
  2  5  1  0  0  0  0
  5  6  2  0  0  0  0
  5  7  1  0  0  0  0
  7  8  1  0  0  0  0
  7  9  1  0  0  0  0
  9 10  1  0  0  0  0
  9 11  1  0  0  0  0
  9 18  1  0  0  0  0
 11 12  1  0  0  0  0
 11 13  1  0  0  0  0
 11 14  1  0  0  0  0
 14 15  2  0  0  0  0
 14 16  1  0  0  0  0
 16 17  1  0  0  0  0
 18 19  2  0  0  0  0
 18 20  1  0  0  0  0
 20 21  1  0  0  0  0
 20 22  1  0  0  0  0
 22 23  1  0  0  0  0
 22 24  1  0  0  0  0
 22 25  1  0  0  0  0
M  END
$$$$

  -OEChem-02102214113D

 25 24  0     1  0  0  0  0  0999 V2000
   -2.7208   -4.0430    0.5186 H   0  0  0  0  0  0  0  0  0  0  0  0
   -2.7748   -3.0032    0.1847 C   0  0  0  0  0  0  0  0  0  0  0  0
   -3.4719   -2.4609    0.8277 H   0  0  0  0  0  0  0  0  0  0  0  0
   -3.1443   -2.9818   -0.8436 H   0  0  0  0  0  0  0  0  0  0  0  0
   -1.4024   -2.3610    0.2499 C   0  0  0  0  0  0  0  0  0  0  0  0
   -0.4429   -3.0032    0.6508 O   0  0  0  0  0  0  0  0  0  0  0  0
   -1.2432   -1.0469   -0.1382 N   0  0  0  0  0  0  0  0  0  0  0  0
   -2.0689   -0.5516   -0.4697 H   0  0  0  0  0  0  0  0  0  0  0  0
    0.0481   -0.3548   -0.2329 C   0  0  1  0  0  0  0  0  0  0  0  0
    0.8020   -0.8978    0.3467 H   0  0  0  0  0  0  0  0  0  0  0  0
    0.5791   -0.1951   -1.6882 C   0  0  0  0  0  0  0  0  0  0  0  0
    1.0232    0.7985   -1.8034 H   0  0  0  0  0  0  0  0  0  0  0  0
    1.3886   -0.9172   -1.8217 H   0  0  0  0  0  0  0  0  0  0  0  0
   -0.3791   -0.4183   -2.8643 C   0  0  0  0  0  0  0  0  0  0  0  0
   -1.1410   -1.3717   -2.8942 O   0  0  0  0  0  0  0  0  0  0  0  0
   -0.3009    0.4926   -3.8623 O   0  0  0  0  0  0  0  0  0  0  0  0
   -0.9612    0.2262   -4.5197 H   0  0  0  0  0  0  0  0  0  0  0  0
   -0.0910    1.0395    0.4128 C   0  0  0  0  0  0  0  0  0  0  0  0
   -1.0532    1.7469    0.1380 O   0  0  0  0  0  0  0  0  0  0  0  0
    0.8795    1.5165    1.2747 N   0  0  0  0  0  0  0  0  0  0  0  0
    1.6417    0.8913    1.5207 H   0  0  0  0  0  0  0  0  0  0  0  0
    0.8027    2.8227    1.9181 C   0  0  0  0  0  0  0  0  0  0  0  0
   -0.0924    2.8891    2.5455 H   0  0  0  0  0  0  0  0  0  0  0  0
    1.6811    2.9863    2.5499 H   0  0  0  0  0  0  0  0  0  0  0  0
    0.7656    3.6184    1.1665 H   0  0  0  0  0  0  0  0  0  0  0  0
  1  2  1  0  0  0  0
  2  3  1  0  0  0  0
  2  4  1  0  0  0  0
  2  5  1  0  0  0  0
  5  6  2  0  0  0  0
  5  7  1  0  0  0  0
  7  8  1  0  0  0  0
  7  9  1  0  0  0  0
  9 10  1  0  0  0  0
  9 11  1  0  0  0  0
  9 18  1  0  0  0  0
 11 12  1  0  0  0  0
 11 13  1  0  0  0  0
 11 14  1  0  0  0  0
 14 15  2  0  0  0  0
 14 16  1  0  0  0  0
 16 17  1  0  0  0  0
 18 19  2  0  0  0  0
 18 20  1  0  0  0  0
 20 21  1  0  0  0  0
 20 22  1  0  0  0  0
 22 23  1  0  0  0  0
 22 24  1  0  0  0  0
 22 25  1  0  0  0  0
M  END
$$$$

  -OEChem-02102214113D

 25 24  0     1  0  0  0  0  0999 V2000
   -2.7148   -4.0585    0.5205 H   0  0  0  0  0  0  0  0  0  0  0  0
   -2.7737   -3.0179    0.1901 C   0  0  0  0  0  0  0  0  0  0  0  0
   -3.4897   -2.4857    0.8209 H   0  0  0  0  0  0  0  0  0  0  0  0
   -3.1234   -2.9958   -0.8451 H   0  0  0  0  0  0  0  0  0  0  0  0
   -1.4105   -2.3601    0.2849 C   0  0  0  0  0  0  0  0  0  0  0  0
   -0.4519   -2.9923    0.7035 O   0  0  0  0  0  0  0  0  0  0  0  0
   -1.2572   -1.0476   -0.1091 N   0  0  0  0  0  0  0  0  0  0  0  0
   -2.0737   -0.5820   -0.5017 H   0  0  0  0  0  0  0  0  0  0  0  0
    0.0324   -0.3567   -0.2225 C   0  0  1  0  0  0  0  0  0  0  0  0
    0.7921   -0.8983    0.3506 H   0  0  0  0  0  0  0  0  0  0  0  0
    0.5530   -0.1968   -1.6839 C   0  0  0  0  0  0  0  0  0  0  0  0
    0.9977    0.7970   -1.7957 H   0  0  0  0  0  0  0  0  0  0  0  0
    1.3630   -0.9184   -1.8163 H   0  0  0  0  0  0  0  0  0  0  0  0
   -0.3869   -0.4120   -2.8792 C   0  0  0  0  0  0  0  0  0  0  0  0
   -1.3319   -1.1839   -2.8398 O   0  0  0  0  0  0  0  0  0  0  0  0
   -0.0681    0.2992   -3.9857 O   0  0  0  0  0  0  0  0  0  0  0  0
   -0.7361    0.0721   -4.6502 H   0  0  0  0  0  0  0  0  0  0  0  0
   -0.0971    1.0402    0.4208 C   0  0  0  0  0  0  0  0  0  0  0  0
   -1.0508    1.7575    0.1423 O   0  0  0  0  0  0  0  0  0  0  0  0
    0.8859    1.5175    1.2686 N   0  0  0  0  0  0  0  0  0  0  0  0
    1.6394    0.8845    1.5214 H   0  0  0  0  0  0  0  0  0  0  0  0
    0.8210    2.8268    1.9072 C   0  0  0  0  0  0  0  0  0  0  0  0
   -0.0625    2.8958    2.5509 H   0  0  0  0  0  0  0  0  0  0  0  0
    1.7109    2.9934    2.5218 H   0  0  0  0  0  0  0  0  0  0  0  0
    0.7697    3.6191    1.1527 H   0  0  0  0  0  0  0  0  0  0  0  0
  1  2  1  0  0  0  0
  2  3  1  0  0  0  0
  2  4  1  0  0  0  0
  2  5  1  0  0  0  0
  5  6  2  0  0  0  0
  5  7  1  0  0  0  0
  7  8  1  0  0  0  0
  7  9  1  0  0  0  0
  9 10  1  0  0  0  0
  9 11  1  0  0  0  0
  9 18  1  0  0  0  0
 11 12  1  0  0  0  0
 11 13  1  0  0  0  0
 11 14  1  0  0  0  0
 14 15  2  0  0  0  0
 14 16  1  0  0  0  0
 16 17  1  0  0  0  0
 18 19  2  0  0  0  0
 18 20  1  0  0  0  0
 20 21  1  0  0  0  0
 20 22  1  0  0  0  0
 22 23  1  0  0  0  0
 22 24  1  0  0  0  0
 22 25  1  0  0  0  0
M  END
$$$$

  -OEChem-02102214113D

 25 24  0     1  0  0  0  0  0999 V2000
   -2.7148   -4.0667    0.5167 H   0  0  0  0  0  0  0  0  0  0  0  0
   -2.7765   -3.0235    0.1955 C   0  0  0  0  0  0  0  0  0  0  0  0
   -3.4929   -2.4989    0.8322 H   0  0  0  0  0  0  0  0  0  0  0  0
   -3.1276   -2.9928   -0.8392 H   0  0  0  0  0  0  0  0  0  0  0  0
   -1.4151   -2.3629    0.2963 C   0  0  0  0  0  0  0  0  0  0  0  0
   -0.4561   -2.9933    0.7168 O   0  0  0  0  0  0  0  0  0  0  0  0
   -1.2634   -1.0507   -0.0983 N   0  0  0  0  0  0  0  0  0  0  0  0
   -2.0728   -0.5993   -0.5227 H   0  0  0  0  0  0  0  0  0  0  0  0
    0.0244   -0.3581   -0.2161 C   0  0  1  0  0  0  0  0  0  0  0  0
    0.7865   -0.8987    0.3546 H   0  0  0  0  0  0  0  0  0  0  0  0
    0.5404   -0.1979   -1.6796 C   0  0  0  0  0  0  0  0  0  0  0  0
    0.9862    0.7952   -1.7918 H   0  0  0  0  0  0  0  0  0  0  0  0
    1.3508   -0.9198   -1.8086 H   0  0  0  0  0  0  0  0  0  0  0  0
   -0.3882   -0.4105   -2.8855 C   0  0  0  0  0  0  0  0  0  0  0  0
   -1.4742   -0.9618   -2.8011 O   0  0  0  0  0  0  0  0  0  0  0  0
    0.1079    0.0498   -4.0573 O   0  0  0  0  0  0  0  0  0  0  0  0
   -0.5689   -0.1397   -4.7248 H   0  0  0  0  0  0  0  0  0  0  0  0
   -0.1018    1.0394    0.4266 C   0  0  0  0  0  0  0  0  0  0  0  0
   -1.0491    1.7630    0.1437 O   0  0  0  0  0  0  0  0  0  0  0  0
    0.8858    1.5154    1.2698 N   0  0  0  0  0  0  0  0  0  0  0  0
    1.6383    0.8807    1.5215 H   0  0  0  0  0  0  0  0  0  0  0  0
    0.8318    2.8293    1.8997 C   0  0  0  0  0  0  0  0  0  0  0  0
   -0.0563    2.9137    2.5349 H   0  0  0  0  0  0  0  0  0  0  0  0
    1.7184    2.9879    2.5211 H   0  0  0  0  0  0  0  0  0  0  0  0
    0.7979    3.6171    1.1397 H   0  0  0  0  0  0  0  0  0  0  0  0
  1  2  1  0  0  0  0
  2  3  1  0  0  0  0
  2  4  1  0  0  0  0
  2  5  1  0  0  0  0
  5  6  2  0  0  0  0
  5  7  1  0  0  0  0
  7  8  1  0  0  0  0
  7  9  1  0  0  0  0
  9 10  1  0  0  0  0
  9 11  1  0  0  0  0
  9 18  1  0  0  0  0
 11 12  1  0  0  0  0
 11 13  1  0  0  0  0
 11 14  1  0  0  0  0
 14 15  2  0  0  0  0
 14 16  1  0  0  0  0
 16 17  1  0  0  0  0
 18 19  2  0  0  0  0
 18 20  1  0  0  0  0
 20 21  1  0  0  0  0
 20 22  1  0  0  0  0
 22 23  1  0  0  0  0
 22 24  1  0  0  0  0
 22 25  1  0  0  0  0
M  END
$$$$

  -OEChem-02102214113D

 25 24  0     1  0  0  0  0  0999 V2000
   -2.7180   -4.0652    0.5088 H   0  0  0  0  0  0  0  0  0  0  0  0
   -2.7803   -3.0199    0.1940 C   0  0  0  0  0  0  0  0  0  0  0  0
   -3.4936   -2.4988    0.8371 H   0  0  0  0  0  0  0  0  0  0  0  0
   -3.1368   -2.9827   -0.8385 H   0  0  0  0  0  0  0  0  0  0  0  0
   -1.4177   -2.3610    0.2924 C   0  0  0  0  0  0  0  0  0  0  0  0
   -0.4585   -2.9942    0.7073 O   0  0  0  0  0  0  0  0  0  0  0  0
   -1.2640   -1.0489   -0.1011 N   0  0  0  0  0  0  0  0  0  0  0  0
   -2.0702   -0.5980   -0.5338 H   0  0  0  0  0  0  0  0  0  0  0  0
    0.0235   -0.3546   -0.2148 C   0  0  1  0  0  0  0  0  0  0  0  0
    0.7836   -0.8955    0.3585 H   0  0  0  0  0  0  0  0  0  0  0  0
    0.5413   -0.2010   -1.6782 C   0  0  0  0  0  0  0  0  0  0  0  0
    0.9867    0.7911   -1.7977 H   0  0  0  0  0  0  0  0  0  0  0  0
    1.3517   -0.9243   -1.8000 H   0  0  0  0  0  0  0  0  0  0  0  0
   -0.3856   -0.4205   -2.8842 C   0  0  0  0  0  0  0  0  0  0  0  0
   -1.5635   -0.7224   -2.7734 O   0  0  0  0  0  0  0  0  0  0  0  0
    0.2160   -0.2537   -4.0850 O   0  0  0  0  0  0  0  0  0  0  0  0
   -0.4714   -0.4100   -4.7505 H   0  0  0  0  0  0  0  0  0  0  0  0
   -0.0996    1.0441    0.4264 C   0  0  0  0  0  0  0  0  0  0  0  0
   -1.0443    1.7712    0.1444 O   0  0  0  0  0  0  0  0  0  0  0  0
    0.8889    1.5173    1.2704 N   0  0  0  0  0  0  0  0  0  0  0  0
    1.6374    0.8793    1.5250 H   0  0  0  0  0  0  0  0  0  0  0  0
    0.8355    2.8295    1.9040 C   0  0  0  0  0  0  0  0  0  0  0  0
   -0.0538    2.9135    2.5377 H   0  0  0  0  0  0  0  0  0  0  0  0
    1.7208    2.9854    2.5280 H   0  0  0  0  0  0  0  0  0  0  0  0
    0.8040    3.6197    1.1464 H   0  0  0  0  0  0  0  0  0  0  0  0
  1  2  1  0  0  0  0
  2  3  1  0  0  0  0
  2  4  1  0  0  0  0
  2  5  1  0  0  0  0
  5  6  2  0  0  0  0
  5  7  1  0  0  0  0
  7  8  1  0  0  0  0
  7  9  1  0  0  0  0
  9 10  1  0  0  0  0
  9 11  1  0  0  0  0
  9 18  1  0  0  0  0
 11 12  1  0  0  0  0
 11 13  1  0  0  0  0
 11 14  1  0  0  0  0
 14 15  2  0  0  0  0
 14 16  1  0  0  0  0
 16 17  1  0  0  0  0
 18 19  2  0  0  0  0
 18 20  1  0  0  0  0
 20 21  1  0  0  0  0
 20 22  1  0  0  0  0
 22 23  1  0  0  0  0
 22 24  1  0  0  0  0
 22 25  1  0  0  0  0
M  END
$$$$

  -OEChem-02102214113D

 25 24  0     1  0  0  0  0  0999 V2000
   -2.7252   -4.0535    0.4955 H   0  0  0  0  0  0  0  0  0  0  0  0
   -2.7830   -3.0065    0.1863 C   0  0  0  0  0  0  0  0  0  0  0  0
   -3.4834   -2.4825    0.8409 H   0  0  0  0  0  0  0  0  0  0  0  0
   -3.1524   -2.9610   -0.8412 H   0  0  0  0  0  0  0  0  0  0  0  0
   -1.4143   -2.3588    0.2709 C   0  0  0  0  0  0  0  0  0  0  0  0
   -0.4542   -3.0010    0.6693 O   0  0  0  0  0  0  0  0  0  0  0  0
   -1.2553   -1.0465   -0.1187 N   0  0  0  0  0  0  0  0  0  0  0  0
   -2.0634   -0.5823   -0.5346 H   0  0  0  0  0  0  0  0  0  0  0  0
    0.0310   -0.3475   -0.2177 C   0  0  1  0  0  0  0  0  0  0  0  0
    0.7862   -0.8882    0.3624 H   0  0  0  0  0  0  0  0  0  0  0  0
    0.5553   -0.2048   -1.6778 C   0  0  0  0  0  0  0  0  0  0  0  0
    0.9971    0.7871   -1.8095 H   0  0  0  0  0  0  0  0  0  0  0  0
    1.3675   -0.9281   -1.7896 H   0  0  0  0  0  0  0  0  0  0  0  0
   -0.3801   -0.4419   -2.8723 C   0  0  0  0  0  0  0  0  0  0  0  0
   -1.5954   -0.4812   -2.7581 O   0  0  0  0  0  0  0  0  0  0  0  0
    0.2490   -0.5914   -4.0608 O   0  0  0  0  0  0  0  0  0  0  0  0
   -0.4524   -0.7190   -4.7175 H   0  0  0  0  0  0  0  0  0  0  0  0
   -0.0943    1.0518    0.4215 C   0  0  0  0  0  0  0  0  0  0  0  0
   -1.0415    1.7768    0.1438 O   0  0  0  0  0  0  0  0  0  0  0  0
    0.8891    1.5221    1.2729 N   0  0  0  0  0  0  0  0  0  0  0  0
    1.6399    0.8853    1.5239 H   0  0  0  0  0  0  0  0  0  0  0  0
    0.8288    2.8289    1.9170 C   0  0  0  0  0  0  0  0  0  0  0  0
   -0.0672    2.9071    2.5417 H   0  0  0  0  0  0  0  0  0  0  0  0
    1.7072    2.9789    2.5518 H   0  0  0  0  0  0  0  0  0  0  0  0
    0.8055    3.6257    1.1661 H   0  0  0  0  0  0  0  0  0  0  0  0
  1  2  1  0  0  0  0
  2  3  1  0  0  0  0
  2  4  1  0  0  0  0
  2  5  1  0  0  0  0
  5  6  2  0  0  0  0
  5  7  1  0  0  0  0
  7  8  1  0  0  0  0
  7  9  1  0  0  0  0
  9 10  1  0  0  0  0
  9 11  1  0  0  0  0
  9 18  1  0  0  0  0
 11 12  1  0  0  0  0
 11 13  1  0  0  0  0
 11 14  1  0  0  0  0
 14 15  2  0  0  0  0
 14 16  1  0  0  0  0
 16 17  1  0  0  0  0
 18 19  2  0  0  0  0
 18 20  1  0  0  0  0
 20 21  1  0  0  0  0
 20 22  1  0  0  0  0
 22 23  1  0  0  0  0
 22 24  1  0  0  0  0
 22 25  1  0  0  0  0
M  END
$$$$

  -OEChem-02102214113D

 25 24  0     1  0  0  0  0  0999 V2000
   -2.7331   -4.0360    0.4790 H   0  0  0  0  0  0  0  0  0  0  0  0
   -2.7844   -2.9881    0.1713 C   0  0  0  0  0  0  0  0  0  0  0  0
   -3.4711   -2.4580    0.8356 H   0  0  0  0  0  0  0  0  0  0  0  0
   -3.1669   -2.9381   -0.8511 H   0  0  0  0  0  0  0  0  0  0  0  0
   -1.4082   -2.3541    0.2381 C   0  0  0  0  0  0  0  0  0  0  0  0
   -0.4479   -3.0076    0.6165 O   0  0  0  0  0  0  0  0  0  0  0  0
   -1.2422   -1.0411   -0.1457 N   0  0  0  0  0  0  0  0  0  0  0  0
   -2.0569   -0.5521   -0.5188 H   0  0  0  0  0  0  0  0  0  0  0  0
    0.0437   -0.3376   -0.2249 C   0  0  1  0  0  0  0  0  0  0  0  0
    0.7906   -0.8785    0.3658 H   0  0  0  0  0  0  0  0  0  0  0  0
    0.5804   -0.2099   -1.6795 C   0  0  0  0  0  0  0  0  0  0  0  0
    1.0147    0.7829   -1.8270 H   0  0  0  0  0  0  0  0  0  0  0  0
    1.3964   -0.9308   -1.7810 H   0  0  0  0  0  0  0  0  0  0  0  0
   -0.3711   -0.4711   -2.8535 C   0  0  0  0  0  0  0  0  0  0  0  0
   -1.5684   -0.2459   -2.7676 O   0  0  0  0  0  0  0  0  0  0  0  0
    0.2101   -0.9434   -3.9811 O   0  0  0  0  0  0  0  0  0  0  0  0
   -0.5057   -1.0449   -4.6267 H   0  0  0  0  0  0  0  0  0  0  0  0
   -0.0861    1.0618    0.4134 C   0  0  0  0  0  0  0  0  0  0  0  0
   -1.0433    1.7783    0.1491 O   0  0  0  0  0  0  0  0  0  0  0  0
    0.8886    1.5294    1.2766 N   0  0  0  0  0  0  0  0  0  0  0  0
    1.6442    0.8965    1.5232 H   0  0  0  0  0  0  0  0  0  0  0  0
    0.8150    2.8287    1.9348 C   0  0  0  0  0  0  0  0  0  0  0  0
   -0.0753    2.8864    2.5701 H   0  0  0  0  0  0  0  0  0  0  0  0
    1.6983    2.9866    2.5612 H   0  0  0  0  0  0  0  0  0  0  0  0
    0.7708    3.6328    1.1925 H   0  0  0  0  0  0  0  0  0  0  0  0
  1  2  1  0  0  0  0
  2  3  1  0  0  0  0
  2  4  1  0  0  0  0
  2  5  1  0  0  0  0
  5  6  2  0  0  0  0
  5  7  1  0  0  0  0
  7  8  1  0  0  0  0
  7  9  1  0  0  0  0
  9 10  1  0  0  0  0
  9 11  1  0  0  0  0
  9 18  1  0  0  0  0
 11 12  1  0  0  0  0
 11 13  1  0  0  0  0
 11 14  1  0  0  0  0
 14 15  2  0  0  0  0
 14 16  1  0  0  0  0
 16 17  1  0  0  0  0
 18 19  2  0  0  0  0
 18 20  1  0  0  0  0
 20 21  1  0  0  0  0
 20 22  1  0  0  0  0
 22 23  1  0  0  0  0
 22 24  1  0  0  0  0
 22 25  1  0  0  0  0
M  END
$$$$

  -OEChem-02102214113D

 25 24  0     1  0  0  0  0  0999 V2000
   -2.7363   -4.0162    0.4760 H   0  0  0  0  0  0  0  0  0  0  0  0
   -2.7840   -2.9681    0.1675 C   0  0  0  0  0  0  0  0  0  0  0  0
   -3.4470   -2.4293    0.8489 H   0  0  0  0  0  0  0  0  0  0  0  0
   -3.1929   -2.9159   -0.8445 H   0  0  0  0  0  0  0  0  0  0  0  0
   -1.3992   -2.3500    0.1975 C   0  0  0  0  0  0  0  0  0  0  0  0
   -0.4372   -3.0152    0.5494 O   0  0  0  0  0  0  0  0  0  0  0  0
   -1.2274   -1.0363   -0.1819 N   0  0  0  0  0  0  0  0  0  0  0  0
   -2.0505   -0.5186   -0.4927 H   0  0  0  0  0  0  0  0  0  0  0  0
    0.0595   -0.3304   -0.2378 C   0  0  1  0  0  0  0  0  0  0  0  0
    0.7968   -0.8715    0.3646 H   0  0  0  0  0  0  0  0  0  0  0  0
    0.6125   -0.2155   -1.6843 C   0  0  0  0  0  0  0  0  0  0  0  0
    1.0398    0.7783   -1.8448 H   0  0  0  0  0  0  0  0  0  0  0  0
    1.4314   -0.9340   -1.7785 H   0  0  0  0  0  0  0  0  0  0  0  0
   -0.3586   -0.4972   -2.8332 C   0  0  0  0  0  0  0  0  0  0  0  0
   -1.4836   -0.0232   -2.8204 O   0  0  0  0  0  0  0  0  0  0  0  0
    0.1092   -1.2663   -3.8441 O   0  0  0  0  0  0  0  0  0  0  0  0
   -0.6157   -1.3338   -4.4839 H   0  0  0  0  0  0  0  0  0  0  0  0
   -0.0784    1.0691    0.3986 C   0  0  0  0  0  0  0  0  0  0  0  0
   -1.0484    1.7731    0.1482 O   0  0  0  0  0  0  0  0  0  0  0  0
    0.8835    1.5341    1.2771 N   0  0  0  0  0  0  0  0  0  0  0  0
    1.6460    0.9076    1.5179 H   0  0  0  0  0  0  0  0  0  0  0  0
    0.7929    2.8248    1.9495 C   0  0  0  0  0  0  0  0  0  0  0  0
   -0.1040    2.8684    2.5763 H   0  0  0  0  0  0  0  0  0  0  0  0
    1.6684    2.9823    2.5868 H   0  0  0  0  0  0  0  0  0  0  0  0
    0.7493    3.6366    1.2157 H   0  0  0  0  0  0  0  0  0  0  0  0
  1  2  1  0  0  0  0
  2  3  1  0  0  0  0
  2  4  1  0  0  0  0
  2  5  1  0  0  0  0
  5  6  2  0  0  0  0
  5  7  1  0  0  0  0
  7  8  1  0  0  0  0
  7  9  1  0  0  0  0
  9 10  1  0  0  0  0
  9 11  1  0  0  0  0
  9 18  1  0  0  0  0
 11 12  1  0  0  0  0
 11 13  1  0  0  0  0
 11 14  1  0  0  0  0
 14 15  2  0  0  0  0
 14 16  1  0  0  0  0
 16 17  1  0  0  0  0
 18 19  2  0  0  0  0
 18 20  1  0  0  0  0
 20 21  1  0  0  0  0
 20 22  1  0  0  0  0
 22 23  1  0  0  0  0
 22 24  1  0  0  0  0
 22 25  1  0  0  0  0
M  END
$$$$

  -OEChem-02102214113D

 25 24  0     1  0  0  0  0  0999 V2000
   -2.7411   -3.9971    0.4868 H   0  0  0  0  0  0  0  0  0  0  0  0
   -2.7855   -2.9500    0.1749 C   0  0  0  0  0  0  0  0  0  0  0  0
   -3.4235   -2.4007    0.8714 H   0  0  0  0  0  0  0  0  0  0  0  0
   -3.2218   -2.8981   -0.8256 H   0  0  0  0  0  0  0  0  0  0  0  0
   -1.3932   -2.3482    0.1641 C   0  0  0  0  0  0  0  0  0  0  0  0
   -0.4298   -3.0246    0.4896 O   0  0  0  0  0  0  0  0  0  0  0  0
   -1.2176   -1.0338   -0.2133 N   0  0  0  0  0  0  0  0  0  0  0  0
   -2.0479   -0.4904   -0.4520 H   0  0  0  0  0  0  0  0  0  0  0  0
    0.0712   -0.3285   -0.2516 C   0  0  1  0  0  0  0  0  0  0  0  0
    0.7990   -0.8705    0.3615 H   0  0  0  0  0  0  0  0  0  0  0  0
    0.6406   -0.2226   -1.6900 C   0  0  0  0  0  0  0  0  0  0  0  0
    1.0644    0.7714   -1.8581 H   0  0  0  0  0  0  0  0  0  0  0  0
    1.4605   -0.9406   -1.7797 H   0  0  0  0  0  0  0  0  0  0  0  0
   -0.3439   -0.5169   -2.8197 C   0  0  0  0  0  0  0  0  0  0  0  0
   -1.3472    0.1678   -2.9318 O   0  0  0  0  0  0  0  0  0  0  0  0
   -0.0332   -1.5261   -3.6667 O   0  0  0  0  0  0  0  0  0  0  0  0
   -0.7506   -1.5574   -4.3172 H   0  0  0  0  0  0  0  0  0  0  0  0
   -0.0738    1.0713    0.3832 C   0  0  0  0  0  0  0  0  0  0  0  0
   -1.0591    1.7592    0.1488 O   0  0  0  0  0  0  0  0  0  0  0  0
    0.8764    1.5366    1.2743 N   0  0  0  0  0  0  0  0  0  0  0  0
    1.6527    0.9221    1.5012 H   0  0  0  0  0  0  0  0  0  0  0  0
    0.7700    2.8197    1.9592 C   0  0  0  0  0  0  0  0  0  0  0  0
   -0.1252    2.8453    2.5896 H   0  0  0  0  0  0  0  0  0  0  0  0
    1.6454    2.9828    2.5951 H   0  0  0  0  0  0  0  0  0  0  0  0
    0.7135    3.6382    1.2338 H   0  0  0  0  0  0  0  0  0  0  0  0
  1  2  1  0  0  0  0
  2  3  1  0  0  0  0
  2  4  1  0  0  0  0
  2  5  1  0  0  0  0
  5  6  2  0  0  0  0
  5  7  1  0  0  0  0
  7  8  1  0  0  0  0
  7  9  1  0  0  0  0
  9 10  1  0  0  0  0
  9 11  1  0  0  0  0
  9 18  1  0  0  0  0
 11 12  1  0  0  0  0
 11 13  1  0  0  0  0
 11 14  1  0  0  0  0
 14 15  2  0  0  0  0
 14 16  1  0  0  0  0
 16 17  1  0  0  0  0
 18 19  2  0  0  0  0
 18 20  1  0  0  0  0
 20 21  1  0  0  0  0
 20 22  1  0  0  0  0
 22 23  1  0  0  0  0
 22 24  1  0  0  0  0
 22 25  1  0  0  0  0
M  END
$$$$

  -OEChem-02102214113D

 25 24  0     1  0  0  0  0  0999 V2000
   -2.7360   -3.9883    0.4955 H   0  0  0  0  0  0  0  0  0  0  0  0
   -2.7799   -2.9426    0.1785 C   0  0  0  0  0  0  0  0  0  0  0  0
   -3.4079   -2.3871    0.8792 H   0  0  0  0  0  0  0  0  0  0  0  0
   -3.2267   -2.8944   -0.8175 H   0  0  0  0  0  0  0  0  0  0  0  0
   -1.3855   -2.3466    0.1490 C   0  0  0  0  0  0  0  0  0  0  0  0
   -0.4212   -3.0265    0.4638 O   0  0  0  0  0  0  0  0  0  0  0  0
   -1.2107   -1.0317   -0.2275 N   0  0  0  0  0  0  0  0  0  0  0  0
   -2.0449   -0.4753   -0.4163 H   0  0  0  0  0  0  0  0  0  0  0  0
    0.0795   -0.3279   -0.2593 C   0  0  1  0  0  0  0  0  0  0  0  0
    0.8051   -0.8700    0.3565 H   0  0  0  0  0  0  0  0  0  0  0  0
    0.6530   -0.2255   -1.6951 C   0  0  0  0  0  0  0  0  0  0  0  0
    1.0747    0.7693   -1.8657 H   0  0  0  0  0  0  0  0  0  0  0  0
    1.4723   -0.9435   -1.7882 H   0  0  0  0  0  0  0  0  0  0  0  0
   -0.3433   -0.5239   -2.8110 C   0  0  0  0  0  0  0  0  0  0  0  0
   -1.1860    0.3129   -3.0859 O   0  0  0  0  0  0  0  0  0  0  0  0
   -0.2310   -1.7098   -3.4546 O   0  0  0  0  0  0  0  0  0  0  0  0
   -0.9297   -1.7162   -4.1258 H   0  0  0  0  0  0  0  0  0  0  0  0
   -0.0702    1.0707    0.3762 C   0  0  0  0  0  0  0  0  0  0  0  0
   -1.0645    1.7483    0.1495 O   0  0  0  0  0  0  0  0  0  0  0  0
    0.8739    1.5368    1.2731 N   0  0  0  0  0  0  0  0  0  0  0  0
    1.6592    0.9307    1.4922 H   0  0  0  0  0  0  0  0  0  0  0  0
    0.7574    2.8169    1.9618 C   0  0  0  0  0  0  0  0  0  0  0  0
   -0.1649    2.8532    2.5511 H   0  0  0  0  0  0  0  0  0  0  0  0
    1.6052    2.9618    2.6383 H   0  0  0  0  0  0  0  0  0  0  0  0
    0.7463    3.6402    1.2398 H   0  0  0  0  0  0  0  0  0  0  0  0
  1  2  1  0  0  0  0
  2  3  1  0  0  0  0
  2  4  1  0  0  0  0
  2  5  1  0  0  0  0
  5  6  2  0  0  0  0
  5  7  1  0  0  0  0
  7  8  1  0  0  0  0
  7  9  1  0  0  0  0
  9 10  1  0  0  0  0
  9 11  1  0  0  0  0
  9 18  1  0  0  0  0
 11 12  1  0  0  0  0
 11 13  1  0  0  0  0
 11 14  1  0  0  0  0
 14 15  2  0  0  0  0
 14 16  1  0  0  0  0
 16 17  1  0  0  0  0
 18 19  2  0  0  0  0
 18 20  1  0  0  0  0
 20 21  1  0  0  0  0
 20 22  1  0  0  0  0
 22 23  1  0  0  0  0
 22 24  1  0  0  0  0
 22 25  1  0  0  0  0
M  END
$$$$

  -OEChem-02102214113D

 25 24  0     1  0  0  0  0  0999 V2000
   -2.7397   -3.9798    0.5271 H   0  0  0  0  0  0  0  0  0  0  0  0
   -2.7825   -2.9369    0.2013 C   0  0  0  0  0  0  0  0  0  0  0  0
   -3.4018   -2.3730    0.9029 H   0  0  0  0  0  0  0  0  0  0  0  0
   -3.2379   -2.8959   -0.7909 H   0  0  0  0  0  0  0  0  0  0  0  0
   -1.3860   -2.3469    0.1530 C   0  0  0  0  0  0  0  0  0  0  0  0
   -0.4221   -3.0286    0.4657 O   0  0  0  0  0  0  0  0  0  0  0  0
   -1.2103   -1.0331   -0.2288 N   0  0  0  0  0  0  0  0  0  0  0  0
   -2.0454   -0.4691   -0.3875 H   0  0  0  0  0  0  0  0  0  0  0  0
    0.0831   -0.3350   -0.2631 C   0  0  1  0  0  0  0  0  0  0  0  0
    0.8078   -0.8766    0.3539 H   0  0  0  0  0  0  0  0  0  0  0  0
    0.6579   -0.2302   -1.6977 C   0  0  0  0  0  0  0  0  0  0  0  0
    1.0889    0.7618   -1.8629 H   0  0  0  0  0  0  0  0  0  0  0  0
    1.4706   -0.9552   -1.7948 H   0  0  0  0  0  0  0  0  0  0  0  0
   -0.3399   -0.5206   -2.8138 C   0  0  0  0  0  0  0  0  0  0  0  0
   -0.9871    0.4058   -3.2700 O   0  0  0  0  0  0  0  0  0  0  0  0
   -0.4351   -1.7930   -3.2677 O   0  0  0  0  0  0  0  0  0  0  0  0
   -1.0908   -1.7730   -3.9807 H   0  0  0  0  0  0  0  0  0  0  0  0
   -0.0696    1.0643    0.3692 C   0  0  0  0  0  0  0  0  0  0  0  0
   -1.0695    1.7346    0.1437 O   0  0  0  0  0  0  0  0  0  0  0  0
    0.8712    1.5343    1.2673 N   0  0  0  0  0  0  0  0  0  0  0  0
    1.6575    0.9304    1.4890 H   0  0  0  0  0  0  0  0  0  0  0  0
    0.7456    2.8114    1.9597 C   0  0  0  0  0  0  0  0  0  0  0  0
   -0.1628    2.8281    2.5711 H   0  0  0  0  0  0  0  0  0  0  0  0
    1.6065    2.9736    2.6155 H   0  0  0  0  0  0  0  0  0  0  0  0
    0.7003    3.6351    1.2394 H   0  0  0  0  0  0  0  0  0  0  0  0
  1  2  1  0  0  0  0
  2  3  1  0  0  0  0
  2  4  1  0  0  0  0
  2  5  1  0  0  0  0
  5  6  2  0  0  0  0
  5  7  1  0  0  0  0
  7  8  1  0  0  0  0
  7  9  1  0  0  0  0
  9 10  1  0  0  0  0
  9 11  1  0  0  0  0
  9 18  1  0  0  0  0
 11 12  1  0  0  0  0
 11 13  1  0  0  0  0
 11 14  1  0  0  0  0
 14 15  2  0  0  0  0
 14 16  1  0  0  0  0
 16 17  1  0  0  0  0
 18 19  2  0  0  0  0
 18 20  1  0  0  0  0
 20 21  1  0  0  0  0
 20 22  1  0  0  0  0
 22 23  1  0  0  0  0
 22 24  1  0  0  0  0
 22 25  1  0  0  0  0
M  END
$$$$

  -OEChem-02102214113D

 25 24  0     1  0  0  0  0  0999 V2000
   -2.7407   -3.9834    0.5596 H   0  0  0  0  0  0  0  0  0  0  0  0
   -2.7846   -2.9434    0.2244 C   0  0  0  0  0  0  0  0  0  0  0  0
   -3.4053   -2.3742    0.9207 H   0  0  0  0  0  0  0  0  0  0  0  0
   -3.2393   -2.9120   -0.7686 H   0  0  0  0  0  0  0  0  0  0  0  0
   -1.3890   -2.3516    0.1717 C   0  0  0  0  0  0  0  0  0  0  0  0
   -0.4245   -3.0299    0.4900 O   0  0  0  0  0  0  0  0  0  0  0  0
   -1.2161   -1.0381   -0.2135 N   0  0  0  0  0  0  0  0  0  0  0  0
   -2.0522   -0.4750   -0.3667 H   0  0  0  0  0  0  0  0  0  0  0  0
    0.0782   -0.3429   -0.2580 C   0  0  1  0  0  0  0  0  0  0  0  0
    0.8078   -0.8843    0.3536 H   0  0  0  0  0  0  0  0  0  0  0  0
    0.6455   -0.2281   -1.6954 C   0  0  0  0  0  0  0  0  0  0  0  0
    1.0852    0.7621   -1.8503 H   0  0  0  0  0  0  0  0  0  0  0  0
    1.4517   -0.9585   -1.8005 H   0  0  0  0  0  0  0  0  0  0  0  0
   -0.3501   -0.5059   -2.8181 C   0  0  0  0  0  0  0  0  0  0  0  0
   -0.7824    0.4430   -3.4490 O   0  0  0  0  0  0  0  0  0  0  0  0
   -0.6509   -1.7944   -3.1103 O   0  0  0  0  0  0  0  0  0  0  0  0
   -1.2500   -1.7602   -3.8709 H   0  0  0  0  0  0  0  0  0  0  0  0
   -0.0741    1.0560    0.3748 C   0  0  0  0  0  0  0  0  0  0  0  0
   -1.0728    1.7267    0.1439 O   0  0  0  0  0  0  0  0  0  0  0  0
    0.8693    1.5300    1.2680 N   0  0  0  0  0  0  0  0  0  0  0  0
    1.6587    0.9291    1.4869 H   0  0  0  0  0  0  0  0  0  0  0  0
    0.7484    2.8120    1.9522 C   0  0  0  0  0  0  0  0  0  0  0  0
   -0.1609    2.8367    2.5621 H   0  0  0  0  0  0  0  0  0  0  0  0
    1.6091    2.9739    2.6083 H   0  0  0  0  0  0  0  0  0  0  0  0
    0.7082    3.6313    1.2265 H   0  0  0  0  0  0  0  0  0  0  0  0
  1  2  1  0  0  0  0
  2  3  1  0  0  0  0
  2  4  1  0  0  0  0
  2  5  1  0  0  0  0
  5  6  2  0  0  0  0
  5  7  1  0  0  0  0
  7  8  1  0  0  0  0
  7  9  1  0  0  0  0
  9 10  1  0  0  0  0
  9 11  1  0  0  0  0
  9 18  1  0  0  0  0
 11 12  1  0  0  0  0
 11 13  1  0  0  0  0
 11 14  1  0  0  0  0
 14 15  2  0  0  0  0
 14 16  1  0  0  0  0
 16 17  1  0  0  0  0
 18 19  2  0  0  0  0
 18 20  1  0  0  0  0
 20 21  1  0  0  0  0
 20 22  1  0  0  0  0
 22 23  1  0  0  0  0
 22 24  1  0  0  0  0
 22 25  1  0  0  0  0
M  END
$$$$

  -OEChem-02102214113D

 25 24  0     1  0  0  0  0  0999 V2000
   -2.7429   -3.9888    0.5927 H   0  0  0  0  0  0  0  0  0  0  0  0
   -2.7885   -2.9504    0.2530 C   0  0  0  0  0  0  0  0  0  0  0  0
   -3.4144   -2.3803    0.9437 H   0  0  0  0  0  0  0  0  0  0  0  0
   -3.2380   -2.9246   -0.7425 H   0  0  0  0  0  0  0  0  0  0  0  0
   -1.3943   -2.3550    0.2039 C   0  0  0  0  0  0  0  0  0  0  0  0
   -0.4290   -3.0299    0.5282 O   0  0  0  0  0  0  0  0  0  0  0  0
   -1.2239   -1.0424   -0.1850 N   0  0  0  0  0  0  0  0  0  0  0  0
   -2.0607   -0.4856   -0.3531 H   0  0  0  0  0  0  0  0  0  0  0  0
    0.0701   -0.3503   -0.2499 C   0  0  1  0  0  0  0  0  0  0  0  0
    0.8084   -0.8914    0.3514 H   0  0  0  0  0  0  0  0  0  0  0  0
    0.6231   -0.2219   -1.6941 C   0  0  0  0  0  0  0  0  0  0  0  0
    1.0700    0.7675   -1.8350 H   0  0  0  0  0  0  0  0  0  0  0  0
    1.4258   -0.9548   -1.8097 H   0  0  0  0  0  0  0  0  0  0  0  0
   -0.3653   -0.4824   -2.8308 C   0  0  0  0  0  0  0  0  0  0  0  0
   -0.5687    0.4274   -3.6161 O   0  0  0  0  0  0  0  0  0  0  0  0
   -0.8695   -1.7300   -2.9957 O   0  0  0  0  0  0  0  0  0  0  0  0
   -1.4011   -1.6933   -3.8049 H   0  0  0  0  0  0  0  0  0  0  0  0
   -0.0791    1.0477    0.3857 C   0  0  0  0  0  0  0  0  0  0  0  0
   -1.0743    1.7222    0.1496 O   0  0  0  0  0  0  0  0  0  0  0  0
    0.8726    1.5264    1.2674 N   0  0  0  0  0  0  0  0  0  0  0  0
    1.6599    0.9234    1.4882 H   0  0  0  0  0  0  0  0  0  0  0  0
    0.7566    2.8123    1.9451 C   0  0  0  0  0  0  0  0  0  0  0  0
   -0.1467    2.8395    2.5636 H   0  0  0  0  0  0  0  0  0  0  0  0
    1.6234    2.9793    2.5917 H   0  0  0  0  0  0  0  0  0  0  0  0
    0.7079    3.6271    1.2150 H   0  0  0  0  0  0  0  0  0  0  0  0
  1  2  1  0  0  0  0
  2  3  1  0  0  0  0
  2  4  1  0  0  0  0
  2  5  1  0  0  0  0
  5  6  2  0  0  0  0
  5  7  1  0  0  0  0
  7  8  1  0  0  0  0
  7  9  1  0  0  0  0
  9 10  1  0  0  0  0
  9 11  1  0  0  0  0
  9 18  1  0  0  0  0
 11 12  1  0  0  0  0
 11 13  1  0  0  0  0
 11 14  1  0  0  0  0
 14 15  2  0  0  0  0
 14 16  1  0  0  0  0
 16 17  1  0  0  0  0
 18 19  2  0  0  0  0
 18 20  1  0  0  0  0
 20 21  1  0  0  0  0
 20 22  1  0  0  0  0
 22 23  1  0  0  0  0
 22 24  1  0  0  0  0
 22 25  1  0  0  0  0
M  END
$$$$

  -OEChem-02102214113D

 25 24  0     1  0  0  0  0  0999 V2000
   -2.7385   -4.0018    0.6207 H   0  0  0  0  0  0  0  0  0  0  0  0
   -2.7890   -2.9638    0.2803 C   0  0  0  0  0  0  0  0  0  0  0  0
   -3.4229   -2.3976    0.9668 H   0  0  0  0  0  0  0  0  0  0  0  0
   -3.2322   -2.9411   -0.7181 H   0  0  0  0  0  0  0  0  0  0  0  0
   -1.3988   -2.3587    0.2395 C   0  0  0  0  0  0  0  0  0  0  0  0
   -0.4302   -3.0272    0.5677 O   0  0  0  0  0  0  0  0  0  0  0  0
   -1.2353   -1.0459   -0.1514 N   0  0  0  0  0  0  0  0  0  0  0  0
   -2.0736   -0.5030   -0.3523 H   0  0  0  0  0  0  0  0  0  0  0  0
    0.0564   -0.3544   -0.2404 C   0  0  1  0  0  0  0  0  0  0  0  0
    0.8049   -0.8954    0.3482 H   0  0  0  0  0  0  0  0  0  0  0  0
    0.5945   -0.2101   -1.6911 C   0  0  0  0  0  0  0  0  0  0  0  0
    1.0470    0.7789   -1.8170 H   0  0  0  0  0  0  0  0  0  0  0  0
    1.3946   -0.9444   -1.8143 H   0  0  0  0  0  0  0  0  0  0  0  0
   -0.3764   -0.4512   -2.8511 C   0  0  0  0  0  0  0  0  0  0  0  0
   -0.3452    0.3600   -3.7606 O   0  0  0  0  0  0  0  0  0  0  0  0
   -1.0970   -1.5981   -2.9143 O   0  0  0  0  0  0  0  0  0  0  0  0
   -1.5583   -1.5693   -3.7661 H   0  0  0  0  0  0  0  0  0  0  0  0
   -0.0880    1.0415    0.4006 C   0  0  0  0  0  0  0  0  0  0  0  0
   -1.0781    1.7229    0.1618 O   0  0  0  0  0  0  0  0  0  0  0  0
    0.8761    1.5231    1.2671 N   0  0  0  0  0  0  0  0  0  0  0  0
    1.6601    0.9157    1.4883 H   0  0  0  0  0  0  0  0  0  0  0  0
    0.7722    2.8132    1.9386 C   0  0  0  0  0  0  0  0  0  0  0  0
   -0.1215    2.8452    2.5708 H   0  0  0  0  0  0  0  0  0  0  0  0
    1.6491    2.9831    2.5708 H   0  0  0  0  0  0  0  0  0  0  0  0
    0.7136    3.6235    1.2043 H   0  0  0  0  0  0  0  0  0  0  0  0
  1  2  1  0  0  0  0
  2  3  1  0  0  0  0
  2  4  1  0  0  0  0
  2  5  1  0  0  0  0
  5  6  2  0  0  0  0
  5  7  1  0  0  0  0
  7  8  1  0  0  0  0
  7  9  1  0  0  0  0
  9 10  1  0  0  0  0
  9 11  1  0  0  0  0
  9 18  1  0  0  0  0
 11 12  1  0  0  0  0
 11 13  1  0  0  0  0
 11 14  1  0  0  0  0
 14 15  2  0  0  0  0
 14 16  1  0  0  0  0
 16 17  1  0  0  0  0
 18 19  2  0  0  0  0
 18 20  1  0  0  0  0
 20 21  1  0  0  0  0
 20 22  1  0  0  0  0
 22 23  1  0  0  0  0
 22 24  1  0  0  0  0
 22 25  1  0  0  0  0
M  END
$$$$

  -OEChem-02102214113D

 25 24  0     1  0  0  0  0  0999 V2000
   -2.7266   -4.0292    0.6334 H   0  0  0  0  0  0  0  0  0  0  0  0
   -2.7840   -2.9914    0.2938 C   0  0  0  0  0  0  0  0  0  0  0  0
   -3.4336   -2.4332    0.9721 H   0  0  0  0  0  0  0  0  0  0  0  0
   -3.2138   -2.9721   -0.7107 H   0  0  0  0  0  0  0  0  0  0  0  0
   -1.4005   -2.3702    0.2734 C   0  0  0  0  0  0  0  0  0  0  0  0
   -0.4281   -3.0296    0.6090 O   0  0  0  0  0  0  0  0  0  0  0  0
   -1.2463   -1.0559   -0.1150 N   0  0  0  0  0  0  0  0  0  0  0  0
   -2.0844   -0.5376   -0.3720 H   0  0  0  0  0  0  0  0  0  0  0  0
    0.0405   -0.3605   -0.2242 C   0  0  1  0  0  0  0  0  0  0  0  0
    0.7996   -0.9010    0.3508 H   0  0  0  0  0  0  0  0  0  0  0  0
    0.5654   -0.1961   -1.6804 C   0  0  0  0  0  0  0  0  0  0  0  0
    1.0169    0.7956   -1.7889 H   0  0  0  0  0  0  0  0  0  0  0  0
    1.3682   -0.9265   -1.8098 H   0  0  0  0  0  0  0  0  0  0  0  0
   -0.3818   -0.4166   -2.8683 C   0  0  0  0  0  0  0  0  0  0  0  0
   -0.1284    0.2398   -3.8640 O   0  0  0  0  0  0  0  0  0  0  0  0
   -1.3412   -1.3748   -2.8509 O   0  0  0  0  0  0  0  0  0  0  0  0
   -1.7404   -1.3564   -3.7341 H   0  0  0  0  0  0  0  0  0  0  0  0
   -0.1003    1.0321    0.4254 C   0  0  0  0  0  0  0  0  0  0  0  0
   -1.0801    1.7250    0.1775 O   0  0  0  0  0  0  0  0  0  0  0  0
    0.8755    1.5150    1.2780 N   0  0  0  0  0  0  0  0  0  0  0  0
    1.6559    0.9033    1.4997 H   0  0  0  0  0  0  0  0  0  0  0  0
    0.7979    2.8212    1.9214 C   0  0  0  0  0  0  0  0  0  0  0  0
   -0.0912    2.8832    2.5578 H   0  0  0  0  0  0  0  0  0  0  0  0
    1.6815    2.9896    2.5444 H   0  0  0  0  0  0  0  0  0  0  0  0
    0.7493    3.6160    1.1696 H   0  0  0  0  0  0  0  0  0  0  0  0
  1  2  1  0  0  0  0
  2  3  1  0  0  0  0
  2  4  1  0  0  0  0
  2  5  1  0  0  0  0
  5  6  2  0  0  0  0
  5  7  1  0  0  0  0
  7  8  1  0  0  0  0
  7  9  1  0  0  0  0
  9 10  1  0  0  0  0
  9 11  1  0  0  0  0
  9 18  1  0  0  0  0
 11 12  1  0  0  0  0
 11 13  1  0  0  0  0
 11 14  1  0  0  0  0
 14 15  2  0  0  0  0
 14 16  1  0  0  0  0
 16 17  1  0  0  0  0
 18 19  2  0  0  0  0
 18 20  1  0  0  0  0
 20 21  1  0  0  0  0
 20 22  1  0  0  0  0
 22 23  1  0  0  0  0
 22 24  1  0  0  0  0
 22 25  1  0  0  0  0
M  END
$$$$

  -OEChem-02102214113D

 25 24  0     1  0  0  0  0  0999 V2000
   -2.7066   -4.0569    0.6101 H   0  0  0  0  0  0  0  0  0  0  0  0
   -2.7698   -3.0170    0.2779 C   0  0  0  0  0  0  0  0  0  0  0  0
   -3.4526   -2.4761    0.9375 H   0  0  0  0  0  0  0  0  0  0  0  0
   -3.1642   -2.9952   -0.7409 H   0  0  0  0  0  0  0  0  0  0  0  0
   -1.3974   -2.3719    0.3122 C   0  0  0  0  0  0  0  0  0  0  0  0
   -0.4266   -3.0155    0.6817 O   0  0  0  0  0  0  0  0  0  0  0  0
   -1.2501   -1.0592   -0.0825 N   0  0  0  0  0  0  0  0  0  0  0  0
   -2.0776   -0.5815   -0.4361 H   0  0  0  0  0  0  0  0  0  0  0  0
    0.0333   -0.3614   -0.2083 C   0  0  1  0  0  0  0  0  0  0  0  0
    0.8002   -0.8984    0.3599 H   0  0  0  0  0  0  0  0  0  0  0  0
    0.5430   -0.1968   -1.6713 C   0  0  0  0  0  0  0  0  0  0  0  0
    0.9906    0.7962   -1.7812 H   0  0  0  0  0  0  0  0  0  0  0  0
    1.3493   -0.9235   -1.8008 H   0  0  0  0  0  0  0  0  0  0  0  0
   -0.3926   -0.4126   -2.8716 C   0  0  0  0  0  0  0  0  0  0  0  0
    0.0345    0.0184   -3.9292 O   0  0  0  0  0  0  0  0  0  0  0  0
   -1.5798   -1.0613   -2.7761 O   0  0  0  0  0  0  0  0  0  0  0  0
   -1.9450   -1.0610   -3.6743 H   0  0  0  0  0  0  0  0  0  0  0  0
   -0.1002    1.0343    0.4369 C   0  0  0  0  0  0  0  0  0  0  0  0
   -1.0692    1.7388    0.1789 O   0  0  0  0  0  0  0  0  0  0  0  0
    0.8869    1.5184    1.2756 N   0  0  0  0  0  0  0  0  0  0  0  0
    1.6584    0.8986    1.5052 H   0  0  0  0  0  0  0  0  0  0  0  0
    0.8195    2.8267    1.9157 C   0  0  0  0  0  0  0  0  0  0  0  0
   -0.0598    2.8910    2.5651 H   0  0  0  0  0  0  0  0  0  0  0  0
    1.7126    2.9965    2.5246 H   0  0  0  0  0  0  0  0  0  0  0  0
    0.7598    3.6192    1.1623 H   0  0  0  0  0  0  0  0  0  0  0  0
  1  2  1  0  0  0  0
  2  3  1  0  0  0  0
  2  4  1  0  0  0  0
  2  5  1  0  0  0  0
  5  6  2  0  0  0  0
  5  7  1  0  0  0  0
  7  8  1  0  0  0  0
  7  9  1  0  0  0  0
  9 10  1  0  0  0  0
  9 11  1  0  0  0  0
  9 18  1  0  0  0  0
 11 12  1  0  0  0  0
 11 13  1  0  0  0  0
 11 14  1  0  0  0  0
 14 15  2  0  0  0  0
 14 16  1  0  0  0  0
 16 17  1  0  0  0  0
 18 19  2  0  0  0  0
 18 20  1  0  0  0  0
 20 21  1  0  0  0  0
 20 22  1  0  0  0  0
 22 23  1  0  0  0  0
 22 24  1  0  0  0  0
 22 25  1  0  0  0  0
M  END
$$$$

  -OEChem-02102214113D

 25 24  0     1  0  0  0  0  0999 V2000
   -2.6822   -4.0737    0.5176 H   0  0  0  0  0  0  0  0  0  0  0  0
   -2.7475   -3.0287    0.2022 C   0  0  0  0  0  0  0  0  0  0  0  0
   -3.4375   -2.5019    0.8656 H   0  0  0  0  0  0  0  0  0  0  0  0
   -3.1353   -2.9920   -0.8186 H   0  0  0  0  0  0  0  0  0  0  0  0
   -1.3782   -2.3784    0.2591 C   0  0  0  0  0  0  0  0  0  0  0  0
   -0.4082   -3.0218    0.6297 O   0  0  0  0  0  0  0  0  0  0  0  0
   -1.2293   -1.0621   -0.1208 N   0  0  0  0  0  0  0  0  0  0  0  0
   -2.0487   -0.5819   -0.4955 H   0  0  0  0  0  0  0  0  0  0  0  0
    0.0494   -0.3492   -0.2107 C   0  0  1  0  0  0  0  0  0  0  0  0
    0.8179   -0.8866    0.3549 H   0  0  0  0  0  0  0  0  0  0  0  0
    0.5418   -0.1841   -1.6723 C   0  0  0  0  0  0  0  0  0  0  0  0
    1.2008    0.6873   -1.7311 H   0  0  0  0  0  0  0  0  0  0  0  0
    1.1483   -1.0645   -1.9014 H   0  0  0  0  0  0  0  0  0  0  0  0
   -0.4851   -0.0732   -2.8087 C   0  0  0  0  0  0  0  0  0  0  0  0
   -0.0063    0.0530   -3.9227 O   0  0  0  0  0  0  0  0  0  0  0  0
   -1.8230   -0.0576   -2.5792 O   0  0  0  0  0  0  0  0  0  0  0  0
   -2.2332    0.1009   -3.4433 H   0  0  0  0  0  0  0  0  0  0  0  0
   -0.0889    1.0452    0.4368 C   0  0  0  0  0  0  0  0  0  0  0  0
   -1.0480    1.7592    0.1703 O   0  0  0  0  0  0  0  0  0  0  0  0
    0.8880    1.5194    1.2935 N   0  0  0  0  0  0  0  0  0  0  0  0
    1.6528    0.8943    1.5312 H   0  0  0  0  0  0  0  0  0  0  0  0
    0.8197    2.8259    1.9376 C   0  0  0  0  0  0  0  0  0  0  0  0
   -0.0730    2.8963    2.5681 H   0  0  0  0  0  0  0  0  0  0  0  0
    1.7008    2.9849    2.5668 H   0  0  0  0  0  0  0  0  0  0  0  0
    0.7840    3.6219    1.1863 H   0  0  0  0  0  0  0  0  0  0  0  0
  1  2  1  0  0  0  0
  2  3  1  0  0  0  0
  2  4  1  0  0  0  0
  2  5  1  0  0  0  0
  5  6  2  0  0  0  0
  5  7  1  0  0  0  0
  7  8  1  0  0  0  0
  7  9  1  0  0  0  0
  9 10  1  0  0  0  0
  9 11  1  0  0  0  0
  9 18  1  0  0  0  0
 11 12  1  0  0  0  0
 11 13  1  0  0  0  0
 11 14  1  0  0  0  0
 14 15  2  0  0  0  0
 14 16  1  0  0  0  0
 16 17  1  0  0  0  0
 18 19  2  0  0  0  0
 18 20  1  0  0  0  0
 20 21  1  0  0  0  0
 20 22  1  0  0  0  0
 22 23  1  0  0  0  0
 22 24  1  0  0  0  0
 22 25  1  0  0  0  0
M  END
$$$$

  -OEChem-02102214113D

 25 24  0     1  0  0  0  0  0999 V2000
   -2.6902   -4.0495    0.5074 H   0  0  0  0  0  0  0  0  0  0  0  0
   -2.7536   -3.0041    0.1930 C   0  0  0  0  0  0  0  0  0  0  0  0
   -3.4226   -2.4712    0.8730 H   0  0  0  0  0  0  0  0  0  0  0  0
   -3.1656   -2.9642   -0.8182 H   0  0  0  0  0  0  0  0  0  0  0  0
   -1.3774   -2.3666    0.2166 C   0  0  0  0  0  0  0  0  0  0  0  0
   -0.4041   -3.0208    0.5579 O   0  0  0  0  0  0  0  0  0  0  0  0
   -1.2267   -1.0473   -0.1530 N   0  0  0  0  0  0  0  0  0  0  0  0
   -2.0556   -0.5411   -0.4675 H   0  0  0  0  0  0  0  0  0  0  0  0
    0.0507   -0.3286   -0.2257 C   0  0  1  0  0  0  0  0  0  0  0  0
    0.8113   -0.8678    0.3486 H   0  0  0  0  0  0  0  0  0  0  0  0
    0.5566   -0.1854   -1.6834 C   0  0  0  0  0  0  0  0  0  0  0  0
    1.2027    0.6940   -1.7576 H   0  0  0  0  0  0  0  0  0  0  0  0
    1.1746   -1.0626   -1.8958 H   0  0  0  0  0  0  0  0  0  0  0  0
   -0.4816   -0.1020   -2.8090 C   0  0  0  0  0  0  0  0  0  0  0  0
   -0.0521   -0.2770   -3.9365 O   0  0  0  0  0  0  0  0  0  0  0  0
   -1.7740    0.2238   -2.5556 O   0  0  0  0  0  0  0  0  0  0  0  0
   -2.2007    0.3026   -3.4222 H   0  0  0  0  0  0  0  0  0  0  0  0
   -0.0842    1.0647    0.4263 C   0  0  0  0  0  0  0  0  0  0  0  0
   -1.0556    1.7724    0.1917 O   0  0  0  0  0  0  0  0  0  0  0  0
    0.8925    1.5275    1.2897 N   0  0  0  0  0  0  0  0  0  0  0  0
    1.6592    0.9004    1.5158 H   0  0  0  0  0  0  0  0  0  0  0  0
    0.8129    2.8158    1.9682 C   0  0  0  0  0  0  0  0  0  0  0  0
   -0.0716    2.8550    2.6127 H   0  0  0  0  0  0  0  0  0  0  0  0
    1.7007    2.9730    2.5883 H   0  0  0  0  0  0  0  0  0  0  0  0
    0.7534    3.6303    1.2386 H   0  0  0  0  0  0  0  0  0  0  0  0
  1  2  1  0  0  0  0
  2  3  1  0  0  0  0
  2  4  1  0  0  0  0
  2  5  1  0  0  0  0
  5  6  2  0  0  0  0
  5  7  1  0  0  0  0
  7  8  1  0  0  0  0
  7  9  1  0  0  0  0
  9 10  1  0  0  0  0
  9 11  1  0  0  0  0
  9 18  1  0  0  0  0
 11 12  1  0  0  0  0
 11 13  1  0  0  0  0
 11 14  1  0  0  0  0
 14 15  2  0  0  0  0
 14 16  1  0  0  0  0
 16 17  1  0  0  0  0
 18 19  2  0  0  0  0
 18 20  1  0  0  0  0
 20 21  1  0  0  0  0
 20 22  1  0  0  0  0
 22 23  1  0  0  0  0
 22 24  1  0  0  0  0
 22 25  1  0  0  0  0
M  END
$$$$

  -OEChem-02102214113D

 25 24  0     1  0  0  0  0  0999 V2000
   -2.7003   -4.0172    0.5012 H   0  0  0  0  0  0  0  0  0  0  0  0
   -2.7618   -2.9708    0.1893 C   0  0  0  0  0  0  0  0  0  0  0  0
   -3.4040   -2.4312    0.8894 H   0  0  0  0  0  0  0  0  0  0  0  0
   -3.2037   -2.9258   -0.8090 H   0  0  0  0  0  0  0  0  0  0  0  0
   -1.3782   -2.3487    0.1708 C   0  0  0  0  0  0  0  0  0  0  0  0
   -0.4017   -3.0163    0.4744 O   0  0  0  0  0  0  0  0  0  0  0  0
   -1.2242   -1.0273   -0.1910 N   0  0  0  0  0  0  0  0  0  0  0  0
   -2.0620   -0.4925   -0.4223 H   0  0  0  0  0  0  0  0  0  0  0  0
    0.0547   -0.3082   -0.2473 C   0  0  1  0  0  0  0  0  0  0  0  0
    0.8035   -0.8505    0.3395 H   0  0  0  0  0  0  0  0  0  0  0  0
    0.5814   -0.1896   -1.6978 C   0  0  0  0  0  0  0  0  0  0  0  0
    1.2196    0.6938   -1.7848 H   0  0  0  0  0  0  0  0  0  0  0  0
    1.2064   -1.0665   -1.8917 H   0  0  0  0  0  0  0  0  0  0  0  0
   -0.4672   -0.1297   -2.8116 C   0  0  0  0  0  0  0  0  0  0  0  0
   -0.1419   -0.5899   -3.8928 O   0  0  0  0  0  0  0  0  0  0  0  0
   -1.6593    0.4771   -2.5945 O   0  0  0  0  0  0  0  0  0  0  0  0
   -2.1231    0.4690   -3.4450 H   0  0  0  0  0  0  0  0  0  0  0  0
   -0.0781    1.0839    0.4086 C   0  0  0  0  0  0  0  0  0  0  0  0
   -1.0725    1.7727    0.2199 O   0  0  0  0  0  0  0  0  0  0  0  0
    0.8956    1.5375    1.2804 N   0  0  0  0  0  0  0  0  0  0  0  0
    1.6761    0.9188    1.4808 H   0  0  0  0  0  0  0  0  0  0  0  0
    0.7976    2.8028    1.9988 C   0  0  0  0  0  0  0  0  0  0  0  0
   -0.0821    2.8059    2.6511 H   0  0  0  0  0  0  0  0  0  0  0  0
    1.6873    2.9575    2.6169 H   0  0  0  0  0  0  0  0  0  0  0  0
    0.7169    3.6379    1.2949 H   0  0  0  0  0  0  0  0  0  0  0  0
  1  2  1  0  0  0  0
  2  3  1  0  0  0  0
  2  4  1  0  0  0  0
  2  5  1  0  0  0  0
  5  6  2  0  0  0  0
  5  7  1  0  0  0  0
  7  8  1  0  0  0  0
  7  9  1  0  0  0  0
  9 10  1  0  0  0  0
  9 11  1  0  0  0  0
  9 18  1  0  0  0  0
 11 12  1  0  0  0  0
 11 13  1  0  0  0  0
 11 14  1  0  0  0  0
 14 15  2  0  0  0  0
 14 16  1  0  0  0  0
 16 17  1  0  0  0  0
 18 19  2  0  0  0  0
 18 20  1  0  0  0  0
 20 21  1  0  0  0  0
 20 22  1  0  0  0  0
 22 23  1  0  0  0  0
 22 24  1  0  0  0  0
 22 25  1  0  0  0  0
M  END
$$$$

  -OEChem-02102214113D

 25 24  0     1  0  0  0  0  0999 V2000
   -2.7085   -3.9887    0.5085 H   0  0  0  0  0  0  0  0  0  0  0  0
   -2.7673   -2.9431    0.1935 C   0  0  0  0  0  0  0  0  0  0  0  0
   -3.3825   -2.3929    0.9096 H   0  0  0  0  0  0  0  0  0  0  0  0
   -3.2376   -2.8976   -0.7918 H   0  0  0  0  0  0  0  0  0  0  0  0
   -1.3781   -2.3373    0.1318 C   0  0  0  0  0  0  0  0  0  0  0  0
   -0.4007   -3.0162    0.4061 O   0  0  0  0  0  0  0  0  0  0  0  0
   -1.2213   -1.0147   -0.2257 N   0  0  0  0  0  0  0  0  0  0  0  0
   -2.0627   -0.4584   -0.3786 H   0  0  0  0  0  0  0  0  0  0  0  0
    0.0612   -0.2995   -0.2673 C   0  0  1  0  0  0  0  0  0  0  0  0
    0.7997   -0.8440    0.3308 H   0  0  0  0  0  0  0  0  0  0  0  0
    0.6075   -0.1932   -1.7101 C   0  0  0  0  0  0  0  0  0  0  0  0
    1.2452    0.6901   -1.8007 H   0  0  0  0  0  0  0  0  0  0  0  0
    1.2342   -1.0711   -1.8942 H   0  0  0  0  0  0  0  0  0  0  0  0
   -0.4481   -0.1407   -2.8143 C   0  0  0  0  0  0  0  0  0  0  0  0
   -0.2699   -0.8388   -3.7981 O   0  0  0  0  0  0  0  0  0  0  0  0
   -1.4894    0.7144   -2.6901 O   0  0  0  0  0  0  0  0  0  0  0  0
   -2.0010    0.6394   -3.5089 H   0  0  0  0  0  0  0  0  0  0  0  0
   -0.0763    1.0909    0.3916 C   0  0  0  0  0  0  0  0  0  0  0  0
   -1.0910    1.7585    0.2358 O   0  0  0  0  0  0  0  0  0  0  0  0
    0.8896    1.5392    1.2746 N   0  0  0  0  0  0  0  0  0  0  0  0
    1.6849    0.9329    1.4536 H   0  0  0  0  0  0  0  0  0  0  0  0
    0.7769    2.7909    2.0143 C   0  0  0  0  0  0  0  0  0  0  0  0
   -0.1030    2.7733    2.6660 H   0  0  0  0  0  0  0  0  0  0  0  0
    1.6646    2.9448    2.6352 H   0  0  0  0  0  0  0  0  0  0  0  0
    0.6870    3.6367    1.3244 H   0  0  0  0  0  0  0  0  0  0  0  0
  1  2  1  0  0  0  0
  2  3  1  0  0  0  0
  2  4  1  0  0  0  0
  2  5  1  0  0  0  0
  5  6  2  0  0  0  0
  5  7  1  0  0  0  0
  7  8  1  0  0  0  0
  7  9  1  0  0  0  0
  9 10  1  0  0  0  0
  9 11  1  0  0  0  0
  9 18  1  0  0  0  0
 11 12  1  0  0  0  0
 11 13  1  0  0  0  0
 11 14  1  0  0  0  0
 14 15  2  0  0  0  0
 14 16  1  0  0  0  0
 16 17  1  0  0  0  0
 18 19  2  0  0  0  0
 18 20  1  0  0  0  0
 20 21  1  0  0  0  0
 20 22  1  0  0  0  0
 22 23  1  0  0  0  0
 22 24  1  0  0  0  0
 22 25  1  0  0  0  0
M  END
$$$$

  -OEChem-02102214113D

 25 24  0     1  0  0  0  0  0999 V2000
   -2.7159   -3.9716    0.5063 H   0  0  0  0  0  0  0  0  0  0  0  0
   -2.7698   -2.9264    0.1890 C   0  0  0  0  0  0  0  0  0  0  0  0
   -3.3759   -2.3701    0.9082 H   0  0  0  0  0  0  0  0  0  0  0  0
   -3.2468   -2.8804   -0.7930 H   0  0  0  0  0  0  0  0  0  0  0  0
   -1.3771   -2.3303    0.1145 C   0  0  0  0  0  0  0  0  0  0  0  0
   -0.4024   -3.0152    0.3836 O   0  0  0  0  0  0  0  0  0  0  0  0
   -1.2145   -1.0087   -0.2451 N   0  0  0  0  0  0  0  0  0  0  0  0
   -2.0544   -0.4418   -0.3604 H   0  0  0  0  0  0  0  0  0  0  0  0
    0.0734   -0.3015   -0.2780 C   0  0  1  0  0  0  0  0  0  0  0  0
    0.8061   -0.8477    0.3255 H   0  0  0  0  0  0  0  0  0  0  0  0
    0.6270   -0.1989   -1.7174 C   0  0  0  0  0  0  0  0  0  0  0  0
    1.2693    0.6810   -1.8097 H   0  0  0  0  0  0  0  0  0  0  0  0
    1.2484   -1.0798   -1.9047 H   0  0  0  0  0  0  0  0  0  0  0  0
   -0.4389   -0.1402   -2.8088 C   0  0  0  0  0  0  0  0  0  0  0  0
   -0.4452   -1.0172   -3.6563 O   0  0  0  0  0  0  0  0  0  0  0  0
   -1.2865    0.9134   -2.8217 O   0  0  0  0  0  0  0  0  0  0  0  0
   -1.8566    0.7952   -3.5953 H   0  0  0  0  0  0  0  0  0  0  0  0
   -0.0697    1.0890    0.3786 C   0  0  0  0  0  0  0  0  0  0  0  0
   -1.0915    1.7463    0.2231 O   0  0  0  0  0  0  0  0  0  0  0  0
    0.8861    1.5393    1.2713 N   0  0  0  0  0  0  0  0  0  0  0  0
    1.6869    0.9402    1.4497 H   0  0  0  0  0  0  0  0  0  0  0  0
    0.7588    2.7863    2.0168 C   0  0  0  0  0  0  0  0  0  0  0  0
   -0.1285    2.7611    2.6584 H   0  0  0  0  0  0  0  0  0  0  0  0
    1.6382    2.9412    2.6492 H   0  0  0  0  0  0  0  0  0  0  0  0
    0.6730    3.6355    1.3305 H   0  0  0  0  0  0  0  0  0  0  0  0
  1  2  1  0  0  0  0
  2  3  1  0  0  0  0
  2  4  1  0  0  0  0
  2  5  1  0  0  0  0
  5  6  2  0  0  0  0
  5  7  1  0  0  0  0
  7  8  1  0  0  0  0
  7  9  1  0  0  0  0
  9 10  1  0  0  0  0
  9 11  1  0  0  0  0
  9 18  1  0  0  0  0
 11 12  1  0  0  0  0
 11 13  1  0  0  0  0
 11 14  1  0  0  0  0
 14 15  2  0  0  0  0
 14 16  1  0  0  0  0
 16 17  1  0  0  0  0
 18 19  2  0  0  0  0
 18 20  1  0  0  0  0
 20 21  1  0  0  0  0
 20 22  1  0  0  0  0
 22 23  1  0  0  0  0
 22 24  1  0  0  0  0
 22 25  1  0  0  0  0
M  END
$$$$

  -OEChem-02102214113D

 25 24  0     1  0  0  0  0  0999 V2000
   -2.7250   -3.9676    0.5020 H   0  0  0  0  0  0  0  0  0  0  0  0
   -2.7722   -2.9237    0.1795 C   0  0  0  0  0  0  0  0  0  0  0  0
   -3.3831   -2.3622    0.8903 H   0  0  0  0  0  0  0  0  0  0  0  0
   -3.2399   -2.8804   -0.8071 H   0  0  0  0  0  0  0  0  0  0  0  0
   -1.3765   -2.3328    0.1147 C   0  0  0  0  0  0  0  0  0  0  0  0
   -0.4070   -3.0181    0.4010 O   0  0  0  0  0  0  0  0  0  0  0  0
   -1.2064   -1.0130   -0.2490 N   0  0  0  0  0  0  0  0  0  0  0  0
   -2.0439   -0.4439   -0.3691 H   0  0  0  0  0  0  0  0  0  0  0  0
    0.0859   -0.3132   -0.2787 C   0  0  1  0  0  0  0  0  0  0  0  0
    0.8181   -0.8605    0.3246 H   0  0  0  0  0  0  0  0  0  0  0  0
    0.6386   -0.2004   -1.7174 C   0  0  0  0  0  0  0  0  0  0  0  0
    1.2880    0.6750   -1.8043 H   0  0  0  0  0  0  0  0  0  0  0  0
    1.2525   -1.0835   -1.9180 H   0  0  0  0  0  0  0  0  0  0  0  0
   -0.4341   -0.1249   -2.7991 C   0  0  0  0  0  0  0  0  0  0  0  0
   -0.6426   -1.1112   -3.4859 O   0  0  0  0  0  0  0  0  0  0  0  0
   -1.0642    1.0577   -2.9801 O   0  0  0  0  0  0  0  0  0  0  0  0
   -1.6907    0.9250   -3.7064 H   0  0  0  0  0  0  0  0  0  0  0  0
   -0.0648    1.0774    0.3745 C   0  0  0  0  0  0  0  0  0  0  0  0
   -1.0830    1.7347    0.1951 O   0  0  0  0  0  0  0  0  0  0  0  0
    0.8810    1.5338    1.2745 N   0  0  0  0  0  0  0  0  0  0  0  0
    1.6787    0.9352    1.4680 H   0  0  0  0  0  0  0  0  0  0  0  0
    0.7487    2.7899    2.0032 C   0  0  0  0  0  0  0  0  0  0  0  0
   -0.1422    2.7710    2.6398 H   0  0  0  0  0  0  0  0  0  0  0  0
    1.6246    2.9536    2.6382 H   0  0  0  0  0  0  0  0  0  0  0  0
    0.6658    3.6307    1.3064 H   0  0  0  0  0  0  0  0  0  0  0  0
  1  2  1  0  0  0  0
  2  3  1  0  0  0  0
  2  4  1  0  0  0  0
  2  5  1  0  0  0  0
  5  6  2  0  0  0  0
  5  7  1  0  0  0  0
  7  8  1  0  0  0  0
  7  9  1  0  0  0  0
  9 10  1  0  0  0  0
  9 11  1  0  0  0  0
  9 18  1  0  0  0  0
 11 12  1  0  0  0  0
 11 13  1  0  0  0  0
 11 14  1  0  0  0  0
 14 15  2  0  0  0  0
 14 16  1  0  0  0  0
 16 17  1  0  0  0  0
 18 19  2  0  0  0  0
 18 20  1  0  0  0  0
 20 21  1  0  0  0  0
 20 22  1  0  0  0  0
 22 23  1  0  0  0  0
 22 24  1  0  0  0  0
 22 25  1  0  0  0  0
M  END
$$$$

  -OEChem-02102214113D

 25 24  0     1  0  0  0  0  0999 V2000
   -2.7307   -3.9784    0.4781 H   0  0  0  0  0  0  0  0  0  0  0  0
   -2.7716   -2.9343    0.1558 C   0  0  0  0  0  0  0  0  0  0  0  0
   -3.4071   -2.3761    0.8474 H   0  0  0  0  0  0  0  0  0  0  0  0
   -3.2074   -2.8918   -0.8454 H   0  0  0  0  0  0  0  0  0  0  0  0
   -1.3772   -2.3375    0.1357 C   0  0  0  0  0  0  0  0  0  0  0  0
   -0.4148   -3.0162    0.4603 O   0  0  0  0  0  0  0  0  0  0  0  0
   -1.2008   -1.0207   -0.2346 N   0  0  0  0  0  0  0  0  0  0  0  0
   -2.0360   -0.4612   -0.4025 H   0  0  0  0  0  0  0  0  0  0  0  0
    0.0940   -0.3263   -0.2684 C   0  0  1  0  0  0  0  0  0  0  0  0
    0.8293   -0.8735    0.3310 H   0  0  0  0  0  0  0  0  0  0  0  0
    0.6382   -0.2010   -1.7102 C   0  0  0  0  0  0  0  0  0  0  0  0
    1.2959    0.6690   -1.7911 H   0  0  0  0  0  0  0  0  0  0  0  0
    1.2426   -1.0866   -1.9266 H   0  0  0  0  0  0  0  0  0  0  0  0
   -0.4384   -0.1087   -2.7870 C   0  0  0  0  0  0  0  0  0  0  0  0
   -0.8559   -1.1360   -3.2969 O   0  0  0  0  0  0  0  0  0  0  0  0
   -0.8471    1.1273   -3.1537 O   0  0  0  0  0  0  0  0  0  0  0  0
   -1.5239    0.9992   -3.8345 H   0  0  0  0  0  0  0  0  0  0  0  0
   -0.0589    1.0664    0.3787 C   0  0  0  0  0  0  0  0  0  0  0  0
   -1.0622    1.7355    0.1615 O   0  0  0  0  0  0  0  0  0  0  0  0
    0.8820    1.5312    1.2793 N   0  0  0  0  0  0  0  0  0  0  0  0
    1.6692    0.9268    1.4968 H   0  0  0  0  0  0  0  0  0  0  0  0
    0.7534    2.8024    1.9822 C   0  0  0  0  0  0  0  0  0  0  0  0
   -0.1442    2.8041    2.6099 H   0  0  0  0  0  0  0  0  0  0  0  0
    1.6241    2.9711    2.6231 H   0  0  0  0  0  0  0  0  0  0  0  0
    0.6854    3.6299    1.2679 H   0  0  0  0  0  0  0  0  0  0  0  0
  1  2  1  0  0  0  0
  2  3  1  0  0  0  0
  2  4  1  0  0  0  0
  2  5  1  0  0  0  0
  5  6  2  0  0  0  0
  5  7  1  0  0  0  0
  7  8  1  0  0  0  0
  7  9  1  0  0  0  0
  9 10  1  0  0  0  0
  9 11  1  0  0  0  0
  9 18  1  0  0  0  0
 11 12  1  0  0  0  0
 11 13  1  0  0  0  0
 11 14  1  0  0  0  0
 14 15  2  0  0  0  0
 14 16  1  0  0  0  0
 16 17  1  0  0  0  0
 18 19  2  0  0  0  0
 18 20  1  0  0  0  0
 20 21  1  0  0  0  0
 20 22  1  0  0  0  0
 22 23  1  0  0  0  0
 22 24  1  0  0  0  0
 22 25  1  0  0  0  0
M  END
$$$$

  -OEChem-02102214113D

 25 24  0     1  0  0  0  0  0999 V2000
   -2.7272   -4.0003    0.4583 H   0  0  0  0  0  0  0  0  0  0  0  0
   -2.7682   -2.9560    0.1369 C   0  0  0  0  0  0  0  0  0  0  0  0
   -3.4368   -2.4065    0.8038 H   0  0  0  0  0  0  0  0  0  0  0  0
   -3.1648   -2.9157   -0.8808 H   0  0  0  0  0  0  0  0  0  0  0  0
   -1.3814   -2.3430    0.1725 C   0  0  0  0  0  0  0  0  0  0  0  0
   -0.4247   -3.0089    0.5389 O   0  0  0  0  0  0  0  0  0  0  0  0
   -1.2058   -1.0285   -0.2050 N   0  0  0  0  0  0  0  0  0  0  0  0
   -2.0364   -0.4928   -0.4519 H   0  0  0  0  0  0  0  0  0  0  0  0
    0.0885   -0.3357   -0.2525 C   0  0  1  0  0  0  0  0  0  0  0  0
    0.8299   -0.8813    0.3406 H   0  0  0  0  0  0  0  0  0  0  0  0
    0.6236   -0.1976   -1.6987 C   0  0  0  0  0  0  0  0  0  0  0  0
    1.2886    0.6679   -1.7705 H   0  0  0  0  0  0  0  0  0  0  0  0
    1.2227   -1.0840   -1.9247 H   0  0  0  0  0  0  0  0  0  0  0  0
   -0.4431   -0.0931   -2.7868 C   0  0  0  0  0  0  0  0  0  0  0  0
   -1.0615   -1.0907   -3.1238 O   0  0  0  0  0  0  0  0  0  0  0  0
   -0.6269    1.1232   -3.3494 O   0  0  0  0  0  0  0  0  0  0  0  0
   -1.3389    1.0164   -3.9975 H   0  0  0  0  0  0  0  0  0  0  0  0
   -0.0622    1.0589    0.3897 C   0  0  0  0  0  0  0  0  0  0  0  0
   -1.0461    1.7446    0.1381 O   0  0  0  0  0  0  0  0  0  0  0  0
    0.8836    1.5291    1.2823 N   0  0  0  0  0  0  0  0  0  0  0  0
    1.6588    0.9159    1.5173 H   0  0  0  0  0  0  0  0  0  0  0  0
    0.7708    2.8152    1.9602 C   0  0  0  0  0  0  0  0  0  0  0  0
   -0.1298    2.8426    2.5825 H   0  0  0  0  0  0  0  0  0  0  0  0
    1.6408    2.9824    2.6026 H   0  0  0  0  0  0  0  0  0  0  0  0
    0.7190    3.6300    1.2303 H   0  0  0  0  0  0  0  0  0  0  0  0
  1  2  1  0  0  0  0
  2  3  1  0  0  0  0
  2  4  1  0  0  0  0
  2  5  1  0  0  0  0
  5  6  2  0  0  0  0
  5  7  1  0  0  0  0
  7  8  1  0  0  0  0
  7  9  1  0  0  0  0
  9 10  1  0  0  0  0
  9 11  1  0  0  0  0
  9 18  1  0  0  0  0
 11 12  1  0  0  0  0
 11 13  1  0  0  0  0
 11 14  1  0  0  0  0
 14 15  2  0  0  0  0
 14 16  1  0  0  0  0
 16 17  1  0  0  0  0
 18 19  2  0  0  0  0
 18 20  1  0  0  0  0
 20 21  1  0  0  0  0
 20 22  1  0  0  0  0
 22 23  1  0  0  0  0
 22 24  1  0  0  0  0
 22 25  1  0  0  0  0
M  END
$$$$

  -OEChem-02102214113D

 25 24  0     1  0  0  0  0  0999 V2000
   -2.7185   -4.0338    0.4511 H   0  0  0  0  0  0  0  0  0  0  0  0
   -2.7653   -2.9886    0.1330 C   0  0  0  0  0  0  0  0  0  0  0  0
   -3.4627   -2.4525    0.7808 H   0  0  0  0  0  0  0  0  0  0  0  0
   -3.1307   -2.9496   -0.8964 H   0  0  0  0  0  0  0  0  0  0  0  0
   -1.3901   -2.3536    0.2145 C   0  0  0  0  0  0  0  0  0  0  0  0
   -0.4366   -3.0035    0.6169 O   0  0  0  0  0  0  0  0  0  0  0  0
   -1.2201   -1.0402   -0.1690 N   0  0  0  0  0  0  0  0  0  0  0  0
   -2.0405   -0.5394   -0.5065 H   0  0  0  0  0  0  0  0  0  0  0  0
    0.0727   -0.3472   -0.2345 C   0  0  1  0  0  0  0  0  0  0  0  0
    0.8222   -0.8914    0.3495 H   0  0  0  0  0  0  0  0  0  0  0  0
    0.5990   -0.1906   -1.6851 C   0  0  0  0  0  0  0  0  0  0  0  0
    1.2689    0.6725   -1.7413 H   0  0  0  0  0  0  0  0  0  0  0  0
    1.1973   -1.0750   -1.9198 H   0  0  0  0  0  0  0  0  0  0  0  0
   -0.4476   -0.0701   -2.7952 C   0  0  0  0  0  0  0  0  0  0  0  0
   -1.2557   -0.9658   -2.9865 O   0  0  0  0  0  0  0  0  0  0  0  0
   -0.3997    1.0568   -3.5426 O   0  0  0  0  0  0  0  0  0  0  0  0
   -1.1301    0.9902   -4.1758 H   0  0  0  0  0  0  0  0  0  0  0  0
   -0.0733    1.0486    0.4060 C   0  0  0  0  0  0  0  0  0  0  0  0
   -1.0362    1.7524    0.1248 O   0  0  0  0  0  0  0  0  0  0  0  0
    0.8813    1.5233    1.2868 N   0  0  0  0  0  0  0  0  0  0  0  0
    1.6451    0.9018    1.5370 H   0  0  0  0  0  0  0  0  0  0  0  0
    0.7939    2.8285    1.9307 C   0  0  0  0  0  0  0  0  0  0  0  0
   -0.1094    2.8929    2.5466 H   0  0  0  0  0  0  0  0  0  0  0  0
    1.6635    2.9922    2.5742 H   0  0  0  0  0  0  0  0  0  0  0  0
    0.7662    3.6250    1.1796 H   0  0  0  0  0  0  0  0  0  0  0  0
  1  2  1  0  0  0  0
  2  3  1  0  0  0  0
  2  4  1  0  0  0  0
  2  5  1  0  0  0  0
  5  6  2  0  0  0  0
  5  7  1  0  0  0  0
  7  8  1  0  0  0  0
  7  9  1  0  0  0  0
  9 10  1  0  0  0  0
  9 11  1  0  0  0  0
  9 18  1  0  0  0  0
 11 12  1  0  0  0  0
 11 13  1  0  0  0  0
 11 14  1  0  0  0  0
 14 15  2  0  0  0  0
 14 16  1  0  0  0  0
 16 17  1  0  0  0  0
 18 19  2  0  0  0  0
 18 20  1  0  0  0  0
 20 21  1  0  0  0  0
 20 22  1  0  0  0  0
 22 23  1  0  0  0  0
 22 24  1  0  0  0  0
 22 25  1  0  0  0  0
M  END
$$$$

  -OEChem-02102214113D

 25 24  0     1  0  0  0  0  0999 V2000
   -2.7049   -4.0570    0.4546 H   0  0  0  0  0  0  0  0  0  0  0  0
   -2.7608   -3.0112    0.1405 C   0  0  0  0  0  0  0  0  0  0  0  0
   -3.4775   -2.4880    0.7778 H   0  0  0  0  0  0  0  0  0  0  0  0
   -3.1077   -2.9719   -0.8952 H   0  0  0  0  0  0  0  0  0  0  0  0
   -1.3970   -2.3573    0.2514 C   0  0  0  0  0  0  0  0  0  0  0  0
   -0.4447   -2.9924    0.6792 O   0  0  0  0  0  0  0  0  0  0  0  0
   -1.2352   -1.0450   -0.1385 N   0  0  0  0  0  0  0  0  0  0  0  0
   -2.0422   -0.5810   -0.5534 H   0  0  0  0  0  0  0  0  0  0  0  0
    0.0562   -0.3522   -0.2225 C   0  0  1  0  0  0  0  0  0  0  0  0
    0.8135   -0.8950    0.3526 H   0  0  0  0  0  0  0  0  0  0  0  0
    0.5705   -0.1854   -1.6790 C   0  0  0  0  0  0  0  0  0  0  0  0
    1.2437    0.6759   -1.7261 H   0  0  0  0  0  0  0  0  0  0  0  0
    1.1685   -1.0687   -1.9178 H   0  0  0  0  0  0  0  0  0  0  0  0
   -0.4571   -0.0540   -2.8101 C   0  0  0  0  0  0  0  0  0  0  0  0
   -1.4323   -0.7864   -2.8760 O   0  0  0  0  0  0  0  0  0  0  0  0
   -0.1905    0.9019   -3.7301 O   0  0  0  0  0  0  0  0  0  0  0  0
   -0.9257    0.8783   -4.3610 H   0  0  0  0  0  0  0  0  0  0  0  0
   -0.0818    1.0456    0.4161 C   0  0  0  0  0  0  0  0  0  0  0  0
   -1.0288    1.7642    0.1189 O   0  0  0  0  0  0  0  0  0  0  0  0
    0.8848    1.5212    1.2834 N   0  0  0  0  0  0  0  0  0  0  0  0
    1.6347    0.8889    1.5483 H   0  0  0  0  0  0  0  0  0  0  0  0
    0.8128    2.8333    1.9153 C   0  0  0  0  0  0  0  0  0  0  0  0
   -0.0919    2.9149    2.5271 H   0  0  0  0  0  0  0  0  0  0  0  0
    1.6822    2.9916    2.5607 H   0  0  0  0  0  0  0  0  0  0  0  0
    0.7977    3.6234    1.1569 H   0  0  0  0  0  0  0  0  0  0  0  0
  1  2  1  0  0  0  0
  2  3  1  0  0  0  0
  2  4  1  0  0  0  0
  2  5  1  0  0  0  0
  5  6  2  0  0  0  0
  5  7  1  0  0  0  0
  7  8  1  0  0  0  0
  7  9  1  0  0  0  0
  9 10  1  0  0  0  0
  9 11  1  0  0  0  0
  9 18  1  0  0  0  0
 11 12  1  0  0  0  0
 11 13  1  0  0  0  0
 11 14  1  0  0  0  0
 14 15  2  0  0  0  0
 14 16  1  0  0  0  0
 16 17  1  0  0  0  0
 18 19  2  0  0  0  0
 18 20  1  0  0  0  0
 20 21  1  0  0  0  0
 20 22  1  0  0  0  0
 22 23  1  0  0  0  0
 22 24  1  0  0  0  0
 22 25  1  0  0  0  0
M  END
$$$$

  -OEChem-02102214113D

 25 24  0     1  0  0  0  0  0999 V2000
   -2.6975   -4.0654    0.4622 H   0  0  0  0  0  0  0  0  0  0  0  0
   -2.7592   -3.0191    0.1511 C   0  0  0  0  0  0  0  0  0  0  0  0
   -3.4813   -2.5026    0.7878 H   0  0  0  0  0  0  0  0  0  0  0  0
   -3.1034   -2.9784   -0.8853 H   0  0  0  0  0  0  0  0  0  0  0  0
   -1.3999   -2.3568    0.2681 C   0  0  0  0  0  0  0  0  0  0  0  0
   -0.4454   -2.9859    0.7001 O   0  0  0  0  0  0  0  0  0  0  0  0
   -1.2443   -1.0446   -0.1237 N   0  0  0  0  0  0  0  0  0  0  0  0
   -2.0451   -0.5970   -0.5698 H   0  0  0  0  0  0  0  0  0  0  0  0
    0.0442   -0.3491   -0.2188 C   0  0  1  0  0  0  0  0  0  0  0  0
    0.8067   -0.8900    0.3515 H   0  0  0  0  0  0  0  0  0  0  0  0
    0.5512   -0.1825   -1.6793 C   0  0  0  0  0  0  0  0  0  0  0  0
    1.2222    0.6805   -1.7249 H   0  0  0  0  0  0  0  0  0  0  0  0
    1.1529   -1.0641   -1.9145 H   0  0  0  0  0  0  0  0  0  0  0  0
   -0.4610   -0.0524   -2.8273 C   0  0  0  0  0  0  0  0  0  0  0  0
   -1.5633   -0.5769   -2.7889 O   0  0  0  0  0  0  0  0  0  0  0  0
   -0.0266    0.6639   -3.8900 O   0  0  0  0  0  0  0  0  0  0  0  0
   -0.7619    0.6754   -4.5215 H   0  0  0  0  0  0  0  0  0  0  0  0
   -0.0887    1.0492    0.4201 C   0  0  0  0  0  0  0  0  0  0  0  0
   -1.0289    1.7760    0.1224 O   0  0  0  0  0  0  0  0  0  0  0  0
    0.8878    1.5219    1.2779 N   0  0  0  0  0  0  0  0  0  0  0  0
    1.6294    0.8816    1.5463 H   0  0  0  0  0  0  0  0  0  0  0  0
    0.8235    2.8317    1.9154 C   0  0  0  0  0  0  0  0  0  0  0  0
   -0.0796    2.9158    2.5291 H   0  0  0  0  0  0  0  0  0  0  0  0
    1.6949    2.9819    2.5600 H   0  0  0  0  0  0  0  0  0  0  0  0
    0.8116    3.6250    1.1604 H   0  0  0  0  0  0  0  0  0  0  0  0
  1  2  1  0  0  0  0
  2  3  1  0  0  0  0
  2  4  1  0  0  0  0
  2  5  1  0  0  0  0
  5  6  2  0  0  0  0
  5  7  1  0  0  0  0
  7  8  1  0  0  0  0
  7  9  1  0  0  0  0
  9 10  1  0  0  0  0
  9 11  1  0  0  0  0
  9 18  1  0  0  0  0
 11 12  1  0  0  0  0
 11 13  1  0  0  0  0
 11 14  1  0  0  0  0
 14 15  2  0  0  0  0
 14 16  1  0  0  0  0
 16 17  1  0  0  0  0
 18 19  2  0  0  0  0
 18 20  1  0  0  0  0
 20 21  1  0  0  0  0
 20 22  1  0  0  0  0
 22 23  1  0  0  0  0
 22 24  1  0  0  0  0
 22 25  1  0  0  0  0
M  END
$$$$

  -OEChem-02102214113D

 25 24  0     1  0  0  0  0  0999 V2000
   -2.7033   -4.0694    0.4661 H   0  0  0  0  0  0  0  0  0  0  0  0
   -2.7655   -3.0210    0.1615 C   0  0  0  0  0  0  0  0  0  0  0  0
   -3.4759   -2.5053    0.8122 H   0  0  0  0  0  0  0  0  0  0  0  0
   -3.1258   -2.9732   -0.8692 H   0  0  0  0  0  0  0  0  0  0  0  0
   -1.4018   -2.3645    0.2620 C   0  0  0  0  0  0  0  0  0  0  0  0
   -0.4438   -3.0002    0.6757 O   0  0  0  0  0  0  0  0  0  0  0  0
   -1.2463   -1.0509   -0.1251 N   0  0  0  0  0  0  0  0  0  0  0  0
   -2.0510   -0.5944   -0.5562 H   0  0  0  0  0  0  0  0  0  0  0  0
    0.0393   -0.3495   -0.2177 C   0  0  1  0  0  0  0  0  0  0  0  0
    0.8020   -0.8906    0.3520 H   0  0  0  0  0  0  0  0  0  0  0  0
    0.5473   -0.1812   -1.6776 C   0  0  0  0  0  0  0  0  0  0  0  0
    1.2144    0.6846   -1.7230 H   0  0  0  0  0  0  0  0  0  0  0  0
    1.1538   -1.0610   -1.9077 H   0  0  0  0  0  0  0  0  0  0  0  0
   -0.4547   -0.0551   -2.8353 C   0  0  0  0  0  0  0  0  0  0  0  0
   -1.6362   -0.3416   -2.7203 O   0  0  0  0  0  0  0  0  0  0  0  0
    0.0820    0.3862   -3.9963 O   0  0  0  0  0  0  0  0  0  0  0  0
   -0.6532    0.4331   -4.6264 H   0  0  0  0  0  0  0  0  0  0  0  0
   -0.0931    1.0478    0.4240 C   0  0  0  0  0  0  0  0  0  0  0  0
   -1.0340    1.7754    0.1318 O   0  0  0  0  0  0  0  0  0  0  0  0
    0.8845    1.5196    1.2811 N   0  0  0  0  0  0  0  0  0  0  0  0
    1.6329    0.8832    1.5398 H   0  0  0  0  0  0  0  0  0  0  0  0
    0.8266    2.8329    1.9118 C   0  0  0  0  0  0  0  0  0  0  0  0
   -0.0773    2.9245    2.5233 H   0  0  0  0  0  0  0  0  0  0  0  0
    1.6976    2.9822    2.5573 H   0  0  0  0  0  0  0  0  0  0  0  0
    0.8196    3.6221    1.1526 H   0  0  0  0  0  0  0  0  0  0  0  0
  1  2  1  0  0  0  0
  2  3  1  0  0  0  0
  2  4  1  0  0  0  0
  2  5  1  0  0  0  0
  5  6  2  0  0  0  0
  5  7  1  0  0  0  0
  7  8  1  0  0  0  0
  7  9  1  0  0  0  0
  9 10  1  0  0  0  0
  9 11  1  0  0  0  0
  9 18  1  0  0  0  0
 11 12  1  0  0  0  0
 11 13  1  0  0  0  0
 11 14  1  0  0  0  0
 14 15  2  0  0  0  0
 14 16  1  0  0  0  0
 16 17  1  0  0  0  0
 18 19  2  0  0  0  0
 18 20  1  0  0  0  0
 20 21  1  0  0  0  0
 20 22  1  0  0  0  0
 22 23  1  0  0  0  0
 22 24  1  0  0  0  0
 22 25  1  0  0  0  0
M  END
$$$$

  -OEChem-02102214113D

 25 24  0     1  0  0  0  0  0999 V2000
   -2.7073   -4.0560    0.4637 H   0  0  0  0  0  0  0  0  0  0  0  0
   -2.7674   -3.0075    0.1594 C   0  0  0  0  0  0  0  0  0  0  0  0
   -3.4675   -2.4875    0.8177 H   0  0  0  0  0  0  0  0  0  0  0  0
   -3.1385   -2.9581   -0.8673 H   0  0  0  0  0  0  0  0  0  0  0  0
   -1.3995   -2.3579    0.2445 C   0  0  0  0  0  0  0  0  0  0  0  0
   -0.4372   -3.0008    0.6365 O   0  0  0  0  0  0  0  0  0  0  0  0
   -1.2428   -1.0434   -0.1379 N   0  0  0  0  0  0  0  0  0  0  0  0
   -2.0540   -0.5707   -0.5394 H   0  0  0  0  0  0  0  0  0  0  0  0
    0.0403   -0.3367   -0.2225 C   0  0  1  0  0  0  0  0  0  0  0  0
    0.7995   -0.8768    0.3527 H   0  0  0  0  0  0  0  0  0  0  0  0
    0.5519   -0.1872   -1.6816 C   0  0  0  0  0  0  0  0  0  0  0  0
    1.2158    0.6800   -1.7410 H   0  0  0  0  0  0  0  0  0  0  0  0
    1.1605   -1.0695   -1.8962 H   0  0  0  0  0  0  0  0  0  0  0  0
   -0.4514   -0.0830   -2.8398 C   0  0  0  0  0  0  0  0  0  0  0  0
   -1.6603   -0.1119   -2.6687 O   0  0  0  0  0  0  0  0  0  0  0  0
    0.1127    0.0452   -4.0630 O   0  0  0  0  0  0  0  0  0  0  0  0
   -0.6248    0.1187   -4.6879 H   0  0  0  0  0  0  0  0  0  0  0  0
   -0.0890    1.0611    0.4192 C   0  0  0  0  0  0  0  0  0  0  0  0
   -1.0361    1.7865    0.1434 O   0  0  0  0  0  0  0  0  0  0  0  0
    0.8899    1.5277    1.2779 N   0  0  0  0  0  0  0  0  0  0  0  0
    1.6370    0.8884    1.5333 H   0  0  0  0  0  0  0  0  0  0  0  0
    0.8234    2.8296    1.9314 C   0  0  0  0  0  0  0  0  0  0  0  0
   -0.0737    2.8999    2.5556 H   0  0  0  0  0  0  0  0  0  0  0  0
    1.7005    2.9788    2.5683 H   0  0  0  0  0  0  0  0  0  0  0  0
    0.7975    3.6317    1.1862 H   0  0  0  0  0  0  0  0  0  0  0  0
  1  2  1  0  0  0  0
  2  3  1  0  0  0  0
  2  4  1  0  0  0  0
  2  5  1  0  0  0  0
  5  6  2  0  0  0  0
  5  7  1  0  0  0  0
  7  8  1  0  0  0  0
  7  9  1  0  0  0  0
  9 10  1  0  0  0  0
  9 11  1  0  0  0  0
  9 18  1  0  0  0  0
 11 12  1  0  0  0  0
 11 13  1  0  0  0  0
 11 14  1  0  0  0  0
 14 15  2  0  0  0  0
 14 16  1  0  0  0  0
 16 17  1  0  0  0  0
 18 19  2  0  0  0  0
 18 20  1  0  0  0  0
 20 21  1  0  0  0  0
 20 22  1  0  0  0  0
 22 23  1  0  0  0  0
 22 24  1  0  0  0  0
 22 25  1  0  0  0  0
M  END
$$$$

  -OEChem-02102214113D

 25 24  0     1  0  0  0  0  0999 V2000
   -2.7182   -4.0402    0.4638 H   0  0  0  0  0  0  0  0  0  0  0  0
   -2.7739   -2.9916    0.1588 C   0  0  0  0  0  0  0  0  0  0  0  0
   -3.4523   -2.4630    0.8330 H   0  0  0  0  0  0  0  0  0  0  0  0
   -3.1697   -2.9398   -0.8586 H   0  0  0  0  0  0  0  0  0  0  0  0
   -1.3970   -2.3574    0.2104 C   0  0  0  0  0  0  0  0  0  0  0  0
   -0.4316   -3.0130    0.5718 O   0  0  0  0  0  0  0  0  0  0  0  0
   -1.2366   -1.0408   -0.1636 N   0  0  0  0  0  0  0  0  0  0  0  0
   -2.0565   -0.5436   -0.5150 H   0  0  0  0  0  0  0  0  0  0  0  0
    0.0445   -0.3274   -0.2294 C   0  0  1  0  0  0  0  0  0  0  0  0
    0.7959   -0.8679    0.3559 H   0  0  0  0  0  0  0  0  0  0  0  0
    0.5707   -0.1929   -1.6828 C   0  0  0  0  0  0  0  0  0  0  0  0
    1.2304    0.6765   -1.7526 H   0  0  0  0  0  0  0  0  0  0  0  0
    1.1830   -1.0767   -1.8816 H   0  0  0  0  0  0  0  0  0  0  0  0
   -0.4386   -0.1103   -2.8352 C   0  0  0  0  0  0  0  0  0  0  0  0
   -1.6218    0.1225   -2.6441 O   0  0  0  0  0  0  0  0  0  0  0  0
    0.0837   -0.2957   -4.0695 O   0  0  0  0  0  0  0  0  0  0  0  0
   -0.6570   -0.1965   -4.6870 H   0  0  0  0  0  0  0  0  0  0  0  0
   -0.0870    1.0699    0.4145 C   0  0  0  0  0  0  0  0  0  0  0  0
   -1.0471    1.7862    0.1622 O   0  0  0  0  0  0  0  0  0  0  0  0
    0.8862    1.5315    1.2825 N   0  0  0  0  0  0  0  0  0  0  0  0
    1.6426    0.8979    1.5242 H   0  0  0  0  0  0  0  0  0  0  0  0
    0.8148    2.8290    1.9443 C   0  0  0  0  0  0  0  0  0  0  0  0
   -0.0728    2.8847    2.5832 H   0  0  0  0  0  0  0  0  0  0  0  0
    1.7007    2.9856    2.5675 H   0  0  0  0  0  0  0  0  0  0  0  0
    0.7671    3.6348    1.2039 H   0  0  0  0  0  0  0  0  0  0  0  0
  1  2  1  0  0  0  0
  2  3  1  0  0  0  0
  2  4  1  0  0  0  0
  2  5  1  0  0  0  0
  5  6  2  0  0  0  0
  5  7  1  0  0  0  0
  7  8  1  0  0  0  0
  7  9  1  0  0  0  0
  9 10  1  0  0  0  0
  9 11  1  0  0  0  0
  9 18  1  0  0  0  0
 11 12  1  0  0  0  0
 11 13  1  0  0  0  0
 11 14  1  0  0  0  0
 14 15  2  0  0  0  0
 14 16  1  0  0  0  0
 16 17  1  0  0  0  0
 18 19  2  0  0  0  0
 18 20  1  0  0  0  0
 20 21  1  0  0  0  0
 20 22  1  0  0  0  0
 22 23  1  0  0  0  0
 22 24  1  0  0  0  0
 22 25  1  0  0  0  0
M  END
$$$$

  -OEChem-02102214113D

 25 24  0     1  0  0  0  0  0999 V2000
   -2.7234   -4.0161    0.4698 H   0  0  0  0  0  0  0  0  0  0  0  0
   -2.7772   -2.9675    0.1639 C   0  0  0  0  0  0  0  0  0  0  0  0
   -3.4304   -2.4307    0.8560 H   0  0  0  0  0  0  0  0  0  0  0  0
   -3.2020   -2.9141   -0.8414 H   0  0  0  0  0  0  0  0  0  0  0  0
   -1.3928   -2.3475    0.1738 C   0  0  0  0  0  0  0  0  0  0  0  0
   -0.4236   -3.0146    0.5021 O   0  0  0  0  0  0  0  0  0  0  0  0
   -1.2294   -1.0298   -0.1955 N   0  0  0  0  0  0  0  0  0  0  0  0
   -2.0592   -0.5056   -0.4769 H   0  0  0  0  0  0  0  0  0  0  0  0
    0.0515   -0.3136   -0.2451 C   0  0  1  0  0  0  0  0  0  0  0  0
    0.7932   -0.8539    0.3529 H   0  0  0  0  0  0  0  0  0  0  0  0
    0.5959   -0.2031   -1.6915 C   0  0  0  0  0  0  0  0  0  0  0  0
    1.2498    0.6690   -1.7757 H   0  0  0  0  0  0  0  0  0  0  0  0
    1.2130   -1.0877   -1.8714 H   0  0  0  0  0  0  0  0  0  0  0  0
   -0.4235   -0.1459   -2.8333 C   0  0  0  0  0  0  0  0  0  0  0  0
   -1.5288    0.3434   -2.6673 O   0  0  0  0  0  0  0  0  0  0  0  0
   -0.0065   -0.6400   -4.0224 O   0  0  0  0  0  0  0  0  0  0  0  0
   -0.7463   -0.5126   -4.6358 H   0  0  0  0  0  0  0  0  0  0  0  0
   -0.0815    1.0840    0.3986 C   0  0  0  0  0  0  0  0  0  0  0  0
   -1.0638    1.7820    0.1845 O   0  0  0  0  0  0  0  0  0  0  0  0
    0.8865    1.5405    1.2752 N   0  0  0  0  0  0  0  0  0  0  0  0
    1.6566    0.9159    1.4961 H   0  0  0  0  0  0  0  0  0  0  0  0
    0.7965    2.8209    1.9674 C   0  0  0  0  0  0  0  0  0  0  0  0
   -0.0906    2.8479    2.6090 H   0  0  0  0  0  0  0  0  0  0  0  0
    1.6809    2.9767    2.5925 H   0  0  0  0  0  0  0  0  0  0  0  0
    0.7347    3.6429    1.2463 H   0  0  0  0  0  0  0  0  0  0  0  0
  1  2  1  0  0  0  0
  2  3  1  0  0  0  0
  2  4  1  0  0  0  0
  2  5  1  0  0  0  0
  5  6  2  0  0  0  0
  5  7  1  0  0  0  0
  7  8  1  0  0  0  0
  7  9  1  0  0  0  0
  9 10  1  0  0  0  0
  9 11  1  0  0  0  0
  9 18  1  0  0  0  0
 11 12  1  0  0  0  0
 11 13  1  0  0  0  0
 11 14  1  0  0  0  0
 14 15  2  0  0  0  0
 14 16  1  0  0  0  0
 16 17  1  0  0  0  0
 18 19  2  0  0  0  0
 18 20  1  0  0  0  0
 20 21  1  0  0  0  0
 20 22  1  0  0  0  0
 22 23  1  0  0  0  0
 22 24  1  0  0  0  0
 22 25  1  0  0  0  0
M  END
$$$$

  -OEChem-02102214113D

 25 24  0     1  0  0  0  0  0999 V2000
   -2.7272   -3.9882    0.4805 H   0  0  0  0  0  0  0  0  0  0  0  0
   -2.7781   -2.9401    0.1726 C   0  0  0  0  0  0  0  0  0  0  0  0
   -3.4050   -2.3938    0.8815 H   0  0  0  0  0  0  0  0  0  0  0  0
   -3.2310   -2.8851   -0.8203 H   0  0  0  0  0  0  0  0  0  0  0  0
   -1.3869   -2.3362    0.1402 C   0  0  0  0  0  0  0  0  0  0  0  0
   -0.4160   -3.0151    0.4377 O   0  0  0  0  0  0  0  0  0  0  0  0
   -1.2200   -1.0183   -0.2279 N   0  0  0  0  0  0  0  0  0  0  0  0
   -2.0556   -0.4703   -0.4365 H   0  0  0  0  0  0  0  0  0  0  0  0
    0.0632   -0.3044   -0.2635 C   0  0  1  0  0  0  0  0  0  0  0  0
    0.7943   -0.8443    0.3475 H   0  0  0  0  0  0  0  0  0  0  0  0
    0.6244   -0.2153   -1.7025 C   0  0  0  0  0  0  0  0  0  0  0  0
    1.2759    0.6573   -1.7985 H   0  0  0  0  0  0  0  0  0  0  0  0
    1.2429   -1.1019   -1.8690 H   0  0  0  0  0  0  0  0  0  0  0  0
   -0.4077   -0.1746   -2.8295 C   0  0  0  0  0  0  0  0  0  0  0  0
   -1.3853    0.5479   -2.7377 O   0  0  0  0  0  0  0  0  0  0  0  0
   -0.1569   -0.9477   -3.9117 O   0  0  0  0  0  0  0  0  0  0  0  0
   -0.8902   -0.7891   -4.5252 H   0  0  0  0  0  0  0  0  0  0  0  0
   -0.0749    1.0935    0.3788 C   0  0  0  0  0  0  0  0  0  0  0  0
   -1.0796    1.7687    0.1973 O   0  0  0  0  0  0  0  0  0  0  0  0
    0.8847    1.5479    1.2656 N   0  0  0  0  0  0  0  0  0  0  0  0
    1.6730    0.9385    1.4632 H   0  0  0  0  0  0  0  0  0  0  0  0
    0.7710    2.8097    1.9880 C   0  0  0  0  0  0  0  0  0  0  0  0
   -0.1197    2.8077    2.6253 H   0  0  0  0  0  0  0  0  0  0  0  0
    1.6494    2.9637    2.6219 H   0  0  0  0  0  0  0  0  0  0  0  0
    0.6999    3.6479    1.2866 H   0  0  0  0  0  0  0  0  0  0  0  0
  1  2  1  0  0  0  0
  2  3  1  0  0  0  0
  2  4  1  0  0  0  0
  2  5  1  0  0  0  0
  5  6  2  0  0  0  0
  5  7  1  0  0  0  0
  7  8  1  0  0  0  0
  7  9  1  0  0  0  0
  9 10  1  0  0  0  0
  9 11  1  0  0  0  0
  9 18  1  0  0  0  0
 11 12  1  0  0  0  0
 11 13  1  0  0  0  0
 11 14  1  0  0  0  0
 14 15  2  0  0  0  0
 14 16  1  0  0  0  0
 16 17  1  0  0  0  0
 18 19  2  0  0  0  0
 18 20  1  0  0  0  0
 20 21  1  0  0  0  0
 20 22  1  0  0  0  0
 22 23  1  0  0  0  0
 22 24  1  0  0  0  0
 22 25  1  0  0  0  0
M  END
$$$$

  -OEChem-02102214113D

 25 24  0     1  0  0  0  0  0999 V2000
   -2.7330   -3.9663    0.5037 H   0  0  0  0  0  0  0  0  0  0  0  0
   -2.7788   -2.9203    0.1880 C   0  0  0  0  0  0  0  0  0  0  0  0
   -3.3811   -2.3604    0.9075 H   0  0  0  0  0  0  0  0  0  0  0  0
   -3.2549   -2.8682   -0.7941 H   0  0  0  0  0  0  0  0  0  0  0  0
   -1.3818   -2.3338    0.1163 C   0  0  0  0  0  0  0  0  0  0  0  0
   -0.4114   -3.0231    0.3906 O   0  0  0  0  0  0  0  0  0  0  0  0
   -1.2109   -1.0164   -0.2525 N   0  0  0  0  0  0  0  0  0  0  0  0
   -2.0479   -0.4506   -0.3973 H   0  0  0  0  0  0  0  0  0  0  0  0
    0.0764   -0.3086   -0.2771 C   0  0  1  0  0  0  0  0  0  0  0  0
    0.8001   -0.8497    0.3418 H   0  0  0  0  0  0  0  0  0  0  0  0
    0.6499   -0.2251   -1.7103 C   0  0  0  0  0  0  0  0  0  0  0  0
    1.3019    0.6472   -1.8063 H   0  0  0  0  0  0  0  0  0  0  0  0
    1.2671   -1.1125   -1.8765 H   0  0  0  0  0  0  0  0  0  0  0  0
   -0.3911   -0.1828   -2.8262 C   0  0  0  0  0  0  0  0  0  0  0  0
   -1.2003    0.7275   -2.8532 O   0  0  0  0  0  0  0  0  0  0  0  0
   -0.3502   -1.1687   -3.7528 O   0  0  0  0  0  0  0  0  0  0  0  0
   -1.0659   -0.9747   -4.3768 H   0  0  0  0  0  0  0  0  0  0  0  0
   -0.0702    1.0889    0.3642 C   0  0  0  0  0  0  0  0  0  0  0  0
   -1.0891    1.7462    0.1949 O   0  0  0  0  0  0  0  0  0  0  0  0
    0.8778    1.5460    1.2623 N   0  0  0  0  0  0  0  0  0  0  0  0
    1.6738    0.9460    1.4577 H   0  0  0  0  0  0  0  0  0  0  0  0
    0.7458    2.8020    1.9918 C   0  0  0  0  0  0  0  0  0  0  0  0
   -0.1440    2.7827    2.6298 H   0  0  0  0  0  0  0  0  0  0  0  0
    1.6225    2.9667    2.6255 H   0  0  0  0  0  0  0  0  0  0  0  0
    0.6605    3.6426    1.2950 H   0  0  0  0  0  0  0  0  0  0  0  0
  1  2  1  0  0  0  0
  2  3  1  0  0  0  0
  2  4  1  0  0  0  0
  2  5  1  0  0  0  0
  5  6  2  0  0  0  0
  5  7  1  0  0  0  0
  7  8  1  0  0  0  0
  7  9  1  0  0  0  0
  9 10  1  0  0  0  0
  9 11  1  0  0  0  0
  9 18  1  0  0  0  0
 11 12  1  0  0  0  0
 11 13  1  0  0  0  0
 11 14  1  0  0  0  0
 14 15  2  0  0  0  0
 14 16  1  0  0  0  0
 16 17  1  0  0  0  0
 18 19  2  0  0  0  0
 18 20  1  0  0  0  0
 20 21  1  0  0  0  0
 20 22  1  0  0  0  0
 22 23  1  0  0  0  0
 22 24  1  0  0  0  0
 22 25  1  0  0  0  0
M  END
$$$$

  -OEChem-02102214113D

 25 24  0     1  0  0  0  0  0999 V2000
   -2.7331   -3.9579    0.5230 H   0  0  0  0  0  0  0  0  0  0  0  0
   -2.7772   -2.9139    0.2006 C   0  0  0  0  0  0  0  0  0  0  0  0
   -3.3722   -2.3470    0.9208 H   0  0  0  0  0  0  0  0  0  0  0  0
   -3.2604   -2.8668   -0.7782 H   0  0  0  0  0  0  0  0  0  0  0  0
   -1.3784   -2.3338    0.1140 C   0  0  0  0  0  0  0  0  0  0  0  0
   -0.4096   -3.0252    0.3886 O   0  0  0  0  0  0  0  0  0  0  0  0
   -1.2046   -1.0182   -0.2609 N   0  0  0  0  0  0  0  0  0  0  0  0
   -2.0405   -0.4450   -0.3785 H   0  0  0  0  0  0  0  0  0  0  0  0
    0.0867   -0.3174   -0.2821 C   0  0  1  0  0  0  0  0  0  0  0  0
    0.8079   -0.8577    0.3402 H   0  0  0  0  0  0  0  0  0  0  0  0
    0.6630   -0.2326   -1.7132 C   0  0  0  0  0  0  0  0  0  0  0  0
    1.3195    0.6370   -1.8064 H   0  0  0  0  0  0  0  0  0  0  0  0
    1.2748   -1.1222   -1.8862 H   0  0  0  0  0  0  0  0  0  0  0  0
   -0.3858   -0.1811   -2.8195 C   0  0  0  0  0  0  0  0  0  0  0  0
   -0.9986    0.8565   -2.9977 O   0  0  0  0  0  0  0  0  0  0  0  0
   -0.5759   -1.2968   -3.5629 O   0  0  0  0  0  0  0  0  0  0  0  0
   -1.2610   -1.0693   -4.2093 H   0  0  0  0  0  0  0  0  0  0  0  0
   -0.0666    1.0811    0.3538 C   0  0  0  0  0  0  0  0  0  0  0  0
   -1.0889    1.7314    0.1761 O   0  0  0  0  0  0  0  0  0  0  0  0
    0.8728    1.5427    1.2581 N   0  0  0  0  0  0  0  0  0  0  0  0
    1.6715    0.9475    1.4572 H   0  0  0  0  0  0  0  0  0  0  0  0
    0.7289    2.7972    1.9878 C   0  0  0  0  0  0  0  0  0  0  0  0
   -0.1602    2.7685    2.6266 H   0  0  0  0  0  0  0  0  0  0  0  0
    1.6047    2.9705    2.6205 H   0  0  0  0  0  0  0  0  0  0  0  0
    0.6353    3.6373    1.2913 H   0  0  0  0  0  0  0  0  0  0  0  0
  1  2  1  0  0  0  0
  2  3  1  0  0  0  0
  2  4  1  0  0  0  0
  2  5  1  0  0  0  0
  5  6  2  0  0  0  0
  5  7  1  0  0  0  0
  7  8  1  0  0  0  0
  7  9  1  0  0  0  0
  9 10  1  0  0  0  0
  9 11  1  0  0  0  0
  9 18  1  0  0  0  0
 11 12  1  0  0  0  0
 11 13  1  0  0  0  0
 11 14  1  0  0  0  0
 14 15  2  0  0  0  0
 14 16  1  0  0  0  0
 16 17  1  0  0  0  0
 18 19  2  0  0  0  0
 18 20  1  0  0  0  0
 20 21  1  0  0  0  0
 20 22  1  0  0  0  0
 22 23  1  0  0  0  0
 22 24  1  0  0  0  0
 22 25  1  0  0  0  0
M  END
$$$$

  -OEChem-02102214113D

 25 24  0     1  0  0  0  0  0999 V2000
   -2.7265   -3.9727    0.5246 H   0  0  0  0  0  0  0  0  0  0  0  0
   -2.7725   -2.9297    0.1992 C   0  0  0  0  0  0  0  0  0  0  0  0
   -3.3844   -2.3657    0.9072 H   0  0  0  0  0  0  0  0  0  0  0  0
   -3.2383   -2.8886   -0.7884 H   0  0  0  0  0  0  0  0  0  0  0  0
   -1.3763   -2.3406    0.1355 C   0  0  0  0  0  0  0  0  0  0  0  0
   -0.4085   -3.0256    0.4291 O   0  0  0  0  0  0  0  0  0  0  0  0
   -1.2035   -1.0261   -0.2444 N   0  0  0  0  0  0  0  0  0  0  0  0
   -2.0397   -0.4559   -0.3700 H   0  0  0  0  0  0  0  0  0  0  0  0
    0.0891   -0.3281   -0.2729 C   0  0  1  0  0  0  0  0  0  0  0  0
    0.8156   -0.8675    0.3439 H   0  0  0  0  0  0  0  0  0  0  0  0
    0.6546   -0.2324   -1.7076 C   0  0  0  0  0  0  0  0  0  0  0  0
    1.3161    0.6343   -1.7966 H   0  0  0  0  0  0  0  0  0  0  0  0
    1.2592   -1.1238   -1.8952 H   0  0  0  0  0  0  0  0  0  0  0  0
   -0.4030   -0.1687   -2.8045 C   0  0  0  0  0  0  0  0  0  0  0  0
   -0.8101    0.9257   -3.1515 O   0  0  0  0  0  0  0  0  0  0  0  0
   -0.8179   -1.3310   -3.3633 O   0  0  0  0  0  0  0  0  0  0  0  0
   -1.4616   -1.0805   -4.0430 H   0  0  0  0  0  0  0  0  0  0  0  0
   -0.0664    1.0708    0.3604 C   0  0  0  0  0  0  0  0  0  0  0  0
   -1.0834    1.7241    0.1627 O   0  0  0  0  0  0  0  0  0  0  0  0
    0.8718    1.5392    1.2622 N   0  0  0  0  0  0  0  0  0  0  0  0
    1.6726    0.9473    1.4635 H   0  0  0  0  0  0  0  0  0  0  0  0
    0.7340    2.8052    1.9728 C   0  0  0  0  0  0  0  0  0  0  0  0
   -0.1780    2.8070    2.5791 H   0  0  0  0  0  0  0  0  0  0  0  0
    1.5901    2.9627    2.6360 H   0  0  0  0  0  0  0  0  0  0  0  0
    0.6874    3.6392    1.2645 H   0  0  0  0  0  0  0  0  0  0  0  0
  1  2  1  0  0  0  0
  2  3  1  0  0  0  0
  2  4  1  0  0  0  0
  2  5  1  0  0  0  0
  5  6  2  0  0  0  0
  5  7  1  0  0  0  0
  7  8  1  0  0  0  0
  7  9  1  0  0  0  0
  9 10  1  0  0  0  0
  9 11  1  0  0  0  0
  9 18  1  0  0  0  0
 11 12  1  0  0  0  0
 11 13  1  0  0  0  0
 11 14  1  0  0  0  0
 14 15  2  0  0  0  0
 14 16  1  0  0  0  0
 16 17  1  0  0  0  0
 18 19  2  0  0  0  0
 18 20  1  0  0  0  0
 20 21  1  0  0  0  0
 20 22  1  0  0  0  0
 22 23  1  0  0  0  0
 22 24  1  0  0  0  0
 22 25  1  0  0  0  0
M  END
$$$$

  -OEChem-02102214113D

 25 24  0     1  0  0  0  0  0999 V2000
   -2.7254   -3.9872    0.5447 H   0  0  0  0  0  0  0  0  0  0  0  0
   -2.7713   -2.9461    0.2136 C   0  0  0  0  0  0  0  0  0  0  0  0
   -3.3912   -2.3806    0.9134 H   0  0  0  0  0  0  0  0  0  0  0  0
   -3.2278   -2.9117   -0.7786 H   0  0  0  0  0  0  0  0  0  0  0  0
   -1.3768   -2.3524    0.1596 C   0  0  0  0  0  0  0  0  0  0  0  0
   -0.4088   -3.0331    0.4625 O   0  0  0  0  0  0  0  0  0  0  0  0
   -1.2074   -1.0377   -0.2210 N   0  0  0  0  0  0  0  0  0  0  0  0
   -2.0454   -0.4758   -0.3671 H   0  0  0  0  0  0  0  0  0  0  0  0
    0.0843   -0.3396   -0.2618 C   0  0  1  0  0  0  0  0  0  0  0  0
    0.8193   -0.8790    0.3450 H   0  0  0  0  0  0  0  0  0  0  0  0
    0.6366   -0.2235   -1.7011 C   0  0  0  0  0  0  0  0  0  0  0  0
    1.3027    0.6410   -1.7792 H   0  0  0  0  0  0  0  0  0  0  0  0
    1.2362   -1.1145   -1.9052 H   0  0  0  0  0  0  0  0  0  0  0  0
   -0.4217   -0.1438   -2.7981 C   0  0  0  0  0  0  0  0  0  0  0  0
   -0.6211    0.9402   -3.3177 O   0  0  0  0  0  0  0  0  0  0  0  0
   -1.0363   -1.2845   -3.1958 O   0  0  0  0  0  0  0  0  0  0  0  0
   -1.6275   -1.0245   -3.9183 H   0  0  0  0  0  0  0  0  0  0  0  0
   -0.0723    1.0572    0.3748 C   0  0  0  0  0  0  0  0  0  0  0  0
   -1.0794    1.7191    0.1548 O   0  0  0  0  0  0  0  0  0  0  0  0
    0.8687    1.5313    1.2705 N   0  0  0  0  0  0  0  0  0  0  0  0
    1.6675    0.9387    1.4773 H   0  0  0  0  0  0  0  0  0  0  0  0
    0.7437    2.8109    1.9581 C   0  0  0  0  0  0  0  0  0  0  0  0
   -0.1720    2.8363    2.5582 H   0  0  0  0  0  0  0  0  0  0  0  0
    1.5975    2.9673    2.6243 H   0  0  0  0  0  0  0  0  0  0  0  0
    0.7140    3.6330    1.2351 H   0  0  0  0  0  0  0  0  0  0  0  0
  1  2  1  0  0  0  0
  2  3  1  0  0  0  0
  2  4  1  0  0  0  0
  2  5  1  0  0  0  0
  5  6  2  0  0  0  0
  5  7  1  0  0  0  0
  7  8  1  0  0  0  0
  7  9  1  0  0  0  0
  9 10  1  0  0  0  0
  9 11  1  0  0  0  0
  9 18  1  0  0  0  0
 11 12  1  0  0  0  0
 11 13  1  0  0  0  0
 11 14  1  0  0  0  0
 14 15  2  0  0  0  0
 14 16  1  0  0  0  0
 16 17  1  0  0  0  0
 18 19  2  0  0  0  0
 18 20  1  0  0  0  0
 20 21  1  0  0  0  0
 20 22  1  0  0  0  0
 22 23  1  0  0  0  0
 22 24  1  0  0  0  0
 22 25  1  0  0  0  0
M  END
$$$$

  -OEChem-02102214113D

 25 24  0     1  0  0  0  0  0999 V2000
   -2.7242   -4.0052    0.5682 H   0  0  0  0  0  0  0  0  0  0  0  0
   -2.7731   -2.9650    0.2346 C   0  0  0  0  0  0  0  0  0  0  0  0
   -3.4048   -2.4019    0.9259 H   0  0  0  0  0  0  0  0  0  0  0  0
   -3.2186   -2.9348   -0.7628 H   0  0  0  0  0  0  0  0  0  0  0  0
   -1.3814   -2.3631    0.1956 C   0  0  0  0  0  0  0  0  0  0  0  0
   -0.4130   -3.0377    0.5113 O   0  0  0  0  0  0  0  0  0  0  0  0
   -1.2143   -1.0490   -0.1874 N   0  0  0  0  0  0  0  0  0  0  0  0
   -2.0521   -0.5022   -0.3799 H   0  0  0  0  0  0  0  0  0  0  0  0
    0.0761   -0.3514   -0.2487 C   0  0  1  0  0  0  0  0  0  0  0  0
    0.8221   -0.8912    0.3439 H   0  0  0  0  0  0  0  0  0  0  0  0
    0.6129   -0.2082   -1.6936 C   0  0  0  0  0  0  0  0  0  0  0  0
    1.2849    0.6537   -1.7551 H   0  0  0  0  0  0  0  0  0  0  0  0
    1.2080   -1.0978   -1.9160 H   0  0  0  0  0  0  0  0  0  0  0  0
   -0.4375   -0.1059   -2.8002 C   0  0  0  0  0  0  0  0  0  0  0  0
   -0.4289    0.9055   -3.4802 O   0  0  0  0  0  0  0  0  0  0  0  0
   -1.2428   -1.1655   -3.0596 O   0  0  0  0  0  0  0  0  0  0  0  0
   -1.7719   -0.9068   -3.8294 H   0  0  0  0  0  0  0  0  0  0  0  0
   -0.0791    1.0434    0.3915 C   0  0  0  0  0  0  0  0  0  0  0  0
   -1.0771    1.7143    0.1564 O   0  0  0  0  0  0  0  0  0  0  0  0
    0.8699    1.5231    1.2754 N   0  0  0  0  0  0  0  0  0  0  0  0
    1.6634    0.9260    1.4896 H   0  0  0  0  0  0  0  0  0  0  0  0
    0.7572    2.8142    1.9436 C   0  0  0  0  0  0  0  0  0  0  0  0
   -0.1435    2.8465    2.5655 H   0  0  0  0  0  0  0  0  0  0  0  0
    1.6268    2.9858    2.5851 H   0  0  0  0  0  0  0  0  0  0  0  0
    0.7060    3.6235    1.2075 H   0  0  0  0  0  0  0  0  0  0  0  0
  1  2  1  0  0  0  0
  2  3  1  0  0  0  0
  2  4  1  0  0  0  0
  2  5  1  0  0  0  0
  5  6  2  0  0  0  0
  5  7  1  0  0  0  0
  7  8  1  0  0  0  0
  7  9  1  0  0  0  0
  9 10  1  0  0  0  0
  9 11  1  0  0  0  0
  9 18  1  0  0  0  0
 11 12  1  0  0  0  0
 11 13  1  0  0  0  0
 11 14  1  0  0  0  0
 14 15  2  0  0  0  0
 14 16  1  0  0  0  0
 16 17  1  0  0  0  0
 18 19  2  0  0  0  0
 18 20  1  0  0  0  0
 20 21  1  0  0  0  0
 20 22  1  0  0  0  0
 22 23  1  0  0  0  0
 22 24  1  0  0  0  0
 22 25  1  0  0  0  0
M  END
$$$$

  -OEChem-02102214113D

 25 24  0     1  0  0  0  0  0999 V2000
   -2.7114   -4.0350    0.5627 H   0  0  0  0  0  0  0  0  0  0  0  0
   -2.7658   -2.9937    0.2332 C   0  0  0  0  0  0  0  0  0  0  0  0
   -3.4274   -2.4443    0.9074 H   0  0  0  0  0  0  0  0  0  0  0  0
   -3.1805   -2.9646   -0.7774 H   0  0  0  0  0  0  0  0  0  0  0  0
   -1.3832   -2.3695    0.2406 C   0  0  0  0  0  0  0  0  0  0  0  0
   -0.4151   -3.0284    0.5890 O   0  0  0  0  0  0  0  0  0  0  0  0
   -1.2237   -1.0555   -0.1450 N   0  0  0  0  0  0  0  0  0  0  0  0
   -2.0571   -0.5413   -0.4253 H   0  0  0  0  0  0  0  0  0  0  0  0
    0.0635   -0.3562   -0.2300 C   0  0  1  0  0  0  0  0  0  0  0  0
    0.8218   -0.8961    0.3467 H   0  0  0  0  0  0  0  0  0  0  0  0
    0.5798   -0.1912   -1.6827 C   0  0  0  0  0  0  0  0  0  0  0  0
    1.2558    0.6685   -1.7322 H   0  0  0  0  0  0  0  0  0  0  0  0
    1.1719   -1.0793   -1.9180 H   0  0  0  0  0  0  0  0  0  0  0  0
   -0.4596   -0.0709   -2.8027 C   0  0  0  0  0  0  0  0  0  0  0  0
   -0.2586    0.8026   -3.6289 O   0  0  0  0  0  0  0  0  0  0  0  0
   -1.4601   -0.9790   -2.9219 O   0  0  0  0  0  0  0  0  0  0  0  0
   -1.9356   -0.7334   -3.7303 H   0  0  0  0  0  0  0  0  0  0  0  0
   -0.0852    1.0376    0.4141 C   0  0  0  0  0  0  0  0  0  0  0  0
   -1.0676    1.7248    0.1605 O   0  0  0  0  0  0  0  0  0  0  0  0
    0.8772    1.5202    1.2819 N   0  0  0  0  0  0  0  0  0  0  0  0
    1.6590    0.9122    1.5083 H   0  0  0  0  0  0  0  0  0  0  0  0
    0.7849    2.8224    1.9312 C   0  0  0  0  0  0  0  0  0  0  0  0
   -0.1114    2.8752    2.5582 H   0  0  0  0  0  0  0  0  0  0  0  0
    1.6608    2.9928    2.5645 H   0  0  0  0  0  0  0  0  0  0  0  0
    0.7395    3.6213    1.1833 H   0  0  0  0  0  0  0  0  0  0  0  0
  1  2  1  0  0  0  0
  2  3  1  0  0  0  0
  2  4  1  0  0  0  0
  2  5  1  0  0  0  0
  5  6  2  0  0  0  0
  5  7  1  0  0  0  0
  7  8  1  0  0  0  0
  7  9  1  0  0  0  0
  9 10  1  0  0  0  0
  9 11  1  0  0  0  0
  9 18  1  0  0  0  0
 11 12  1  0  0  0  0
 11 13  1  0  0  0  0
 11 14  1  0  0  0  0
 14 15  2  0  0  0  0
 14 16  1  0  0  0  0
 16 17  1  0  0  0  0
 18 19  2  0  0  0  0
 18 20  1  0  0  0  0
 20 21  1  0  0  0  0
 20 22  1  0  0  0  0
 22 23  1  0  0  0  0
 22 24  1  0  0  0  0
 22 25  1  0  0  0  0
M  END
$$$$

  -OEChem-02102214113D

 25 24  0     1  0  0  0  0  0999 V2000
   -2.6906   -4.0676    0.5402 H   0  0  0  0  0  0  0  0  0  0  0  0
   -2.7526   -3.0239    0.2196 C   0  0  0  0  0  0  0  0  0  0  0  0
   -3.4472   -2.4932    0.8752 H   0  0  0  0  0  0  0  0  0  0  0  0
   -3.1324   -2.9917   -0.8044 H   0  0  0  0  0  0  0  0  0  0  0  0
   -1.3832   -2.3743    0.2818 C   0  0  0  0  0  0  0  0  0  0  0  0
   -0.4177   -3.0158    0.6678 O   0  0  0  0  0  0  0  0  0  0  0  0
   -1.2311   -1.0609   -0.1084 N   0  0  0  0  0  0  0  0  0  0  0  0
   -2.0502   -0.5884   -0.4885 H   0  0  0  0  0  0  0  0  0  0  0  0
    0.0537   -0.3606   -0.2108 C   0  0  1  0  0  0  0  0  0  0  0  0
    0.8223   -0.8988    0.3539 H   0  0  0  0  0  0  0  0  0  0  0  0
    0.5502   -0.1827   -1.6709 C   0  0  0  0  0  0  0  0  0  0  0  0
    1.2278    0.6761   -1.7152 H   0  0  0  0  0  0  0  0  0  0  0  0
    1.1403   -1.0702   -1.9138 H   0  0  0  0  0  0  0  0  0  0  0  0
   -0.4775   -0.0490   -2.8041 C   0  0  0  0  0  0  0  0  0  0  0  0
   -0.1167    0.6232   -3.7549 O   0  0  0  0  0  0  0  0  0  0  0  0
   -1.6649   -0.7050   -2.7812 O   0  0  0  0  0  0  0  0  0  0  0  0
   -2.1016   -0.4720   -3.6153 H   0  0  0  0  0  0  0  0  0  0  0  0
   -0.0883    1.0347    0.4328 C   0  0  0  0  0  0  0  0  0  0  0  0
   -1.0543    1.7381    0.1608 O   0  0  0  0  0  0  0  0  0  0  0  0
    0.8848    1.5190    1.2878 N   0  0  0  0  0  0  0  0  0  0  0  0
    1.6573    0.9027    1.5239 H   0  0  0  0  0  0  0  0  0  0  0  0
    0.8110    2.8313    1.9192 C   0  0  0  0  0  0  0  0  0  0  0  0
   -0.0921    2.9113    2.5335 H   0  0  0  0  0  0  0  0  0  0  0  0
    1.6813    2.9921    2.5627 H   0  0  0  0  0  0  0  0  0  0  0  0
    0.7920    3.6204    1.1600 H   0  0  0  0  0  0  0  0  0  0  0  0
  1  2  1  0  0  0  0
  2  3  1  0  0  0  0
  2  4  1  0  0  0  0
  2  5  1  0  0  0  0
  5  6  2  0  0  0  0
  5  7  1  0  0  0  0
  7  8  1  0  0  0  0
  7  9  1  0  0  0  0
  9 10  1  0  0  0  0
  9 11  1  0  0  0  0
  9 18  1  0  0  0  0
 11 12  1  0  0  0  0
 11 13  1  0  0  0  0
 11 14  1  0  0  0  0
 14 15  2  0  0  0  0
 14 16  1  0  0  0  0
 16 17  1  0  0  0  0
 18 19  2  0  0  0  0
 18 20  1  0  0  0  0
 20 21  1  0  0  0  0
 20 22  1  0  0  0  0
 22 23  1  0  0  0  0
 22 24  1  0  0  0  0
 22 25  1  0  0  0  0
M  END
$$$$

  -OEChem-02102214113D

 25 24  0     1  0  0  0  0  0999 V2000
   -2.6800   -4.0806    0.5290 H   0  0  0  0  0  0  0  0  0  0  0  0
   -2.7458   -3.0369    0.2096 C   0  0  0  0  0  0  0  0  0  0  0  0
   -3.4493   -2.5121    0.8605 H   0  0  0  0  0  0  0  0  0  0  0  0
   -3.1169   -3.0047   -0.8176 H   0  0  0  0  0  0  0  0  0  0  0  0
   -1.3814   -2.3787    0.2863 C   0  0  0  0  0  0  0  0  0  0  0  0
   -0.4154   -3.0144    0.6801 O   0  0  0  0  0  0  0  0  0  0  0  0
   -1.2332   -1.0646   -0.1021 N   0  0  0  0  0  0  0  0  0  0  0  0
   -2.0452   -0.6044   -0.5140 H   0  0  0  0  0  0  0  0  0  0  0  0
    0.0488   -0.3597   -0.2038 C   0  0  1  0  0  0  0  0  0  0  0  0
    0.8199   -0.8970    0.3580 H   0  0  0  0  0  0  0  0  0  0  0  0
    0.5382   -0.1821   -1.6670 C   0  0  0  0  0  0  0  0  0  0  0  0
    1.2097    0.6808   -1.7146 H   0  0  0  0  0  0  0  0  0  0  0  0
    1.1343   -1.0665   -1.9069 H   0  0  0  0  0  0  0  0  0  0  0  0
   -0.4831   -0.0513   -2.8080 C   0  0  0  0  0  0  0  0  0  0  0  0
   -0.0242    0.3651   -3.8579 O   0  0  0  0  0  0  0  0  0  0  0  0
   -1.7922   -0.3785   -2.6613 O   0  0  0  0  0  0  0  0  0  0  0  0
   -2.2055   -0.1696   -3.5136 H   0  0  0  0  0  0  0  0  0  0  0  0
   -0.0907    1.0360    0.4404 C   0  0  0  0  0  0  0  0  0  0  0  0
   -1.0456    1.7505    0.1595 O   0  0  0  0  0  0  0  0  0  0  0  0
    0.8862    1.5167    1.2932 N   0  0  0  0  0  0  0  0  0  0  0  0
    1.6473    0.8911    1.5410 H   0  0  0  0  0  0  0  0  0  0  0  0
    0.8221    2.8320    1.9197 C   0  0  0  0  0  0  0  0  0  0  0  0
   -0.0690    2.9128    2.5512 H   0  0  0  0  0  0  0  0  0  0  0  0
    1.7052    2.9979    2.5443 H   0  0  0  0  0  0  0  0  0  0  0  0
    0.7863    3.6179    1.1578 H   0  0  0  0  0  0  0  0  0  0  0  0
  1  2  1  0  0  0  0
  2  3  1  0  0  0  0
  2  4  1  0  0  0  0
  2  5  1  0  0  0  0
  5  6  2  0  0  0  0
  5  7  1  0  0  0  0
  7  8  1  0  0  0  0
  7  9  1  0  0  0  0
  9 10  1  0  0  0  0
  9 11  1  0  0  0  0
  9 18  1  0  0  0  0
 11 12  1  0  0  0  0
 11 13  1  0  0  0  0
 11 14  1  0  0  0  0
 14 15  2  0  0  0  0
 14 16  1  0  0  0  0
 16 17  1  0  0  0  0
 18 19  2  0  0  0  0
 18 20  1  0  0  0  0
 20 21  1  0  0  0  0
 20 22  1  0  0  0  0
 22 23  1  0  0  0  0
 22 24  1  0  0  0  0
 22 25  1  0  0  0  0
M  END
$$$$

  -OEChem-02102214113D

 25 24  0     1  0  0  0  0  0999 V2000
   -2.6791   -4.0510    0.4491 H   0  0  0  0  0  0  0  0  0  0  0  0
   -2.7466   -3.0022    0.1473 C   0  0  0  0  0  0  0  0  0  0  0  0
   -3.4215   -2.4811    0.8306 H   0  0  0  0  0  0  0  0  0  0  0  0
   -3.1539   -2.9520   -0.8653 H   0  0  0  0  0  0  0  0  0  0  0  0
   -1.3741   -2.3574    0.1845 C   0  0  0  0  0  0  0  0  0  0  0  0
   -0.3978   -3.0117    0.5174 O   0  0  0  0  0  0  0  0  0  0  0  0
   -1.2305   -1.0323   -0.1666 N   0  0  0  0  0  0  0  0  0  0  0  0
   -2.0617   -0.5270   -0.4760 H   0  0  0  0  0  0  0  0  0  0  0  0
    0.0406   -0.3014   -0.2196 C   0  0  1  0  0  0  0  0  0  0  0  0
    0.7970   -0.8477    0.3537 H   0  0  0  0  0  0  0  0  0  0  0  0
    0.5503   -0.1690   -1.6729 C   0  0  0  0  0  0  0  0  0  0  0  0
    1.3776    0.5459   -1.6943 H   0  0  0  0  0  0  0  0  0  0  0  0
    0.9486   -1.1433   -1.9691 H   0  0  0  0  0  0  0  0  0  0  0  0
   -0.4583    0.2408   -2.7532 C   0  0  0  0  0  0  0  0  0  0  0  0
   -0.0071    0.3322   -3.8820 O   0  0  0  0  0  0  0  0  0  0  0  0
   -1.7649    0.4588   -2.4620 O   0  0  0  0  0  0  0  0  0  0  0  0
   -2.1742    0.7565   -3.2885 H   0  0  0  0  0  0  0  0  0  0  0  0
   -0.0842    1.0881    0.4432 C   0  0  0  0  0  0  0  0  0  0  0  0
   -1.0551    1.8018    0.2270 O   0  0  0  0  0  0  0  0  0  0  0  0
    0.8964    1.5353    1.3103 N   0  0  0  0  0  0  0  0  0  0  0  0
    1.6652    0.9054    1.5211 H   0  0  0  0  0  0  0  0  0  0  0  0
    0.8360    2.8251    1.9879 C   0  0  0  0  0  0  0  0  0  0  0  0
   -0.0484    2.8797    2.6314 H   0  0  0  0  0  0  0  0  0  0  0  0
    1.7252    2.9691    2.6090 H   0  0  0  0  0  0  0  0  0  0  0  0
    0.7906    3.6394    1.2570 H   0  0  0  0  0  0  0  0  0  0  0  0
  1  2  1  0  0  0  0
  2  3  1  0  0  0  0
  2  4  1  0  0  0  0
  2  5  1  0  0  0  0
  5  6  2  0  0  0  0
  5  7  1  0  0  0  0
  7  8  1  0  0  0  0
  7  9  1  0  0  0  0
  9 10  1  0  0  0  0
  9 11  1  0  0  0  0
  9 18  1  0  0  0  0
 11 12  1  0  0  0  0
 11 13  1  0  0  0  0
 11 14  1  0  0  0  0
 14 15  2  0  0  0  0
 14 16  1  0  0  0  0
 16 17  1  0  0  0  0
 18 19  2  0  0  0  0
 18 20  1  0  0  0  0
 20 21  1  0  0  0  0
 20 22  1  0  0  0  0
 22 23  1  0  0  0  0
 22 24  1  0  0  0  0
 22 25  1  0  0  0  0
M  END
$$$$

  -OEChem-02102214113D

 25 24  0     1  0  0  0  0  0999 V2000
   -2.6849   -4.0134    0.4603 H   0  0  0  0  0  0  0  0  0  0  0  0
   -2.7540   -2.9632    0.1632 C   0  0  0  0  0  0  0  0  0  0  0  0
   -3.3932   -2.4364    0.8758 H   0  0  0  0  0  0  0  0  0  0  0  0
   -3.2047   -2.9065   -0.8306 H   0  0  0  0  0  0  0  0  0  0  0  0
   -1.3743   -2.3331    0.1421 C   0  0  0  0  0  0  0  0  0  0  0  0
   -0.3909   -3.0003    0.4241 O   0  0  0  0  0  0  0  0  0  0  0  0
   -1.2326   -1.0053   -0.2003 N   0  0  0  0  0  0  0  0  0  0  0  0
   -2.0764   -0.4730   -0.4145 H   0  0  0  0  0  0  0  0  0  0  0  0
    0.0375   -0.2713   -0.2455 C   0  0  1  0  0  0  0  0  0  0  0  0
    0.7827   -0.8176    0.3420 H   0  0  0  0  0  0  0  0  0  0  0  0
    0.5701   -0.1771   -1.6922 C   0  0  0  0  0  0  0  0  0  0  0  0
    1.3902    0.5449   -1.7249 H   0  0  0  0  0  0  0  0  0  0  0  0
    0.9805   -1.1564   -1.9560 H   0  0  0  0  0  0  0  0  0  0  0  0
   -0.4347    0.1985   -2.7853 C   0  0  0  0  0  0  0  0  0  0  0  0
   -0.0758   -0.0055   -3.9323 O   0  0  0  0  0  0  0  0  0  0  0  0
   -1.6437    0.7222   -2.4723 O   0  0  0  0  0  0  0  0  0  0  0  0
   -2.0745    0.9277   -3.3152 H   0  0  0  0  0  0  0  0  0  0  0  0
   -0.0807    1.1168    0.4238 C   0  0  0  0  0  0  0  0  0  0  0  0
   -1.0854    1.8021    0.2845 O   0  0  0  0  0  0  0  0  0  0  0  0
    0.9057    1.5520    1.2909 N   0  0  0  0  0  0  0  0  0  0  0  0
    1.6941    0.9336    1.4590 H   0  0  0  0  0  0  0  0  0  0  0  0
    0.8194    2.8015    2.0381 C   0  0  0  0  0  0  0  0  0  0  0  0
   -0.0360    2.7810    2.7217 H   0  0  0  0  0  0  0  0  0  0  0  0
    1.7292    2.9546    2.6264 H   0  0  0  0  0  0  0  0  0  0  0  0
    0.7039    3.6496    1.3548 H   0  0  0  0  0  0  0  0  0  0  0  0
  1  2  1  0  0  0  0
  2  3  1  0  0  0  0
  2  4  1  0  0  0  0
  2  5  1  0  0  0  0
  5  6  2  0  0  0  0
  5  7  1  0  0  0  0
  7  8  1  0  0  0  0
  7  9  1  0  0  0  0
  9 10  1  0  0  0  0
  9 11  1  0  0  0  0
  9 18  1  0  0  0  0
 11 12  1  0  0  0  0
 11 13  1  0  0  0  0
 11 14  1  0  0  0  0
 14 15  2  0  0  0  0
 14 16  1  0  0  0  0
 16 17  1  0  0  0  0
 18 19  2  0  0  0  0
 18 20  1  0  0  0  0
 20 21  1  0  0  0  0
 20 22  1  0  0  0  0
 22 23  1  0  0  0  0
 22 24  1  0  0  0  0
 22 25  1  0  0  0  0
M  END
$$$$

  -OEChem-02102214113D

 25 24  0     1  0  0  0  0  0999 V2000
   -2.6893   -3.9761    0.4947 H   0  0  0  0  0  0  0  0  0  0  0  0
   -2.7589   -2.9271    0.1936 C   0  0  0  0  0  0  0  0  0  0  0  0
   -3.3540   -2.3868    0.9338 H   0  0  0  0  0  0  0  0  0  0  0  0
   -3.2582   -2.8713   -0.7767 H   0  0  0  0  0  0  0  0  0  0  0  0
   -1.3736   -2.3166    0.0982 C   0  0  0  0  0  0  0  0  0  0  0  0
   -0.3858   -2.9982    0.3248 O   0  0  0  0  0  0  0  0  0  0  0  0
   -1.2325   -0.9869   -0.2387 N   0  0  0  0  0  0  0  0  0  0  0  0
   -2.0814   -0.4319   -0.3488 H   0  0  0  0  0  0  0  0  0  0  0  0
    0.0401   -0.2554   -0.2752 C   0  0  1  0  0  0  0  0  0  0  0  0
    0.7743   -0.8026    0.3255 H   0  0  0  0  0  0  0  0  0  0  0  0
    0.5956   -0.1859   -1.7137 C   0  0  0  0  0  0  0  0  0  0  0  0
    1.4120    0.5398   -1.7497 H   0  0  0  0  0  0  0  0  0  0  0  0
    1.0132   -1.1675   -1.9576 H   0  0  0  0  0  0  0  0  0  0  0  0
   -0.4077    0.1737   -2.8103 C   0  0  0  0  0  0  0  0  0  0  0  0
   -0.1962   -0.2878   -3.9188 O   0  0  0  0  0  0  0  0  0  0  0  0
   -1.4443    0.9979   -2.5383 O   0  0  0  0  0  0  0  0  0  0  0  0
   -1.9182    1.1257   -3.3731 H   0  0  0  0  0  0  0  0  0  0  0  0
   -0.0814    1.1299    0.4003 C   0  0  0  0  0  0  0  0  0  0  0  0
   -1.1187    1.7764    0.3271 O   0  0  0  0  0  0  0  0  0  0  0  0
    0.9023    1.5589    1.2739 N   0  0  0  0  0  0  0  0  0  0  0  0
    1.7120    0.9597    1.4058 H   0  0  0  0  0  0  0  0  0  0  0  0
    0.7898    2.7752    2.0711 C   0  0  0  0  0  0  0  0  0  0  0  0
   -0.0607    2.7063    2.7576 H   0  0  0  0  0  0  0  0  0  0  0  0
    1.6989    2.9271    2.6607 H   0  0  0  0  0  0  0  0  0  0  0  0
    0.6496    3.6468    1.4229 H   0  0  0  0  0  0  0  0  0  0  0  0
  1  2  1  0  0  0  0
  2  3  1  0  0  0  0
  2  4  1  0  0  0  0
  2  5  1  0  0  0  0
  5  6  2  0  0  0  0
  5  7  1  0  0  0  0
  7  8  1  0  0  0  0
  7  9  1  0  0  0  0
  9 10  1  0  0  0  0
  9 11  1  0  0  0  0
  9 18  1  0  0  0  0
 11 12  1  0  0  0  0
 11 13  1  0  0  0  0
 11 14  1  0  0  0  0
 14 15  2  0  0  0  0
 14 16  1  0  0  0  0
 16 17  1  0  0  0  0
 18 19  2  0  0  0  0
 18 20  1  0  0  0  0
 20 21  1  0  0  0  0
 20 22  1  0  0  0  0
 22 23  1  0  0  0  0
 22 24  1  0  0  0  0
 22 25  1  0  0  0  0
M  END
$$$$

  -OEChem-02102214113D

 25 24  0     1  0  0  0  0  0999 V2000
   -2.6924   -3.9559    0.5087 H   0  0  0  0  0  0  0  0  0  0  0  0
   -2.7596   -2.9076    0.2047 C   0  0  0  0  0  0  0  0  0  0  0  0
   -3.3372   -2.3598    0.9531 H   0  0  0  0  0  0  0  0  0  0  0  0
   -3.2756   -2.8512   -0.7567 H   0  0  0  0  0  0  0  0  0  0  0  0
   -1.3717   -2.3082    0.0811 C   0  0  0  0  0  0  0  0  0  0  0  0
   -0.3855   -2.9973    0.2916 O   0  0  0  0  0  0  0  0  0  0  0  0
   -1.2265   -0.9798   -0.2599 N   0  0  0  0  0  0  0  0  0  0  0  0
   -2.0724   -0.4126   -0.3166 H   0  0  0  0  0  0  0  0  0  0  0  0
    0.0521   -0.2577   -0.2910 C   0  0  1  0  0  0  0  0  0  0  0  0
    0.7807   -0.8057    0.3159 H   0  0  0  0  0  0  0  0  0  0  0  0
    0.6137   -0.1972   -1.7268 C   0  0  0  0  0  0  0  0  0  0  0  0
    1.4340    0.5238   -1.7666 H   0  0  0  0  0  0  0  0  0  0  0  0
    1.0254   -1.1817   -1.9698 H   0  0  0  0  0  0  0  0  0  0  0  0
   -0.3994    0.1692   -2.8095 C   0  0  0  0  0  0  0  0  0  0  0  0
   -0.3911   -0.4905   -3.8351 O   0  0  0  0  0  0  0  0  0  0  0  0
   -1.1921    1.2483   -2.6290 O   0  0  0  0  0  0  0  0  0  0  0  0
   -1.7256    1.3345   -3.4324 H   0  0  0  0  0  0  0  0  0  0  0  0
   -0.0790    1.1271    0.3830 C   0  0  0  0  0  0  0  0  0  0  0  0
   -1.1330    1.7488    0.3271 O   0  0  0  0  0  0  0  0  0  0  0  0
    0.8947    1.5588    1.2661 N   0  0  0  0  0  0  0  0  0  0  0  0
    1.7171    0.9747    1.3862 H   0  0  0  0  0  0  0  0  0  0  0  0
    0.7617    2.7627    2.0785 C   0  0  0  0  0  0  0  0  0  0  0  0
   -0.0989    2.6783    2.7504 H   0  0  0  0  0  0  0  0  0  0  0  0
    1.6603    2.9121    2.6848 H   0  0  0  0  0  0  0  0  0  0  0  0
    0.6252    3.6425    1.4405 H   0  0  0  0  0  0  0  0  0  0  0  0
  1  2  1  0  0  0  0
  2  3  1  0  0  0  0
  2  4  1  0  0  0  0
  2  5  1  0  0  0  0
  5  6  2  0  0  0  0
  5  7  1  0  0  0  0
  7  8  1  0  0  0  0
  7  9  1  0  0  0  0
  9 10  1  0  0  0  0
  9 11  1  0  0  0  0
  9 18  1  0  0  0  0
 11 12  1  0  0  0  0
 11 13  1  0  0  0  0
 11 14  1  0  0  0  0
 14 15  2  0  0  0  0
 14 16  1  0  0  0  0
 16 17  1  0  0  0  0
 18 19  2  0  0  0  0
 18 20  1  0  0  0  0
 20 21  1  0  0  0  0
 20 22  1  0  0  0  0
 22 23  1  0  0  0  0
 22 24  1  0  0  0  0
 22 25  1  0  0  0  0
M  END
$$$$

  -OEChem-02102214113D

 25 24  0     1  0  0  0  0  0999 V2000
   -2.7030   -3.9489    0.5038 H   0  0  0  0  0  0  0  0  0  0  0  0
   -2.7618   -2.9015    0.1950 C   0  0  0  0  0  0  0  0  0  0  0  0
   -3.3419   -2.3471    0.9366 H   0  0  0  0  0  0  0  0  0  0  0  0
   -3.2699   -2.8469   -0.7709 H   0  0  0  0  0  0  0  0  0  0  0  0
   -1.3693   -2.3111    0.0795 C   0  0  0  0  0  0  0  0  0  0  0  0
   -0.3889   -3.0030    0.3079 O   0  0  0  0  0  0  0  0  0  0  0  0
   -1.2140   -0.9855   -0.2686 N   0  0  0  0  0  0  0  0  0  0  0  0
   -2.0566   -0.4139   -0.3262 H   0  0  0  0  0  0  0  0  0  0  0  0
    0.0709   -0.2733   -0.2926 C   0  0  1  0  0  0  0  0  0  0  0  0
    0.7981   -0.8220    0.3155 H   0  0  0  0  0  0  0  0  0  0  0  0
    0.6277   -0.2037   -1.7291 C   0  0  0  0  0  0  0  0  0  0  0  0
    1.4531    0.5114   -1.7693 H   0  0  0  0  0  0  0  0  0  0  0  0
    1.0301   -1.1877   -1.9891 H   0  0  0  0  0  0  0  0  0  0  0  0
   -0.4012    0.1848   -2.7865 C   0  0  0  0  0  0  0  0  0  0  0  0
   -0.6233   -0.6033   -3.6903 O   0  0  0  0  0  0  0  0  0  0  0  0
   -0.9356    1.4248   -2.7328 O   0  0  0  0  0  0  0  0  0  0  0  0
   -1.5346    1.4984   -3.4901 H   0  0  0  0  0  0  0  0  0  0  0  0
   -0.0708    1.1132    0.3743 C   0  0  0  0  0  0  0  0  0  0  0  0
   -1.1227    1.7357    0.2871 O   0  0  0  0  0  0  0  0  0  0  0  0
    0.8881    1.5528    1.2692 N   0  0  0  0  0  0  0  0  0  0  0  0
    1.7094    0.9711    1.4069 H   0  0  0  0  0  0  0  0  0  0  0  0
    0.7439    2.7670    2.0639 C   0  0  0  0  0  0  0  0  0  0  0  0
   -0.1322    2.6959    2.7171 H   0  0  0  0  0  0  0  0  0  0  0  0
    1.6294    2.9181    2.6885 H   0  0  0  0  0  0  0  0  0  0  0  0
    0.6281    3.6397    1.4125 H   0  0  0  0  0  0  0  0  0  0  0  0
  1  2  1  0  0  0  0
  2  3  1  0  0  0  0
  2  4  1  0  0  0  0
  2  5  1  0  0  0  0
  5  6  2  0  0  0  0
  5  7  1  0  0  0  0
  7  8  1  0  0  0  0
  7  9  1  0  0  0  0
  9 10  1  0  0  0  0
  9 11  1  0  0  0  0
  9 18  1  0  0  0  0
 11 12  1  0  0  0  0
 11 13  1  0  0  0  0
 11 14  1  0  0  0  0
 14 15  2  0  0  0  0
 14 16  1  0  0  0  0
 16 17  1  0  0  0  0
 18 19  2  0  0  0  0
 18 20  1  0  0  0  0
 20 21  1  0  0  0  0
 20 22  1  0  0  0  0
 22 23  1  0  0  0  0
 22 24  1  0  0  0  0
 22 25  1  0  0  0  0
M  END
$$$$

  -OEChem-02102214113D

 25 24  0     1  0  0  0  0  0999 V2000
   -2.7155   -3.9536    0.4775 H   0  0  0  0  0  0  0  0  0  0  0  0
   -2.7646   -2.9062    0.1671 C   0  0  0  0  0  0  0  0  0  0  0  0
   -3.3649   -2.3511    0.8919 H   0  0  0  0  0  0  0  0  0  0  0  0
   -3.2448   -2.8509   -0.8130 H   0  0  0  0  0  0  0  0  0  0  0  0
   -1.3690   -2.3171    0.0912 C   0  0  0  0  0  0  0  0  0  0  0  0
   -0.3969   -3.0068    0.3583 O   0  0  0  0  0  0  0  0  0  0  0  0
   -1.2018   -0.9951   -0.2647 N   0  0  0  0  0  0  0  0  0  0  0  0
   -2.0416   -0.4260   -0.3656 H   0  0  0  0  0  0  0  0  0  0  0  0
    0.0879   -0.2913   -0.2836 C   0  0  1  0  0  0  0  0  0  0  0  0
    0.8157   -0.8415    0.3222 H   0  0  0  0  0  0  0  0  0  0  0  0
    0.6371   -0.2066   -1.7218 C   0  0  0  0  0  0  0  0  0  0  0  0
    1.4689    0.5014   -1.7606 H   0  0  0  0  0  0  0  0  0  0  0  0
    1.0280   -1.1891   -2.0028 H   0  0  0  0  0  0  0  0  0  0  0  0
   -0.4047    0.2047   -2.7561 C   0  0  0  0  0  0  0  0  0  0  0  0
   -0.8562   -0.6483   -3.5022 O   0  0  0  0  0  0  0  0  0  0  0  0
   -0.7051    1.5191   -2.8559 O   0  0  0  0  0  0  0  0  0  0  0  0
   -1.3662    1.5959   -3.5593 H   0  0  0  0  0  0  0  0  0  0  0  0
   -0.0595    1.0982    0.3739 C   0  0  0  0  0  0  0  0  0  0  0  0
   -1.0952    1.7379    0.2317 O   0  0  0  0  0  0  0  0  0  0  0  0
    0.8869    1.5469    1.2772 N   0  0  0  0  0  0  0  0  0  0  0  0
    1.6929    0.9538    1.4528 H   0  0  0  0  0  0  0  0  0  0  0  0
    0.7428    2.7835    2.0365 C   0  0  0  0  0  0  0  0  0  0  0  0
   -0.1418    2.7364    2.6804 H   0  0  0  0  0  0  0  0  0  0  0  0
    1.6220    2.9462    2.6675 H   0  0  0  0  0  0  0  0  0  0  0  0
    0.6405    3.6386    1.3601 H   0  0  0  0  0  0  0  0  0  0  0  0
  1  2  1  0  0  0  0
  2  3  1  0  0  0  0
  2  4  1  0  0  0  0
  2  5  1  0  0  0  0
  5  6  2  0  0  0  0
  5  7  1  0  0  0  0
  7  8  1  0  0  0  0
  7  9  1  0  0  0  0
  9 10  1  0  0  0  0
  9 11  1  0  0  0  0
  9 18  1  0  0  0  0
 11 12  1  0  0  0  0
 11 13  1  0  0  0  0
 11 14  1  0  0  0  0
 14 15  2  0  0  0  0
 14 16  1  0  0  0  0
 16 17  1  0  0  0  0
 18 19  2  0  0  0  0
 18 20  1  0  0  0  0
 20 21  1  0  0  0  0
 20 22  1  0  0  0  0
 22 23  1  0  0  0  0
 22 24  1  0  0  0  0
 22 25  1  0  0  0  0
M  END
$$$$

  -OEChem-02102214113D

 25 24  0     1  0  0  0  0  0999 V2000
   -2.7240   -3.9769    0.4281 H   0  0  0  0  0  0  0  0  0  0  0  0
   -2.7652   -2.9281    0.1220 C   0  0  0  0  0  0  0  0  0  0  0  0
   -3.4088   -2.3823    0.8159 H   0  0  0  0  0  0  0  0  0  0  0  0
   -3.1916   -2.8706   -0.8825 H   0  0  0  0  0  0  0  0  0  0  0  0
   -1.3726   -2.3272    0.1251 C   0  0  0  0  0  0  0  0  0  0  0  0
   -0.4117   -3.0057    0.4550 O   0  0  0  0  0  0  0  0  0  0  0  0
   -1.1955   -1.0095   -0.2404 N   0  0  0  0  0  0  0  0  0  0  0  0
   -2.0298   -0.4584   -0.4371 H   0  0  0  0  0  0  0  0  0  0  0  0
    0.0968   -0.3111   -0.2616 C   0  0  1  0  0  0  0  0  0  0  0  0
    0.8285   -0.8612    0.3392 H   0  0  0  0  0  0  0  0  0  0  0  0
    0.6343   -0.2064   -1.7035 C   0  0  0  0  0  0  0  0  0  0  0  0
    1.4720    0.4953   -1.7376 H   0  0  0  0  0  0  0  0  0  0  0  0
    1.0144   -1.1863   -2.0066 H   0  0  0  0  0  0  0  0  0  0  0  0
   -0.4152    0.2262   -2.7223 C   0  0  0  0  0  0  0  0  0  0  0  0
   -1.0804   -0.6271   -3.2872 O   0  0  0  0  0  0  0  0  0  0  0  0
   -0.5068    1.5481   -2.9939 O   0  0  0  0  0  0  0  0  0  0  0  0
   -1.2229    1.6438   -3.6390 H   0  0  0  0  0  0  0  0  0  0  0  0
   -0.0519    1.0825    0.3846 C   0  0  0  0  0  0  0  0  0  0  0  0
   -1.0599    1.7485    0.1787 O   0  0  0  0  0  0  0  0  0  0  0  0
    0.8882    1.5408    1.2892 N   0  0  0  0  0  0  0  0  0  0  0  0
    1.6787    0.9378    1.4982 H   0  0  0  0  0  0  0  0  0  0  0  0
    0.7625    2.8101    1.9956 C   0  0  0  0  0  0  0  0  0  0  0  0
   -0.1373    2.8141    2.6198 H   0  0  0  0  0  0  0  0  0  0  0  0
    1.6315    2.9726    2.6404 H   0  0  0  0  0  0  0  0  0  0  0  0
    0.7011    3.6398    1.2834 H   0  0  0  0  0  0  0  0  0  0  0  0
  1  2  1  0  0  0  0
  2  3  1  0  0  0  0
  2  4  1  0  0  0  0
  2  5  1  0  0  0  0
  5  6  2  0  0  0  0
  5  7  1  0  0  0  0
  7  8  1  0  0  0  0
  7  9  1  0  0  0  0
  9 10  1  0  0  0  0
  9 11  1  0  0  0  0
  9 18  1  0  0  0  0
 11 12  1  0  0  0  0
 11 13  1  0  0  0  0
 11 14  1  0  0  0  0
 14 15  2  0  0  0  0
 14 16  1  0  0  0  0
 16 17  1  0  0  0  0
 18 19  2  0  0  0  0
 18 20  1  0  0  0  0
 20 21  1  0  0  0  0
 20 22  1  0  0  0  0
 22 23  1  0  0  0  0
 22 24  1  0  0  0  0
 22 25  1  0  0  0  0
M  END
$$$$

  -OEChem-02102214113D

 25 24  0     1  0  0  0  0  0999 V2000
   -2.7204   -4.0102    0.3889 H   0  0  0  0  0  0  0  0  0  0  0  0
   -2.7620   -2.9595    0.0889 C   0  0  0  0  0  0  0  0  0  0  0  0
   -3.4477   -2.4286    0.7535 H   0  0  0  0  0  0  0  0  0  0  0  0
   -3.1387   -2.8998   -0.9353 H   0  0  0  0  0  0  0  0  0  0  0  0
   -1.3807   -2.3381    0.1660 C   0  0  0  0  0  0  0  0  0  0  0  0
   -0.4301   -3.0001    0.5548 O   0  0  0  0  0  0  0  0  0  0  0  0
   -1.2011   -1.0235   -0.2083 N   0  0  0  0  0  0  0  0  0  0  0  0
   -2.0219   -0.5066   -0.5204 H   0  0  0  0  0  0  0  0  0  0  0  0
    0.0917   -0.3270   -0.2382 C   0  0  1  0  0  0  0  0  0  0  0  0
    0.8299   -0.8761    0.3554 H   0  0  0  0  0  0  0  0  0  0  0  0
    0.6201   -0.2018   -1.6839 C   0  0  0  0  0  0  0  0  0  0  0  0
    1.4630    0.4946   -1.7097 H   0  0  0  0  0  0  0  0  0  0  0  0
    0.9943   -1.1783   -2.0033 H   0  0  0  0  0  0  0  0  0  0  0  0
   -0.4245    0.2471   -2.7036 C   0  0  0  0  0  0  0  0  0  0  0  0
   -1.2753   -0.5426   -3.0831 O   0  0  0  0  0  0  0  0  0  0  0  0
   -0.3244    1.5157   -3.1633 O   0  0  0  0  0  0  0  0  0  0  0  0
   -1.0752    1.6454   -3.7616 H   0  0  0  0  0  0  0  0  0  0  0  0
   -0.0540    1.0704    0.3995 C   0  0  0  0  0  0  0  0  0  0  0  0
   -1.0284    1.7653    0.1358 O   0  0  0  0  0  0  0  0  0  0  0  0
    0.8875    1.5351    1.2991 N   0  0  0  0  0  0  0  0  0  0  0  0
    1.6547    0.9157    1.5442 H   0  0  0  0  0  0  0  0  0  0  0  0
    0.7917    2.8340    1.9547 C   0  0  0  0  0  0  0  0  0  0  0  0
   -0.1211    2.8934    2.5568 H   0  0  0  0  0  0  0  0  0  0  0  0
    1.6514    2.9902    2.6133 H   0  0  0  0  0  0  0  0  0  0  0  0
    0.7761    3.6382    1.2114 H   0  0  0  0  0  0  0  0  0  0  0  0
  1  2  1  0  0  0  0
  2  3  1  0  0  0  0
  2  4  1  0  0  0  0
  2  5  1  0  0  0  0
  5  6  2  0  0  0  0
  5  7  1  0  0  0  0
  7  8  1  0  0  0  0
  7  9  1  0  0  0  0
  9 10  1  0  0  0  0
  9 11  1  0  0  0  0
  9 18  1  0  0  0  0
 11 12  1  0  0  0  0
 11 13  1  0  0  0  0
 11 14  1  0  0  0  0
 14 15  2  0  0  0  0
 14 16  1  0  0  0  0
 16 17  1  0  0  0  0
 18 19  2  0  0  0  0
 18 20  1  0  0  0  0
 20 21  1  0  0  0  0
 20 22  1  0  0  0  0
 22 23  1  0  0  0  0
 22 24  1  0  0  0  0
 22 25  1  0  0  0  0
M  END
$$$$

  -OEChem-02102214113D

 25 24  0     1  0  0  0  0  0999 V2000
   -2.7091   -4.0375    0.3805 H   0  0  0  0  0  0  0  0  0  0  0  0
   -2.7575   -2.9868    0.0813 C   0  0  0  0  0  0  0  0  0  0  0  0
   -3.4725   -2.4683    0.7244 H   0  0  0  0  0  0  0  0  0  0  0  0
   -3.1023   -2.9306   -0.9542 H   0  0  0  0  0  0  0  0  0  0  0  0
   -1.3895   -2.3432    0.2045 C   0  0  0  0  0  0  0  0  0  0  0  0
   -0.4439   -2.9879    0.6325 O   0  0  0  0  0  0  0  0  0  0  0  0
   -1.2156   -1.0302   -0.1775 N   0  0  0  0  0  0  0  0  0  0  0  0
   -2.0195   -0.5516   -0.5826 H   0  0  0  0  0  0  0  0  0  0  0  0
    0.0762   -0.3331   -0.2228 C   0  0  1  0  0  0  0  0  0  0  0  0
    0.8212   -0.8814    0.3633 H   0  0  0  0  0  0  0  0  0  0  0  0
    0.5966   -0.1939   -1.6725 C   0  0  0  0  0  0  0  0  0  0  0  0
    1.4420    0.5001   -1.6880 H   0  0  0  0  0  0  0  0  0  0  0  0
    0.9711   -1.1681   -1.9975 H   0  0  0  0  0  0  0  0  0  0  0  0
   -0.4322    0.2626   -2.7100 C   0  0  0  0  0  0  0  0  0  0  0  0
   -1.4374   -0.4006   -2.9161 O   0  0  0  0  0  0  0  0  0  0  0  0
   -0.1464    1.4052   -3.3763 O   0  0  0  0  0  0  0  0  0  0  0  0
   -0.9051    1.5740   -3.9551 H   0  0  0  0  0  0  0  0  0  0  0  0
   -0.0606    1.0677    0.4097 C   0  0  0  0  0  0  0  0  0  0  0  0
   -1.0090    1.7851    0.1142 O   0  0  0  0  0  0  0  0  0  0  0  0
    0.8916    1.5339    1.2975 N   0  0  0  0  0  0  0  0  0  0  0  0
    1.6412    0.9014    1.5627 H   0  0  0  0  0  0  0  0  0  0  0  0
    0.8143    2.8428    1.9356 C   0  0  0  0  0  0  0  0  0  0  0  0
   -0.0996    2.9245    2.5335 H   0  0  0  0  0  0  0  0  0  0  0  0
    1.6741    2.9941    2.5953 H   0  0  0  0  0  0  0  0  0  0  0  0
    0.8138    3.6368    1.1812 H   0  0  0  0  0  0  0  0  0  0  0  0
  1  2  1  0  0  0  0
  2  3  1  0  0  0  0
  2  4  1  0  0  0  0
  2  5  1  0  0  0  0
  5  6  2  0  0  0  0
  5  7  1  0  0  0  0
  7  8  1  0  0  0  0
  7  9  1  0  0  0  0
  9 10  1  0  0  0  0
  9 11  1  0  0  0  0
  9 18  1  0  0  0  0
 11 12  1  0  0  0  0
 11 13  1  0  0  0  0
 11 14  1  0  0  0  0
 14 15  2  0  0  0  0
 14 16  1  0  0  0  0
 16 17  1  0  0  0  0
 18 19  2  0  0  0  0
 18 20  1  0  0  0  0
 20 21  1  0  0  0  0
 20 22  1  0  0  0  0
 22 23  1  0  0  0  0
 22 24  1  0  0  0  0
 22 25  1  0  0  0  0
M  END
$$$$

  -OEChem-02102214113D

 25 24  0     1  0  0  0  0  0999 V2000
   -2.7011   -4.0537    0.3883 H   0  0  0  0  0  0  0  0  0  0  0  0
   -2.7556   -3.0026    0.0918 C   0  0  0  0  0  0  0  0  0  0  0  0
   -3.4756   -2.4906    0.7346 H   0  0  0  0  0  0  0  0  0  0  0  0
   -3.0985   -2.9455   -0.9443 H   0  0  0  0  0  0  0  0  0  0  0  0
   -1.3924   -2.3500    0.2202 C   0  0  0  0  0  0  0  0  0  0  0  0
   -0.4438   -2.9889    0.6505 O   0  0  0  0  0  0  0  0  0  0  0  0
   -1.2262   -1.0360   -0.1614 N   0  0  0  0  0  0  0  0  0  0  0  0
   -2.0250   -0.5723   -0.5951 H   0  0  0  0  0  0  0  0  0  0  0  0
    0.0616   -0.3337   -0.2164 C   0  0  1  0  0  0  0  0  0  0  0  0
    0.8121   -0.8808    0.3637 H   0  0  0  0  0  0  0  0  0  0  0  0
    0.5771   -0.1853   -1.6691 C   0  0  0  0  0  0  0  0  0  0  0  0
    1.4201    0.5118   -1.6760 H   0  0  0  0  0  0  0  0  0  0  0  0
    0.9587   -1.1567   -1.9940 H   0  0  0  0  0  0  0  0  0  0  0  0
   -0.4338    0.2703   -2.7286 C   0  0  0  0  0  0  0  0  0  0  0  0
   -1.5541   -0.2140   -2.7839 O   0  0  0  0  0  0  0  0  0  0  0  0
    0.0048    1.2176   -3.5898 O   0  0  0  0  0  0  0  0  0  0  0  0
   -0.7484    1.4228   -4.1642 H   0  0  0  0  0  0  0  0  0  0  0  0
   -0.0705    1.0669    0.4179 C   0  0  0  0  0  0  0  0  0  0  0  0
   -1.0065    1.7960    0.1129 O   0  0  0  0  0  0  0  0  0  0  0  0
    0.8907    1.5317    1.2969 N   0  0  0  0  0  0  0  0  0  0  0  0
    1.6319    0.8922    1.5682 H   0  0  0  0  0  0  0  0  0  0  0  0
    0.8253    2.8441    1.9289 C   0  0  0  0  0  0  0  0  0  0  0  0
   -0.0884    2.9373    2.5257 H   0  0  0  0  0  0  0  0  0  0  0  0
    1.6857    2.9899    2.5889 H   0  0  0  0  0  0  0  0  0  0  0  0
    0.8337    3.6347    1.1710 H   0  0  0  0  0  0  0  0  0  0  0  0
  1  2  1  0  0  0  0
  2  3  1  0  0  0  0
  2  4  1  0  0  0  0
  2  5  1  0  0  0  0
  5  6  2  0  0  0  0
  5  7  1  0  0  0  0
  7  8  1  0  0  0  0
  7  9  1  0  0  0  0
  9 10  1  0  0  0  0
  9 11  1  0  0  0  0
  9 18  1  0  0  0  0
 11 12  1  0  0  0  0
 11 13  1  0  0  0  0
 11 14  1  0  0  0  0
 14 15  2  0  0  0  0
 14 16  1  0  0  0  0
 16 17  1  0  0  0  0
 18 19  2  0  0  0  0
 18 20  1  0  0  0  0
 20 21  1  0  0  0  0
 20 22  1  0  0  0  0
 22 23  1  0  0  0  0
 22 24  1  0  0  0  0
 22 25  1  0  0  0  0
M  END
$$$$

  -OEChem-02102214113D

 25 24  0     1  0  0  0  0  0999 V2000
   -2.6971   -4.0588    0.4025 H   0  0  0  0  0  0  0  0  0  0  0  0
   -2.7569   -3.0074    0.1083 C   0  0  0  0  0  0  0  0  0  0  0  0
   -3.4639   -2.4960    0.7659 H   0  0  0  0  0  0  0  0  0  0  0  0
   -3.1198   -2.9486   -0.9208 H   0  0  0  0  0  0  0  0  0  0  0  0
   -1.3912   -2.3560    0.2126 C   0  0  0  0  0  0  0  0  0  0  0  0
   -0.4351   -2.9972    0.6219 O   0  0  0  0  0  0  0  0  0  0  0  0
   -1.2315   -1.0393   -0.1611 N   0  0  0  0  0  0  0  0  0  0  0  0
   -2.0359   -0.5691   -0.5784 H   0  0  0  0  0  0  0  0  0  0  0  0
    0.0511   -0.3287   -0.2171 C   0  0  1  0  0  0  0  0  0  0  0  0
    0.8043   -0.8753    0.3597 H   0  0  0  0  0  0  0  0  0  0  0  0
    0.5660   -0.1781   -1.6707 C   0  0  0  0  0  0  0  0  0  0  0  0
    1.4045    0.5244   -1.6747 H   0  0  0  0  0  0  0  0  0  0  0  0
    0.9567   -1.1479   -1.9895 H   0  0  0  0  0  0  0  0  0  0  0  0
   -0.4309    0.2685   -2.7497 C   0  0  0  0  0  0  0  0  0  0  0  0
   -1.6205    0.0003   -2.6791 O   0  0  0  0  0  0  0  0  0  0  0  0
    0.1070    0.9623   -3.7794 O   0  0  0  0  0  0  0  0  0  0  0  0
   -0.6359    1.1973   -4.3560 H   0  0  0  0  0  0  0  0  0  0  0  0
   -0.0803    1.0684    0.4251 C   0  0  0  0  0  0  0  0  0  0  0  0
   -1.0155    1.8014    0.1289 O   0  0  0  0  0  0  0  0  0  0  0  0
    0.8863    1.5294    1.3005 N   0  0  0  0  0  0  0  0  0  0  0  0
    1.6274    0.8876    1.5672 H   0  0  0  0  0  0  0  0  0  0  0  0
    0.8291    2.8423    1.9328 C   0  0  0  0  0  0  0  0  0  0  0  0
   -0.0849    2.9426    2.5279 H   0  0  0  0  0  0  0  0  0  0  0  0
    1.6895    2.9821    2.5942 H   0  0  0  0  0  0  0  0  0  0  0  0
    0.8439    3.6327    1.1748 H   0  0  0  0  0  0  0  0  0  0  0  0
  1  2  1  0  0  0  0
  2  3  1  0  0  0  0
  2  4  1  0  0  0  0
  2  5  1  0  0  0  0
  5  6  2  0  0  0  0
  5  7  1  0  0  0  0
  7  8  1  0  0  0  0
  7  9  1  0  0  0  0
  9 10  1  0  0  0  0
  9 11  1  0  0  0  0
  9 18  1  0  0  0  0
 11 12  1  0  0  0  0
 11 13  1  0  0  0  0
 11 14  1  0  0  0  0
 14 15  2  0  0  0  0
 14 16  1  0  0  0  0
 16 17  1  0  0  0  0
 18 19  2  0  0  0  0
 18 20  1  0  0  0  0
 20 21  1  0  0  0  0
 20 22  1  0  0  0  0
 22 23  1  0  0  0  0
 22 24  1  0  0  0  0
 22 25  1  0  0  0  0
M  END
$$$$

  -OEChem-02102214113D

 25 24  0     1  0  0  0  0  0999 V2000
   -2.6962   -4.0530    0.4068 H   0  0  0  0  0  0  0  0  0  0  0  0
   -2.7580   -3.0019    0.1122 C   0  0  0  0  0  0  0  0  0  0  0  0
   -3.4567   -2.4888    0.7773 H   0  0  0  0  0  0  0  0  0  0  0  0
   -3.1326   -2.9439   -0.9126 H   0  0  0  0  0  0  0  0  0  0  0  0
   -1.3903   -2.3521    0.1991 C   0  0  0  0  0  0  0  0  0  0  0  0
   -0.4264   -2.9989    0.5804 O   0  0  0  0  0  0  0  0  0  0  0  0
   -1.2361   -1.0326   -0.1670 N   0  0  0  0  0  0  0  0  0  0  0  0
   -2.0515   -0.5483   -0.5458 H   0  0  0  0  0  0  0  0  0  0  0  0
    0.0413   -0.3122   -0.2208 C   0  0  1  0  0  0  0  0  0  0  0  0
    0.7933   -0.8575    0.3587 H   0  0  0  0  0  0  0  0  0  0  0  0
    0.5607   -0.1769   -1.6734 C   0  0  0  0  0  0  0  0  0  0  0  0
    1.3937    0.5315   -1.6841 H   0  0  0  0  0  0  0  0  0  0  0  0
    0.9594   -1.1491   -1.9742 H   0  0  0  0  0  0  0  0  0  0  0  0
   -0.4277    0.2459   -2.7691 C   0  0  0  0  0  0  0  0  0  0  0  0
   -1.6367    0.2175   -2.5997 O   0  0  0  0  0  0  0  0  0  0  0  0
    0.1427    0.6453   -3.9292 O   0  0  0  0  0  0  0  0  0  0  0  0
   -0.5912    0.9007   -4.5089 H   0  0  0  0  0  0  0  0  0  0  0  0
   -0.0843    1.0837    0.4260 C   0  0  0  0  0  0  0  0  0  0  0  0
   -1.0312    1.8129    0.1613 O   0  0  0  0  0  0  0  0  0  0  0  0
    0.8899    1.5371    1.2969 N   0  0  0  0  0  0  0  0  0  0  0  0
    1.6375    0.8954    1.5448 H   0  0  0  0  0  0  0  0  0  0  0  0
    0.8319    2.8383    1.9524 C   0  0  0  0  0  0  0  0  0  0  0  0
   -0.0667    2.9148    2.5735 H   0  0  0  0  0  0  0  0  0  0  0  0
    1.7082    2.9794    2.5924 H   0  0  0  0  0  0  0  0  0  0  0  0
    0.8153    3.6414    1.2081 H   0  0  0  0  0  0  0  0  0  0  0  0
  1  2  1  0  0  0  0
  2  3  1  0  0  0  0
  2  4  1  0  0  0  0
  2  5  1  0  0  0  0
  5  6  2  0  0  0  0
  5  7  1  0  0  0  0
  7  8  1  0  0  0  0
  7  9  1  0  0  0  0
  9 10  1  0  0  0  0
  9 11  1  0  0  0  0
  9 18  1  0  0  0  0
 11 12  1  0  0  0  0
 11 13  1  0  0  0  0
 11 14  1  0  0  0  0
 14 15  2  0  0  0  0
 14 16  1  0  0  0  0
 16 17  1  0  0  0  0
 18 19  2  0  0  0  0
 18 20  1  0  0  0  0
 20 21  1  0  0  0  0
 20 22  1  0  0  0  0
 22 23  1  0  0  0  0
 22 24  1  0  0  0  0
 22 25  1  0  0  0  0
M  END
$$$$

  -OEChem-02102214113D

 25 24  0     1  0  0  0  0  0999 V2000
   -2.6985   -4.0351    0.4158 H   0  0  0  0  0  0  0  0  0  0  0  0
   -2.7617   -2.9839    0.1217 C   0  0  0  0  0  0  0  0  0  0  0  0
   -3.4376   -2.4654    0.8062 H   0  0  0  0  0  0  0  0  0  0  0  0
   -3.1652   -2.9246   -0.8920 H   0  0  0  0  0  0  0  0  0  0  0  0
   -1.3873   -2.3437    0.1689 C   0  0  0  0  0  0  0  0  0  0  0  0
   -0.4155   -3.0001    0.5114 O   0  0  0  0  0  0  0  0  0  0  0  0
   -1.2361   -1.0210   -0.1870 N   0  0  0  0  0  0  0  0  0  0  0  0
   -2.0640   -0.5152   -0.5054 H   0  0  0  0  0  0  0  0  0  0  0  0
    0.0371   -0.2926   -0.2330 C   0  0  1  0  0  0  0  0  0  0  0  0
    0.7838   -0.8374    0.3542 H   0  0  0  0  0  0  0  0  0  0  0  0
    0.5681   -0.1811   -1.6820 C   0  0  0  0  0  0  0  0  0  0  0  0
    1.3964    0.5323   -1.7032 H   0  0  0  0  0  0  0  0  0  0  0  0
    0.9737   -1.1574   -1.9601 H   0  0  0  0  0  0  0  0  0  0  0  0
   -0.4175    0.2134   -2.7889 C   0  0  0  0  0  0  0  0  0  0  0  0
   -1.5946    0.4376   -2.5576 O   0  0  0  0  0  0  0  0  0  0  0  0
    0.1177    0.3001   -4.0285 O   0  0  0  0  0  0  0  0  0  0  0  0
   -0.6085    0.5741   -4.6095 H   0  0  0  0  0  0  0  0  0  0  0  0
   -0.0856    1.1012    0.4210 C   0  0  0  0  0  0  0  0  0  0  0  0
   -1.0561    1.8151    0.2065 O   0  0  0  0  0  0  0  0  0  0  0  0
    0.8926    1.5463    1.2919 N   0  0  0  0  0  0  0  0  0  0  0  0
    1.6545    0.9113    1.5113 H   0  0  0  0  0  0  0  0  0  0  0  0
    0.8246    2.8301    1.9799 C   0  0  0  0  0  0  0  0  0  0  0  0
   -0.0602    2.8738    2.6238 H   0  0  0  0  0  0  0  0  0  0  0  0
    1.7132    2.9741    2.6020 H   0  0  0  0  0  0  0  0  0  0  0  0
    0.7740    3.6501    1.2557 H   0  0  0  0  0  0  0  0  0  0  0  0
  1  2  1  0  0  0  0
  2  3  1  0  0  0  0
  2  4  1  0  0  0  0
  2  5  1  0  0  0  0
  5  6  2  0  0  0  0
  5  7  1  0  0  0  0
  7  8  1  0  0  0  0
  7  9  1  0  0  0  0
  9 10  1  0  0  0  0
  9 11  1  0  0  0  0
  9 18  1  0  0  0  0
 11 12  1  0  0  0  0
 11 13  1  0  0  0  0
 11 14  1  0  0  0  0
 14 15  2  0  0  0  0
 14 16  1  0  0  0  0
 16 17  1  0  0  0  0
 18 19  2  0  0  0  0
 18 20  1  0  0  0  0
 20 21  1  0  0  0  0
 20 22  1  0  0  0  0
 22 23  1  0  0  0  0
 22 24  1  0  0  0  0
 22 25  1  0  0  0  0
M  END
$$$$

  -OEChem-02102214113D

 25 24  0     1  0  0  0  0  0999 V2000
   -2.7024   -4.0065    0.4377 H   0  0  0  0  0  0  0  0  0  0  0  0
   -2.7665   -2.9554    0.1430 C   0  0  0  0  0  0  0  0  0  0  0  0
   -3.4085   -2.4285    0.8530 H   0  0  0  0  0  0  0  0  0  0  0  0
   -3.2106   -2.8947   -0.8535 H   0  0  0  0  0  0  0  0  0  0  0  0
   -1.3850   -2.3293    0.1324 C   0  0  0  0  0  0  0  0  0  0  0  0
   -0.4057   -2.9977    0.4262 O   0  0  0  0  0  0  0  0  0  0  0  0
   -1.2361   -1.0044   -0.2164 N   0  0  0  0  0  0  0  0  0  0  0  0
   -2.0764   -0.4747   -0.4519 H   0  0  0  0  0  0  0  0  0  0  0  0
    0.0353   -0.2719   -0.2548 C   0  0  1  0  0  0  0  0  0  0  0  0
    0.7727   -0.8159    0.3448 H   0  0  0  0  0  0  0  0  0  0  0  0
    0.5849   -0.1903   -1.6974 C   0  0  0  0  0  0  0  0  0  0  0  0
    1.4111    0.5244   -1.7291 H   0  0  0  0  0  0  0  0  0  0  0  0
    0.9942   -1.1725   -1.9495 H   0  0  0  0  0  0  0  0  0  0  0  0
   -0.3989    0.1758   -2.8127 C   0  0  0  0  0  0  0  0  0  0  0  0
   -1.4932    0.6538   -2.5669 O   0  0  0  0  0  0  0  0  0  0  0  0
    0.0414   -0.0472   -4.0725 O   0  0  0  0  0  0  0  0  0  0  0  0
   -0.6725    0.2500   -4.6572 H   0  0  0  0  0  0  0  0  0  0  0  0
   -0.0851    1.1206    0.4042 C   0  0  0  0  0  0  0  0  0  0  0  0
   -1.0887    1.8048    0.2562 O   0  0  0  0  0  0  0  0  0  0  0  0
    0.8954    1.5587    1.2767 N   0  0  0  0  0  0  0  0  0  0  0  0
    1.6800    0.9390    1.4559 H   0  0  0  0  0  0  0  0  0  0  0  0
    0.8061    2.8137    2.0143 C   0  0  0  0  0  0  0  0  0  0  0  0
   -0.0604    2.8041    2.6838 H   0  0  0  0  0  0  0  0  0  0  0  0
    1.7074    2.9646    2.6162 H   0  0  0  0  0  0  0  0  0  0  0  0
    0.7074    3.6576    1.3232 H   0  0  0  0  0  0  0  0  0  0  0  0
  1  2  1  0  0  0  0
  2  3  1  0  0  0  0
  2  4  1  0  0  0  0
  2  5  1  0  0  0  0
  5  6  2  0  0  0  0
  5  7  1  0  0  0  0
  7  8  1  0  0  0  0
  7  9  1  0  0  0  0
  9 10  1  0  0  0  0
  9 11  1  0  0  0  0
  9 18  1  0  0  0  0
 11 12  1  0  0  0  0
 11 13  1  0  0  0  0
 11 14  1  0  0  0  0
 14 15  2  0  0  0  0
 14 16  1  0  0  0  0
 16 17  1  0  0  0  0
 18 19  2  0  0  0  0
 18 20  1  0  0  0  0
 20 21  1  0  0  0  0
 20 22  1  0  0  0  0
 22 23  1  0  0  0  0
 22 24  1  0  0  0  0
 22 25  1  0  0  0  0
M  END
$$$$

  -OEChem-02102214113D

 25 24  0     1  0  0  0  0  0999 V2000
   -2.7062   -3.9757    0.4724 H   0  0  0  0  0  0  0  0  0  0  0  0
   -2.7701   -2.9264    0.1712 C   0  0  0  0  0  0  0  0  0  0  0  0
   -3.3753   -2.3856    0.9030 H   0  0  0  0  0  0  0  0  0  0  0  0
   -3.2551   -2.8683   -0.8063 H   0  0  0  0  0  0  0  0  0  0  0  0
   -1.3826   -2.3176    0.0971 C   0  0  0  0  0  0  0  0  0  0  0  0
   -0.3992   -2.9993    0.3427 O   0  0  0  0  0  0  0  0  0  0  0  0
   -1.2340   -0.9914   -0.2483 N   0  0  0  0  0  0  0  0  0  0  0  0
   -2.0798   -0.4399   -0.3965 H   0  0  0  0  0  0  0  0  0  0  0  0
    0.0392   -0.2610   -0.2777 C   0  0  1  0  0  0  0  0  0  0  0  0
    0.7668   -0.8050    0.3336 H   0  0  0  0  0  0  0  0  0  0  0  0
    0.6071   -0.2012   -1.7128 C   0  0  0  0  0  0  0  0  0  0  0  0
    1.4339    0.5125   -1.7499 H   0  0  0  0  0  0  0  0  0  0  0  0
    1.0168   -1.1880   -1.9471 H   0  0  0  0  0  0  0  0  0  0  0  0
   -0.3776    0.1512   -2.8289 C   0  0  0  0  0  0  0  0  0  0  0  0
   -1.3386    0.8678   -2.6122 O   0  0  0  0  0  0  0  0  0  0  0  0
   -0.0948   -0.3548   -4.0516 O   0  0  0  0  0  0  0  0  0  0  0  0
   -0.7926   -0.0277   -4.6397 H   0  0  0  0  0  0  0  0  0  0  0  0
   -0.0849    1.1301    0.3848 C   0  0  0  0  0  0  0  0  0  0  0  0
   -1.1156    1.7830    0.2881 O   0  0  0  0  0  0  0  0  0  0  0  0
    0.8918    1.5643    1.2638 N   0  0  0  0  0  0  0  0  0  0  0  0
    1.6959    0.9620    1.4130 H   0  0  0  0  0  0  0  0  0  0  0  0
    0.7814    2.7962    2.0368 C   0  0  0  0  0  0  0  0  0  0  0  0
   -0.0824    2.7508    2.7085 H   0  0  0  0  0  0  0  0  0  0  0  0
    1.6817    2.9468    2.6402 H   0  0  0  0  0  0  0  0  0  0  0  0
    0.6647    3.6574    1.3702 H   0  0  0  0  0  0  0  0  0  0  0  0
  1  2  1  0  0  0  0
  2  3  1  0  0  0  0
  2  4  1  0  0  0  0
  2  5  1  0  0  0  0
  5  6  2  0  0  0  0
  5  7  1  0  0  0  0
  7  8  1  0  0  0  0
  7  9  1  0  0  0  0
  9 10  1  0  0  0  0
  9 11  1  0  0  0  0
  9 18  1  0  0  0  0
 11 12  1  0  0  0  0
 11 13  1  0  0  0  0
 11 14  1  0  0  0  0
 14 15  2  0  0  0  0
 14 16  1  0  0  0  0
 16 17  1  0  0  0  0
 18 19  2  0  0  0  0
 18 20  1  0  0  0  0
 20 21  1  0  0  0  0
 20 22  1  0  0  0  0
 22 23  1  0  0  0  0
 22 24  1  0  0  0  0
 22 25  1  0  0  0  0
M  END
$$$$

  -OEChem-02102214113D

 25 24  0     1  0  0  0  0  0999 V2000
   -2.7125   -3.9514    0.4975 H   0  0  0  0  0  0  0  0  0  0  0  0
   -2.7721   -2.9038    0.1899 C   0  0  0  0  0  0  0  0  0  0  0  0
   -3.3534   -2.3509    0.9318 H   0  0  0  0  0  0  0  0  0  0  0  0
   -3.2800   -2.8478   -0.7759 H   0  0  0  0  0  0  0  0  0  0  0  0
   -1.3804   -2.3109    0.0774 C   0  0  0  0  0  0  0  0  0  0  0  0
   -0.3986   -3.0027    0.2996 O   0  0  0  0  0  0  0  0  0  0  0  0
   -1.2268   -0.9858   -0.2704 N   0  0  0  0  0  0  0  0  0  0  0  0
   -2.0710   -0.4194   -0.3597 H   0  0  0  0  0  0  0  0  0  0  0  0
    0.0514   -0.2630   -0.2927 C   0  0  1  0  0  0  0  0  0  0  0  0
    0.7720   -0.8074    0.3268 H   0  0  0  0  0  0  0  0  0  0  0  0
    0.6296   -0.2144   -1.7231 C   0  0  0  0  0  0  0  0  0  0  0  0
    1.4586    0.4968   -1.7624 H   0  0  0  0  0  0  0  0  0  0  0  0
    1.0366   -1.2035   -1.9523 H   0  0  0  0  0  0  0  0  0  0  0  0
   -0.3606    0.1399   -2.8313 C   0  0  0  0  0  0  0  0  0  0  0  0
   -1.1421    1.0612   -2.6813 O   0  0  0  0  0  0  0  0  0  0  0  0
   -0.2960   -0.5990   -3.9633 O   0  0  0  0  0  0  0  0  0  0  0  0
   -0.9739   -0.2365   -4.5536 H   0  0  0  0  0  0  0  0  0  0  0  0
   -0.0810    1.1278    0.3687 C   0  0  0  0  0  0  0  0  0  0  0  0
   -1.1291    1.7564    0.2940 O   0  0  0  0  0  0  0  0  0  0  0  0
    0.8859    1.5642    1.2572 N   0  0  0  0  0  0  0  0  0  0  0  0
    1.7055    0.9792    1.3905 H   0  0  0  0  0  0  0  0  0  0  0  0
    0.7564    2.7851    2.0445 C   0  0  0  0  0  0  0  0  0  0  0  0
   -0.1127    2.7234    2.7081 H   0  0  0  0  0  0  0  0  0  0  0  0
    1.6497    2.9373    2.6579 H   0  0  0  0  0  0  0  0  0  0  0  0
    0.6366    3.6530    1.3873 H   0  0  0  0  0  0  0  0  0  0  0  0
  1  2  1  0  0  0  0
  2  3  1  0  0  0  0
  2  4  1  0  0  0  0
  2  5  1  0  0  0  0
  5  6  2  0  0  0  0
  5  7  1  0  0  0  0
  7  8  1  0  0  0  0
  7  9  1  0  0  0  0
  9 10  1  0  0  0  0
  9 11  1  0  0  0  0
  9 18  1  0  0  0  0
 11 12  1  0  0  0  0
 11 13  1  0  0  0  0
 11 14  1  0  0  0  0
 14 15  2  0  0  0  0
 14 16  1  0  0  0  0
 16 17  1  0  0  0  0
 18 19  2  0  0  0  0
 18 20  1  0  0  0  0
 20 21  1  0  0  0  0
 20 22  1  0  0  0  0
 22 23  1  0  0  0  0
 22 24  1  0  0  0  0
 22 25  1  0  0  0  0
M  END
$$$$

  -OEChem-02102214113D

 25 24  0     1  0  0  0  0  0999 V2000
   -2.7176   -3.9411    0.5024 H   0  0  0  0  0  0  0  0  0  0  0  0
   -2.7724   -2.8929    0.1953 C   0  0  0  0  0  0  0  0  0  0  0  0
   -3.3472   -2.3371    0.9401 H   0  0  0  0  0  0  0  0  0  0  0  0
   -3.2838   -2.8339   -0.7684 H   0  0  0  0  0  0  0  0  0  0  0  0
   -1.3776   -2.3087    0.0767 C   0  0  0  0  0  0  0  0  0  0  0  0
   -0.4002   -3.0041    0.3069 O   0  0  0  0  0  0  0  0  0  0  0  0
   -1.2161   -0.9868   -0.2810 N   0  0  0  0  0  0  0  0  0  0  0  0
   -2.0565   -0.4127   -0.3530 H   0  0  0  0  0  0  0  0  0  0  0  0
    0.0682   -0.2744   -0.2979 C   0  0  1  0  0  0  0  0  0  0  0  0
    0.7842   -0.8180    0.3274 H   0  0  0  0  0  0  0  0  0  0  0  0
    0.6495   -0.2284   -1.7259 C   0  0  0  0  0  0  0  0  0  0  0  0
    1.4828    0.4778   -1.7653 H   0  0  0  0  0  0  0  0  0  0  0  0
    1.0489   -1.2193   -1.9612 H   0  0  0  0  0  0  0  0  0  0  0  0
   -0.3507    0.1387   -2.8183 C   0  0  0  0  0  0  0  0  0  0  0  0
   -0.9202    1.2135   -2.7696 O   0  0  0  0  0  0  0  0  0  0  0  0
   -0.5473   -0.7621   -3.8091 O   0  0  0  0  0  0  0  0  0  0  0  0
   -1.2003   -0.3611   -4.4025 H   0  0  0  0  0  0  0  0  0  0  0  0
   -0.0729    1.1195    0.3538 C   0  0  0  0  0  0  0  0  0  0  0  0
   -1.1255    1.7396    0.2661 O   0  0  0  0  0  0  0  0  0  0  0  0
    0.8820    1.5623    1.2517 N   0  0  0  0  0  0  0  0  0  0  0  0
    1.7042    0.9831    1.3933 H   0  0  0  0  0  0  0  0  0  0  0  0
    0.7355    2.7818    2.0377 C   0  0  0  0  0  0  0  0  0  0  0  0
   -0.1332    2.7085    2.7008 H   0  0  0  0  0  0  0  0  0  0  0  0
    1.6265    2.9459    2.6513 H   0  0  0  0  0  0  0  0  0  0  0  0
    0.6044    3.6478    1.3800 H   0  0  0  0  0  0  0  0  0  0  0  0
  1  2  1  0  0  0  0
  2  3  1  0  0  0  0
  2  4  1  0  0  0  0
  2  5  1  0  0  0  0
  5  6  2  0  0  0  0
  5  7  1  0  0  0  0
  7  8  1  0  0  0  0
  7  9  1  0  0  0  0
  9 10  1  0  0  0  0
  9 11  1  0  0  0  0
  9 18  1  0  0  0  0
 11 12  1  0  0  0  0
 11 13  1  0  0  0  0
 11 14  1  0  0  0  0
 14 15  2  0  0  0  0
 14 16  1  0  0  0  0
 16 17  1  0  0  0  0
 18 19  2  0  0  0  0
 18 20  1  0  0  0  0
 20 21  1  0  0  0  0
 20 22  1  0  0  0  0
 22 23  1  0  0  0  0
 22 24  1  0  0  0  0
 22 25  1  0  0  0  0
M  END
$$$$

  -OEChem-02102214113D

 25 24  0     1  0  0  0  0  0999 V2000
   -2.7214   -3.9465    0.5125 H   0  0  0  0  0  0  0  0  0  0  0  0
   -2.7704   -2.9015    0.1938 C   0  0  0  0  0  0  0  0  0  0  0  0
   -3.3524   -2.3364    0.9259 H   0  0  0  0  0  0  0  0  0  0  0  0
   -3.2707   -2.8514   -0.7763 H   0  0  0  0  0  0  0  0  0  0  0  0
   -1.3730   -2.3218    0.0846 C   0  0  0  0  0  0  0  0  0  0  0  0
   -0.3997   -3.0182    0.3294 O   0  0  0  0  0  0  0  0  0  0  0  0
   -1.2053   -1.0022   -0.2788 N   0  0  0  0  0  0  0  0  0  0  0  0
   -2.0434   -0.4260   -0.3561 H   0  0  0  0  0  0  0  0  0  0  0  0
    0.0830   -0.2963   -0.2913 C   0  0  1  0  0  0  0  0  0  0  0  0
    0.8006   -0.8403    0.3320 H   0  0  0  0  0  0  0  0  0  0  0  0
    0.6576   -0.2353   -1.7206 C   0  0  0  0  0  0  0  0  0  0  0  0
    1.4944    0.4675   -1.7557 H   0  0  0  0  0  0  0  0  0  0  0  0
    1.0490   -1.2243   -1.9760 H   0  0  0  0  0  0  0  0  0  0  0  0
   -0.3556    0.1532   -2.7919 C   0  0  0  0  0  0  0  0  0  0  0  0
   -0.7036    1.3174   -2.8728 O   0  0  0  0  0  0  0  0  0  0  0  0
   -0.8164   -0.8214   -3.6108 O   0  0  0  0  0  0  0  0  0  0  0  0
   -1.4351   -0.3846   -4.2155 H   0  0  0  0  0  0  0  0  0  0  0  0
   -0.0679    1.0985    0.3548 C   0  0  0  0  0  0  0  0  0  0  0  0
   -1.1146    1.7227    0.2302 O   0  0  0  0  0  0  0  0  0  0  0  0
    0.8737    1.5514    1.2612 N   0  0  0  0  0  0  0  0  0  0  0  0
    1.6975    0.9777    1.4162 H   0  0  0  0  0  0  0  0  0  0  0  0
    0.7266    2.7921    2.0133 C   0  0  0  0  0  0  0  0  0  0  0  0
   -0.1649    2.7521    2.6482 H   0  0  0  0  0  0  0  0  0  0  0  0
    1.5996    2.9537    2.6529 H   0  0  0  0  0  0  0  0  0  0  0  0
    0.6352    3.6444    1.3316 H   0  0  0  0  0  0  0  0  0  0  0  0
  1  2  1  0  0  0  0
  2  3  1  0  0  0  0
  2  4  1  0  0  0  0
  2  5  1  0  0  0  0
  5  6  2  0  0  0  0
  5  7  1  0  0  0  0
  7  8  1  0  0  0  0
  7  9  1  0  0  0  0
  9 10  1  0  0  0  0
  9 11  1  0  0  0  0
  9 18  1  0  0  0  0
 11 12  1  0  0  0  0
 11 13  1  0  0  0  0
 11 14  1  0  0  0  0
 14 15  2  0  0  0  0
 14 16  1  0  0  0  0
 16 17  1  0  0  0  0
 18 19  2  0  0  0  0
 18 20  1  0  0  0  0
 20 21  1  0  0  0  0
 20 22  1  0  0  0  0
 22 23  1  0  0  0  0
 22 24  1  0  0  0  0
 22 25  1  0  0  0  0
M  END
$$$$

  -OEChem-02102214113D

 25 24  0     1  0  0  0  0  0999 V2000
   -2.7217   -3.9624    0.5074 H   0  0  0  0  0  0  0  0  0  0  0  0
   -2.7673   -2.9174    0.1885 C   0  0  0  0  0  0  0  0  0  0  0  0
   -3.3667   -2.3546    0.9082 H   0  0  0  0  0  0  0  0  0  0  0  0
   -3.2465   -2.8686   -0.7923 H   0  0  0  0  0  0  0  0  0  0  0  0
   -1.3698   -2.3332    0.1092 C   0  0  0  0  0  0  0  0  0  0  0  0
   -0.4004   -3.0236    0.3843 O   0  0  0  0  0  0  0  0  0  0  0  0
   -1.1979   -1.0166   -0.2629 N   0  0  0  0  0  0  0  0  0  0  0  0
   -2.0353   -0.4460   -0.3755 H   0  0  0  0  0  0  0  0  0  0  0  0
    0.0926   -0.3151   -0.2804 C   0  0  1  0  0  0  0  0  0  0  0  0
    0.8162   -0.8582    0.3367 H   0  0  0  0  0  0  0  0  0  0  0  0
    0.6538   -0.2359   -1.7139 C   0  0  0  0  0  0  0  0  0  0  0  0
    1.4952    0.4621   -1.7463 H   0  0  0  0  0  0  0  0  0  0  0  0
    1.0358   -1.2226   -1.9903 H   0  0  0  0  0  0  0  0  0  0  0  0
   -0.3727    0.1723   -2.7650 C   0  0  0  0  0  0  0  0  0  0  0  0
   -0.5075    1.3587   -3.0066 O   0  0  0  0  0  0  0  0  0  0  0  0
   -1.0718   -0.8022   -3.3947 O   0  0  0  0  0  0  0  0  0  0  0  0
   -1.6528   -0.3433   -4.0203 H   0  0  0  0  0  0  0  0  0  0  0  0
   -0.0627    1.0820    0.3576 C   0  0  0  0  0  0  0  0  0  0  0  0
   -1.0957    1.7190    0.1895 O   0  0  0  0  0  0  0  0  0  0  0  0
    0.8731    1.5455    1.2643 N   0  0  0  0  0  0  0  0  0  0  0  0
    1.6838    0.9620    1.4495 H   0  0  0  0  0  0  0  0  0  0  0  0
    0.7274    2.8018    1.9901 C   0  0  0  0  0  0  0  0  0  0  0  0
   -0.1693    2.7795    2.6184 H   0  0  0  0  0  0  0  0  0  0  0  0
    1.5964    2.9709    2.6333 H   0  0  0  0  0  0  0  0  0  0  0  0
    0.6470    3.6409    1.2908 H   0  0  0  0  0  0  0  0  0  0  0  0
  1  2  1  0  0  0  0
  2  3  1  0  0  0  0
  2  4  1  0  0  0  0
  2  5  1  0  0  0  0
  5  6  2  0  0  0  0
  5  7  1  0  0  0  0
  7  8  1  0  0  0  0
  7  9  1  0  0  0  0
  9 10  1  0  0  0  0
  9 11  1  0  0  0  0
  9 18  1  0  0  0  0
 11 12  1  0  0  0  0
 11 13  1  0  0  0  0
 11 14  1  0  0  0  0
 14 15  2  0  0  0  0
 14 16  1  0  0  0  0
 16 17  1  0  0  0  0
 18 19  2  0  0  0  0
 18 20  1  0  0  0  0
 20 21  1  0  0  0  0
 20 22  1  0  0  0  0
 22 23  1  0  0  0  0
 22 24  1  0  0  0  0
 22 25  1  0  0  0  0
M  END
$$$$

  -OEChem-02102214113D

 25 24  0     1  0  0  0  0  0999 V2000
   -2.7201   -3.9908    0.5054 H   0  0  0  0  0  0  0  0  0  0  0  0
   -2.7654   -2.9465    0.1842 C   0  0  0  0  0  0  0  0  0  0  0  0
   -3.3888   -2.3877    0.8863 H   0  0  0  0  0  0  0  0  0  0  0  0
   -3.2174   -2.9024   -0.8096 H   0  0  0  0  0  0  0  0  0  0  0  0
   -1.3710   -2.3510    0.1426 C   0  0  0  0  0  0  0  0  0  0  0  0
   -0.4040   -3.0326    0.4470 O   0  0  0  0  0  0  0  0  0  0  0  0
   -1.1993   -1.0354   -0.2323 N   0  0  0  0  0  0  0  0  0  0  0  0
   -2.0365   -0.4804   -0.4048 H   0  0  0  0  0  0  0  0  0  0  0  0
    0.0899   -0.3328   -0.2613 C   0  0  1  0  0  0  0  0  0  0  0  0
    0.8238   -0.8760    0.3433 H   0  0  0  0  0  0  0  0  0  0  0  0
    0.6348   -0.2226   -1.6999 C   0  0  0  0  0  0  0  0  0  0  0  0
    1.4789    0.4731   -1.7229 H   0  0  0  0  0  0  0  0  0  0  0  0
    1.0112   -1.2037   -2.0010 H   0  0  0  0  0  0  0  0  0  0  0  0
   -0.3986    0.2068   -2.7384 C   0  0  0  0  0  0  0  0  0  0  0  0
   -0.3406    1.3511   -3.1532 O   0  0  0  0  0  0  0  0  0  0  0  0
   -1.2918   -0.7059   -3.1921 O   0  0  0  0  0  0  0  0  0  0  0  0
   -1.8262   -0.2386   -3.8522 H   0  0  0  0  0  0  0  0  0  0  0  0
   -0.0670    1.0634    0.3763 C   0  0  0  0  0  0  0  0  0  0  0  0
   -1.0806    1.7190    0.1662 O   0  0  0  0  0  0  0  0  0  0  0  0
    0.8704    1.5344    1.2771 N   0  0  0  0  0  0  0  0  0  0  0  0
    1.6730    0.9450    1.4785 H   0  0  0  0  0  0  0  0  0  0  0  0
    0.7450    2.8148    1.9630 C   0  0  0  0  0  0  0  0  0  0  0  0
   -0.1531    2.8278    2.5896 H   0  0  0  0  0  0  0  0  0  0  0  0
    1.6156    2.9889    2.6026 H   0  0  0  0  0  0  0  0  0  0  0  0
    0.6805    3.6328    1.2375 H   0  0  0  0  0  0  0  0  0  0  0  0
  1  2  1  0  0  0  0
  2  3  1  0  0  0  0
  2  4  1  0  0  0  0
  2  5  1  0  0  0  0
  5  6  2  0  0  0  0
  5  7  1  0  0  0  0
  7  8  1  0  0  0  0
  7  9  1  0  0  0  0
  9 10  1  0  0  0  0
  9 11  1  0  0  0  0
  9 18  1  0  0  0  0
 11 12  1  0  0  0  0
 11 13  1  0  0  0  0
 11 14  1  0  0  0  0
 14 15  2  0  0  0  0
 14 16  1  0  0  0  0
 16 17  1  0  0  0  0
 18 19  2  0  0  0  0
 18 20  1  0  0  0  0
 20 21  1  0  0  0  0
 20 22  1  0  0  0  0
 22 23  1  0  0  0  0
 22 24  1  0  0  0  0
 22 25  1  0  0  0  0
M  END
$$$$

  -OEChem-02102214113D

 25 24  0     1  0  0  0  0  0999 V2000
   -2.7080   -4.0235    0.4829 H   0  0  0  0  0  0  0  0  0  0  0  0
   -2.7570   -2.9783    0.1656 C   0  0  0  0  0  0  0  0  0  0  0  0
   -3.4210   -2.4344    0.8416 H   0  0  0  0  0  0  0  0  0  0  0  0
   -3.1644   -2.9357   -0.8475 H   0  0  0  0  0  0  0  0  0  0  0  0
   -1.3727   -2.3592    0.1905 C   0  0  0  0  0  0  0  0  0  0  0  0
   -0.4100   -3.0228    0.5443 O   0  0  0  0  0  0  0  0  0  0  0  0
   -1.2051   -1.0444   -0.1882 N   0  0  0  0  0  0  0  0  0  0  0  0
   -2.0350   -0.5242   -0.4690 H   0  0  0  0  0  0  0  0  0  0  0  0
    0.0819   -0.3406   -0.2371 C   0  0  1  0  0  0  0  0  0  0  0  0
    0.8290   -0.8838    0.3510 H   0  0  0  0  0  0  0  0  0  0  0  0
    0.6022   -0.2068   -1.6851 C   0  0  0  0  0  0  0  0  0  0  0  0
    1.4492    0.4858   -1.7052 H   0  0  0  0  0  0  0  0  0  0  0  0
    0.9726   -1.1848   -2.0034 H   0  0  0  0  0  0  0  0  0  0  0  0
   -0.4336    0.2378   -2.7193 C   0  0  0  0  0  0  0  0  0  0  0  0
   -0.2058    1.2748   -3.3180 O   0  0  0  0  0  0  0  0  0  0  0  0
   -1.4989   -0.5561   -2.9905 O   0  0  0  0  0  0  0  0  0  0  0  0
   -1.9903   -0.0960   -3.6885 H   0  0  0  0  0  0  0  0  0  0  0  0
   -0.0695    1.0557    0.4011 C   0  0  0  0  0  0  0  0  0  0  0  0
   -1.0584    1.7357    0.1538 O   0  0  0  0  0  0  0  0  0  0  0  0
    0.8782    1.5309    1.2887 N   0  0  0  0  0  0  0  0  0  0  0  0
    1.6629    0.9262    1.5139 H   0  0  0  0  0  0  0  0  0  0  0  0
    0.7757    2.8285    1.9452 C   0  0  0  0  0  0  0  0  0  0  0  0
   -0.1258    2.8746    2.5652 H   0  0  0  0  0  0  0  0  0  0  0  0
    1.6459    2.9977    2.5865 H   0  0  0  0  0  0  0  0  0  0  0  0
    0.7335    3.6313    1.2015 H   0  0  0  0  0  0  0  0  0  0  0  0
  1  2  1  0  0  0  0
  2  3  1  0  0  0  0
  2  4  1  0  0  0  0
  2  5  1  0  0  0  0
  5  6  2  0  0  0  0
  5  7  1  0  0  0  0
  7  8  1  0  0  0  0
  7  9  1  0  0  0  0
  9 10  1  0  0  0  0
  9 11  1  0  0  0  0
  9 18  1  0  0  0  0
 11 12  1  0  0  0  0
 11 13  1  0  0  0  0
 11 14  1  0  0  0  0
 14 15  2  0  0  0  0
 14 16  1  0  0  0  0
 16 17  1  0  0  0  0
 18 19  2  0  0  0  0
 18 20  1  0  0  0  0
 20 21  1  0  0  0  0
 20 22  1  0  0  0  0
 22 23  1  0  0  0  0
 22 24  1  0  0  0  0
 22 25  1  0  0  0  0
M  END
$$$$

  -OEChem-02102214113D

 25 24  0     1  0  0  0  0  0999 V2000
   -2.6907   -4.0557    0.4596 H   0  0  0  0  0  0  0  0  0  0  0  0
   -2.7471   -3.0090    0.1480 C   0  0  0  0  0  0  0  0  0  0  0  0
   -3.4475   -2.4831    0.8013 H   0  0  0  0  0  0  0  0  0  0  0  0
   -3.1156   -2.9665   -0.8799 H   0  0  0  0  0  0  0  0  0  0  0  0
   -1.3772   -2.3632    0.2317 C   0  0  0  0  0  0  0  0  0  0  0  0
   -0.4186   -3.0078    0.6292 O   0  0  0  0  0  0  0  0  0  0  0  0
   -1.2168   -1.0488   -0.1510 N   0  0  0  0  0  0  0  0  0  0  0  0
   -2.0302   -0.5705   -0.5368 H   0  0  0  0  0  0  0  0  0  0  0  0
    0.0683   -0.3429   -0.2157 C   0  0  1  0  0  0  0  0  0  0  0  0
    0.8252   -0.8863    0.3594 H   0  0  0  0  0  0  0  0  0  0  0  0
    0.5704   -0.1915   -1.6703 C   0  0  0  0  0  0  0  0  0  0  0  0
    1.4193    0.4991   -1.6856 H   0  0  0  0  0  0  0  0  0  0  0  0
    0.9379   -1.1669   -1.9990 H   0  0  0  0  0  0  0  0  0  0  0  0
   -0.4599    0.2639   -2.7104 C   0  0  0  0  0  0  0  0  0  0  0  0
   -0.0945    1.1313   -3.4850 O   0  0  0  0  0  0  0  0  0  0  0  0
   -1.6703   -0.3431   -2.8005 O   0  0  0  0  0  0  0  0  0  0  0  0
   -2.1243    0.1015   -3.5333 H   0  0  0  0  0  0  0  0  0  0  0  0
   -0.0729    1.0553    0.4217 C   0  0  0  0  0  0  0  0  0  0  0  0
   -1.0396    1.7574    0.1496 O   0  0  0  0  0  0  0  0  0  0  0  0
    0.8871    1.5302    1.2964 N   0  0  0  0  0  0  0  0  0  0  0  0
    1.6583    0.9131    1.5341 H   0  0  0  0  0  0  0  0  0  0  0  0
    0.8076    2.8387    1.9348 C   0  0  0  0  0  0  0  0  0  0  0  0
   -0.0972    2.9122    2.5475 H   0  0  0  0  0  0  0  0  0  0  0  0
    1.6763    2.9985    2.5807 H   0  0  0  0  0  0  0  0  0  0  0  0
    0.7878    3.6326    1.1805 H   0  0  0  0  0  0  0  0  0  0  0  0
  1  2  1  0  0  0  0
  2  3  1  0  0  0  0
  2  4  1  0  0  0  0
  2  5  1  0  0  0  0
  5  6  2  0  0  0  0
  5  7  1  0  0  0  0
  7  8  1  0  0  0  0
  7  9  1  0  0  0  0
  9 10  1  0  0  0  0
  9 11  1  0  0  0  0
  9 18  1  0  0  0  0
 11 12  1  0  0  0  0
 11 13  1  0  0  0  0
 11 14  1  0  0  0  0
 14 15  2  0  0  0  0
 14 16  1  0  0  0  0
 16 17  1  0  0  0  0
 18 19  2  0  0  0  0
 18 20  1  0  0  0  0
 20 21  1  0  0  0  0
 20 22  1  0  0  0  0
 22 23  1  0  0  0  0
 22 24  1  0  0  0  0
 22 25  1  0  0  0  0
M  END
$$$$

  -OEChem-02102214113D

 25 24  0     1  0  0  0  0  0999 V2000
   -2.6792   -4.0687    0.4561 H   0  0  0  0  0  0  0  0  0  0  0  0
   -2.7410   -3.0210    0.1486 C   0  0  0  0  0  0  0  0  0  0  0  0
   -3.4464   -2.5021    0.8020 H   0  0  0  0  0  0  0  0  0  0  0  0
   -3.1073   -2.9762   -0.8800 H   0  0  0  0  0  0  0  0  0  0  0  0
   -1.3755   -2.3668    0.2399 C   0  0  0  0  0  0  0  0  0  0  0  0
   -0.4145   -3.0066    0.6391 O   0  0  0  0  0  0  0  0  0  0  0  0
   -1.2217   -1.0506   -0.1390 N   0  0  0  0  0  0  0  0  0  0  0  0
   -2.0308   -0.5825   -0.5483 H   0  0  0  0  0  0  0  0  0  0  0  0
    0.0595   -0.3396   -0.2090 C   0  0  1  0  0  0  0  0  0  0  0  0
    0.8222   -0.8833    0.3583 H   0  0  0  0  0  0  0  0  0  0  0  0
    0.5520   -0.1802   -1.6671 C   0  0  0  0  0  0  0  0  0  0  0  0
    1.3978    0.5143   -1.6806 H   0  0  0  0  0  0  0  0  0  0  0  0
    0.9234   -1.1539   -1.9965 H   0  0  0  0  0  0  0  0  0  0  0  0
   -0.4688    0.2748   -2.7195 C   0  0  0  0  0  0  0  0  0  0  0  0
   -0.0129    0.9185   -3.6491 O   0  0  0  0  0  0  0  0  0  0  0  0
   -1.7759   -0.0838   -2.6442 O   0  0  0  0  0  0  0  0  0  0  0  0
   -2.2008    0.3365   -3.4081 H   0  0  0  0  0  0  0  0  0  0  0  0
   -0.0775    1.0570    0.4332 C   0  0  0  0  0  0  0  0  0  0  0  0
   -1.0332    1.7715    0.1552 O   0  0  0  0  0  0  0  0  0  0  0  0
    0.8900    1.5280    1.3018 N   0  0  0  0  0  0  0  0  0  0  0  0
    1.6521    0.9019    1.5460 H   0  0  0  0  0  0  0  0  0  0  0  0
    0.8218    2.8379    1.9389 C   0  0  0  0  0  0  0  0  0  0  0  0
   -0.0865    2.9229    2.5448 H   0  0  0  0  0  0  0  0  0  0  0  0
    1.6875    2.9875    2.5913 H   0  0  0  0  0  0  0  0  0  0  0  0
    0.8171    3.6310    1.1836 H   0  0  0  0  0  0  0  0  0  0  0  0
  1  2  1  0  0  0  0
  2  3  1  0  0  0  0
  2  4  1  0  0  0  0
  2  5  1  0  0  0  0
  5  6  2  0  0  0  0
  5  7  1  0  0  0  0
  7  8  1  0  0  0  0
  7  9  1  0  0  0  0
  9 10  1  0  0  0  0
  9 11  1  0  0  0  0
  9 18  1  0  0  0  0
 11 12  1  0  0  0  0
 11 13  1  0  0  0  0
 11 14  1  0  0  0  0
 14 15  2  0  0  0  0
 14 16  1  0  0  0  0
 16 17  1  0  0  0  0
 18 19  2  0  0  0  0
 18 20  1  0  0  0  0
 20 21  1  0  0  0  0
 20 22  1  0  0  0  0
 22 23  1  0  0  0  0
 22 24  1  0  0  0  0
 22 25  1  0  0  0  0
M  END
$$$$

  -OEChem-02102214113D

 25 24  0     1  0  0  0  0  0999 V2000
   -2.6757   -4.0686    0.4538 H   0  0  0  0  0  0  0  0  0  0  0  0
   -2.7416   -3.0203    0.1498 C   0  0  0  0  0  0  0  0  0  0  0  0
   -3.4363   -2.5024    0.8154 H   0  0  0  0  0  0  0  0  0  0  0  0
   -3.1236   -2.9727   -0.8727 H   0  0  0  0  0  0  0  0  0  0  0  0
   -1.3743   -2.3679    0.2216 C   0  0  0  0  0  0  0  0  0  0  0  0
   -0.4062   -3.0120    0.5959 O   0  0  0  0  0  0  0  0  0  0  0  0
   -1.2261   -1.0478   -0.1457 N   0  0  0  0  0  0  0  0  0  0  0  0
   -2.0439   -0.5654   -0.5205 H   0  0  0  0  0  0  0  0  0  0  0  0
    0.0499   -0.3270   -0.2103 C   0  0  1  0  0  0  0  0  0  0  0  0
    0.8124   -0.8712    0.3567 H   0  0  0  0  0  0  0  0  0  0  0  0
    0.5458   -0.1716   -1.6673 C   0  0  0  0  0  0  0  0  0  0  0  0
    1.3835    0.5319   -1.6817 H   0  0  0  0  0  0  0  0  0  0  0  0
    0.9290   -1.1446   -1.9867 H   0  0  0  0  0  0  0  0  0  0  0  0
   -0.4671    0.2684   -2.7338 C   0  0  0  0  0  0  0  0  0  0  0  0
    0.0185    0.6492   -3.7852 O   0  0  0  0  0  0  0  0  0  0  0  0
   -1.8064    0.1942   -2.5263 O   0  0  0  0  0  0  0  0  0  0  0  0
   -2.2131    0.5690   -3.3228 H   0  0  0  0  0  0  0  0  0  0  0  0
   -0.0832    1.0663    0.4411 C   0  0  0  0  0  0  0  0  0  0  0  0
   -1.0400    1.7854    0.1806 O   0  0  0  0  0  0  0  0  0  0  0  0
    0.8906    1.5274    1.3079 N   0  0  0  0  0  0  0  0  0  0  0  0
    1.6541    0.8987    1.5400 H   0  0  0  0  0  0  0  0  0  0  0  0
    0.8308    2.8328    1.9546 C   0  0  0  0  0  0  0  0  0  0  0  0
   -0.0726    2.9162    2.5680 H   0  0  0  0  0  0  0  0  0  0  0  0
    1.7020    2.9755    2.6013 H   0  0  0  0  0  0  0  0  0  0  0  0
    0.8226    3.6309    1.2047 H   0  0  0  0  0  0  0  0  0  0  0  0
  1  2  1  0  0  0  0
  2  3  1  0  0  0  0
  2  4  1  0  0  0  0
  2  5  1  0  0  0  0
  5  6  2  0  0  0  0
  5  7  1  0  0  0  0
  7  8  1  0  0  0  0
  7  9  1  0  0  0  0
  9 10  1  0  0  0  0
  9 11  1  0  0  0  0
  9 18  1  0  0  0  0
 11 12  1  0  0  0  0
 11 13  1  0  0  0  0
 11 14  1  0  0  0  0
 14 15  2  0  0  0  0
 14 16  1  0  0  0  0
 16 17  1  0  0  0  0
 18 19  2  0  0  0  0
 18 20  1  0  0  0  0
 20 21  1  0  0  0  0
 20 22  1  0  0  0  0
 22 23  1  0  0  0  0
 22 24  1  0  0  0  0
 22 25  1  0  0  0  0
M  END
$$$$

  -OEChem-02102214113D

 25 24  0     1  0  0  0  0  0999 V2000
   -2.6673   -4.0074    0.4077 H   0  0  0  0  0  0  0  0  0  0  0  0
   -2.7448   -2.9536    0.1262 C   0  0  0  0  0  0  0  0  0  0  0  0
   -3.3910   -2.4428    0.8440 H   0  0  0  0  0  0  0  0  0  0  0  0
   -3.1918   -2.8862   -0.8686 H   0  0  0  0  0  0  0  0  0  0  0  0
   -1.3705   -2.3120    0.1196 C   0  0  0  0  0  0  0  0  0  0  0  0
   -0.3826   -2.9762    0.3932 O   0  0  0  0  0  0  0  0  0  0  0  0
   -1.2387   -0.9784   -0.2045 N   0  0  0  0  0  0  0  0  0  0  0  0
   -2.0865   -0.4522   -0.4166 H   0  0  0  0  0  0  0  0  0  0  0  0
    0.0237   -0.2314   -0.2386 C   0  0  1  0  0  0  0  0  0  0  0  0
    0.7616   -0.7844    0.3521 H   0  0  0  0  0  0  0  0  0  0  0  0
    0.5666   -0.1657   -1.6811 C   0  0  0  0  0  0  0  0  0  0  0  0
    1.5234    0.3631   -1.6705 H   0  0  0  0  0  0  0  0  0  0  0  0
    0.7570   -1.1887   -2.0180 H   0  0  0  0  0  0  0  0  0  0  0  0
   -0.3260    0.5053   -2.7281 C   0  0  0  0  0  0  0  0  0  0  0  0
    0.1242    0.5482   -3.8601 O   0  0  0  0  0  0  0  0  0  0  0  0
   -1.5785    0.9139   -2.4159 O   0  0  0  0  0  0  0  0  0  0  0  0
   -1.9440    1.3060   -3.2228 H   0  0  0  0  0  0  0  0  0  0  0  0
   -0.0775    1.1531    0.4425 C   0  0  0  0  0  0  0  0  0  0  0  0
   -1.0868    1.8383    0.3421 O   0  0  0  0  0  0  0  0  0  0  0  0
    0.9214    1.5695    1.3046 N   0  0  0  0  0  0  0  0  0  0  0  0
    1.7092    0.9453    1.4520 H   0  0  0  0  0  0  0  0  0  0  0  0
    0.8465    2.8021    2.0806 C   0  0  0  0  0  0  0  0  0  0  0  0
   -0.0137    2.7768    2.7578 H   0  0  0  0  0  0  0  0  0  0  0  0
    1.7542    2.9294    2.6784 H   0  0  0  0  0  0  0  0  0  0  0  0
    0.7464    3.6670    1.4164 H   0  0  0  0  0  0  0  0  0  0  0  0
  1  2  1  0  0  0  0
  2  3  1  0  0  0  0
  2  4  1  0  0  0  0
  2  5  1  0  0  0  0
  5  6  2  0  0  0  0
  5  7  1  0  0  0  0
  7  8  1  0  0  0  0
  7  9  1  0  0  0  0
  9 10  1  0  0  0  0
  9 11  1  0  0  0  0
  9 18  1  0  0  0  0
 11 12  1  0  0  0  0
 11 13  1  0  0  0  0
 11 14  1  0  0  0  0
 14 15  2  0  0  0  0
 14 16  1  0  0  0  0
 16 17  1  0  0  0  0
 18 19  2  0  0  0  0
 18 20  1  0  0  0  0
 20 21  1  0  0  0  0
 20 22  1  0  0  0  0
 22 23  1  0  0  0  0
 22 24  1  0  0  0  0
 22 25  1  0  0  0  0
M  END
$$$$

  -OEChem-02102214113D

 25 24  0     1  0  0  0  0  0999 V2000
   -2.6645   -3.9734    0.4565 H   0  0  0  0  0  0  0  0  0  0  0  0
   -2.7475   -2.9198    0.1756 C   0  0  0  0  0  0  0  0  0  0  0  0
   -3.3413   -2.3992    0.9308 H   0  0  0  0  0  0  0  0  0  0  0  0
   -3.2561   -2.8507   -0.7890 H   0  0  0  0  0  0  0  0  0  0  0  0
   -1.3689   -2.2940    0.0789 C   0  0  0  0  0  0  0  0  0  0  0  0
   -0.3729   -2.9719    0.2796 O   0  0  0  0  0  0  0  0  0  0  0  0
   -1.2435   -0.9575   -0.2374 N   0  0  0  0  0  0  0  0  0  0  0  0
   -2.0988   -0.4091   -0.3261 H   0  0  0  0  0  0  0  0  0  0  0  0
    0.0195   -0.2102   -0.2730 C   0  0  1  0  0  0  0  0  0  0  0  0
    0.7487   -0.7630    0.3286 H   0  0  0  0  0  0  0  0  0  0  0  0
    0.5862   -0.1723   -1.7077 C   0  0  0  0  0  0  0  0  0  0  0  0
    1.5398    0.3614   -1.6923 H   0  0  0  0  0  0  0  0  0  0  0  0
    0.7881   -1.2019   -2.0189 H   0  0  0  0  0  0  0  0  0  0  0  0
   -0.2885    0.4751   -2.7823 C   0  0  0  0  0  0  0  0  0  0  0  0
    0.0293    0.2536   -3.9381 O   0  0  0  0  0  0  0  0  0  0  0  0
   -1.3659    1.2161   -2.4425 O   0  0  0  0  0  0  0  0  0  0  0  0
   -1.7553    1.5303   -3.2716 H   0  0  0  0  0  0  0  0  0  0  0  0
   -0.0855    1.1689    0.4201 C   0  0  0  0  0  0  0  0  0  0  0  0
   -1.1362    1.7979    0.4149 O   0  0  0  0  0  0  0  0  0  0  0  0
    0.9171    1.5799    1.2809 N   0  0  0  0  0  0  0  0  0  0  0  0
    1.7377    0.9875    1.3675 H   0  0  0  0  0  0  0  0  0  0  0  0
    0.8116    2.7625    2.1283 C   0  0  0  0  0  0  0  0  0  0  0  0
   -0.0246    2.6593    2.8280 H   0  0  0  0  0  0  0  0  0  0  0  0
    1.7311    2.8978    2.7059 H   0  0  0  0  0  0  0  0  0  0  0  0
    0.6520    3.6583    1.5187 H   0  0  0  0  0  0  0  0  0  0  0  0
  1  2  1  0  0  0  0
  2  3  1  0  0  0  0
  2  4  1  0  0  0  0
  2  5  1  0  0  0  0
  5  6  2  0  0  0  0
  5  7  1  0  0  0  0
  7  8  1  0  0  0  0
  7  9  1  0  0  0  0
  9 10  1  0  0  0  0
  9 11  1  0  0  0  0
  9 18  1  0  0  0  0
 11 12  1  0  0  0  0
 11 13  1  0  0  0  0
 11 14  1  0  0  0  0
 14 15  2  0  0  0  0
 14 16  1  0  0  0  0
 16 17  1  0  0  0  0
 18 19  2  0  0  0  0
 18 20  1  0  0  0  0
 20 21  1  0  0  0  0
 20 22  1  0  0  0  0
 22 23  1  0  0  0  0
 22 24  1  0  0  0  0
 22 25  1  0  0  0  0
M  END
$$$$

  -OEChem-02102214113D

 25 24  0     1  0  0  0  0  0999 V2000
   -2.6628   -3.9575    0.4800 H   0  0  0  0  0  0  0  0  0  0  0  0
   -2.7470   -2.9031    0.2029 C   0  0  0  0  0  0  0  0  0  0  0  0
   -3.3085   -2.3781    0.9795 H   0  0  0  0  0  0  0  0  0  0  0  0
   -3.2895   -2.8294   -0.7427 H   0  0  0  0  0  0  0  0  0  0  0  0
   -1.3677   -2.2892    0.0569 C   0  0  0  0  0  0  0  0  0  0  0  0
   -0.3714   -2.9757    0.2231 O   0  0  0  0  0  0  0  0  0  0  0  0
   -1.2424   -0.9523   -0.2587 N   0  0  0  0  0  0  0  0  0  0  0  0
   -2.0948   -0.3927   -0.2761 H   0  0  0  0  0  0  0  0  0  0  0  0
    0.0255   -0.2125   -0.2917 C   0  0  1  0  0  0  0  0  0  0  0  0
    0.7511   -0.7649    0.3145 H   0  0  0  0  0  0  0  0  0  0  0  0
    0.5959   -0.1858   -1.7256 C   0  0  0  0  0  0  0  0  0  0  0  0
    1.5505    0.3457   -1.7124 H   0  0  0  0  0  0  0  0  0  0  0  0
    0.7961   -1.2177   -2.0304 H   0  0  0  0  0  0  0  0  0  0  0  0
   -0.2780    0.4642   -2.7976 C   0  0  0  0  0  0  0  0  0  0  0  0
   -0.1647    0.0321   -3.9321 O   0  0  0  0  0  0  0  0  0  0  0  0
   -1.0632    1.5166   -2.4841 O   0  0  0  0  0  0  0  0  0  0  0  0
   -1.4961    1.7918   -3.3054 H   0  0  0  0  0  0  0  0  0  0  0  0
   -0.0921    1.1624    0.4073 C   0  0  0  0  0  0  0  0  0  0  0  0
   -1.1638    1.7563    0.4337 O   0  0  0  0  0  0  0  0  0  0  0  0
    0.9021    1.5756    1.2768 N   0  0  0  0  0  0  0  0  0  0  0  0
    1.7370    1.0015    1.3476 H   0  0  0  0  0  0  0  0  0  0  0  0
    0.7773    2.7441    2.1409 C   0  0  0  0  0  0  0  0  0  0  0  0
   -0.0479    2.6110    2.8484 H   0  0  0  0  0  0  0  0  0  0  0  0
    1.6998    2.8949    2.7096 H   0  0  0  0  0  0  0  0  0  0  0  0
    0.5891    3.6433    1.5447 H   0  0  0  0  0  0  0  0  0  0  0  0
  1  2  1  0  0  0  0
  2  3  1  0  0  0  0
  2  4  1  0  0  0  0
  2  5  1  0  0  0  0
  5  6  2  0  0  0  0
  5  7  1  0  0  0  0
  7  8  1  0  0  0  0
  7  9  1  0  0  0  0
  9 10  1  0  0  0  0
  9 11  1  0  0  0  0
  9 18  1  0  0  0  0
 11 12  1  0  0  0  0
 11 13  1  0  0  0  0
 11 14  1  0  0  0  0
 14 15  2  0  0  0  0
 14 16  1  0  0  0  0
 16 17  1  0  0  0  0
 18 19  2  0  0  0  0
 18 20  1  0  0  0  0
 20 21  1  0  0  0  0
 20 22  1  0  0  0  0
 22 23  1  0  0  0  0
 22 24  1  0  0  0  0
 22 25  1  0  0  0  0
M  END
$$$$

  -OEChem-02102214113D

 25 24  0     1  0  0  0  0  0999 V2000
   -2.6731   -3.9485    0.4834 H   0  0  0  0  0  0  0  0  0  0  0  0
   -2.7506   -2.8936    0.2056 C   0  0  0  0  0  0  0  0  0  0  0  0
   -3.3055   -2.3640    0.9839 H   0  0  0  0  0  0  0  0  0  0  0  0
   -3.2960   -2.8169   -0.7382 H   0  0  0  0  0  0  0  0  0  0  0  0
   -1.3671   -2.2899    0.0532 C   0  0  0  0  0  0  0  0  0  0  0  0
   -0.3756   -2.9818    0.2266 O   0  0  0  0  0  0  0  0  0  0  0  0
   -1.2312   -0.9560   -0.2715 N   0  0  0  0  0  0  0  0  0  0  0  0
   -2.0785   -0.3884   -0.2786 H   0  0  0  0  0  0  0  0  0  0  0  0
    0.0448   -0.2289   -0.2973 C   0  0  1  0  0  0  0  0  0  0  0  0
    0.7684   -0.7825    0.3106 H   0  0  0  0  0  0  0  0  0  0  0  0
    0.6081   -0.1982   -1.7330 C   0  0  0  0  0  0  0  0  0  0  0  0
    1.5673    0.3249   -1.7257 H   0  0  0  0  0  0  0  0  0  0  0  0
    0.7968   -1.2286   -2.0507 H   0  0  0  0  0  0  0  0  0  0  0  0
   -0.2800    0.4757   -2.7761 C   0  0  0  0  0  0  0  0  0  0  0  0
   -0.4219   -0.0945   -3.8445 O   0  0  0  0  0  0  0  0  0  0  0  0
   -0.7408    1.7224   -2.5363 O   0  0  0  0  0  0  0  0  0  0  0  0
   -1.2397    1.9874   -3.3228 H   0  0  0  0  0  0  0  0  0  0  0  0
   -0.0854    1.1479    0.3942 C   0  0  0  0  0  0  0  0  0  0  0  0
   -1.1607    1.7370    0.3924 O   0  0  0  0  0  0  0  0  0  0  0  0
    0.8922    1.5696    1.2778 N   0  0  0  0  0  0  0  0  0  0  0  0
    1.7296    1.0011    1.3633 H   0  0  0  0  0  0  0  0  0  0  0  0
    0.7482    2.7430    2.1317 C   0  0  0  0  0  0  0  0  0  0  0  0
   -0.0822    2.6068    2.8325 H   0  0  0  0  0  0  0  0  0  0  0  0
    1.6639    2.9072    2.7076 H   0  0  0  0  0  0  0  0  0  0  0  0
    0.5564    3.6358    1.5273 H   0  0  0  0  0  0  0  0  0  0  0  0
  1  2  1  0  0  0  0
  2  3  1  0  0  0  0
  2  4  1  0  0  0  0
  2  5  1  0  0  0  0
  5  6  2  0  0  0  0
  5  7  1  0  0  0  0
  7  8  1  0  0  0  0
  7  9  1  0  0  0  0
  9 10  1  0  0  0  0
  9 11  1  0  0  0  0
  9 18  1  0  0  0  0
 11 12  1  0  0  0  0
 11 13  1  0  0  0  0
 11 14  1  0  0  0  0
 14 15  2  0  0  0  0
 14 16  1  0  0  0  0
 16 17  1  0  0  0  0
 18 19  2  0  0  0  0
 18 20  1  0  0  0  0
 20 21  1  0  0  0  0
 20 22  1  0  0  0  0
 22 23  1  0  0  0  0
 22 24  1  0  0  0  0
 22 25  1  0  0  0  0
M  END
$$$$

  -OEChem-02102214113D

 25 24  0     1  0  0  0  0  0999 V2000
   -2.6932   -3.9467    0.4627 H   0  0  0  0  0  0  0  0  0  0  0  0
   -2.7553   -2.8933    0.1761 C   0  0  0  0  0  0  0  0  0  0  0  0
   -3.3296   -2.3549    0.9338 H   0  0  0  0  0  0  0  0  0  0  0  0
   -3.2718   -2.8193   -0.7840 H   0  0  0  0  0  0  0  0  0  0  0  0
   -1.3641   -2.2994    0.0615 C   0  0  0  0  0  0  0  0  0  0  0  0
   -0.3821   -2.9936    0.2753 O   0  0  0  0  0  0  0  0  0  0  0  0
   -1.2113   -0.9699   -0.2731 N   0  0  0  0  0  0  0  0  0  0  0  0
   -2.0556   -0.3999   -0.3207 H   0  0  0  0  0  0  0  0  0  0  0  0
    0.0715   -0.2541   -0.2882 C   0  0  1  0  0  0  0  0  0  0  0  0
    0.7949   -0.8099    0.3177 H   0  0  0  0  0  0  0  0  0  0  0  0
    0.6209   -0.2076   -1.7274 C   0  0  0  0  0  0  0  0  0  0  0  0
    1.5854    0.3060   -1.7276 H   0  0  0  0  0  0  0  0  0  0  0  0
    0.7933   -1.2328   -2.0698 H   0  0  0  0  0  0  0  0  0  0  0  0
   -0.2895    0.4978   -2.7276 C   0  0  0  0  0  0  0  0  0  0  0  0
   -0.6991   -0.1429   -3.6810 O   0  0  0  0  0  0  0  0  0  0  0  0
   -0.4680    1.8312   -2.5955 O   0  0  0  0  0  0  0  0  0  0  0  0
   -1.0450    2.1032   -3.3243 H   0  0  0  0  0  0  0  0  0  0  0  0
   -0.0691    1.1269    0.3914 C   0  0  0  0  0  0  0  0  0  0  0  0
   -1.1335    1.7325    0.3292 O   0  0  0  0  0  0  0  0  0  0  0  0
    0.8889    1.5609    1.2901 N   0  0  0  0  0  0  0  0  0  0  0  0
    1.7218    0.9913    1.4072 H   0  0  0  0  0  0  0  0  0  0  0  0
    0.7388    2.7649    2.0994 C   0  0  0  0  0  0  0  0  0  0  0  0
   -0.1228    2.6719    2.7689 H   0  0  0  0  0  0  0  0  0  0  0  0
    1.6337    2.9264    2.7080 H   0  0  0  0  0  0  0  0  0  0  0  0
    0.5945    3.6412    1.4586 H   0  0  0  0  0  0  0  0  0  0  0  0
  1  2  1  0  0  0  0
  2  3  1  0  0  0  0
  2  4  1  0  0  0  0
  2  5  1  0  0  0  0
  5  6  2  0  0  0  0
  5  7  1  0  0  0  0
  7  8  1  0  0  0  0
  7  9  1  0  0  0  0
  9 10  1  0  0  0  0
  9 11  1  0  0  0  0
  9 18  1  0  0  0  0
 11 12  1  0  0  0  0
 11 13  1  0  0  0  0
 11 14  1  0  0  0  0
 14 15  2  0  0  0  0
 14 16  1  0  0  0  0
 16 17  1  0  0  0  0
 18 19  2  0  0  0  0
 18 20  1  0  0  0  0
 20 21  1  0  0  0  0
 20 22  1  0  0  0  0
 22 23  1  0  0  0  0
 22 24  1  0  0  0  0
 22 25  1  0  0  0  0
M  END
$$$$

  -OEChem-02102214113D

 25 24  0     1  0  0  0  0  0999 V2000
   -2.7107   -3.9535    0.4249 H   0  0  0  0  0  0  0  0  0  0  0  0
   -2.7592   -2.9009    0.1326 C   0  0  0  0  0  0  0  0  0  0  0  0
   -3.3709   -2.3608    0.8591 H   0  0  0  0  0  0  0  0  0  0  0  0
   -3.2271   -2.8297   -0.8524 H   0  0  0  0  0  0  0  0  0  0  0  0
   -1.3644   -2.3065    0.0846 C   0  0  0  0  0  0  0  0  0  0  0  0
   -0.3938   -2.9964    0.3569 O   0  0  0  0  0  0  0  0  0  0  0  0
   -1.1959   -0.9825   -0.2631 N   0  0  0  0  0  0  0  0  0  0  0  0
   -2.0362   -0.4189   -0.3876 H   0  0  0  0  0  0  0  0  0  0  0  0
    0.0912   -0.2743   -0.2724 C   0  0  1  0  0  0  0  0  0  0  0  0
    0.8151   -0.8298    0.3331 H   0  0  0  0  0  0  0  0  0  0  0  0
    0.6311   -0.2142   -1.7136 C   0  0  0  0  0  0  0  0  0  0  0  0
    1.5989    0.2933   -1.7188 H   0  0  0  0  0  0  0  0  0  0  0  0
    0.7914   -1.2335   -2.0773 H   0  0  0  0  0  0  0  0  0  0  0  0
   -0.2968    0.5136   -2.6795 C   0  0  0  0  0  0  0  0  0  0  0  0
   -0.9502   -0.1476   -3.4695 O   0  0  0  0  0  0  0  0  0  0  0  0
   -0.2556    1.8657   -2.6897 O   0  0  0  0  0  0  0  0  0  0  0  0
   -0.9051    2.1521   -3.3490 H   0  0  0  0  0  0  0  0  0  0  0  0
   -0.0531    1.1136    0.3898 C   0  0  0  0  0  0  0  0  0  0  0  0
   -1.0946    1.7472    0.2583 O   0  0  0  0  0  0  0  0  0  0  0  0
    0.8927    1.5571    1.2960 N   0  0  0  0  0  0  0  0  0  0  0  0
    1.7100    0.9743    1.4518 H   0  0  0  0  0  0  0  0  0  0  0  0
    0.7508    2.7910    2.0597 C   0  0  0  0  0  0  0  0  0  0  0  0
   -0.1392    2.7476    2.6963 H   0  0  0  0  0  0  0  0  0  0  0  0
    1.6257    2.9436    2.6989 H   0  0  0  0  0  0  0  0  0  0  0  0
    0.6606    3.6499    1.3862 H   0  0  0  0  0  0  0  0  0  0  0  0
  1  2  1  0  0  0  0
  2  3  1  0  0  0  0
  2  4  1  0  0  0  0
  2  5  1  0  0  0  0
  5  6  2  0  0  0  0
  5  7  1  0  0  0  0
  7  8  1  0  0  0  0
  7  9  1  0  0  0  0
  9 10  1  0  0  0  0
  9 11  1  0  0  0  0
  9 18  1  0  0  0  0
 11 12  1  0  0  0  0
 11 13  1  0  0  0  0
 11 14  1  0  0  0  0
 14 15  2  0  0  0  0
 14 16  1  0  0  0  0
 16 17  1  0  0  0  0
 18 19  2  0  0  0  0
 18 20  1  0  0  0  0
 20 21  1  0  0  0  0
 20 22  1  0  0  0  0
 22 23  1  0  0  0  0
 22 24  1  0  0  0  0
 22 25  1  0  0  0  0
M  END
$$$$

  -OEChem-02102214113D

 25 24  0     1  0  0  0  0  0999 V2000
   -2.7194   -3.9745    0.3707 H   0  0  0  0  0  0  0  0  0  0  0  0
   -2.7600   -2.9214    0.0795 C   0  0  0  0  0  0  0  0  0  0  0  0
   -3.4187   -2.3891    0.7698 H   0  0  0  0  0  0  0  0  0  0  0  0
   -3.1686   -2.8508   -0.9316 H   0  0  0  0  0  0  0  0  0  0  0  0
   -1.3707   -2.3141    0.1166 C   0  0  0  0  0  0  0  0  0  0  0  0
   -0.4132   -2.9915    0.4584 O   0  0  0  0  0  0  0  0  0  0  0  0
   -1.1916   -0.9948   -0.2416 N   0  0  0  0  0  0  0  0  0  0  0  0
   -2.0221   -0.4537   -0.4794 H   0  0  0  0  0  0  0  0  0  0  0  0
    0.0974   -0.2906   -0.2486 C   0  0  1  0  0  0  0  0  0  0  0  0
    0.8227   -0.8464    0.3549 H   0  0  0  0  0  0  0  0  0  0  0  0
    0.6294   -0.2184   -1.6922 C   0  0  0  0  0  0  0  0  0  0  0  0
    1.6005    0.2834   -1.6995 H   0  0  0  0  0  0  0  0  0  0  0  0
    0.7804   -1.2332   -2.0717 H   0  0  0  0  0  0  0  0  0  0  0  0
   -0.3077    0.5235   -2.6388 C   0  0  0  0  0  0  0  0  0  0  0  0
   -1.1668   -0.1088   -3.2319 O   0  0  0  0  0  0  0  0  0  0  0  0
   -0.0888    1.8464   -2.8208 O   0  0  0  0  0  0  0  0  0  0  0  0
   -0.7902    2.1566   -3.4129 H   0  0  0  0  0  0  0  0  0  0  0  0
   -0.0412    1.1047    0.3982 C   0  0  0  0  0  0  0  0  0  0  0  0
   -1.0476    1.7752    0.1973 O   0  0  0  0  0  0  0  0  0  0  0  0
    0.8998    1.5548    1.3059 N   0  0  0  0  0  0  0  0  0  0  0  0
    1.6901    0.9498    1.5091 H   0  0  0  0  0  0  0  0  0  0  0  0
    0.7815    2.8229    2.0156 C   0  0  0  0  0  0  0  0  0  0  0  0
   -0.1202    2.8315    2.6370 H   0  0  0  0  0  0  0  0  0  0  0  0
    1.6497    2.9771    2.6634 H   0  0  0  0  0  0  0  0  0  0  0  0
    0.7283    3.6553    1.3059 H   0  0  0  0  0  0  0  0  0  0  0  0
  1  2  1  0  0  0  0
  2  3  1  0  0  0  0
  2  4  1  0  0  0  0
  2  5  1  0  0  0  0
  5  6  2  0  0  0  0
  5  7  1  0  0  0  0
  7  8  1  0  0  0  0
  7  9  1  0  0  0  0
  9 10  1  0  0  0  0
  9 11  1  0  0  0  0
  9 18  1  0  0  0  0
 11 12  1  0  0  0  0
 11 13  1  0  0  0  0
 11 14  1  0  0  0  0
 14 15  2  0  0  0  0
 14 16  1  0  0  0  0
 16 17  1  0  0  0  0
 18 19  2  0  0  0  0
 18 20  1  0  0  0  0
 20 21  1  0  0  0  0
 20 22  1  0  0  0  0
 22 23  1  0  0  0  0
 22 24  1  0  0  0  0
 22 25  1  0  0  0  0
M  END
$$$$

  -OEChem-02102214113D

 25 24  0     1  0  0  0  0  0999 V2000
   -2.7113   -4.0021    0.3306 H   0  0  0  0  0  0  0  0  0  0  0  0
   -2.7551   -2.9472    0.0462 C   0  0  0  0  0  0  0  0  0  0  0  0
   -3.4504   -2.4299    0.7116 H   0  0  0  0  0  0  0  0  0  0  0  0
   -3.1214   -2.8736   -0.9807 H   0  0  0  0  0  0  0  0  0  0  0  0
   -1.3784   -2.3193    0.1487 C   0  0  0  0  0  0  0  0  0  0  0  0
   -0.4308   -2.9789    0.5481 O   0  0  0  0  0  0  0  0  0  0  0  0
   -1.1991   -1.0027   -0.2184 N   0  0  0  0  0  0  0  0  0  0  0  0
   -2.0124   -0.4967   -0.5679 H   0  0  0  0  0  0  0  0  0  0  0  0
    0.0890   -0.2973   -0.2288 C   0  0  1  0  0  0  0  0  0  0  0  0
    0.8173   -0.8516    0.3723 H   0  0  0  0  0  0  0  0  0  0  0  0
    0.6169   -0.2170   -1.6746 C   0  0  0  0  0  0  0  0  0  0  0  0
    1.5886    0.2839   -1.6792 H   0  0  0  0  0  0  0  0  0  0  0  0
    0.7673   -1.2291   -2.0602 H   0  0  0  0  0  0  0  0  0  0  0  0
   -0.3194    0.5279   -2.6226 C   0  0  0  0  0  0  0  0  0  0  0  0
   -1.3388   -0.0233   -3.0080 O   0  0  0  0  0  0  0  0  0  0  0  0
    0.0516    1.7716   -3.0060 O   0  0  0  0  0  0  0  0  0  0  0  0
   -0.6759    2.1119   -3.5485 H   0  0  0  0  0  0  0  0  0  0  0  0
   -0.0404    1.1044    0.4063 C   0  0  0  0  0  0  0  0  0  0  0  0
   -1.0113    1.8079    0.1533 O   0  0  0  0  0  0  0  0  0  0  0  0
    0.9053    1.5552    1.3089 N   0  0  0  0  0  0  0  0  0  0  0  0
    1.6691    0.9291    1.5465 H   0  0  0  0  0  0  0  0  0  0  0  0
    0.8142    2.8439    1.9849 C   0  0  0  0  0  0  0  0  0  0  0  0
   -0.1102    2.9065    2.5688 H   0  0  0  0  0  0  0  0  0  0  0  0
    1.6615    2.9755    2.6648 H   0  0  0  0  0  0  0  0  0  0  0  0
    0.8263    3.6605    1.2553 H   0  0  0  0  0  0  0  0  0  0  0  0
  1  2  1  0  0  0  0
  2  3  1  0  0  0  0
  2  4  1  0  0  0  0
  2  5  1  0  0  0  0
  5  6  2  0  0  0  0
  5  7  1  0  0  0  0
  7  8  1  0  0  0  0
  7  9  1  0  0  0  0
  9 10  1  0  0  0  0
  9 11  1  0  0  0  0
  9 18  1  0  0  0  0
 11 12  1  0  0  0  0
 11 13  1  0  0  0  0
 11 14  1  0  0  0  0
 14 15  2  0  0  0  0
 14 16  1  0  0  0  0
 16 17  1  0  0  0  0
 18 19  2  0  0  0  0
 18 20  1  0  0  0  0
 20 21  1  0  0  0  0
 20 22  1  0  0  0  0
 22 23  1  0  0  0  0
 22 24  1  0  0  0  0
 22 25  1  0  0  0  0
M  END
$$$$

  -OEChem-02102214113D

 25 24  0     1  0  0  0  0  0999 V2000
   -2.7024   -4.0237    0.3204 H   0  0  0  0  0  0  0  0  0  0  0  0
   -2.7527   -2.9685    0.0383 C   0  0  0  0  0  0  0  0  0  0  0  0
   -3.4669   -2.4614    0.6916 H   0  0  0  0  0  0  0  0  0  0  0  0
   -3.0998   -2.8959   -0.9954 H   0  0  0  0  0  0  0  0  0  0  0  0
   -1.3853   -2.3256    0.1699 C   0  0  0  0  0  0  0  0  0  0  0  0
   -0.4402   -2.9741    0.5928 O   0  0  0  0  0  0  0  0  0  0  0  0
   -1.2112   -1.0090   -0.1993 N   0  0  0  0  0  0  0  0  0  0  0  0
   -2.0131   -0.5246   -0.6033 H   0  0  0  0  0  0  0  0  0  0  0  0
    0.0741   -0.2994   -0.2170 C   0  0  1  0  0  0  0  0  0  0  0  0
    0.8070   -0.8530    0.3792 H   0  0  0  0  0  0  0  0  0  0  0  0
    0.6015   -0.2083   -1.6642 C   0  0  0  0  0  0  0  0  0  0  0  0
    1.5733    0.2932   -1.6596 H   0  0  0  0  0  0  0  0  0  0  0  0
    0.7566   -1.2185   -2.0524 H   0  0  0  0  0  0  0  0  0  0  0  0
   -0.3224    0.5349   -2.6303 C   0  0  0  0  0  0  0  0  0  0  0  0
   -1.4558    0.1220   -2.8234 O   0  0  0  0  0  0  0  0  0  0  0  0
    0.1843    1.6343   -3.2349 O   0  0  0  0  0  0  0  0  0  0  0  0
   -0.5417    2.0057   -3.7588 H   0  0  0  0  0  0  0  0  0  0  0  0
   -0.0484    1.1040    0.4159 C   0  0  0  0  0  0  0  0  0  0  0  0
   -0.9960    1.8287    0.1375 O   0  0  0  0  0  0  0  0  0  0  0  0
    0.9053    1.5533    1.3109 N   0  0  0  0  0  0  0  0  0  0  0  0
    1.6506    0.9128    1.5686 H   0  0  0  0  0  0  0  0  0  0  0  0
    0.8330    2.8522    1.9699 C   0  0  0  0  0  0  0  0  0  0  0  0
   -0.0869    2.9329    2.5588 H   0  0  0  0  0  0  0  0  0  0  0  0
    1.6864    2.9835    2.6422 H   0  0  0  0  0  0  0  0  0  0  0  0
    0.8495    3.6592    1.2297 H   0  0  0  0  0  0  0  0  0  0  0  0
  1  2  1  0  0  0  0
  2  3  1  0  0  0  0
  2  4  1  0  0  0  0
  2  5  1  0  0  0  0
  5  6  2  0  0  0  0
  5  7  1  0  0  0  0
  7  8  1  0  0  0  0
  7  9  1  0  0  0  0
  9 10  1  0  0  0  0
  9 11  1  0  0  0  0
  9 18  1  0  0  0  0
 11 12  1  0  0  0  0
 11 13  1  0  0  0  0
 11 14  1  0  0  0  0
 14 15  2  0  0  0  0
 14 16  1  0  0  0  0
 16 17  1  0  0  0  0
 18 19  2  0  0  0  0
 18 20  1  0  0  0  0
 20 21  1  0  0  0  0
 20 22  1  0  0  0  0
 22 23  1  0  0  0  0
 22 24  1  0  0  0  0
 22 25  1  0  0  0  0
M  END
$$$$

  -OEChem-02102214113D

 25 24  0     1  0  0  0  0  0999 V2000
   -2.6965   -4.0311    0.3407 H   0  0  0  0  0  0  0  0  0  0  0  0
   -2.7521   -2.9770    0.0554 C   0  0  0  0  0  0  0  0  0  0  0  0
   -3.4571   -2.4683    0.7173 H   0  0  0  0  0  0  0  0  0  0  0  0
   -3.1147   -2.9084   -0.9733 H   0  0  0  0  0  0  0  0  0  0  0  0
   -1.3835   -2.3322    0.1649 C   0  0  0  0  0  0  0  0  0  0  0  0
   -0.4291   -2.9823    0.5638 O   0  0  0  0  0  0  0  0  0  0  0  0
   -1.2192   -1.0121   -0.1960 N   0  0  0  0  0  0  0  0  0  0  0  0
   -2.0280   -0.5246   -0.5836 H   0  0  0  0  0  0  0  0  0  0  0  0
    0.0595   -0.2918   -0.2177 C   0  0  1  0  0  0  0  0  0  0  0  0
    0.7958   -0.8444    0.3752 H   0  0  0  0  0  0  0  0  0  0  0  0
    0.5901   -0.1946   -1.6648 C   0  0  0  0  0  0  0  0  0  0  0  0
    1.5580    0.3141   -1.6501 H   0  0  0  0  0  0  0  0  0  0  0  0
    0.7586   -1.2046   -2.0476 H   0  0  0  0  0  0  0  0  0  0  0  0
   -0.3183    0.5360   -2.6584 C   0  0  0  0  0  0  0  0  0  0  0  0
   -1.5176    0.3052   -2.6847 O   0  0  0  0  0  0  0  0  0  0  0  0
    0.2851    1.4217   -3.4844 O   0  0  0  0  0  0  0  0  0  0  0  0
   -0.4268    1.8157   -4.0115 H   0  0  0  0  0  0  0  0  0  0  0  0
   -0.0610    1.1078    0.4237 C   0  0  0  0  0  0  0  0  0  0  0  0
   -1.0067    1.8377    0.1556 O   0  0  0  0  0  0  0  0  0  0  0  0
    0.9012    1.5526    1.3121 N   0  0  0  0  0  0  0  0  0  0  0  0
    1.6472    0.9098    1.5617 H   0  0  0  0  0  0  0  0  0  0  0  0
    0.8356    2.8483    1.9785 C   0  0  0  0  0  0  0  0  0  0  0  0
   -0.0862    2.9329    2.5639 H   0  0  0  0  0  0  0  0  0  0  0  0
    1.6868    2.9693    2.6555 H   0  0  0  0  0  0  0  0  0  0  0  0
    0.8614    3.6591    1.2427 H   0  0  0  0  0  0  0  0  0  0  0  0
  1  2  1  0  0  0  0
  2  3  1  0  0  0  0
  2  4  1  0  0  0  0
  2  5  1  0  0  0  0
  5  6  2  0  0  0  0
  5  7  1  0  0  0  0
  7  8  1  0  0  0  0
  7  9  1  0  0  0  0
  9 10  1  0  0  0  0
  9 11  1  0  0  0  0
  9 18  1  0  0  0  0
 11 12  1  0  0  0  0
 11 13  1  0  0  0  0
 11 14  1  0  0  0  0
 14 15  2  0  0  0  0
 14 16  1  0  0  0  0
 16 17  1  0  0  0  0
 18 19  2  0  0  0  0
 18 20  1  0  0  0  0
 20 21  1  0  0  0  0
 20 22  1  0  0  0  0
 22 23  1  0  0  0  0
 22 24  1  0  0  0  0
 22 25  1  0  0  0  0
M  END
$$$$

  -OEChem-02102214113D

 25 24  0     1  0  0  0  0  0999 V2000
   -2.6871   -4.0332    0.3482 H   0  0  0  0  0  0  0  0  0  0  0  0
   -2.7504   -2.9792    0.0641 C   0  0  0  0  0  0  0  0  0  0  0  0
   -3.4479   -2.4736    0.7361 H   0  0  0  0  0  0  0  0  0  0  0  0
   -3.1282   -2.9117   -0.9589 H   0  0  0  0  0  0  0  0  0  0  0  0
   -1.3825   -2.3295    0.1539 C   0  0  0  0  0  0  0  0  0  0  0  0
   -0.4169   -2.9808    0.5226 O   0  0  0  0  0  0  0  0  0  0  0  0
   -1.2299   -1.0053   -0.1966 N   0  0  0  0  0  0  0  0  0  0  0  0
   -2.0510   -0.5094   -0.5463 H   0  0  0  0  0  0  0  0  0  0  0  0
    0.0417   -0.2727   -0.2213 C   0  0  1  0  0  0  0  0  0  0  0  0
    0.7781   -0.8240    0.3726 H   0  0  0  0  0  0  0  0  0  0  0  0
    0.5791   -0.1854   -1.6664 C   0  0  0  0  0  0  0  0  0  0  0  0
    1.5404    0.3352   -1.6478 H   0  0  0  0  0  0  0  0  0  0  0  0
    0.7643   -1.1986   -2.0324 H   0  0  0  0  0  0  0  0  0  0  0  0
   -0.3154    0.5204   -2.6912 C   0  0  0  0  0  0  0  0  0  0  0  0
   -1.5313    0.5049   -2.5815 O   0  0  0  0  0  0  0  0  0  0  0  0
    0.3273    1.1412   -3.7070 O   0  0  0  0  0  0  0  0  0  0  0  0
   -0.3674    1.5532   -4.2433 H   0  0  0  0  0  0  0  0  0  0  0  0
   -0.0709    1.1238    0.4292 C   0  0  0  0  0  0  0  0  0  0  0  0
   -1.0287    1.8499    0.1990 O   0  0  0  0  0  0  0  0  0  0  0  0
    0.9039    1.5600    1.3084 N   0  0  0  0  0  0  0  0  0  0  0  0
    1.6551    0.9161    1.5383 H   0  0  0  0  0  0  0  0  0  0  0  0
    0.8399    2.8425    1.9995 C   0  0  0  0  0  0  0  0  0  0  0  0
   -0.0650    2.9025    2.6135 H   0  0  0  0  0  0  0  0  0  0  0  0
    1.7095    2.9645    2.6526 H   0  0  0  0  0  0  0  0  0  0  0  0
    0.8313    3.6662    1.2778 H   0  0  0  0  0  0  0  0  0  0  0  0
  1  2  1  0  0  0  0
  2  3  1  0  0  0  0
  2  4  1  0  0  0  0
  2  5  1  0  0  0  0
  5  6  2  0  0  0  0
  5  7  1  0  0  0  0
  7  8  1  0  0  0  0
  7  9  1  0  0  0  0
  9 10  1  0  0  0  0
  9 11  1  0  0  0  0
  9 18  1  0  0  0  0
 11 12  1  0  0  0  0
 11 13  1  0  0  0  0
 11 14  1  0  0  0  0
 14 15  2  0  0  0  0
 14 16  1  0  0  0  0
 16 17  1  0  0  0  0
 18 19  2  0  0  0  0
 18 20  1  0  0  0  0
 20 21  1  0  0  0  0
 20 22  1  0  0  0  0
 22 23  1  0  0  0  0
 22 24  1  0  0  0  0
 22 25  1  0  0  0  0
M  END
$$$$

  -OEChem-02102214113D

 25 24  0     1  0  0  0  0  0999 V2000
   -2.6823   -4.0191    0.3729 H   0  0  0  0  0  0  0  0  0  0  0  0
   -2.7516   -2.9655    0.0889 C   0  0  0  0  0  0  0  0  0  0  0  0
   -3.4217   -2.4556    0.7852 H   0  0  0  0  0  0  0  0  0  0  0  0
   -3.1659   -2.8985   -0.9199 H   0  0  0  0  0  0  0  0  0  0  0  0
   -1.3788   -2.3213    0.1271 C   0  0  0  0  0  0  0  0  0  0  0  0
   -0.4004   -2.9805    0.4445 O   0  0  0  0  0  0  0  0  0  0  0  0
   -1.2368   -0.9928   -0.2113 N   0  0  0  0  0  0  0  0  0  0  0  0
   -2.0747   -0.4790   -0.4867 H   0  0  0  0  0  0  0  0  0  0  0  0
    0.0284   -0.2497   -0.2383 C   0  0  1  0  0  0  0  0  0  0  0  0
    0.7622   -0.7994    0.3605 H   0  0  0  0  0  0  0  0  0  0  0  0
    0.5789   -0.1807   -1.6792 C   0  0  0  0  0  0  0  0  0  0  0  0
    1.5367    0.3460   -1.6599 H   0  0  0  0  0  0  0  0  0  0  0  0
    0.7744   -1.1997   -2.0234 H   0  0  0  0  0  0  0  0  0  0  0  0
   -0.3019    0.4965   -2.7338 C   0  0  0  0  0  0  0  0  0  0  0  0
   -1.4839    0.7165   -2.5280 O   0  0  0  0  0  0  0  0  0  0  0  0
    0.3197    0.8261   -3.8893 O   0  0  0  0  0  0  0  0  0  0  0  0
   -0.3563    1.2540   -4.4372 H   0  0  0  0  0  0  0  0  0  0  0  0
   -0.0805    1.1422    0.4246 C   0  0  0  0  0  0  0  0  0  0  0  0
   -1.0712    1.8429    0.2681 O   0  0  0  0  0  0  0  0  0  0  0  0
    0.9049    1.5706    1.2962 N   0  0  0  0  0  0  0  0  0  0  0  0
    1.6807    0.9410    1.4790 H   0  0  0  0  0  0  0  0  0  0  0  0
    0.8292    2.8268    2.0334 C   0  0  0  0  0  0  0  0  0  0  0  0
   -0.0567    2.8411    2.6772 H   0  0  0  0  0  0  0  0  0  0  0  0
    1.7158    2.9506    2.6626 H   0  0  0  0  0  0  0  0  0  0  0  0
    0.7758    3.6743    1.3417 H   0  0  0  0  0  0  0  0  0  0  0  0
  1  2  1  0  0  0  0
  2  3  1  0  0  0  0
  2  4  1  0  0  0  0
  2  5  1  0  0  0  0
  5  6  2  0  0  0  0
  5  7  1  0  0  0  0
  7  8  1  0  0  0  0
  7  9  1  0  0  0  0
  9 10  1  0  0  0  0
  9 11  1  0  0  0  0
  9 18  1  0  0  0  0
 11 12  1  0  0  0  0
 11 13  1  0  0  0  0
 11 14  1  0  0  0  0
 14 15  2  0  0  0  0
 14 16  1  0  0  0  0
 16 17  1  0  0  0  0
 18 19  2  0  0  0  0
 18 20  1  0  0  0  0
 20 21  1  0  0  0  0
 20 22  1  0  0  0  0
 22 23  1  0  0  0  0
 22 24  1  0  0  0  0
 22 25  1  0  0  0  0
M  END
$$$$

  -OEChem-02102214113D

 25 24  0     1  0  0  0  0  0999 V2000
   -2.6786   -3.9915    0.3999 H   0  0  0  0  0  0  0  0  0  0  0  0
   -2.7533   -2.9363    0.1227 C   0  0  0  0  0  0  0  0  0  0  0  0
   -3.3860   -2.4238    0.8513 H   0  0  0  0  0  0  0  0  0  0  0  0
   -3.2144   -2.8627   -0.8651 H   0  0  0  0  0  0  0  0  0  0  0  0
   -1.3754   -2.3024    0.0974 C   0  0  0  0  0  0  0  0  0  0  0  0
   -0.3874   -2.9721    0.3576 O   0  0  0  0  0  0  0  0  0  0  0  0
   -1.2402   -0.9710   -0.2334 N   0  0  0  0  0  0  0  0  0  0  0  0
   -2.0896   -0.4383   -0.4240 H   0  0  0  0  0  0  0  0  0  0  0  0
    0.0228   -0.2241   -0.2641 C   0  0  1  0  0  0  0  0  0  0  0  0
    0.7520   -0.7720    0.3413 H   0  0  0  0  0  0  0  0  0  0  0  0
    0.5865   -0.1819   -1.7007 C   0  0  0  0  0  0  0  0  0  0  0  0
    1.5432    0.3464   -1.6857 H   0  0  0  0  0  0  0  0  0  0  0  0
    0.7859   -1.2087   -2.0191 H   0  0  0  0  0  0  0  0  0  0  0  0
   -0.2830    0.4683   -2.7794 C   0  0  0  0  0  0  0  0  0  0  0  0
   -1.3784    0.9340   -2.5193 O   0  0  0  0  0  0  0  0  0  0  0  0
    0.2518    0.4915   -4.0217 O   0  0  0  0  0  0  0  0  0  0  0  0
   -0.4044    0.9349   -4.5811 H   0  0  0  0  0  0  0  0  0  0  0  0
   -0.0852    1.1638    0.4087 C   0  0  0  0  0  0  0  0  0  0  0  0
   -1.1116    1.8257    0.3326 O   0  0  0  0  0  0  0  0  0  0  0  0
    0.9082    1.5855    1.2749 N   0  0  0  0  0  0  0  0  0  0  0  0
    1.7038    0.9701    1.4167 H   0  0  0  0  0  0  0  0  0  0  0  0
    0.8076    2.8000    2.0761 C   0  0  0  0  0  0  0  0  0  0  0  0
   -0.0409    2.7347    2.7653 H   0  0  0  0  0  0  0  0  0  0  0  0
    1.7200    2.9437    2.6629 H   0  0  0  0  0  0  0  0  0  0  0  0
    0.6709    3.6747    1.4314 H   0  0  0  0  0  0  0  0  0  0  0  0
  1  2  1  0  0  0  0
  2  3  1  0  0  0  0
  2  4  1  0  0  0  0
  2  5  1  0  0  0  0
  5  6  2  0  0  0  0
  5  7  1  0  0  0  0
  7  8  1  0  0  0  0
  7  9  1  0  0  0  0
  9 10  1  0  0  0  0
  9 11  1  0  0  0  0
  9 18  1  0  0  0  0
 11 12  1  0  0  0  0
 11 13  1  0  0  0  0
 11 14  1  0  0  0  0
 14 15  2  0  0  0  0
 14 16  1  0  0  0  0
 16 17  1  0  0  0  0
 18 19  2  0  0  0  0
 18 20  1  0  0  0  0
 20 21  1  0  0  0  0
 20 22  1  0  0  0  0
 22 23  1  0  0  0  0
 22 24  1  0  0  0  0
 22 25  1  0  0  0  0
M  END
$$$$

  -OEChem-02102214113D

 25 24  0     1  0  0  0  0  0999 V2000
   -2.6774   -3.9650    0.4471 H   0  0  0  0  0  0  0  0  0  0  0  0
   -2.7550   -2.9124    0.1613 C   0  0  0  0  0  0  0  0  0  0  0  0
   -3.3495   -2.3861    0.9119 H   0  0  0  0  0  0  0  0  0  0  0  0
   -3.2599   -2.8452   -0.8053 H   0  0  0  0  0  0  0  0  0  0  0  0
   -1.3738   -2.2923    0.0671 C   0  0  0  0  0  0  0  0  0  0  0  0
   -0.3806   -2.9729    0.2739 O   0  0  0  0  0  0  0  0  0  0  0  0
   -1.2428   -0.9587   -0.2573 N   0  0  0  0  0  0  0  0  0  0  0  0
   -2.0967   -0.4095   -0.3598 H   0  0  0  0  0  0  0  0  0  0  0  0
    0.0210   -0.2131   -0.2881 C   0  0  1  0  0  0  0  0  0  0  0  0
    0.7455   -0.7618    0.3225 H   0  0  0  0  0  0  0  0  0  0  0  0
    0.5956   -0.1859   -1.7207 C   0  0  0  0  0  0  0  0  0  0  0  0
    1.5538    0.3390   -1.7073 H   0  0  0  0  0  0  0  0  0  0  0  0
    0.7934   -1.2178   -2.0245 H   0  0  0  0  0  0  0  0  0  0  0  0
   -0.2655    0.4535   -2.8108 C   0  0  0  0  0  0  0  0  0  0  0  0
   -1.2221    1.1531   -2.5334 O   0  0  0  0  0  0  0  0  0  0  0  0
    0.1208    0.2039   -4.0830 O   0  0  0  0  0  0  0  0  0  0  0  0
   -0.5091    0.6790   -4.6465 H   0  0  0  0  0  0  0  0  0  0  0  0
   -0.0913    1.1701    0.3950 C   0  0  0  0  0  0  0  0  0  0  0  0
   -1.1441    1.7947    0.3779 O   0  0  0  0  0  0  0  0  0  0  0  0
    0.9029    1.5886    1.2624 N   0  0  0  0  0  0  0  0  0  0  0  0
    1.7215    0.9961    1.3650 H   0  0  0  0  0  0  0  0  0  0  0  0
    0.7865    2.7779    2.0990 C   0  0  0  0  0  0  0  0  0  0  0  0
   -0.0645    2.6840    2.7820 H   0  0  0  0  0  0  0  0  0  0  0  0
    1.6944    2.9130    2.6946 H   0  0  0  0  0  0  0  0  0  0  0  0
    0.6436    3.6698    1.4796 H   0  0  0  0  0  0  0  0  0  0  0  0
  1  2  1  0  0  0  0
  2  3  1  0  0  0  0
  2  4  1  0  0  0  0
  2  5  1  0  0  0  0
  5  6  2  0  0  0  0
  5  7  1  0  0  0  0
  7  8  1  0  0  0  0
  7  9  1  0  0  0  0
  9 10  1  0  0  0  0
  9 11  1  0  0  0  0
  9 18  1  0  0  0  0
 11 12  1  0  0  0  0
 11 13  1  0  0  0  0
 11 14  1  0  0  0  0
 14 15  2  0  0  0  0
 14 16  1  0  0  0  0
 16 17  1  0  0  0  0
 18 19  2  0  0  0  0
 18 20  1  0  0  0  0
 20 21  1  0  0  0  0
 20 22  1  0  0  0  0
 22 23  1  0  0  0  0
 22 24  1  0  0  0  0
 22 25  1  0  0  0  0
M  END
$$$$

  -OEChem-02102214113D

 25 24  0     1  0  0  0  0  0999 V2000
   -2.6805   -3.9472    0.4703 H   0  0  0  0  0  0  0  0  0  0  0  0
   -2.7592   -2.8940    0.1867 C   0  0  0  0  0  0  0  0  0  0  0  0
   -3.3254   -2.3633    0.9560 H   0  0  0  0  0  0  0  0  0  0  0  0
   -3.2939   -2.8235   -0.7636 H   0  0  0  0  0  0  0  0  0  0  0  0
   -1.3767   -2.2846    0.0489 C   0  0  0  0  0  0  0  0  0  0  0  0
   -0.3836   -2.9728    0.2280 O   0  0  0  0  0  0  0  0  0  0  0  0
   -1.2445   -0.9508   -0.2758 N   0  0  0  0  0  0  0  0  0  0  0  0
   -2.0961   -0.3904   -0.3208 H   0  0  0  0  0  0  0  0  0  0  0  0
    0.0241   -0.2121   -0.3028 C   0  0  1  0  0  0  0  0  0  0  0  0
    0.7426   -0.7618    0.3143 H   0  0  0  0  0  0  0  0  0  0  0  0
    0.6083   -0.1948   -1.7318 C   0  0  0  0  0  0  0  0  0  0  0  0
    1.5695    0.3245   -1.7172 H   0  0  0  0  0  0  0  0  0  0  0  0
    0.8016   -1.2297   -2.0287 H   0  0  0  0  0  0  0  0  0  0  0  0
   -0.2470    0.4460   -2.8243 C   0  0  0  0  0  0  0  0  0  0  0  0
   -1.0165    1.3519   -2.5649 O   0  0  0  0  0  0  0  0  0  0  0  0
   -0.0719   -0.0384   -4.0756 O   0  0  0  0  0  0  0  0  0  0  0  0
   -0.6721    0.4710   -4.6414 H   0  0  0  0  0  0  0  0  0  0  0  0
   -0.0941    1.1694    0.3828 C   0  0  0  0  0  0  0  0  0  0  0  0
   -1.1622    1.7688    0.3924 O   0  0  0  0  0  0  0  0  0  0  0  0
    0.8949    1.5867    1.2566 N   0  0  0  0  0  0  0  0  0  0  0  0
    1.7283    1.0119    1.3369 H   0  0  0  0  0  0  0  0  0  0  0  0
    0.7680    2.7640    2.1082 C   0  0  0  0  0  0  0  0  0  0  0  0
   -0.0683    2.6446    2.8050 H   0  0  0  0  0  0  0  0  0  0  0  0
    1.6838    2.9123    2.6886 H   0  0  0  0  0  0  0  0  0  0  0  0
    0.5952    3.6590    1.5012 H   0  0  0  0  0  0  0  0  0  0  0  0
  1  2  1  0  0  0  0
  2  3  1  0  0  0  0
  2  4  1  0  0  0  0
  2  5  1  0  0  0  0
  5  6  2  0  0  0  0
  5  7  1  0  0  0  0
  7  8  1  0  0  0  0
  7  9  1  0  0  0  0
  9 10  1  0  0  0  0
  9 11  1  0  0  0  0
  9 18  1  0  0  0  0
 11 12  1  0  0  0  0
 11 13  1  0  0  0  0
 11 14  1  0  0  0  0
 14 15  2  0  0  0  0
 14 16  1  0  0  0  0
 16 17  1  0  0  0  0
 18 19  2  0  0  0  0
 18 20  1  0  0  0  0
 20 21  1  0  0  0  0
 20 22  1  0  0  0  0
 22 23  1  0  0  0  0
 22 24  1  0  0  0  0
 22 25  1  0  0  0  0
M  END
$$$$

  -OEChem-02102214113D

 25 24  0     1  0  0  0  0  0999 V2000
   -2.6933   -3.9357    0.4679 H   0  0  0  0  0  0  0  0  0  0  0  0
   -2.7638   -2.8801    0.1911 C   0  0  0  0  0  0  0  0  0  0  0  0
   -3.3196   -2.3483    0.9672 H   0  0  0  0  0  0  0  0  0  0  0  0
   -3.3044   -2.7986   -0.7551 H   0  0  0  0  0  0  0  0  0  0  0  0
   -1.3765   -2.2837    0.0467 C   0  0  0  0  0  0  0  0  0  0  0  0
   -0.3887   -2.9794    0.2265 O   0  0  0  0  0  0  0  0  0  0  0  0
   -1.2341   -0.9525   -0.2843 N   0  0  0  0  0  0  0  0  0  0  0  0
   -2.0801   -0.3826   -0.3069 H   0  0  0  0  0  0  0  0  0  0  0  0
    0.0414   -0.2254   -0.3061 C   0  0  1  0  0  0  0  0  0  0  0  0
    0.7561   -0.7761    0.3144 H   0  0  0  0  0  0  0  0  0  0  0  0
    0.6243   -0.2123   -1.7351 C   0  0  0  0  0  0  0  0  0  0  0  0
    1.5897    0.2995   -1.7243 H   0  0  0  0  0  0  0  0  0  0  0  0
    0.8079   -1.2482   -2.0352 H   0  0  0  0  0  0  0  0  0  0  0  0
   -0.2370    0.4424   -2.8131 C   0  0  0  0  0  0  0  0  0  0  0  0
   -0.7785    1.5107   -2.5992 O   0  0  0  0  0  0  0  0  0  0  0  0
   -0.3370   -0.2149   -3.9918 O   0  0  0  0  0  0  0  0  0  0  0  0
   -0.9069    0.3344   -4.5514 H   0  0  0  0  0  0  0  0  0  0  0  0
   -0.0857    1.1572    0.3749 C   0  0  0  0  0  0  0  0  0  0  0  0
   -1.1597    1.7470    0.3740 O   0  0  0  0  0  0  0  0  0  0  0  0
    0.8907    1.5808    1.2596 N   0  0  0  0  0  0  0  0  0  0  0  0
    1.7304    1.0159    1.3448 H   0  0  0  0  0  0  0  0  0  0  0  0
    0.7501    2.7651    2.0994 C   0  0  0  0  0  0  0  0  0  0  0  0
   -0.0799    2.6398    2.8027 H   0  0  0  0  0  0  0  0  0  0  0  0
    1.6667    2.9350    2.6723 H   0  0  0  0  0  0  0  0  0  0  0  0
    0.5592    3.6506    1.4838 H   0  0  0  0  0  0  0  0  0  0  0  0
  1  2  1  0  0  0  0
  2  3  1  0  0  0  0
  2  4  1  0  0  0  0
  2  5  1  0  0  0  0
  5  6  2  0  0  0  0
  5  7  1  0  0  0  0
  7  8  1  0  0  0  0
  7  9  1  0  0  0  0
  9 10  1  0  0  0  0
  9 11  1  0  0  0  0
  9 18  1  0  0  0  0
 11 12  1  0  0  0  0
 11 13  1  0  0  0  0
 11 14  1  0  0  0  0
 14 15  2  0  0  0  0
 14 16  1  0  0  0  0
 16 17  1  0  0  0  0
 18 19  2  0  0  0  0
 18 20  1  0  0  0  0
 20 21  1  0  0  0  0
 20 22  1  0  0  0  0
 22 23  1  0  0  0  0
 22 24  1  0  0  0  0
 22 25  1  0  0  0  0
M  END
$$$$

  -OEChem-02102214113D

 25 24  0     1  0  0  0  0  0999 V2000
   -2.7025   -3.9328    0.4817 H   0  0  0  0  0  0  0  0  0  0  0  0
   -2.7649   -2.8812    0.1889 C   0  0  0  0  0  0  0  0  0  0  0  0
   -3.3272   -2.3359    0.9508 H   0  0  0  0  0  0  0  0  0  0  0  0
   -3.2943   -2.8116   -0.7644 H   0  0  0  0  0  0  0  0  0  0  0  0
   -1.3732   -2.2931    0.0519 C   0  0  0  0  0  0  0  0  0  0  0  0
   -0.3911   -2.9922    0.2484 O   0  0  0  0  0  0  0  0  0  0  0  0
   -1.2204   -0.9656   -0.2891 N   0  0  0  0  0  0  0  0  0  0  0  0
   -2.0627   -0.3907   -0.3177 H   0  0  0  0  0  0  0  0  0  0  0  0
    0.0608   -0.2477   -0.3027 C   0  0  1  0  0  0  0  0  0  0  0  0
    0.7731   -0.7981    0.3210 H   0  0  0  0  0  0  0  0  0  0  0  0
    0.6402   -0.2270   -1.7316 C   0  0  0  0  0  0  0  0  0  0  0  0
    1.6084    0.2801   -1.7212 H   0  0  0  0  0  0  0  0  0  0  0  0
    0.8163   -1.2595   -2.0472 H   0  0  0  0  0  0  0  0  0  0  0  0
   -0.2340    0.4496   -2.7832 C   0  0  0  0  0  0  0  0  0  0  0  0
   -0.5314    1.6223   -2.6486 O   0  0  0  0  0  0  0  0  0  0  0  0
   -0.6360   -0.3032   -3.8338 O   0  0  0  0  0  0  0  0  0  0  0  0
   -1.1754    0.2834   -4.3856 H   0  0  0  0  0  0  0  0  0  0  0  0
   -0.0773    1.1385    0.3674 C   0  0  0  0  0  0  0  0  0  0  0  0
   -1.1496    1.7309    0.3299 O   0  0  0  0  0  0  0  0  0  0  0  0
    0.8829    1.5718    1.2642 N   0  0  0  0  0  0  0  0  0  0  0  0
    1.7279    1.0166    1.3587 H   0  0  0  0  0  0  0  0  0  0  0  0
    0.7361    2.7748    2.0752 C   0  0  0  0  0  0  0  0  0  0  0  0
   -0.1264    2.6831    2.7437 H   0  0  0  0  0  0  0  0  0  0  0  0
    1.6308    2.9323    2.6850 H   0  0  0  0  0  0  0  0  0  0  0  0
    0.5950    3.6526    1.4356 H   0  0  0  0  0  0  0  0  0  0  0  0
  1  2  1  0  0  0  0
  2  3  1  0  0  0  0
  2  4  1  0  0  0  0
  2  5  1  0  0  0  0
  5  6  2  0  0  0  0
  5  7  1  0  0  0  0
  7  8  1  0  0  0  0
  7  9  1  0  0  0  0
  9 10  1  0  0  0  0
  9 11  1  0  0  0  0
  9 18  1  0  0  0  0
 11 12  1  0  0  0  0
 11 13  1  0  0  0  0
 11 14  1  0  0  0  0
 14 15  2  0  0  0  0
 14 16  1  0  0  0  0
 16 17  1  0  0  0  0
 18 19  2  0  0  0  0
 18 20  1  0  0  0  0
 20 21  1  0  0  0  0
 20 22  1  0  0  0  0
 22 23  1  0  0  0  0
 22 24  1  0  0  0  0
 22 25  1  0  0  0  0
M  END
$$$$

  -OEChem-02102214113D

 25 24  0     1  0  0  0  0  0999 V2000
   -2.7123   -3.9411    0.4769 H   0  0  0  0  0  0  0  0  0  0  0  0
   -2.7636   -2.8919    0.1733 C   0  0  0  0  0  0  0  0  0  0  0  0
   -3.3435   -2.3380    0.9155 H   0  0  0  0  0  0  0  0  0  0  0  0
   -3.2669   -2.8286   -0.7944 H   0  0  0  0  0  0  0  0  0  0  0  0
   -1.3672   -2.3095    0.0671 C   0  0  0  0  0  0  0  0  0  0  0  0
   -0.3924   -3.0086    0.2970 O   0  0  0  0  0  0  0  0  0  0  0  0
   -1.2025   -0.9864   -0.2850 N   0  0  0  0  0  0  0  0  0  0  0  0
   -2.0422   -0.4112   -0.3482 H   0  0  0  0  0  0  0  0  0  0  0  0
    0.0833   -0.2766   -0.2916 C   0  0  1  0  0  0  0  0  0  0  0  0
    0.7970   -0.8266    0.3308 H   0  0  0  0  0  0  0  0  0  0  0  0
    0.6509   -0.2400   -1.7233 C   0  0  0  0  0  0  0  0  0  0  0  0
    1.6225    0.2609   -1.7169 H   0  0  0  0  0  0  0  0  0  0  0  0
    0.8141   -1.2668   -2.0630 H   0  0  0  0  0  0  0  0  0  0  0  0
   -0.2441    0.4636   -2.7370 C   0  0  0  0  0  0  0  0  0  0  0  0
   -0.3024    1.6801   -2.7194 O   0  0  0  0  0  0  0  0  0  0  0  0
   -0.9405   -0.3043   -3.6072 O   0  0  0  0  0  0  0  0  0  0  0  0
   -1.4511    0.3152   -4.1505 H   0  0  0  0  0  0  0  0  0  0  0  0
   -0.0659    1.1139    0.3653 C   0  0  0  0  0  0  0  0  0  0  0  0
   -1.1269    1.7207    0.2709 O   0  0  0  0  0  0  0  0  0  0  0  0
    0.8774    1.5601    1.2731 N   0  0  0  0  0  0  0  0  0  0  0  0
    1.7166    1.0020    1.3983 H   0  0  0  0  0  0  0  0  0  0  0  0
    0.7287    2.7931    2.0373 C   0  0  0  0  0  0  0  0  0  0  0  0
   -0.1624    2.7459    2.6721 H   0  0  0  0  0  0  0  0  0  0  0  0
    1.6015    2.9494    2.6786 H   0  0  0  0  0  0  0  0  0  0  0  0
    0.6360    3.6513    1.3633 H   0  0  0  0  0  0  0  0  0  0  0  0
  1  2  1  0  0  0  0
  2  3  1  0  0  0  0
  2  4  1  0  0  0  0
  2  5  1  0  0  0  0
  5  6  2  0  0  0  0
  5  7  1  0  0  0  0
  7  8  1  0  0  0  0
  7  9  1  0  0  0  0
  9 10  1  0  0  0  0
  9 11  1  0  0  0  0
  9 18  1  0  0  0  0
 11 12  1  0  0  0  0
 11 13  1  0  0  0  0
 11 14  1  0  0  0  0
 14 15  2  0  0  0  0
 14 16  1  0  0  0  0
 16 17  1  0  0  0  0
 18 19  2  0  0  0  0
 18 20  1  0  0  0  0
 20 21  1  0  0  0  0
 20 22  1  0  0  0  0
 22 23  1  0  0  0  0
 22 24  1  0  0  0  0
 22 25  1  0  0  0  0
M  END
$$$$

  -OEChem-02102214113D

 25 24  0     1  0  0  0  0  0999 V2000
   -2.7166   -3.9646    0.4655 H   0  0  0  0  0  0  0  0  0  0  0  0
   -2.7632   -2.9163    0.1577 C   0  0  0  0  0  0  0  0  0  0  0  0
   -3.3680   -2.3633    0.8804 H   0  0  0  0  0  0  0  0  0  0  0  0
   -3.2374   -2.8580   -0.8250 H   0  0  0  0  0  0  0  0  0  0  0  0
   -1.3665   -2.3277    0.0929 C   0  0  0  0  0  0  0  0  0  0  0  0
   -0.3973   -3.0195    0.3650 O   0  0  0  0  0  0  0  0  0  0  0  0
   -1.1945   -1.0080   -0.2687 N   0  0  0  0  0  0  0  0  0  0  0  0
   -2.0329   -0.4417   -0.3939 H   0  0  0  0  0  0  0  0  0  0  0  0
    0.0930   -0.3010   -0.2758 C   0  0  1  0  0  0  0  0  0  0  0  0
    0.8126   -0.8509    0.3399 H   0  0  0  0  0  0  0  0  0  0  0  0
    0.6471   -0.2402   -1.7113 C   0  0  0  0  0  0  0  0  0  0  0  0
    1.6211    0.2567   -1.7059 H   0  0  0  0  0  0  0  0  0  0  0  0
    0.8010   -1.2595   -2.0766 H   0  0  0  0  0  0  0  0  0  0  0  0
   -0.2661    0.4868   -2.6918 C   0  0  0  0  0  0  0  0  0  0  0  0
   -0.1158    1.6880   -2.8324 O   0  0  0  0  0  0  0  0  0  0  0  0
   -1.1970   -0.2341   -3.3605 O   0  0  0  0  0  0  0  0  0  0  0  0
   -1.6705    0.4050   -3.9147 H   0  0  0  0  0  0  0  0  0  0  0  0
   -0.0592    1.0938    0.3695 C   0  0  0  0  0  0  0  0  0  0  0  0
   -1.0991    1.7241    0.2159 O   0  0  0  0  0  0  0  0  0  0  0  0
    0.8757    1.5516    1.2796 N   0  0  0  0  0  0  0  0  0  0  0  0
    1.7007    0.9816    1.4407 H   0  0  0  0  0  0  0  0  0  0  0  0
    0.7357    2.8108    2.0014 C   0  0  0  0  0  0  0  0  0  0  0  0
   -0.1629    2.7958    2.6272 H   0  0  0  0  0  0  0  0  0  0  0  0
    1.6039    2.9764    2.6466 H   0  0  0  0  0  0  0  0  0  0  0  0
    0.6617    3.6481    1.2991 H   0  0  0  0  0  0  0  0  0  0  0  0
  1  2  1  0  0  0  0
  2  3  1  0  0  0  0
  2  4  1  0  0  0  0
  2  5  1  0  0  0  0
  5  6  2  0  0  0  0
  5  7  1  0  0  0  0
  7  8  1  0  0  0  0
  7  9  1  0  0  0  0
  9 10  1  0  0  0  0
  9 11  1  0  0  0  0
  9 18  1  0  0  0  0
 11 12  1  0  0  0  0
 11 13  1  0  0  0  0
 11 14  1  0  0  0  0
 14 15  2  0  0  0  0
 14 16  1  0  0  0  0
 16 17  1  0  0  0  0
 18 19  2  0  0  0  0
 18 20  1  0  0  0  0
 20 21  1  0  0  0  0
 20 22  1  0  0  0  0
 22 23  1  0  0  0  0
 22 24  1  0  0  0  0
 22 25  1  0  0  0  0
M  END
$$$$

  -OEChem-02102214113D

 25 24  0     1  0  0  0  0  0999 V2000
   -2.7112   -3.9974    0.4304 H   0  0  0  0  0  0  0  0  0  0  0  0
   -2.7568   -2.9486    0.1247 C   0  0  0  0  0  0  0  0  0  0  0  0
   -3.4036   -2.4069    0.8188 H   0  0  0  0  0  0  0  0  0  0  0  0
   -3.1828   -2.8922   -0.8799 H   0  0  0  0  0  0  0  0  0  0  0  0
   -1.3673   -2.3406    0.1309 C   0  0  0  0  0  0  0  0  0  0  0  0
   -0.4037   -3.0156    0.4593 O   0  0  0  0  0  0  0  0  0  0  0  0
   -1.1957   -1.0228   -0.2362 N   0  0  0  0  0  0  0  0  0  0  0  0
   -2.0293   -0.4845   -0.4686 H   0  0  0  0  0  0  0  0  0  0  0  0
    0.0893   -0.3121   -0.2511 C   0  0  1  0  0  0  0  0  0  0  0  0
    0.8187   -0.8605    0.3542 H   0  0  0  0  0  0  0  0  0  0  0  0
    0.6253   -0.2304   -1.6925 C   0  0  0  0  0  0  0  0  0  0  0  0
    1.5993    0.2672   -1.6895 H   0  0  0  0  0  0  0  0  0  0  0  0
    0.7752   -1.2438   -2.0745 H   0  0  0  0  0  0  0  0  0  0  0  0
   -0.3042    0.5082   -2.6515 C   0  0  0  0  0  0  0  0  0  0  0  0
    0.0107    1.6369   -2.9877 O   0  0  0  0  0  0  0  0  0  0  0  0
   -1.4159   -0.1233   -3.1008 O   0  0  0  0  0  0  0  0  0  0  0  0
   -1.8595    0.5166   -3.6788 H   0  0  0  0  0  0  0  0  0  0  0  0
   -0.0584    1.0856    0.3874 C   0  0  0  0  0  0  0  0  0  0  0  0
   -1.0693    1.7468    0.1806 O   0  0  0  0  0  0  0  0  0  0  0  0
    0.8807    1.5482    1.2907 N   0  0  0  0  0  0  0  0  0  0  0  0
    1.6847    0.9582    1.4838 H   0  0  0  0  0  0  0  0  0  0  0  0
    0.7661    2.8307    1.9744 C   0  0  0  0  0  0  0  0  0  0  0  0
   -0.1411    2.8589    2.5872 H   0  0  0  0  0  0  0  0  0  0  0  0
    1.6294    2.9900    2.6276 H   0  0  0  0  0  0  0  0  0  0  0  0
    0.7262    3.6491    1.2477 H   0  0  0  0  0  0  0  0  0  0  0  0
  1  2  1  0  0  0  0
  2  3  1  0  0  0  0
  2  4  1  0  0  0  0
  2  5  1  0  0  0  0
  5  6  2  0  0  0  0
  5  7  1  0  0  0  0
  7  8  1  0  0  0  0
  7  9  1  0  0  0  0
  9 10  1  0  0  0  0
  9 11  1  0  0  0  0
  9 18  1  0  0  0  0
 11 12  1  0  0  0  0
 11 13  1  0  0  0  0
 11 14  1  0  0  0  0
 14 15  2  0  0  0  0
 14 16  1  0  0  0  0
 16 17  1  0  0  0  0
 18 19  2  0  0  0  0
 18 20  1  0  0  0  0
 20 21  1  0  0  0  0
 20 22  1  0  0  0  0
 22 23  1  0  0  0  0
 22 24  1  0  0  0  0
 22 25  1  0  0  0  0
M  END
$$$$

  -OEChem-02102214113D

 25 24  0     1  0  0  0  0  0999 V2000
   -2.6976   -4.0291    0.4024 H   0  0  0  0  0  0  0  0  0  0  0  0
   -2.7492   -2.9791    0.1015 C   0  0  0  0  0  0  0  0  0  0  0  0
   -3.4306   -2.4522    0.7738 H   0  0  0  0  0  0  0  0  0  0  0  0
   -3.1381   -2.9228   -0.9181 H   0  0  0  0  0  0  0  0  0  0  0  0
   -1.3709   -2.3487    0.1638 C   0  0  0  0  0  0  0  0  0  0  0  0
   -0.4111   -3.0083    0.5324 O   0  0  0  0  0  0  0  0  0  0  0  0
   -1.2033   -1.0308   -0.2041 N   0  0  0  0  0  0  0  0  0  0  0  0
   -2.0251   -0.5220   -0.5287 H   0  0  0  0  0  0  0  0  0  0  0  0
    0.0796   -0.3173   -0.2287 C   0  0  1  0  0  0  0  0  0  0  0  0
    0.8186   -0.8665    0.3642 H   0  0  0  0  0  0  0  0  0  0  0  0
    0.5985   -0.2155   -1.6764 C   0  0  0  0  0  0  0  0  0  0  0  0
    1.5740    0.2799   -1.6746 H   0  0  0  0  0  0  0  0  0  0  0  0
    0.7429   -1.2247   -2.0707 H   0  0  0  0  0  0  0  0  0  0  0  0
   -0.3374    0.5330   -2.6258 C   0  0  0  0  0  0  0  0  0  0  0  0
    0.1016    1.5329   -3.1677 O   0  0  0  0  0  0  0  0  0  0  0  0
   -1.5780    0.0395   -2.8639 O   0  0  0  0  0  0  0  0  0  0  0  0
   -1.9923    0.6710   -3.4723 H   0  0  0  0  0  0  0  0  0  0  0  0
   -0.0614    1.0807    0.4104 C   0  0  0  0  0  0  0  0  0  0  0  0
   -1.0453    1.7694    0.1667 O   0  0  0  0  0  0  0  0  0  0  0  0
    0.8852    1.5436    1.3057 N   0  0  0  0  0  0  0  0  0  0  0  0
    1.6708    0.9370    1.5221 H   0  0  0  0  0  0  0  0  0  0  0  0
    0.7979    2.8454    1.9564 C   0  0  0  0  0  0  0  0  0  0  0  0
   -0.1199    2.9172    2.5495 H   0  0  0  0  0  0  0  0  0  0  0  0
    1.6527    2.9938    2.6232 H   0  0  0  0  0  0  0  0  0  0  0  0
    0.7985    3.6466    1.2099 H   0  0  0  0  0  0  0  0  0  0  0  0
  1  2  1  0  0  0  0
  2  3  1  0  0  0  0
  2  4  1  0  0  0  0
  2  5  1  0  0  0  0
  5  6  2  0  0  0  0
  5  7  1  0  0  0  0
  7  8  1  0  0  0  0
  7  9  1  0  0  0  0
  9 10  1  0  0  0  0
  9 11  1  0  0  0  0
  9 18  1  0  0  0  0
 11 12  1  0  0  0  0
 11 13  1  0  0  0  0
 11 14  1  0  0  0  0
 14 15  2  0  0  0  0
 14 16  1  0  0  0  0
 16 17  1  0  0  0  0
 18 19  2  0  0  0  0
 18 20  1  0  0  0  0
 20 21  1  0  0  0  0
 20 22  1  0  0  0  0
 22 23  1  0  0  0  0
 22 24  1  0  0  0  0
 22 25  1  0  0  0  0
M  END
$$$$

  -OEChem-02102214113D

 25 24  0     1  0  0  0  0  0999 V2000
   -2.6850   -4.0454    0.3879 H   0  0  0  0  0  0  0  0  0  0  0  0
   -2.7429   -2.9942    0.0919 C   0  0  0  0  0  0  0  0  0  0  0  0
   -3.4418   -2.4784    0.7549 H   0  0  0  0  0  0  0  0  0  0  0  0
   -3.1145   -2.9363   -0.9342 H   0  0  0  0  0  0  0  0  0  0  0  0
   -1.3732   -2.3488    0.1820 C   0  0  0  0  0  0  0  0  0  0  0  0
   -0.4127   -2.9992    0.5648 O   0  0  0  0  0  0  0  0  0  0  0  0
   -1.2139   -1.0290   -0.1821 N   0  0  0  0  0  0  0  0  0  0  0  0
   -2.0292   -0.5383   -0.5496 H   0  0  0  0  0  0  0  0  0  0  0  0
    0.0646   -0.3094   -0.2151 C   0  0  1  0  0  0  0  0  0  0  0  0
    0.8103   -0.8598    0.3680 H   0  0  0  0  0  0  0  0  0  0  0  0
    0.5741   -0.1986   -1.6666 C   0  0  0  0  0  0  0  0  0  0  0  0
    1.5470    0.3016   -1.6631 H   0  0  0  0  0  0  0  0  0  0  0  0
    0.7234   -1.2070   -2.0616 H   0  0  0  0  0  0  0  0  0  0  0  0
   -0.3580    0.5462   -2.6265 C   0  0  0  0  0  0  0  0  0  0  0  0
    0.1598    1.3623   -3.3698 O   0  0  0  0  0  0  0  0  0  0  0  0
   -1.6762    0.2270   -2.6764 O   0  0  0  0  0  0  0  0  0  0  0  0
   -2.0622    0.8317   -3.3290 H   0  0  0  0  0  0  0  0  0  0  0  0
   -0.0665    1.0876    0.4287 C   0  0  0  0  0  0  0  0  0  0  0  0
   -1.0327    1.7965    0.1740 O   0  0  0  0  0  0  0  0  0  0  0  0
    0.8927    1.5441    1.3139 N   0  0  0  0  0  0  0  0  0  0  0  0
    1.6625    0.9215    1.5414 H   0  0  0  0  0  0  0  0  0  0  0  0
    0.8245    2.8478    1.9633 C   0  0  0  0  0  0  0  0  0  0  0  0
   -0.0874    2.9300    2.5641 H   0  0  0  0  0  0  0  0  0  0  0  0
    1.6866    2.9881    2.6226 H   0  0  0  0  0  0  0  0  0  0  0  0
    0.8271    3.6484    1.2158 H   0  0  0  0  0  0  0  0  0  0  0  0
  1  2  1  0  0  0  0
  2  3  1  0  0  0  0
  2  4  1  0  0  0  0
  2  5  1  0  0  0  0
  5  6  2  0  0  0  0
  5  7  1  0  0  0  0
  7  8  1  0  0  0  0
  7  9  1  0  0  0  0
  9 10  1  0  0  0  0
  9 11  1  0  0  0  0
  9 18  1  0  0  0  0
 11 12  1  0  0  0  0
 11 13  1  0  0  0  0
 11 14  1  0  0  0  0
 14 15  2  0  0  0  0
 14 16  1  0  0  0  0
 16 17  1  0  0  0  0
 18 19  2  0  0  0  0
 18 20  1  0  0  0  0
 20 21  1  0  0  0  0
 20 22  1  0  0  0  0
 22 23  1  0  0  0  0
 22 24  1  0  0  0  0
 22 25  1  0  0  0  0
M  END
$$$$

  -OEChem-02102214113D

 25 24  0     1  0  0  0  0  0999 V2000
   -2.6773   -4.0481    0.3845 H   0  0  0  0  0  0  0  0  0  0  0  0
   -2.7407   -2.9961    0.0925 C   0  0  0  0  0  0  0  0  0  0  0  0
   -3.4376   -2.4853    0.7614 H   0  0  0  0  0  0  0  0  0  0  0  0
   -3.1184   -2.9362   -0.9311 H   0  0  0  0  0  0  0  0  0  0  0  0
   -1.3732   -2.3454    0.1768 C   0  0  0  0  0  0  0  0  0  0  0  0
   -0.4066   -2.9946    0.5460 O   0  0  0  0  0  0  0  0  0  0  0  0
   -1.2232   -1.0215   -0.1762 N   0  0  0  0  0  0  0  0  0  0  0  0
   -2.0434   -0.5294   -0.5320 H   0  0  0  0  0  0  0  0  0  0  0  0
    0.0495   -0.2922   -0.2108 C   0  0  1  0  0  0  0  0  0  0  0  0
    0.7971   -0.8441    0.3684 H   0  0  0  0  0  0  0  0  0  0  0  0
    0.5599   -0.1812   -1.6626 C   0  0  0  0  0  0  0  0  0  0  0  0
    1.5282    0.3276   -1.6561 H   0  0  0  0  0  0  0  0  0  0  0  0
    0.7196   -1.1910   -2.0498 H   0  0  0  0  0  0  0  0  0  0  0  0
   -0.3638    0.5496   -2.6428 C   0  0  0  0  0  0  0  0  0  0  0  0
    0.1820    1.1377   -3.5607 O   0  0  0  0  0  0  0  0  0  0  0  0
   -1.7117    0.4360   -2.5332 O   0  0  0  0  0  0  0  0  0  0  0  0
   -2.0775    0.9927   -3.2375 H   0  0  0  0  0  0  0  0  0  0  0  0
   -0.0711    1.1018    0.4429 C   0  0  0  0  0  0  0  0  0  0  0  0
   -1.0319    1.8222    0.2026 O   0  0  0  0  0  0  0  0  0  0  0  0
    0.9010    1.5466    1.3202 N   0  0  0  0  0  0  0  0  0  0  0  0
    1.6645    0.9139    1.5414 H   0  0  0  0  0  0  0  0  0  0  0  0
    0.8436    2.8426    1.9864 C   0  0  0  0  0  0  0  0  0  0  0  0
   -0.0598    2.9185    2.6009 H   0  0  0  0  0  0  0  0  0  0  0  0
    1.7149    2.9741    2.6353 H   0  0  0  0  0  0  0  0  0  0  0  0
    0.8371    3.6523    1.2488 H   0  0  0  0  0  0  0  0  0  0  0  0
  1  2  1  0  0  0  0
  2  3  1  0  0  0  0
  2  4  1  0  0  0  0
  2  5  1  0  0  0  0
  5  6  2  0  0  0  0
  5  7  1  0  0  0  0
  7  8  1  0  0  0  0
  7  9  1  0  0  0  0
  9 10  1  0  0  0  0
  9 11  1  0  0  0  0
  9 18  1  0  0  0  0
 11 12  1  0  0  0  0
 11 13  1  0  0  0  0
 11 14  1  0  0  0  0
 14 15  2  0  0  0  0
 14 16  1  0  0  0  0
 16 17  1  0  0  0  0
 18 19  2  0  0  0  0
 18 20  1  0  0  0  0
 20 21  1  0  0  0  0
 20 22  1  0  0  0  0
 22 23  1  0  0  0  0
 22 24  1  0  0  0  0
 22 25  1  0  0  0  0
M  END
$$$$

  -OEChem-02102214113D

 25 24  0     1  0  0  0  0  0999 V2000
   -2.6713   -4.0364    0.3895 H   0  0  0  0  0  0  0  0  0  0  0  0
   -2.7413   -2.9838    0.1013 C   0  0  0  0  0  0  0  0  0  0  0  0
   -3.4219   -2.4746    0.7878 H   0  0  0  0  0  0  0  0  0  0  0  0
   -3.1436   -2.9215   -0.9126 H   0  0  0  0  0  0  0  0  0  0  0  0
   -1.3718   -2.3338    0.1546 C   0  0  0  0  0  0  0  0  0  0  0  0
   -0.3951   -2.9884    0.4857 O   0  0  0  0  0  0  0  0  0  0  0  0
   -1.2315   -1.0047   -0.1832 N   0  0  0  0  0  0  0  0  0  0  0  0
   -2.0643   -0.4993   -0.4873 H   0  0  0  0  0  0  0  0  0  0  0  0
    0.0349   -0.2646   -0.2171 C   0  0  1  0  0  0  0  0  0  0  0  0
    0.7803   -0.8175    0.3639 H   0  0  0  0  0  0  0  0  0  0  0  0
    0.5564   -0.1680   -1.6661 C   0  0  0  0  0  0  0  0  0  0  0  0
    1.5186    0.3516   -1.6571 H   0  0  0  0  0  0  0  0  0  0  0  0
    0.7310   -1.1829   -2.0337 H   0  0  0  0  0  0  0  0  0  0  0  0
   -0.3548    0.5370   -2.6761 C   0  0  0  0  0  0  0  0  0  0  0  0
    0.1683    0.8627   -3.7280 O   0  0  0  0  0  0  0  0  0  0  0  0
   -1.6852    0.6602   -2.4432 O   0  0  0  0  0  0  0  0  0  0  0  0
   -2.0431    1.1463   -3.2014 H   0  0  0  0  0  0  0  0  0  0  0  0
   -0.0746    1.1247    0.4503 C   0  0  0  0  0  0  0  0  0  0  0  0
   -1.0488    1.8412    0.2600 O   0  0  0  0  0  0  0  0  0  0  0  0
    0.9116    1.5549    1.3196 N   0  0  0  0  0  0  0  0  0  0  0  0
    1.6794    0.9193    1.5157 H   0  0  0  0  0  0  0  0  0  0  0  0
    0.8549    2.8296    2.0259 C   0  0  0  0  0  0  0  0  0  0  0  0
   -0.0391    2.8794    2.6565 H   0  0  0  0  0  0  0  0  0  0  0  0
    1.7354    2.9482    2.6649 H   0  0  0  0  0  0  0  0  0  0  0  0
    0.8302    3.6611    1.3136 H   0  0  0  0  0  0  0  0  0  0  0  0
  1  2  1  0  0  0  0
  2  3  1  0  0  0  0
  2  4  1  0  0  0  0
  2  5  1  0  0  0  0
  5  6  2  0  0  0  0
  5  7  1  0  0  0  0
  7  8  1  0  0  0  0
  7  9  1  0  0  0  0
  9 10  1  0  0  0  0
  9 11  1  0  0  0  0
  9 18  1  0  0  0  0
 11 12  1  0  0  0  0
 11 13  1  0  0  0  0
 11 14  1  0  0  0  0
 14 15  2  0  0  0  0
 14 16  1  0  0  0  0
 16 17  1  0  0  0  0
 18 19  2  0  0  0  0
 18 20  1  0  0  0  0
 20 21  1  0  0  0  0
 20 22  1  0  0  0  0
 22 23  1  0  0  0  0
 22 24  1  0  0  0  0
 22 25  1  0  0  0  0
M  END
$$$$

  -OEChem-02102214113D

 25 24  0     1  0  0  0  0  0999 V2000
   -2.6467   -3.9772    0.4202 H   0  0  0  0  0  0  0  0  0  0  0  0
   -2.7384   -2.9200    0.1558 C   0  0  0  0  0  0  0  0  0  0  0  0
   -3.3306   -2.4149    0.9228 H   0  0  0  0  0  0  0  0  0  0  0  0
   -3.2536   -2.8401   -0.8044 H   0  0  0  0  0  0  0  0  0  0  0  0
   -1.3648   -2.2834    0.0588 C   0  0  0  0  0  0  0  0  0  0  0  0
   -0.3633   -2.9592    0.2379 O   0  0  0  0  0  0  0  0  0  0  0  0
   -1.2510   -0.9407   -0.2360 N   0  0  0  0  0  0  0  0  0  0  0  0
   -2.1114   -0.3981   -0.3073 H   0  0  0  0  0  0  0  0  0  0  0  0
    0.0053   -0.1820   -0.2655 C   0  0  1  0  0  0  0  0  0  0  0  0
    0.7268   -0.7419    0.3387 H   0  0  0  0  0  0  0  0  0  0  0  0
    0.5907   -0.1581   -1.6943 C   0  0  0  0  0  0  0  0  0  0  0  0
    1.6359    0.1551   -1.6277 H   0  0  0  0  0  0  0  0  0  0  0  0
    0.5783   -1.1772   -2.0917 H   0  0  0  0  0  0  0  0  0  0  0  0
   -0.0872    0.7551   -2.7159 C   0  0  0  0  0  0  0  0  0  0  0  0
    0.3964    0.7569   -3.8348 O   0  0  0  0  0  0  0  0  0  0  0  0
   -1.2223    1.4167   -2.4023 O   0  0  0  0  0  0  0  0  0  0  0  0
   -1.4832    1.9063   -3.1961 H   0  0  0  0  0  0  0  0  0  0  0  0
   -0.0923    1.1878    0.4472 C   0  0  0  0  0  0  0  0  0  0  0  0
   -1.1485    1.8073    0.4760 O   0  0  0  0  0  0  0  0  0  0  0  0
    0.9192    1.5861    1.3035 N   0  0  0  0  0  0  0  0  0  0  0  0
    1.7437    0.9963    1.3678 H   0  0  0  0  0  0  0  0  0  0  0  0
    0.8232    2.7566    2.1684 C   0  0  0  0  0  0  0  0  0  0  0  0
   -0.0033    2.6427    2.8779 H   0  0  0  0  0  0  0  0  0  0  0  0
    1.7501    2.8860    2.7354 H   0  0  0  0  0  0  0  0  0  0  0  0
    0.6541    3.6595    1.5723 H   0  0  0  0  0  0  0  0  0  0  0  0
  1  2  1  0  0  0  0
  2  3  1  0  0  0  0
  2  4  1  0  0  0  0
  2  5  1  0  0  0  0
  5  6  2  0  0  0  0
  5  7  1  0  0  0  0
  7  8  1  0  0  0  0
  7  9  1  0  0  0  0
  9 10  1  0  0  0  0
  9 11  1  0  0  0  0
  9 18  1  0  0  0  0
 11 12  1  0  0  0  0
 11 13  1  0  0  0  0
 11 14  1  0  0  0  0
 14 15  2  0  0  0  0
 14 16  1  0  0  0  0
 16 17  1  0  0  0  0
 18 19  2  0  0  0  0
 18 20  1  0  0  0  0
 20 21  1  0  0  0  0
 20 22  1  0  0  0  0
 22 23  1  0  0  0  0
 22 24  1  0  0  0  0
 22 25  1  0  0  0  0
M  END
$$$$

  -OEChem-02102214113D

 25 24  0     1  0  0  0  0  0999 V2000
   -2.6389   -3.9640    0.4525 H   0  0  0  0  0  0  0  0  0  0  0  0
   -2.7352   -2.9069    0.1895 C   0  0  0  0  0  0  0  0  0  0  0  0
   -3.2929   -2.3968    0.9786 H   0  0  0  0  0  0  0  0  0  0  0  0
   -3.2884   -2.8261   -0.7492 H   0  0  0  0  0  0  0  0  0  0  0  0
   -1.3634   -2.2779    0.0355 C   0  0  0  0  0  0  0  0  0  0  0  0
   -0.3593   -2.9607    0.1670 O   0  0  0  0  0  0  0  0  0  0  0  0
   -1.2539   -0.9332   -0.2530 N   0  0  0  0  0  0  0  0  0  0  0  0
   -2.1115   -0.3816   -0.2426 H   0  0  0  0  0  0  0  0  0  0  0  0
    0.0054   -0.1784   -0.2855 C   0  0  1  0  0  0  0  0  0  0  0  0
    0.7262   -0.7387    0.3192 H   0  0  0  0  0  0  0  0  0  0  0  0
    0.5906   -0.1664   -1.7162 C   0  0  0  0  0  0  0  0  0  0  0  0
    1.6358    0.1453   -1.6496 H   0  0  0  0  0  0  0  0  0  0  0  0
    0.5790   -1.1908   -2.1008 H   0  0  0  0  0  0  0  0  0  0  0  0
   -0.0726    0.7382   -2.7553 C   0  0  0  0  0  0  0  0  0  0  0  0
    0.2188    0.5198   -3.9187 O   0  0  0  0  0  0  0  0  0  0  0  0
   -0.9096    1.7275   -2.3797 O   0  0  0  0  0  0  0  0  0  0  0  0
   -1.1994    2.1679   -3.1921 H   0  0  0  0  0  0  0  0  0  0  0  0
   -0.1036    1.1839    0.4404 C   0  0  0  0  0  0  0  0  0  0  0  0
   -1.1835    1.7590    0.5162 O   0  0  0  0  0  0  0  0  0  0  0  0
    0.9044    1.5838    1.3006 N   0  0  0  0  0  0  0  0  0  0  0  0
    1.7498    1.0218    1.3324 H   0  0  0  0  0  0  0  0  0  0  0  0
    0.7889    2.7308    2.1944 C   0  0  0  0  0  0  0  0  0  0  0  0
   -0.0299    2.5813    2.9062 H   0  0  0  0  0  0  0  0  0  0  0  0
    1.7166    2.8673    2.7584 H   0  0  0  0  0  0  0  0  0  0  0  0
    0.5956    3.6441    1.6219 H   0  0  0  0  0  0  0  0  0  0  0  0
  1  2  1  0  0  0  0
  2  3  1  0  0  0  0
  2  4  1  0  0  0  0
  2  5  1  0  0  0  0
  5  6  2  0  0  0  0
  5  7  1  0  0  0  0
  7  8  1  0  0  0  0
  7  9  1  0  0  0  0
  9 10  1  0  0  0  0
  9 11  1  0  0  0  0
  9 18  1  0  0  0  0
 11 12  1  0  0  0  0
 11 13  1  0  0  0  0
 11 14  1  0  0  0  0
 14 15  2  0  0  0  0
 14 16  1  0  0  0  0
 16 17  1  0  0  0  0
 18 19  2  0  0  0  0
 18 20  1  0  0  0  0
 20 21  1  0  0  0  0
 20 22  1  0  0  0  0
 22 23  1  0  0  0  0
 22 24  1  0  0  0  0
 22 25  1  0  0  0  0
M  END
$$$$

  -OEChem-02102214113D

 25 24  0     1  0  0  0  0  0999 V2000
   -2.6458   -3.9543    0.4641 H   0  0  0  0  0  0  0  0  0  0  0  0
   -2.7376   -2.8963    0.2032 C   0  0  0  0  0  0  0  0  0  0  0  0
   -3.2793   -2.3823    1.0009 H   0  0  0  0  0  0  0  0  0  0  0  0
   -3.3046   -2.8106   -0.7269 H   0  0  0  0  0  0  0  0  0  0  0  0
   -1.3624   -2.2798    0.0302 C   0  0  0  0  0  0  0  0  0  0  0  0
   -0.3625   -2.9690    0.1598 O   0  0  0  0  0  0  0  0  0  0  0  0
   -1.2440   -0.9372   -0.2650 N   0  0  0  0  0  0  0  0  0  0  0  0
   -2.0963   -0.3778   -0.2384 H   0  0  0  0  0  0  0  0  0  0  0  0
    0.0230   -0.1943   -0.2931 C   0  0  1  0  0  0  0  0  0  0  0  0
    0.7449   -0.7551    0.3101 H   0  0  0  0  0  0  0  0  0  0  0  0
    0.5928   -0.1804   -1.7304 C   0  0  0  0  0  0  0  0  0  0  0  0
    1.6409    0.1230   -1.6746 H   0  0  0  0  0  0  0  0  0  0  0  0
    0.5696   -1.2025   -2.1213 H   0  0  0  0  0  0  0  0  0  0  0  0
   -0.0775    0.7432   -2.7478 C   0  0  0  0  0  0  0  0  0  0  0  0
   -0.0504    0.3799   -3.9112 O   0  0  0  0  0  0  0  0  0  0  0  0
   -0.5317    1.9559   -2.3666 O   0  0  0  0  0  0  0  0  0  0  0  0
   -0.8780    2.3829   -3.1640 H   0  0  0  0  0  0  0  0  0  0  0  0
   -0.1028    1.1670    0.4306 C   0  0  0  0  0  0  0  0  0  0  0  0
   -1.1900    1.7324    0.4835 O   0  0  0  0  0  0  0  0  0  0  0  0
    0.8889    1.5753    1.3050 N   0  0  0  0  0  0  0  0  0  0  0  0
    1.7408    1.0238    1.3449 H   0  0  0  0  0  0  0  0  0  0  0  0
    0.7523    2.7246    2.1922 C   0  0  0  0  0  0  0  0  0  0  0  0
   -0.0690    2.5678    2.8994 H   0  0  0  0  0  0  0  0  0  0  0  0
    1.6746    2.8754    2.7613 H   0  0  0  0  0  0  0  0  0  0  0  0
    0.5509    3.6327    1.6141 H   0  0  0  0  0  0  0  0  0  0  0  0
  1  2  1  0  0  0  0
  2  3  1  0  0  0  0
  2  4  1  0  0  0  0
  2  5  1  0  0  0  0
  5  6  2  0  0  0  0
  5  7  1  0  0  0  0
  7  8  1  0  0  0  0
  7  9  1  0  0  0  0
  9 10  1  0  0  0  0
  9 11  1  0  0  0  0
  9 18  1  0  0  0  0
 11 12  1  0  0  0  0
 11 13  1  0  0  0  0
 11 14  1  0  0  0  0
 14 15  2  0  0  0  0
 14 16  1  0  0  0  0
 16 17  1  0  0  0  0
 18 19  2  0  0  0  0
 18 20  1  0  0  0  0
 20 21  1  0  0  0  0
 20 22  1  0  0  0  0
 22 23  1  0  0  0  0
 22 24  1  0  0  0  0
 22 25  1  0  0  0  0
M  END
$$$$

  -OEChem-02102214113D

 25 24  0     1  0  0  0  0  0999 V2000
   -2.6660   -3.9552    0.4503 H   0  0  0  0  0  0  0  0  0  0  0  0
   -2.7437   -2.8977    0.1823 C   0  0  0  0  0  0  0  0  0  0  0  0
   -3.3000   -2.3759    0.9648 H   0  0  0  0  0  0  0  0  0  0  0  0
   -3.2881   -2.8126   -0.7612 H   0  0  0  0  0  0  0  0  0  0  0  0
   -1.3606   -2.2915    0.0376 C   0  0  0  0  0  0  0  0  0  0  0  0
   -0.3687   -2.9860    0.1975 O   0  0  0  0  0  0  0  0  0  0  0  0
   -1.2261   -0.9528   -0.2678 N   0  0  0  0  0  0  0  0  0  0  0  0
   -2.0747   -0.3873   -0.2669 H   0  0  0  0  0  0  0  0  0  0  0  0
    0.0489   -0.2229   -0.2848 C   0  0  1  0  0  0  0  0  0  0  0  0
    0.7722   -0.7856    0.3149 H   0  0  0  0  0  0  0  0  0  0  0  0
    0.5997   -0.1931   -1.7277 C   0  0  0  0  0  0  0  0  0  0  0  0
    1.6517    0.0994   -1.6876 H   0  0  0  0  0  0  0  0  0  0  0  0
    0.5587   -1.2058   -2.1412 H   0  0  0  0  0  0  0  0  0  0  0  0
   -0.0922    0.7658   -2.6943 C   0  0  0  0  0  0  0  0  0  0  0  0
   -0.3631    0.3397   -3.8042 O   0  0  0  0  0  0  0  0  0  0  0  0
   -0.1858    2.0727   -2.3618 O   0  0  0  0  0  0  0  0  0  0  0  0
   -0.6080    2.5156   -3.1128 H   0  0  0  0  0  0  0  0  0  0  0  0
   -0.0912    1.1418    0.4283 C   0  0  0  0  0  0  0  0  0  0  0  0
   -1.1710    1.7242    0.4183 O   0  0  0  0  0  0  0  0  0  0  0  0
    0.8787    1.5620    1.3207 N   0  0  0  0  0  0  0  0  0  0  0  0
    1.7325    1.0156    1.3846 H   0  0  0  0  0  0  0  0  0  0  0  0
    0.7359    2.7476    2.1575 C   0  0  0  0  0  0  0  0  0  0  0  0
   -0.1165    2.6374    2.8361 H   0  0  0  0  0  0  0  0  0  0  0  0
    1.6383    2.8986    2.7577 H   0  0  0  0  0  0  0  0  0  0  0  0
    0.5806    3.6371    1.5378 H   0  0  0  0  0  0  0  0  0  0  0  0
  1  2  1  0  0  0  0
  2  3  1  0  0  0  0
  2  4  1  0  0  0  0
  2  5  1  0  0  0  0
  5  6  2  0  0  0  0
  5  7  1  0  0  0  0
  7  8  1  0  0  0  0
  7  9  1  0  0  0  0
  9 10  1  0  0  0  0
  9 11  1  0  0  0  0
  9 18  1  0  0  0  0
 11 12  1  0  0  0  0
 11 13  1  0  0  0  0
 11 14  1  0  0  0  0
 14 15  2  0  0  0  0
 14 16  1  0  0  0  0
 16 17  1  0  0  0  0
 18 19  2  0  0  0  0
 18 20  1  0  0  0  0
 20 21  1  0  0  0  0
 20 22  1  0  0  0  0
 22 23  1  0  0  0  0
 22 24  1  0  0  0  0
 22 25  1  0  0  0  0
M  END
$$$$

  -OEChem-02102214113D

 25 24  0     1  0  0  0  0  0999 V2000
   -2.6880   -3.9579    0.4250 H   0  0  0  0  0  0  0  0  0  0  0  0
   -2.7506   -2.9026    0.1449 C   0  0  0  0  0  0  0  0  0  0  0  0
   -3.3368   -2.3719    0.8990 H   0  0  0  0  0  0  0  0  0  0  0  0
   -3.2549   -2.8236   -0.8212 H   0  0  0  0  0  0  0  0  0  0  0  0
   -1.3604   -2.3024    0.0523 C   0  0  0  0  0  0  0  0  0  0  0  0
   -0.3784   -2.9970    0.2648 O   0  0  0  0  0  0  0  0  0  0  0  0
   -1.2092   -0.9684   -0.2654 N   0  0  0  0  0  0  0  0  0  0  0  0
   -2.0559   -0.4037   -0.3295 H   0  0  0  0  0  0  0  0  0  0  0  0
    0.0709   -0.2473   -0.2706 C   0  0  1  0  0  0  0  0  0  0  0  0
    0.7922   -0.8113    0.3304 H   0  0  0  0  0  0  0  0  0  0  0  0
    0.6134   -0.2029   -1.7145 C   0  0  0  0  0  0  0  0  0  0  0  0
    1.6676    0.0829   -1.6833 H   0  0  0  0  0  0  0  0  0  0  0  0
    0.5603   -1.2055   -2.1504 H   0  0  0  0  0  0  0  0  0  0  0  0
   -0.0987    0.7844   -2.6341 C   0  0  0  0  0  0  0  0  0  0  0  0
   -0.6480    0.3435   -3.6294 O   0  0  0  0  0  0  0  0  0  0  0  0
    0.0681    2.1065   -2.4000 O   0  0  0  0  0  0  0  0  0  0  0  0
   -0.4358    2.5684   -3.0867 H   0  0  0  0  0  0  0  0  0  0  0  0
   -0.0733    1.1253    0.4254 C   0  0  0  0  0  0  0  0  0  0  0  0
   -1.1327    1.7383    0.3437 O   0  0  0  0  0  0  0  0  0  0  0  0
    0.8803    1.5551    1.3303 N   0  0  0  0  0  0  0  0  0  0  0  0
    1.7238    0.9982    1.4305 H   0  0  0  0  0  0  0  0  0  0  0  0
    0.7450    2.7781    2.1127 C   0  0  0  0  0  0  0  0  0  0  0  0
   -0.1447    2.7296    2.7495 H   0  0  0  0  0  0  0  0  0  0  0  0
    1.6209    2.9168    2.7539 H   0  0  0  0  0  0  0  0  0  0  0  0
    0.6587    3.6472    1.4519 H   0  0  0  0  0  0  0  0  0  0  0  0
  1  2  1  0  0  0  0
  2  3  1  0  0  0  0
  2  4  1  0  0  0  0
  2  5  1  0  0  0  0
  5  6  2  0  0  0  0
  5  7  1  0  0  0  0
  7  8  1  0  0  0  0
  7  9  1  0  0  0  0
  9 10  1  0  0  0  0
  9 11  1  0  0  0  0
  9 18  1  0  0  0  0
 11 12  1  0  0  0  0
 11 13  1  0  0  0  0
 11 14  1  0  0  0  0
 14 15  2  0  0  0  0
 14 16  1  0  0  0  0
 16 17  1  0  0  0  0
 18 19  2  0  0  0  0
 18 20  1  0  0  0  0
 20 21  1  0  0  0  0
 20 22  1  0  0  0  0
 22 23  1  0  0  0  0
 22 24  1  0  0  0  0
 22 25  1  0  0  0  0
M  END
$$$$

  -OEChem-02102214113D

 25 24  0     1  0  0  0  0  0999 V2000
   -2.7026   -3.9629    0.3819 H   0  0  0  0  0  0  0  0  0  0  0  0
   -2.7523   -2.9082    0.0973 C   0  0  0  0  0  0  0  0  0  0  0  0
   -3.3808   -2.3777    0.8167 H   0  0  0  0  0  0  0  0  0  0  0  0
   -3.2030   -2.8319   -0.8953 H   0  0  0  0  0  0  0  0  0  0  0  0
   -1.3608   -2.3042    0.0799 C   0  0  0  0  0  0  0  0  0  0  0  0
   -0.3902   -2.9911    0.3596 O   0  0  0  0  0  0  0  0  0  0  0  0
   -1.1954   -0.9765   -0.2545 N   0  0  0  0  0  0  0  0  0  0  0  0
   -2.0370   -0.4206   -0.4031 H   0  0  0  0  0  0  0  0  0  0  0  0
    0.0873   -0.2608   -0.2548 C   0  0  1  0  0  0  0  0  0  0  0  0
    0.8081   -0.8228    0.3485 H   0  0  0  0  0  0  0  0  0  0  0  0
    0.6222   -0.2158   -1.6996 C   0  0  0  0  0  0  0  0  0  0  0  0
    1.6779    0.0661   -1.6797 H   0  0  0  0  0  0  0  0  0  0  0  0
    0.5593   -1.2130   -2.1457 H   0  0  0  0  0  0  0  0  0  0  0  0
   -0.1085    0.7845   -2.5878 C   0  0  0  0  0  0  0  0  0  0  0  0
   -0.9013    0.3577   -3.4106 O   0  0  0  0  0  0  0  0  0  0  0  0
    0.2495    2.0869   -2.4961 O   0  0  0  0  0  0  0  0  0  0  0  0
   -0.3256    2.5670   -3.1109 H   0  0  0  0  0  0  0  0  0  0  0  0
   -0.0527    1.1232    0.4180 C   0  0  0  0  0  0  0  0  0  0  0  0
   -1.0845    1.7696    0.2723 O   0  0  0  0  0  0  0  0  0  0  0  0
    0.8941    1.5600    1.3262 N   0  0  0  0  0  0  0  0  0  0  0  0
    1.7109    0.9755    1.4779 H   0  0  0  0  0  0  0  0  0  0  0  0
    0.7700    2.8056    2.0733 C   0  0  0  0  0  0  0  0  0  0  0  0
   -0.1513    2.8082    2.6655 H   0  0  0  0  0  0  0  0  0  0  0  0
    1.6177    2.9241    2.7550 H   0  0  0  0  0  0  0  0  0  0  0  0
    0.7524    3.6608    1.3896 H   0  0  0  0  0  0  0  0  0  0  0  0
  1  2  1  0  0  0  0
  2  3  1  0  0  0  0
  2  4  1  0  0  0  0
  2  5  1  0  0  0  0
  5  6  2  0  0  0  0
  5  7  1  0  0  0  0
  7  8  1  0  0  0  0
  7  9  1  0  0  0  0
  9 10  1  0  0  0  0
  9 11  1  0  0  0  0
  9 18  1  0  0  0  0
 11 12  1  0  0  0  0
 11 13  1  0  0  0  0
 11 14  1  0  0  0  0
 14 15  2  0  0  0  0
 14 16  1  0  0  0  0
 16 17  1  0  0  0  0
 18 19  2  0  0  0  0
 18 20  1  0  0  0  0
 20 21  1  0  0  0  0
 20 22  1  0  0  0  0
 22 23  1  0  0  0  0
 22 24  1  0  0  0  0
 22 25  1  0  0  0  0
M  END
$$$$

  -OEChem-02102214113D

 25 24  0     1  0  0  0  0  0999 V2000
   -2.7119   -3.9766    0.3494 H   0  0  0  0  0  0  0  0  0  0  0  0
   -2.7577   -2.9224    0.0621 C   0  0  0  0  0  0  0  0  0  0  0  0
   -3.4139   -2.3948    0.7585 H   0  0  0  0  0  0  0  0  0  0  0  0
   -3.1734   -2.8498   -0.9460 H   0  0  0  0  0  0  0  0  0  0  0  0
   -1.3699   -2.3107    0.0939 C   0  0  0  0  0  0  0  0  0  0  0  0
   -0.4085   -2.9892    0.4221 O   0  0  0  0  0  0  0  0  0  0  0  0
   -1.1967   -0.9862   -0.2493 N   0  0  0  0  0  0  0  0  0  0  0  0
   -2.0292   -0.4467   -0.4840 H   0  0  0  0  0  0  0  0  0  0  0  0
    0.0862   -0.2712   -0.2404 C   0  0  1  0  0  0  0  0  0  0  0  0
    0.8021   -0.8325    0.3690 H   0  0  0  0  0  0  0  0  0  0  0  0
    0.6307   -0.2230   -1.6804 C   0  0  0  0  0  0  0  0  0  0  0  0
    1.6867    0.0577   -1.6546 H   0  0  0  0  0  0  0  0  0  0  0  0
    0.5673   -1.2156   -2.1356 H   0  0  0  0  0  0  0  0  0  0  0  0
   -0.1036    0.7830   -2.5579 C   0  0  0  0  0  0  0  0  0  0  0  0
   -1.0824    0.4078   -3.1822 O   0  0  0  0  0  0  0  0  0  0  0  0
    0.4018    2.0364   -2.6319 O   0  0  0  0  0  0  0  0  0  0  0  0
   -0.2175    2.5396   -3.1822 H   0  0  0  0  0  0  0  0  0  0  0  0
   -0.0456    1.1215    0.4165 C   0  0  0  0  0  0  0  0  0  0  0  0
   -1.0467    1.8007    0.2190 O   0  0  0  0  0  0  0  0  0  0  0  0
    0.8983    1.5586    1.3275 N   0  0  0  0  0  0  0  0  0  0  0  0
    1.6939    0.9549    1.5131 H   0  0  0  0  0  0  0  0  0  0  0  0
    0.7983    2.8306    2.0330 C   0  0  0  0  0  0  0  0  0  0  0  0
   -0.1138    2.8631    2.6382 H   0  0  0  0  0  0  0  0  0  0  0  0
    1.6578    2.9643    2.6966 H   0  0  0  0  0  0  0  0  0  0  0  0
    0.7791    3.6623    1.3209 H   0  0  0  0  0  0  0  0  0  0  0  0
  1  2  1  0  0  0  0
  2  3  1  0  0  0  0
  2  4  1  0  0  0  0
  2  5  1  0  0  0  0
  5  6  2  0  0  0  0
  5  7  1  0  0  0  0
  7  8  1  0  0  0  0
  7  9  1  0  0  0  0
  9 10  1  0  0  0  0
  9 11  1  0  0  0  0
  9 18  1  0  0  0  0
 11 12  1  0  0  0  0
 11 13  1  0  0  0  0
 11 14  1  0  0  0  0
 14 15  2  0  0  0  0
 14 16  1  0  0  0  0
 16 17  1  0  0  0  0
 18 19  2  0  0  0  0
 18 20  1  0  0  0  0
 20 21  1  0  0  0  0
 20 22  1  0  0  0  0
 22 23  1  0  0  0  0
 22 24  1  0  0  0  0
 22 25  1  0  0  0  0
M  END
$$$$

  -OEChem-02102214113D

 25 24  0     1  0  0  0  0  0999 V2000
   -2.7081   -3.9928    0.3144 H   0  0  0  0  0  0  0  0  0  0  0  0
   -2.7548   -2.9372    0.0330 C   0  0  0  0  0  0  0  0  0  0  0  0
   -3.4406   -2.4211    0.7092 H   0  0  0  0  0  0  0  0  0  0  0  0
   -3.1358   -2.8611   -0.9883 H   0  0  0  0  0  0  0  0  0  0  0  0
   -1.3757   -2.3111    0.1177 C   0  0  0  0  0  0  0  0  0  0  0  0
   -0.4215   -2.9776    0.4887 O   0  0  0  0  0  0  0  0  0  0  0  0
   -1.2017   -0.9891   -0.2334 N   0  0  0  0  0  0  0  0  0  0  0  0
   -2.0233   -0.4708   -0.5438 H   0  0  0  0  0  0  0  0  0  0  0  0
    0.0788   -0.2705   -0.2271 C   0  0  1  0  0  0  0  0  0  0  0  0
    0.7948   -0.8296    0.3843 H   0  0  0  0  0  0  0  0  0  0  0  0
    0.6242   -0.2275   -1.6674 C   0  0  0  0  0  0  0  0  0  0  0  0
    1.6799    0.0552   -1.6410 H   0  0  0  0  0  0  0  0  0  0  0  0
    0.5633   -1.2216   -2.1195 H   0  0  0  0  0  0  0  0  0  0  0  0
   -0.1128    0.7716   -2.5526 C   0  0  0  0  0  0  0  0  0  0  0  0
   -1.2289    0.4844   -2.9550 O   0  0  0  0  0  0  0  0  0  0  0  0
    0.5148    1.9351   -2.8418 O   0  0  0  0  0  0  0  0  0  0  0  0
   -0.1260    2.4612   -3.3444 H   0  0  0  0  0  0  0  0  0  0  0  0
   -0.0406    1.1291    0.4172 C   0  0  0  0  0  0  0  0  0  0  0  0
   -1.0150    1.8352    0.1873 O   0  0  0  0  0  0  0  0  0  0  0  0
    0.9098    1.5657    1.3219 N   0  0  0  0  0  0  0  0  0  0  0  0
    1.6801    0.9400    1.5391 H   0  0  0  0  0  0  0  0  0  0  0  0
    0.8254    2.8463    2.0140 C   0  0  0  0  0  0  0  0  0  0  0  0
   -0.0969    2.9047    2.6016 H   0  0  0  0  0  0  0  0  0  0  0  0
    1.6751    2.9667    2.6929 H   0  0  0  0  0  0  0  0  0  0  0  0
    0.8381    3.6716    1.2943 H   0  0  0  0  0  0  0  0  0  0  0  0
  1  2  1  0  0  0  0
  2  3  1  0  0  0  0
  2  4  1  0  0  0  0
  2  5  1  0  0  0  0
  5  6  2  0  0  0  0
  5  7  1  0  0  0  0
  7  8  1  0  0  0  0
  7  9  1  0  0  0  0
  9 10  1  0  0  0  0
  9 11  1  0  0  0  0
  9 18  1  0  0  0  0
 11 12  1  0  0  0  0
 11 13  1  0  0  0  0
 11 14  1  0  0  0  0
 14 15  2  0  0  0  0
 14 16  1  0  0  0  0
 16 17  1  0  0  0  0
 18 19  2  0  0  0  0
 18 20  1  0  0  0  0
 20 21  1  0  0  0  0
 20 22  1  0  0  0  0
 22 23  1  0  0  0  0
 22 24  1  0  0  0  0
 22 25  1  0  0  0  0
M  END
$$$$

  -OEChem-02102214113D

 25 24  0     1  0  0  0  0  0999 V2000
   -2.6989   -4.0049    0.3060 H   0  0  0  0  0  0  0  0  0  0  0  0
   -2.7516   -2.9488    0.0275 C   0  0  0  0  0  0  0  0  0  0  0  0
   -3.4458   -2.4400    0.7004 H   0  0  0  0  0  0  0  0  0  0  0  0
   -3.1259   -2.8723   -0.9963 H   0  0  0  0  0  0  0  0  0  0  0  0
   -1.3781   -2.3127    0.1241 C   0  0  0  0  0  0  0  0  0  0  0  0
   -0.4212   -2.9730    0.4995 O   0  0  0  0  0  0  0  0  0  0  0  0
   -1.2124   -0.9892   -0.2246 N   0  0  0  0  0  0  0  0  0  0  0  0
   -2.0324   -0.4807   -0.5558 H   0  0  0  0  0  0  0  0  0  0  0  0
    0.0624   -0.2617   -0.2212 C   0  0  1  0  0  0  0  0  0  0  0  0
    0.7792   -0.8184    0.3911 H   0  0  0  0  0  0  0  0  0  0  0  0
    0.6144   -0.2206   -1.6597 C   0  0  0  0  0  0  0  0  0  0  0  0
    1.6680    0.0687   -1.6238 H   0  0  0  0  0  0  0  0  0  0  0  0
    0.5648   -1.2180   -2.1049 H   0  0  0  0  0  0  0  0  0  0  0  0
   -0.1153    0.7636   -2.5703 C   0  0  0  0  0  0  0  0  0  0  0  0
   -1.3109    0.6134   -2.7662 O   0  0  0  0  0  0  0  0  0  0  0  0
    0.6104    1.7721   -3.1055 O   0  0  0  0  0  0  0  0  0  0  0  0
   -0.0232    2.3181   -3.5961 H   0  0  0  0  0  0  0  0  0  0  0  0
   -0.0485    1.1386    0.4233 C   0  0  0  0  0  0  0  0  0  0  0  0
   -1.0130    1.8570    0.1938 O   0  0  0  0  0  0  0  0  0  0  0  0
    0.9117    1.5701    1.3204 N   0  0  0  0  0  0  0  0  0  0  0  0
    1.6718    0.9338    1.5428 H   0  0  0  0  0  0  0  0  0  0  0  0
    0.8380    2.8493    2.0166 C   0  0  0  0  0  0  0  0  0  0  0  0
   -0.0779    2.9088    2.6142 H   0  0  0  0  0  0  0  0  0  0  0  0
    1.6954    2.9659    2.6865 H   0  0  0  0  0  0  0  0  0  0  0  0
    0.8448    3.6768    1.2992 H   0  0  0  0  0  0  0  0  0  0  0  0
  1  2  1  0  0  0  0
  2  3  1  0  0  0  0
  2  4  1  0  0  0  0
  2  5  1  0  0  0  0
  5  6  2  0  0  0  0
  5  7  1  0  0  0  0
  7  8  1  0  0  0  0
  7  9  1  0  0  0  0
  9 10  1  0  0  0  0
  9 11  1  0  0  0  0
  9 18  1  0  0  0  0
 11 12  1  0  0  0  0
 11 13  1  0  0  0  0
 11 14  1  0  0  0  0
 14 15  2  0  0  0  0
 14 16  1  0  0  0  0
 16 17  1  0  0  0  0
 18 19  2  0  0  0  0
 18 20  1  0  0  0  0
 20 21  1  0  0  0  0
 20 22  1  0  0  0  0
 22 23  1  0  0  0  0
 22 24  1  0  0  0  0
 22 25  1  0  0  0  0
M  END
$$$$

  -OEChem-02102214113D

 25 24  0     1  0  0  0  0  0999 V2000
   -2.6866   -4.0101    0.3243 H   0  0  0  0  0  0  0  0  0  0  0  0
   -2.7504   -2.9550    0.0440 C   0  0  0  0  0  0  0  0  0  0  0  0
   -3.4339   -2.4482    0.7296 H   0  0  0  0  0  0  0  0  0  0  0  0
   -3.1457   -2.8833   -0.9723 H   0  0  0  0  0  0  0  0  0  0  0  0
   -1.3784   -2.3113    0.1119 C   0  0  0  0  0  0  0  0  0  0  0  0
   -0.4089   -2.9709    0.4544 O   0  0  0  0  0  0  0  0  0  0  0  0
   -1.2269   -0.9831   -0.2255 N   0  0  0  0  0  0  0  0  0  0  0  0
   -2.0571   -0.4710   -0.5247 H   0  0  0  0  0  0  0  0  0  0  0  0
    0.0409   -0.2433   -0.2267 C   0  0  1  0  0  0  0  0  0  0  0  0
    0.7578   -0.7991    0.3866 H   0  0  0  0  0  0  0  0  0  0  0  0
    0.6072   -0.2047   -1.6605 C   0  0  0  0  0  0  0  0  0  0  0  0
    1.6578    0.0934   -1.6098 H   0  0  0  0  0  0  0  0  0  0  0  0
    0.5746   -1.2078   -2.0938 H   0  0  0  0  0  0  0  0  0  0  0  0
   -0.1056    0.7578   -2.6098 C   0  0  0  0  0  0  0  0  0  0  0  0
   -1.3252    0.7878   -2.6349 O   0  0  0  0  0  0  0  0  0  0  0  0
    0.6753    1.5466   -3.3834 O   0  0  0  0  0  0  0  0  0  0  0  0
    0.0637    2.1065   -3.8863 H   0  0  0  0  0  0  0  0  0  0  0  0
   -0.0645    1.1521    0.4295 C   0  0  0  0  0  0  0  0  0  0  0  0
   -1.0433    1.8628    0.2437 O   0  0  0  0  0  0  0  0  0  0  0  0
    0.9086    1.5754    1.3169 N   0  0  0  0  0  0  0  0  0  0  0  0
    1.6778    0.9416    1.5136 H   0  0  0  0  0  0  0  0  0  0  0  0
    0.8366    2.8403    2.0390 C   0  0  0  0  0  0  0  0  0  0  0  0
   -0.0566    2.8704    2.6720 H   0  0  0  0  0  0  0  0  0  0  0  0
    1.7170    2.9626    2.6772 H   0  0  0  0  0  0  0  0  0  0  0  0
    0.7993    3.6805    1.3373 H   0  0  0  0  0  0  0  0  0  0  0  0
  1  2  1  0  0  0  0
  2  3  1  0  0  0  0
  2  4  1  0  0  0  0
  2  5  1  0  0  0  0
  5  6  2  0  0  0  0
  5  7  1  0  0  0  0
  7  8  1  0  0  0  0
  7  9  1  0  0  0  0
  9 10  1  0  0  0  0
  9 11  1  0  0  0  0
  9 18  1  0  0  0  0
 11 12  1  0  0  0  0
 11 13  1  0  0  0  0
 11 14  1  0  0  0  0
 14 15  2  0  0  0  0
 14 16  1  0  0  0  0
 16 17  1  0  0  0  0
 18 19  2  0  0  0  0
 18 20  1  0  0  0  0
 20 21  1  0  0  0  0
 20 22  1  0  0  0  0
 22 23  1  0  0  0  0
 22 24  1  0  0  0  0
 22 25  1  0  0  0  0
M  END
$$$$

  -OEChem-02102214113D

 25 24  0     1  0  0  0  0  0999 V2000
   -2.6769   -3.9998    0.3615 H   0  0  0  0  0  0  0  0  0  0  0  0
   -2.7493   -2.9449    0.0825 C   0  0  0  0  0  0  0  0  0  0  0  0
   -3.3981   -2.4344    0.7984 H   0  0  0  0  0  0  0  0  0  0  0  0
   -3.1913   -2.8727   -0.9143 H   0  0  0  0  0  0  0  0  0  0  0  0
   -1.3734   -2.3062    0.0852 C   0  0  0  0  0  0  0  0  0  0  0  0
   -0.3892   -2.9722    0.3686 O   0  0  0  0  0  0  0  0  0  0  0  0
   -1.2373   -0.9729   -0.2383 N   0  0  0  0  0  0  0  0  0  0  0  0
   -2.0838   -0.4491   -0.4616 H   0  0  0  0  0  0  0  0  0  0  0  0
    0.0231   -0.2210   -0.2472 C   0  0  1  0  0  0  0  0  0  0  0  0
    0.7397   -0.7754    0.3677 H   0  0  0  0  0  0  0  0  0  0  0  0
    0.6056   -0.1888   -1.6757 C   0  0  0  0  0  0  0  0  0  0  0  0
    1.6520    0.1209   -1.6107 H   0  0  0  0  0  0  0  0  0  0  0  0
    0.5920   -1.1991   -2.0933 H   0  0  0  0  0  0  0  0  0  0  0  0
   -0.0871    0.7473   -2.6663 C   0  0  0  0  0  0  0  0  0  0  0  0
   -1.2776    0.9865   -2.5589 O   0  0  0  0  0  0  0  0  0  0  0  0
    0.6916    1.2789   -3.6364 O   0  0  0  0  0  0  0  0  0  0  0  0
    0.1072    1.8535   -4.1548 H   0  0  0  0  0  0  0  0  0  0  0  0
   -0.0827    1.1670    0.4259 C   0  0  0  0  0  0  0  0  0  0  0  0
   -1.0937    1.8474    0.3164 O   0  0  0  0  0  0  0  0  0  0  0  0
    0.9032    1.5834    1.3029 N   0  0  0  0  0  0  0  0  0  0  0  0
    1.6899    0.9604    1.4604 H   0  0  0  0  0  0  0  0  0  0  0  0
    0.8195    2.8187    2.0736 C   0  0  0  0  0  0  0  0  0  0  0  0
   -0.0458    2.7950    2.7442 H   0  0  0  0  0  0  0  0  0  0  0  0
    1.7220    2.9495    2.6783 H   0  0  0  0  0  0  0  0  0  0  0  0
    0.7238    3.6813    1.4057 H   0  0  0  0  0  0  0  0  0  0  0  0
  1  2  1  0  0  0  0
  2  3  1  0  0  0  0
  2  4  1  0  0  0  0
  2  5  1  0  0  0  0
  5  6  2  0  0  0  0
  5  7  1  0  0  0  0
  7  8  1  0  0  0  0
  7  9  1  0  0  0  0
  9 10  1  0  0  0  0
  9 11  1  0  0  0  0
  9 18  1  0  0  0  0
 11 12  1  0  0  0  0
 11 13  1  0  0  0  0
 11 14  1  0  0  0  0
 14 15  2  0  0  0  0
 14 16  1  0  0  0  0
 16 17  1  0  0  0  0
 18 19  2  0  0  0  0
 18 20  1  0  0  0  0
 20 21  1  0  0  0  0
 20 22  1  0  0  0  0
 22 23  1  0  0  0  0
 22 24  1  0  0  0  0
 22 25  1  0  0  0  0
M  END
$$$$

  -OEChem-02102214113D

 25 24  0     1  0  0  0  0  0999 V2000
   -2.6636   -3.9802    0.3868 H   0  0  0  0  0  0  0  0  0  0  0  0
   -2.7463   -2.9226    0.1217 C   0  0  0  0  0  0  0  0  0  0  0  0
   -3.3568   -2.4171    0.8739 H   0  0  0  0  0  0  0  0  0  0  0  0
   -3.2366   -2.8399   -0.8513 H   0  0  0  0  0  0  0  0  0  0  0  0
   -1.3697   -2.2885    0.0620 C   0  0  0  0  0  0  0  0  0  0  0  0
   -0.3745   -2.9608    0.2856 O   0  0  0  0  0  0  0  0  0  0  0  0
   -1.2452   -0.9517   -0.2520 N   0  0  0  0  0  0  0  0  0  0  0  0
   -2.1017   -0.4150   -0.3901 H   0  0  0  0  0  0  0  0  0  0  0  0
    0.0121   -0.1949   -0.2724 C   0  0  1  0  0  0  0  0  0  0  0  0
    0.7284   -0.7478    0.3442 H   0  0  0  0  0  0  0  0  0  0  0  0
    0.6034   -0.1790   -1.6985 C   0  0  0  0  0  0  0  0  0  0  0  0
    1.6486    0.1333   -1.6293 H   0  0  0  0  0  0  0  0  0  0  0  0
    0.5961   -1.1974   -2.0963 H   0  0  0  0  0  0  0  0  0  0  0  0
   -0.0703    0.7320   -2.7249 C   0  0  0  0  0  0  0  0  0  0  0  0
   -1.1756    1.2000   -2.5196 O   0  0  0  0  0  0  0  0  0  0  0  0
    0.6390    0.9777   -3.8502 O   0  0  0  0  0  0  0  0  0  0  0  0
    0.0853    1.5671   -4.3854 H   0  0  0  0  0  0  0  0  0  0  0  0
   -0.0939    1.1865    0.4154 C   0  0  0  0  0  0  0  0  0  0  0  0
   -1.1399    1.8218    0.3922 O   0  0  0  0  0  0  0  0  0  0  0  0
    0.9033    1.5983    1.2822 N   0  0  0  0  0  0  0  0  0  0  0  0
    1.7142    0.9962    1.3900 H   0  0  0  0  0  0  0  0  0  0  0  0
    0.7954    2.7875    2.1198 C   0  0  0  0  0  0  0  0  0  0  0  0
   -0.0281    2.6795    2.8336 H   0  0  0  0  0  0  0  0  0  0  0  0
    1.7224    2.9412    2.6804 H   0  0  0  0  0  0  0  0  0  0  0  0
    0.6137    3.6752    1.5046 H   0  0  0  0  0  0  0  0  0  0  0  0
  1  2  1  0  0  0  0
  2  3  1  0  0  0  0
  2  4  1  0  0  0  0
  2  5  1  0  0  0  0
  5  6  2  0  0  0  0
  5  7  1  0  0  0  0
  7  8  1  0  0  0  0
  7  9  1  0  0  0  0
  9 10  1  0  0  0  0
  9 11  1  0  0  0  0
  9 18  1  0  0  0  0
 11 12  1  0  0  0  0
 11 13  1  0  0  0  0
 11 14  1  0  0  0  0
 14 15  2  0  0  0  0
 14 16  1  0  0  0  0
 16 17  1  0  0  0  0
 18 19  2  0  0  0  0
 18 20  1  0  0  0  0
 20 21  1  0  0  0  0
 20 22  1  0  0  0  0
 22 23  1  0  0  0  0
 22 24  1  0  0  0  0
 22 25  1  0  0  0  0
M  END
$$$$

  -OEChem-02102214113D

 25 24  0     1  0  0  0  0  0999 V2000
   -2.6538   -3.9639    0.4213 H   0  0  0  0  0  0  0  0  0  0  0  0
   -2.7438   -2.9064    0.1578 C   0  0  0  0  0  0  0  0  0  0  0  0
   -3.3187   -2.3970    0.9350 H   0  0  0  0  0  0  0  0  0  0  0  0
   -3.2758   -2.8232   -0.7930 H   0  0  0  0  0  0  0  0  0  0  0  0
   -1.3685   -2.2784    0.0370 C   0  0  0  0  0  0  0  0  0  0  0  0
   -0.3675   -2.9571    0.2093 O   0  0  0  0  0  0  0  0  0  0  0  0
   -1.2520   -0.9384   -0.2669 N   0  0  0  0  0  0  0  0  0  0  0  0
   -2.1114   -0.3924   -0.3306 H   0  0  0  0  0  0  0  0  0  0  0  0
    0.0050   -0.1809   -0.2928 C   0  0  1  0  0  0  0  0  0  0  0  0
    0.7216   -0.7351    0.3224 H   0  0  0  0  0  0  0  0  0  0  0  0
    0.6005   -0.1717   -1.7186 C   0  0  0  0  0  0  0  0  0  0  0  0
    1.6457    0.1387   -1.6480 H   0  0  0  0  0  0  0  0  0  0  0  0
    0.5928   -1.1944   -2.1056 H   0  0  0  0  0  0  0  0  0  0  0  0
   -0.0586    0.7275   -2.7645 C   0  0  0  0  0  0  0  0  0  0  0  0
   -1.0234    1.4164   -2.4917 O   0  0  0  0  0  0  0  0  0  0  0  0
    0.5110    0.7095   -3.9912 O   0  0  0  0  0  0  0  0  0  0  0  0
   -0.0091    1.3245   -4.5310 H   0  0  0  0  0  0  0  0  0  0  0  0
   -0.1049    1.1926    0.4107 C   0  0  0  0  0  0  0  0  0  0  0  0
   -1.1728    1.7910    0.4461 O   0  0  0  0  0  0  0  0  0  0  0  0
    0.8970    1.6004    1.2743 N   0  0  0  0  0  0  0  0  0  0  0  0
    1.7275    1.0200    1.3432 H   0  0  0  0  0  0  0  0  0  0  0  0
    0.7791    2.7642    2.1456 C   0  0  0  0  0  0  0  0  0  0  0  0
   -0.0336    2.6223    2.8658 H   0  0  0  0  0  0  0  0  0  0  0  0
    1.7099    2.9191    2.6996 H   0  0  0  0  0  0  0  0  0  0  0  0
    0.5746    3.6647    1.5567 H   0  0  0  0  0  0  0  0  0  0  0  0
  1  2  1  0  0  0  0
  2  3  1  0  0  0  0
  2  4  1  0  0  0  0
  2  5  1  0  0  0  0
  5  6  2  0  0  0  0
  5  7  1  0  0  0  0
  7  8  1  0  0  0  0
  7  9  1  0  0  0  0
  9 10  1  0  0  0  0
  9 11  1  0  0  0  0
  9 18  1  0  0  0  0
 11 12  1  0  0  0  0
 11 13  1  0  0  0  0
 11 14  1  0  0  0  0
 14 15  2  0  0  0  0
 14 16  1  0  0  0  0
 16 17  1  0  0  0  0
 18 19  2  0  0  0  0
 18 20  1  0  0  0  0
 20 21  1  0  0  0  0
 20 22  1  0  0  0  0
 22 23  1  0  0  0  0
 22 24  1  0  0  0  0
 22 25  1  0  0  0  0
M  END
$$$$

  -OEChem-02102214113D

 25 24  0     1  0  0  0  0  0999 V2000
   -2.6539   -3.9512    0.4392 H   0  0  0  0  0  0  0  0  0  0  0  0
   -2.7453   -2.8930    0.1789 C   0  0  0  0  0  0  0  0  0  0  0  0
   -3.2984   -2.3817    0.9706 H   0  0  0  0  0  0  0  0  0  0  0  0
   -3.3005   -2.8068   -0.7583 H   0  0  0  0  0  0  0  0  0  0  0  0
   -1.3702   -2.2713    0.0242 C   0  0  0  0  0  0  0  0  0  0  0  0
   -0.3693   -2.9570    0.1659 O   0  0  0  0  0  0  0  0  0  0  0  0
   -1.2538   -0.9299   -0.2755 N   0  0  0  0  0  0  0  0  0  0  0  0
   -2.1100   -0.3753   -0.2835 H   0  0  0  0  0  0  0  0  0  0  0  0
    0.0068   -0.1777   -0.3045 C   0  0  1  0  0  0  0  0  0  0  0  0
    0.7229   -0.7343    0.3094 H   0  0  0  0  0  0  0  0  0  0  0  0
    0.6006   -0.1729   -1.7324 C   0  0  0  0  0  0  0  0  0  0  0  0
    1.6486    0.1293   -1.6654 H   0  0  0  0  0  0  0  0  0  0  0  0
    0.5848   -1.1976   -2.1143 H   0  0  0  0  0  0  0  0  0  0  0  0
   -0.0502    0.7261   -2.7840 C   0  0  0  0  0  0  0  0  0  0  0  0
   -0.8221    1.6124   -2.4723 O   0  0  0  0  0  0  0  0  0  0  0  0
    0.3099    0.4799   -4.0644 O   0  0  0  0  0  0  0  0  0  0  0  0
   -0.1753    1.1244   -4.6023 H   0  0  0  0  0  0  0  0  0  0  0  0
   -0.1086    1.1906    0.4084 C   0  0  0  0  0  0  0  0  0  0  0  0
   -1.1894    1.7647    0.4703 O   0  0  0  0  0  0  0  0  0  0  0  0
    0.8917    1.5975    1.2740 N   0  0  0  0  0  0  0  0  0  0  0  0
    1.7359    1.0351    1.3195 H   0  0  0  0  0  0  0  0  0  0  0  0
    0.7666    2.7513    2.1573 C   0  0  0  0  0  0  0  0  0  0  0  0
   -0.0447    2.5970    2.8766 H   0  0  0  0  0  0  0  0  0  0  0  0
    1.6968    2.9059    2.7124 H   0  0  0  0  0  0  0  0  0  0  0  0
    0.5562    3.6565    1.5777 H   0  0  0  0  0  0  0  0  0  0  0  0
  1  2  1  0  0  0  0
  2  3  1  0  0  0  0
  2  4  1  0  0  0  0
  2  5  1  0  0  0  0
  5  6  2  0  0  0  0
  5  7  1  0  0  0  0
  7  8  1  0  0  0  0
  7  9  1  0  0  0  0
  9 10  1  0  0  0  0
  9 11  1  0  0  0  0
  9 18  1  0  0  0  0
 11 12  1  0  0  0  0
 11 13  1  0  0  0  0
 11 14  1  0  0  0  0
 14 15  2  0  0  0  0
 14 16  1  0  0  0  0
 16 17  1  0  0  0  0
 18 19  2  0  0  0  0
 18 20  1  0  0  0  0
 20 21  1  0  0  0  0
 20 22  1  0  0  0  0
 22 23  1  0  0  0  0
 22 24  1  0  0  0  0
 22 25  1  0  0  0  0
M  END
$$$$

  -OEChem-02102214113D

 25 24  0     1  0  0  0  0  0999 V2000
   -2.6652   -3.9373    0.4514 H   0  0  0  0  0  0  0  0  0  0  0  0
   -2.7497   -2.8791    0.1887 C   0  0  0  0  0  0  0  0  0  0  0  0
   -3.2903   -2.3605    0.9841 H   0  0  0  0  0  0  0  0  0  0  0  0
   -3.3134   -2.7905   -0.7431 H   0  0  0  0  0  0  0  0  0  0  0  0
   -1.3708   -2.2703    0.0179 C   0  0  0  0  0  0  0  0  0  0  0  0
   -0.3743   -2.9646    0.1484 O   0  0  0  0  0  0  0  0  0  0  0  0
   -1.2465   -0.9299   -0.2827 N   0  0  0  0  0  0  0  0  0  0  0  0
   -2.0971   -0.3670   -0.2644 H   0  0  0  0  0  0  0  0  0  0  0  0
    0.0205   -0.1880   -0.3085 C   0  0  1  0  0  0  0  0  0  0  0  0
    0.7353   -0.7473    0.3043 H   0  0  0  0  0  0  0  0  0  0  0  0
    0.6071   -0.1852   -1.7394 C   0  0  0  0  0  0  0  0  0  0  0  0
    1.6584    0.1058   -1.6794 H   0  0  0  0  0  0  0  0  0  0  0  0
    0.5790   -1.2095   -2.1228 H   0  0  0  0  0  0  0  0  0  0  0  0
   -0.0437    0.7253   -2.7807 C   0  0  0  0  0  0  0  0  0  0  0  0
   -0.5782    1.7686   -2.4570 O   0  0  0  0  0  0  0  0  0  0  0  0
    0.0385    0.3070   -4.0646 O   0  0  0  0  0  0  0  0  0  0  0  0
   -0.4142    0.9840   -4.5906 H   0  0  0  0  0  0  0  0  0  0  0  0
   -0.1022    1.1786    0.4068 C   0  0  0  0  0  0  0  0  0  0  0  0
   -1.1891    1.7428    0.4627 O   0  0  0  0  0  0  0  0  0  0  0  0
    0.8884    1.5893    1.2818 N   0  0  0  0  0  0  0  0  0  0  0  0
    1.7447    1.0445    1.3183 H   0  0  0  0  0  0  0  0  0  0  0  0
    0.7536    2.7499    2.1548 C   0  0  0  0  0  0  0  0  0  0  0  0
   -0.0673    2.6021    2.8642 H   0  0  0  0  0  0  0  0  0  0  0  0
    1.6763    2.9074    2.7214 H   0  0  0  0  0  0  0  0  0  0  0  0
    0.5518    3.6508    1.5656 H   0  0  0  0  0  0  0  0  0  0  0  0
  1  2  1  0  0  0  0
  2  3  1  0  0  0  0
  2  4  1  0  0  0  0
  2  5  1  0  0  0  0
  5  6  2  0  0  0  0
  5  7  1  0  0  0  0
  7  8  1  0  0  0  0
  7  9  1  0  0  0  0
  9 10  1  0  0  0  0
  9 11  1  0  0  0  0
  9 18  1  0  0  0  0
 11 12  1  0  0  0  0
 11 13  1  0  0  0  0
 11 14  1  0  0  0  0
 14 15  2  0  0  0  0
 14 16  1  0  0  0  0
 16 17  1  0  0  0  0
 18 19  2  0  0  0  0
 18 20  1  0  0  0  0
 20 21  1  0  0  0  0
 20 22  1  0  0  0  0
 22 23  1  0  0  0  0
 22 24  1  0  0  0  0
 22 25  1  0  0  0  0
M  END
$$$$

  -OEChem-02102214113D

 25 24  0     1  0  0  0  0  0999 V2000
   -2.6792   -3.9332    0.4523 H   0  0  0  0  0  0  0  0  0  0  0  0
   -2.7550   -2.8749    0.1876 C   0  0  0  0  0  0  0  0  0  0  0  0
   -3.2960   -2.3516    0.9797 H   0  0  0  0  0  0  0  0  0  0  0  0
   -3.3135   -2.7841   -0.7472 H   0  0  0  0  0  0  0  0  0  0  0  0
   -1.3708   -2.2763    0.0228 C   0  0  0  0  0  0  0  0  0  0  0  0
   -0.3802   -2.9757    0.1699 O   0  0  0  0  0  0  0  0  0  0  0  0
   -1.2349   -0.9389   -0.2868 N   0  0  0  0  0  0  0  0  0  0  0  0
   -2.0811   -0.3694   -0.2736 H   0  0  0  0  0  0  0  0  0  0  0  0
    0.0395   -0.2085   -0.3047 C   0  0  1  0  0  0  0  0  0  0  0  0
    0.7521   -0.7688    0.3098 H   0  0  0  0  0  0  0  0  0  0  0  0
    0.6188   -0.2024   -1.7381 C   0  0  0  0  0  0  0  0  0  0  0  0
    1.6728    0.0799   -1.6840 H   0  0  0  0  0  0  0  0  0  0  0  0
    0.5796   -1.2227   -2.1309 H   0  0  0  0  0  0  0  0  0  0  0  0
   -0.0382    0.7283   -2.7565 C   0  0  0  0  0  0  0  0  0  0  0  0
   -0.3093    1.8758   -2.4561 O   0  0  0  0  0  0  0  0  0  0  0  0
   -0.2765    0.2092   -3.9832 O   0  0  0  0  0  0  0  0  0  0  0  0
   -0.6941    0.9205   -4.4927 H   0  0  0  0  0  0  0  0  0  0  0  0
   -0.0932    1.1608    0.4021 C   0  0  0  0  0  0  0  0  0  0  0  0
   -1.1791    1.7300    0.4236 O   0  0  0  0  0  0  0  0  0  0  0  0
    0.8825    1.5777    1.2902 N   0  0  0  0  0  0  0  0  0  0  0  0
    1.7428    1.0402    1.3367 H   0  0  0  0  0  0  0  0  0  0  0  0
    0.7432    2.7593    2.1337 C   0  0  0  0  0  0  0  0  0  0  0  0
   -0.0920    2.6357    2.8312 H   0  0  0  0  0  0  0  0  0  0  0  0
    1.6570    2.9215    2.7134 H   0  0  0  0  0  0  0  0  0  0  0  0
    0.5611    3.6482    1.5202 H   0  0  0  0  0  0  0  0  0  0  0  0
  1  2  1  0  0  0  0
  2  3  1  0  0  0  0
  2  4  1  0  0  0  0
  2  5  1  0  0  0  0
  5  6  2  0  0  0  0
  5  7  1  0  0  0  0
  7  8  1  0  0  0  0
  7  9  1  0  0  0  0
  9 10  1  0  0  0  0
  9 11  1  0  0  0  0
  9 18  1  0  0  0  0
 11 12  1  0  0  0  0
 11 13  1  0  0  0  0
 11 14  1  0  0  0  0
 14 15  2  0  0  0  0
 14 16  1  0  0  0  0
 16 17  1  0  0  0  0
 18 19  2  0  0  0  0
 18 20  1  0  0  0  0
 20 21  1  0  0  0  0
 20 22  1  0  0  0  0
 22 23  1  0  0  0  0
 22 24  1  0  0  0  0
 22 25  1  0  0  0  0
M  END
$$$$

  -OEChem-02102214113D

 25 24  0     1  0  0  0  0  0999 V2000
   -2.6941   -3.9348    0.4581 H   0  0  0  0  0  0  0  0  0  0  0  0
   -2.7582   -2.8802    0.1763 C   0  0  0  0  0  0  0  0  0  0  0  0
   -3.3153   -2.3427    0.9475 H   0  0  0  0  0  0  0  0  0  0  0  0
   -3.2940   -2.8010   -0.7727 H   0  0  0  0  0  0  0  0  0  0  0  0
   -1.3675   -2.2902    0.0357 C   0  0  0  0  0  0  0  0  0  0  0  0
   -0.3838   -2.9927    0.2114 O   0  0  0  0  0  0  0  0  0  0  0  0
   -1.2180   -0.9574   -0.2871 N   0  0  0  0  0  0  0  0  0  0  0  0
   -2.0612   -0.3837   -0.2987 H   0  0  0  0  0  0  0  0  0  0  0  0
    0.0621   -0.2366   -0.2960 C   0  0  1  0  0  0  0  0  0  0  0  0
    0.7739   -0.7962    0.3199 H   0  0  0  0  0  0  0  0  0  0  0  0
    0.6318   -0.2223   -1.7312 C   0  0  0  0  0  0  0  0  0  0  0  0
    1.6880    0.0542   -1.6853 H   0  0  0  0  0  0  0  0  0  0  0  0
    0.5825   -1.2355   -2.1409 H   0  0  0  0  0  0  0  0  0  0  0  0
   -0.0425    0.7335   -2.7117 C   0  0  0  0  0  0  0  0  0  0  0  0
   -0.0481    1.9283   -2.4756 O   0  0  0  0  0  0  0  0  0  0  0  0
   -0.6106    0.1905   -3.8135 O   0  0  0  0  0  0  0  0  0  0  0  0
   -0.9963    0.9331   -4.3028 H   0  0  0  0  0  0  0  0  0  0  0  0
   -0.0806    1.1391    0.3953 C   0  0  0  0  0  0  0  0  0  0  0  0
   -1.1581    1.7239    0.3616 O   0  0  0  0  0  0  0  0  0  0  0  0
    0.8777    1.5676    1.2963 N   0  0  0  0  0  0  0  0  0  0  0  0
    1.7393    1.0341    1.3613 H   0  0  0  0  0  0  0  0  0  0  0  0
    0.7357    2.7778    2.0973 C   0  0  0  0  0  0  0  0  0  0  0  0
   -0.1386    2.7031    2.7526 H   0  0  0  0  0  0  0  0  0  0  0  0
    1.6224    2.9267    2.7209 H   0  0  0  0  0  0  0  0  0  0  0  0
    0.6175    3.6531    1.4497 H   0  0  0  0  0  0  0  0  0  0  0  0
  1  2  1  0  0  0  0
  2  3  1  0  0  0  0
  2  4  1  0  0  0  0
  2  5  1  0  0  0  0
  5  6  2  0  0  0  0
  5  7  1  0  0  0  0
  7  8  1  0  0  0  0
  7  9  1  0  0  0  0
  9 10  1  0  0  0  0
  9 11  1  0  0  0  0
  9 18  1  0  0  0  0
 11 12  1  0  0  0  0
 11 13  1  0  0  0  0
 11 14  1  0  0  0  0
 14 15  2  0  0  0  0
 14 16  1  0  0  0  0
 16 17  1  0  0  0  0
 18 19  2  0  0  0  0
 18 20  1  0  0  0  0
 20 21  1  0  0  0  0
 20 22  1  0  0  0  0
 22 23  1  0  0  0  0
 22 24  1  0  0  0  0
 22 25  1  0  0  0  0
M  END
$$$$

  -OEChem-02102214113D

 25 24  0     1  0  0  0  0  0999 V2000
   -2.7063   -3.9439    0.4593 H   0  0  0  0  0  0  0  0  0  0  0  0
   -2.7590   -2.8930    0.1614 C   0  0  0  0  0  0  0  0  0  0  0  0
   -3.3350   -2.3431    0.9095 H   0  0  0  0  0  0  0  0  0  0  0  0
   -3.2683   -2.8251   -0.8028 H   0  0  0  0  0  0  0  0  0  0  0  0
   -1.3633   -2.3091    0.0509 C   0  0  0  0  0  0  0  0  0  0  0  0
   -0.3871   -3.0112    0.2652 O   0  0  0  0  0  0  0  0  0  0  0  0
   -1.2007   -0.9815   -0.2855 N   0  0  0  0  0  0  0  0  0  0  0  0
   -2.0418   -0.4084   -0.3478 H   0  0  0  0  0  0  0  0  0  0  0  0
    0.0827   -0.2672   -0.2854 C   0  0  1  0  0  0  0  0  0  0  0  0
    0.7953   -0.8256    0.3310 H   0  0  0  0  0  0  0  0  0  0  0  0
    0.6421   -0.2373   -1.7222 C   0  0  0  0  0  0  0  0  0  0  0  0
    1.7001    0.0347   -1.6850 H   0  0  0  0  0  0  0  0  0  0  0  0
    0.5810   -1.2398   -2.1551 H   0  0  0  0  0  0  0  0  0  0  0  0
   -0.0551    0.7457   -2.6561 C   0  0  0  0  0  0  0  0  0  0  0  0
    0.1806    1.9354   -2.5341 O   0  0  0  0  0  0  0  0  0  0  0  0
   -0.9181    0.2441   -3.5701 O   0  0  0  0  0  0  0  0  0  0  0  0
   -1.2749    1.0123   -4.0415 H   0  0  0  0  0  0  0  0  0  0  0  0
   -0.0681    1.1159    0.3878 C   0  0  0  0  0  0  0  0  0  0  0  0
   -1.1290    1.7233    0.2885 O   0  0  0  0  0  0  0  0  0  0  0  0
    0.8730    1.5581    1.2996 N   0  0  0  0  0  0  0  0  0  0  0  0
    1.7229    1.0126    1.4064 H   0  0  0  0  0  0  0  0  0  0  0  0
    0.7321    2.7993    2.0517 C   0  0  0  0  0  0  0  0  0  0  0  0
   -0.1670    2.7697    2.6762 H   0  0  0  0  0  0  0  0  0  0  0  0
    1.5992    2.9485    2.7022 H   0  0  0  0  0  0  0  0  0  0  0  0
    0.6596    3.6532    1.3697 H   0  0  0  0  0  0  0  0  0  0  0  0
  1  2  1  0  0  0  0
  2  3  1  0  0  0  0
  2  4  1  0  0  0  0
  2  5  1  0  0  0  0
  5  6  2  0  0  0  0
  5  7  1  0  0  0  0
  7  8  1  0  0  0  0
  7  9  1  0  0  0  0
  9 10  1  0  0  0  0
  9 11  1  0  0  0  0
  9 18  1  0  0  0  0
 11 12  1  0  0  0  0
 11 13  1  0  0  0  0
 11 14  1  0  0  0  0
 14 15  2  0  0  0  0
 14 16  1  0  0  0  0
 16 17  1  0  0  0  0
 18 19  2  0  0  0  0
 18 20  1  0  0  0  0
 20 21  1  0  0  0  0
 20 22  1  0  0  0  0
 22 23  1  0  0  0  0
 22 24  1  0  0  0  0
 22 25  1  0  0  0  0
M  END
$$$$

  -OEChem-02102214113D

 25 24  0     1  0  0  0  0  0999 V2000
   -2.7094   -3.9718    0.4233 H   0  0  0  0  0  0  0  0  0  0  0  0
   -2.7587   -2.9204    0.1267 C   0  0  0  0  0  0  0  0  0  0  0  0
   -3.3715   -2.3783    0.8510 H   0  0  0  0  0  0  0  0  0  0  0  0
   -3.2262   -2.8533   -0.8587 H   0  0  0  0  0  0  0  0  0  0  0  0
   -1.3644   -2.3249    0.0784 C   0  0  0  0  0  0  0  0  0  0  0  0
   -0.3942   -3.0164    0.3471 O   0  0  0  0  0  0  0  0  0  0  0  0
   -1.1954   -1.0010   -0.2691 N   0  0  0  0  0  0  0  0  0  0  0  0
   -2.0351   -0.4405   -0.4105 H   0  0  0  0  0  0  0  0  0  0  0  0
    0.0880   -0.2869   -0.2665 C   0  0  1  0  0  0  0  0  0  0  0  0
    0.8036   -0.8439    0.3474 H   0  0  0  0  0  0  0  0  0  0  0  0
    0.6381   -0.2424   -1.7047 C   0  0  0  0  0  0  0  0  0  0  0  0
    1.6971    0.0282   -1.6742 H   0  0  0  0  0  0  0  0  0  0  0  0
    0.5691   -1.2364   -2.1554 H   0  0  0  0  0  0  0  0  0  0  0  0
   -0.0823    0.7582   -2.6004 C   0  0  0  0  0  0  0  0  0  0  0  0
    0.3464    1.8988   -2.6486 O   0  0  0  0  0  0  0  0  0  0  0  0
   -1.1726    0.3366   -3.2831 O   0  0  0  0  0  0  0  0  0  0  0  0
   -1.5037    1.1186   -3.7509 H   0  0  0  0  0  0  0  0  0  0  0  0
   -0.0607    1.1037    0.3909 C   0  0  0  0  0  0  0  0  0  0  0  0
   -1.0968    1.7401    0.2335 O   0  0  0  0  0  0  0  0  0  0  0  0
    0.8748    1.5548    1.3038 N   0  0  0  0  0  0  0  0  0  0  0  0
    1.7076    0.9916    1.4478 H   0  0  0  0  0  0  0  0  0  0  0  0
    0.7511    2.8247    2.0095 C   0  0  0  0  0  0  0  0  0  0  0  0
   -0.1555    2.8354    2.6238 H   0  0  0  0  0  0  0  0  0  0  0  0
    1.6139    2.9801    2.6644 H   0  0  0  0  0  0  0  0  0  0  0  0
    0.7035    3.6550    1.2968 H   0  0  0  0  0  0  0  0  0  0  0  0
  1  2  1  0  0  0  0
  2  3  1  0  0  0  0
  2  4  1  0  0  0  0
  2  5  1  0  0  0  0
  5  6  2  0  0  0  0
  5  7  1  0  0  0  0
  7  8  1  0  0  0  0
  7  9  1  0  0  0  0
  9 10  1  0  0  0  0
  9 11  1  0  0  0  0
  9 18  1  0  0  0  0
 11 12  1  0  0  0  0
 11 13  1  0  0  0  0
 11 14  1  0  0  0  0
 14 15  2  0  0  0  0
 14 16  1  0  0  0  0
 16 17  1  0  0  0  0
 18 19  2  0  0  0  0
 18 20  1  0  0  0  0
 20 21  1  0  0  0  0
 20 22  1  0  0  0  0
 22 23  1  0  0  0  0
 22 24  1  0  0  0  0
 22 25  1  0  0  0  0
M  END
$$$$

  -OEChem-02102214113D

 25 24  0     1  0  0  0  0  0999 V2000
   -2.7030   -4.0008    0.3879 H   0  0  0  0  0  0  0  0  0  0  0  0
   -2.7534   -2.9491    0.0920 C   0  0  0  0  0  0  0  0  0  0  0  0
   -3.4035   -2.4167    0.7905 H   0  0  0  0  0  0  0  0  0  0  0  0
   -3.1796   -2.8852   -0.9121 H   0  0  0  0  0  0  0  0  0  0  0  0
   -1.3663   -2.3349    0.1043 C   0  0  0  0  0  0  0  0  0  0  0  0
   -0.3994   -3.0120    0.4181 O   0  0  0  0  0  0  0  0  0  0  0  0
   -1.2002   -1.0115   -0.2455 N   0  0  0  0  0  0  0  0  0  0  0  0
   -2.0358   -0.4738   -0.4730 H   0  0  0  0  0  0  0  0  0  0  0  0
    0.0789   -0.2900   -0.2448 C   0  0  1  0  0  0  0  0  0  0  0  0
    0.8004   -0.8453    0.3636 H   0  0  0  0  0  0  0  0  0  0  0  0
    0.6199   -0.2341   -1.6857 C   0  0  0  0  0  0  0  0  0  0  0  0
    1.6781    0.0406   -1.6596 H   0  0  0  0  0  0  0  0  0  0  0  0
    0.5505   -1.2242   -2.1441 H   0  0  0  0  0  0  0  0  0  0  0  0
   -0.1197    0.7704   -2.5627 C   0  0  0  0  0  0  0  0  0  0  0  0
    0.4409    1.8209   -2.8255 O   0  0  0  0  0  0  0  0  0  0  0  0
   -1.3579    0.4476   -3.0072 O   0  0  0  0  0  0  0  0  0  0  0  0
   -1.6681    1.2259   -3.4952 H   0  0  0  0  0  0  0  0  0  0  0  0
   -0.0620    1.1039    0.4066 C   0  0  0  0  0  0  0  0  0  0  0  0
   -1.0707    1.7715    0.2084 O   0  0  0  0  0  0  0  0  0  0  0  0
    0.8794    1.5544    1.3136 N   0  0  0  0  0  0  0  0  0  0  0  0
    1.6912    0.9685    1.4854 H   0  0  0  0  0  0  0  0  0  0  0  0
    0.7856    2.8441    1.9872 C   0  0  0  0  0  0  0  0  0  0  0  0
   -0.1306    2.8999    2.5845 H   0  0  0  0  0  0  0  0  0  0  0  0
    1.6414    2.9861    2.6542 H   0  0  0  0  0  0  0  0  0  0  0  0
    0.7790    3.6584    1.2548 H   0  0  0  0  0  0  0  0  0  0  0  0
  1  2  1  0  0  0  0
  2  3  1  0  0  0  0
  2  4  1  0  0  0  0
  2  5  1  0  0  0  0
  5  6  2  0  0  0  0
  5  7  1  0  0  0  0
  7  8  1  0  0  0  0
  7  9  1  0  0  0  0
  9 10  1  0  0  0  0
  9 11  1  0  0  0  0
  9 18  1  0  0  0  0
 11 12  1  0  0  0  0
 11 13  1  0  0  0  0
 11 14  1  0  0  0  0
 14 15  2  0  0  0  0
 14 16  1  0  0  0  0
 16 17  1  0  0  0  0
 18 19  2  0  0  0  0
 18 20  1  0  0  0  0
 20 21  1  0  0  0  0
 20 22  1  0  0  0  0
 22 23  1  0  0  0  0
 22 24  1  0  0  0  0
 22 25  1  0  0  0  0
M  END
$$$$

  -OEChem-02102214113D

 25 24  0     1  0  0  0  0  0999 V2000
   -2.6915   -4.0161    0.3663 H   0  0  0  0  0  0  0  0  0  0  0  0
   -2.7475   -2.9633    0.0758 C   0  0  0  0  0  0  0  0  0  0  0  0
   -3.4202   -2.4430    0.7619 H   0  0  0  0  0  0  0  0  0  0  0  0
   -3.1502   -2.8983   -0.9379 H   0  0  0  0  0  0  0  0  0  0  0  0
   -1.3685   -2.3331    0.1248 C   0  0  0  0  0  0  0  0  0  0  0  0
   -0.4020   -2.9993    0.4618 O   0  0  0  0  0  0  0  0  0  0  0  0
   -1.2083   -1.0088   -0.2239 N   0  0  0  0  0  0  0  0  0  0  0  0
   -2.0390   -0.4889   -0.5054 H   0  0  0  0  0  0  0  0  0  0  0  0
    0.0669   -0.2812   -0.2310 C   0  0  1  0  0  0  0  0  0  0  0  0
    0.7947   -0.8362    0.3704 H   0  0  0  0  0  0  0  0  0  0  0  0
    0.5989   -0.2213   -1.6754 C   0  0  0  0  0  0  0  0  0  0  0  0
    1.6562    0.0579   -1.6524 H   0  0  0  0  0  0  0  0  0  0  0  0
    0.5304   -1.2118   -2.1333 H   0  0  0  0  0  0  0  0  0  0  0  0
   -0.1489    0.7788   -2.5529 C   0  0  0  0  0  0  0  0  0  0  0  0
    0.4910    1.6916   -3.0470 O   0  0  0  0  0  0  0  0  0  0  0  0
   -1.4700    0.5787   -2.7813 O   0  0  0  0  0  0  0  0  0  0  0  0
   -1.7590    1.3356   -3.3139 H   0  0  0  0  0  0  0  0  0  0  0  0
   -0.0612    1.1142    0.4206 C   0  0  0  0  0  0  0  0  0  0  0  0
   -1.0501    1.8057    0.2075 O   0  0  0  0  0  0  0  0  0  0  0  0
    0.8928    1.5595    1.3170 N   0  0  0  0  0  0  0  0  0  0  0  0
    1.6836    0.9515    1.5098 H   0  0  0  0  0  0  0  0  0  0  0  0
    0.8126    2.8480    1.9949 C   0  0  0  0  0  0  0  0  0  0  0  0
   -0.1035    2.9123    2.5916 H   0  0  0  0  0  0  0  0  0  0  0  0
    1.6693    2.9780    2.6631 H   0  0  0  0  0  0  0  0  0  0  0  0
    0.8161    3.6648    1.2653 H   0  0  0  0  0  0  0  0  0  0  0  0
  1  2  1  0  0  0  0
  2  3  1  0  0  0  0
  2  4  1  0  0  0  0
  2  5  1  0  0  0  0
  5  6  2  0  0  0  0
  5  7  1  0  0  0  0
  7  8  1  0  0  0  0
  7  9  1  0  0  0  0
  9 10  1  0  0  0  0
  9 11  1  0  0  0  0
  9 18  1  0  0  0  0
 11 12  1  0  0  0  0
 11 13  1  0  0  0  0
 11 14  1  0  0  0  0
 14 15  2  0  0  0  0
 14 16  1  0  0  0  0
 16 17  1  0  0  0  0
 18 19  2  0  0  0  0
 18 20  1  0  0  0  0
 20 21  1  0  0  0  0
 20 22  1  0  0  0  0
 22 23  1  0  0  0  0
 22 24  1  0  0  0  0
 22 25  1  0  0  0  0
M  END
$$$$

  -OEChem-02102214113D

 25 24  0     1  0  0  0  0  0999 V2000
   -2.6825   -4.0203    0.3624 H   0  0  0  0  0  0  0  0  0  0  0  0
   -2.7444   -2.9670    0.0747 C   0  0  0  0  0  0  0  0  0  0  0  0
   -3.4213   -2.4526    0.7611 H   0  0  0  0  0  0  0  0  0  0  0  0
   -3.1459   -2.9011   -0.9393 H   0  0  0  0  0  0  0  0  0  0  0  0
   -1.3698   -2.3281    0.1285 C   0  0  0  0  0  0  0  0  0  0  0  0
   -0.3994   -2.9894    0.4646 O   0  0  0  0  0  0  0  0  0  0  0  0
   -1.2197   -1.0002   -0.2111 N   0  0  0  0  0  0  0  0  0  0  0  0
   -2.0516   -0.4884   -0.5045 H   0  0  0  0  0  0  0  0  0  0  0  0
    0.0493   -0.2631   -0.2233 C   0  0  1  0  0  0  0  0  0  0  0  0
    0.7795   -0.8191    0.3740 H   0  0  0  0  0  0  0  0  0  0  0  0
    0.5850   -0.2004   -1.6673 C   0  0  0  0  0  0  0  0  0  0  0  0
    1.6397    0.0881   -1.6384 H   0  0  0  0  0  0  0  0  0  0  0  0
    0.5270   -1.1939   -2.1201 H   0  0  0  0  0  0  0  0  0  0  0  0
   -0.1602    0.7880   -2.5629 C   0  0  0  0  0  0  0  0  0  0  0  0
    0.5097    1.5201   -3.2712 O   0  0  0  0  0  0  0  0  0  0  0  0
   -1.5138    0.7303   -2.6158 O   0  0  0  0  0  0  0  0  0  0  0  0
   -1.7838    1.4468   -3.2103 H   0  0  0  0  0  0  0  0  0  0  0  0
   -0.0671    1.1295    0.4367 C   0  0  0  0  0  0  0  0  0  0  0  0
   -1.0500    1.8334    0.2406 O   0  0  0  0  0  0  0  0  0  0  0  0
    0.9028    1.5624    1.3223 N   0  0  0  0  0  0  0  0  0  0  0  0
    1.6843    0.9409    1.5098 H   0  0  0  0  0  0  0  0  0  0  0  0
    0.8356    2.8406    2.0208 C   0  0  0  0  0  0  0  0  0  0  0  0
   -0.0628    2.8903    2.6451 H   0  0  0  0  0  0  0  0  0  0  0  0
    1.7113    2.9662    2.6649 H   0  0  0  0  0  0  0  0  0  0  0  0
    0.8127    3.6682    1.3038 H   0  0  0  0  0  0  0  0  0  0  0  0
  1  2  1  0  0  0  0
  2  3  1  0  0  0  0
  2  4  1  0  0  0  0
  2  5  1  0  0  0  0
  5  6  2  0  0  0  0
  5  7  1  0  0  0  0
  7  8  1  0  0  0  0
  7  9  1  0  0  0  0
  9 10  1  0  0  0  0
  9 11  1  0  0  0  0
  9 18  1  0  0  0  0
 11 12  1  0  0  0  0
 11 13  1  0  0  0  0
 11 14  1  0  0  0  0
 14 15  2  0  0  0  0
 14 16  1  0  0  0  0
 16 17  1  0  0  0  0
 18 19  2  0  0  0  0
 18 20  1  0  0  0  0
 20 21  1  0  0  0  0
 20 22  1  0  0  0  0
 22 23  1  0  0  0  0
 22 24  1  0  0  0  0
 22 25  1  0  0  0  0
M  END
$$$$

  -OEChem-02102214113D

 25 24  0     1  0  0  0  0  0999 V2000
   -2.6711   -4.0172    0.3547 H   0  0  0  0  0  0  0  0  0  0  0  0
   -2.7427   -2.9617    0.0783 C   0  0  0  0  0  0  0  0  0  0  0  0
   -3.4132   -2.4581    0.7787 H   0  0  0  0  0  0  0  0  0  0  0  0
   -3.1582   -2.8884   -0.9297 H   0  0  0  0  0  0  0  0  0  0  0  0
   -1.3707   -2.3158    0.1201 C   0  0  0  0  0  0  0  0  0  0  0  0
   -0.3913   -2.9764    0.4303 O   0  0  0  0  0  0  0  0  0  0  0  0
   -1.2322   -0.9829   -0.2045 N   0  0  0  0  0  0  0  0  0  0  0  0
   -2.0729   -0.4676   -0.4651 H   0  0  0  0  0  0  0  0  0  0  0  0
    0.0311   -0.2358   -0.2221 C   0  0  1  0  0  0  0  0  0  0  0  0
    0.7610   -0.7941    0.3735 H   0  0  0  0  0  0  0  0  0  0  0  0
    0.5770   -0.1799   -1.6631 C   0  0  0  0  0  0  0  0  0  0  0  0
    1.6284    0.1183   -1.6248 H   0  0  0  0  0  0  0  0  0  0  0  0
    0.5332   -1.1801   -2.1024 H   0  0  0  0  0  0  0  0  0  0  0  0
   -0.1561    0.7874   -2.5920 C   0  0  0  0  0  0  0  0  0  0  0  0
    0.4979    1.2980   -3.4853 O   0  0  0  0  0  0  0  0  0  0  0  0
   -1.5035    0.9015   -2.4979 O   0  0  0  0  0  0  0  0  0  0  0  0
   -1.7637    1.5518   -3.1674 H   0  0  0  0  0  0  0  0  0  0  0  0
   -0.0709    1.1517    0.4528 C   0  0  0  0  0  0  0  0  0  0  0  0
   -1.0618    1.8547    0.3022 O   0  0  0  0  0  0  0  0  0  0  0  0
    0.9167    1.5706    1.3259 N   0  0  0  0  0  0  0  0  0  0  0  0
    1.7008    0.9455    1.4887 H   0  0  0  0  0  0  0  0  0  0  0  0
    0.8546    2.8277    2.0627 C   0  0  0  0  0  0  0  0  0  0  0  0
   -0.0268    2.8489    2.7124 H   0  0  0  0  0  0  0  0  0  0  0  0
    1.7460    2.9451    2.6862 H   0  0  0  0  0  0  0  0  0  0  0  0
    0.8029    3.6753    1.3711 H   0  0  0  0  0  0  0  0  0  0  0  0
  1  2  1  0  0  0  0
  2  3  1  0  0  0  0
  2  4  1  0  0  0  0
  2  5  1  0  0  0  0
  5  6  2  0  0  0  0
  5  7  1  0  0  0  0
  7  8  1  0  0  0  0
  7  9  1  0  0  0  0
  9 10  1  0  0  0  0
  9 11  1  0  0  0  0
  9 18  1  0  0  0  0
 11 12  1  0  0  0  0
 11 13  1  0  0  0  0
 11 14  1  0  0  0  0
 14 15  2  0  0  0  0
 14 16  1  0  0  0  0
 16 17  1  0  0  0  0
 18 19  2  0  0  0  0
 18 20  1  0  0  0  0
 20 21  1  0  0  0  0
 20 22  1  0  0  0  0
 22 23  1  0  0  0  0
 22 24  1  0  0  0  0
 22 25  1  0  0  0  0
M  END
$$$$

  -OEChem-02102214113D

 25 24  0     1  0  0  0  0  0999 V2000
   -2.6593   -4.0003    0.3826 H   0  0  0  0  0  0  0  0  0  0  0  0
   -2.7419   -2.9441    0.1117 C   0  0  0  0  0  0  0  0  0  0  0  0
   -3.3791   -2.4413    0.8434 H   0  0  0  0  0  0  0  0  0  0  0  0
   -3.2031   -2.8681   -0.8759 H   0  0  0  0  0  0  0  0  0  0  0  0
   -1.3685   -2.3003    0.0917 C   0  0  0  0  0  0  0  0  0  0  0  0
   -0.3760   -2.9675    0.3404 O   0  0  0  0  0  0  0  0  0  0  0  0
   -1.2438   -0.9618   -0.2162 N   0  0  0  0  0  0  0  0  0  0  0  0
   -2.0976   -0.4338   -0.3951 H   0  0  0  0  0  0  0  0  0  0  0  0
    0.0141   -0.2058   -0.2382 C   0  0  1  0  0  0  0  0  0  0  0  0
    0.7395   -0.7656    0.3615 H   0  0  0  0  0  0  0  0  0  0  0  0
    0.5819   -0.1617   -1.6719 C   0  0  0  0  0  0  0  0  0  0  0  0
    1.6294    0.1472   -1.6171 H   0  0  0  0  0  0  0  0  0  0  0  0
    0.5573   -1.1709   -2.0920 H   0  0  0  0  0  0  0  0  0  0  0  0
   -0.1250    0.7783   -2.6482 C   0  0  0  0  0  0  0  0  0  0  0  0
    0.4733    1.0381   -3.6781 O   0  0  0  0  0  0  0  0  0  0  0  0
   -1.4146    1.1283   -2.4339 O   0  0  0  0  0  0  0  0  0  0  0  0
   -1.6675    1.6985   -3.1749 H   0  0  0  0  0  0  0  0  0  0  0  0
   -0.0800    1.1732    0.4550 C   0  0  0  0  0  0  0  0  0  0  0  0
   -1.0987    1.8485    0.3874 O   0  0  0  0  0  0  0  0  0  0  0  0
    0.9235    1.5775    1.3174 N   0  0  0  0  0  0  0  0  0  0  0  0
    1.7222    0.9610    1.4367 H   0  0  0  0  0  0  0  0  0  0  0  0
    0.8507    2.7962    2.1152 C   0  0  0  0  0  0  0  0  0  0  0  0
   -0.0036    2.7556    2.7992 H   0  0  0  0  0  0  0  0  0  0  0  0
    1.7629    2.9165    2.7076 H   0  0  0  0  0  0  0  0  0  0  0  0
    0.7420    3.6721    1.4667 H   0  0  0  0  0  0  0  0  0  0  0  0
  1  2  1  0  0  0  0
  2  3  1  0  0  0  0
  2  4  1  0  0  0  0
  2  5  1  0  0  0  0
  5  6  2  0  0  0  0
  5  7  1  0  0  0  0
  7  8  1  0  0  0  0
  7  9  1  0  0  0  0
  9 10  1  0  0  0  0
  9 11  1  0  0  0  0
  9 18  1  0  0  0  0
 11 12  1  0  0  0  0
 11 13  1  0  0  0  0
 11 14  1  0  0  0  0
 14 15  2  0  0  0  0
 14 16  1  0  0  0  0
 16 17  1  0  0  0  0
 18 19  2  0  0  0  0
 18 20  1  0  0  0  0
 20 21  1  0  0  0  0
 20 22  1  0  0  0  0
 22 23  1  0  0  0  0
 22 24  1  0  0  0  0
 22 25  1  0  0  0  0
M  END
$$$$

  -OEChem-02102214113D

 25 24  0     1  0  0  0  0  0999 V2000
   -2.6543   -3.9852    0.3090 H   0  0  0  0  0  0  0  0  0  0  0  0
   -2.7414   -2.9249    0.0555 C   0  0  0  0  0  0  0  0  0  0  0  0
   -3.3703   -2.4349    0.8028 H   0  0  0  0  0  0  0  0  0  0  0  0
   -3.2156   -2.8358   -0.9250 H   0  0  0  0  0  0  0  0  0  0  0  0
   -1.3685   -2.2799    0.0274 C   0  0  0  0  0  0  0  0  0  0  0  0
   -0.3737   -2.9462    0.2644 O   0  0  0  0  0  0  0  0  0  0  0  0
   -1.2455   -0.9355   -0.2637 N   0  0  0  0  0  0  0  0  0  0  0  0
   -2.1082   -0.4057   -0.3793 H   0  0  0  0  0  0  0  0  0  0  0  0
    0.0213   -0.1877   -0.2645 C   0  0  1  0  0  0  0  0  0  0  0  0
    0.7393   -0.7569    0.3366 H   0  0  0  0  0  0  0  0  0  0  0  0
    0.5871   -0.1617   -1.7045 C   0  0  0  0  0  0  0  0  0  0  0  0
    1.6767   -0.1218   -1.6183 H   0  0  0  0  0  0  0  0  0  0  0  0
    0.3429   -1.1103   -2.1924 H   0  0  0  0  0  0  0  0  0  0  0  0
    0.2023    0.9713   -2.6685 C   0  0  0  0  0  0  0  0  0  0  0  0
    0.7202    0.8676   -3.7682 O   0  0  0  0  0  0  0  0  0  0  0  0
   -0.6843    1.9547   -2.3446 O   0  0  0  0  0  0  0  0  0  0  0  0
   -0.9436    1.9056   -1.3965 H   0  0  0  0  0  0  0  0  0  0  0  0
   -0.0852    1.1728    0.4469 C   0  0  0  0  0  0  0  0  0  0  0  0
   -1.0716    1.8674    0.2354 O   0  0  0  0  0  0  0  0  0  0  0  0
    0.8813    1.6001    1.3357 N   0  0  0  0  0  0  0  0  0  0  0  0
    1.6699    0.9838    1.5159 H   0  0  0  0  0  0  0  0  0  0  0  0
    0.8105    2.8744    2.0414 C   0  0  0  0  0  0  0  0  0  0  0  0
   -0.0839    2.9157    2.6721 H   0  0  0  0  0  0  0  0  0  0  0  0
    1.6895    3.0014    2.6807 H   0  0  0  0  0  0  0  0  0  0  0  0
    0.7787    3.7063    1.3296 H   0  0  0  0  0  0  0  0  0  0  0  0
  1  2  1  0  0  0  0
  2  3  1  0  0  0  0
  2  4  1  0  0  0  0
  2  5  1  0  0  0  0
  5  6  2  0  0  0  0
  5  7  1  0  0  0  0
  7  8  1  0  0  0  0
  7  9  1  0  0  0  0
  9 10  1  0  0  0  0
  9 11  1  0  0  0  0
  9 18  1  0  0  0  0
 11 12  1  0  0  0  0
 11 13  1  0  0  0  0
 11 14  1  0  0  0  0
 14 15  2  0  0  0  0
 14 16  1  0  0  0  0
 16 17  1  0  0  0  0
 18 19  2  0  0  0  0
 18 20  1  0  0  0  0
 20 21  1  0  0  0  0
 20 22  1  0  0  0  0
 22 23  1  0  0  0  0
 22 24  1  0  0  0  0
 22 25  1  0  0  0  0
M  END
$$$$

  -OEChem-02102214113D

 25 24  0     1  0  0  0  0  0999 V2000
   -2.6302   -3.9612    0.4373 H   0  0  0  0  0  0  0  0  0  0  0  0
   -2.7288   -2.9001    0.1918 C   0  0  0  0  0  0  0  0  0  0  0  0
   -3.2666   -2.3999    1.0008 H   0  0  0  0  0  0  0  0  0  0  0  0
   -3.3031   -2.8039   -0.7327 H   0  0  0  0  0  0  0  0  0  0  0  0
   -1.3579   -2.2749    0.0165 C   0  0  0  0  0  0  0  0  0  0  0  0
   -0.3544   -2.9634    0.1202 O   0  0  0  0  0  0  0  0  0  0  0  0
   -1.2484   -0.9266   -0.2553 N   0  0  0  0  0  0  0  0  0  0  0  0
   -2.1032   -0.3721   -0.2115 H   0  0  0  0  0  0  0  0  0  0  0  0
    0.0140   -0.1750   -0.2822 C   0  0  1  0  0  0  0  0  0  0  0  0
    0.7326   -0.7427    0.3184 H   0  0  0  0  0  0  0  0  0  0  0  0
    0.5928   -0.1661   -1.7211 C   0  0  0  0  0  0  0  0  0  0  0  0
    1.6808   -0.1142   -1.6324 H   0  0  0  0  0  0  0  0  0  0  0  0
    0.3558   -1.1222   -2.1979 H   0  0  0  0  0  0  0  0  0  0  0  0
    0.1975    0.9571   -2.6833 C   0  0  0  0  0  0  0  0  0  0  0  0
    0.4477    0.7576   -3.8595 O   0  0  0  0  0  0  0  0  0  0  0  0
   -0.3026    2.1249   -2.2284 O   0  0  0  0  0  0  0  0  0  0  0  0
   -0.4616    2.6786   -3.0072 H   0  0  0  0  0  0  0  0  0  0  0  0
   -0.1142    1.1724    0.4673 C   0  0  0  0  0  0  0  0  0  0  0  0
   -1.2067    1.7262    0.5396 O   0  0  0  0  0  0  0  0  0  0  0  0
    0.8811    1.5748    1.3404 N   0  0  0  0  0  0  0  0  0  0  0  0
    1.7455    1.0417    1.3519 H   0  0  0  0  0  0  0  0  0  0  0  0
    0.7481    2.7207    2.2324 C   0  0  0  0  0  0  0  0  0  0  0  0
   -0.0716    2.5615    2.9408 H   0  0  0  0  0  0  0  0  0  0  0  0
    1.6718    2.8682    2.7999 H   0  0  0  0  0  0  0  0  0  0  0  0
    0.5459    3.6315    1.6586 H   0  0  0  0  0  0  0  0  0  0  0  0
  1  2  1  0  0  0  0
  2  3  1  0  0  0  0
  2  4  1  0  0  0  0
  2  5  1  0  0  0  0
  5  6  2  0  0  0  0
  5  7  1  0  0  0  0
  7  8  1  0  0  0  0
  7  9  1  0  0  0  0
  9 10  1  0  0  0  0
  9 11  1  0  0  0  0
  9 18  1  0  0  0  0
 11 12  1  0  0  0  0
 11 13  1  0  0  0  0
 11 14  1  0  0  0  0
 14 15  2  0  0  0  0
 14 16  1  0  0  0  0
 16 17  1  0  0  0  0
 18 19  2  0  0  0  0
 18 20  1  0  0  0  0
 20 21  1  0  0  0  0
 20 22  1  0  0  0  0
 22 23  1  0  0  0  0
 22 24  1  0  0  0  0
 22 25  1  0  0  0  0
M  END
$$$$

  -OEChem-02102214113D

 25 24  0     1  0  0  0  0  0999 V2000
   -2.6465   -3.9616    0.4269 H   0  0  0  0  0  0  0  0  0  0  0  0
   -2.7334   -2.9003    0.1778 C   0  0  0  0  0  0  0  0  0  0  0  0
   -3.2769   -2.3938    0.9790 H   0  0  0  0  0  0  0  0  0  0  0  0
   -3.2959   -2.8018   -0.7537 H   0  0  0  0  0  0  0  0  0  0  0  0
   -1.3555   -2.2861    0.0179 C   0  0  0  0  0  0  0  0  0  0  0  0
   -0.3581   -2.9797    0.1432 O   0  0  0  0  0  0  0  0  0  0  0  0
   -1.2322   -0.9404   -0.2606 N   0  0  0  0  0  0  0  0  0  0  0  0
   -2.0834   -0.3791   -0.2323 H   0  0  0  0  0  0  0  0  0  0  0  0
    0.0377   -0.2009   -0.2775 C   0  0  1  0  0  0  0  0  0  0  0  0
    0.7606   -0.7704    0.3164 H   0  0  0  0  0  0  0  0  0  0  0  0
    0.5913   -0.1749   -1.7259 C   0  0  0  0  0  0  0  0  0  0  0  0
    1.6809   -0.1318   -1.6580 H   0  0  0  0  0  0  0  0  0  0  0  0
    0.3396   -1.1200   -2.2175 H   0  0  0  0  0  0  0  0  0  0  0  0
    0.1817    0.9794   -2.6435 C   0  0  0  0  0  0  0  0  0  0  0  0
    0.1244    0.7256   -3.8346 O   0  0  0  0  0  0  0  0  0  0  0  0
    0.1035    2.2378   -2.1577 O   0  0  0  0  0  0  0  0  0  0  0  0
   -0.1231    2.8057   -2.9094 H   0  0  0  0  0  0  0  0  0  0  0  0
   -0.1101    1.1461    0.4676 C   0  0  0  0  0  0  0  0  0  0  0  0
   -1.1967    1.7165    0.4764 O   0  0  0  0  0  0  0  0  0  0  0  0
    0.8632    1.5585    1.3601 N   0  0  0  0  0  0  0  0  0  0  0  0
    1.7295    1.0296    1.3940 H   0  0  0  0  0  0  0  0  0  0  0  0
    0.7213    2.7337    2.2112 C   0  0  0  0  0  0  0  0  0  0  0  0
   -0.1319    2.6169    2.8877 H   0  0  0  0  0  0  0  0  0  0  0  0
    1.6232    2.8752    2.8145 H   0  0  0  0  0  0  0  0  0  0  0  0
    0.5681    3.6308    1.6021 H   0  0  0  0  0  0  0  0  0  0  0  0
  1  2  1  0  0  0  0
  2  3  1  0  0  0  0
  2  4  1  0  0  0  0
  2  5  1  0  0  0  0
  5  6  2  0  0  0  0
  5  7  1  0  0  0  0
  7  8  1  0  0  0  0
  7  9  1  0  0  0  0
  9 10  1  0  0  0  0
  9 11  1  0  0  0  0
  9 18  1  0  0  0  0
 11 12  1  0  0  0  0
 11 13  1  0  0  0  0
 11 14  1  0  0  0  0
 14 15  2  0  0  0  0
 14 16  1  0  0  0  0
 16 17  1  0  0  0  0
 18 19  2  0  0  0  0
 18 20  1  0  0  0  0
 20 21  1  0  0  0  0
 20 22  1  0  0  0  0
 22 23  1  0  0  0  0
 22 24  1  0  0  0  0
 22 25  1  0  0  0  0
M  END
$$$$

  -OEChem-02102214113D

 25 24  0     1  0  0  0  0  0999 V2000
   -2.6686   -3.9607    0.4143 H   0  0  0  0  0  0  0  0  0  0  0  0
   -2.7409   -2.9002    0.1578 C   0  0  0  0  0  0  0  0  0  0  0  0
   -3.3031   -2.3861    0.9410 H   0  0  0  0  0  0  0  0  0  0  0  0
   -3.2756   -2.8020   -0.7899 H   0  0  0  0  0  0  0  0  0  0  0  0
   -1.3549   -2.2964    0.0329 C   0  0  0  0  0  0  0  0  0  0  0  0
   -0.3663   -2.9936    0.2010 O   0  0  0  0  0  0  0  0  0  0  0  0
   -1.2145   -0.9559   -0.2618 N   0  0  0  0  0  0  0  0  0  0  0  0
   -2.0629   -0.3904   -0.2824 H   0  0  0  0  0  0  0  0  0  0  0  0
    0.0624   -0.2285   -0.2688 C   0  0  1  0  0  0  0  0  0  0  0  0
    0.7853   -0.7985    0.3246 H   0  0  0  0  0  0  0  0  0  0  0  0
    0.6007   -0.1877   -1.7204 C   0  0  0  0  0  0  0  0  0  0  0  0
    1.6917   -0.1539   -1.6717 H   0  0  0  0  0  0  0  0  0  0  0  0
    0.3319   -1.1173   -2.2320 H   0  0  0  0  0  0  0  0  0  0  0  0
    0.1714    1.0002   -2.5810 C   0  0  0  0  0  0  0  0  0  0  0  0
   -0.1944    0.7588   -3.7187 O   0  0  0  0  0  0  0  0  0  0  0  0
    0.4279    2.2530   -2.1384 O   0  0  0  0  0  0  0  0  0  0  0  0
    0.1245    2.8523   -2.8370 H   0  0  0  0  0  0  0  0  0  0  0  0
   -0.0931    1.1275    0.4571 C   0  0  0  0  0  0  0  0  0  0  0  0
   -1.1609    1.7289    0.3916 O   0  0  0  0  0  0  0  0  0  0  0  0
    0.8616    1.5516    1.3634 N   0  0  0  0  0  0  0  0  0  0  0  0
    1.7189    1.0118    1.4363 H   0  0  0  0  0  0  0  0  0  0  0  0
    0.7172    2.7584    2.1685 C   0  0  0  0  0  0  0  0  0  0  0  0
   -0.1608    2.6825    2.8186 H   0  0  0  0  0  0  0  0  0  0  0  0
    1.6009    2.9023    2.7975 H   0  0  0  0  0  0  0  0  0  0  0  0
    0.6041    3.6369    1.5244 H   0  0  0  0  0  0  0  0  0  0  0  0
  1  2  1  0  0  0  0
  2  3  1  0  0  0  0
  2  4  1  0  0  0  0
  2  5  1  0  0  0  0
  5  6  2  0  0  0  0
  5  7  1  0  0  0  0
  7  8  1  0  0  0  0
  7  9  1  0  0  0  0
  9 10  1  0  0  0  0
  9 11  1  0  0  0  0
  9 18  1  0  0  0  0
 11 12  1  0  0  0  0
 11 13  1  0  0  0  0
 11 14  1  0  0  0  0
 14 15  2  0  0  0  0
 14 16  1  0  0  0  0
 16 17  1  0  0  0  0
 18 19  2  0  0  0  0
 18 20  1  0  0  0  0
 20 21  1  0  0  0  0
 20 22  1  0  0  0  0
 22 23  1  0  0  0  0
 22 24  1  0  0  0  0
 22 25  1  0  0  0  0
M  END
$$$$

  -OEChem-02102214113D

 25 24  0     1  0  0  0  0  0999 V2000
   -2.6863   -3.9689    0.3911 H   0  0  0  0  0  0  0  0  0  0  0  0
   -2.7484   -2.9119    0.1181 C   0  0  0  0  0  0  0  0  0  0  0  0
   -3.3447   -2.3887    0.8693 H   0  0  0  0  0  0  0  0  0  0  0  0
   -3.2417   -2.8268   -0.8532 H   0  0  0  0  0  0  0  0  0  0  0  0
   -1.3590   -2.3071    0.0467 C   0  0  0  0  0  0  0  0  0  0  0  0
   -0.3775   -3.0006    0.2644 O   0  0  0  0  0  0  0  0  0  0  0  0
   -1.2073   -0.9703   -0.2590 N   0  0  0  0  0  0  0  0  0  0  0  0
   -2.0540   -0.4082   -0.3409 H   0  0  0  0  0  0  0  0  0  0  0  0
    0.0715   -0.2467   -0.2529 C   0  0  1  0  0  0  0  0  0  0  0  0
    0.7901   -0.8159    0.3464 H   0  0  0  0  0  0  0  0  0  0  0  0
    0.6149   -0.1983   -1.6996 C   0  0  0  0  0  0  0  0  0  0  0  0
    1.7062   -0.1652   -1.6542 H   0  0  0  0  0  0  0  0  0  0  0  0
    0.3438   -1.1180   -2.2274 H   0  0  0  0  0  0  0  0  0  0  0  0
    0.1703    1.0095   -2.5197 C   0  0  0  0  0  0  0  0  0  0  0  0
   -0.4617    0.8032   -3.5417 O   0  0  0  0  0  0  0  0  0  0  0  0
    0.6461    2.2282   -2.1699 O   0  0  0  0  0  0  0  0  0  0  0  0
    0.2679    2.8542   -2.8062 H   0  0  0  0  0  0  0  0  0  0  0  0
   -0.0807    1.1190    0.4544 C   0  0  0  0  0  0  0  0  0  0  0  0
   -1.1227    1.7540    0.3288 O   0  0  0  0  0  0  0  0  0  0  0  0
    0.8654    1.5455    1.3681 N   0  0  0  0  0  0  0  0  0  0  0  0
    1.7109    0.9916    1.4672 H   0  0  0  0  0  0  0  0  0  0  0  0
    0.7475    2.7917    2.1149 C   0  0  0  0  0  0  0  0  0  0  0  0
   -0.1629    2.7896    2.7236 H   0  0  0  0  0  0  0  0  0  0  0  0
    1.6069    2.9168    2.7806 H   0  0  0  0  0  0  0  0  0  0  0  0
    0.7119    3.6454    1.4299 H   0  0  0  0  0  0  0  0  0  0  0  0
  1  2  1  0  0  0  0
  2  3  1  0  0  0  0
  2  4  1  0  0  0  0
  2  5  1  0  0  0  0
  5  6  2  0  0  0  0
  5  7  1  0  0  0  0
  7  8  1  0  0  0  0
  7  9  1  0  0  0  0
  9 10  1  0  0  0  0
  9 11  1  0  0  0  0
  9 18  1  0  0  0  0
 11 12  1  0  0  0  0
 11 13  1  0  0  0  0
 11 14  1  0  0  0  0
 14 15  2  0  0  0  0
 14 16  1  0  0  0  0
 16 17  1  0  0  0  0
 18 19  2  0  0  0  0
 18 20  1  0  0  0  0
 20 21  1  0  0  0  0
 20 22  1  0  0  0  0
 22 23  1  0  0  0  0
 22 24  1  0  0  0  0
 22 25  1  0  0  0  0
M  END
$$$$

  -OEChem-02102214113D

 25 24  0     1  0  0  0  0  0999 V2000
   -2.6995   -3.9724    0.3579 H   0  0  0  0  0  0  0  0  0  0  0  0
   -2.7514   -2.9163    0.0790 C   0  0  0  0  0  0  0  0  0  0  0  0
   -3.3838   -2.3917    0.7993 H   0  0  0  0  0  0  0  0  0  0  0  0
   -3.1989   -2.8360   -0.9147 H   0  0  0  0  0  0  0  0  0  0  0  0
   -1.3617   -2.3080    0.0703 C   0  0  0  0  0  0  0  0  0  0  0  0
   -0.3903   -2.9958    0.3440 O   0  0  0  0  0  0  0  0  0  0  0  0
   -1.1988   -0.9765   -0.2504 N   0  0  0  0  0  0  0  0  0  0  0  0
   -2.0410   -0.4230   -0.4046 H   0  0  0  0  0  0  0  0  0  0  0  0
    0.0805   -0.2548   -0.2415 C   0  0  1  0  0  0  0  0  0  0  0  0
    0.7958   -0.8216    0.3639 H   0  0  0  0  0  0  0  0  0  0  0  0
    0.6250   -0.2153   -1.6862 C   0  0  0  0  0  0  0  0  0  0  0  0
    1.7167   -0.1831   -1.6472 H   0  0  0  0  0  0  0  0  0  0  0  0
    0.3498   -1.1316   -2.2173 H   0  0  0  0  0  0  0  0  0  0  0  0
    0.1661    0.9976   -2.4871 C   0  0  0  0  0  0  0  0  0  0  0  0
   -0.6941    0.8373   -3.3364 O   0  0  0  0  0  0  0  0  0  0  0  0
    0.8034    2.1736   -2.2755 O   0  0  0  0  0  0  0  0  0  0  0  0
    0.3596    2.8203   -2.8456 H   0  0  0  0  0  0  0  0  0  0  0  0
   -0.0598    1.1238    0.4434 C   0  0  0  0  0  0  0  0  0  0  0  0
   -1.0776    1.7865    0.2753 O   0  0  0  0  0  0  0  0  0  0  0  0
    0.8854    1.5555    1.3556 N   0  0  0  0  0  0  0  0  0  0  0  0
    1.7071    0.9755    1.4975 H   0  0  0  0  0  0  0  0  0  0  0  0
    0.7794    2.8167    2.0792 C   0  0  0  0  0  0  0  0  0  0  0  0
   -0.1540    2.8538    2.6508 H   0  0  0  0  0  0  0  0  0  0  0  0
    1.6151    2.9241    2.7774 H   0  0  0  0  0  0  0  0  0  0  0  0
    0.7999    3.6605    1.3815 H   0  0  0  0  0  0  0  0  0  0  0  0
  1  2  1  0  0  0  0
  2  3  1  0  0  0  0
  2  4  1  0  0  0  0
  2  5  1  0  0  0  0
  5  6  2  0  0  0  0
  5  7  1  0  0  0  0
  7  8  1  0  0  0  0
  7  9  1  0  0  0  0
  9 10  1  0  0  0  0
  9 11  1  0  0  0  0
  9 18  1  0  0  0  0
 11 12  1  0  0  0  0
 11 13  1  0  0  0  0
 11 14  1  0  0  0  0
 14 15  2  0  0  0  0
 14 16  1  0  0  0  0
 16 17  1  0  0  0  0
 18 19  2  0  0  0  0
 18 20  1  0  0  0  0
 20 21  1  0  0  0  0
 20 22  1  0  0  0  0
 22 23  1  0  0  0  0
 22 24  1  0  0  0  0
 22 25  1  0  0  0  0
M  END
$$$$

  -OEChem-02102214113D

 25 24  0     1  0  0  0  0  0999 V2000
   -2.7088   -3.9796    0.3377 H   0  0  0  0  0  0  0  0  0  0  0  0
   -2.7582   -2.9233    0.0593 C   0  0  0  0  0  0  0  0  0  0  0  0
   -3.4044   -2.4011    0.7691 H   0  0  0  0  0  0  0  0  0  0  0  0
   -3.1883   -2.8426   -0.9420 H   0  0  0  0  0  0  0  0  0  0  0  0
   -1.3700   -2.3117    0.0763 C   0  0  0  0  0  0  0  0  0  0  0  0
   -0.4034   -2.9949    0.3776 O   0  0  0  0  0  0  0  0  0  0  0  0
   -1.2031   -0.9825   -0.2526 N   0  0  0  0  0  0  0  0  0  0  0  0
   -2.0405   -0.4378   -0.4564 H   0  0  0  0  0  0  0  0  0  0  0  0
    0.0750   -0.2592   -0.2371 C   0  0  1  0  0  0  0  0  0  0  0  0
    0.7826   -0.8244    0.3786 H   0  0  0  0  0  0  0  0  0  0  0  0
    0.6386   -0.2264   -1.6731 C   0  0  0  0  0  0  0  0  0  0  0  0
    1.7299   -0.1931   -1.6221 H   0  0  0  0  0  0  0  0  0  0  0  0
    0.3688   -1.1419   -2.2078 H   0  0  0  0  0  0  0  0  0  0  0  0
    0.1785    0.9853   -2.4737 C   0  0  0  0  0  0  0  0  0  0  0  0
   -0.8482    0.8939   -3.1252 O   0  0  0  0  0  0  0  0  0  0  0  0
    0.9441    2.1008   -2.4261 O   0  0  0  0  0  0  0  0  0  0  0  0
    0.4645    2.7694   -2.9394 H   0  0  0  0  0  0  0  0  0  0  0  0
   -0.0540    1.1281    0.4328 C   0  0  0  0  0  0  0  0  0  0  0  0
   -1.0524    1.8117    0.2398 O   0  0  0  0  0  0  0  0  0  0  0  0
    0.8923    1.5590    1.3443 N   0  0  0  0  0  0  0  0  0  0  0  0
    1.6979    0.9628    1.5098 H   0  0  0  0  0  0  0  0  0  0  0  0
    0.8017    2.8335    2.0466 C   0  0  0  0  0  0  0  0  0  0  0  0
   -0.1110    2.8744    2.6506 H   0  0  0  0  0  0  0  0  0  0  0  0
    1.6613    2.9620    2.7113 H   0  0  0  0  0  0  0  0  0  0  0  0
    0.7896    3.6641    1.3329 H   0  0  0  0  0  0  0  0  0  0  0  0
  1  2  1  0  0  0  0
  2  3  1  0  0  0  0
  2  4  1  0  0  0  0
  2  5  1  0  0  0  0
  5  6  2  0  0  0  0
  5  7  1  0  0  0  0
  7  8  1  0  0  0  0
  7  9  1  0  0  0  0
  9 10  1  0  0  0  0
  9 11  1  0  0  0  0
  9 18  1  0  0  0  0
 11 12  1  0  0  0  0
 11 13  1  0  0  0  0
 11 14  1  0  0  0  0
 14 15  2  0  0  0  0
 14 16  1  0  0  0  0
 16 17  1  0  0  0  0
 18 19  2  0  0  0  0
 18 20  1  0  0  0  0
 20 21  1  0  0  0  0
 20 22  1  0  0  0  0
 22 23  1  0  0  0  0
 22 24  1  0  0  0  0
 22 25  1  0  0  0  0
M  END
$$$$

  -OEChem-02102214113D

 25 24  0     1  0  0  0  0  0999 V2000
   -2.7029   -3.9866    0.3269 H   0  0  0  0  0  0  0  0  0  0  0  0
   -2.7554   -2.9308    0.0474 C   0  0  0  0  0  0  0  0  0  0  0  0
   -3.4168   -2.4129    0.7462 H   0  0  0  0  0  0  0  0  0  0  0  0
   -3.1695   -2.8530   -0.9608 H   0  0  0  0  0  0  0  0  0  0  0  0
   -1.3722   -2.3093    0.0867 C   0  0  0  0  0  0  0  0  0  0  0  0
   -0.4056   -2.9845    0.4058 O   0  0  0  0  0  0  0  0  0  0  0  0
   -1.2098   -0.9810   -0.2466 N   0  0  0  0  0  0  0  0  0  0  0  0
   -2.0457   -0.4469   -0.4824 H   0  0  0  0  0  0  0  0  0  0  0  0
    0.0635   -0.2503   -0.2345 C   0  0  1  0  0  0  0  0  0  0  0  0
    0.7691   -0.8114    0.3868 H   0  0  0  0  0  0  0  0  0  0  0  0
    0.6371   -0.2297   -1.6662 C   0  0  0  0  0  0  0  0  0  0  0  0
    1.7279   -0.1895   -1.6060 H   0  0  0  0  0  0  0  0  0  0  0  0
    0.3774   -1.1517   -2.1937 H   0  0  0  0  0  0  0  0  0  0  0  0
    0.1744    0.9689   -2.4851 C   0  0  0  0  0  0  0  0  0  0  0  0
   -0.9664    0.9702   -2.9162 O   0  0  0  0  0  0  0  0  0  0  0  0
    1.0480    1.9862   -2.6658 O   0  0  0  0  0  0  0  0  0  0  0  0
    0.5558    2.6688   -3.1481 H   0  0  0  0  0  0  0  0  0  0  0  0
   -0.0542    1.1419    0.4268 C   0  0  0  0  0  0  0  0  0  0  0  0
   -1.0435    1.8374    0.2341 O   0  0  0  0  0  0  0  0  0  0  0  0
    0.9023    1.5689    1.3296 N   0  0  0  0  0  0  0  0  0  0  0  0
    1.6916    0.9553    1.5100 H   0  0  0  0  0  0  0  0  0  0  0  0
    0.8190    2.8384    2.0417 C   0  0  0  0  0  0  0  0  0  0  0  0
   -0.1023    2.8876    2.6317 H   0  0  0  0  0  0  0  0  0  0  0  0
    1.6695    2.9478    2.7213 H   0  0  0  0  0  0  0  0  0  0  0  0
    0.8304    3.6753    1.3353 H   0  0  0  0  0  0  0  0  0  0  0  0
  1  2  1  0  0  0  0
  2  3  1  0  0  0  0
  2  4  1  0  0  0  0
  2  5  1  0  0  0  0
  5  6  2  0  0  0  0
  5  7  1  0  0  0  0
  7  8  1  0  0  0  0
  7  9  1  0  0  0  0
  9 10  1  0  0  0  0
  9 11  1  0  0  0  0
  9 18  1  0  0  0  0
 11 12  1  0  0  0  0
 11 13  1  0  0  0  0
 11 14  1  0  0  0  0
 14 15  2  0  0  0  0
 14 16  1  0  0  0  0
 16 17  1  0  0  0  0
 18 19  2  0  0  0  0
 18 20  1  0  0  0  0
 20 21  1  0  0  0  0
 20 22  1  0  0  0  0
 22 23  1  0  0  0  0
 22 24  1  0  0  0  0
 22 25  1  0  0  0  0
M  END
$$$$

  -OEChem-02102214113D

 25 24  0     1  0  0  0  0  0999 V2000
   -2.6942   -3.9896    0.3378 H   0  0  0  0  0  0  0  0  0  0  0  0
   -2.7558   -2.9338    0.0599 C   0  0  0  0  0  0  0  0  0  0  0  0
   -3.4091   -2.4201    0.7694 H   0  0  0  0  0  0  0  0  0  0  0  0
   -3.1856   -2.8574   -0.9418 H   0  0  0  0  0  0  0  0  0  0  0  0
   -1.3750   -2.3058    0.0788 C   0  0  0  0  0  0  0  0  0  0  0  0
   -0.4004   -2.9794    0.3765 O   0  0  0  0  0  0  0  0  0  0  0  0
   -1.2229   -0.9749   -0.2495 N   0  0  0  0  0  0  0  0  0  0  0  0
   -2.0645   -0.4418   -0.4680 H   0  0  0  0  0  0  0  0  0  0  0  0
    0.0452   -0.2351   -0.2416 C   0  0  1  0  0  0  0  0  0  0  0  0
    0.7475   -0.7945    0.3852 H   0  0  0  0  0  0  0  0  0  0  0  0
    0.6380   -0.2210   -1.6662 C   0  0  0  0  0  0  0  0  0  0  0  0
    1.7274   -0.1749   -1.5869 H   0  0  0  0  0  0  0  0  0  0  0  0
    0.3924   -1.1512   -2.1861 H   0  0  0  0  0  0  0  0  0  0  0  0
    0.1875    0.9593   -2.5202 C   0  0  0  0  0  0  0  0  0  0  0  0
   -1.0021    1.0973   -2.7489 O   0  0  0  0  0  0  0  0  0  0  0  0
    1.1386    1.8173   -2.9558 O   0  0  0  0  0  0  0  0  0  0  0  0
    0.6615    2.5134   -3.4340 H   0  0  0  0  0  0  0  0  0  0  0  0
   -0.0656    1.1560    0.4240 C   0  0  0  0  0  0  0  0  0  0  0  0
   -1.0673    1.8425    0.2712 O   0  0  0  0  0  0  0  0  0  0  0  0
    0.9016    1.5779    1.3182 N   0  0  0  0  0  0  0  0  0  0  0  0
    1.6926    0.9631    1.4862 H   0  0  0  0  0  0  0  0  0  0  0  0
    0.8136    2.8310    2.0590 C   0  0  0  0  0  0  0  0  0  0  0  0
   -0.0722    2.8340    2.7030 H   0  0  0  0  0  0  0  0  0  0  0  0
    1.6992    2.9622    2.6883 H   0  0  0  0  0  0  0  0  0  0  0  0
    0.7508    3.6800    1.3701 H   0  0  0  0  0  0  0  0  0  0  0  0
  1  2  1  0  0  0  0
  2  3  1  0  0  0  0
  2  4  1  0  0  0  0
  2  5  1  0  0  0  0
  5  6  2  0  0  0  0
  5  7  1  0  0  0  0
  7  8  1  0  0  0  0
  7  9  1  0  0  0  0
  9 10  1  0  0  0  0
  9 11  1  0  0  0  0
  9 18  1  0  0  0  0
 11 12  1  0  0  0  0
 11 13  1  0  0  0  0
 11 14  1  0  0  0  0
 14 15  2  0  0  0  0
 14 16  1  0  0  0  0
 16 17  1  0  0  0  0
 18 19  2  0  0  0  0
 18 20  1  0  0  0  0
 20 21  1  0  0  0  0
 20 22  1  0  0  0  0
 22 23  1  0  0  0  0
 22 24  1  0  0  0  0
 22 25  1  0  0  0  0
M  END
$$$$

  -OEChem-02102214113D

 25 24  0     1  0  0  0  0  0999 V2000
   -2.6767   -3.9838    0.3575 H   0  0  0  0  0  0  0  0  0  0  0  0
   -2.7504   -2.9267    0.0869 C   0  0  0  0  0  0  0  0  0  0  0  0
   -3.3803   -2.4180    0.8207 H   0  0  0  0  0  0  0  0  0  0  0  0
   -3.2147   -2.8464   -0.8991 H   0  0  0  0  0  0  0  0  0  0  0  0
   -1.3711   -2.2954    0.0618 C   0  0  0  0  0  0  0  0  0  0  0  0
   -0.3847   -2.9696    0.3157 O   0  0  0  0  0  0  0  0  0  0  0  0
   -1.2344   -0.9603   -0.2559 N   0  0  0  0  0  0  0  0  0  0  0  0
   -2.0858   -0.4236   -0.4209 H   0  0  0  0  0  0  0  0  0  0  0  0
    0.0270   -0.2093   -0.2571 C   0  0  1  0  0  0  0  0  0  0  0  0
    0.7291   -0.7664    0.3719 H   0  0  0  0  0  0  0  0  0  0  0  0
    0.6354   -0.2045   -1.6766 C   0  0  0  0  0  0  0  0  0  0  0  0
    1.7228   -0.1485   -1.5786 H   0  0  0  0  0  0  0  0  0  0  0  0
    0.4078   -1.1468   -2.1820 H   0  0  0  0  0  0  0  0  0  0  0  0
    0.2012    0.9495   -2.5765 C   0  0  0  0  0  0  0  0  0  0  0  0
   -0.9759    1.2597   -2.6283 O   0  0  0  0  0  0  0  0  0  0  0  0
    1.1715    1.5894   -3.2690 O   0  0  0  0  0  0  0  0  0  0  0  0
    0.7201    2.2940   -3.7595 H   0  0  0  0  0  0  0  0  0  0  0  0
   -0.0825    1.1758    0.4219 C   0  0  0  0  0  0  0  0  0  0  0  0
   -1.1120    1.8325    0.3404 O   0  0  0  0  0  0  0  0  0  0  0  0
    0.8983    1.5913    1.3049 N   0  0  0  0  0  0  0  0  0  0  0  0
    1.7041    0.9870    1.4362 H   0  0  0  0  0  0  0  0  0  0  0  0
    0.7955    2.8095    2.1002 C   0  0  0  0  0  0  0  0  0  0  0  0
   -0.0603    2.7517    2.7811 H   0  0  0  0  0  0  0  0  0  0  0  0
    1.7025    2.9506    2.6959 H   0  0  0  0  0  0  0  0  0  0  0  0
    0.6700    3.6821    1.4505 H   0  0  0  0  0  0  0  0  0  0  0  0
  1  2  1  0  0  0  0
  2  3  1  0  0  0  0
  2  4  1  0  0  0  0
  2  5  1  0  0  0  0
  5  6  2  0  0  0  0
  5  7  1  0  0  0  0
  7  8  1  0  0  0  0
  7  9  1  0  0  0  0
  9 10  1  0  0  0  0
  9 11  1  0  0  0  0
  9 18  1  0  0  0  0
 11 12  1  0  0  0  0
 11 13  1  0  0  0  0
 11 14  1  0  0  0  0
 14 15  2  0  0  0  0
 14 16  1  0  0  0  0
 16 17  1  0  0  0  0
 18 19  2  0  0  0  0
 18 20  1  0  0  0  0
 20 21  1  0  0  0  0
 20 22  1  0  0  0  0
 22 23  1  0  0  0  0
 22 24  1  0  0  0  0
 22 25  1  0  0  0  0
M  END
$$$$

  -OEChem-02102214113D

 25 24  0     1  0  0  0  0  0999 V2000
   -2.6595   -3.9681    0.3801 H   0  0  0  0  0  0  0  0  0  0  0  0
   -2.7431   -2.9085    0.1235 C   0  0  0  0  0  0  0  0  0  0  0  0
   -3.3366   -2.4053    0.8906 H   0  0  0  0  0  0  0  0  0  0  0  0
   -3.2524   -2.8177   -0.8389 H   0  0  0  0  0  0  0  0  0  0  0  0
   -1.3653   -2.2798    0.0406 C   0  0  0  0  0  0  0  0  0  0  0  0
   -0.3692   -2.9572    0.2431 O   0  0  0  0  0  0  0  0  0  0  0  0
   -1.2415   -0.9411   -0.2664 N   0  0  0  0  0  0  0  0  0  0  0  0
   -2.0994   -0.3980   -0.3629 H   0  0  0  0  0  0  0  0  0  0  0  0
    0.0159   -0.1835   -0.2789 C   0  0  1  0  0  0  0  0  0  0  0  0
    0.7200   -0.7393    0.3493 H   0  0  0  0  0  0  0  0  0  0  0  0
    0.6314   -0.1869   -1.6974 C   0  0  0  0  0  0  0  0  0  0  0  0
    1.7173   -0.1240   -1.5886 H   0  0  0  0  0  0  0  0  0  0  0  0
    0.4145   -1.1398   -2.1875 H   0  0  0  0  0  0  0  0  0  0  0  0
    0.2161    0.9428   -2.6382 C   0  0  0  0  0  0  0  0  0  0  0  0
   -0.8857    1.4512   -2.5422 O   0  0  0  0  0  0  0  0  0  0  0  0
    1.1339    1.3305   -3.5534 O   0  0  0  0  0  0  0  0  0  0  0  0
    0.7160    2.0473   -4.0555 H   0  0  0  0  0  0  0  0  0  0  0  0
   -0.0973    1.1936    0.4166 C   0  0  0  0  0  0  0  0  0  0  0  0
   -1.1569    1.8070    0.4129 O   0  0  0  0  0  0  0  0  0  0  0  0
    0.8940    1.6052    1.2902 N   0  0  0  0  0  0  0  0  0  0  0  0
    1.7173    1.0176    1.3824 H   0  0  0  0  0  0  0  0  0  0  0  0
    0.7680    2.7781    2.1479 C   0  0  0  0  0  0  0  0  0  0  0  0
   -0.0452    2.6401    2.8682 H   0  0  0  0  0  0  0  0  0  0  0  0
    1.6971    2.9443    2.7015 H   0  0  0  0  0  0  0  0  0  0  0  0
    0.5599    3.6707    1.5486 H   0  0  0  0  0  0  0  0  0  0  0  0
  1  2  1  0  0  0  0
  2  3  1  0  0  0  0
  2  4  1  0  0  0  0
  2  5  1  0  0  0  0
  5  6  2  0  0  0  0
  5  7  1  0  0  0  0
  7  8  1  0  0  0  0
  7  9  1  0  0  0  0
  9 10  1  0  0  0  0
  9 11  1  0  0  0  0
  9 18  1  0  0  0  0
 11 12  1  0  0  0  0
 11 13  1  0  0  0  0
 11 14  1  0  0  0  0
 14 15  2  0  0  0  0
 14 16  1  0  0  0  0
 16 17  1  0  0  0  0
 18 19  2  0  0  0  0
 18 20  1  0  0  0  0
 20 21  1  0  0  0  0
 20 22  1  0  0  0  0
 22 23  1  0  0  0  0
 22 24  1  0  0  0  0
 22 25  1  0  0  0  0
M  END
$$$$

  -OEChem-02102214113D

 25 24  0     1  0  0  0  0  0999 V2000
   -2.6414   -3.9598    0.4039 H   0  0  0  0  0  0  0  0  0  0  0  0
   -2.7354   -2.9002    0.1502 C   0  0  0  0  0  0  0  0  0  0  0  0
   -3.3012   -2.3980    0.9387 H   0  0  0  0  0  0  0  0  0  0  0  0
   -3.2796   -2.8102   -0.7930 H   0  0  0  0  0  0  0  0  0  0  0  0
   -1.3619   -2.2699    0.0174 C   0  0  0  0  0  0  0  0  0  0  0  0
   -0.3588   -2.9502    0.1699 O   0  0  0  0  0  0  0  0  0  0  0  0
   -1.2498   -0.9266   -0.2747 N   0  0  0  0  0  0  0  0  0  0  0  0
   -2.1101   -0.3794   -0.3062 H   0  0  0  0  0  0  0  0  0  0  0  0
    0.0058   -0.1657   -0.2940 C   0  0  1  0  0  0  0  0  0  0  0  0
    0.7129   -0.7238    0.3288 H   0  0  0  0  0  0  0  0  0  0  0  0
    0.6205   -0.1697   -1.7147 C   0  0  0  0  0  0  0  0  0  0  0  0
    1.7062   -0.1073   -1.6042 H   0  0  0  0  0  0  0  0  0  0  0  0
    0.4042   -1.1274   -2.1956 H   0  0  0  0  0  0  0  0  0  0  0  0
    0.2213    0.9447   -2.6819 C   0  0  0  0  0  0  0  0  0  0  0  0
   -0.7447    1.6517   -2.4661 O   0  0  0  0  0  0  0  0  0  0  0  0
    1.0108    1.0867   -3.7711 O   0  0  0  0  0  0  0  0  0  0  0  0
    0.6308    1.8217   -4.2770 H   0  0  0  0  0  0  0  0  0  0  0  0
   -0.1114    1.2007    0.4227 C   0  0  0  0  0  0  0  0  0  0  0  0
   -1.1901    1.7789    0.4756 O   0  0  0  0  0  0  0  0  0  0  0  0
    0.8862    1.6076    1.2917 N   0  0  0  0  0  0  0  0  0  0  0  0
    1.7281    1.0420    1.3444 H   0  0  0  0  0  0  0  0  0  0  0  0
    0.7554    2.7585    2.1785 C   0  0  0  0  0  0  0  0  0  0  0  0
   -0.0520    2.5961    2.9004 H   0  0  0  0  0  0  0  0  0  0  0  0
    1.6864    2.9196    2.7304 H   0  0  0  0  0  0  0  0  0  0  0  0
    0.5352    3.6634    1.6020 H   0  0  0  0  0  0  0  0  0  0  0  0
  1  2  1  0  0  0  0
  2  3  1  0  0  0  0
  2  4  1  0  0  0  0
  2  5  1  0  0  0  0
  5  6  2  0  0  0  0
  5  7  1  0  0  0  0
  7  8  1  0  0  0  0
  7  9  1  0  0  0  0
  9 10  1  0  0  0  0
  9 11  1  0  0  0  0
  9 18  1  0  0  0  0
 11 12  1  0  0  0  0
 11 13  1  0  0  0  0
 11 14  1  0  0  0  0
 14 15  2  0  0  0  0
 14 16  1  0  0  0  0
 16 17  1  0  0  0  0
 18 19  2  0  0  0  0
 18 20  1  0  0  0  0
 20 21  1  0  0  0  0
 20 22  1  0  0  0  0
 22 23  1  0  0  0  0
 22 24  1  0  0  0  0
 22 25  1  0  0  0  0
M  END
$$$$

  -OEChem-02102214113D

 25 24  0     1  0  0  0  0  0999 V2000
   -2.6331   -3.9526    0.4158 H   0  0  0  0  0  0  0  0  0  0  0  0
   -2.7322   -2.8924    0.1669 C   0  0  0  0  0  0  0  0  0  0  0  0
   -3.2800   -2.3918    0.9690 H   0  0  0  0  0  0  0  0  0  0  0  0
   -3.2972   -2.7998   -0.7638 H   0  0  0  0  0  0  0  0  0  0  0  0
   -1.3616   -2.2627    0.0046 C   0  0  0  0  0  0  0  0  0  0  0  0
   -0.3563   -2.9463    0.1239 O   0  0  0  0  0  0  0  0  0  0  0  0
   -1.2544   -0.9167   -0.2775 N   0  0  0  0  0  0  0  0  0  0  0  0
   -2.1130   -0.3663   -0.2617 H   0  0  0  0  0  0  0  0  0  0  0  0
    0.0022   -0.1566   -0.3022 C   0  0  1  0  0  0  0  0  0  0  0  0
    0.7131   -0.7174    0.3138 H   0  0  0  0  0  0  0  0  0  0  0  0
    0.6101   -0.1600   -1.7278 C   0  0  0  0  0  0  0  0  0  0  0  0
    1.6962   -0.1026   -1.6220 H   0  0  0  0  0  0  0  0  0  0  0  0
    0.3882   -1.1200   -2.2022 H   0  0  0  0  0  0  0  0  0  0  0  0
    0.2211    0.9472   -2.7088 C   0  0  0  0  0  0  0  0  0  0  0  0
   -0.5544    1.8315   -2.4009 O   0  0  0  0  0  0  0  0  0  0  0  0
    0.8102    0.8759   -3.9243 O   0  0  0  0  0  0  0  0  0  0  0  0
    0.4677    1.6311   -4.4270 H   0  0  0  0  0  0  0  0  0  0  0  0
   -0.1193    1.2014    0.4301 C   0  0  0  0  0  0  0  0  0  0  0  0
   -1.2080    1.7592    0.5089 O   0  0  0  0  0  0  0  0  0  0  0  0
    0.8811    1.6047    1.2974 N   0  0  0  0  0  0  0  0  0  0  0  0
    1.7361    1.0572    1.3211 H   0  0  0  0  0  0  0  0  0  0  0  0
    0.7505    2.7455    2.1967 C   0  0  0  0  0  0  0  0  0  0  0  0
   -0.0604    2.5780    2.9135 H   0  0  0  0  0  0  0  0  0  0  0  0
    1.6795    2.8963    2.7547 H   0  0  0  0  0  0  0  0  0  0  0  0
    0.5363    3.6576    1.6295 H   0  0  0  0  0  0  0  0  0  0  0  0
  1  2  1  0  0  0  0
  2  3  1  0  0  0  0
  2  4  1  0  0  0  0
  2  5  1  0  0  0  0
  5  6  2  0  0  0  0
  5  7  1  0  0  0  0
  7  8  1  0  0  0  0
  7  9  1  0  0  0  0
  9 10  1  0  0  0  0
  9 11  1  0  0  0  0
  9 18  1  0  0  0  0
 11 12  1  0  0  0  0
 11 13  1  0  0  0  0
 11 14  1  0  0  0  0
 14 15  2  0  0  0  0
 14 16  1  0  0  0  0
 16 17  1  0  0  0  0
 18 19  2  0  0  0  0
 18 20  1  0  0  0  0
 20 21  1  0  0  0  0
 20 22  1  0  0  0  0
 22 23  1  0  0  0  0
 22 24  1  0  0  0  0
 22 25  1  0  0  0  0
M  END
$$$$

  -OEChem-02102214113D

 25 24  0     1  0  0  0  0  0999 V2000
   -2.6414   -3.9450    0.4179 H   0  0  0  0  0  0  0  0  0  0  0  0
   -2.7361   -2.8829    0.1753 C   0  0  0  0  0  0  0  0  0  0  0  0
   -3.2680   -2.3823    0.9880 H   0  0  0  0  0  0  0  0  0  0  0  0
   -3.3146   -2.7815   -0.7460 H   0  0  0  0  0  0  0  0  0  0  0  0
   -1.3635   -2.2627   -0.0051 C   0  0  0  0  0  0  0  0  0  0  0  0
   -0.3616   -2.9537    0.0978 O   0  0  0  0  0  0  0  0  0  0  0  0
   -1.2506   -0.9160   -0.2818 N   0  0  0  0  0  0  0  0  0  0  0  0
   -2.1042   -0.3590   -0.2404 H   0  0  0  0  0  0  0  0  0  0  0  0
    0.0116   -0.1643   -0.3040 C   0  0  1  0  0  0  0  0  0  0  0  0
    0.7238   -0.7298    0.3062 H   0  0  0  0  0  0  0  0  0  0  0  0
    0.6077   -0.1620   -1.7360 C   0  0  0  0  0  0  0  0  0  0  0  0
    1.6952   -0.1172   -1.6408 H   0  0  0  0  0  0  0  0  0  0  0  0
    0.3721   -1.1183   -2.2119 H   0  0  0  0  0  0  0  0  0  0  0  0
    0.2255    0.9530   -2.7117 C   0  0  0  0  0  0  0  0  0  0  0  0
   -0.3103    1.9774   -2.3356 O   0  0  0  0  0  0  0  0  0  0  0  0
    0.5465    0.7243   -4.0056 O   0  0  0  0  0  0  0  0  0  0  0  0
    0.2446    1.5062   -4.4931 H   0  0  0  0  0  0  0  0  0  0  0  0
   -0.1177    1.1874    0.4382 C   0  0  0  0  0  0  0  0  0  0  0  0
   -1.2115    1.7371    0.5113 O   0  0  0  0  0  0  0  0  0  0  0  0
    0.8748    1.5913    1.3141 N   0  0  0  0  0  0  0  0  0  0  0  0
    1.7423    1.0637    1.3235 H   0  0  0  0  0  0  0  0  0  0  0  0
    0.7414    2.7431    2.1988 C   0  0  0  0  0  0  0  0  0  0  0  0
   -0.0704    2.5833    2.9162 H   0  0  0  0  0  0  0  0  0  0  0  0
    1.6694    2.9023    2.7562 H   0  0  0  0  0  0  0  0  0  0  0  0
    0.5269    3.6478    1.6200 H   0  0  0  0  0  0  0  0  0  0  0  0
  1  2  1  0  0  0  0
  2  3  1  0  0  0  0
  2  4  1  0  0  0  0
  2  5  1  0  0  0  0
  5  6  2  0  0  0  0
  5  7  1  0  0  0  0
  7  8  1  0  0  0  0
  7  9  1  0  0  0  0
  9 10  1  0  0  0  0
  9 11  1  0  0  0  0
  9 18  1  0  0  0  0
 11 12  1  0  0  0  0
 11 13  1  0  0  0  0
 11 14  1  0  0  0  0
 14 15  2  0  0  0  0
 14 16  1  0  0  0  0
 16 17  1  0  0  0  0
 18 19  2  0  0  0  0
 18 20  1  0  0  0  0
 20 21  1  0  0  0  0
 20 22  1  0  0  0  0
 22 23  1  0  0  0  0
 22 24  1  0  0  0  0
 22 25  1  0  0  0  0
M  END
$$$$

  -OEChem-02102214113D

 25 24  0     1  0  0  0  0  0999 V2000
   -2.6521   -3.9338    0.4370 H   0  0  0  0  0  0  0  0  0  0  0  0
   -2.7391   -2.8751    0.1774 C   0  0  0  0  0  0  0  0  0  0  0  0
   -3.2752   -2.3591    0.9777 H   0  0  0  0  0  0  0  0  0  0  0  0
   -3.3085   -2.7848   -0.7508 H   0  0  0  0  0  0  0  0  0  0  0  0
   -1.3616   -2.2652   -0.0001 C   0  0  0  0  0  0  0  0  0  0  0  0
   -0.3649   -2.9624    0.1110 O   0  0  0  0  0  0  0  0  0  0  0  0
   -1.2379   -0.9204   -0.2819 N   0  0  0  0  0  0  0  0  0  0  0  0
   -2.0867   -0.3561   -0.2396 H   0  0  0  0  0  0  0  0  0  0  0  0
    0.0315   -0.1802   -0.3009 C   0  0  1  0  0  0  0  0  0  0  0  0
    0.7454   -0.7475    0.3057 H   0  0  0  0  0  0  0  0  0  0  0  0
    0.6095   -0.1749   -1.7409 C   0  0  0  0  0  0  0  0  0  0  0  0
    1.6986   -0.1420   -1.6615 H   0  0  0  0  0  0  0  0  0  0  0  0
    0.3584   -1.1256   -2.2203 H   0  0  0  0  0  0  0  0  0  0  0  0
    0.2236    0.9553   -2.6981 C   0  0  0  0  0  0  0  0  0  0  0  0
   -0.0387    2.0699   -2.2875 O   0  0  0  0  0  0  0  0  0  0  0  0
    0.2147    0.6348   -4.0126 O   0  0  0  0  0  0  0  0  0  0  0  0
   -0.0510    1.4425   -4.4786 H   0  0  0  0  0  0  0  0  0  0  0  0
   -0.1073    1.1715    0.4390 C   0  0  0  0  0  0  0  0  0  0  0  0
   -1.2004    1.7268    0.4821 O   0  0  0  0  0  0  0  0  0  0  0  0
    0.8736    1.5797    1.3255 N   0  0  0  0  0  0  0  0  0  0  0  0
    1.7468    1.0616    1.3373 H   0  0  0  0  0  0  0  0  0  0  0  0
    0.7349    2.7473    2.1880 C   0  0  0  0  0  0  0  0  0  0  0  0
   -0.1206    2.6276    2.8612 H   0  0  0  0  0  0  0  0  0  0  0  0
    1.6356    2.8790    2.7951 H   0  0  0  0  0  0  0  0  0  0  0  0
    0.5867    3.6510    1.5874 H   0  0  0  0  0  0  0  0  0  0  0  0
  1  2  1  0  0  0  0
  2  3  1  0  0  0  0
  2  4  1  0  0  0  0
  2  5  1  0  0  0  0
  5  6  2  0  0  0  0
  5  7  1  0  0  0  0
  7  8  1  0  0  0  0
  7  9  1  0  0  0  0
  9 10  1  0  0  0  0
  9 11  1  0  0  0  0
  9 18  1  0  0  0  0
 11 12  1  0  0  0  0
 11 13  1  0  0  0  0
 11 14  1  0  0  0  0
 14 15  2  0  0  0  0
 14 16  1  0  0  0  0
 16 17  1  0  0  0  0
 18 19  2  0  0  0  0
 18 20  1  0  0  0  0
 20 21  1  0  0  0  0
 20 22  1  0  0  0  0
 22 23  1  0  0  0  0
 22 24  1  0  0  0  0
 22 25  1  0  0  0  0
M  END
$$$$

  -OEChem-02102214113D

 25 24  0     1  0  0  0  0  0999 V2000
   -2.6730   -3.9385    0.4314 H   0  0  0  0  0  0  0  0  0  0  0  0
   -2.7478   -2.8798    0.1681 C   0  0  0  0  0  0  0  0  0  0  0  0
   -3.2920   -2.3580    0.9590 H   0  0  0  0  0  0  0  0  0  0  0  0
   -3.3026   -2.7875   -0.7688 H   0  0  0  0  0  0  0  0  0  0  0  0
   -1.3629   -2.2807    0.0106 C   0  0  0  0  0  0  0  0  0  0  0  0
   -0.3734   -2.9843    0.1438 O   0  0  0  0  0  0  0  0  0  0  0  0
   -1.2244   -0.9393   -0.2808 N   0  0  0  0  0  0  0  0  0  0  0  0
   -2.0693   -0.3682   -0.2580 H   0  0  0  0  0  0  0  0  0  0  0  0
    0.0524   -0.2115   -0.2897 C   0  0  1  0  0  0  0  0  0  0  0  0
    0.7654   -0.7808    0.3164 H   0  0  0  0  0  0  0  0  0  0  0  0
    0.6180   -0.1953   -1.7333 C   0  0  0  0  0  0  0  0  0  0  0  0
    1.7083   -0.1739   -1.6667 H   0  0  0  0  0  0  0  0  0  0  0  0
    0.3519   -1.1346   -2.2267 H   0  0  0  0  0  0  0  0  0  0  0  0
    0.2237    0.9616   -2.6526 C   0  0  0  0  0  0  0  0  0  0  0  0
    0.2454    2.1087   -2.2451 O   0  0  0  0  0  0  0  0  0  0  0  0
   -0.1325    0.6329   -3.9158 O   0  0  0  0  0  0  0  0  0  0  0  0
   -0.3638    1.4686   -4.3496 H   0  0  0  0  0  0  0  0  0  0  0  0
   -0.0963    1.1442    0.4398 C   0  0  0  0  0  0  0  0  0  0  0  0
   -1.1813    1.7171    0.4299 O   0  0  0  0  0  0  0  0  0  0  0  0
    0.8667    1.5609    1.3412 N   0  0  0  0  0  0  0  0  0  0  0  0
    1.7451    1.0520    1.3629 H   0  0  0  0  0  0  0  0  0  0  0  0
    0.7338    2.7699    2.1450 C   0  0  0  0  0  0  0  0  0  0  0  0
   -0.1405    2.7004    2.8008 H   0  0  0  0  0  0  0  0  0  0  0  0
    1.6223    2.9106    2.7681 H   0  0  0  0  0  0  0  0  0  0  0  0
    0.6207    3.6471    1.4991 H   0  0  0  0  0  0  0  0  0  0  0  0
  1  2  1  0  0  0  0
  2  3  1  0  0  0  0
  2  4  1  0  0  0  0
  2  5  1  0  0  0  0
  5  6  2  0  0  0  0
  5  7  1  0  0  0  0
  7  8  1  0  0  0  0
  7  9  1  0  0  0  0
  9 10  1  0  0  0  0
  9 11  1  0  0  0  0
  9 18  1  0  0  0  0
 11 12  1  0  0  0  0
 11 13  1  0  0  0  0
 11 14  1  0  0  0  0
 14 15  2  0  0  0  0
 14 16  1  0  0  0  0
 16 17  1  0  0  0  0
 18 19  2  0  0  0  0
 18 20  1  0  0  0  0
 20 21  1  0  0  0  0
 20 22  1  0  0  0  0
 22 23  1  0  0  0  0
 22 24  1  0  0  0  0
 22 25  1  0  0  0  0
M  END
$$$$

  -OEChem-02102214113D

 25 24  0     1  0  0  0  0  0999 V2000
   -2.6913   -3.9395    0.4427 H   0  0  0  0  0  0  0  0  0  0  0  0
   -2.7518   -2.8847    0.1610 C   0  0  0  0  0  0  0  0  0  0  0  0
   -3.3121   -2.3466    0.9293 H   0  0  0  0  0  0  0  0  0  0  0  0
   -3.2814   -2.8033   -0.7912 H   0  0  0  0  0  0  0  0  0  0  0  0
   -1.3596   -2.2970    0.0289 C   0  0  0  0  0  0  0  0  0  0  0  0
   -0.3778   -3.0033    0.1991 O   0  0  0  0  0  0  0  0  0  0  0  0
   -1.2067   -0.9615   -0.2806 N   0  0  0  0  0  0  0  0  0  0  0  0
   -2.0493   -0.3872   -0.2994 H   0  0  0  0  0  0  0  0  0  0  0  0
    0.0752   -0.2434   -0.2831 C   0  0  1  0  0  0  0  0  0  0  0  0
    0.7885   -0.8108    0.3241 H   0  0  0  0  0  0  0  0  0  0  0  0
    0.6285   -0.2186   -1.7285 C   0  0  0  0  0  0  0  0  0  0  0  0
    1.7199   -0.2023   -1.6760 H   0  0  0  0  0  0  0  0  0  0  0  0
    0.3511   -1.1457   -2.2387 H   0  0  0  0  0  0  0  0  0  0  0  0
    0.2153    0.9652   -2.6000 C   0  0  0  0  0  0  0  0  0  0  0  0
    0.5075    2.0960   -2.2511 O   0  0  0  0  0  0  0  0  0  0  0  0
   -0.4748    0.6902   -3.7308 O   0  0  0  0  0  0  0  0  0  0  0  0
   -0.6746    1.5499   -4.1318 H   0  0  0  0  0  0  0  0  0  0  0  0
   -0.0811    1.1223    0.4251 C   0  0  0  0  0  0  0  0  0  0  0  0
   -1.1519    1.7172    0.3532 O   0  0  0  0  0  0  0  0  0  0  0  0
    0.8651    1.5534    1.3371 N   0  0  0  0  0  0  0  0  0  0  0  0
    1.7379    1.0371    1.3924 H   0  0  0  0  0  0  0  0  0  0  0  0
    0.7287    2.7892    2.0986 C   0  0  0  0  0  0  0  0  0  0  0  0
   -0.1770    2.7626    2.7136 H   0  0  0  0  0  0  0  0  0  0  0  0
    1.5901    2.9243    2.7597 H   0  0  0  0  0  0  0  0  0  0  0  0
    0.6710    3.6496    1.4235 H   0  0  0  0  0  0  0  0  0  0  0  0
  1  2  1  0  0  0  0
  2  3  1  0  0  0  0
  2  4  1  0  0  0  0
  2  5  1  0  0  0  0
  5  6  2  0  0  0  0
  5  7  1  0  0  0  0
  7  8  1  0  0  0  0
  7  9  1  0  0  0  0
  9 10  1  0  0  0  0
  9 11  1  0  0  0  0
  9 18  1  0  0  0  0
 11 12  1  0  0  0  0
 11 13  1  0  0  0  0
 11 14  1  0  0  0  0
 14 15  2  0  0  0  0
 14 16  1  0  0  0  0
 16 17  1  0  0  0  0
 18 19  2  0  0  0  0
 18 20  1  0  0  0  0
 20 21  1  0  0  0  0
 20 22  1  0  0  0  0
 22 23  1  0  0  0  0
 22 24  1  0  0  0  0
 22 25  1  0  0  0  0
M  END
$$$$

  -OEChem-02102214113D

 25 24  0     1  0  0  0  0  0999 V2000
   -2.7001   -3.9586    0.4321 H   0  0  0  0  0  0  0  0  0  0  0  0
   -2.7550   -2.9050    0.1445 C   0  0  0  0  0  0  0  0  0  0  0  0
   -3.3354   -2.3642    0.8961 H   0  0  0  0  0  0  0  0  0  0  0  0
   -3.2607   -2.8286   -0.8211 H   0  0  0  0  0  0  0  0  0  0  0  0
   -1.3606   -2.3163    0.0457 C   0  0  0  0  0  0  0  0  0  0  0  0
   -0.3835   -3.0177    0.2577 O   0  0  0  0  0  0  0  0  0  0  0  0
   -1.2002   -0.9852   -0.2780 N   0  0  0  0  0  0  0  0  0  0  0  0
   -2.0429   -0.4157   -0.3513 H   0  0  0  0  0  0  0  0  0  0  0  0
    0.0819   -0.2676   -0.2728 C   0  0  1  0  0  0  0  0  0  0  0  0
    0.7951   -0.8317    0.3378 H   0  0  0  0  0  0  0  0  0  0  0  0
    0.6345   -0.2309   -1.7156 C   0  0  0  0  0  0  0  0  0  0  0  0
    1.7265   -0.2125   -1.6690 H   0  0  0  0  0  0  0  0  0  0  0  0
    0.3533   -1.1463   -2.2439 H   0  0  0  0  0  0  0  0  0  0  0  0
    0.1982    0.9748   -2.5412 C   0  0  0  0  0  0  0  0  0  0  0  0
    0.7153    2.0556   -2.3119 O   0  0  0  0  0  0  0  0  0  0  0  0
   -0.7590    0.7854   -3.4789 O   0  0  0  0  0  0  0  0  0  0  0  0
   -0.9311    1.6608   -3.8583 H   0  0  0  0  0  0  0  0  0  0  0  0
   -0.0754    1.1082    0.4148 C   0  0  0  0  0  0  0  0  0  0  0  0
   -1.1239    1.7311    0.2826 O   0  0  0  0  0  0  0  0  0  0  0  0
    0.8613    1.5486    1.3316 N   0  0  0  0  0  0  0  0  0  0  0  0
    1.7184    1.0121    1.4263 H   0  0  0  0  0  0  0  0  0  0  0  0
    0.7391    2.8121    2.0484 C   0  0  0  0  0  0  0  0  0  0  0  0
   -0.1739    2.8242    2.6531 H   0  0  0  0  0  0  0  0  0  0  0  0
    1.5953    2.9537    2.7149 H   0  0  0  0  0  0  0  0  0  0  0  0
    0.7062    3.6497    1.3435 H   0  0  0  0  0  0  0  0  0  0  0  0
  1  2  1  0  0  0  0
  2  3  1  0  0  0  0
  2  4  1  0  0  0  0
  2  5  1  0  0  0  0
  5  6  2  0  0  0  0
  5  7  1  0  0  0  0
  7  8  1  0  0  0  0
  7  9  1  0  0  0  0
  9 10  1  0  0  0  0
  9 11  1  0  0  0  0
  9 18  1  0  0  0  0
 11 12  1  0  0  0  0
 11 13  1  0  0  0  0
 11 14  1  0  0  0  0
 14 15  2  0  0  0  0
 14 16  1  0  0  0  0
 16 17  1  0  0  0  0
 18 19  2  0  0  0  0
 18 20  1  0  0  0  0
 20 21  1  0  0  0  0
 20 22  1  0  0  0  0
 22 23  1  0  0  0  0
 22 24  1  0  0  0  0
 22 25  1  0  0  0  0
M  END
$$$$

  -OEChem-02102214113D

 25 24  0     1  0  0  0  0  0999 V2000
   -2.7013   -3.9836    0.4030 H   0  0  0  0  0  0  0  0  0  0  0  0
   -2.7550   -2.9303    0.1138 C   0  0  0  0  0  0  0  0  0  0  0  0
   -3.3673   -2.3950    0.8435 H   0  0  0  0  0  0  0  0  0  0  0  0
   -3.2258   -2.8581   -0.8695 H   0  0  0  0  0  0  0  0  0  0  0  0
   -1.3631   -2.3291    0.0661 C   0  0  0  0  0  0  0  0  0  0  0  0
   -0.3885   -3.0195    0.3214 O   0  0  0  0  0  0  0  0  0  0  0  0
   -1.2022   -0.9999   -0.2654 N   0  0  0  0  0  0  0  0  0  0  0  0
   -2.0453   -0.4430   -0.4013 H   0  0  0  0  0  0  0  0  0  0  0  0
    0.0763   -0.2769   -0.2583 C   0  0  1  0  0  0  0  0  0  0  0  0
    0.7908   -0.8379    0.3534 H   0  0  0  0  0  0  0  0  0  0  0  0
    0.6305   -0.2333   -1.6983 C   0  0  0  0  0  0  0  0  0  0  0  0
    1.7229   -0.2103   -1.6543 H   0  0  0  0  0  0  0  0  0  0  0  0
    0.3496   -1.1423   -2.2376 H   0  0  0  0  0  0  0  0  0  0  0  0
    0.1703    0.9830   -2.4925 C   0  0  0  0  0  0  0  0  0  0  0  0
    0.8536    1.9926   -2.4473 O   0  0  0  0  0  0  0  0  0  0  0  0
   -0.9827    0.8849   -3.1943 O   0  0  0  0  0  0  0  0  0  0  0  0
   -1.1359    1.7643   -3.5724 H   0  0  0  0  0  0  0  0  0  0  0  0
   -0.0730    1.1064    0.4158 C   0  0  0  0  0  0  0  0  0  0  0  0
   -1.0997    1.7553    0.2472 O   0  0  0  0  0  0  0  0  0  0  0  0
    0.8658    1.5496    1.3288 N   0  0  0  0  0  0  0  0  0  0  0  0
    1.7054    0.9914    1.4529 H   0  0  0  0  0  0  0  0  0  0  0  0
    0.7656    2.8334    2.0126 C   0  0  0  0  0  0  0  0  0  0  0  0
   -0.1537    2.8805    2.6058 H   0  0  0  0  0  0  0  0  0  0  0  0
    1.6176    2.9728    2.6849 H   0  0  0  0  0  0  0  0  0  0  0  0
    0.7593    3.6535    1.2867 H   0  0  0  0  0  0  0  0  0  0  0  0
  1  2  1  0  0  0  0
  2  3  1  0  0  0  0
  2  4  1  0  0  0  0
  2  5  1  0  0  0  0
  5  6  2  0  0  0  0
  5  7  1  0  0  0  0
  7  8  1  0  0  0  0
  7  9  1  0  0  0  0
  9 10  1  0  0  0  0
  9 11  1  0  0  0  0
  9 18  1  0  0  0  0
 11 12  1  0  0  0  0
 11 13  1  0  0  0  0
 11 14  1  0  0  0  0
 14 15  2  0  0  0  0
 14 16  1  0  0  0  0
 16 17  1  0  0  0  0
 18 19  2  0  0  0  0
 18 20  1  0  0  0  0
 20 21  1  0  0  0  0
 20 22  1  0  0  0  0
 22 23  1  0  0  0  0
 22 24  1  0  0  0  0
 22 25  1  0  0  0  0
M  END
$$$$

  -OEChem-02102214113D

 25 24  0     1  0  0  0  0  0999 V2000
   -2.6923   -4.0004    0.3767 H   0  0  0  0  0  0  0  0  0  0  0  0
   -2.7513   -2.9460    0.0925 C   0  0  0  0  0  0  0  0  0  0  0  0
   -3.3870   -2.4221    0.8104 H   0  0  0  0  0  0  0  0  0  0  0  0
   -3.1989   -2.8729   -0.9016 H   0  0  0  0  0  0  0  0  0  0  0  0
   -1.3655   -2.3292    0.0817 C   0  0  0  0  0  0  0  0  0  0  0  0
   -0.3909   -3.0089    0.3640 O   0  0  0  0  0  0  0  0  0  0  0  0
   -1.2100   -0.9997   -0.2508 N   0  0  0  0  0  0  0  0  0  0  0  0
   -2.0528   -0.4569   -0.4361 H   0  0  0  0  0  0  0  0  0  0  0  0
    0.0638   -0.2691   -0.2464 C   0  0  1  0  0  0  0  0  0  0  0  0
    0.7800   -0.8290    0.3642 H   0  0  0  0  0  0  0  0  0  0  0  0
    0.6180   -0.2274   -1.6856 C   0  0  0  0  0  0  0  0  0  0  0  0
    1.7104   -0.1991   -1.6419 H   0  0  0  0  0  0  0  0  0  0  0  0
    0.3396   -1.1373   -2.2245 H   0  0  0  0  0  0  0  0  0  0  0  0
    0.1427    0.9862   -2.4748 C   0  0  0  0  0  0  0  0  0  0  0  0
    0.9317    1.8974   -2.6613 O   0  0  0  0  0  0  0  0  0  0  0  0
   -1.1276    0.9811   -2.9430 O   0  0  0  0  0  0  0  0  0  0  0  0
   -1.2600    1.8488   -3.3541 H   0  0  0  0  0  0  0  0  0  0  0  0
   -0.0722    1.1180    0.4230 C   0  0  0  0  0  0  0  0  0  0  0  0
   -1.0816    1.7893    0.2418 O   0  0  0  0  0  0  0  0  0  0  0  0
    0.8768    1.5570    1.3275 N   0  0  0  0  0  0  0  0  0  0  0  0
    1.6970    0.9757    1.4740 H   0  0  0  0  0  0  0  0  0  0  0  0
    0.7914    2.8408    2.0134 C   0  0  0  0  0  0  0  0  0  0  0  0
   -0.1193    2.8924    2.6195 H   0  0  0  0  0  0  0  0  0  0  0  0
    1.6535    2.9754    2.6738 H   0  0  0  0  0  0  0  0  0  0  0  0
    0.7794    3.6616    1.2884 H   0  0  0  0  0  0  0  0  0  0  0  0
  1  2  1  0  0  0  0
  2  3  1  0  0  0  0
  2  4  1  0  0  0  0
  2  5  1  0  0  0  0
  5  6  2  0  0  0  0
  5  7  1  0  0  0  0
  7  8  1  0  0  0  0
  7  9  1  0  0  0  0
  9 10  1  0  0  0  0
  9 11  1  0  0  0  0
  9 18  1  0  0  0  0
 11 12  1  0  0  0  0
 11 13  1  0  0  0  0
 11 14  1  0  0  0  0
 14 15  2  0  0  0  0
 14 16  1  0  0  0  0
 16 17  1  0  0  0  0
 18 19  2  0  0  0  0
 18 20  1  0  0  0  0
 20 21  1  0  0  0  0
 20 22  1  0  0  0  0
 22 23  1  0  0  0  0
 22 24  1  0  0  0  0
 22 25  1  0  0  0  0
M  END
$$$$

  -OEChem-02102214113D

 25 24  0     1  0  0  0  0  0999 V2000
   -2.6806   -4.0077    0.3668 H   0  0  0  0  0  0  0  0  0  0  0  0
   -2.7467   -2.9528    0.0858 C   0  0  0  0  0  0  0  0  0  0  0  0
   -3.3946   -2.4378    0.7993 H   0  0  0  0  0  0  0  0  0  0  0  0
   -3.1855   -2.8806   -0.9124 H   0  0  0  0  0  0  0  0  0  0  0  0
   -1.3666   -2.3228    0.0898 C   0  0  0  0  0  0  0  0  0  0  0  0
   -0.3878   -2.9957    0.3739 O   0  0  0  0  0  0  0  0  0  0  0  0
   -1.2206   -0.9905   -0.2355 N   0  0  0  0  0  0  0  0  0  0  0  0
   -2.0658   -0.4568   -0.4364 H   0  0  0  0  0  0  0  0  0  0  0  0
    0.0471   -0.2498   -0.2382 C   0  0  1  0  0  0  0  0  0  0  0  0
    0.7659   -0.8101    0.3694 H   0  0  0  0  0  0  0  0  0  0  0  0
    0.6051   -0.2103   -1.6763 C   0  0  0  0  0  0  0  0  0  0  0  0
    1.6971   -0.1727   -1.6271 H   0  0  0  0  0  0  0  0  0  0  0  0
    0.3355   -1.1259   -2.2096 H   0  0  0  0  0  0  0  0  0  0  0  0
    0.1234    0.9929   -2.4793 C   0  0  0  0  0  0  0  0  0  0  0  0
    0.9585    1.7719   -2.9070 O   0  0  0  0  0  0  0  0  0  0  0  0
   -1.2007    1.0866   -2.7484 O   0  0  0  0  0  0  0  0  0  0  0  0
   -1.3171    1.9223   -3.2249 H   0  0  0  0  0  0  0  0  0  0  0  0
   -0.0737    1.1359    0.4369 C   0  0  0  0  0  0  0  0  0  0  0  0
   -1.0774    1.8191    0.2732 O   0  0  0  0  0  0  0  0  0  0  0  0
    0.8925    1.5645    1.3283 N   0  0  0  0  0  0  0  0  0  0  0  0
    1.7004    0.9667    1.4765 H   0  0  0  0  0  0  0  0  0  0  0  0
    0.8154    2.8346    2.0402 C   0  0  0  0  0  0  0  0  0  0  0  0
   -0.0938    2.8780    2.6493 H   0  0  0  0  0  0  0  0  0  0  0  0
    1.6794    2.9516    2.7014 H   0  0  0  0  0  0  0  0  0  0  0  0
    0.8058    3.6699    1.3319 H   0  0  0  0  0  0  0  0  0  0  0  0
  1  2  1  0  0  0  0
  2  3  1  0  0  0  0
  2  4  1  0  0  0  0
  2  5  1  0  0  0  0
  5  6  2  0  0  0  0
  5  7  1  0  0  0  0
  7  8  1  0  0  0  0
  7  9  1  0  0  0  0
  9 10  1  0  0  0  0
  9 11  1  0  0  0  0
  9 18  1  0  0  0  0
 11 12  1  0  0  0  0
 11 13  1  0  0  0  0
 11 14  1  0  0  0  0
 14 15  2  0  0  0  0
 14 16  1  0  0  0  0
 16 17  1  0  0  0  0
 18 19  2  0  0  0  0
 18 20  1  0  0  0  0
 20 21  1  0  0  0  0
 20 22  1  0  0  0  0
 22 23  1  0  0  0  0
 22 24  1  0  0  0  0
 22 25  1  0  0  0  0
M  END
$$$$

  -OEChem-02102214113D

 25 24  0     1  0  0  0  0  0999 V2000
   -2.6681   -4.0041    0.3654 H   0  0  0  0  0  0  0  0  0  0  0  0
   -2.7431   -2.9476    0.0932 C   0  0  0  0  0  0  0  0  0  0  0  0
   -3.3832   -2.4410    0.8196 H   0  0  0  0  0  0  0  0  0  0  0  0
   -3.1962   -2.8697   -0.8981 H   0  0  0  0  0  0  0  0  0  0  0  0
   -1.3663   -2.3110    0.0832 C   0  0  0  0  0  0  0  0  0  0  0  0
   -0.3794   -2.9816    0.3446 O   0  0  0  0  0  0  0  0  0  0  0  0
   -1.2328   -0.9743   -0.2295 N   0  0  0  0  0  0  0  0  0  0  0  0
   -2.0839   -0.4428   -0.4101 H   0  0  0  0  0  0  0  0  0  0  0  0
    0.0291   -0.2242   -0.2371 C   0  0  1  0  0  0  0  0  0  0  0  0
    0.7464   -0.7856    0.3708 H   0  0  0  0  0  0  0  0  0  0  0  0
    0.6008   -0.1897   -1.6704 C   0  0  0  0  0  0  0  0  0  0  0  0
    1.6917   -0.1436   -1.6061 H   0  0  0  0  0  0  0  0  0  0  0  0
    0.3445   -1.1143   -2.1945 H   0  0  0  0  0  0  0  0  0  0  0  0
    0.1270    0.9963   -2.5049 C   0  0  0  0  0  0  0  0  0  0  0  0
    0.9606    1.6028   -3.1558 O   0  0  0  0  0  0  0  0  0  0  0  0
   -1.2053    1.2167   -2.6040 O   0  0  0  0  0  0  0  0  0  0  0  0
   -1.3082    2.0014   -3.1627 H   0  0  0  0  0  0  0  0  0  0  0  0
   -0.0798    1.1564    0.4506 C   0  0  0  0  0  0  0  0  0  0  0  0
   -1.0917    1.8357    0.3327 O   0  0  0  0  0  0  0  0  0  0  0  0
    0.9034    1.5714    1.3303 N   0  0  0  0  0  0  0  0  0  0  0  0
    1.7092    0.9664    1.4602 H   0  0  0  0  0  0  0  0  0  0  0  0
    0.8292    2.8168    2.0852 C   0  0  0  0  0  0  0  0  0  0  0  0
   -0.0526    2.8203    2.7346 H   0  0  0  0  0  0  0  0  0  0  0  0
    1.7192    2.9335    2.7111 H   0  0  0  0  0  0  0  0  0  0  0  0
    0.7695    3.6733    1.4055 H   0  0  0  0  0  0  0  0  0  0  0  0
  1  2  1  0  0  0  0
  2  3  1  0  0  0  0
  2  4  1  0  0  0  0
  2  5  1  0  0  0  0
  5  6  2  0  0  0  0
  5  7  1  0  0  0  0
  7  8  1  0  0  0  0
  7  9  1  0  0  0  0
  9 10  1  0  0  0  0
  9 11  1  0  0  0  0
  9 18  1  0  0  0  0
 11 12  1  0  0  0  0
 11 13  1  0  0  0  0
 11 14  1  0  0  0  0
 14 15  2  0  0  0  0
 14 16  1  0  0  0  0
 16 17  1  0  0  0  0
 18 19  2  0  0  0  0
 18 20  1  0  0  0  0
 20 21  1  0  0  0  0
 20 22  1  0  0  0  0
 22 23  1  0  0  0  0
 22 24  1  0  0  0  0
 22 25  1  0  0  0  0
M  END
$$$$

  -OEChem-02102214113D

 25 24  0     1  0  0  0  0  0999 V2000
   -2.6575   -3.9900    0.3730 H   0  0  0  0  0  0  0  0  0  0  0  0
   -2.7412   -2.9301    0.1167 C   0  0  0  0  0  0  0  0  0  0  0  0
   -3.3562   -2.4326    0.8705 H   0  0  0  0  0  0  0  0  0  0  0  0
   -3.2277   -2.8403   -0.8575 H   0  0  0  0  0  0  0  0  0  0  0  0
   -1.3652   -2.2932    0.0681 C   0  0  0  0  0  0  0  0  0  0  0  0
   -0.3709   -2.9671    0.2893 O   0  0  0  0  0  0  0  0  0  0  0  0
   -1.2413   -0.9526   -0.2319 N   0  0  0  0  0  0  0  0  0  0  0  0
   -2.0986   -0.4160   -0.3600 H   0  0  0  0  0  0  0  0  0  0  0  0
    0.0168   -0.1960   -0.2478 C   0  0  1  0  0  0  0  0  0  0  0  0
    0.7310   -0.7593    0.3619 H   0  0  0  0  0  0  0  0  0  0  0  0
    0.6064   -0.1710   -1.6751 C   0  0  0  0  0  0  0  0  0  0  0  0
    1.6955   -0.1172   -1.5921 H   0  0  0  0  0  0  0  0  0  0  0  0
    0.3645   -1.1072   -2.1855 H   0  0  0  0  0  0  0  0  0  0  0  0
    0.1534    0.9920   -2.5546 C   0  0  0  0  0  0  0  0  0  0  0  0
    0.9391    1.3890   -3.3979 O   0  0  0  0  0  0  0  0  0  0  0  0
   -1.1383    1.3898   -2.4974 O   0  0  0  0  0  0  0  0  0  0  0  0
   -1.2337    2.1039   -3.1449 H   0  0  0  0  0  0  0  0  0  0  0  0
   -0.0834    1.1785    0.4546 C   0  0  0  0  0  0  0  0  0  0  0  0
   -1.1187    1.8309    0.4111 O   0  0  0  0  0  0  0  0  0  0  0  0
    0.9150    1.5831    1.3225 N   0  0  0  0  0  0  0  0  0  0  0  0
    1.7267    0.9806    1.4244 H   0  0  0  0  0  0  0  0  0  0  0  0
    0.8240    2.7846    2.1440 C   0  0  0  0  0  0  0  0  0  0  0  0
   -0.0135    2.7063    2.8453 H   0  0  0  0  0  0  0  0  0  0  0  0
    1.7452    2.9210    2.7186 H   0  0  0  0  0  0  0  0  0  0  0  0
    0.6756    3.6690    1.5152 H   0  0  0  0  0  0  0  0  0  0  0  0
  1  2  1  0  0  0  0
  2  3  1  0  0  0  0
  2  4  1  0  0  0  0
  2  5  1  0  0  0  0
  5  6  2  0  0  0  0
  5  7  1  0  0  0  0
  7  8  1  0  0  0  0
  7  9  1  0  0  0  0
  9 10  1  0  0  0  0
  9 11  1  0  0  0  0
  9 18  1  0  0  0  0
 11 12  1  0  0  0  0
 11 13  1  0  0  0  0
 11 14  1  0  0  0  0
 14 15  2  0  0  0  0
 14 16  1  0  0  0  0
 16 17  1  0  0  0  0
 18 19  2  0  0  0  0
 18 20  1  0  0  0  0
 20 21  1  0  0  0  0
 20 22  1  0  0  0  0
 22 23  1  0  0  0  0
 22 24  1  0  0  0  0
 22 25  1  0  0  0  0
M  END
$$$$

  -OEChem-02102214113D

 25 24  0     1  0  0  0  0  0999 V2000
   -2.6390   -3.9760    0.3991 H   0  0  0  0  0  0  0  0  0  0  0  0
   -2.7335   -2.9169    0.1441 C   0  0  0  0  0  0  0  0  0  0  0  0
   -3.3193   -2.4186    0.9202 H   0  0  0  0  0  0  0  0  0  0  0  0
   -3.2567   -2.8290   -0.8110 H   0  0  0  0  0  0  0  0  0  0  0  0
   -1.3615   -2.2784    0.0416 C   0  0  0  0  0  0  0  0  0  0  0  0
   -0.3581   -2.9543    0.2102 O   0  0  0  0  0  0  0  0  0  0  0  0
   -1.2517   -0.9330   -0.2425 N   0  0  0  0  0  0  0  0  0  0  0  0
   -2.1141   -0.3919   -0.2993 H   0  0  0  0  0  0  0  0  0  0  0  0
    0.0028   -0.1698   -0.2622 C   0  0  1  0  0  0  0  0  0  0  0  0
    0.7134   -0.7336    0.3515 H   0  0  0  0  0  0  0  0  0  0  0  0
    0.6121   -0.1561   -1.6834 C   0  0  0  0  0  0  0  0  0  0  0  0
    1.6989   -0.0953   -1.5804 H   0  0  0  0  0  0  0  0  0  0  0  0
    0.3852   -1.1049   -2.1774 H   0  0  0  0  0  0  0  0  0  0  0  0
    0.1890    0.9788   -2.6148 C   0  0  0  0  0  0  0  0  0  0  0  0
    0.8750    1.1468   -3.6082 O   0  0  0  0  0  0  0  0  0  0  0  0
   -0.9822    1.6196   -2.4103 O   0  0  0  0  0  0  0  0  0  0  0  0
   -1.0782    2.2559   -3.1341 H   0  0  0  0  0  0  0  0  0  0  0  0
   -0.0988    1.1946    0.4601 C   0  0  0  0  0  0  0  0  0  0  0  0
   -1.1604    1.8049    0.4954 O   0  0  0  0  0  0  0  0  0  0  0  0
    0.9096    1.5891    1.3218 N   0  0  0  0  0  0  0  0  0  0  0  0
    1.7397    1.0061    1.3771 H   0  0  0  0  0  0  0  0  0  0  0  0
    0.8075    2.7506    2.1981 C   0  0  0  0  0  0  0  0  0  0  0  0
   -0.0183    2.6255    2.9066 H   0  0  0  0  0  0  0  0  0  0  0  0
    1.7337    2.8788    2.7664 H   0  0  0  0  0  0  0  0  0  0  0  0
    0.6340    3.6587    1.6112 H   0  0  0  0  0  0  0  0  0  0  0  0
  1  2  1  0  0  0  0
  2  3  1  0  0  0  0
  2  4  1  0  0  0  0
  2  5  1  0  0  0  0
  5  6  2  0  0  0  0
  5  7  1  0  0  0  0
  7  8  1  0  0  0  0
  7  9  1  0  0  0  0
  9 10  1  0  0  0  0
  9 11  1  0  0  0  0
  9 18  1  0  0  0  0
 11 12  1  0  0  0  0
 11 13  1  0  0  0  0
 11 14  1  0  0  0  0
 14 15  2  0  0  0  0
 14 16  1  0  0  0  0
 16 17  1  0  0  0  0
 18 19  2  0  0  0  0
 18 20  1  0  0  0  0
 20 21  1  0  0  0  0
 20 22  1  0  0  0  0
 22 23  1  0  0  0  0
 22 24  1  0  0  0  0
 22 25  1  0  0  0  0
M  END
$$$$

  -OEChem-02102214113D

 25 24  0     1  0  0  0  0  0999 V2000
   -2.6567   -3.9685    0.2726 H   0  0  0  0  0  0  0  0  0  0  0  0
   -2.7381   -2.9075    0.0199 C   0  0  0  0  0  0  0  0  0  0  0  0
   -3.3776   -2.4180    0.7584 H   0  0  0  0  0  0  0  0  0  0  0  0
   -3.1965   -2.8154   -0.9678 H   0  0  0  0  0  0  0  0  0  0  0  0
   -1.3636   -2.2654    0.0150 C   0  0  0  0  0  0  0  0  0  0  0  0
   -0.3732   -2.9376    0.2539 O   0  0  0  0  0  0  0  0  0  0  0  0
   -1.2341   -0.9171   -0.2543 N   0  0  0  0  0  0  0  0  0  0  0  0
   -2.0920   -0.3830   -0.3847 H   0  0  0  0  0  0  0  0  0  0  0  0
    0.0361   -0.1755   -0.2436 C   0  0  1  0  0  0  0  0  0  0  0  0
    0.7477   -0.7534    0.3569 H   0  0  0  0  0  0  0  0  0  0  0  0
    0.6103   -0.1491   -1.6867 C   0  0  0  0  0  0  0  0  0  0  0  0
    1.6741   -0.3902   -1.6040 H   0  0  0  0  0  0  0  0  0  0  0  0
    0.1523   -0.9598   -2.2616 H   0  0  0  0  0  0  0  0  0  0  0  0
    0.5425    1.1175   -2.5577 C   0  0  0  0  0  0  0  0  0  0  0  0
    1.0420    0.9645   -3.6603 O   0  0  0  0  0  0  0  0  0  0  0  0
   -0.1025    2.2575   -2.1800 O   0  0  0  0  0  0  0  0  0  0  0  0
   -0.5322    2.1527   -1.3011 H   0  0  0  0  0  0  0  0  0  0  0  0
   -0.0746    1.1707    0.4918 C   0  0  0  0  0  0  0  0  0  0  0  0
   -1.0280    1.8979    0.2422 O   0  0  0  0  0  0  0  0  0  0  0  0
    0.8881    1.5834    1.3917 N   0  0  0  0  0  0  0  0  0  0  0  0
    1.6633    0.9537    1.5841 H   0  0  0  0  0  0  0  0  0  0  0  0
    0.8313    2.8609    2.0932 C   0  0  0  0  0  0  0  0  0  0  0  0
   -0.0961    2.9420    2.6703 H   0  0  0  0  0  0  0  0  0  0  0  0
    1.6751    2.9509    2.7842 H   0  0  0  0  0  0  0  0  0  0  0  0
    0.8779    3.6918    1.3812 H   0  0  0  0  0  0  0  0  0  0  0  0
  1  2  1  0  0  0  0
  2  3  1  0  0  0  0
  2  4  1  0  0  0  0
  2  5  1  0  0  0  0
  5  6  2  0  0  0  0
  5  7  1  0  0  0  0
  7  8  1  0  0  0  0
  7  9  1  0  0  0  0
  9 10  1  0  0  0  0
  9 11  1  0  0  0  0
  9 18  1  0  0  0  0
 11 12  1  0  0  0  0
 11 13  1  0  0  0  0
 11 14  1  0  0  0  0
 14 15  2  0  0  0  0
 14 16  1  0  0  0  0
 16 17  1  0  0  0  0
 18 19  2  0  0  0  0
 18 20  1  0  0  0  0
 20 21  1  0  0  0  0
 20 22  1  0  0  0  0
 22 23  1  0  0  0  0
 22 24  1  0  0  0  0
 22 25  1  0  0  0  0
M  END
$$$$

  -OEChem-02102214113D

 25 24  0     1  0  0  0  0  0999 V2000
   -2.6394   -3.9653    0.3937 H   0  0  0  0  0  0  0  0  0  0  0  0
   -2.7260   -2.9007    0.1596 C   0  0  0  0  0  0  0  0  0  0  0  0
   -3.2674   -2.4050    0.9689 H   0  0  0  0  0  0  0  0  0  0  0  0
   -3.2903   -2.7885   -0.7692 H   0  0  0  0  0  0  0  0  0  0  0  0
   -1.3481   -2.2853    0.0055 C   0  0  0  0  0  0  0  0  0  0  0  0
   -0.3506   -2.9803    0.1216 O   0  0  0  0  0  0  0  0  0  0  0  0
   -1.2253   -0.9365   -0.2563 N   0  0  0  0  0  0  0  0  0  0  0  0
   -2.0763   -0.3752   -0.2211 H   0  0  0  0  0  0  0  0  0  0  0  0
    0.0448   -0.1963   -0.2646 C   0  0  1  0  0  0  0  0  0  0  0  0
    0.7675   -0.7681    0.3277 H   0  0  0  0  0  0  0  0  0  0  0  0
    0.5995   -0.1611   -1.7180 C   0  0  0  0  0  0  0  0  0  0  0  0
    1.6647   -0.3983   -1.6562 H   0  0  0  0  0  0  0  0  0  0  0  0
    0.1320   -0.9659   -2.2935 H   0  0  0  0  0  0  0  0  0  0  0  0
    0.5114    1.1221   -2.5523 C   0  0  0  0  0  0  0  0  0  0  0  0
    0.6998    0.9809   -3.7483 O   0  0  0  0  0  0  0  0  0  0  0  0
    0.4051    2.3358   -1.9691 O   0  0  0  0  0  0  0  0  0  0  0  0
    0.3969    2.9837   -2.6898 H   0  0  0  0  0  0  0  0  0  0  0  0
   -0.1217    1.1368    0.5009 C   0  0  0  0  0  0  0  0  0  0  0  0
   -1.2093    1.7060    0.4952 O   0  0  0  0  0  0  0  0  0  0  0  0
    0.8411    1.5473    1.4052 N   0  0  0  0  0  0  0  0  0  0  0  0
    1.7187    1.0368    1.4261 H   0  0  0  0  0  0  0  0  0  0  0  0
    0.6945    2.7316    2.2425 C   0  0  0  0  0  0  0  0  0  0  0  0
   -0.1696    2.6267    2.9071 H   0  0  0  0  0  0  0  0  0  0  0  0
    1.5881    2.8736    2.8579 H   0  0  0  0  0  0  0  0  0  0  0  0
    0.5560    3.6235    1.6224 H   0  0  0  0  0  0  0  0  0  0  0  0
  1  2  1  0  0  0  0
  2  3  1  0  0  0  0
  2  4  1  0  0  0  0
  2  5  1  0  0  0  0
  5  6  2  0  0  0  0
  5  7  1  0  0  0  0
  7  8  1  0  0  0  0
  7  9  1  0  0  0  0
  9 10  1  0  0  0  0
  9 11  1  0  0  0  0
  9 18  1  0  0  0  0
 11 12  1  0  0  0  0
 11 13  1  0  0  0  0
 11 14  1  0  0  0  0
 14 15  2  0  0  0  0
 14 16  1  0  0  0  0
 16 17  1  0  0  0  0
 18 19  2  0  0  0  0
 18 20  1  0  0  0  0
 20 21  1  0  0  0  0
 20 22  1  0  0  0  0
 22 23  1  0  0  0  0
 22 24  1  0  0  0  0
 22 25  1  0  0  0  0
M  END
$$$$

  -OEChem-02102214113D

 25 24  0     1  0  0  0  0  0999 V2000
   -2.6560   -3.9660    0.3996 H   0  0  0  0  0  0  0  0  0  0  0  0
   -2.7317   -2.9042    0.1491 C   0  0  0  0  0  0  0  0  0  0  0  0
   -3.2903   -2.3954    0.9384 H   0  0  0  0  0  0  0  0  0  0  0  0
   -3.2724   -2.8020   -0.7948 H   0  0  0  0  0  0  0  0  0  0  0  0
   -1.3473   -2.2977    0.0196 C   0  0  0  0  0  0  0  0  0  0  0  0
   -0.3569   -2.9969    0.1672 O   0  0  0  0  0  0  0  0  0  0  0  0
   -1.2098   -0.9528   -0.2553 N   0  0  0  0  0  0  0  0  0  0  0  0
   -2.0573   -0.3854   -0.2517 H   0  0  0  0  0  0  0  0  0  0  0  0
    0.0675   -0.2248   -0.2571 C   0  0  1  0  0  0  0  0  0  0  0  0
    0.7955   -0.7972    0.3278 H   0  0  0  0  0  0  0  0  0  0  0  0
    0.5955   -0.1698   -1.7186 C   0  0  0  0  0  0  0  0  0  0  0  0
    1.6602   -0.4141   -1.6873 H   0  0  0  0  0  0  0  0  0  0  0  0
    0.1101   -0.9554   -2.3063 H   0  0  0  0  0  0  0  0  0  0  0  0
    0.4907    1.1464   -2.4944 C   0  0  0  0  0  0  0  0  0  0  0  0
    0.3591    1.0491   -3.7025 O   0  0  0  0  0  0  0  0  0  0  0  0
    0.7842    2.3166   -1.8820 O   0  0  0  0  0  0  0  0  0  0  0  0
    0.7094    3.0011   -2.5642 H   0  0  0  0  0  0  0  0  0  0  0  0
   -0.1116    1.1141    0.4953 C   0  0  0  0  0  0  0  0  0  0  0  0
   -1.1792    1.7142    0.4145 O   0  0  0  0  0  0  0  0  0  0  0  0
    0.8315    1.5372    1.4142 N   0  0  0  0  0  0  0  0  0  0  0  0
    1.7051    1.0219    1.4653 H   0  0  0  0  0  0  0  0  0  0  0  0
    0.6862    2.7564    2.2001 C   0  0  0  0  0  0  0  0  0  0  0  0
   -0.2166    2.7096    2.8184 H   0  0  0  0  0  0  0  0  0  0  0  0
    1.5492    2.8865    2.8602 H   0  0  0  0  0  0  0  0  0  0  0  0
    0.6182    3.6291    1.5420 H   0  0  0  0  0  0  0  0  0  0  0  0
  1  2  1  0  0  0  0
  2  3  1  0  0  0  0
  2  4  1  0  0  0  0
  2  5  1  0  0  0  0
  5  6  2  0  0  0  0
  5  7  1  0  0  0  0
  7  8  1  0  0  0  0
  7  9  1  0  0  0  0
  9 10  1  0  0  0  0
  9 11  1  0  0  0  0
  9 18  1  0  0  0  0
 11 12  1  0  0  0  0
 11 13  1  0  0  0  0
 11 14  1  0  0  0  0
 14 15  2  0  0  0  0
 14 16  1  0  0  0  0
 16 17  1  0  0  0  0
 18 19  2  0  0  0  0
 18 20  1  0  0  0  0
 20 21  1  0  0  0  0
 20 22  1  0  0  0  0
 22 23  1  0  0  0  0
 22 24  1  0  0  0  0
 22 25  1  0  0  0  0
M  END
$$$$

  -OEChem-02102214113D

 25 24  0     1  0  0  0  0  0999 V2000
   -2.6744   -3.9693    0.3863 H   0  0  0  0  0  0  0  0  0  0  0  0
   -2.7401   -2.9090    0.1267 C   0  0  0  0  0  0  0  0  0  0  0  0
   -3.3207   -2.3934    0.8955 H   0  0  0  0  0  0  0  0  0  0  0  0
   -3.2526   -2.8122   -0.8335 H   0  0  0  0  0  0  0  0  0  0  0  0
   -1.3511   -2.3060    0.0349 C   0  0  0  0  0  0  0  0  0  0  0  0
   -0.3674   -3.0044    0.2247 O   0  0  0  0  0  0  0  0  0  0  0  0
   -1.2020   -0.9654   -0.2550 N   0  0  0  0  0  0  0  0  0  0  0  0
   -2.0484   -0.3987   -0.3041 H   0  0  0  0  0  0  0  0  0  0  0  0
    0.0779   -0.2427   -0.2480 C   0  0  1  0  0  0  0  0  0  0  0  0
    0.8023   -0.8134    0.3430 H   0  0  0  0  0  0  0  0  0  0  0  0
    0.6078   -0.1836   -1.7057 C   0  0  0  0  0  0  0  0  0  0  0  0
    1.6728   -0.4269   -1.6820 H   0  0  0  0  0  0  0  0  0  0  0  0
    0.1210   -0.9581   -2.3067 H   0  0  0  0  0  0  0  0  0  0  0  0
    0.4883    1.1555   -2.4336 C   0  0  0  0  0  0  0  0  0  0  0  0
    0.0733    1.1317   -3.5795 O   0  0  0  0  0  0  0  0  0  0  0  0
    1.0454    2.2546   -1.8717 O   0  0  0  0  0  0  0  0  0  0  0  0
    0.9004    2.9762   -2.5029 H   0  0  0  0  0  0  0  0  0  0  0  0
   -0.0975    1.1082    0.4830 C   0  0  0  0  0  0  0  0  0  0  0  0
   -1.1410    1.7388    0.3464 O   0  0  0  0  0  0  0  0  0  0  0  0
    0.8377    1.5367    1.4070 N   0  0  0  0  0  0  0  0  0  0  0  0
    1.6983    1.0036    1.4888 H   0  0  0  0  0  0  0  0  0  0  0  0
    0.7075    2.7818    2.1537 C   0  0  0  0  0  0  0  0  0  0  0  0
   -0.2140    2.7796    2.7455 H   0  0  0  0  0  0  0  0  0  0  0  0
    1.5543    2.9042    2.8358 H   0  0  0  0  0  0  0  0  0  0  0  0
    0.6858    3.6372    1.4702 H   0  0  0  0  0  0  0  0  0  0  0  0
  1  2  1  0  0  0  0
  2  3  1  0  0  0  0
  2  4  1  0  0  0  0
  2  5  1  0  0  0  0
  5  6  2  0  0  0  0
  5  7  1  0  0  0  0
  7  8  1  0  0  0  0
  7  9  1  0  0  0  0
  9 10  1  0  0  0  0
  9 11  1  0  0  0  0
  9 18  1  0  0  0  0
 11 12  1  0  0  0  0
 11 13  1  0  0  0  0
 11 14  1  0  0  0  0
 14 15  2  0  0  0  0
 14 16  1  0  0  0  0
 16 17  1  0  0  0  0
 18 19  2  0  0  0  0
 18 20  1  0  0  0  0
 20 21  1  0  0  0  0
 20 22  1  0  0  0  0
 22 23  1  0  0  0  0
 22 24  1  0  0  0  0
 22 25  1  0  0  0  0
M  END
$$$$

  -OEChem-02102214113D

 25 24  0     1  0  0  0  0  0999 V2000
   -2.6901   -3.9716    0.3691 H   0  0  0  0  0  0  0  0  0  0  0  0
   -2.7481   -2.9127    0.1025 C   0  0  0  0  0  0  0  0  0  0  0  0
   -3.3517   -2.3931    0.8506 H   0  0  0  0  0  0  0  0  0  0  0  0
   -3.2312   -2.8210   -0.8732 H   0  0  0  0  0  0  0  0  0  0  0  0
   -1.3570   -2.3103    0.0497 C   0  0  0  0  0  0  0  0  0  0  0  0
   -0.3799   -3.0056    0.2807 O   0  0  0  0  0  0  0  0  0  0  0  0
   -1.1988   -0.9740   -0.2544 N   0  0  0  0  0  0  0  0  0  0  0  0
   -2.0427   -0.4109   -0.3564 H   0  0  0  0  0  0  0  0  0  0  0  0
    0.0824   -0.2544   -0.2418 C   0  0  1  0  0  0  0  0  0  0  0  0
    0.8003   -0.8233    0.3584 H   0  0  0  0  0  0  0  0  0  0  0  0
    0.6250   -0.2007   -1.6927 C   0  0  0  0  0  0  0  0  0  0  0  0
    1.6901   -0.4437   -1.6675 H   0  0  0  0  0  0  0  0  0  0  0  0
    0.1398   -0.9685   -2.3033 H   0  0  0  0  0  0  0  0  0  0  0  0
    0.4964    1.1503   -2.3913 C   0  0  0  0  0  0  0  0  0  0  0  0
   -0.1621    1.2053   -3.4156 O   0  0  0  0  0  0  0  0  0  0  0  0
    1.2365    2.1836   -1.9225 O   0  0  0  0  0  0  0  0  0  0  0  0
    1.0272    2.9374   -2.4956 H   0  0  0  0  0  0  0  0  0  0  0  0
   -0.0821    1.1091    0.4681 C   0  0  0  0  0  0  0  0  0  0  0  0
   -1.1052    1.7629    0.2963 O   0  0  0  0  0  0  0  0  0  0  0  0
    0.8515    1.5405    1.3921 N   0  0  0  0  0  0  0  0  0  0  0  0
    1.6994    0.9912    1.4975 H   0  0  0  0  0  0  0  0  0  0  0  0
    0.7371    2.8032    2.1113 C   0  0  0  0  0  0  0  0  0  0  0  0
   -0.1920    2.8324    2.6903 H   0  0  0  0  0  0  0  0  0  0  0  0
    1.5770    2.9224    2.8024 H   0  0  0  0  0  0  0  0  0  0  0  0
    0.7425    3.6446    1.4103 H   0  0  0  0  0  0  0  0  0  0  0  0
  1  2  1  0  0  0  0
  2  3  1  0  0  0  0
  2  4  1  0  0  0  0
  2  5  1  0  0  0  0
  5  6  2  0  0  0  0
  5  7  1  0  0  0  0
  7  8  1  0  0  0  0
  7  9  1  0  0  0  0
  9 10  1  0  0  0  0
  9 11  1  0  0  0  0
  9 18  1  0  0  0  0
 11 12  1  0  0  0  0
 11 13  1  0  0  0  0
 11 14  1  0  0  0  0
 14 15  2  0  0  0  0
 14 16  1  0  0  0  0
 16 17  1  0  0  0  0
 18 19  2  0  0  0  0
 18 20  1  0  0  0  0
 20 21  1  0  0  0  0
 20 22  1  0  0  0  0
 22 23  1  0  0  0  0
 22 24  1  0  0  0  0
 22 25  1  0  0  0  0
M  END
$$$$

  -OEChem-02102214113D

 25 24  0     1  0  0  0  0  0999 V2000
   -2.6993   -3.9762    0.3615 H   0  0  0  0  0  0  0  0  0  0  0  0
   -2.7533   -2.9204    0.0821 C   0  0  0  0  0  0  0  0  0  0  0  0
   -3.3764   -2.3946    0.8095 H   0  0  0  0  0  0  0  0  0  0  0  0
   -3.2124   -2.8406   -0.9062 H   0  0  0  0  0  0  0  0  0  0  0  0
   -1.3630   -2.3139    0.0570 C   0  0  0  0  0  0  0  0  0  0  0  0
   -0.3889   -3.0046    0.3141 O   0  0  0  0  0  0  0  0  0  0  0  0
   -1.2025   -0.9802   -0.2566 N   0  0  0  0  0  0  0  0  0  0  0  0
   -2.0455   -0.4231   -0.3930 H   0  0  0  0  0  0  0  0  0  0  0  0
    0.0767   -0.2580   -0.2394 C   0  0  1  0  0  0  0  0  0  0  0  0
    0.7867   -0.8247    0.3725 H   0  0  0  0  0  0  0  0  0  0  0  0
    0.6395   -0.2154   -1.6805 C   0  0  0  0  0  0  0  0  0  0  0  0
    1.7055   -0.4538   -1.6433 H   0  0  0  0  0  0  0  0  0  0  0  0
    0.1638   -0.9840   -2.2973 H   0  0  0  0  0  0  0  0  0  0  0  0
    0.5040    1.1374   -2.3703 C   0  0  0  0  0  0  0  0  0  0  0  0
   -0.3514    1.2676   -3.2288 O   0  0  0  0  0  0  0  0  0  0  0  0
    1.3813    2.1113   -2.0294 O   0  0  0  0  0  0  0  0  0  0  0  0
    1.1214    2.8892   -2.5471 H   0  0  0  0  0  0  0  0  0  0  0  0
   -0.0723    1.1160    0.4536 C   0  0  0  0  0  0  0  0  0  0  0  0
   -1.0804    1.7873    0.2659 O   0  0  0  0  0  0  0  0  0  0  0  0
    0.8661    1.5460    1.3734 N   0  0  0  0  0  0  0  0  0  0  0  0
    1.6984    0.9774    1.5003 H   0  0  0  0  0  0  0  0  0  0  0  0
    0.7716    2.8211    2.0736 C   0  0  0  0  0  0  0  0  0  0  0  0
   -0.1650    2.8808    2.6380 H   0  0  0  0  0  0  0  0  0  0  0  0
    1.6037    2.9300    2.7757 H   0  0  0  0  0  0  0  0  0  0  0  0
    0.8076    3.6519    1.3612 H   0  0  0  0  0  0  0  0  0  0  0  0
  1  2  1  0  0  0  0
  2  3  1  0  0  0  0
  2  4  1  0  0  0  0
  2  5  1  0  0  0  0
  5  6  2  0  0  0  0
  5  7  1  0  0  0  0
  7  8  1  0  0  0  0
  7  9  1  0  0  0  0
  9 10  1  0  0  0  0
  9 11  1  0  0  0  0
  9 18  1  0  0  0  0
 11 12  1  0  0  0  0
 11 13  1  0  0  0  0
 11 14  1  0  0  0  0
 14 15  2  0  0  0  0
 14 16  1  0  0  0  0
 16 17  1  0  0  0  0
 18 19  2  0  0  0  0
 18 20  1  0  0  0  0
 20 21  1  0  0  0  0
 20 22  1  0  0  0  0
 22 23  1  0  0  0  0
 22 24  1  0  0  0  0
 22 25  1  0  0  0  0
M  END
$$$$

  -OEChem-02102214113D

 25 24  0     1  0  0  0  0  0999 V2000
   -2.7040   -3.9765    0.3519 H   0  0  0  0  0  0  0  0  0  0  0  0
   -2.7575   -2.9199    0.0753 C   0  0  0  0  0  0  0  0  0  0  0  0
   -3.3867   -2.3970    0.7997 H   0  0  0  0  0  0  0  0  0  0  0  0
   -3.2093   -2.8373   -0.9162 H   0  0  0  0  0  0  0  0  0  0  0  0
   -1.3680   -2.3114    0.0623 C   0  0  0  0  0  0  0  0  0  0  0  0
   -0.3959   -2.9982    0.3366 O   0  0  0  0  0  0  0  0  0  0  0  0
   -1.2063   -0.9801   -0.2601 N   0  0  0  0  0  0  0  0  0  0  0  0
   -2.0481   -0.4285   -0.4235 H   0  0  0  0  0  0  0  0  0  0  0  0
    0.0707   -0.2547   -0.2440 C   0  0  1  0  0  0  0  0  0  0  0  0
    0.7740   -0.8179    0.3787 H   0  0  0  0  0  0  0  0  0  0  0  0
    0.6517   -0.2285   -1.6768 C   0  0  0  0  0  0  0  0  0  0  0  0
    1.7174   -0.4657   -1.6263 H   0  0  0  0  0  0  0  0  0  0  0  0
    0.1826   -1.0015   -2.2927 H   0  0  0  0  0  0  0  0  0  0  0  0
    0.5148    1.1177   -2.3766 C   0  0  0  0  0  0  0  0  0  0  0  0
   -0.4879    1.3309   -3.0357 O   0  0  0  0  0  0  0  0  0  0  0  0
    1.5128    2.0174   -2.2126 O   0  0  0  0  0  0  0  0  0  0  0  0
    1.2250    2.8135   -2.6865 H   0  0  0  0  0  0  0  0  0  0  0  0
   -0.0655    1.1277    0.4352 C   0  0  0  0  0  0  0  0  0  0  0  0
   -1.0714    1.8028    0.2545 O   0  0  0  0  0  0  0  0  0  0  0  0
    0.8795    1.5574    1.3484 N   0  0  0  0  0  0  0  0  0  0  0  0
    1.7003    0.9757    1.4893 H   0  0  0  0  0  0  0  0  0  0  0  0
    0.7851    2.8270    2.0590 C   0  0  0  0  0  0  0  0  0  0  0  0
   -0.1341    2.8665    2.6531 H   0  0  0  0  0  0  0  0  0  0  0  0
    1.6377    2.9471    2.7345 H   0  0  0  0  0  0  0  0  0  0  0  0
    0.7836    3.6627    1.3512 H   0  0  0  0  0  0  0  0  0  0  0  0
  1  2  1  0  0  0  0
  2  3  1  0  0  0  0
  2  4  1  0  0  0  0
  2  5  1  0  0  0  0
  5  6  2  0  0  0  0
  5  7  1  0  0  0  0
  7  8  1  0  0  0  0
  7  9  1  0  0  0  0
  9 10  1  0  0  0  0
  9 11  1  0  0  0  0
  9 18  1  0  0  0  0
 11 12  1  0  0  0  0
 11 13  1  0  0  0  0
 11 14  1  0  0  0  0
 14 15  2  0  0  0  0
 14 16  1  0  0  0  0
 16 17  1  0  0  0  0
 18 19  2  0  0  0  0
 18 20  1  0  0  0  0
 20 21  1  0  0  0  0
 20 22  1  0  0  0  0
 22 23  1  0  0  0  0
 22 24  1  0  0  0  0
 22 25  1  0  0  0  0
M  END
$$$$

  -OEChem-02102214113D

 25 24  0     1  0  0  0  0  0999 V2000
   -2.6983   -3.9751    0.3575 H   0  0  0  0  0  0  0  0  0  0  0  0
   -2.7581   -2.9181    0.0837 C   0  0  0  0  0  0  0  0  0  0  0  0
   -3.3829   -2.3993    0.8148 H   0  0  0  0  0  0  0  0  0  0  0  0
   -3.2192   -2.8355   -0.9035 H   0  0  0  0  0  0  0  0  0  0  0  0
   -1.3709   -2.3044    0.0596 C   0  0  0  0  0  0  0  0  0  0  0  0
   -0.3943   -2.9887    0.3245 O   0  0  0  0  0  0  0  0  0  0  0  0
   -1.2158   -0.9728   -0.2654 N   0  0  0  0  0  0  0  0  0  0  0  0
   -2.0604   -0.4230   -0.4211 H   0  0  0  0  0  0  0  0  0  0  0  0
    0.0573   -0.2406   -0.2540 C   0  0  1  0  0  0  0  0  0  0  0  0
    0.7549   -0.8000    0.3785 H   0  0  0  0  0  0  0  0  0  0  0  0
    0.6592   -0.2305   -1.6780 C   0  0  0  0  0  0  0  0  0  0  0  0
    1.7250   -0.4631   -1.6063 H   0  0  0  0  0  0  0  0  0  0  0  0
    0.2037   -1.0145   -2.2896 H   0  0  0  0  0  0  0  0  0  0  0  0
    0.5268    1.1013   -2.4065 C   0  0  0  0  0  0  0  0  0  0  0  0
   -0.5619    1.4160   -2.8540 O   0  0  0  0  0  0  0  0  0  0  0  0
    1.6244    1.8893   -2.4792 O   0  0  0  0  0  0  0  0  0  0  0  0
    1.3350    2.6970   -2.9320 H   0  0  0  0  0  0  0  0  0  0  0  0
   -0.0696    1.1449    0.4202 C   0  0  0  0  0  0  0  0  0  0  0  0
   -1.0858    1.8117    0.2735 O   0  0  0  0  0  0  0  0  0  0  0  0
    0.8859    1.5712    1.3246 N   0  0  0  0  0  0  0  0  0  0  0  0
    1.7016    0.9822    1.4656 H   0  0  0  0  0  0  0  0  0  0  0  0
    0.7812    2.8202    2.0696 C   0  0  0  0  0  0  0  0  0  0  0  0
   -0.1098    2.8133    2.7062 H   0  0  0  0  0  0  0  0  0  0  0  0
    1.6601    2.9557    2.7071 H   0  0  0  0  0  0  0  0  0  0  0  0
    0.7174    3.6713    1.3835 H   0  0  0  0  0  0  0  0  0  0  0  0
  1  2  1  0  0  0  0
  2  3  1  0  0  0  0
  2  4  1  0  0  0  0
  2  5  1  0  0  0  0
  5  6  2  0  0  0  0
  5  7  1  0  0  0  0
  7  8  1  0  0  0  0
  7  9  1  0  0  0  0
  9 10  1  0  0  0  0
  9 11  1  0  0  0  0
  9 18  1  0  0  0  0
 11 12  1  0  0  0  0
 11 13  1  0  0  0  0
 11 14  1  0  0  0  0
 14 15  2  0  0  0  0
 14 16  1  0  0  0  0
 16 17  1  0  0  0  0
 18 19  2  0  0  0  0
 18 20  1  0  0  0  0
 20 21  1  0  0  0  0
 20 22  1  0  0  0  0
 22 23  1  0  0  0  0
 22 24  1  0  0  0  0
 22 25  1  0  0  0  0
M  END
$$$$

  -OEChem-02102214113D

 25 24  0     1  0  0  0  0  0999 V2000
   -2.6843   -3.9685    0.3773 H   0  0  0  0  0  0  0  0  0  0  0  0
   -2.7529   -2.9119    0.1037 C   0  0  0  0  0  0  0  0  0  0  0  0
   -3.3622   -2.3937    0.8481 H   0  0  0  0  0  0  0  0  0  0  0  0
   -3.2367   -2.8308   -0.8726 H   0  0  0  0  0  0  0  0  0  0  0  0
   -1.3681   -2.2951    0.0474 C   0  0  0  0  0  0  0  0  0  0  0  0
   -0.3834   -2.9792    0.2809 O   0  0  0  0  0  0  0  0  0  0  0  0
   -1.2245   -0.9609   -0.2718 N   0  0  0  0  0  0  0  0  0  0  0  0
   -2.0746   -0.4106   -0.3927 H   0  0  0  0  0  0  0  0  0  0  0  0
    0.0435   -0.2199   -0.2676 C   0  0  1  0  0  0  0  0  0  0  0  0
    0.7388   -0.7765    0.3698 H   0  0  0  0  0  0  0  0  0  0  0  0
    0.6620   -0.2207   -1.6858 C   0  0  0  0  0  0  0  0  0  0  0  0
    1.7273   -0.4488   -1.5937 H   0  0  0  0  0  0  0  0  0  0  0  0
    0.2194   -1.0182   -2.2889 H   0  0  0  0  0  0  0  0  0  0  0  0
    0.5392    1.0915   -2.4534 C   0  0  0  0  0  0  0  0  0  0  0  0
   -0.5695    1.5358   -2.6915 O   0  0  0  0  0  0  0  0  0  0  0  0
    1.6861    1.7201   -2.7998 O   0  0  0  0  0  0  0  0  0  0  0  0
    1.4114    2.5355   -3.2477 H   0  0  0  0  0  0  0  0  0  0  0  0
   -0.0825    1.1625    0.4143 C   0  0  0  0  0  0  0  0  0  0  0  0
   -1.1231    1.8017    0.3287 O   0  0  0  0  0  0  0  0  0  0  0  0
    0.8834    1.5846    1.3100 N   0  0  0  0  0  0  0  0  0  0  0  0
    1.7056    1.0001    1.4305 H   0  0  0  0  0  0  0  0  0  0  0  0
    0.7641    2.8046    2.1001 C   0  0  0  0  0  0  0  0  0  0  0  0
   -0.1069    2.7498    2.7617 H   0  0  0  0  0  0  0  0  0  0  0  0
    1.6572    2.9454    2.7163 H   0  0  0  0  0  0  0  0  0  0  0  0
    0.6546    3.6756    1.4454 H   0  0  0  0  0  0  0  0  0  0  0  0
  1  2  1  0  0  0  0
  2  3  1  0  0  0  0
  2  4  1  0  0  0  0
  2  5  1  0  0  0  0
  5  6  2  0  0  0  0
  5  7  1  0  0  0  0
  7  8  1  0  0  0  0
  7  9  1  0  0  0  0
  9 10  1  0  0  0  0
  9 11  1  0  0  0  0
  9 18  1  0  0  0  0
 11 12  1  0  0  0  0
 11 13  1  0  0  0  0
 11 14  1  0  0  0  0
 14 15  2  0  0  0  0
 14 16  1  0  0  0  0
 16 17  1  0  0  0  0
 18 19  2  0  0  0  0
 18 20  1  0  0  0  0
 20 21  1  0  0  0  0
 20 22  1  0  0  0  0
 22 23  1  0  0  0  0
 22 24  1  0  0  0  0
 22 25  1  0  0  0  0
M  END
$$$$

  -OEChem-02102214113D

 25 24  0     1  0  0  0  0  0999 V2000
   -2.6659   -3.9576    0.3894 H   0  0  0  0  0  0  0  0  0  0  0  0
   -2.7432   -2.8990    0.1264 C   0  0  0  0  0  0  0  0  0  0  0  0
   -3.3279   -2.3866    0.8942 H   0  0  0  0  0  0  0  0  0  0  0  0
   -3.2585   -2.8106   -0.8331 H   0  0  0  0  0  0  0  0  0  0  0  0
   -1.3612   -2.2807    0.0301 C   0  0  0  0  0  0  0  0  0  0  0  0
   -0.3687   -2.9658    0.2243 O   0  0  0  0  0  0  0  0  0  0  0  0
   -1.2302   -0.9428   -0.2785 N   0  0  0  0  0  0  0  0  0  0  0  0
   -2.0848   -0.3908   -0.3490 H   0  0  0  0  0  0  0  0  0  0  0  0
    0.0328   -0.1935   -0.2820 C   0  0  1  0  0  0  0  0  0  0  0  0
    0.7293   -0.7486    0.3556 H   0  0  0  0  0  0  0  0  0  0  0  0
    0.6600   -0.2037   -1.6981 C   0  0  0  0  0  0  0  0  0  0  0  0
    1.7251   -0.4251   -1.5891 H   0  0  0  0  0  0  0  0  0  0  0  0
    0.2288   -1.0168   -2.2883 H   0  0  0  0  0  0  0  0  0  0  0  0
    0.5506    1.0845   -2.5107 C   0  0  0  0  0  0  0  0  0  0  0  0
   -0.5077    1.6837   -2.5571 O   0  0  0  0  0  0  0  0  0  0  0  0
    1.6725    1.5093   -3.1363 O   0  0  0  0  0  0  0  0  0  0  0  0
    1.4244    2.3298   -3.5901 H   0  0  0  0  0  0  0  0  0  0  0  0
   -0.0964    1.1818    0.4144 C   0  0  0  0  0  0  0  0  0  0  0  0
   -1.1629    1.7837    0.3961 O   0  0  0  0  0  0  0  0  0  0  0  0
    0.8786    1.6001    1.3025 N   0  0  0  0  0  0  0  0  0  0  0  0
    1.7138    1.0292    1.3933 H   0  0  0  0  0  0  0  0  0  0  0  0
    0.7376    2.7806    2.1472 C   0  0  0  0  0  0  0  0  0  0  0  0
   -0.1032    2.6589    2.8383 H   0  0  0  0  0  0  0  0  0  0  0  0
    1.6478    2.9380    2.7338 H   0  0  0  0  0  0  0  0  0  0  0  0
    0.5638    3.6718    1.5347 H   0  0  0  0  0  0  0  0  0  0  0  0
  1  2  1  0  0  0  0
  2  3  1  0  0  0  0
  2  4  1  0  0  0  0
  2  5  1  0  0  0  0
  5  6  2  0  0  0  0
  5  7  1  0  0  0  0
  7  8  1  0  0  0  0
  7  9  1  0  0  0  0
  9 10  1  0  0  0  0
  9 11  1  0  0  0  0
  9 18  1  0  0  0  0
 11 12  1  0  0  0  0
 11 13  1  0  0  0  0
 11 14  1  0  0  0  0
 14 15  2  0  0  0  0
 14 16  1  0  0  0  0
 16 17  1  0  0  0  0
 18 19  2  0  0  0  0
 18 20  1  0  0  0  0
 20 21  1  0  0  0  0
 20 22  1  0  0  0  0
 22 23  1  0  0  0  0
 22 24  1  0  0  0  0
 22 25  1  0  0  0  0
M  END
$$$$

  -OEChem-02102214113D

 25 24  0     1  0  0  0  0  0999 V2000
   -2.6416   -3.9517    0.3994 H   0  0  0  0  0  0  0  0  0  0  0  0
   -2.7314   -2.8924    0.1438 C   0  0  0  0  0  0  0  0  0  0  0  0
   -3.2944   -2.3859    0.9314 H   0  0  0  0  0  0  0  0  0  0  0  0
   -3.2756   -2.8016   -0.7993 H   0  0  0  0  0  0  0  0  0  0  0  0
   -1.3553   -2.2686    0.0092 C   0  0  0  0  0  0  0  0  0  0  0  0
   -0.3551   -2.9531    0.1621 O   0  0  0  0  0  0  0  0  0  0  0  0
   -1.2376   -0.9259   -0.2837 N   0  0  0  0  0  0  0  0  0  0  0  0
   -2.0951   -0.3738   -0.3040 H   0  0  0  0  0  0  0  0  0  0  0  0
    0.0223   -0.1705   -0.2918 C   0  0  1  0  0  0  0  0  0  0  0  0
    0.7216   -0.7276    0.3408 H   0  0  0  0  0  0  0  0  0  0  0  0
    0.6501   -0.1815   -1.7103 C   0  0  0  0  0  0  0  0  0  0  0  0
    1.7152   -0.3985   -1.5936 H   0  0  0  0  0  0  0  0  0  0  0  0
    0.2251   -1.0047   -2.2906 H   0  0  0  0  0  0  0  0  0  0  0  0
    0.5554    1.0868   -2.5590 C   0  0  0  0  0  0  0  0  0  0  0  0
   -0.3837    1.8502   -2.4374 O   0  0  0  0  0  0  0  0  0  0  0  0
    1.5682    1.2952   -3.4313 O   0  0  0  0  0  0  0  0  0  0  0  0
    1.3541    2.1227   -3.8895 H   0  0  0  0  0  0  0  0  0  0  0  0
   -0.1120    1.1939    0.4260 C   0  0  0  0  0  0  0  0  0  0  0  0
   -1.1951    1.7664    0.4559 O   0  0  0  0  0  0  0  0  0  0  0  0
    0.8695    1.6061    1.3104 N   0  0  0  0  0  0  0  0  0  0  0  0
    1.7176    1.0505    1.3696 H   0  0  0  0  0  0  0  0  0  0  0  0
    0.7222    2.7621    2.1875 C   0  0  0  0  0  0  0  0  0  0  0  0
   -0.1056    2.6085    2.8878 H   0  0  0  0  0  0  0  0  0  0  0  0
    1.6388    2.9192    2.7642 H   0  0  0  0  0  0  0  0  0  0  0  0
    0.5245    3.6656    1.6008 H   0  0  0  0  0  0  0  0  0  0  0  0
  1  2  1  0  0  0  0
  2  3  1  0  0  0  0
  2  4  1  0  0  0  0
  2  5  1  0  0  0  0
  5  6  2  0  0  0  0
  5  7  1  0  0  0  0
  7  8  1  0  0  0  0
  7  9  1  0  0  0  0
  9 10  1  0  0  0  0
  9 11  1  0  0  0  0
  9 18  1  0  0  0  0
 11 12  1  0  0  0  0
 11 13  1  0  0  0  0
 11 14  1  0  0  0  0
 14 15  2  0  0  0  0
 14 16  1  0  0  0  0
 16 17  1  0  0  0  0
 18 19  2  0  0  0  0
 18 20  1  0  0  0  0
 20 21  1  0  0  0  0
 20 22  1  0  0  0  0
 22 23  1  0  0  0  0
 22 24  1  0  0  0  0
 22 25  1  0  0  0  0
M  END
$$$$

  -OEChem-02102214113D

 25 24  0     1  0  0  0  0  0999 V2000
   -2.6315   -3.9456    0.4014 H   0  0  0  0  0  0  0  0  0  0  0  0
   -2.7249   -2.8843    0.1551 C   0  0  0  0  0  0  0  0  0  0  0  0
   -3.2681   -2.3824    0.9594 H   0  0  0  0  0  0  0  0  0  0  0  0
   -3.2912   -2.7861   -0.7741 H   0  0  0  0  0  0  0  0  0  0  0  0
   -1.3511   -2.2621   -0.0083 C   0  0  0  0  0  0  0  0  0  0  0  0
   -0.3489   -2.9505    0.1095 O   0  0  0  0  0  0  0  0  0  0  0  0
   -1.2381   -0.9156   -0.2857 N   0  0  0  0  0  0  0  0  0  0  0  0
   -2.0939   -0.3608   -0.2642 H   0  0  0  0  0  0  0  0  0  0  0  0
    0.0224   -0.1606   -0.2965 C   0  0  1  0  0  0  0  0  0  0  0  0
    0.7268   -0.7221    0.3262 H   0  0  0  0  0  0  0  0  0  0  0  0
    0.6384   -0.1640   -1.7230 C   0  0  0  0  0  0  0  0  0  0  0  0
    1.7031   -0.3869   -1.6139 H   0  0  0  0  0  0  0  0  0  0  0  0
    0.2053   -0.9874   -2.2972 H   0  0  0  0  0  0  0  0  0  0  0  0
    0.5561    1.0939   -2.5911 C   0  0  0  0  0  0  0  0  0  0  0  0
   -0.1996    2.0080   -2.3233 O   0  0  0  0  0  0  0  0  0  0  0  0
    1.3815    1.1128   -3.6626 O   0  0  0  0  0  0  0  0  0  0  0  0
    1.2085    1.9540   -4.1130 H   0  0  0  0  0  0  0  0  0  0  0  0
   -0.1202    1.1914    0.4431 C   0  0  0  0  0  0  0  0  0  0  0  0
   -1.2141    1.7427    0.4965 O   0  0  0  0  0  0  0  0  0  0  0  0
    0.8610    1.6004    1.3292 N   0  0  0  0  0  0  0  0  0  0  0  0
    1.7234    1.0652    1.3622 H   0  0  0  0  0  0  0  0  0  0  0  0
    0.7109    2.7507    2.2131 C   0  0  0  0  0  0  0  0  0  0  0  0
   -0.1103    2.5871    2.9189 H   0  0  0  0  0  0  0  0  0  0  0  0
    1.6303    2.9126    2.7837 H   0  0  0  0  0  0  0  0  0  0  0  0
    0.5012    3.6551    1.6322 H   0  0  0  0  0  0  0  0  0  0  0  0
  1  2  1  0  0  0  0
  2  3  1  0  0  0  0
  2  4  1  0  0  0  0
  2  5  1  0  0  0  0
  5  6  2  0  0  0  0
  5  7  1  0  0  0  0
  7  8  1  0  0  0  0
  7  9  1  0  0  0  0
  9 10  1  0  0  0  0
  9 11  1  0  0  0  0
  9 18  1  0  0  0  0
 11 12  1  0  0  0  0
 11 13  1  0  0  0  0
 11 14  1  0  0  0  0
 14 15  2  0  0  0  0
 14 16  1  0  0  0  0
 16 17  1  0  0  0  0
 18 19  2  0  0  0  0
 18 20  1  0  0  0  0
 20 21  1  0  0  0  0
 20 22  1  0  0  0  0
 22 23  1  0  0  0  0
 22 24  1  0  0  0  0
 22 25  1  0  0  0  0
M  END
$$$$

  -OEChem-02102214113D

 25 24  0     1  0  0  0  0  0999 V2000
   -2.6299   -3.9405    0.4000 H   0  0  0  0  0  0  0  0  0  0  0  0
   -2.7228   -2.8780    0.1582 C   0  0  0  0  0  0  0  0  0  0  0  0
   -3.2592   -2.3778    0.9683 H   0  0  0  0  0  0  0  0  0  0  0  0
   -3.2957   -2.7750   -0.7665 H   0  0  0  0  0  0  0  0  0  0  0  0
   -1.3491   -2.2581   -0.0138 C   0  0  0  0  0  0  0  0  0  0  0  0
   -0.3479   -2.9503    0.0877 O   0  0  0  0  0  0  0  0  0  0  0  0
   -1.2347   -0.9099   -0.2826 N   0  0  0  0  0  0  0  0  0  0  0  0
   -2.0874   -0.3517   -0.2360 H   0  0  0  0  0  0  0  0  0  0  0  0
    0.0292   -0.1600   -0.2956 C   0  0  1  0  0  0  0  0  0  0  0  0
    0.7397   -0.7256    0.3168 H   0  0  0  0  0  0  0  0  0  0  0  0
    0.6268   -0.1552   -1.7319 C   0  0  0  0  0  0  0  0  0  0  0  0
    1.6907   -0.3875   -1.6383 H   0  0  0  0  0  0  0  0  0  0  0  0
    0.1798   -0.9743   -2.3019 H   0  0  0  0  0  0  0  0  0  0  0  0
    0.5515    1.1006   -2.6059 C   0  0  0  0  0  0  0  0  0  0  0  0
    0.0302    2.1290   -2.2200 O   0  0  0  0  0  0  0  0  0  0  0  0
    1.1172    0.9798   -3.8287 O   0  0  0  0  0  0  0  0  0  0  0  0
    0.9863    1.8357   -4.2654 H   0  0  0  0  0  0  0  0  0  0  0  0
   -0.1207    1.1834    0.4579 C   0  0  0  0  0  0  0  0  0  0  0  0
   -1.2183    1.7289    0.5097 O   0  0  0  0  0  0  0  0  0  0  0  0
    0.8574    1.5906    1.3480 N   0  0  0  0  0  0  0  0  0  0  0  0
    1.7320    1.0750    1.3592 H   0  0  0  0  0  0  0  0  0  0  0  0
    0.7076    2.7443    2.2273 C   0  0  0  0  0  0  0  0  0  0  0  0
   -0.1330    2.5967    2.9134 H   0  0  0  0  0  0  0  0  0  0  0  0
    1.6157    2.8894    2.8202 H   0  0  0  0  0  0  0  0  0  0  0  0
    0.5286    3.6517    1.6407 H   0  0  0  0  0  0  0  0  0  0  0  0
  1  2  1  0  0  0  0
  2  3  1  0  0  0  0
  2  4  1  0  0  0  0
  2  5  1  0  0  0  0
  5  6  2  0  0  0  0
  5  7  1  0  0  0  0
  7  8  1  0  0  0  0
  7  9  1  0  0  0  0
  9 10  1  0  0  0  0
  9 11  1  0  0  0  0
  9 18  1  0  0  0  0
 11 12  1  0  0  0  0
 11 13  1  0  0  0  0
 11 14  1  0  0  0  0
 14 15  2  0  0  0  0
 14 16  1  0  0  0  0
 16 17  1  0  0  0  0
 18 19  2  0  0  0  0
 18 20  1  0  0  0  0
 20 21  1  0  0  0  0
 20 22  1  0  0  0  0
 22 23  1  0  0  0  0
 22 24  1  0  0  0  0
 22 25  1  0  0  0  0
M  END
$$$$

  -OEChem-02102214113D

 25 24  0     1  0  0  0  0  0999 V2000
   -2.6399   -3.9351    0.4075 H   0  0  0  0  0  0  0  0  0  0  0  0
   -2.7272   -2.8737    0.1589 C   0  0  0  0  0  0  0  0  0  0  0  0
   -3.2615   -2.3660    0.9656 H   0  0  0  0  0  0  0  0  0  0  0  0
   -3.2991   -2.7742   -0.7669 H   0  0  0  0  0  0  0  0  0  0  0  0
   -1.3499   -2.2620   -0.0151 C   0  0  0  0  0  0  0  0  0  0  0  0
   -0.3533   -2.9608    0.0859 O   0  0  0  0  0  0  0  0  0  0  0  0
   -1.2256   -0.9141   -0.2810 N   0  0  0  0  0  0  0  0  0  0  0  0
   -2.0736   -0.3490   -0.2308 H   0  0  0  0  0  0  0  0  0  0  0  0
    0.0454   -0.1756   -0.2898 C   0  0  1  0  0  0  0  0  0  0  0  0
    0.7600   -0.7461    0.3131 H   0  0  0  0  0  0  0  0  0  0  0  0
    0.6207   -0.1581   -1.7364 C   0  0  0  0  0  0  0  0  0  0  0  0
    1.6827   -0.4051   -1.6646 H   0  0  0  0  0  0  0  0  0  0  0  0
    0.1541   -0.9656   -2.3082 H   0  0  0  0  0  0  0  0  0  0  0  0
    0.5489    1.1090   -2.5951 C   0  0  0  0  0  0  0  0  0  0  0  0
    0.3006    2.2003   -2.1191 O   0  0  0  0  0  0  0  0  0  0  0  0
    0.7981    0.9236   -3.9118 O   0  0  0  0  0  0  0  0  0  0  0  0
    0.7090    1.7975   -4.3224 H   0  0  0  0  0  0  0  0  0  0  0  0
   -0.1146    1.1625    0.4706 C   0  0  0  0  0  0  0  0  0  0  0  0
   -1.2088    1.7175    0.4916 O   0  0  0  0  0  0  0  0  0  0  0  0
    0.8523    1.5704    1.3722 N   0  0  0  0  0  0  0  0  0  0  0  0
    1.7345    1.0677    1.3791 H   0  0  0  0  0  0  0  0  0  0  0  0
    0.7071    2.7495    2.2174 C   0  0  0  0  0  0  0  0  0  0  0  0
   -0.1593    2.6433    2.8785 H   0  0  0  0  0  0  0  0  0  0  0  0
    1.5991    2.8838    2.8366 H   0  0  0  0  0  0  0  0  0  0  0  0
    0.5736    3.6461    1.6028 H   0  0  0  0  0  0  0  0  0  0  0  0
  1  2  1  0  0  0  0
  2  3  1  0  0  0  0
  2  4  1  0  0  0  0
  2  5  1  0  0  0  0
  5  6  2  0  0  0  0
  5  7  1  0  0  0  0
  7  8  1  0  0  0  0
  7  9  1  0  0  0  0
  9 10  1  0  0  0  0
  9 11  1  0  0  0  0
  9 18  1  0  0  0  0
 11 12  1  0  0  0  0
 11 13  1  0  0  0  0
 11 14  1  0  0  0  0
 14 15  2  0  0  0  0
 14 16  1  0  0  0  0
 16 17  1  0  0  0  0
 18 19  2  0  0  0  0
 18 20  1  0  0  0  0
 20 21  1  0  0  0  0
 20 22  1  0  0  0  0
 22 23  1  0  0  0  0
 22 24  1  0  0  0  0
 22 25  1  0  0  0  0
M  END
$$$$

  -OEChem-02102214113D

 25 24  0     1  0  0  0  0  0999 V2000
   -2.6587   -3.9322    0.4151 H   0  0  0  0  0  0  0  0  0  0  0  0
   -2.7347   -2.8717    0.1599 C   0  0  0  0  0  0  0  0  0  0  0  0
   -3.2725   -2.3552    0.9586 H   0  0  0  0  0  0  0  0  0  0  0  0
   -3.2966   -2.7727   -0.7719 H   0  0  0  0  0  0  0  0  0  0  0  0
   -1.3507   -2.2725   -0.0044 C   0  0  0  0  0  0  0  0  0  0  0  0
   -0.3605   -2.9787    0.1091 O   0  0  0  0  0  0  0  0  0  0  0  0
   -1.2136   -0.9274   -0.2779 N   0  0  0  0  0  0  0  0  0  0  0  0
   -2.0572   -0.3550   -0.2392 H   0  0  0  0  0  0  0  0  0  0  0  0
    0.0646   -0.2011   -0.2829 C   0  0  1  0  0  0  0  0  0  0  0  0
    0.7814   -0.7737    0.3155 H   0  0  0  0  0  0  0  0  0  0  0  0
    0.6206   -0.1730   -1.7365 C   0  0  0  0  0  0  0  0  0  0  0  0
    1.6807   -0.4332   -1.6865 H   0  0  0  0  0  0  0  0  0  0  0  0
    0.1360   -0.9661   -2.3133 H   0  0  0  0  0  0  0  0  0  0  0  0
    0.5454    1.1133   -2.5654 C   0  0  0  0  0  0  0  0  0  0  0  0
    0.5847    2.2108   -2.0401 O   0  0  0  0  0  0  0  0  0  0  0  0
    0.4526    0.9418   -3.9043 O   0  0  0  0  0  0  0  0  0  0  0  0
    0.4027    1.8333   -4.2821 H   0  0  0  0  0  0  0  0  0  0  0  0
   -0.1043    1.1393    0.4714 C   0  0  0  0  0  0  0  0  0  0  0  0
   -1.1909    1.7097    0.4493 O   0  0  0  0  0  0  0  0  0  0  0  0
    0.8492    1.5536    1.3839 N   0  0  0  0  0  0  0  0  0  0  0  0
    1.7380    1.0626    1.3920 H   0  0  0  0  0  0  0  0  0  0  0  0
    0.7067    2.7613    2.1881 C   0  0  0  0  0  0  0  0  0  0  0  0
   -0.1851    2.6983    2.8206 H   0  0  0  0  0  0  0  0  0  0  0  0
    1.5794    2.8908    2.8354 H   0  0  0  0  0  0  0  0  0  0  0  0
    0.6194    3.6417    1.5426 H   0  0  0  0  0  0  0  0  0  0  0  0
  1  2  1  0  0  0  0
  2  3  1  0  0  0  0
  2  4  1  0  0  0  0
  2  5  1  0  0  0  0
  5  6  2  0  0  0  0
  5  7  1  0  0  0  0
  7  8  1  0  0  0  0
  7  9  1  0  0  0  0
  9 10  1  0  0  0  0
  9 11  1  0  0  0  0
  9 18  1  0  0  0  0
 11 12  1  0  0  0  0
 11 13  1  0  0  0  0
 11 14  1  0  0  0  0
 14 15  2  0  0  0  0
 14 16  1  0  0  0  0
 16 17  1  0  0  0  0
 18 19  2  0  0  0  0
 18 20  1  0  0  0  0
 20 21  1  0  0  0  0
 20 22  1  0  0  0  0
 22 23  1  0  0  0  0
 22 24  1  0  0  0  0
 22 25  1  0  0  0  0
M  END
$$$$

  -OEChem-02102214113D

 25 24  0     1  0  0  0  0  0999 V2000
   -2.6781   -3.9396    0.4213 H   0  0  0  0  0  0  0  0  0  0  0  0
   -2.7430   -2.8814    0.1532 C   0  0  0  0  0  0  0  0  0  0  0  0
   -3.2964   -2.3536    0.9336 H   0  0  0  0  0  0  0  0  0  0  0  0
   -3.2829   -2.7892   -0.7923 H   0  0  0  0  0  0  0  0  0  0  0  0
   -1.3526   -2.2910    0.0145 C   0  0  0  0  0  0  0  0  0  0  0  0
   -0.3691   -3.0001    0.1609 O   0  0  0  0  0  0  0  0  0  0  0  0
   -1.2019   -0.9505   -0.2736 N   0  0  0  0  0  0  0  0  0  0  0  0
   -2.0427   -0.3730   -0.2646 H   0  0  0  0  0  0  0  0  0  0  0  0
    0.0820   -0.2343   -0.2734 C   0  0  1  0  0  0  0  0  0  0  0  0
    0.8000   -0.8058    0.3245 H   0  0  0  0  0  0  0  0  0  0  0  0
    0.6247   -0.1942   -1.7300 C   0  0  0  0  0  0  0  0  0  0  0  0
    1.6844   -0.4596   -1.6983 H   0  0  0  0  0  0  0  0  0  0  0  0
    0.1293   -0.9723   -2.3184 H   0  0  0  0  0  0  0  0  0  0  0  0
    0.5375    1.1187   -2.5114 C   0  0  0  0  0  0  0  0  0  0  0  0
    0.8571    2.1705   -1.9853 O   0  0  0  0  0  0  0  0  0  0  0  0
    0.1008    1.0334   -3.7891 O   0  0  0  0  0  0  0  0  0  0  0  0
    0.0820    1.9434   -4.1227 H   0  0  0  0  0  0  0  0  0  0  0  0
   -0.0941    1.1139    0.4644 C   0  0  0  0  0  0  0  0  0  0  0  0
   -1.1648    1.7085    0.3835 O   0  0  0  0  0  0  0  0  0  0  0  0
    0.8451    1.5386    1.3862 N   0  0  0  0  0  0  0  0  0  0  0  0
    1.7331    1.0467    1.4103 H   0  0  0  0  0  0  0  0  0  0  0  0
    0.7134    2.7835    2.1331 C   0  0  0  0  0  0  0  0  0  0  0  0
   -0.2035    2.7771    2.7317 H   0  0  0  0  0  0  0  0  0  0  0  0
    1.5641    2.9113    2.8092 H   0  0  0  0  0  0  0  0  0  0  0  0
    0.6817    3.6378    1.4485 H   0  0  0  0  0  0  0  0  0  0  0  0
  1  2  1  0  0  0  0
  2  3  1  0  0  0  0
  2  4  1  0  0  0  0
  2  5  1  0  0  0  0
  5  6  2  0  0  0  0
  5  7  1  0  0  0  0
  7  8  1  0  0  0  0
  7  9  1  0  0  0  0
  9 10  1  0  0  0  0
  9 11  1  0  0  0  0
  9 18  1  0  0  0  0
 11 12  1  0  0  0  0
 11 13  1  0  0  0  0
 11 14  1  0  0  0  0
 14 15  2  0  0  0  0
 14 16  1  0  0  0  0
 16 17  1  0  0  0  0
 18 19  2  0  0  0  0
 18 20  1  0  0  0  0
 20 21  1  0  0  0  0
 20 22  1  0  0  0  0
 22 23  1  0  0  0  0
 22 24  1  0  0  0  0
 22 25  1  0  0  0  0
M  END
$$$$

  -OEChem-02102214113D

 25 24  0     1  0  0  0  0  0999 V2000
   -2.6919   -3.9532    0.4261 H   0  0  0  0  0  0  0  0  0  0  0  0
   -2.7483   -2.8979    0.1449 C   0  0  0  0  0  0  0  0  0  0  0  0
   -3.3197   -2.3603    0.9055 H   0  0  0  0  0  0  0  0  0  0  0  0
   -3.2644   -2.8158   -0.8146 H   0  0  0  0  0  0  0  0  0  0  0  0
   -1.3540   -2.3108    0.0331 C   0  0  0  0  0  0  0  0  0  0  0  0
   -0.3753   -3.0180    0.2160 O   0  0  0  0  0  0  0  0  0  0  0  0
   -1.1954   -0.9750   -0.2717 N   0  0  0  0  0  0  0  0  0  0  0  0
   -2.0366   -0.3995   -0.3092 H   0  0  0  0  0  0  0  0  0  0  0  0
    0.0896   -0.2614   -0.2668 C   0  0  1  0  0  0  0  0  0  0  0  0
    0.8081   -0.8292    0.3341 H   0  0  0  0  0  0  0  0  0  0  0  0
    0.6287   -0.2135   -1.7214 C   0  0  0  0  0  0  0  0  0  0  0  0
    1.6894   -0.4756   -1.6997 H   0  0  0  0  0  0  0  0  0  0  0  0
    0.1308   -0.9785   -2.3241 H   0  0  0  0  0  0  0  0  0  0  0  0
    0.5213    1.1236   -2.4523 C   0  0  0  0  0  0  0  0  0  0  0  0
    1.0889    2.0999   -1.9909 O   0  0  0  0  0  0  0  0  0  0  0  0
   -0.2161    1.1560   -3.5863 O   0  0  0  0  0  0  0  0  0  0  0  0
   -0.2044    2.0791   -3.8825 H   0  0  0  0  0  0  0  0  0  0  0  0
   -0.0864    1.0985    0.4489 C   0  0  0  0  0  0  0  0  0  0  0  0
   -1.1374    1.7175    0.3144 O   0  0  0  0  0  0  0  0  0  0  0  0
    0.8437    1.5345    1.3742 N   0  0  0  0  0  0  0  0  0  0  0  0
    1.7228    1.0288    1.4273 H   0  0  0  0  0  0  0  0  0  0  0  0
    0.7247    2.8062    2.0770 C   0  0  0  0  0  0  0  0  0  0  0  0
   -0.2092    2.8444    2.6476 H   0  0  0  0  0  0  0  0  0  0  0  0
    1.5583    2.9325    2.7744 H   0  0  0  0  0  0  0  0  0  0  0  0
    0.7377    3.6386    1.3655 H   0  0  0  0  0  0  0  0  0  0  0  0
  1  2  1  0  0  0  0
  2  3  1  0  0  0  0
  2  4  1  0  0  0  0
  2  5  1  0  0  0  0
  5  6  2  0  0  0  0
  5  7  1  0  0  0  0
  7  8  1  0  0  0  0
  7  9  1  0  0  0  0
  9 10  1  0  0  0  0
  9 11  1  0  0  0  0
  9 18  1  0  0  0  0
 11 12  1  0  0  0  0
 11 13  1  0  0  0  0
 11 14  1  0  0  0  0
 14 15  2  0  0  0  0
 14 16  1  0  0  0  0
 16 17  1  0  0  0  0
 18 19  2  0  0  0  0
 18 20  1  0  0  0  0
 20 21  1  0  0  0  0
 20 22  1  0  0  0  0
 22 23  1  0  0  0  0
 22 24  1  0  0  0  0
 22 25  1  0  0  0  0
M  END
$$$$

  -OEChem-02102214113D

 25 24  0     1  0  0  0  0  0999 V2000
   -2.6951   -3.9735    0.4183 H   0  0  0  0  0  0  0  0  0  0  0  0
   -2.7516   -2.9190    0.1343 C   0  0  0  0  0  0  0  0  0  0  0  0
   -3.3370   -2.3829    0.8853 H   0  0  0  0  0  0  0  0  0  0  0  0
   -3.2533   -2.8409   -0.8331 H   0  0  0  0  0  0  0  0  0  0  0  0
   -1.3581   -2.3264    0.0435 C   0  0  0  0  0  0  0  0  0  0  0  0
   -0.3801   -3.0271    0.2535 O   0  0  0  0  0  0  0  0  0  0  0  0
   -1.1996   -0.9930   -0.2719 N   0  0  0  0  0  0  0  0  0  0  0  0
   -2.0429   -0.4248   -0.3482 H   0  0  0  0  0  0  0  0  0  0  0  0
    0.0820   -0.2743   -0.2627 C   0  0  1  0  0  0  0  0  0  0  0  0
    0.7983   -0.8390    0.3438 H   0  0  0  0  0  0  0  0  0  0  0  0
    0.6318   -0.2219   -1.7101 C   0  0  0  0  0  0  0  0  0  0  0  0
    1.6948   -0.4759   -1.6871 H   0  0  0  0  0  0  0  0  0  0  0  0
    0.1403   -0.9795   -2.3269 H   0  0  0  0  0  0  0  0  0  0  0  0
    0.5021    1.1317   -2.4003 C   0  0  0  0  0  0  0  0  0  0  0  0
    1.2658    2.0252   -2.0721 O   0  0  0  0  0  0  0  0  0  0  0  0
   -0.4640    1.2749   -3.3364 O   0  0  0  0  0  0  0  0  0  0  0  0
   -0.4270    2.2023   -3.6155 H   0  0  0  0  0  0  0  0  0  0  0  0
   -0.0850    1.0955    0.4357 C   0  0  0  0  0  0  0  0  0  0  0  0
   -1.1165    1.7372    0.2665 O   0  0  0  0  0  0  0  0  0  0  0  0
    0.8455    1.5362    1.3582 N   0  0  0  0  0  0  0  0  0  0  0  0
    1.7082    1.0070    1.4442 H   0  0  0  0  0  0  0  0  0  0  0  0
    0.7426    2.8239    2.0336 C   0  0  0  0  0  0  0  0  0  0  0  0
   -0.1888    2.8836    2.6066 H   0  0  0  0  0  0  0  0  0  0  0  0
    1.5805    2.9577    2.7245 H   0  0  0  0  0  0  0  0  0  0  0  0
    0.7609    3.6404    1.3038 H   0  0  0  0  0  0  0  0  0  0  0  0
  1  2  1  0  0  0  0
  2  3  1  0  0  0  0
  2  4  1  0  0  0  0
  2  5  1  0  0  0  0
  5  6  2  0  0  0  0
  5  7  1  0  0  0  0
  7  8  1  0  0  0  0
  7  9  1  0  0  0  0
  9 10  1  0  0  0  0
  9 11  1  0  0  0  0
  9 18  1  0  0  0  0
 11 12  1  0  0  0  0
 11 13  1  0  0  0  0
 11 14  1  0  0  0  0
 14 15  2  0  0  0  0
 14 16  1  0  0  0  0
 16 17  1  0  0  0  0
 18 19  2  0  0  0  0
 18 20  1  0  0  0  0
 20 21  1  0  0  0  0
 20 22  1  0  0  0  0
 22 23  1  0  0  0  0
 22 24  1  0  0  0  0
 22 25  1  0  0  0  0
M  END
$$$$

  -OEChem-02102214113D

 25 24  0     1  0  0  0  0  0999 V2000
   -2.6913   -3.9915    0.3977 H   0  0  0  0  0  0  0  0  0  0  0  0
   -2.7508   -2.9366    0.1161 C   0  0  0  0  0  0  0  0  0  0  0  0
   -3.3556   -2.4078    0.8568 H   0  0  0  0  0  0  0  0  0  0  0  0
   -3.2336   -2.8590   -0.8610 H   0  0  0  0  0  0  0  0  0  0  0  0
   -1.3609   -2.3317    0.0556 C   0  0  0  0  0  0  0  0  0  0  0  0
   -0.3820   -3.0223    0.2929 O   0  0  0  0  0  0  0  0  0  0  0  0
   -1.2073   -0.9987   -0.2645 N   0  0  0  0  0  0  0  0  0  0  0  0
   -2.0531   -0.4413   -0.3799 H   0  0  0  0  0  0  0  0  0  0  0  0
    0.0691   -0.2715   -0.2562 C   0  0  1  0  0  0  0  0  0  0  0  0
    0.7846   -0.8328    0.3543 H   0  0  0  0  0  0  0  0  0  0  0  0
    0.6281   -0.2227   -1.6980 C   0  0  0  0  0  0  0  0  0  0  0  0
    1.6933   -0.4689   -1.6702 H   0  0  0  0  0  0  0  0  0  0  0  0
    0.1433   -0.9804   -2.3198 H   0  0  0  0  0  0  0  0  0  0  0  0
    0.4788    1.1356   -2.3721 C   0  0  0  0  0  0  0  0  0  0  0  0
    1.3836    1.9438   -2.2438 O   0  0  0  0  0  0  0  0  0  0  0  0
   -0.6498    1.3729   -3.0795 O   0  0  0  0  0  0  0  0  0  0  0  0
   -0.5923    2.2952   -3.3717 H   0  0  0  0  0  0  0  0  0  0  0  0
   -0.0844    1.1050    0.4321 C   0  0  0  0  0  0  0  0  0  0  0  0
   -1.1023    1.7643    0.2528 O   0  0  0  0  0  0  0  0  0  0  0  0
    0.8549    1.5443    1.3462 N   0  0  0  0  0  0  0  0  0  0  0  0
    1.7010    0.9926    1.4552 H   0  0  0  0  0  0  0  0  0  0  0  0
    0.7652    2.8338    2.0201 C   0  0  0  0  0  0  0  0  0  0  0  0
   -0.1598    2.8988    2.6027 H   0  0  0  0  0  0  0  0  0  0  0  0
    1.6112    2.9650    2.7014 H   0  0  0  0  0  0  0  0  0  0  0  0
    0.7794    3.6487    1.2886 H   0  0  0  0  0  0  0  0  0  0  0  0
  1  2  1  0  0  0  0
  2  3  1  0  0  0  0
  2  4  1  0  0  0  0
  2  5  1  0  0  0  0
  5  6  2  0  0  0  0
  5  7  1  0  0  0  0
  7  8  1  0  0  0  0
  7  9  1  0  0  0  0
  9 10  1  0  0  0  0
  9 11  1  0  0  0  0
  9 18  1  0  0  0  0
 11 12  1  0  0  0  0
 11 13  1  0  0  0  0
 11 14  1  0  0  0  0
 14 15  2  0  0  0  0
 14 16  1  0  0  0  0
 16 17  1  0  0  0  0
 18 19  2  0  0  0  0
 18 20  1  0  0  0  0
 20 21  1  0  0  0  0
 20 22  1  0  0  0  0
 22 23  1  0  0  0  0
 22 24  1  0  0  0  0
 22 25  1  0  0  0  0
M  END
$$$$

  -OEChem-02102214113D

 25 24  0     1  0  0  0  0  0999 V2000
   -2.6793   -3.9996    0.3833 H   0  0  0  0  0  0  0  0  0  0  0  0
   -2.7474   -2.9435    0.1081 C   0  0  0  0  0  0  0  0  0  0  0  0
   -3.3629   -2.4254    0.8475 H   0  0  0  0  0  0  0  0  0  0  0  0
   -3.2236   -2.8649   -0.8722 H   0  0  0  0  0  0  0  0  0  0  0  0
   -1.3631   -2.3248    0.0624 C   0  0  0  0  0  0  0  0  0  0  0  0
   -0.3800   -3.0071    0.3060 O   0  0  0  0  0  0  0  0  0  0  0  0
   -1.2187   -0.9901   -0.2548 N   0  0  0  0  0  0  0  0  0  0  0  0
   -2.0681   -0.4417   -0.3857 H   0  0  0  0  0  0  0  0  0  0  0  0
    0.0519   -0.2529   -0.2517 C   0  0  1  0  0  0  0  0  0  0  0  0
    0.7664   -0.8131    0.3611 H   0  0  0  0  0  0  0  0  0  0  0  0
    0.6214   -0.2130   -1.6887 C   0  0  0  0  0  0  0  0  0  0  0  0
    1.6882   -0.4511   -1.6492 H   0  0  0  0  0  0  0  0  0  0  0  0
    0.1459   -0.9789   -2.3072 H   0  0  0  0  0  0  0  0  0  0  0  0
    0.4623    1.1385   -2.3745 C   0  0  0  0  0  0  0  0  0  0  0  0
    1.4477    1.8482   -2.4867 O   0  0  0  0  0  0  0  0  0  0  0  0
   -0.7555    1.4552   -2.8724 O   0  0  0  0  0  0  0  0  0  0  0  0
   -0.6765    2.3539   -3.2259 H   0  0  0  0  0  0  0  0  0  0  0  0
   -0.0855    1.1252    0.4366 C   0  0  0  0  0  0  0  0  0  0  0  0
   -1.1013    1.7919    0.2784 O   0  0  0  0  0  0  0  0  0  0  0  0
    0.8697    1.5563    1.3383 N   0  0  0  0  0  0  0  0  0  0  0  0
    1.7019    0.9853    1.4556 H   0  0  0  0  0  0  0  0  0  0  0  0
    0.7831    2.8276    2.0467 C   0  0  0  0  0  0  0  0  0  0  0  0
   -0.1260    2.8660    2.6563 H   0  0  0  0  0  0  0  0  0  0  0  0
    1.6464    2.9525    2.7073 H   0  0  0  0  0  0  0  0  0  0  0  0
    0.7669    3.6611    1.3365 H   0  0  0  0  0  0  0  0  0  0  0  0
  1  2  1  0  0  0  0
  2  3  1  0  0  0  0
  2  4  1  0  0  0  0
  2  5  1  0  0  0  0
  5  6  2  0  0  0  0
  5  7  1  0  0  0  0
  7  8  1  0  0  0  0
  7  9  1  0  0  0  0
  9 10  1  0  0  0  0
  9 11  1  0  0  0  0
  9 18  1  0  0  0  0
 11 12  1  0  0  0  0
 11 13  1  0  0  0  0
 11 14  1  0  0  0  0
 14 15  2  0  0  0  0
 14 16  1  0  0  0  0
 16 17  1  0  0  0  0
 18 19  2  0  0  0  0
 18 20  1  0  0  0  0
 20 21  1  0  0  0  0
 20 22  1  0  0  0  0
 22 23  1  0  0  0  0
 22 24  1  0  0  0  0
 22 25  1  0  0  0  0
M  END
$$$$

  -OEChem-02102214113D

 25 24  0     1  0  0  0  0  0999 V2000
   -2.6701   -3.9928    0.3772 H   0  0  0  0  0  0  0  0  0  0  0  0
   -2.7441   -2.9339    0.1145 C   0  0  0  0  0  0  0  0  0  0  0  0
   -3.3532   -2.4259    0.8659 H   0  0  0  0  0  0  0  0  0  0  0  0
   -3.2309   -2.8453   -0.8597 H   0  0  0  0  0  0  0  0  0  0  0  0
   -1.3620   -2.3107    0.0615 C   0  0  0  0  0  0  0  0  0  0  0  0
   -0.3745   -2.9902    0.2951 O   0  0  0  0  0  0  0  0  0  0  0  0
   -1.2255   -0.9738   -0.2492 N   0  0  0  0  0  0  0  0  0  0  0  0
   -2.0782   -0.4288   -0.3724 H   0  0  0  0  0  0  0  0  0  0  0  0
    0.0404   -0.2293   -0.2534 C   0  0  1  0  0  0  0  0  0  0  0  0
    0.7530   -0.7892    0.3614 H   0  0  0  0  0  0  0  0  0  0  0  0
    0.6223   -0.2009   -1.6859 C   0  0  0  0  0  0  0  0  0  0  0  0
    1.6898   -0.4333   -1.6316 H   0  0  0  0  0  0  0  0  0  0  0  0
    0.1561   -0.9785   -2.2969 H   0  0  0  0  0  0  0  0  0  0  0  0
    0.4643    1.1373   -2.3992 C   0  0  0  0  0  0  0  0  0  0  0  0
    1.4732    1.7195   -2.7596 O   0  0  0  0  0  0  0  0  0  0  0  0
   -0.7886    1.5505   -2.6995 O   0  0  0  0  0  0  0  0  0  0  0  0
   -0.6950    2.4120   -3.1327 H   0  0  0  0  0  0  0  0  0  0  0  0
   -0.0859    1.1466    0.4412 C   0  0  0  0  0  0  0  0  0  0  0  0
   -1.1142    1.8029    0.3306 O   0  0  0  0  0  0  0  0  0  0  0  0
    0.8845    1.5688    1.3313 N   0  0  0  0  0  0  0  0  0  0  0  0
    1.7127    0.9902    1.4398 H   0  0  0  0  0  0  0  0  0  0  0  0
    0.7856    2.8065    2.0959 C   0  0  0  0  0  0  0  0  0  0  0  0
   -0.0933    2.7843    2.7489 H   0  0  0  0  0  0  0  0  0  0  0  0
    1.6754    2.9386    2.7190 H   0  0  0  0  0  0  0  0  0  0  0  0
    0.7037    3.6671    1.4234 H   0  0  0  0  0  0  0  0  0  0  0  0
  1  2  1  0  0  0  0
  2  3  1  0  0  0  0
  2  4  1  0  0  0  0
  2  5  1  0  0  0  0
  5  6  2  0  0  0  0
  5  7  1  0  0  0  0
  7  8  1  0  0  0  0
  7  9  1  0  0  0  0
  9 10  1  0  0  0  0
  9 11  1  0  0  0  0
  9 18  1  0  0  0  0
 11 12  1  0  0  0  0
 11 13  1  0  0  0  0
 11 14  1  0  0  0  0
 14 15  2  0  0  0  0
 14 16  1  0  0  0  0
 16 17  1  0  0  0  0
 18 19  2  0  0  0  0
 18 20  1  0  0  0  0
 20 21  1  0  0  0  0
 20 22  1  0  0  0  0
 22 23  1  0  0  0  0
 22 24  1  0  0  0  0
 22 25  1  0  0  0  0
M  END
$$$$

  -OEChem-02102214113D

 25 24  0     1  0  0  0  0  0999 V2000
   -2.6547   -3.9865    0.3914 H   0  0  0  0  0  0  0  0  0  0  0  0
   -2.7381   -2.9292    0.1251 C   0  0  0  0  0  0  0  0  0  0  0  0
   -3.3389   -2.4213    0.8833 H   0  0  0  0  0  0  0  0  0  0  0  0
   -3.2397   -2.8475   -0.8422 H   0  0  0  0  0  0  0  0  0  0  0  0
   -1.3602   -2.2992    0.0484 C   0  0  0  0  0  0  0  0  0  0  0  0
   -0.3650   -2.9779    0.2495 O   0  0  0  0  0  0  0  0  0  0  0  0
   -1.2356   -0.9575   -0.2471 N   0  0  0  0  0  0  0  0  0  0  0  0
   -2.0931   -0.4129   -0.3348 H   0  0  0  0  0  0  0  0  0  0  0  0
    0.0257   -0.2050   -0.2549 C   0  0  1  0  0  0  0  0  0  0  0  0
    0.7359   -0.7678    0.3604 H   0  0  0  0  0  0  0  0  0  0  0  0
    0.6250   -0.1796   -1.6816 C   0  0  0  0  0  0  0  0  0  0  0  0
    1.6925   -0.4071   -1.6074 H   0  0  0  0  0  0  0  0  0  0  0  0
    0.1705   -0.9681   -2.2873 H   0  0  0  0  0  0  0  0  0  0  0  0
    0.4788    1.1425   -2.4298 C   0  0  0  0  0  0  0  0  0  0  0  0
    1.4561    1.5690   -3.0207 O   0  0  0  0  0  0  0  0  0  0  0  0
   -0.7562    1.6804   -2.5468 O   0  0  0  0  0  0  0  0  0  0  0  0
   -0.6564    2.4872   -3.0733 H   0  0  0  0  0  0  0  0  0  0  0  0
   -0.0943    1.1630    0.4565 C   0  0  0  0  0  0  0  0  0  0  0  0
   -1.1399    1.7987    0.4079 O   0  0  0  0  0  0  0  0  0  0  0  0
    0.8898    1.5725    1.3379 N   0  0  0  0  0  0  0  0  0  0  0  0
    1.7234    0.9971    1.4181 H   0  0  0  0  0  0  0  0  0  0  0  0
    0.7902    2.7834    2.1443 C   0  0  0  0  0  0  0  0  0  0  0  0
   -0.0816    2.7342    2.8053 H   0  0  0  0  0  0  0  0  0  0  0  0
    1.6854    2.9010    2.7624 H   0  0  0  0  0  0  0  0  0  0  0  0
    0.6955    3.6647    1.5013 H   0  0  0  0  0  0  0  0  0  0  0  0
  1  2  1  0  0  0  0
  2  3  1  0  0  0  0
  2  4  1  0  0  0  0
  2  5  1  0  0  0  0
  5  6  2  0  0  0  0
  5  7  1  0  0  0  0
  7  8  1  0  0  0  0
  7  9  1  0  0  0  0
  9 10  1  0  0  0  0
  9 11  1  0  0  0  0
  9 18  1  0  0  0  0
 11 12  1  0  0  0  0
 11 13  1  0  0  0  0
 11 14  1  0  0  0  0
 14 15  2  0  0  0  0
 14 16  1  0  0  0  0
 16 17  1  0  0  0  0
 18 19  2  0  0  0  0
 18 20  1  0  0  0  0
 20 21  1  0  0  0  0
 20 22  1  0  0  0  0
 22 23  1  0  0  0  0
 22 24  1  0  0  0  0
 22 25  1  0  0  0  0
M  END
$$$$

  -OEChem-02102214113D

 25 24  0     1  0  0  0  0  0999 V2000
   -2.6415   -3.9680    0.3973 H   0  0  0  0  0  0  0  0  0  0  0  0
   -2.7322   -2.9069    0.1487 C   0  0  0  0  0  0  0  0  0  0  0  0
   -3.3038   -2.4081    0.9352 H   0  0  0  0  0  0  0  0  0  0  0  0
   -3.2682   -2.8113   -0.7986 H   0  0  0  0  0  0  0  0  0  0  0  0
   -1.3568   -2.2780    0.0304 C   0  0  0  0  0  0  0  0  0  0  0  0
   -0.3566   -2.9603    0.1912 O   0  0  0  0  0  0  0  0  0  0  0  0
   -1.2402   -0.9333   -0.2549 N   0  0  0  0  0  0  0  0  0  0  0  0
   -2.0990   -0.3849   -0.2901 H   0  0  0  0  0  0  0  0  0  0  0  0
    0.0194   -0.1777   -0.2675 C   0  0  1  0  0  0  0  0  0  0  0  0
    0.7239   -0.7412    0.3533 H   0  0  0  0  0  0  0  0  0  0  0  0
    0.6362   -0.1676   -1.6890 C   0  0  0  0  0  0  0  0  0  0  0  0
    1.7026   -0.3912   -1.5924 H   0  0  0  0  0  0  0  0  0  0  0  0
    0.1933   -0.9722   -2.2821 H   0  0  0  0  0  0  0  0  0  0  0  0
    0.5142    1.1284   -2.4887 C   0  0  0  0  0  0  0  0  0  0  0  0
    1.4042    1.3687   -3.2862 O   0  0  0  0  0  0  0  0  0  0  0  0
   -0.6311    1.8418   -2.4216 O   0  0  0  0  0  0  0  0  0  0  0  0
   -0.5327    2.5821   -3.0383 H   0  0  0  0  0  0  0  0  0  0  0  0
   -0.0994    1.1840    0.4571 C   0  0  0  0  0  0  0  0  0  0  0  0
   -1.1683    1.7825    0.4774 O   0  0  0  0  0  0  0  0  0  0  0  0
    0.8935    1.5858    1.3329 N   0  0  0  0  0  0  0  0  0  0  0  0
    1.7321    1.0153    1.3926 H   0  0  0  0  0  0  0  0  0  0  0  0
    0.7676    2.7442    2.2098 C   0  0  0  0  0  0  0  0  0  0  0  0
   -0.0575    2.6017    2.9157 H   0  0  0  0  0  0  0  0  0  0  0  0
    1.6900    2.8898    2.7801 H   0  0  0  0  0  0  0  0  0  0  0  0
    0.5776    3.6496    1.6236 H   0  0  0  0  0  0  0  0  0  0  0  0
  1  2  1  0  0  0  0
  2  3  1  0  0  0  0
  2  4  1  0  0  0  0
  2  5  1  0  0  0  0
  5  6  2  0  0  0  0
  5  7  1  0  0  0  0
  7  8  1  0  0  0  0
  7  9  1  0  0  0  0
  9 10  1  0  0  0  0
  9 11  1  0  0  0  0
  9 18  1  0  0  0  0
 11 12  1  0  0  0  0
 11 13  1  0  0  0  0
 11 14  1  0  0  0  0
 14 15  2  0  0  0  0
 14 16  1  0  0  0  0
 16 17  1  0  0  0  0
 18 19  2  0  0  0  0
 18 20  1  0  0  0  0
 20 21  1  0  0  0  0
 20 22  1  0  0  0  0
 22 23  1  0  0  0  0
 22 24  1  0  0  0  0
 22 25  1  0  0  0  0
M  END
$$$$

  -OEChem-02102214113D

 25 24  0     1  0  0  0  0  0999 V2000
   -2.6332   -3.9597    0.3951 H   0  0  0  0  0  0  0  0  0  0  0  0
   -2.7283   -2.8982    0.1502 C   0  0  0  0  0  0  0  0  0  0  0  0
   -3.2864   -2.4012    0.9474 H   0  0  0  0  0  0  0  0  0  0  0  0
   -3.2804   -2.8008   -0.7876 H   0  0  0  0  0  0  0  0  0  0  0  0
   -1.3554   -2.2686    0.0097 C   0  0  0  0  0  0  0  0  0  0  0  0
   -0.3522   -2.9532    0.1389 O   0  0  0  0  0  0  0  0  0  0  0  0
   -1.2444   -0.9203   -0.2604 N   0  0  0  0  0  0  0  0  0  0  0  0
   -2.1028   -0.3698   -0.2515 H   0  0  0  0  0  0  0  0  0  0  0  0
    0.0146   -0.1627   -0.2687 C   0  0  1  0  0  0  0  0  0  0  0  0
    0.7164   -0.7285    0.3534 H   0  0  0  0  0  0  0  0  0  0  0  0
    0.6413   -0.1607   -1.6886 C   0  0  0  0  0  0  0  0  0  0  0  0
    1.7061   -0.3833   -1.5755 H   0  0  0  0  0  0  0  0  0  0  0  0
    0.2055   -0.9779   -2.2700 H   0  0  0  0  0  0  0  0  0  0  0  0
    0.5488    1.1092   -2.5366 C   0  0  0  0  0  0  0  0  0  0  0  0
    1.2885    1.1588   -3.5041 O   0  0  0  0  0  0  0  0  0  0  0  0
   -0.3980    2.0381   -2.2869 O   0  0  0  0  0  0  0  0  0  0  0  0
   -0.3132    2.7127   -2.9767 H   0  0  0  0  0  0  0  0  0  0  0  0
   -0.1141    1.1882    0.4748 C   0  0  0  0  0  0  0  0  0  0  0  0
   -1.1991    1.7566    0.5308 O   0  0  0  0  0  0  0  0  0  0  0  0
    0.8770    1.5850    1.3553 N   0  0  0  0  0  0  0  0  0  0  0  0
    1.7291    1.0332    1.3887 H   0  0  0  0  0  0  0  0  0  0  0  0
    0.7428    2.7266    2.2530 C   0  0  0  0  0  0  0  0  0  0  0  0
   -0.0837    2.5684    2.9539 H   0  0  0  0  0  0  0  0  0  0  0  0
    1.6628    2.8653    2.8288 H   0  0  0  0  0  0  0  0  0  0  0  0
    0.5512    3.6418    1.6830 H   0  0  0  0  0  0  0  0  0  0  0  0
  1  2  1  0  0  0  0
  2  3  1  0  0  0  0
  2  4  1  0  0  0  0
  2  5  1  0  0  0  0
  5  6  2  0  0  0  0
  5  7  1  0  0  0  0
  7  8  1  0  0  0  0
  7  9  1  0  0  0  0
  9 10  1  0  0  0  0
  9 11  1  0  0  0  0
  9 18  1  0  0  0  0
 11 12  1  0  0  0  0
 11 13  1  0  0  0  0
 11 14  1  0  0  0  0
 14 15  2  0  0  0  0
 14 16  1  0  0  0  0
 16 17  1  0  0  0  0
 18 19  2  0  0  0  0
 18 20  1  0  0  0  0
 20 21  1  0  0  0  0
 20 22  1  0  0  0  0
 22 23  1  0  0  0  0
 22 24  1  0  0  0  0
 22 25  1  0  0  0  0
M  END
$$$$

  -OEChem-02102214113D

 25 24  0     1  0  0  0  0  0999 V2000
   -2.6430   -3.9519    0.3902 H   0  0  0  0  0  0  0  0  0  0  0  0
   -2.7197   -2.8881    0.1483 C   0  0  0  0  0  0  0  0  0  0  0  0
   -3.2652   -2.3835    0.9493 H   0  0  0  0  0  0  0  0  0  0  0  0
   -3.2744   -2.7776   -0.7866 H   0  0  0  0  0  0  0  0  0  0  0  0
   -1.3360   -2.2831    0.0041 C   0  0  0  0  0  0  0  0  0  0  0  0
   -0.3443   -2.9840    0.1326 O   0  0  0  0  0  0  0  0  0  0  0  0
   -1.2010   -0.9362   -0.2603 N   0  0  0  0  0  0  0  0  0  0  0  0
   -2.0469   -0.3668   -0.2325 H   0  0  0  0  0  0  0  0  0  0  0  0
    0.0762   -0.2076   -0.2558 C   0  0  1  0  0  0  0  0  0  0  0  0
    0.8009   -0.7739    0.3394 H   0  0  0  0  0  0  0  0  0  0  0  0
    0.6268   -0.1598   -1.7141 C   0  0  0  0  0  0  0  0  0  0  0  0
    1.5813   -0.6931   -1.7106 H   0  0  0  0  0  0  0  0  0  0  0  0
   -0.0472   -0.7319   -2.3585 H   0  0  0  0  0  0  0  0  0  0  0  0
    0.8797    1.1729   -2.4325 C   0  0  0  0  0  0  0  0  0  0  0  0
    1.3087    1.0700   -3.5688 O   0  0  0  0  0  0  0  0  0  0  0  0
    0.7283    2.3653   -1.8170 O   0  0  0  0  0  0  0  0  0  0  0  0
    0.9459    3.0402   -2.4775 H   0  0  0  0  0  0  0  0  0  0  0  0
   -0.1213    1.1216    0.5104 C   0  0  0  0  0  0  0  0  0  0  0  0
   -1.2055    1.6958    0.4611 O   0  0  0  0  0  0  0  0  0  0  0  0
    0.8160    1.5397    1.4379 N   0  0  0  0  0  0  0  0  0  0  0  0
    1.6958    1.0344    1.4813 H   0  0  0  0  0  0  0  0  0  0  0  0
    0.6471    2.7331    2.2577 C   0  0  0  0  0  0  0  0  0  0  0  0
   -0.2433    2.6422    2.8887 H   0  0  0  0  0  0  0  0  0  0  0  0
    1.5169    2.8734    2.9065 H   0  0  0  0  0  0  0  0  0  0  0  0
    0.5404    3.6197    1.6239 H   0  0  0  0  0  0  0  0  0  0  0  0
  1  2  1  0  0  0  0
  2  3  1  0  0  0  0
  2  4  1  0  0  0  0
  2  5  1  0  0  0  0
  5  6  2  0  0  0  0
  5  7  1  0  0  0  0
  7  8  1  0  0  0  0
  7  9  1  0  0  0  0
  9 10  1  0  0  0  0
  9 11  1  0  0  0  0
  9 18  1  0  0  0  0
 11 12  1  0  0  0  0
 11 13  1  0  0  0  0
 11 14  1  0  0  0  0
 14 15  2  0  0  0  0
 14 16  1  0  0  0  0
 16 17  1  0  0  0  0
 18 19  2  0  0  0  0
 18 20  1  0  0  0  0
 20 21  1  0  0  0  0
 20 22  1  0  0  0  0
 22 23  1  0  0  0  0
 22 24  1  0  0  0  0
 22 25  1  0  0  0  0
M  END
$$$$

  -OEChem-02102214113D

 25 24  0     1  0  0  0  0  0999 V2000
   -2.6546   -3.9564    0.4028 H   0  0  0  0  0  0  0  0  0  0  0  0
   -2.7229   -2.8965    0.1422 C   0  0  0  0  0  0  0  0  0  0  0  0
   -3.2853   -2.3776    0.9222 H   0  0  0  0  0  0  0  0  0  0  0  0
   -3.2555   -2.8002   -0.8069 H   0  0  0  0  0  0  0  0  0  0  0  0
   -1.3348   -2.2969    0.0196 C   0  0  0  0  0  0  0  0  0  0  0  0
   -0.3482   -3.0000    0.1731 O   0  0  0  0  0  0  0  0  0  0  0  0
   -1.1894   -0.9528   -0.2532 N   0  0  0  0  0  0  0  0  0  0  0  0
   -2.0333   -0.3797   -0.2543 H   0  0  0  0  0  0  0  0  0  0  0  0
    0.0937   -0.2344   -0.2471 C   0  0  1  0  0  0  0  0  0  0  0  0
    0.8293   -0.8003    0.3349 H   0  0  0  0  0  0  0  0  0  0  0  0
    0.6060   -0.1590   -1.7177 C   0  0  0  0  0  0  0  0  0  0  0  0
    1.5578   -0.6950   -1.7554 H   0  0  0  0  0  0  0  0  0  0  0  0
   -0.0872   -0.7089   -2.3617 H   0  0  0  0  0  0  0  0  0  0  0  0
    0.8460    1.1999   -2.3870 C   0  0  0  0  0  0  0  0  0  0  0  0
    0.9619    1.1718   -3.6001 O   0  0  0  0  0  0  0  0  0  0  0  0
    1.1378    2.2978   -1.6529 O   0  0  0  0  0  0  0  0  0  0  0  0
    1.3015    3.0091   -2.2910 H   0  0  0  0  0  0  0  0  0  0  0  0
   -0.1198    1.0956    0.5133 C   0  0  0  0  0  0  0  0  0  0  0  0
   -1.1822    1.6992    0.3944 O   0  0  0  0  0  0  0  0  0  0  0  0
    0.8003    1.5249    1.4524 N   0  0  0  0  0  0  0  0  0  0  0  0
    1.6843    1.0278    1.5050 H   0  0  0  0  0  0  0  0  0  0  0  0
    0.6403    2.7565    2.2153 C   0  0  0  0  0  0  0  0  0  0  0  0
   -0.2920    2.7341    2.7894 H   0  0  0  0  0  0  0  0  0  0  0  0
    1.4723    2.8792    2.9153 H   0  0  0  0  0  0  0  0  0  0  0  0
    0.6203    3.6212    1.5438 H   0  0  0  0  0  0  0  0  0  0  0  0
  1  2  1  0  0  0  0
  2  3  1  0  0  0  0
  2  4  1  0  0  0  0
  2  5  1  0  0  0  0
  5  6  2  0  0  0  0
  5  7  1  0  0  0  0
  7  8  1  0  0  0  0
  7  9  1  0  0  0  0
  9 10  1  0  0  0  0
  9 11  1  0  0  0  0
  9 18  1  0  0  0  0
 11 12  1  0  0  0  0
 11 13  1  0  0  0  0
 11 14  1  0  0  0  0
 14 15  2  0  0  0  0
 14 16  1  0  0  0  0
 16 17  1  0  0  0  0
 18 19  2  0  0  0  0
 18 20  1  0  0  0  0
 20 21  1  0  0  0  0
 20 22  1  0  0  0  0
 22 23  1  0  0  0  0
 22 24  1  0  0  0  0
 22 25  1  0  0  0  0
M  END
$$$$

  -OEChem-02102214113D

 25 24  0     1  0  0  0  0  0999 V2000
   -2.6717   -3.9634    0.3916 H   0  0  0  0  0  0  0  0  0  0  0  0
   -2.7325   -2.9042    0.1265 C   0  0  0  0  0  0  0  0  0  0  0  0
   -3.3096   -2.3819    0.8934 H   0  0  0  0  0  0  0  0  0  0  0  0
   -3.2458   -2.8096   -0.8335 H   0  0  0  0  0  0  0  0  0  0  0  0
   -1.3408   -2.3085    0.0298 C   0  0  0  0  0  0  0  0  0  0  0  0
   -0.3595   -3.0126    0.2102 O   0  0  0  0  0  0  0  0  0  0  0  0
   -1.1859   -0.9674   -0.2529 N   0  0  0  0  0  0  0  0  0  0  0  0
   -2.0280   -0.3929   -0.2866 H   0  0  0  0  0  0  0  0  0  0  0  0
    0.0997   -0.2542   -0.2388 C   0  0  1  0  0  0  0  0  0  0  0  0
    0.8338   -0.8206    0.3446 H   0  0  0  0  0  0  0  0  0  0  0  0
    0.6094   -0.1687   -1.7071 C   0  0  0  0  0  0  0  0  0  0  0  0
    1.5639   -0.6983   -1.7571 H   0  0  0  0  0  0  0  0  0  0  0  0
   -0.0832   -0.7071   -2.3617 H   0  0  0  0  0  0  0  0  0  0  0  0
    0.8387    1.2151   -2.3211 C   0  0  0  0  0  0  0  0  0  0  0  0
    0.6759    1.3094   -3.5254 O   0  0  0  0  0  0  0  0  0  0  0  0
    1.4304    2.1836   -1.5826 O   0  0  0  0  0  0  0  0  0  0  0  0
    1.5361    2.9411   -2.1788 H   0  0  0  0  0  0  0  0  0  0  0  0
   -0.1113    1.0848    0.5065 C   0  0  0  0  0  0  0  0  0  0  0  0
   -1.1495    1.7162    0.3354 O   0  0  0  0  0  0  0  0  0  0  0  0
    0.8000    1.5202    1.4513 N   0  0  0  0  0  0  0  0  0  0  0  0
    1.6765    1.0123    1.5242 H   0  0  0  0  0  0  0  0  0  0  0  0
    0.6602    2.7835    2.1651 C   0  0  0  0  0  0  0  0  0  0  0  0
   -0.2847    2.8100    2.7183 H   0  0  0  0  0  0  0  0  0  0  0  0
    1.4798    2.9079    2.8792 H   0  0  0  0  0  0  0  0  0  0  0  0
    0.6811    3.6230    1.4622 H   0  0  0  0  0  0  0  0  0  0  0  0
  1  2  1  0  0  0  0
  2  3  1  0  0  0  0
  2  4  1  0  0  0  0
  2  5  1  0  0  0  0
  5  6  2  0  0  0  0
  5  7  1  0  0  0  0
  7  8  1  0  0  0  0
  7  9  1  0  0  0  0
  9 10  1  0  0  0  0
  9 11  1  0  0  0  0
  9 18  1  0  0  0  0
 11 12  1  0  0  0  0
 11 13  1  0  0  0  0
 11 14  1  0  0  0  0
 14 15  2  0  0  0  0
 14 16  1  0  0  0  0
 16 17  1  0  0  0  0
 18 19  2  0  0  0  0
 18 20  1  0  0  0  0
 20 21  1  0  0  0  0
 20 22  1  0  0  0  0
 22 23  1  0  0  0  0
 22 24  1  0  0  0  0
 22 25  1  0  0  0  0
M  END
$$$$

  -OEChem-02102214113D

 25 24  0     1  0  0  0  0  0999 V2000
   -2.6866   -3.9654    0.3869 H   0  0  0  0  0  0  0  0  0  0  0  0
   -2.7410   -2.9080    0.1130 C   0  0  0  0  0  0  0  0  0  0  0  0
   -3.3348   -2.3799    0.8629 H   0  0  0  0  0  0  0  0  0  0  0  0
   -3.2325   -2.8206   -0.8590 H   0  0  0  0  0  0  0  0  0  0  0  0
   -1.3472   -2.3131    0.0431 C   0  0  0  0  0  0  0  0  0  0  0  0
   -0.3709   -3.0143    0.2589 O   0  0  0  0  0  0  0  0  0  0  0  0
   -1.1855   -0.9761   -0.2550 N   0  0  0  0  0  0  0  0  0  0  0  0
   -2.0267   -0.4044   -0.3302 H   0  0  0  0  0  0  0  0  0  0  0  0
    0.1008   -0.2650   -0.2367 C   0  0  1  0  0  0  0  0  0  0  0  0
    0.8290   -0.8293    0.3562 H   0  0  0  0  0  0  0  0  0  0  0  0
    0.6234   -0.1854   -1.6979 C   0  0  0  0  0  0  0  0  0  0  0  0
    1.5815   -0.7089   -1.7441 H   0  0  0  0  0  0  0  0  0  0  0  0
   -0.0612   -0.7202   -2.3637 H   0  0  0  0  0  0  0  0  0  0  0  0
    0.8440    1.2136   -2.2725 C   0  0  0  0  0  0  0  0  0  0  0  0
    0.4357    1.4319   -3.4001 O   0  0  0  0  0  0  0  0  0  0  0  0
    1.6423    2.0724   -1.5932 O   0  0  0  0  0  0  0  0  0  0  0  0
    1.6910    2.8716   -2.1405 H   0  0  0  0  0  0  0  0  0  0  0  0
   -0.0972    1.0878    0.4866 C   0  0  0  0  0  0  0  0  0  0  0  0
   -1.1178    1.7381    0.2877 O   0  0  0  0  0  0  0  0  0  0  0  0
    0.8150    1.5258    1.4288 N   0  0  0  0  0  0  0  0  0  0  0  0
    1.6806    1.0021    1.5204 H   0  0  0  0  0  0  0  0  0  0  0  0
    0.6890    2.7999    2.1256 C   0  0  0  0  0  0  0  0  0  0  0  0
   -0.2629    2.8500    2.6648 H   0  0  0  0  0  0  0  0  0  0  0  0
    1.5009    2.9169    2.8499 H   0  0  0  0  0  0  0  0  0  0  0  0
    0.7354    3.6307    1.4138 H   0  0  0  0  0  0  0  0  0  0  0  0
  1  2  1  0  0  0  0
  2  3  1  0  0  0  0
  2  4  1  0  0  0  0
  2  5  1  0  0  0  0
  5  6  2  0  0  0  0
  5  7  1  0  0  0  0
  7  8  1  0  0  0  0
  7  9  1  0  0  0  0
  9 10  1  0  0  0  0
  9 11  1  0  0  0  0
  9 18  1  0  0  0  0
 11 12  1  0  0  0  0
 11 13  1  0  0  0  0
 11 14  1  0  0  0  0
 14 15  2  0  0  0  0
 14 16  1  0  0  0  0
 16 17  1  0  0  0  0
 18 19  2  0  0  0  0
 18 20  1  0  0  0  0
 20 21  1  0  0  0  0
 20 22  1  0  0  0  0
 22 23  1  0  0  0  0
 22 24  1  0  0  0  0
 22 25  1  0  0  0  0
M  END
$$$$

  -OEChem-02102214113D

 25 24  0     1  0  0  0  0  0999 V2000
   -2.6982   -3.9652    0.3794 H   0  0  0  0  0  0  0  0  0  0  0  0
   -2.7490   -2.9082    0.1035 C   0  0  0  0  0  0  0  0  0  0  0  0
   -3.3510   -2.3787    0.8459 H   0  0  0  0  0  0  0  0  0  0  0  0
   -3.2291   -2.8213   -0.8741 H   0  0  0  0  0  0  0  0  0  0  0  0
   -1.3541   -2.3142    0.0485 C   0  0  0  0  0  0  0  0  0  0  0  0
   -0.3809   -3.0141    0.2816 O   0  0  0  0  0  0  0  0  0  0  0  0
   -1.1876   -0.9805   -0.2611 N   0  0  0  0  0  0  0  0  0  0  0  0
   -2.0274   -0.4100   -0.3569 H   0  0  0  0  0  0  0  0  0  0  0  0
    0.0985   -0.2698   -0.2404 C   0  0  1  0  0  0  0  0  0  0  0  0
    0.8176   -0.8322    0.3647 H   0  0  0  0  0  0  0  0  0  0  0  0
    0.6424   -0.2060   -1.6919 C   0  0  0  0  0  0  0  0  0  0  0  0
    1.6033   -0.7256   -1.7243 H   0  0  0  0  0  0  0  0  0  0  0  0
   -0.0311   -0.7432   -2.3671 H   0  0  0  0  0  0  0  0  0  0  0  0
    0.8587    1.1985   -2.2484 C   0  0  0  0  0  0  0  0  0  0  0  0
    0.2425    1.5274   -3.2470 O   0  0  0  0  0  0  0  0  0  0  0  0
    1.8057    1.9719   -1.6647 O   0  0  0  0  0  0  0  0  0  0  0  0
    1.8031    2.8053   -2.1610 H   0  0  0  0  0  0  0  0  0  0  0  0
   -0.0825    1.0948    0.4647 C   0  0  0  0  0  0  0  0  0  0  0  0
   -1.0938    1.7558    0.2581 O   0  0  0  0  0  0  0  0  0  0  0  0
    0.8343    1.5337    1.4018 N   0  0  0  0  0  0  0  0  0  0  0  0
    1.6882    0.9943    1.5114 H   0  0  0  0  0  0  0  0  0  0  0  0
    0.7165    2.8117    2.0929 C   0  0  0  0  0  0  0  0  0  0  0  0
   -0.2295    2.8652    2.6421 H   0  0  0  0  0  0  0  0  0  0  0  0
    1.5362    2.9327    2.8077 H   0  0  0  0  0  0  0  0  0  0  0  0
    0.7554    3.6385    1.3759 H   0  0  0  0  0  0  0  0  0  0  0  0
  1  2  1  0  0  0  0
  2  3  1  0  0  0  0
  2  4  1  0  0  0  0
  2  5  1  0  0  0  0
  5  6  2  0  0  0  0
  5  7  1  0  0  0  0
  7  8  1  0  0  0  0
  7  9  1  0  0  0  0
  9 10  1  0  0  0  0
  9 11  1  0  0  0  0
  9 18  1  0  0  0  0
 11 12  1  0  0  0  0
 11 13  1  0  0  0  0
 11 14  1  0  0  0  0
 14 15  2  0  0  0  0
 14 16  1  0  0  0  0
 16 17  1  0  0  0  0
 18 19  2  0  0  0  0
 18 20  1  0  0  0  0
 20 21  1  0  0  0  0
 20 22  1  0  0  0  0
 22 23  1  0  0  0  0
 22 24  1  0  0  0  0
 22 25  1  0  0  0  0
M  END
$$$$

  -OEChem-02102214113D

 25 24  0     1  0  0  0  0  0999 V2000
   -2.7044   -3.9642    0.3813 H   0  0  0  0  0  0  0  0  0  0  0  0
   -2.7544   -2.9087    0.0997 C   0  0  0  0  0  0  0  0  0  0  0  0
   -3.3618   -2.3759    0.8354 H   0  0  0  0  0  0  0  0  0  0  0  0
   -3.2284   -2.8278   -0.8815 H   0  0  0  0  0  0  0  0  0  0  0  0
   -1.3599   -2.3138    0.0512 C   0  0  0  0  0  0  0  0  0  0  0  0
   -0.3878   -3.0107    0.2983 O   0  0  0  0  0  0  0  0  0  0  0  0
   -1.1928   -0.9825   -0.2682 N   0  0  0  0  0  0  0  0  0  0  0  0
   -2.0327   -0.4157   -0.3840 H   0  0  0  0  0  0  0  0  0  0  0  0
    0.0916   -0.2694   -0.2485 C   0  0  1  0  0  0  0  0  0  0  0  0
    0.8026   -0.8292    0.3689 H   0  0  0  0  0  0  0  0  0  0  0  0
    0.6580   -0.2230   -1.6901 C   0  0  0  0  0  0  0  0  0  0  0  0
    1.6211   -0.7392   -1.7053 H   0  0  0  0  0  0  0  0  0  0  0  0
   -0.0037   -0.7658   -2.3721 H   0  0  0  0  0  0  0  0  0  0  0  0
    0.8707    1.1815   -2.2435 C   0  0  0  0  0  0  0  0  0  0  0  0
    0.0857    1.6097   -3.0709 O   0  0  0  0  0  0  0  0  0  0  0  0
    1.9419    1.8772   -1.7940 O   0  0  0  0  0  0  0  0  0  0  0  0
    1.8990    2.7371   -2.2413 H   0  0  0  0  0  0  0  0  0  0  0  0
   -0.0737    1.1049    0.4418 C   0  0  0  0  0  0  0  0  0  0  0  0
   -1.0847    1.7683    0.2451 O   0  0  0  0  0  0  0  0  0  0  0  0
    0.8517    1.5423    1.3713 N   0  0  0  0  0  0  0  0  0  0  0  0
    1.6955    0.9894    1.4921 H   0  0  0  0  0  0  0  0  0  0  0  0
    0.7407    2.8178    2.0684 C   0  0  0  0  0  0  0  0  0  0  0  0
   -0.1968    2.8666    2.6325 H   0  0  0  0  0  0  0  0  0  0  0  0
    1.5713    2.9391    2.7703 H   0  0  0  0  0  0  0  0  0  0  0  0
    0.7658    3.6477    1.3544 H   0  0  0  0  0  0  0  0  0  0  0  0
  1  2  1  0  0  0  0
  2  3  1  0  0  0  0
  2  4  1  0  0  0  0
  2  5  1  0  0  0  0
  5  6  2  0  0  0  0
  5  7  1  0  0  0  0
  7  8  1  0  0  0  0
  7  9  1  0  0  0  0
  9 10  1  0  0  0  0
  9 11  1  0  0  0  0
  9 18  1  0  0  0  0
 11 12  1  0  0  0  0
 11 13  1  0  0  0  0
 11 14  1  0  0  0  0
 14 15  2  0  0  0  0
 14 16  1  0  0  0  0
 16 17  1  0  0  0  0
 18 19  2  0  0  0  0
 18 20  1  0  0  0  0
 20 21  1  0  0  0  0
 20 22  1  0  0  0  0
 22 23  1  0  0  0  0
 22 24  1  0  0  0  0
 22 25  1  0  0  0  0
M  END
$$$$

  -OEChem-02102214113D

 25 24  0     1  0  0  0  0  0999 V2000
   -2.7040   -3.9587    0.3877 H   0  0  0  0  0  0  0  0  0  0  0  0
   -2.7561   -2.9036    0.1053 C   0  0  0  0  0  0  0  0  0  0  0  0
   -3.3620   -2.3709    0.8423 H   0  0  0  0  0  0  0  0  0  0  0  0
   -3.2329   -2.8237   -0.8746 H   0  0  0  0  0  0  0  0  0  0  0  0
   -1.3625   -2.3070    0.0522 C   0  0  0  0  0  0  0  0  0  0  0  0
   -0.3890   -3.0012    0.3012 O   0  0  0  0  0  0  0  0  0  0  0  0
   -1.1982   -0.9773   -0.2751 N   0  0  0  0  0  0  0  0  0  0  0  0
   -2.0392   -0.4131   -0.3946 H   0  0  0  0  0  0  0  0  0  0  0  0
    0.0837   -0.2599   -0.2605 C   0  0  1  0  0  0  0  0  0  0  0  0
    0.7883   -0.8154    0.3675 H   0  0  0  0  0  0  0  0  0  0  0  0
    0.6694   -0.2343   -1.6936 C   0  0  0  0  0  0  0  0  0  0  0  0
    1.6338   -0.7489   -1.6892 H   0  0  0  0  0  0  0  0  0  0  0  0
    0.0180   -0.7875   -2.3763 H   0  0  0  0  0  0  0  0  0  0  0  0
    0.8819    1.1621   -2.2653 C   0  0  0  0  0  0  0  0  0  0  0  0
   -0.0234    1.6840   -2.8911 O   0  0  0  0  0  0  0  0  0  0  0  0
    2.0650    1.7680   -2.0105 O   0  0  0  0  0  0  0  0  0  0  0  0
    2.0025    2.6436   -2.4238 H   0  0  0  0  0  0  0  0  0  0  0  0
   -0.0697    1.1211    0.4189 C   0  0  0  0  0  0  0  0  0  0  0  0
   -1.0911    1.7757    0.2515 O   0  0  0  0  0  0  0  0  0  0  0  0
    0.8658    1.5570    1.3391 N   0  0  0  0  0  0  0  0  0  0  0  0
    1.7013    0.9932    1.4678 H   0  0  0  0  0  0  0  0  0  0  0  0
    0.7442    2.8135    2.0687 C   0  0  0  0  0  0  0  0  0  0  0  0
   -0.1763    2.8249    2.6620 H   0  0  0  0  0  0  0  0  0  0  0  0
    1.5931    2.9408    2.7473 H   0  0  0  0  0  0  0  0  0  0  0  0
    0.7260    3.6598    1.3739 H   0  0  0  0  0  0  0  0  0  0  0  0
  1  2  1  0  0  0  0
  2  3  1  0  0  0  0
  2  4  1  0  0  0  0
  2  5  1  0  0  0  0
  5  6  2  0  0  0  0
  5  7  1  0  0  0  0
  7  8  1  0  0  0  0
  7  9  1  0  0  0  0
  9 10  1  0  0  0  0
  9 11  1  0  0  0  0
  9 18  1  0  0  0  0
 11 12  1  0  0  0  0
 11 13  1  0  0  0  0
 11 14  1  0  0  0  0
 14 15  2  0  0  0  0
 14 16  1  0  0  0  0
 16 17  1  0  0  0  0
 18 19  2  0  0  0  0
 18 20  1  0  0  0  0
 20 21  1  0  0  0  0
 20 22  1  0  0  0  0
 22 23  1  0  0  0  0
 22 24  1  0  0  0  0
 22 25  1  0  0  0  0
M  END
$$$$

  -OEChem-02102214113D

 25 24  0     1  0  0  0  0  0999 V2000
   -2.6950   -3.9511    0.4025 H   0  0  0  0  0  0  0  0  0  0  0  0
   -2.7538   -2.8959    0.1214 C   0  0  0  0  0  0  0  0  0  0  0  0
   -3.3464   -2.3642    0.8699 H   0  0  0  0  0  0  0  0  0  0  0  0
   -3.2494   -2.8167   -0.8492 H   0  0  0  0  0  0  0  0  0  0  0  0
   -1.3621   -2.2974    0.0422 C   0  0  0  0  0  0  0  0  0  0  0  0
   -0.3834   -2.9918    0.2697 O   0  0  0  0  0  0  0  0  0  0  0  0
   -1.2051   -0.9668   -0.2850 N   0  0  0  0  0  0  0  0  0  0  0  0
   -2.0490   -0.4019   -0.3794 H   0  0  0  0  0  0  0  0  0  0  0  0
    0.0736   -0.2439   -0.2748 C   0  0  1  0  0  0  0  0  0  0  0  0
    0.7725   -0.7963    0.3625 H   0  0  0  0  0  0  0  0  0  0  0  0
    0.6788   -0.2344   -1.7004 C   0  0  0  0  0  0  0  0  0  0  0  0
    1.6425   -0.7499   -1.6748 H   0  0  0  0  0  0  0  0  0  0  0  0
    0.0375   -0.7993   -2.3827 H   0  0  0  0  0  0  0  0  0  0  0  0
    0.8971    1.1489   -2.3026 C   0  0  0  0  0  0  0  0  0  0  0  0
   -0.0650    1.7736   -2.7110 O   0  0  0  0  0  0  0  0  0  0  0  0
    2.1594    1.6357   -2.3010 O   0  0  0  0  0  0  0  0  0  0  0  0
    2.0979    2.5212   -2.6925 H   0  0  0  0  0  0  0  0  0  0  0  0
   -0.0770    1.1374    0.4047 C   0  0  0  0  0  0  0  0  0  0  0  0
   -1.1187    1.7703    0.2847 O   0  0  0  0  0  0  0  0  0  0  0  0
    0.8663    1.5705    1.3187 N   0  0  0  0  0  0  0  0  0  0  0  0
    1.7003    1.0037    1.4432 H   0  0  0  0  0  0  0  0  0  0  0  0
    0.7298    2.8024    2.0867 C   0  0  0  0  0  0  0  0  0  0  0  0
   -0.1632    2.7632    2.7195 H   0  0  0  0  0  0  0  0  0  0  0  0
    1.6029    2.9457    2.7305 H   0  0  0  0  0  0  0  0  0  0  0  0
    0.6490    3.6643    1.4161 H   0  0  0  0  0  0  0  0  0  0  0  0
  1  2  1  0  0  0  0
  2  3  1  0  0  0  0
  2  4  1  0  0  0  0
  2  5  1  0  0  0  0
  5  6  2  0  0  0  0
  5  7  1  0  0  0  0
  7  8  1  0  0  0  0
  7  9  1  0  0  0  0
  9 10  1  0  0  0  0
  9 11  1  0  0  0  0
  9 18  1  0  0  0  0
 11 12  1  0  0  0  0
 11 13  1  0  0  0  0
 11 14  1  0  0  0  0
 14 15  2  0  0  0  0
 14 16  1  0  0  0  0
 16 17  1  0  0  0  0
 18 19  2  0  0  0  0
 18 20  1  0  0  0  0
 20 21  1  0  0  0  0
 20 22  1  0  0  0  0
 22 23  1  0  0  0  0
 22 24  1  0  0  0  0
 22 25  1  0  0  0  0
M  END
$$$$

  -OEChem-02102214113D

 25 24  0     1  0  0  0  0  0999 V2000
   -2.6808   -3.9443    0.4119 H   0  0  0  0  0  0  0  0  0  0  0  0
   -2.7468   -2.8886    0.1351 C   0  0  0  0  0  0  0  0  0  0  0  0
   -3.3240   -2.3599    0.8976 H   0  0  0  0  0  0  0  0  0  0  0  0
   -3.2628   -2.8067   -0.8245 H   0  0  0  0  0  0  0  0  0  0  0  0
   -1.3578   -2.2883    0.0276 C   0  0  0  0  0  0  0  0  0  0  0  0
   -0.3730   -2.9831    0.2256 O   0  0  0  0  0  0  0  0  0  0  0  0
   -1.2108   -0.9544   -0.2904 N   0  0  0  0  0  0  0  0  0  0  0  0
   -2.0577   -0.3887   -0.3466 H   0  0  0  0  0  0  0  0  0  0  0  0
    0.0637   -0.2241   -0.2843 C   0  0  1  0  0  0  0  0  0  0  0  0
    0.7613   -0.7752    0.3555 H   0  0  0  0  0  0  0  0  0  0  0  0
    0.6818   -0.2228   -1.7064 C   0  0  0  0  0  0  0  0  0  0  0  0
    1.6455   -0.7375   -1.6617 H   0  0  0  0  0  0  0  0  0  0  0  0
    0.0491   -0.8021   -2.3843 H   0  0  0  0  0  0  0  0  0  0  0  0
    0.9086    1.1437   -2.3477 C   0  0  0  0  0  0  0  0  0  0  0  0
   -0.0396    1.8833   -2.5362 O   0  0  0  0  0  0  0  0  0  0  0  0
    2.1853    1.4818   -2.6404 O   0  0  0  0  0  0  0  0  0  0  0  0
    2.1395    2.3717   -3.0237 H   0  0  0  0  0  0  0  0  0  0  0  0
   -0.0905    1.1511    0.4073 C   0  0  0  0  0  0  0  0  0  0  0  0
   -1.1553    1.7537    0.3425 O   0  0  0  0  0  0  0  0  0  0  0  0
    0.8592    1.5804    1.3169 N   0  0  0  0  0  0  0  0  0  0  0  0
    1.7013    1.0221    1.4229 H   0  0  0  0  0  0  0  0  0  0  0  0
    0.7094    2.7898    2.1176 C   0  0  0  0  0  0  0  0  0  0  0  0
   -0.1629    2.7090    2.7746 H   0  0  0  0  0  0  0  0  0  0  0  0
    1.5969    2.9456    2.7384 H   0  0  0  0  0  0  0  0  0  0  0  0
    0.5827    3.6638    1.4699 H   0  0  0  0  0  0  0  0  0  0  0  0
  1  2  1  0  0  0  0
  2  3  1  0  0  0  0
  2  4  1  0  0  0  0
  2  5  1  0  0  0  0
  5  6  2  0  0  0  0
  5  7  1  0  0  0  0
  7  8  1  0  0  0  0
  7  9  1  0  0  0  0
  9 10  1  0  0  0  0
  9 11  1  0  0  0  0
  9 18  1  0  0  0  0
 11 12  1  0  0  0  0
 11 13  1  0  0  0  0
 11 14  1  0  0  0  0
 14 15  2  0  0  0  0
 14 16  1  0  0  0  0
 16 17  1  0  0  0  0
 18 19  2  0  0  0  0
 18 20  1  0  0  0  0
 20 21  1  0  0  0  0
 20 22  1  0  0  0  0
 22 23  1  0  0  0  0
 22 24  1  0  0  0  0
 22 25  1  0  0  0  0
M  END
$$$$

  -OEChem-02102214113D

 25 24  0     1  0  0  0  0  0999 V2000
   -2.6579   -3.9349    0.4130 H   0  0  0  0  0  0  0  0  0  0  0  0
   -2.7329   -2.8768    0.1475 C   0  0  0  0  0  0  0  0  0  0  0  0
   -3.2926   -2.3561    0.9284 H   0  0  0  0  0  0  0  0  0  0  0  0
   -3.2717   -2.7874   -0.7988 H   0  0  0  0  0  0  0  0  0  0  0  0
   -1.3485   -2.2720    0.0131 C   0  0  0  0  0  0  0  0  0  0  0  0
   -0.3578   -2.9662    0.1824 O   0  0  0  0  0  0  0  0  0  0  0  0
   -1.2117   -0.9344   -0.2936 N   0  0  0  0  0  0  0  0  0  0  0  0
   -2.0608   -0.3693   -0.3171 H   0  0  0  0  0  0  0  0  0  0  0  0
    0.0602   -0.1992   -0.2907 C   0  0  1  0  0  0  0  0  0  0  0  0
    0.7594   -0.7505    0.3472 H   0  0  0  0  0  0  0  0  0  0  0  0
    0.6784   -0.2050   -1.7156 C   0  0  0  0  0  0  0  0  0  0  0  0
    1.6407   -0.7211   -1.6586 H   0  0  0  0  0  0  0  0  0  0  0  0
    0.0473   -0.7974   -2.3835 H   0  0  0  0  0  0  0  0  0  0  0  0
    0.9176    1.1395   -2.4031 C   0  0  0  0  0  0  0  0  0  0  0  0
    0.0615    2.0038   -2.3847 O   0  0  0  0  0  0  0  0  0  0  0  0
    2.1199    1.3026   -3.0014 O   0  0  0  0  0  0  0  0  0  0  0  0
    2.1032    2.1923   -3.3872 H   0  0  0  0  0  0  0  0  0  0  0  0
   -0.1014    1.1676    0.4169 C   0  0  0  0  0  0  0  0  0  0  0  0
   -1.1839    1.7424    0.3942 O   0  0  0  0  0  0  0  0  0  0  0  0
    0.8512    1.5939    1.3255 N   0  0  0  0  0  0  0  0  0  0  0  0
    1.7022    1.0465    1.4127 H   0  0  0  0  0  0  0  0  0  0  0  0
    0.6811    2.7713    2.1691 C   0  0  0  0  0  0  0  0  0  0  0  0
   -0.1734    2.6406    2.8415 H   0  0  0  0  0  0  0  0  0  0  0  0
    1.5767    2.9354    2.7760 H   0  0  0  0  0  0  0  0  0  0  0  0
    0.5125    3.6619    1.5543 H   0  0  0  0  0  0  0  0  0  0  0  0
  1  2  1  0  0  0  0
  2  3  1  0  0  0  0
  2  4  1  0  0  0  0
  2  5  1  0  0  0  0
  5  6  2  0  0  0  0
  5  7  1  0  0  0  0
  7  8  1  0  0  0  0
  7  9  1  0  0  0  0
  9 10  1  0  0  0  0
  9 11  1  0  0  0  0
  9 18  1  0  0  0  0
 11 12  1  0  0  0  0
 11 13  1  0  0  0  0
 11 14  1  0  0  0  0
 14 15  2  0  0  0  0
 14 16  1  0  0  0  0
 16 17  1  0  0  0  0
 18 19  2  0  0  0  0
 18 20  1  0  0  0  0
 20 21  1  0  0  0  0
 20 22  1  0  0  0  0
 22 23  1  0  0  0  0
 22 24  1  0  0  0  0
 22 25  1  0  0  0  0
M  END
$$$$

  -OEChem-02102214113D

 25 24  0     1  0  0  0  0  0999 V2000
   -2.6399   -3.9368    0.4013 H   0  0  0  0  0  0  0  0  0  0  0  0
   -2.7224   -2.8769    0.1451 C   0  0  0  0  0  0  0  0  0  0  0  0
   -3.2751   -2.3649    0.9364 H   0  0  0  0  0  0  0  0  0  0  0  0
   -3.2726   -2.7826   -0.7941 H   0  0  0  0  0  0  0  0  0  0  0  0
   -1.3420   -2.2651   -0.0011 C   0  0  0  0  0  0  0  0  0  0  0  0
   -0.3470   -2.9591    0.1413 O   0  0  0  0  0  0  0  0  0  0  0  0
   -1.2134   -0.9225   -0.2900 N   0  0  0  0  0  0  0  0  0  0  0  0
   -2.0633   -0.3581   -0.2818 H   0  0  0  0  0  0  0  0  0  0  0  0
    0.0569   -0.1836   -0.2870 C   0  0  1  0  0  0  0  0  0  0  0  0
    0.7609   -0.7385    0.3425 H   0  0  0  0  0  0  0  0  0  0  0  0
    0.6676   -0.1825   -1.7184 C   0  0  0  0  0  0  0  0  0  0  0  0
    1.6295   -0.6993   -1.6611 H   0  0  0  0  0  0  0  0  0  0  0  0
    0.0342   -0.7814   -2.3783 H   0  0  0  0  0  0  0  0  0  0  0  0
    0.9168    1.1457   -2.4385 C   0  0  0  0  0  0  0  0  0  0  0  0
    0.2207    2.1213   -2.2322 O   0  0  0  0  0  0  0  0  0  0  0  0
    1.9560    1.1545   -3.3043 O   0  0  0  0  0  0  0  0  0  0  0  0
    1.9750    2.0468   -3.6839 H   0  0  0  0  0  0  0  0  0  0  0  0
   -0.1131    1.1700    0.4434 C   0  0  0  0  0  0  0  0  0  0  0  0
   -1.2043    1.7299    0.4396 O   0  0  0  0  0  0  0  0  0  0  0  0
    0.8404    1.5903    1.3538 N   0  0  0  0  0  0  0  0  0  0  0  0
    1.7076    1.0647    1.4097 H   0  0  0  0  0  0  0  0  0  0  0  0
    0.6724    2.7654    2.2005 C   0  0  0  0  0  0  0  0  0  0  0  0
   -0.1913    2.6406    2.8621 H   0  0  0  0  0  0  0  0  0  0  0  0
    1.5622    2.9177    2.8189 H   0  0  0  0  0  0  0  0  0  0  0  0
    0.5202    3.6595    1.5867 H   0  0  0  0  0  0  0  0  0  0  0  0
  1  2  1  0  0  0  0
  2  3  1  0  0  0  0
  2  4  1  0  0  0  0
  2  5  1  0  0  0  0
  5  6  2  0  0  0  0
  5  7  1  0  0  0  0
  7  8  1  0  0  0  0
  7  9  1  0  0  0  0
  9 10  1  0  0  0  0
  9 11  1  0  0  0  0
  9 18  1  0  0  0  0
 11 12  1  0  0  0  0
 11 13  1  0  0  0  0
 11 14  1  0  0  0  0
 14 15  2  0  0  0  0
 14 16  1  0  0  0  0
 16 17  1  0  0  0  0
 18 19  2  0  0  0  0
 18 20  1  0  0  0  0
 20 21  1  0  0  0  0
 20 22  1  0  0  0  0
 22 23  1  0  0  0  0
 22 24  1  0  0  0  0
 22 25  1  0  0  0  0
M  END
$$$$

  -OEChem-02102214113D

 25 24  0     1  0  0  0  0  0999 V2000
   -2.6355   -3.9340    0.3958 H   0  0  0  0  0  0  0  0  0  0  0  0
   -2.7177   -2.8733    0.1428 C   0  0  0  0  0  0  0  0  0  0  0  0
   -3.2632   -2.3623    0.9399 H   0  0  0  0  0  0  0  0  0  0  0  0
   -3.2750   -2.7752   -0.7918 H   0  0  0  0  0  0  0  0  0  0  0  0
   -1.3369   -2.2645   -0.0125 C   0  0  0  0  0  0  0  0  0  0  0  0
   -0.3424   -2.9635    0.1077 O   0  0  0  0  0  0  0  0  0  0  0  0
   -1.2070   -0.9188   -0.2859 N   0  0  0  0  0  0  0  0  0  0  0  0
   -2.0542   -0.3510   -0.2517 H   0  0  0  0  0  0  0  0  0  0  0  0
    0.0665   -0.1845   -0.2808 C   0  0  1  0  0  0  0  0  0  0  0  0
    0.7779   -0.7460    0.3347 H   0  0  0  0  0  0  0  0  0  0  0  0
    0.6557   -0.1646   -1.7235 C   0  0  0  0  0  0  0  0  0  0  0  0
    1.6127   -0.6919   -1.6871 H   0  0  0  0  0  0  0  0  0  0  0  0
    0.0054   -0.7525   -2.3767 H   0  0  0  0  0  0  0  0  0  0  0  0
    0.9143    1.1577   -2.4548 C   0  0  0  0  0  0  0  0  0  0  0  0
    0.4408    2.2128   -2.0789 O   0  0  0  0  0  0  0  0  0  0  0  0
    1.7111    1.0597   -3.5435 O   0  0  0  0  0  0  0  0  0  0  0  0
    1.7760    1.9572   -3.9050 H   0  0  0  0  0  0  0  0  0  0  0  0
   -0.1164    1.1560    0.4711 C   0  0  0  0  0  0  0  0  0  0  0  0
   -1.2112    1.7104    0.4629 O   0  0  0  0  0  0  0  0  0  0  0  0
    0.8299    1.5735    1.3900 N   0  0  0  0  0  0  0  0  0  0  0  0
    1.7116    1.0711    1.4229 H   0  0  0  0  0  0  0  0  0  0  0  0
    0.6665    2.7644    2.2152 C   0  0  0  0  0  0  0  0  0  0  0  0
   -0.2131    2.6664    2.8601 H   0  0  0  0  0  0  0  0  0  0  0  0
    1.5458    2.9090    2.8500 H   0  0  0  0  0  0  0  0  0  0  0  0
    0.5443    3.6519    1.5851 H   0  0  0  0  0  0  0  0  0  0  0  0
  1  2  1  0  0  0  0
  2  3  1  0  0  0  0
  2  4  1  0  0  0  0
  2  5  1  0  0  0  0
  5  6  2  0  0  0  0
  5  7  1  0  0  0  0
  7  8  1  0  0  0  0
  7  9  1  0  0  0  0
  9 10  1  0  0  0  0
  9 11  1  0  0  0  0
  9 18  1  0  0  0  0
 11 12  1  0  0  0  0
 11 13  1  0  0  0  0
 11 14  1  0  0  0  0
 14 15  2  0  0  0  0
 14 16  1  0  0  0  0
 16 17  1  0  0  0  0
 18 19  2  0  0  0  0
 18 20  1  0  0  0  0
 20 21  1  0  0  0  0
 20 22  1  0  0  0  0
 22 23  1  0  0  0  0
 22 24  1  0  0  0  0
 22 25  1  0  0  0  0
M  END
$$$$

  -OEChem-02102214113D

 25 24  0     1  0  0  0  0  0999 V2000
   -2.6461   -3.9271    0.3894 H   0  0  0  0  0  0  0  0  0  0  0  0
   -2.7198   -2.8643    0.1432 C   0  0  0  0  0  0  0  0  0  0  0  0
   -3.2583   -2.3535    0.9452 H   0  0  0  0  0  0  0  0  0  0  0  0
   -3.2797   -2.7558   -0.7887 H   0  0  0  0  0  0  0  0  0  0  0  0
   -1.3348   -2.2656   -0.0136 C   0  0  0  0  0  0  0  0  0  0  0  0
   -0.3450   -2.9715    0.1043 O   0  0  0  0  0  0  0  0  0  0  0  0
   -1.1962   -0.9199   -0.2822 N   0  0  0  0  0  0  0  0  0  0  0  0
   -2.0395   -0.3466   -0.2435 H   0  0  0  0  0  0  0  0  0  0  0  0
    0.0827   -0.1944   -0.2753 C   0  0  1  0  0  0  0  0  0  0  0  0
    0.8001   -0.7604    0.3288 H   0  0  0  0  0  0  0  0  0  0  0  0
    0.6491   -0.1584   -1.7285 C   0  0  0  0  0  0  0  0  0  0  0  0
    1.6003   -0.6967   -1.7168 H   0  0  0  0  0  0  0  0  0  0  0  0
   -0.0197   -0.7313   -2.3768 H   0  0  0  0  0  0  0  0  0  0  0  0
    0.9132    1.1655   -2.4564 C   0  0  0  0  0  0  0  0  0  0  0  0
    0.6989    2.2486   -1.9460 O   0  0  0  0  0  0  0  0  0  0  0  0
    1.4118    1.0321   -3.7068 O   0  0  0  0  0  0  0  0  0  0  0  0
    1.5158    1.9337   -4.0482 H   0  0  0  0  0  0  0  0  0  0  0  0
   -0.1124    1.1394    0.4858 C   0  0  0  0  0  0  0  0  0  0  0  0
   -1.2042    1.6999    0.4541 O   0  0  0  0  0  0  0  0  0  0  0  0
    0.8247    1.5567    1.4140 N   0  0  0  0  0  0  0  0  0  0  0  0
    1.7168    1.0722    1.4326 H   0  0  0  0  0  0  0  0  0  0  0  0
    0.6623    2.7608    2.2196 C   0  0  0  0  0  0  0  0  0  0  0  0
   -0.2321    2.6853    2.8470 H   0  0  0  0  0  0  0  0  0  0  0  0
    1.5297    2.8998    2.8719 H   0  0  0  0  0  0  0  0  0  0  0  0
    0.5680    3.6414    1.5754 H   0  0  0  0  0  0  0  0  0  0  0  0
  1  2  1  0  0  0  0
  2  3  1  0  0  0  0
  2  4  1  0  0  0  0
  2  5  1  0  0  0  0
  5  6  2  0  0  0  0
  5  7  1  0  0  0  0
  7  8  1  0  0  0  0
  7  9  1  0  0  0  0
  9 10  1  0  0  0  0
  9 11  1  0  0  0  0
  9 18  1  0  0  0  0
 11 12  1  0  0  0  0
 11 13  1  0  0  0  0
 11 14  1  0  0  0  0
 14 15  2  0  0  0  0
 14 16  1  0  0  0  0
 16 17  1  0  0  0  0
 18 19  2  0  0  0  0
 18 20  1  0  0  0  0
 20 21  1  0  0  0  0
 20 22  1  0  0  0  0
 22 23  1  0  0  0  0
 22 24  1  0  0  0  0
 22 25  1  0  0  0  0
M  END
$$$$

  -OEChem-02102214113D

 25 24  0     1  0  0  0  0  0999 V2000
   -2.6564   -3.9290    0.3997 H   0  0  0  0  0  0  0  0  0  0  0  0
   -2.7257   -2.8689    0.1400 C   0  0  0  0  0  0  0  0  0  0  0  0
   -3.2734   -2.3478    0.9291 H   0  0  0  0  0  0  0  0  0  0  0  0
   -3.2736   -2.7710   -0.8004 H   0  0  0  0  0  0  0  0  0  0  0  0
   -1.3374   -2.2745   -0.0058 C   0  0  0  0  0  0  0  0  0  0  0  0
   -0.3517   -2.9846    0.1198 O   0  0  0  0  0  0  0  0  0  0  0  0
   -1.1898   -0.9299   -0.2756 N   0  0  0  0  0  0  0  0  0  0  0  0
   -2.0293   -0.3508   -0.2423 H   0  0  0  0  0  0  0  0  0  0  0  0
    0.0956   -0.2150   -0.2665 C   0  0  1  0  0  0  0  0  0  0  0  0
    0.8176   -0.7843    0.3287 H   0  0  0  0  0  0  0  0  0  0  0  0
    0.6393   -0.1626   -1.7282 C   0  0  0  0  0  0  0  0  0  0  0  0
    1.5847   -0.7106   -1.7438 H   0  0  0  0  0  0  0  0  0  0  0  0
   -0.0474   -0.7172   -2.3743 H   0  0  0  0  0  0  0  0  0  0  0  0
    0.9034    1.1737   -2.4334 C   0  0  0  0  0  0  0  0  0  0  0  0
    0.9656    2.2267   -1.8259 O   0  0  0  0  0  0  0  0  0  0  0  0
    1.0791    1.0889   -3.7721 O   0  0  0  0  0  0  0  0  0  0  0  0
    1.2245    1.9973   -4.0782 H   0  0  0  0  0  0  0  0  0  0  0  0
   -0.1054    1.1175    0.4955 C   0  0  0  0  0  0  0  0  0  0  0  0
   -1.1849    1.6979    0.4235 O   0  0  0  0  0  0  0  0  0  0  0  0
    0.8221    1.5369    1.4320 N   0  0  0  0  0  0  0  0  0  0  0  0
    1.7179    1.0592    1.4490 H   0  0  0  0  0  0  0  0  0  0  0  0
    0.6730    2.7708    2.1941 C   0  0  0  0  0  0  0  0  0  0  0  0
   -0.2511    2.7504    2.7813 H   0  0  0  0  0  0  0  0  0  0  0  0
    1.5147    2.8951    2.8820 H   0  0  0  0  0  0  0  0  0  0  0  0
    0.6440    3.6340    1.5207 H   0  0  0  0  0  0  0  0  0  0  0  0
  1  2  1  0  0  0  0
  2  3  1  0  0  0  0
  2  4  1  0  0  0  0
  2  5  1  0  0  0  0
  5  6  2  0  0  0  0
  5  7  1  0  0  0  0
  7  8  1  0  0  0  0
  7  9  1  0  0  0  0
  9 10  1  0  0  0  0
  9 11  1  0  0  0  0
  9 18  1  0  0  0  0
 11 12  1  0  0  0  0
 11 13  1  0  0  0  0
 11 14  1  0  0  0  0
 14 15  2  0  0  0  0
 14 16  1  0  0  0  0
 16 17  1  0  0  0  0
 18 19  2  0  0  0  0
 18 20  1  0  0  0  0
 20 21  1  0  0  0  0
 20 22  1  0  0  0  0
 22 23  1  0  0  0  0
 22 24  1  0  0  0  0
 22 25  1  0  0  0  0
M  END
$$$$

  -OEChem-02102214113D

 25 24  0     1  0  0  0  0  0999 V2000
   -2.6774   -3.9285    0.4114 H   0  0  0  0  0  0  0  0  0  0  0  0
   -2.7349   -2.8687    0.1481 C   0  0  0  0  0  0  0  0  0  0  0  0
   -3.2839   -2.3406    0.9315 H   0  0  0  0  0  0  0  0  0  0  0  0
   -3.2748   -2.7686   -0.7965 H   0  0  0  0  0  0  0  0  0  0  0  0
   -1.3401   -2.2880    0.0100 C   0  0  0  0  0  0  0  0  0  0  0  0
   -0.3614   -3.0048    0.1520 O   0  0  0  0  0  0  0  0  0  0  0  0
   -1.1794   -0.9476   -0.2726 N   0  0  0  0  0  0  0  0  0  0  0  0
   -2.0149   -0.3620   -0.2589 H   0  0  0  0  0  0  0  0  0  0  0  0
    0.1118   -0.2434   -0.2639 C   0  0  1  0  0  0  0  0  0  0  0  0
    0.8369   -0.8123    0.3281 H   0  0  0  0  0  0  0  0  0  0  0  0
    0.6383   -0.1788   -1.7300 C   0  0  0  0  0  0  0  0  0  0  0  0
    1.5801   -0.7319   -1.7696 H   0  0  0  0  0  0  0  0  0  0  0  0
   -0.0608   -0.7156   -2.3778 H   0  0  0  0  0  0  0  0  0  0  0  0
    0.8974    1.1772   -2.3959 C   0  0  0  0  0  0  0  0  0  0  0  0
    1.2341    2.1482   -1.7412 O   0  0  0  0  0  0  0  0  0  0  0  0
    0.7458    1.2118   -3.7400 O   0  0  0  0  0  0  0  0  0  0  0  0
    0.9253    2.1273   -4.0036 H   0  0  0  0  0  0  0  0  0  0  0  0
   -0.0957    1.0951    0.4854 C   0  0  0  0  0  0  0  0  0  0  0  0
   -1.1602    1.6952    0.3663 O   0  0  0  0  0  0  0  0  0  0  0  0
    0.8206    1.5243    1.4282 N   0  0  0  0  0  0  0  0  0  0  0  0
    1.7173    1.0486    1.4548 H   0  0  0  0  0  0  0  0  0  0  0  0
    0.6757    2.7805    2.1534 C   0  0  0  0  0  0  0  0  0  0  0  0
   -0.2617    2.7912    2.7194 H   0  0  0  0  0  0  0  0  0  0  0  0
    1.5036    2.9092    2.8572 H   0  0  0  0  0  0  0  0  0  0  0  0
    0.6767    3.6257    1.4569 H   0  0  0  0  0  0  0  0  0  0  0  0
  1  2  1  0  0  0  0
  2  3  1  0  0  0  0
  2  4  1  0  0  0  0
  2  5  1  0  0  0  0
  5  6  2  0  0  0  0
  5  7  1  0  0  0  0
  7  8  1  0  0  0  0
  7  9  1  0  0  0  0
  9 10  1  0  0  0  0
  9 11  1  0  0  0  0
  9 18  1  0  0  0  0
 11 12  1  0  0  0  0
 11 13  1  0  0  0  0
 11 14  1  0  0  0  0
 14 15  2  0  0  0  0
 14 16  1  0  0  0  0
 16 17  1  0  0  0  0
 18 19  2  0  0  0  0
 18 20  1  0  0  0  0
 20 21  1  0  0  0  0
 20 22  1  0  0  0  0
 22 23  1  0  0  0  0
 22 24  1  0  0  0  0
 22 25  1  0  0  0  0
M  END
$$$$

  -OEChem-02102214113D

 25 24  0     1  0  0  0  0  0999 V2000
   -2.6912   -3.9454    0.4130 H   0  0  0  0  0  0  0  0  0  0  0  0
   -2.7430   -2.8860    0.1468 C   0  0  0  0  0  0  0  0  0  0  0  0
   -3.3019   -2.3553    0.9215 H   0  0  0  0  0  0  0  0  0  0  0  0
   -3.2697   -2.7869   -0.8053 H   0  0  0  0  0  0  0  0  0  0  0  0
   -1.3455   -2.3077    0.0272 C   0  0  0  0  0  0  0  0  0  0  0  0
   -0.3704   -3.0230    0.1969 O   0  0  0  0  0  0  0  0  0  0  0  0
   -1.1786   -0.9711   -0.2694 N   0  0  0  0  0  0  0  0  0  0  0  0
   -2.0144   -0.3864   -0.2893 H   0  0  0  0  0  0  0  0  0  0  0  0
    0.1137   -0.2695   -0.2596 C   0  0  1  0  0  0  0  0  0  0  0  0
    0.8405   -0.8361    0.3325 H   0  0  0  0  0  0  0  0  0  0  0  0
    0.6350   -0.1964   -1.7245 C   0  0  0  0  0  0  0  0  0  0  0  0
    1.5795   -0.7435   -1.7760 H   0  0  0  0  0  0  0  0  0  0  0  0
   -0.0638   -0.7230   -2.3810 H   0  0  0  0  0  0  0  0  0  0  0  0
    0.8799    1.1831   -2.3401 C   0  0  0  0  0  0  0  0  0  0  0  0
    1.4648    2.0399   -1.6986 O   0  0  0  0  0  0  0  0  0  0  0  0
    0.4313    1.3774   -3.6017 O   0  0  0  0  0  0  0  0  0  0  0  0
    0.6438    2.2976   -3.8207 H   0  0  0  0  0  0  0  0  0  0  0  0
   -0.0906    1.0793    0.4721 C   0  0  0  0  0  0  0  0  0  0  0  0
   -1.1357    1.7019    0.3081 O   0  0  0  0  0  0  0  0  0  0  0  0
    0.8207    1.5180    1.4151 N   0  0  0  0  0  0  0  0  0  0  0  0
    1.7129    1.0346    1.4558 H   0  0  0  0  0  0  0  0  0  0  0  0
    0.6935    2.8010    2.0948 C   0  0  0  0  0  0  0  0  0  0  0  0
   -0.2528    2.8531    2.6436 H   0  0  0  0  0  0  0  0  0  0  0  0
    1.5122    2.9341    2.8084 H   0  0  0  0  0  0  0  0  0  0  0  0
    0.7269    3.6215    1.3701 H   0  0  0  0  0  0  0  0  0  0  0  0
  1  2  1  0  0  0  0
  2  3  1  0  0  0  0
  2  4  1  0  0  0  0
  2  5  1  0  0  0  0
  5  6  2  0  0  0  0
  5  7  1  0  0  0  0
  7  8  1  0  0  0  0
  7  9  1  0  0  0  0
  9 10  1  0  0  0  0
  9 11  1  0  0  0  0
  9 18  1  0  0  0  0
 11 12  1  0  0  0  0
 11 13  1  0  0  0  0
 11 14  1  0  0  0  0
 14 15  2  0  0  0  0
 14 16  1  0  0  0  0
 16 17  1  0  0  0  0
 18 19  2  0  0  0  0
 18 20  1  0  0  0  0
 20 21  1  0  0  0  0
 20 22  1  0  0  0  0
 22 23  1  0  0  0  0
 22 24  1  0  0  0  0
 22 25  1  0  0  0  0
M  END
$$$$

  -OEChem-02102214113D

 25 24  0     1  0  0  0  0  0999 V2000
   -2.6953   -3.9597    0.4334 H   0  0  0  0  0  0  0  0  0  0  0  0
   -2.7457   -2.9075    0.1398 C   0  0  0  0  0  0  0  0  0  0  0  0
   -3.3263   -2.3609    0.8869 H   0  0  0  0  0  0  0  0  0  0  0  0
   -3.2488   -2.8345   -0.8274 H   0  0  0  0  0  0  0  0  0  0  0  0
   -1.3487   -2.3244    0.0413 C   0  0  0  0  0  0  0  0  0  0  0  0
   -0.3739   -3.0325    0.2399 O   0  0  0  0  0  0  0  0  0  0  0  0
   -1.1830   -0.9907   -0.2685 N   0  0  0  0  0  0  0  0  0  0  0  0
   -2.0216   -0.4129   -0.3241 H   0  0  0  0  0  0  0  0  0  0  0  0
    0.1059   -0.2839   -0.2584 C   0  0  1  0  0  0  0  0  0  0  0  0
    0.8332   -0.8453    0.3380 H   0  0  0  0  0  0  0  0  0  0  0  0
    0.6315   -0.2101   -1.7183 C   0  0  0  0  0  0  0  0  0  0  0  0
    1.5831   -0.7450   -1.7728 H   0  0  0  0  0  0  0  0  0  0  0  0
   -0.0597   -0.7324   -2.3859 H   0  0  0  0  0  0  0  0  0  0  0  0
    0.8540    1.1896   -2.2867 C   0  0  0  0  0  0  0  0  0  0  0  0
    1.6500    1.9291   -1.7304 O   0  0  0  0  0  0  0  0  0  0  0  0
    0.1518    1.5387   -3.3894 O   0  0  0  0  0  0  0  0  0  0  0  0
    0.3878    2.4600   -3.5759 H   0  0  0  0  0  0  0  0  0  0  0  0
   -0.0882    1.0761    0.4540 C   0  0  0  0  0  0  0  0  0  0  0  0
   -1.1150    1.7186    0.2587 O   0  0  0  0  0  0  0  0  0  0  0  0
    0.8258    1.5207    1.3912 N   0  0  0  0  0  0  0  0  0  0  0  0
    1.7045    1.0153    1.4580 H   0  0  0  0  0  0  0  0  0  0  0  0
    0.7178    2.8187    2.0456 C   0  0  0  0  0  0  0  0  0  0  0  0
   -0.2395    2.9069    2.5699 H   0  0  0  0  0  0  0  0  0  0  0  0
    1.5222    2.9416    2.7770 H   0  0  0  0  0  0  0  0  0  0  0  0
    0.7917    3.6249    1.3082 H   0  0  0  0  0  0  0  0  0  0  0  0
  1  2  1  0  0  0  0
  2  3  1  0  0  0  0
  2  4  1  0  0  0  0
  2  5  1  0  0  0  0
  5  6  2  0  0  0  0
  5  7  1  0  0  0  0
  7  8  1  0  0  0  0
  7  9  1  0  0  0  0
  9 10  1  0  0  0  0
  9 11  1  0  0  0  0
  9 18  1  0  0  0  0
 11 12  1  0  0  0  0
 11 13  1  0  0  0  0
 11 14  1  0  0  0  0
 14 15  2  0  0  0  0
 14 16  1  0  0  0  0
 16 17  1  0  0  0  0
 18 19  2  0  0  0  0
 18 20  1  0  0  0  0
 20 21  1  0  0  0  0
 20 22  1  0  0  0  0
 22 23  1  0  0  0  0
 22 24  1  0  0  0  0
 22 25  1  0  0  0  0
M  END
$$$$

  -OEChem-02102214113D

 25 24  0     1  0  0  0  0  0999 V2000
   -2.6914   -3.9794    0.4251 H   0  0  0  0  0  0  0  0  0  0  0  0
   -2.7476   -2.9272    0.1327 C   0  0  0  0  0  0  0  0  0  0  0  0
   -3.3386   -2.3862    0.8757 H   0  0  0  0  0  0  0  0  0  0  0  0
   -3.2432   -2.8569   -0.8385 H   0  0  0  0  0  0  0  0  0  0  0  0
   -1.3544   -2.3334    0.0468 C   0  0  0  0  0  0  0  0  0  0  0  0
   -0.3768   -3.0327    0.2618 O   0  0  0  0  0  0  0  0  0  0  0  0
   -1.1950   -1.0004   -0.2693 N   0  0  0  0  0  0  0  0  0  0  0  0
   -2.0375   -0.4313   -0.3473 H   0  0  0  0  0  0  0  0  0  0  0  0
    0.0884   -0.2845   -0.2596 C   0  0  1  0  0  0  0  0  0  0  0  0
    0.8125   -0.8424    0.3439 H   0  0  0  0  0  0  0  0  0  0  0  0
    0.6315   -0.2157   -1.7105 C   0  0  0  0  0  0  0  0  0  0  0  0
    1.5911   -0.7380   -1.7544 H   0  0  0  0  0  0  0  0  0  0  0  0
   -0.0457   -0.7413   -2.3897 H   0  0  0  0  0  0  0  0  0  0  0  0
    0.8344    1.1960   -2.2489 C   0  0  0  0  0  0  0  0  0  0  0  0
    1.7950    1.8315   -1.8453 O   0  0  0  0  0  0  0  0  0  0  0  0
   -0.0575    1.6695   -3.1493 O   0  0  0  0  0  0  0  0  0  0  0  0
    0.2035    2.5850   -3.3307 H   0  0  0  0  0  0  0  0  0  0  0  0
   -0.0903    1.0835    0.4407 C   0  0  0  0  0  0  0  0  0  0  0  0
   -1.1069    1.7388    0.2394 O   0  0  0  0  0  0  0  0  0  0  0  0
    0.8329    1.5283    1.3685 N   0  0  0  0  0  0  0  0  0  0  0  0
    1.7000    1.0051    1.4508 H   0  0  0  0  0  0  0  0  0  0  0  0
    0.7379    2.8294    2.0193 C   0  0  0  0  0  0  0  0  0  0  0  0
   -0.2116    2.9219    2.5572 H   0  0  0  0  0  0  0  0  0  0  0  0
    1.5535    2.9534    2.7382 H   0  0  0  0  0  0  0  0  0  0  0  0
    0.8030    3.6327    1.2778 H   0  0  0  0  0  0  0  0  0  0  0  0
  1  2  1  0  0  0  0
  2  3  1  0  0  0  0
  2  4  1  0  0  0  0
  2  5  1  0  0  0  0
  5  6  2  0  0  0  0
  5  7  1  0  0  0  0
  7  8  1  0  0  0  0
  7  9  1  0  0  0  0
  9 10  1  0  0  0  0
  9 11  1  0  0  0  0
  9 18  1  0  0  0  0
 11 12  1  0  0  0  0
 11 13  1  0  0  0  0
 11 14  1  0  0  0  0
 14 15  2  0  0  0  0
 14 16  1  0  0  0  0
 16 17  1  0  0  0  0
 18 19  2  0  0  0  0
 18 20  1  0  0  0  0
 20 21  1  0  0  0  0
 20 22  1  0  0  0  0
 22 23  1  0  0  0  0
 22 24  1  0  0  0  0
 22 25  1  0  0  0  0
M  END
$$$$

  -OEChem-02102214113D

 25 24  0     1  0  0  0  0  0999 V2000
   -2.6826   -3.9880    0.4148 H   0  0  0  0  0  0  0  0  0  0  0  0
   -2.7460   -2.9338    0.1309 C   0  0  0  0  0  0  0  0  0  0  0  0
   -3.3400   -2.4027    0.8788 H   0  0  0  0  0  0  0  0  0  0  0  0
   -3.2426   -2.8592   -0.8395 H   0  0  0  0  0  0  0  0  0  0  0  0
   -1.3566   -2.3299    0.0484 C   0  0  0  0  0  0  0  0  0  0  0  0
   -0.3747   -3.0223    0.2671 O   0  0  0  0  0  0  0  0  0  0  0  0
   -1.2060   -0.9960   -0.2690 N   0  0  0  0  0  0  0  0  0  0  0  0
   -2.0524   -0.4344   -0.3570 H   0  0  0  0  0  0  0  0  0  0  0  0
    0.0719   -0.2708   -0.2620 C   0  0  1  0  0  0  0  0  0  0  0  0
    0.7921   -0.8267    0.3484 H   0  0  0  0  0  0  0  0  0  0  0  0
    0.6327   -0.2133   -1.7049 C   0  0  0  0  0  0  0  0  0  0  0  0
    1.5965   -0.7292   -1.7326 H   0  0  0  0  0  0  0  0  0  0  0  0
   -0.0329   -0.7472   -2.3888 H   0  0  0  0  0  0  0  0  0  0  0  0
    0.8244    1.1992   -2.2437 C   0  0  0  0  0  0  0  0  0  0  0  0
    1.8997    1.7433   -2.0544 O   0  0  0  0  0  0  0  0  0  0  0  0
   -0.1957    1.7632   -2.9305 O   0  0  0  0  0  0  0  0  0  0  0  0
    0.0902    2.6620   -3.1525 H   0  0  0  0  0  0  0  0  0  0  0  0
   -0.0920    1.1013    0.4331 C   0  0  0  0  0  0  0  0  0  0  0  0
   -1.1098    1.7594    0.2518 O   0  0  0  0  0  0  0  0  0  0  0  0
    0.8440    1.5408    1.3504 N   0  0  0  0  0  0  0  0  0  0  0  0
    1.6979    0.9985    1.4477 H   0  0  0  0  0  0  0  0  0  0  0  0
    0.7466    2.8246    2.0342 C   0  0  0  0  0  0  0  0  0  0  0  0
   -0.1846    2.8841    2.6075 H   0  0  0  0  0  0  0  0  0  0  0  0
    1.5850    2.9501    2.7262 H   0  0  0  0  0  0  0  0  0  0  0  0
    0.7685    3.6461    1.3105 H   0  0  0  0  0  0  0  0  0  0  0  0
  1  2  1  0  0  0  0
  2  3  1  0  0  0  0
  2  4  1  0  0  0  0
  2  5  1  0  0  0  0
  5  6  2  0  0  0  0
  5  7  1  0  0  0  0
  7  8  1  0  0  0  0
  7  9  1  0  0  0  0
  9 10  1  0  0  0  0
  9 11  1  0  0  0  0
  9 18  1  0  0  0  0
 11 12  1  0  0  0  0
 11 13  1  0  0  0  0
 11 14  1  0  0  0  0
 14 15  2  0  0  0  0
 14 16  1  0  0  0  0
 16 17  1  0  0  0  0
 18 19  2  0  0  0  0
 18 20  1  0  0  0  0
 20 21  1  0  0  0  0
 20 22  1  0  0  0  0
 22 23  1  0  0  0  0
 22 24  1  0  0  0  0
 22 25  1  0  0  0  0
M  END
$$$$

  -OEChem-02102214113D

 25 24  0     1  0  0  0  0  0999 V2000
   -2.6750   -3.9831    0.4086 H   0  0  0  0  0  0  0  0  0  0  0  0
   -2.7417   -2.9277    0.1305 C   0  0  0  0  0  0  0  0  0  0  0  0
   -3.3375   -2.4023    0.8808 H   0  0  0  0  0  0  0  0  0  0  0  0
   -3.2381   -2.8491   -0.8397 H   0  0  0  0  0  0  0  0  0  0  0  0
   -1.3547   -2.3184    0.0517 C   0  0  0  0  0  0  0  0  0  0  0  0
   -0.3697   -3.0065    0.2697 O   0  0  0  0  0  0  0  0  0  0  0  0
   -1.2105   -0.9833   -0.2633 N   0  0  0  0  0  0  0  0  0  0  0  0
   -2.0598   -0.4264   -0.3531 H   0  0  0  0  0  0  0  0  0  0  0  0
    0.0629   -0.2509   -0.2630 C   0  0  1  0  0  0  0  0  0  0  0  0
    0.7812   -0.8048    0.3512 H   0  0  0  0  0  0  0  0  0  0  0  0
    0.6342   -0.2074   -1.7020 C   0  0  0  0  0  0  0  0  0  0  0  0
    1.5998   -0.7213   -1.7149 H   0  0  0  0  0  0  0  0  0  0  0  0
   -0.0249   -0.7529   -2.3828 H   0  0  0  0  0  0  0  0  0  0  0  0
    0.8215    1.1980   -2.2618 C   0  0  0  0  0  0  0  0  0  0  0  0
    1.9544    1.6444   -2.3239 O   0  0  0  0  0  0  0  0  0  0  0  0
   -0.2688    1.8450   -2.7333 O   0  0  0  0  0  0  0  0  0  0  0  0
    0.0352    2.7164   -3.0278 H   0  0  0  0  0  0  0  0  0  0  0  0
   -0.0914    1.1213    0.4339 C   0  0  0  0  0  0  0  0  0  0  0  0
   -1.1230    1.7676    0.2958 O   0  0  0  0  0  0  0  0  0  0  0  0
    0.8576    1.5550    1.3410 N   0  0  0  0  0  0  0  0  0  0  0  0
    1.7047    1.0022    1.4398 H   0  0  0  0  0  0  0  0  0  0  0  0
    0.7466    2.8088    2.0767 C   0  0  0  0  0  0  0  0  0  0  0  0
   -0.1693    2.8221    2.6769 H   0  0  0  0  0  0  0  0  0  0  0  0
    1.6010    2.9289    2.7497 H   0  0  0  0  0  0  0  0  0  0  0  0
    0.7276    3.6580    1.3856 H   0  0  0  0  0  0  0  0  0  0  0  0
  1  2  1  0  0  0  0
  2  3  1  0  0  0  0
  2  4  1  0  0  0  0
  2  5  1  0  0  0  0
  5  6  2  0  0  0  0
  5  7  1  0  0  0  0
  7  8  1  0  0  0  0
  7  9  1  0  0  0  0
  9 10  1  0  0  0  0
  9 11  1  0  0  0  0
  9 18  1  0  0  0  0
 11 12  1  0  0  0  0
 11 13  1  0  0  0  0
 11 14  1  0  0  0  0
 14 15  2  0  0  0  0
 14 16  1  0  0  0  0
 16 17  1  0  0  0  0
 18 19  2  0  0  0  0
 18 20  1  0  0  0  0
 20 21  1  0  0  0  0
 20 22  1  0  0  0  0
 22 23  1  0  0  0  0
 22 24  1  0  0  0  0
 22 25  1  0  0  0  0
M  END
$$$$

  -OEChem-02102214113D

 25 24  0     1  0  0  0  0  0999 V2000
   -2.6645   -3.9692    0.4117 H   0  0  0  0  0  0  0  0  0  0  0  0
   -2.7369   -2.9114    0.1442 C   0  0  0  0  0  0  0  0  0  0  0  0
   -3.3182   -2.3931    0.9108 H   0  0  0  0  0  0  0  0  0  0  0  0
   -3.2524   -2.8248   -0.8152 H   0  0  0  0  0  0  0  0  0  0  0  0
   -1.3520   -2.3010    0.0436 C   0  0  0  0  0  0  0  0  0  0  0  0
   -0.3633   -2.9899    0.2423 O   0  0  0  0  0  0  0  0  0  0  0  0
   -1.2142   -0.9639   -0.2652 N   0  0  0  0  0  0  0  0  0  0  0  0
   -2.0653   -0.4059   -0.3300 H   0  0  0  0  0  0  0  0  0  0  0  0
    0.0566   -0.2274   -0.2689 C   0  0  1  0  0  0  0  0  0  0  0  0
    0.7701   -0.7823    0.3499 H   0  0  0  0  0  0  0  0  0  0  0  0
    0.6443   -0.1970   -1.7024 C   0  0  0  0  0  0  0  0  0  0  0  0
    1.6093   -0.7123   -1.6949 H   0  0  0  0  0  0  0  0  0  0  0  0
   -0.0076   -0.7542   -2.3803 H   0  0  0  0  0  0  0  0  0  0  0  0
    0.8399    1.1948   -2.2959 C   0  0  0  0  0  0  0  0  0  0  0  0
    1.9698    1.5255   -2.6126 O   0  0  0  0  0  0  0  0  0  0  0  0
   -0.2590    1.9359   -2.5640 O   0  0  0  0  0  0  0  0  0  0  0  0
    0.0543    2.7661   -2.9523 H   0  0  0  0  0  0  0  0  0  0  0  0
   -0.0930    1.1417    0.4353 C   0  0  0  0  0  0  0  0  0  0  0  0
   -1.1444    1.7652    0.3528 O   0  0  0  0  0  0  0  0  0  0  0  0
    0.8659    1.5676    1.3360 N   0  0  0  0  0  0  0  0  0  0  0  0
    1.7088    1.0082    1.4308 H   0  0  0  0  0  0  0  0  0  0  0  0
    0.7323    2.7796    2.1354 C   0  0  0  0  0  0  0  0  0  0  0  0
   -0.1493    2.7165    2.7822 H   0  0  0  0  0  0  0  0  0  0  0  0
    1.6153    2.9151    2.7674 H   0  0  0  0  0  0  0  0  0  0  0  0
    0.6325    3.6568    1.4876 H   0  0  0  0  0  0  0  0  0  0  0  0
  1  2  1  0  0  0  0
  2  3  1  0  0  0  0
  2  4  1  0  0  0  0
  2  5  1  0  0  0  0
  5  6  2  0  0  0  0
  5  7  1  0  0  0  0
  7  8  1  0  0  0  0
  7  9  1  0  0  0  0
  9 10  1  0  0  0  0
  9 11  1  0  0  0  0
  9 18  1  0  0  0  0
 11 12  1  0  0  0  0
 11 13  1  0  0  0  0
 11 14  1  0  0  0  0
 14 15  2  0  0  0  0
 14 16  1  0  0  0  0
 16 17  1  0  0  0  0
 18 19  2  0  0  0  0
 18 20  1  0  0  0  0
 20 21  1  0  0  0  0
 20 22  1  0  0  0  0
 22 23  1  0  0  0  0
 22 24  1  0  0  0  0
 22 25  1  0  0  0  0
M  END
$$$$

  -OEChem-02102214113D

 25 24  0     1  0  0  0  0  0999 V2000
   -2.6512   -3.9577    0.4162 H   0  0  0  0  0  0  0  0  0  0  0  0
   -2.7310   -2.8991    0.1535 C   0  0  0  0  0  0  0  0  0  0  0  0
   -3.2990   -2.3848    0.9325 H   0  0  0  0  0  0  0  0  0  0  0  0
   -3.2649   -2.8104   -0.7956 H   0  0  0  0  0  0  0  0  0  0  0  0
   -1.3490   -2.2856    0.0297 C   0  0  0  0  0  0  0  0  0  0  0  0
   -0.3558   -2.9752    0.2013 O   0  0  0  0  0  0  0  0  0  0  0  0
   -1.2177   -0.9449   -0.2671 N   0  0  0  0  0  0  0  0  0  0  0  0
   -2.0699   -0.3855   -0.2998 H   0  0  0  0  0  0  0  0  0  0  0  0
    0.0519   -0.2051   -0.2713 C   0  0  1  0  0  0  0  0  0  0  0  0
    0.7617   -0.7622    0.3499 H   0  0  0  0  0  0  0  0  0  0  0  0
    0.6539   -0.1841   -1.7010 C   0  0  0  0  0  0  0  0  0  0  0  0
    1.6172   -0.7017   -1.6736 H   0  0  0  0  0  0  0  0  0  0  0  0
    0.0074   -0.7536   -2.3738 H   0  0  0  0  0  0  0  0  0  0  0  0
    0.8650    1.1892   -2.3361 C   0  0  0  0  0  0  0  0  0  0  0  0
    1.9287    1.3866   -2.8977 O   0  0  0  0  0  0  0  0  0  0  0  0
   -0.1766    2.0477   -2.3992 O   0  0  0  0  0  0  0  0  0  0  0  0
    0.1343    2.8262   -2.8845 H   0  0  0  0  0  0  0  0  0  0  0  0
   -0.0969    1.1569    0.4473 C   0  0  0  0  0  0  0  0  0  0  0  0
   -1.1664    1.7549    0.4167 O   0  0  0  0  0  0  0  0  0  0  0  0
    0.8684    1.5744    1.3458 N   0  0  0  0  0  0  0  0  0  0  0  0
    1.7131    1.0157    1.4283 H   0  0  0  0  0  0  0  0  0  0  0  0
    0.7179    2.7521    2.1923 C   0  0  0  0  0  0  0  0  0  0  0  0
   -0.1422    2.6364    2.8603 H   0  0  0  0  0  0  0  0  0  0  0  0
    1.6137    2.8958    2.8040 H   0  0  0  0  0  0  0  0  0  0  0  0
    0.5701    3.6480    1.5799 H   0  0  0  0  0  0  0  0  0  0  0  0
  1  2  1  0  0  0  0
  2  3  1  0  0  0  0
  2  4  1  0  0  0  0
  2  5  1  0  0  0  0
  5  6  2  0  0  0  0
  5  7  1  0  0  0  0
  7  8  1  0  0  0  0
  7  9  1  0  0  0  0
  9 10  1  0  0  0  0
  9 11  1  0  0  0  0
  9 18  1  0  0  0  0
 11 12  1  0  0  0  0
 11 13  1  0  0  0  0
 11 14  1  0  0  0  0
 14 15  2  0  0  0  0
 14 16  1  0  0  0  0
 16 17  1  0  0  0  0
 18 19  2  0  0  0  0
 18 20  1  0  0  0  0
 20 21  1  0  0  0  0
 20 22  1  0  0  0  0
 22 23  1  0  0  0  0
 22 24  1  0  0  0  0
 22 25  1  0  0  0  0
M  END
$$$$

  -OEChem-02102214113D

 25 24  0     1  0  0  0  0  0999 V2000
   -2.6426   -3.9499    0.3997 H   0  0  0  0  0  0  0  0  0  0  0  0
   -2.7253   -2.8879    0.1522 C   0  0  0  0  0  0  0  0  0  0  0  0
   -3.2803   -2.3832    0.9466 H   0  0  0  0  0  0  0  0  0  0  0  0
   -3.2738   -2.7859   -0.7872 H   0  0  0  0  0  0  0  0  0  0  0  0
   -1.3450   -2.2736    0.0146 C   0  0  0  0  0  0  0  0  0  0  0  0
   -0.3493   -2.9655    0.1617 O   0  0  0  0  0  0  0  0  0  0  0  0
   -1.2182   -0.9294   -0.2682 N   0  0  0  0  0  0  0  0  0  0  0  0
   -2.0703   -0.3690   -0.2687 H   0  0  0  0  0  0  0  0  0  0  0  0
    0.0503   -0.1870   -0.2685 C   0  0  1  0  0  0  0  0  0  0  0  0
    0.7560   -0.7465    0.3549 H   0  0  0  0  0  0  0  0  0  0  0  0
    0.6617   -0.1746   -1.6975 C   0  0  0  0  0  0  0  0  0  0  0  0
    1.6238   -0.6934   -1.6516 H   0  0  0  0  0  0  0  0  0  0  0  0
    0.0201   -0.7586   -2.3629 H   0  0  0  0  0  0  0  0  0  0  0  0
    0.8935    1.1738   -2.3830 C   0  0  0  0  0  0  0  0  0  0  0  0
    1.8249    1.2283   -3.1674 O   0  0  0  0  0  0  0  0  0  0  0  0
   -0.0032    2.1728   -2.2357 O   0  0  0  0  0  0  0  0  0  0  0  0
    0.2885    2.8943   -2.8125 H   0  0  0  0  0  0  0  0  0  0  0  0
   -0.1048    1.1657    0.4665 C   0  0  0  0  0  0  0  0  0  0  0  0
   -1.1891    1.7386    0.4706 O   0  0  0  0  0  0  0  0  0  0  0  0
    0.8608    1.5771    1.3683 N   0  0  0  0  0  0  0  0  0  0  0  0
    1.7146    1.0302    1.4312 H   0  0  0  0  0  0  0  0  0  0  0  0
    0.6986    2.7311    2.2452 C   0  0  0  0  0  0  0  0  0  0  0  0
   -0.1442    2.5787    2.9276 H   0  0  0  0  0  0  0  0  0  0  0  0
    1.6031    2.8837    2.8418 H   0  0  0  0  0  0  0  0  0  0  0  0
    0.5159    3.6365    1.6569 H   0  0  0  0  0  0  0  0  0  0  0  0
  1  2  1  0  0  0  0
  2  3  1  0  0  0  0
  2  4  1  0  0  0  0
  2  5  1  0  0  0  0
  5  6  2  0  0  0  0
  5  7  1  0  0  0  0
  7  8  1  0  0  0  0
  7  9  1  0  0  0  0
  9 10  1  0  0  0  0
  9 11  1  0  0  0  0
  9 18  1  0  0  0  0
 11 12  1  0  0  0  0
 11 13  1  0  0  0  0
 11 14  1  0  0  0  0
 14 15  2  0  0  0  0
 14 16  1  0  0  0  0
 16 17  1  0  0  0  0
 18 19  2  0  0  0  0
 18 20  1  0  0  0  0
 20 21  1  0  0  0  0
 20 22  1  0  0  0  0
 22 23  1  0  0  0  0
 22 24  1  0  0  0  0
 22 25  1  0  0  0  0
M  END
$$$$

  -OEChem-02102214113D

 25 24  0     1  0  0  0  0  0999 V2000
   -2.6355   -3.9469    0.3966 H   0  0  0  0  0  0  0  0  0  0  0  0
   -2.7191   -2.8844    0.1518 C   0  0  0  0  0  0  0  0  0  0  0  0
   -3.2669   -2.3802    0.9517 H   0  0  0  0  0  0  0  0  0  0  0  0
   -3.2752   -2.7806   -0.7830 H   0  0  0  0  0  0  0  0  0  0  0  0
   -1.3394   -2.2715    0.0036 C   0  0  0  0  0  0  0  0  0  0  0  0
   -0.3435   -2.9664    0.1339 O   0  0  0  0  0  0  0  0  0  0  0  0
   -1.2130   -0.9246   -0.2660 N   0  0  0  0  0  0  0  0  0  0  0  0
   -2.0631   -0.3613   -0.2418 H   0  0  0  0  0  0  0  0  0  0  0  0
    0.0581   -0.1860   -0.2643 C   0  0  1  0  0  0  0  0  0  0  0  0
    0.7699   -0.7491    0.3490 H   0  0  0  0  0  0  0  0  0  0  0  0
    0.6513   -0.1652   -1.7043 C   0  0  0  0  0  0  0  0  0  0  0  0
    1.6095   -0.6916   -1.6657 H   0  0  0  0  0  0  0  0  0  0  0  0
   -0.0014   -0.7511   -2.3574 H   0  0  0  0  0  0  0  0  0  0  0  0
    0.9017    1.1637   -2.4275 C   0  0  0  0  0  0  0  0  0  0  0  0
    1.6197    1.0957   -3.4102 O   0  0  0  0  0  0  0  0  0  0  0  0
    0.3003    2.3082   -2.0397 O   0  0  0  0  0  0  0  0  0  0  0  0
    0.5638    2.9874   -2.6784 H   0  0  0  0  0  0  0  0  0  0  0  0
   -0.1137    1.1536    0.4900 C   0  0  0  0  0  0  0  0  0  0  0  0
   -1.2051    1.7146    0.4930 O   0  0  0  0  0  0  0  0  0  0  0  0
    0.8433    1.5641    1.4011 N   0  0  0  0  0  0  0  0  0  0  0  0
    1.7093    1.0357    1.4494 H   0  0  0  0  0  0  0  0  0  0  0  0
    0.6731    2.7204    2.2727 C   0  0  0  0  0  0  0  0  0  0  0  0
   -0.1873    2.5777    2.9352 H   0  0  0  0  0  0  0  0  0  0  0  0
    1.5648    2.8637    2.8906 H   0  0  0  0  0  0  0  0  0  0  0  0
    0.5144    3.6269    1.6789 H   0  0  0  0  0  0  0  0  0  0  0  0
  1  2  1  0  0  0  0
  2  3  1  0  0  0  0
  2  4  1  0  0  0  0
  2  5  1  0  0  0  0
  5  6  2  0  0  0  0
  5  7  1  0  0  0  0
  7  8  1  0  0  0  0
  7  9  1  0  0  0  0
  9 10  1  0  0  0  0
  9 11  1  0  0  0  0
  9 18  1  0  0  0  0
 11 12  1  0  0  0  0
 11 13  1  0  0  0  0
 11 14  1  0  0  0  0
 14 15  2  0  0  0  0
 14 16  1  0  0  0  0
 16 17  1  0  0  0  0
 18 19  2  0  0  0  0
 18 20  1  0  0  0  0
 20 21  1  0  0  0  0
 20 22  1  0  0  0  0
 22 23  1  0  0  0  0
 22 24  1  0  0  0  0
 22 25  1  0  0  0  0
M  END
$$$$

  -OEChem-02102214113D

 25 24  0     1  0  0  0  0  0999 V2000
   -2.6620   -3.9438    0.3975 H   0  0  0  0  0  0  0  0  0  0  0  0
   -2.7195   -2.8849    0.1301 C   0  0  0  0  0  0  0  0  0  0  0  0
   -3.2880   -2.3579    0.9002 H   0  0  0  0  0  0  0  0  0  0  0  0
   -3.2395   -2.7903   -0.8261 H   0  0  0  0  0  0  0  0  0  0  0  0
   -1.3254   -2.2963    0.0210 C   0  0  0  0  0  0  0  0  0  0  0  0
   -0.3459   -3.0051    0.1932 O   0  0  0  0  0  0  0  0  0  0  0  0
   -1.1653   -0.9556   -0.2597 N   0  0  0  0  0  0  0  0  0  0  0  0
   -2.0035   -0.3739   -0.2743 H   0  0  0  0  0  0  0  0  0  0  0  0
    0.1250   -0.2502   -0.2349 C   0  0  1  0  0  0  0  0  0  0  0  0
    0.8616   -0.8087    0.3531 H   0  0  0  0  0  0  0  0  0  0  0  0
    0.6330   -0.1633   -1.7057 C   0  0  0  0  0  0  0  0  0  0  0  0
    1.3888   -0.9426   -1.8365 H   0  0  0  0  0  0  0  0  0  0  0  0
   -0.1986   -0.4131   -2.3714 H   0  0  0  0  0  0  0  0  0  0  0  0
    1.2154    1.1425   -2.2624 C   0  0  0  0  0  0  0  0  0  0  0  0
    1.5769    1.0915   -3.4252 O   0  0  0  0  0  0  0  0  0  0  0  0
    1.4524    2.2141   -1.4731 O   0  0  0  0  0  0  0  0  0  0  0  0
    1.8395    2.8894   -2.0511 H   0  0  0  0  0  0  0  0  0  0  0  0
   -0.1174    1.0814    0.5157 C   0  0  0  0  0  0  0  0  0  0  0  0
   -1.1693    1.6921    0.3480 O   0  0  0  0  0  0  0  0  0  0  0  0
    0.7740    1.5187    1.4791 N   0  0  0  0  0  0  0  0  0  0  0  0
    1.6592    1.0267    1.5539 H   0  0  0  0  0  0  0  0  0  0  0  0
    0.6023    2.7679    2.2102 C   0  0  0  0  0  0  0  0  0  0  0  0
   -0.3491    2.7674    2.7524 H   0  0  0  0  0  0  0  0  0  0  0  0
    1.4112    2.8965    2.9357 H   0  0  0  0  0  0  0  0  0  0  0  0
    0.6151    3.6186    1.5208 H   0  0  0  0  0  0  0  0  0  0  0  0
  1  2  1  0  0  0  0
  2  3  1  0  0  0  0
  2  4  1  0  0  0  0
  2  5  1  0  0  0  0
  5  6  2  0  0  0  0
  5  7  1  0  0  0  0
  7  8  1  0  0  0  0
  7  9  1  0  0  0  0
  9 10  1  0  0  0  0
  9 11  1  0  0  0  0
  9 18  1  0  0  0  0
 11 12  1  0  0  0  0
 11 13  1  0  0  0  0
 11 14  1  0  0  0  0
 14 15  2  0  0  0  0
 14 16  1  0  0  0  0
 16 17  1  0  0  0  0
 18 19  2  0  0  0  0
 18 20  1  0  0  0  0
 20 21  1  0  0  0  0
 20 22  1  0  0  0  0
 22 23  1  0  0  0  0
 22 24  1  0  0  0  0
 22 25  1  0  0  0  0
M  END
$$$$

  -OEChem-02102214113D

 25 24  0     1  0  0  0  0  0999 V2000
   -2.6720   -3.9497    0.3987 H   0  0  0  0  0  0  0  0  0  0  0  0
   -2.7251   -2.8933    0.1207 C   0  0  0  0  0  0  0  0  0  0  0  0
   -3.3081   -2.3596    0.8751 H   0  0  0  0  0  0  0  0  0  0  0  0
   -3.2276   -2.8077   -0.8459 H   0  0  0  0  0  0  0  0  0  0  0  0
   -1.3295   -2.3051    0.0326 C   0  0  0  0  0  0  0  0  0  0  0  0
   -0.3534   -3.0133    0.2254 O   0  0  0  0  0  0  0  0  0  0  0  0
   -1.1637   -0.9668   -0.2563 N   0  0  0  0  0  0  0  0  0  0  0  0
   -2.0009   -0.3854   -0.2975 H   0  0  0  0  0  0  0  0  0  0  0  0
    0.1284   -0.2654   -0.2287 C   0  0  1  0  0  0  0  0  0  0  0  0
    0.8688   -0.8236    0.3543 H   0  0  0  0  0  0  0  0  0  0  0  0
    0.6214   -0.1648   -1.7015 C   0  0  0  0  0  0  0  0  0  0  0  0
    1.3828   -0.9347   -1.8512 H   0  0  0  0  0  0  0  0  0  0  0  0
   -0.2124   -0.4064   -2.3681 H   0  0  0  0  0  0  0  0  0  0  0  0
    1.1953    1.1611   -2.2103 C   0  0  0  0  0  0  0  0  0  0  0  0
    1.2933    1.2683   -3.4204 O   0  0  0  0  0  0  0  0  0  0  0  0
    1.7649    2.0375   -1.3505 O   0  0  0  0  0  0  0  0  0  0  0  0
    2.1103    2.7575   -1.9010 H   0  0  0  0  0  0  0  0  0  0  0  0
   -0.1128    1.0729    0.5114 C   0  0  0  0  0  0  0  0  0  0  0  0
   -1.1418    1.7074    0.2996 O   0  0  0  0  0  0  0  0  0  0  0  0
    0.7717    1.5172    1.4776 N   0  0  0  0  0  0  0  0  0  0  0  0
    1.6557    1.0239    1.5589 H   0  0  0  0  0  0  0  0  0  0  0  0
    0.6151    2.7891    2.1717 C   0  0  0  0  0  0  0  0  0  0  0  0
   -0.3523    2.8312    2.6831 H   0  0  0  0  0  0  0  0  0  0  0  0
    1.4041    2.9113    2.9198 H   0  0  0  0  0  0  0  0  0  0  0  0
    0.6759    3.6210    1.4623 H   0  0  0  0  0  0  0  0  0  0  0  0
  1  2  1  0  0  0  0
  2  3  1  0  0  0  0
  2  4  1  0  0  0  0
  2  5  1  0  0  0  0
  5  6  2  0  0  0  0
  5  7  1  0  0  0  0
  7  8  1  0  0  0  0
  7  9  1  0  0  0  0
  9 10  1  0  0  0  0
  9 11  1  0  0  0  0
  9 18  1  0  0  0  0
 11 12  1  0  0  0  0
 11 13  1  0  0  0  0
 11 14  1  0  0  0  0
 14 15  2  0  0  0  0
 14 16  1  0  0  0  0
 16 17  1  0  0  0  0
 18 19  2  0  0  0  0
 18 20  1  0  0  0  0
 20 21  1  0  0  0  0
 20 22  1  0  0  0  0
 22 23  1  0  0  0  0
 22 24  1  0  0  0  0
 22 25  1  0  0  0  0
M  END
$$$$

  -OEChem-02102214113D

 25 24  0     1  0  0  0  0  0999 V2000
   -2.6866   -3.9522    0.3989 H   0  0  0  0  0  0  0  0  0  0  0  0
   -2.7344   -2.8967    0.1169 C   0  0  0  0  0  0  0  0  0  0  0  0
   -3.3261   -2.3595    0.8622 H   0  0  0  0  0  0  0  0  0  0  0  0
   -3.2239   -2.8136   -0.8564 H   0  0  0  0  0  0  0  0  0  0  0  0
   -1.3368   -2.3113    0.0443 C   0  0  0  0  0  0  0  0  0  0  0  0
   -0.3650   -3.0176    0.2632 O   0  0  0  0  0  0  0  0  0  0  0  0
   -1.1649   -0.9768   -0.2585 N   0  0  0  0  0  0  0  0  0  0  0  0
   -2.0008   -0.3965   -0.3281 H   0  0  0  0  0  0  0  0  0  0  0  0
    0.1280   -0.2776   -0.2302 C   0  0  1  0  0  0  0  0  0  0  0  0
    0.8651   -0.8343    0.3585 H   0  0  0  0  0  0  0  0  0  0  0  0
    0.6285   -0.1773   -1.6979 C   0  0  0  0  0  0  0  0  0  0  0  0
    1.3983   -0.9383   -1.8491 H   0  0  0  0  0  0  0  0  0  0  0  0
   -0.1976   -0.4171   -2.3749 H   0  0  0  0  0  0  0  0  0  0  0  0
    1.1965    1.1667   -2.1562 C   0  0  0  0  0  0  0  0  0  0  0  0
    1.0645    1.4519   -3.3337 O   0  0  0  0  0  0  0  0  0  0  0  0
    1.9915    1.8671   -1.3120 O   0  0  0  0  0  0  0  0  0  0  0  0
    2.2946    2.6369   -1.8187 H   0  0  0  0  0  0  0  0  0  0  0  0
   -0.1017    1.0725    0.4911 C   0  0  0  0  0  0  0  0  0  0  0  0
   -1.1159    1.7215    0.2569 O   0  0  0  0  0  0  0  0  0  0  0  0
    0.7841    1.5211    1.4535 N   0  0  0  0  0  0  0  0  0  0  0  0
    1.6623    1.0184    1.5446 H   0  0  0  0  0  0  0  0  0  0  0  0
    0.6387    2.8026    2.1325 C   0  0  0  0  0  0  0  0  0  0  0  0
   -0.3313    2.8617    2.6377 H   0  0  0  0  0  0  0  0  0  0  0  0
    1.4250    2.9241    2.8838 H   0  0  0  0  0  0  0  0  0  0  0  0
    0.7132    3.6260    1.4146 H   0  0  0  0  0  0  0  0  0  0  0  0
  1  2  1  0  0  0  0
  2  3  1  0  0  0  0
  2  4  1  0  0  0  0
  2  5  1  0  0  0  0
  5  6  2  0  0  0  0
  5  7  1  0  0  0  0
  7  8  1  0  0  0  0
  7  9  1  0  0  0  0
  9 10  1  0  0  0  0
  9 11  1  0  0  0  0
  9 18  1  0  0  0  0
 11 12  1  0  0  0  0
 11 13  1  0  0  0  0
 11 14  1  0  0  0  0
 14 15  2  0  0  0  0
 14 16  1  0  0  0  0
 16 17  1  0  0  0  0
 18 19  2  0  0  0  0
 18 20  1  0  0  0  0
 20 21  1  0  0  0  0
 20 22  1  0  0  0  0
 22 23  1  0  0  0  0
 22 24  1  0  0  0  0
 22 25  1  0  0  0  0
M  END
$$$$

  -OEChem-02102214113D

 25 24  0     1  0  0  0  0  0999 V2000
   -2.7003   -3.9506    0.4007 H   0  0  0  0  0  0  0  0  0  0  0  0
   -2.7441   -2.8954    0.1171 C   0  0  0  0  0  0  0  0  0  0  0  0
   -3.3359   -2.3551    0.8600 H   0  0  0  0  0  0  0  0  0  0  0  0
   -3.2311   -2.8124   -0.8575 H   0  0  0  0  0  0  0  0  0  0  0  0
   -1.3445   -2.3143    0.0478 C   0  0  0  0  0  0  0  0  0  0  0  0
   -0.3757   -3.0215    0.2772 O   0  0  0  0  0  0  0  0  0  0  0  0
   -1.1680   -0.9832   -0.2670 N   0  0  0  0  0  0  0  0  0  0  0  0
   -2.0027   -0.4030   -0.3503 H   0  0  0  0  0  0  0  0  0  0  0  0
    0.1250   -0.2850   -0.2382 C   0  0  1  0  0  0  0  0  0  0  0  0
    0.8542   -0.8403    0.3620 H   0  0  0  0  0  0  0  0  0  0  0  0
    0.6461   -0.1972   -1.6968 C   0  0  0  0  0  0  0  0  0  0  0  0
    1.4236   -0.9526   -1.8356 H   0  0  0  0  0  0  0  0  0  0  0  0
   -0.1667   -0.4410   -2.3882 H   0  0  0  0  0  0  0  0  0  0  0  0
    1.2109    1.1569   -2.1206 C   0  0  0  0  0  0  0  0  0  0  0  0
    0.8787    1.6032   -3.2047 O   0  0  0  0  0  0  0  0  0  0  0  0
    2.1632    1.7250   -1.3417 O   0  0  0  0  0  0  0  0  0  0  0  0
    2.4197    2.5410   -1.7999 H   0  0  0  0  0  0  0  0  0  0  0  0
   -0.0874    1.0769    0.4654 C   0  0  0  0  0  0  0  0  0  0  0  0
   -1.0954    1.7330    0.2268 O   0  0  0  0  0  0  0  0  0  0  0  0
    0.8041    1.5272    1.4215 N   0  0  0  0  0  0  0  0  0  0  0  0
    1.6721    1.0097    1.5283 H   0  0  0  0  0  0  0  0  0  0  0  0
    0.6647    2.8102    2.0993 C   0  0  0  0  0  0  0  0  0  0  0  0
   -0.2981    2.8674    2.6182 H   0  0  0  0  0  0  0  0  0  0  0  0
    1.4613    2.9360    2.8388 H   0  0  0  0  0  0  0  0  0  0  0  0
    0.7263    3.6324    1.3789 H   0  0  0  0  0  0  0  0  0  0  0  0
  1  2  1  0  0  0  0
  2  3  1  0  0  0  0
  2  4  1  0  0  0  0
  2  5  1  0  0  0  0
  5  6  2  0  0  0  0
  5  7  1  0  0  0  0
  7  8  1  0  0  0  0
  7  9  1  0  0  0  0
  9 10  1  0  0  0  0
  9 11  1  0  0  0  0
  9 18  1  0  0  0  0
 11 12  1  0  0  0  0
 11 13  1  0  0  0  0
 11 14  1  0  0  0  0
 14 15  2  0  0  0  0
 14 16  1  0  0  0  0
 16 17  1  0  0  0  0
 18 19  2  0  0  0  0
 18 20  1  0  0  0  0
 20 21  1  0  0  0  0
 20 22  1  0  0  0  0
 22 23  1  0  0  0  0
 22 24  1  0  0  0  0
 22 25  1  0  0  0  0
M  END
$$$$

  -OEChem-02102214113D

 25 24  0     1  0  0  0  0  0999 V2000
   -2.7087   -3.9522    0.4053 H   0  0  0  0  0  0  0  0  0  0  0  0
   -2.7515   -2.8985    0.1159 C   0  0  0  0  0  0  0  0  0  0  0  0
   -3.3465   -2.3543    0.8533 H   0  0  0  0  0  0  0  0  0  0  0  0
   -3.2342   -2.8203   -0.8613 H   0  0  0  0  0  0  0  0  0  0  0  0
   -1.3517   -2.3177    0.0492 C   0  0  0  0  0  0  0  0  0  0  0  0
   -0.3839   -3.0236    0.2867 O   0  0  0  0  0  0  0  0  0  0  0  0
   -1.1745   -0.9888   -0.2744 N   0  0  0  0  0  0  0  0  0  0  0  0
   -2.0093   -0.4102   -0.3672 H   0  0  0  0  0  0  0  0  0  0  0  0
    0.1172   -0.2890   -0.2479 C   0  0  1  0  0  0  0  0  0  0  0  0
    0.8385   -0.8431    0.3627 H   0  0  0  0  0  0  0  0  0  0  0  0
    0.6604   -0.2150   -1.6969 C   0  0  0  0  0  0  0  0  0  0  0  0
    1.4450   -0.9657   -1.8204 H   0  0  0  0  0  0  0  0  0  0  0  0
   -0.1387   -0.4652   -2.4015 H   0  0  0  0  0  0  0  0  0  0  0  0
    1.2207    1.1457   -2.0988 C   0  0  0  0  0  0  0  0  0  0  0  0
    0.7153    1.7333   -3.0388 O   0  0  0  0  0  0  0  0  0  0  0  0
    2.2984    1.6068   -1.4194 O   0  0  0  0  0  0  0  0  0  0  0  0
    2.5127    2.4624   -1.8239 H   0  0  0  0  0  0  0  0  0  0  0  0
   -0.0771    1.0818    0.4423 C   0  0  0  0  0  0  0  0  0  0  0  0
   -1.0840    1.7415    0.2124 O   0  0  0  0  0  0  0  0  0  0  0  0
    0.8246    1.5300    1.3894 N   0  0  0  0  0  0  0  0  0  0  0  0
    1.6827    0.9981    1.5060 H   0  0  0  0  0  0  0  0  0  0  0  0
    0.6979    2.8160    2.0637 C   0  0  0  0  0  0  0  0  0  0  0  0
   -0.2552    2.8757    2.5997 H   0  0  0  0  0  0  0  0  0  0  0  0
    1.5082    2.9448    2.7877 H   0  0  0  0  0  0  0  0  0  0  0  0
    0.7463    3.6350    1.3385 H   0  0  0  0  0  0  0  0  0  0  0  0
  1  2  1  0  0  0  0
  2  3  1  0  0  0  0
  2  4  1  0  0  0  0
  2  5  1  0  0  0  0
  5  6  2  0  0  0  0
  5  7  1  0  0  0  0
  7  8  1  0  0  0  0
  7  9  1  0  0  0  0
  9 10  1  0  0  0  0
  9 11  1  0  0  0  0
  9 18  1  0  0  0  0
 11 12  1  0  0  0  0
 11 13  1  0  0  0  0
 11 14  1  0  0  0  0
 14 15  2  0  0  0  0
 14 16  1  0  0  0  0
 16 17  1  0  0  0  0
 18 19  2  0  0  0  0
 18 20  1  0  0  0  0
 20 21  1  0  0  0  0
 20 22  1  0  0  0  0
 22 23  1  0  0  0  0
 22 24  1  0  0  0  0
 22 25  1  0  0  0  0
M  END
$$$$

  -OEChem-02102214113D

 25 24  0     1  0  0  0  0  0999 V2000
   -2.7119   -3.9469    0.4137 H   0  0  0  0  0  0  0  0  0  0  0  0
   -2.7549   -2.8940    0.1213 C   0  0  0  0  0  0  0  0  0  0  0  0
   -3.3490   -2.3476    0.8578 H   0  0  0  0  0  0  0  0  0  0  0  0
   -3.2387   -2.8188   -0.8556 H   0  0  0  0  0  0  0  0  0  0  0  0
   -1.3552   -2.3132    0.0510 C   0  0  0  0  0  0  0  0  0  0  0  0
   -0.3872   -3.0168    0.2951 O   0  0  0  0  0  0  0  0  0  0  0  0
   -1.1787   -0.9866   -0.2820 N   0  0  0  0  0  0  0  0  0  0  0  0
   -2.0140   -0.4099   -0.3810 H   0  0  0  0  0  0  0  0  0  0  0  0
    0.1116   -0.2844   -0.2617 C   0  0  1  0  0  0  0  0  0  0  0  0
    0.8270   -0.8351    0.3588 H   0  0  0  0  0  0  0  0  0  0  0  0
    0.6724   -0.2310   -1.7036 C   0  0  0  0  0  0  0  0  0  0  0  0
    1.4611   -0.9805   -1.8089 H   0  0  0  0  0  0  0  0  0  0  0  0
   -0.1161   -0.4915   -2.4161 H   0  0  0  0  0  0  0  0  0  0  0  0
    1.2304    1.1284   -2.1091 C   0  0  0  0  0  0  0  0  0  0  0  0
    0.5845    1.8307   -2.8663 O   0  0  0  0  0  0  0  0  0  0  0  0
    2.4235    1.4924   -1.5830 O   0  0  0  0  0  0  0  0  0  0  0  0
    2.6084    2.3735   -1.9448 H   0  0  0  0  0  0  0  0  0  0  0  0
   -0.0686    1.0940    0.4163 C   0  0  0  0  0  0  0  0  0  0  0  0
   -1.0843    1.7473    0.2104 O   0  0  0  0  0  0  0  0  0  0  0  0
    0.8442    1.5407    1.3537 N   0  0  0  0  0  0  0  0  0  0  0  0
    1.6922    0.9952    1.4817 H   0  0  0  0  0  0  0  0  0  0  0  0
    0.7119    2.8125    2.0539 C   0  0  0  0  0  0  0  0  0  0  0  0
   -0.2293    2.8465    2.6128 H   0  0  0  0  0  0  0  0  0  0  0  0
    1.5368    2.9430    2.7608 H   0  0  0  0  0  0  0  0  0  0  0  0
    0.7295    3.6445    1.3423 H   0  0  0  0  0  0  0  0  0  0  0  0
  1  2  1  0  0  0  0
  2  3  1  0  0  0  0
  2  4  1  0  0  0  0
  2  5  1  0  0  0  0
  5  6  2  0  0  0  0
  5  7  1  0  0  0  0
  7  8  1  0  0  0  0
  7  9  1  0  0  0  0
  9 10  1  0  0  0  0
  9 11  1  0  0  0  0
  9 18  1  0  0  0  0
 11 12  1  0  0  0  0
 11 13  1  0  0  0  0
 11 14  1  0  0  0  0
 14 15  2  0  0  0  0
 14 16  1  0  0  0  0
 16 17  1  0  0  0  0
 18 19  2  0  0  0  0
 18 20  1  0  0  0  0
 20 21  1  0  0  0  0
 20 22  1  0  0  0  0
 22 23  1  0  0  0  0
 22 24  1  0  0  0  0
 22 25  1  0  0  0  0
M  END
$$$$

  -OEChem-02102214113D

 25 24  0     1  0  0  0  0  0999 V2000
   -2.7113   -3.9366    0.4258 H   0  0  0  0  0  0  0  0  0  0  0  0
   -2.7547   -2.8838    0.1331 C   0  0  0  0  0  0  0  0  0  0  0  0
   -3.3397   -2.3355    0.8756 H   0  0  0  0  0  0  0  0  0  0  0  0
   -3.2485   -2.8078   -0.8387 H   0  0  0  0  0  0  0  0  0  0  0  0
   -1.3548   -2.3060    0.0476 C   0  0  0  0  0  0  0  0  0  0  0  0
   -0.3854   -3.0101    0.2845 O   0  0  0  0  0  0  0  0  0  0  0  0
   -1.1804   -0.9806   -0.2904 N   0  0  0  0  0  0  0  0  0  0  0  0
   -2.0164   -0.4031   -0.3793 H   0  0  0  0  0  0  0  0  0  0  0  0
    0.1085   -0.2762   -0.2761 C   0  0  1  0  0  0  0  0  0  0  0  0
    0.8199   -0.8239    0.3516 H   0  0  0  0  0  0  0  0  0  0  0  0
    0.6825   -0.2394   -1.7131 C   0  0  0  0  0  0  0  0  0  0  0  0
    1.4701   -0.9920   -1.8038 H   0  0  0  0  0  0  0  0  0  0  0  0
   -0.1000   -0.5071   -2.4292 H   0  0  0  0  0  0  0  0  0  0  0  0
    1.2417    1.1142   -2.1357 C   0  0  0  0  0  0  0  0  0  0  0  0
    0.5037    1.9177   -2.6767 O   0  0  0  0  0  0  0  0  0  0  0  0
    2.5337    1.3736   -1.8282 O   0  0  0  0  0  0  0  0  0  0  0  0
    2.7040    2.2716   -2.1536 H   0  0  0  0  0  0  0  0  0  0  0  0
   -0.0666    1.1055    0.3968 C   0  0  0  0  0  0  0  0  0  0  0  0
   -1.0994    1.7421    0.2266 O   0  0  0  0  0  0  0  0  0  0  0  0
    0.8535    1.5519    1.3275 N   0  0  0  0  0  0  0  0  0  0  0  0
    1.6926    0.9961    1.4679 H   0  0  0  0  0  0  0  0  0  0  0  0
    0.7058    2.8046    2.0585 C   0  0  0  0  0  0  0  0  0  0  0  0
   -0.2160    2.7972    2.6499 H   0  0  0  0  0  0  0  0  0  0  0  0
    1.5508    2.9479    2.7388 H   0  0  0  0  0  0  0  0  0  0  0  0
    0.6721    3.6509    1.3643 H   0  0  0  0  0  0  0  0  0  0  0  0
  1  2  1  0  0  0  0
  2  3  1  0  0  0  0
  2  4  1  0  0  0  0
  2  5  1  0  0  0  0
  5  6  2  0  0  0  0
  5  7  1  0  0  0  0
  7  8  1  0  0  0  0
  7  9  1  0  0  0  0
  9 10  1  0  0  0  0
  9 11  1  0  0  0  0
  9 18  1  0  0  0  0
 11 12  1  0  0  0  0
 11 13  1  0  0  0  0
 11 14  1  0  0  0  0
 14 15  2  0  0  0  0
 14 16  1  0  0  0  0
 16 17  1  0  0  0  0
 18 19  2  0  0  0  0
 18 20  1  0  0  0  0
 20 21  1  0  0  0  0
 20 22  1  0  0  0  0
 22 23  1  0  0  0  0
 22 24  1  0  0  0  0
 22 25  1  0  0  0  0
M  END
$$$$

  -OEChem-02102214113D

 25 24  0     1  0  0  0  0  0999 V2000
   -2.7010   -3.9289    0.4316 H   0  0  0  0  0  0  0  0  0  0  0  0
   -2.7501   -2.8751    0.1435 C   0  0  0  0  0  0  0  0  0  0  0  0
   -3.3233   -2.3298    0.8972 H   0  0  0  0  0  0  0  0  0  0  0  0
   -3.2603   -2.7959   -0.8194 H   0  0  0  0  0  0  0  0  0  0  0  0
   -1.3521   -2.2958    0.0376 C   0  0  0  0  0  0  0  0  0  0  0  0
   -0.3787   -3.0007    0.2552 O   0  0  0  0  0  0  0  0  0  0  0  0
   -1.1832   -0.9688   -0.2974 N   0  0  0  0  0  0  0  0  0  0  0  0
   -2.0205   -0.3896   -0.3624 H   0  0  0  0  0  0  0  0  0  0  0  0
    0.1039   -0.2605   -0.2839 C   0  0  1  0  0  0  0  0  0  0  0  0
    0.8115   -0.8061    0.3497 H   0  0  0  0  0  0  0  0  0  0  0  0
    0.6898   -0.2375   -1.7175 C   0  0  0  0  0  0  0  0  0  0  0  0
    1.4734   -0.9963   -1.7920 H   0  0  0  0  0  0  0  0  0  0  0  0
   -0.0890   -0.5138   -2.4340 H   0  0  0  0  0  0  0  0  0  0  0  0
    1.2552    1.1038   -2.1740 C   0  0  0  0  0  0  0  0  0  0  0  0
    0.4917    2.0001   -2.4842 O   0  0  0  0  0  0  0  0  0  0  0  0
    2.6006    1.2438   -2.1550 O   0  0  0  0  0  0  0  0  0  0  0  0
    2.7742    2.1472   -2.4625 H   0  0  0  0  0  0  0  0  0  0  0  0
   -0.0735    1.1194    0.3929 C   0  0  0  0  0  0  0  0  0  0  0  0
   -1.1260    1.7335    0.2622 O   0  0  0  0  0  0  0  0  0  0  0  0
    0.8497    1.5633    1.3220 N   0  0  0  0  0  0  0  0  0  0  0  0
    1.6910    1.0098    1.4565 H   0  0  0  0  0  0  0  0  0  0  0  0
    0.6862    2.7958    2.0836 C   0  0  0  0  0  0  0  0  0  0  0  0
   -0.2132    2.7452    2.7064 H   0  0  0  0  0  0  0  0  0  0  0  0
    1.5496    2.9553    2.7365 H   0  0  0  0  0  0  0  0  0  0  0  0
    0.5995    3.6542    1.4088 H   0  0  0  0  0  0  0  0  0  0  0  0
  1  2  1  0  0  0  0
  2  3  1  0  0  0  0
  2  4  1  0  0  0  0
  2  5  1  0  0  0  0
  5  6  2  0  0  0  0
  5  7  1  0  0  0  0
  7  8  1  0  0  0  0
  7  9  1  0  0  0  0
  9 10  1  0  0  0  0
  9 11  1  0  0  0  0
  9 18  1  0  0  0  0
 11 12  1  0  0  0  0
 11 13  1  0  0  0  0
 11 14  1  0  0  0  0
 14 15  2  0  0  0  0
 14 16  1  0  0  0  0
 16 17  1  0  0  0  0
 18 19  2  0  0  0  0
 18 20  1  0  0  0  0
 20 21  1  0  0  0  0
 20 22  1  0  0  0  0
 22 23  1  0  0  0  0
 22 24  1  0  0  0  0
 22 25  1  0  0  0  0
M  END
$$$$

  -OEChem-02102214113D

 25 24  0     1  0  0  0  0  0999 V2000
   -2.6858   -3.9215    0.4322 H   0  0  0  0  0  0  0  0  0  0  0  0
   -2.7397   -2.8667    0.1489 C   0  0  0  0  0  0  0  0  0  0  0  0
   -3.3020   -2.3249    0.9133 H   0  0  0  0  0  0  0  0  0  0  0  0
   -3.2641   -2.7842   -0.8061 H   0  0  0  0  0  0  0  0  0  0  0  0
   -1.3440   -2.2855    0.0251 C   0  0  0  0  0  0  0  0  0  0  0  0
   -0.3662   -2.9906    0.2215 O   0  0  0  0  0  0  0  0  0  0  0  0
   -1.1828   -0.9549   -0.2991 N   0  0  0  0  0  0  0  0  0  0  0  0
   -2.0221   -0.3764   -0.3393 H   0  0  0  0  0  0  0  0  0  0  0  0
    0.1014   -0.2416   -0.2850 C   0  0  1  0  0  0  0  0  0  0  0  0
    0.8084   -0.7875    0.3489 H   0  0  0  0  0  0  0  0  0  0  0  0
    0.6926   -0.2260   -1.7195 C   0  0  0  0  0  0  0  0  0  0  0  0
    1.4720   -0.9907   -1.7802 H   0  0  0  0  0  0  0  0  0  0  0  0
   -0.0859   -0.5128   -2.4320 H   0  0  0  0  0  0  0  0  0  0  0  0
    1.2661    1.0986   -2.2212 C   0  0  0  0  0  0  0  0  0  0  0  0
    0.5524    2.0814   -2.2999 O   0  0  0  0  0  0  0  0  0  0  0  0
    2.5843    1.1137   -2.5249 O   0  0  0  0  0  0  0  0  0  0  0  0
    2.7756    2.0166   -2.8231 H   0  0  0  0  0  0  0  0  0  0  0  0
   -0.0850    1.1304    0.4059 C   0  0  0  0  0  0  0  0  0  0  0  0
   -1.1549    1.7215    0.3094 O   0  0  0  0  0  0  0  0  0  0  0  0
    0.8383    1.5713    1.3368 N   0  0  0  0  0  0  0  0  0  0  0  0
    1.6883    1.0282    1.4562 H   0  0  0  0  0  0  0  0  0  0  0  0
    0.6617    2.7875    2.1214 C   0  0  0  0  0  0  0  0  0  0  0  0
   -0.2320    2.7119    2.7497 H   0  0  0  0  0  0  0  0  0  0  0  0
    1.5275    2.9488    2.7706 H   0  0  0  0  0  0  0  0  0  0  0  0
    0.5569    3.6559    1.4625 H   0  0  0  0  0  0  0  0  0  0  0  0
  1  2  1  0  0  0  0
  2  3  1  0  0  0  0
  2  4  1  0  0  0  0
  2  5  1  0  0  0  0
  5  6  2  0  0  0  0
  5  7  1  0  0  0  0
  7  8  1  0  0  0  0
  7  9  1  0  0  0  0
  9 10  1  0  0  0  0
  9 11  1  0  0  0  0
  9 18  1  0  0  0  0
 11 12  1  0  0  0  0
 11 13  1  0  0  0  0
 11 14  1  0  0  0  0
 14 15  2  0  0  0  0
 14 16  1  0  0  0  0
 16 17  1  0  0  0  0
 18 19  2  0  0  0  0
 18 20  1  0  0  0  0
 20 21  1  0  0  0  0
 20 22  1  0  0  0  0
 22 23  1  0  0  0  0
 22 24  1  0  0  0  0
 22 25  1  0  0  0  0
M  END
$$$$

  -OEChem-02102214113D

 25 24  0     1  0  0  0  0  0999 V2000
   -2.6696   -3.9190    0.4217 H   0  0  0  0  0  0  0  0  0  0  0  0
   -2.7284   -2.8625    0.1456 C   0  0  0  0  0  0  0  0  0  0  0  0
   -3.2846   -2.3266    0.9186 H   0  0  0  0  0  0  0  0  0  0  0  0
   -3.2618   -2.7750   -0.8039 H   0  0  0  0  0  0  0  0  0  0  0  0
   -1.3349   -2.2776    0.0120 C   0  0  0  0  0  0  0  0  0  0  0  0
   -0.3536   -2.9840    0.1855 O   0  0  0  0  0  0  0  0  0  0  0  0
   -1.1787   -0.9425   -0.2960 N   0  0  0  0  0  0  0  0  0  0  0  0
   -2.0185   -0.3629   -0.3072 H   0  0  0  0  0  0  0  0  0  0  0  0
    0.1048   -0.2271   -0.2781 C   0  0  1  0  0  0  0  0  0  0  0  0
    0.8146   -0.7755    0.3507 H   0  0  0  0  0  0  0  0  0  0  0  0
    0.6909   -0.2066   -1.7179 C   0  0  0  0  0  0  0  0  0  0  0  0
    1.4656   -0.9764   -1.7750 H   0  0  0  0  0  0  0  0  0  0  0  0
   -0.0921   -0.4985   -2.4230 H   0  0  0  0  0  0  0  0  0  0  0  0
    1.2740    1.1006   -2.2606 C   0  0  0  0  0  0  0  0  0  0  0  0
    0.6890    2.1578   -2.1165 O   0  0  0  0  0  0  0  0  0  0  0  0
    2.4675    0.9993   -2.8894 O   0  0  0  0  0  0  0  0  0  0  0  0
    2.6895    1.8968   -3.1820 H   0  0  0  0  0  0  0  0  0  0  0  0
   -0.0964    1.1326    0.4335 C   0  0  0  0  0  0  0  0  0  0  0  0
   -1.1771    1.7077    0.3524 O   0  0  0  0  0  0  0  0  0  0  0  0
    0.8218    1.5696    1.3713 N   0  0  0  0  0  0  0  0  0  0  0  0
    1.6895    1.0500    1.4628 H   0  0  0  0  0  0  0  0  0  0  0  0
    0.6403    2.7834    2.1583 C   0  0  0  0  0  0  0  0  0  0  0  0
   -0.2622    2.7103    2.7743 H   0  0  0  0  0  0  0  0  0  0  0  0
    1.4980    2.9376    2.8199 H   0  0  0  0  0  0  0  0  0  0  0  0
    0.5488    3.6547    1.5011 H   0  0  0  0  0  0  0  0  0  0  0  0
  1  2  1  0  0  0  0
  2  3  1  0  0  0  0
  2  4  1  0  0  0  0
  2  5  1  0  0  0  0
  5  6  2  0  0  0  0
  5  7  1  0  0  0  0
  7  8  1  0  0  0  0
  7  9  1  0  0  0  0
  9 10  1  0  0  0  0
  9 11  1  0  0  0  0
  9 18  1  0  0  0  0
 11 12  1  0  0  0  0
 11 13  1  0  0  0  0
 11 14  1  0  0  0  0
 14 15  2  0  0  0  0
 14 16  1  0  0  0  0
 16 17  1  0  0  0  0
 18 19  2  0  0  0  0
 18 20  1  0  0  0  0
 20 21  1  0  0  0  0
 20 22  1  0  0  0  0
 22 23  1  0  0  0  0
 22 24  1  0  0  0  0
 22 25  1  0  0  0  0
M  END
$$$$

  -OEChem-02102214113D

 25 24  0     1  0  0  0  0  0999 V2000
   -2.6594   -3.9190    0.4065 H   0  0  0  0  0  0  0  0  0  0  0  0
   -2.7197   -2.8617    0.1340 C   0  0  0  0  0  0  0  0  0  0  0  0
   -3.2777   -2.3298    0.9083 H   0  0  0  0  0  0  0  0  0  0  0  0
   -3.2523   -2.7723   -0.8158 H   0  0  0  0  0  0  0  0  0  0  0  0
   -1.3270   -2.2745    0.0034 C   0  0  0  0  0  0  0  0  0  0  0  0
   -0.3455   -2.9836    0.1631 O   0  0  0  0  0  0  0  0  0  0  0  0
   -1.1714   -0.9358   -0.2886 N   0  0  0  0  0  0  0  0  0  0  0  0
   -2.0100   -0.3544   -0.2837 H   0  0  0  0  0  0  0  0  0  0  0  0
    0.1136   -0.2225   -0.2658 C   0  0  1  0  0  0  0  0  0  0  0  0
    0.8288   -0.7758    0.3526 H   0  0  0  0  0  0  0  0  0  0  0  0
    0.6840   -0.1874   -1.7149 C   0  0  0  0  0  0  0  0  0  0  0  0
    1.4520   -0.9631   -1.7834 H   0  0  0  0  0  0  0  0  0  0  0  0
   -0.1100   -0.4735   -2.4099 H   0  0  0  0  0  0  0  0  0  0  0  0
    1.2747    1.1073   -2.2850 C   0  0  0  0  0  0  0  0  0  0  0  0
    0.8812    2.2045   -1.9366 O   0  0  0  0  0  0  0  0  0  0  0  0
    2.2574    0.9377   -3.1991 O   0  0  0  0  0  0  0  0  0  0  0  0
    2.5148    1.8291   -3.4806 H   0  0  0  0  0  0  0  0  0  0  0  0
   -0.1020    1.1246    0.4664 C   0  0  0  0  0  0  0  0  0  0  0  0
   -1.1837    1.6980    0.3782 O   0  0  0  0  0  0  0  0  0  0  0  0
    0.8084    1.5581    1.4138 N   0  0  0  0  0  0  0  0  0  0  0  0
    1.6907    1.0603    1.4826 H   0  0  0  0  0  0  0  0  0  0  0  0
    0.6315    2.7844    2.1824 C   0  0  0  0  0  0  0  0  0  0  0  0
   -0.2923    2.7407    2.7689 H   0  0  0  0  0  0  0  0  0  0  0  0
    1.4702    2.9241    2.8712 H   0  0  0  0  0  0  0  0  0  0  0  0
    0.5834    3.6501    1.5134 H   0  0  0  0  0  0  0  0  0  0  0  0
  1  2  1  0  0  0  0
  2  3  1  0  0  0  0
  2  4  1  0  0  0  0
  2  5  1  0  0  0  0
  5  6  2  0  0  0  0
  5  7  1  0  0  0  0
  7  8  1  0  0  0  0
  7  9  1  0  0  0  0
  9 10  1  0  0  0  0
  9 11  1  0  0  0  0
  9 18  1  0  0  0  0
 11 12  1  0  0  0  0
 11 13  1  0  0  0  0
 11 14  1  0  0  0  0
 14 15  2  0  0  0  0
 14 16  1  0  0  0  0
 16 17  1  0  0  0  0
 18 19  2  0  0  0  0
 18 20  1  0  0  0  0
 20 21  1  0  0  0  0
 20 22  1  0  0  0  0
 22 23  1  0  0  0  0
 22 24  1  0  0  0  0
 22 25  1  0  0  0  0
M  END
$$$$

  -OEChem-02102214113D

 25 24  0     1  0  0  0  0  0999 V2000
   -2.6605   -3.9179    0.3944 H   0  0  0  0  0  0  0  0  0  0  0  0
   -2.7181   -2.8585    0.1292 C   0  0  0  0  0  0  0  0  0  0  0  0
   -3.2730   -2.3301    0.9083 H   0  0  0  0  0  0  0  0  0  0  0  0
   -3.2520   -2.7607   -0.8191 H   0  0  0  0  0  0  0  0  0  0  0  0
   -1.3237   -2.2748    0.0002 C   0  0  0  0  0  0  0  0  0  0  0  0
   -0.3442   -2.9878    0.1555 O   0  0  0  0  0  0  0  0  0  0  0  0
   -1.1634   -0.9348   -0.2836 N   0  0  0  0  0  0  0  0  0  0  0  0
   -1.9997   -0.3499   -0.2729 H   0  0  0  0  0  0  0  0  0  0  0  0
    0.1260   -0.2282   -0.2574 C   0  0  1  0  0  0  0  0  0  0  0  0
    0.8465   -0.7860    0.3503 H   0  0  0  0  0  0  0  0  0  0  0  0
    0.6774   -0.1740   -1.7150 C   0  0  0  0  0  0  0  0  0  0  0  0
    1.4370   -0.9554   -1.8055 H   0  0  0  0  0  0  0  0  0  0  0  0
   -0.1311   -0.4447   -2.3997 H   0  0  0  0  0  0  0  0  0  0  0  0
    1.2745    1.1159   -2.2928 C   0  0  0  0  0  0  0  0  0  0  0  0
    1.1149    2.2034   -1.7711 O   0  0  0  0  0  0  0  0  0  0  0  0
    1.9915    0.9478   -3.4275 O   0  0  0  0  0  0  0  0  0  0  0  0
    2.2900    1.8332   -3.6865 H   0  0  0  0  0  0  0  0  0  0  0  0
   -0.1015    1.1105    0.4868 C   0  0  0  0  0  0  0  0  0  0  0  0
   -1.1781    1.6907    0.3775 O   0  0  0  0  0  0  0  0  0  0  0  0
    0.7999    1.5420    1.4432 N   0  0  0  0  0  0  0  0  0  0  0  0
    1.6918    1.0600    1.4975 H   0  0  0  0  0  0  0  0  0  0  0  0
    0.6275    2.7821    2.1898 C   0  0  0  0  0  0  0  0  0  0  0  0
   -0.3089    2.7620    2.7573 H   0  0  0  0  0  0  0  0  0  0  0  0
    1.4537    2.9182    2.8942 H   0  0  0  0  0  0  0  0  0  0  0  0
    0.6077    3.6387    1.5075 H   0  0  0  0  0  0  0  0  0  0  0  0
  1  2  1  0  0  0  0
  2  3  1  0  0  0  0
  2  4  1  0  0  0  0
  2  5  1  0  0  0  0
  5  6  2  0  0  0  0
  5  7  1  0  0  0  0
  7  8  1  0  0  0  0
  7  9  1  0  0  0  0
  9 10  1  0  0  0  0
  9 11  1  0  0  0  0
  9 18  1  0  0  0  0
 11 12  1  0  0  0  0
 11 13  1  0  0  0  0
 11 14  1  0  0  0  0
 14 15  2  0  0  0  0
 14 16  1  0  0  0  0
 16 17  1  0  0  0  0
 18 19  2  0  0  0  0
 18 20  1  0  0  0  0
 20 21  1  0  0  0  0
 20 22  1  0  0  0  0
 22 23  1  0  0  0  0
 22 24  1  0  0  0  0
 22 25  1  0  0  0  0
M  END
$$$$

  -OEChem-02102214113D

 25 24  0     1  0  0  0  0  0999 V2000
   -2.6720   -3.9151    0.3936 H   0  0  0  0  0  0  0  0  0  0  0  0
   -2.7226   -2.8553    0.1289 C   0  0  0  0  0  0  0  0  0  0  0  0
   -3.2754   -2.3237    0.9072 H   0  0  0  0  0  0  0  0  0  0  0  0
   -3.2542   -2.7537   -0.8203 H   0  0  0  0  0  0  0  0  0  0  0  0
   -1.3242   -2.2807    0.0021 C   0  0  0  0  0  0  0  0  0  0  0  0
   -0.3496   -3.0007    0.1549 O   0  0  0  0  0  0  0  0  0  0  0  0
   -1.1549   -0.9413   -0.2791 N   0  0  0  0  0  0  0  0  0  0  0  0
   -1.9870   -0.3507   -0.2679 H   0  0  0  0  0  0  0  0  0  0  0  0
    0.1400   -0.2448   -0.2506 C   0  0  1  0  0  0  0  0  0  0  0  0
    0.8655   -0.8073    0.3468 H   0  0  0  0  0  0  0  0  0  0  0  0
    0.6699   -0.1710   -1.7155 C   0  0  0  0  0  0  0  0  0  0  0  0
    1.4191   -0.9578   -1.8349 H   0  0  0  0  0  0  0  0  0  0  0  0
   -0.1537   -0.4204   -2.3905 H   0  0  0  0  0  0  0  0  0  0  0  0
    1.2703    1.1223   -2.2814 C   0  0  0  0  0  0  0  0  0  0  0  0
    1.3645    2.1425   -1.6238 O   0  0  0  0  0  0  0  0  0  0  0  0
    1.6922    1.0368   -3.5638 O   0  0  0  0  0  0  0  0  0  0  0  0
    2.0295    1.9166   -3.7920 H   0  0  0  0  0  0  0  0  0  0  0  0
   -0.0965    1.0901    0.4984 C   0  0  0  0  0  0  0  0  0  0  0  0
   -1.1617    1.6846    0.3567 O   0  0  0  0  0  0  0  0  0  0  0  0
    0.7949    1.5229    1.4636 N   0  0  0  0  0  0  0  0  0  0  0  0
    1.6941    1.0536    1.5087 H   0  0  0  0  0  0  0  0  0  0  0  0
    0.6307    2.7838    2.1764 C   0  0  0  0  0  0  0  0  0  0  0  0
   -0.3188    2.7964    2.7219 H   0  0  0  0  0  0  0  0  0  0  0  0
    1.4428    2.9198    2.8967 H   0  0  0  0  0  0  0  0  0  0  0  0
    0.6449    3.6239    1.4739 H   0  0  0  0  0  0  0  0  0  0  0  0
  1  2  1  0  0  0  0
  2  3  1  0  0  0  0
  2  4  1  0  0  0  0
  2  5  1  0  0  0  0
  5  6  2  0  0  0  0
  5  7  1  0  0  0  0
  7  8  1  0  0  0  0
  7  9  1  0  0  0  0
  9 10  1  0  0  0  0
  9 11  1  0  0  0  0
  9 18  1  0  0  0  0
 11 12  1  0  0  0  0
 11 13  1  0  0  0  0
 11 14  1  0  0  0  0
 14 15  2  0  0  0  0
 14 16  1  0  0  0  0
 16 17  1  0  0  0  0
 18 19  2  0  0  0  0
 18 20  1  0  0  0  0
 20 21  1  0  0  0  0
 20 22  1  0  0  0  0
 22 23  1  0  0  0  0
 22 24  1  0  0  0  0
 22 25  1  0  0  0  0
M  END
$$$$

  -OEChem-02102214113D

 25 24  0     1  0  0  0  0  0999 V2000
   -2.6847   -3.9151    0.4065 H   0  0  0  0  0  0  0  0  0  0  0  0
   -2.7292   -2.8570    0.1340 C   0  0  0  0  0  0  0  0  0  0  0  0
   -3.2862   -2.3179    0.9043 H   0  0  0  0  0  0  0  0  0  0  0  0
   -3.2534   -2.7601   -0.8199 H   0  0  0  0  0  0  0  0  0  0  0  0
   -1.3276   -2.2890    0.0144 C   0  0  0  0  0  0  0  0  0  0  0  0
   -0.3576   -3.0119    0.1817 O   0  0  0  0  0  0  0  0  0  0  0  0
   -1.1502   -0.9525   -0.2752 N   0  0  0  0  0  0  0  0  0  0  0  0
   -1.9795   -0.3580   -0.2786 H   0  0  0  0  0  0  0  0  0  0  0  0
    0.1492   -0.2642   -0.2490 C   0  0  1  0  0  0  0  0  0  0  0  0
    0.8789   -0.8274    0.3428 H   0  0  0  0  0  0  0  0  0  0  0  0
    0.6608   -0.1789   -1.7189 C   0  0  0  0  0  0  0  0  0  0  0  0
    1.4034   -0.9680   -1.8631 H   0  0  0  0  0  0  0  0  0  0  0  0
   -0.1743   -0.4096   -2.3868 H   0  0  0  0  0  0  0  0  0  0  0  0
    1.2596    1.1247   -2.2593 C   0  0  0  0  0  0  0  0  0  0  0  0
    1.6055    2.0274   -1.5178 O   0  0  0  0  0  0  0  0  0  0  0  0
    1.3857    1.1895   -3.6047 O   0  0  0  0  0  0  0  0  0  0  0  0
    1.7573    2.0644   -3.7951 H   0  0  0  0  0  0  0  0  0  0  0  0
   -0.0881    1.0753    0.4927 C   0  0  0  0  0  0  0  0  0  0  0  0
   -1.1389    1.6865    0.3185 O   0  0  0  0  0  0  0  0  0  0  0  0
    0.7979    1.5139    1.4601 N   0  0  0  0  0  0  0  0  0  0  0  0
    1.6997    1.0488    1.5029 H   0  0  0  0  0  0  0  0  0  0  0  0
    0.6402    2.7877    2.1511 C   0  0  0  0  0  0  0  0  0  0  0  0
   -0.3231    2.8267    2.6706 H   0  0  0  0  0  0  0  0  0  0  0  0
    1.4349    2.9173    2.8921 H   0  0  0  0  0  0  0  0  0  0  0  0
    0.6903    3.6171    1.4378 H   0  0  0  0  0  0  0  0  0  0  0  0
  1  2  1  0  0  0  0
  2  3  1  0  0  0  0
  2  4  1  0  0  0  0
  2  5  1  0  0  0  0
  5  6  2  0  0  0  0
  5  7  1  0  0  0  0
  7  8  1  0  0  0  0
  7  9  1  0  0  0  0
  9 10  1  0  0  0  0
  9 11  1  0  0  0  0
  9 18  1  0  0  0  0
 11 12  1  0  0  0  0
 11 13  1  0  0  0  0
 11 14  1  0  0  0  0
 14 15  2  0  0  0  0
 14 16  1  0  0  0  0
 16 17  1  0  0  0  0
 18 19  2  0  0  0  0
 18 20  1  0  0  0  0
 20 21  1  0  0  0  0
 20 22  1  0  0  0  0
 22 23  1  0  0  0  0
 22 24  1  0  0  0  0
 22 25  1  0  0  0  0
M  END
$$$$

  -OEChem-02102214113D

 25 24  0     1  0  0  0  0  0999 V2000
   -2.6998   -3.9230    0.4233 H   0  0  0  0  0  0  0  0  0  0  0  0
   -2.7367   -2.8677    0.1390 C   0  0  0  0  0  0  0  0  0  0  0  0
   -3.3005   -2.3181    0.8966 H   0  0  0  0  0  0  0  0  0  0  0  0
   -3.2488   -2.7789   -0.8221 H   0  0  0  0  0  0  0  0  0  0  0  0
   -1.3323   -2.3051    0.0296 C   0  0  0  0  0  0  0  0  0  0  0  0
   -0.3655   -3.0290    0.2105 O   0  0  0  0  0  0  0  0  0  0  0  0
   -1.1500   -0.9718   -0.2706 N   0  0  0  0  0  0  0  0  0  0  0  0
   -1.9788   -0.3772   -0.2953 H   0  0  0  0  0  0  0  0  0  0  0  0
    0.1501   -0.2858   -0.2486 C   0  0  1  0  0  0  0  0  0  0  0  0
    0.8844   -0.8469    0.3397 H   0  0  0  0  0  0  0  0  0  0  0  0
    0.6485   -0.1911   -1.7199 C   0  0  0  0  0  0  0  0  0  0  0  0
    1.3947   -0.9730   -1.8813 H   0  0  0  0  0  0  0  0  0  0  0  0
   -0.1898   -0.4141   -2.3866 H   0  0  0  0  0  0  0  0  0  0  0  0
    1.2376    1.1311   -2.2188 C   0  0  0  0  0  0  0  0  0  0  0  0
    1.8177    1.8802   -1.4508 O   0  0  0  0  0  0  0  0  0  0  0  0
    1.0889    1.3937   -3.5378 O   0  0  0  0  0  0  0  0  0  0  0  0
    1.4941    2.2619   -3.6849 H   0  0  0  0  0  0  0  0  0  0  0  0
   -0.0819    1.0609    0.4809 C   0  0  0  0  0  0  0  0  0  0  0  0
   -1.1161    1.6896    0.2744 O   0  0  0  0  0  0  0  0  0  0  0  0
    0.8033    1.5073    1.4451 N   0  0  0  0  0  0  0  0  0  0  0  0
    1.7035    1.0389    1.4924 H   0  0  0  0  0  0  0  0  0  0  0  0
    0.6597    2.7991    2.1050 C   0  0  0  0  0  0  0  0  0  0  0  0
   -0.3117    2.8693    2.6056 H   0  0  0  0  0  0  0  0  0  0  0  0
    1.4432    2.9287    2.8576 H   0  0  0  0  0  0  0  0  0  0  0  0
    0.7396    3.6115    1.3749 H   0  0  0  0  0  0  0  0  0  0  0  0
  1  2  1  0  0  0  0
  2  3  1  0  0  0  0
  2  4  1  0  0  0  0
  2  5  1  0  0  0  0
  5  6  2  0  0  0  0
  5  7  1  0  0  0  0
  7  8  1  0  0  0  0
  7  9  1  0  0  0  0
  9 10  1  0  0  0  0
  9 11  1  0  0  0  0
  9 18  1  0  0  0  0
 11 12  1  0  0  0  0
 11 13  1  0  0  0  0
 11 14  1  0  0  0  0
 14 15  2  0  0  0  0
 14 16  1  0  0  0  0
 16 17  1  0  0  0  0
 18 19  2  0  0  0  0
 18 20  1  0  0  0  0
 20 21  1  0  0  0  0
 20 22  1  0  0  0  0
 22 23  1  0  0  0  0
 22 24  1  0  0  0  0
 22 25  1  0  0  0  0
M  END
$$$$

  -OEChem-02102214113D

 25 24  0     1  0  0  0  0  0999 V2000
   -2.7024   -3.9437    0.4374 H   0  0  0  0  0  0  0  0  0  0  0  0
   -2.7417   -2.8926    0.1384 C   0  0  0  0  0  0  0  0  0  0  0  0
   -3.3217   -2.3369    0.8793 H   0  0  0  0  0  0  0  0  0  0  0  0
   -3.2382   -2.8201   -0.8322 H   0  0  0  0  0  0  0  0  0  0  0  0
   -1.3392   -2.3221    0.0445 C   0  0  0  0  0  0  0  0  0  0  0  0
   -0.3711   -3.0384    0.2467 O   0  0  0  0  0  0  0  0  0  0  0  0
   -1.1606   -0.9909   -0.2676 N   0  0  0  0  0  0  0  0  0  0  0  0
   -1.9928   -0.4033   -0.3183 H   0  0  0  0  0  0  0  0  0  0  0  0
    0.1363   -0.2990   -0.2504 C   0  0  1  0  0  0  0  0  0  0  0  0
    0.8724   -0.8566    0.3389 H   0  0  0  0  0  0  0  0  0  0  0  0
    0.6365   -0.2014   -1.7179 C   0  0  0  0  0  0  0  0  0  0  0  0
    1.3940   -0.9715   -1.8838 H   0  0  0  0  0  0  0  0  0  0  0  0
   -0.1953   -0.4246   -2.3926 H   0  0  0  0  0  0  0  0  0  0  0  0
    1.2093    1.1422   -2.1679 C   0  0  0  0  0  0  0  0  0  0  0  0
    1.9927    1.7304   -1.4399 O   0  0  0  0  0  0  0  0  0  0  0  0
    0.8229    1.6075   -3.3783 O   0  0  0  0  0  0  0  0  0  0  0  0
    1.2573    2.4670   -3.4874 H   0  0  0  0  0  0  0  0  0  0  0  0
   -0.0823    1.0577    0.4633 C   0  0  0  0  0  0  0  0  0  0  0  0
   -1.1013    1.7025    0.2361 O   0  0  0  0  0  0  0  0  0  0  0  0
    0.8104    1.5092    1.4177 N   0  0  0  0  0  0  0  0  0  0  0  0
    1.7013    1.0242    1.4767 H   0  0  0  0  0  0  0  0  0  0  0  0
    0.6902    2.8155    2.0531 C   0  0  0  0  0  0  0  0  0  0  0  0
   -0.2833    2.9168    2.5444 H   0  0  0  0  0  0  0  0  0  0  0  0
    1.4706    2.9410    2.8097 H   0  0  0  0  0  0  0  0  0  0  0  0
    0.7947    3.6122    1.3093 H   0  0  0  0  0  0  0  0  0  0  0  0
  1  2  1  0  0  0  0
  2  3  1  0  0  0  0
  2  4  1  0  0  0  0
  2  5  1  0  0  0  0
  5  6  2  0  0  0  0
  5  7  1  0  0  0  0
  7  8  1  0  0  0  0
  7  9  1  0  0  0  0
  9 10  1  0  0  0  0
  9 11  1  0  0  0  0
  9 18  1  0  0  0  0
 11 12  1  0  0  0  0
 11 13  1  0  0  0  0
 11 14  1  0  0  0  0
 14 15  2  0  0  0  0
 14 16  1  0  0  0  0
 16 17  1  0  0  0  0
 18 19  2  0  0  0  0
 18 20  1  0  0  0  0
 20 21  1  0  0  0  0
 20 22  1  0  0  0  0
 22 23  1  0  0  0  0
 22 24  1  0  0  0  0
 22 25  1  0  0  0  0
M  END
$$$$

  -OEChem-02102214113D

 25 24  0     1  0  0  0  0  0999 V2000
   -2.6975   -3.9620    0.4460 H   0  0  0  0  0  0  0  0  0  0  0  0
   -2.7449   -2.9119    0.1448 C   0  0  0  0  0  0  0  0  0  0  0  0
   -3.3263   -2.3587    0.8863 H   0  0  0  0  0  0  0  0  0  0  0  0
   -3.2448   -2.8447   -0.8244 H   0  0  0  0  0  0  0  0  0  0  0  0
   -1.3462   -2.3329    0.0463 C   0  0  0  0  0  0  0  0  0  0  0  0
   -0.3741   -3.0414    0.2563 O   0  0  0  0  0  0  0  0  0  0  0  0
   -1.1753   -1.0024   -0.2744 N   0  0  0  0  0  0  0  0  0  0  0  0
   -2.0115   -0.4217   -0.3370 H   0  0  0  0  0  0  0  0  0  0  0  0
    0.1166   -0.3019   -0.2601 C   0  0  1  0  0  0  0  0  0  0  0  0
    0.8504   -0.8555    0.3360 H   0  0  0  0  0  0  0  0  0  0  0  0
    0.6343   -0.2098   -1.7187 C   0  0  0  0  0  0  0  0  0  0  0  0
    1.4074   -0.9667   -1.8739 H   0  0  0  0  0  0  0  0  0  0  0  0
   -0.1819   -0.4407   -2.4094 H   0  0  0  0  0  0  0  0  0  0  0  0
    1.1906    1.1516   -2.1248 C   0  0  0  0  0  0  0  0  0  0  0  0
    2.1430    1.5946   -1.5027 O   0  0  0  0  0  0  0  0  0  0  0  0
    0.6078    1.7940   -3.1631 O   0  0  0  0  0  0  0  0  0  0  0  0
    1.0689    2.6420   -3.2502 H   0  0  0  0  0  0  0  0  0  0  0  0
   -0.0856    1.0635    0.4402 C   0  0  0  0  0  0  0  0  0  0  0  0
   -1.0980    1.7168    0.2114 O   0  0  0  0  0  0  0  0  0  0  0  0
    0.8176    1.5159    1.3836 N   0  0  0  0  0  0  0  0  0  0  0  0
    1.7005    1.0170    1.4520 H   0  0  0  0  0  0  0  0  0  0  0  0
    0.7087    2.8237    2.0178 C   0  0  0  0  0  0  0  0  0  0  0  0
   -0.2565    2.9264    2.5251 H   0  0  0  0  0  0  0  0  0  0  0  0
    1.5019    2.9507    2.7608 H   0  0  0  0  0  0  0  0  0  0  0  0
    0.8009    3.6192    1.2709 H   0  0  0  0  0  0  0  0  0  0  0  0
  1  2  1  0  0  0  0
  2  3  1  0  0  0  0
  2  4  1  0  0  0  0
  2  5  1  0  0  0  0
  5  6  2  0  0  0  0
  5  7  1  0  0  0  0
  7  8  1  0  0  0  0
  7  9  1  0  0  0  0
  9 10  1  0  0  0  0
  9 11  1  0  0  0  0
  9 18  1  0  0  0  0
 11 12  1  0  0  0  0
 11 13  1  0  0  0  0
 11 14  1  0  0  0  0
 14 15  2  0  0  0  0
 14 16  1  0  0  0  0
 16 17  1  0  0  0  0
 18 19  2  0  0  0  0
 18 20  1  0  0  0  0
 20 21  1  0  0  0  0
 20 22  1  0  0  0  0
 22 23  1  0  0  0  0
 22 24  1  0  0  0  0
 22 25  1  0  0  0  0
M  END
$$$$

  -OEChem-02102214113D

 25 24  0     1  0  0  0  0  0999 V2000
   -2.6905   -3.9743    0.4424 H   0  0  0  0  0  0  0  0  0  0  0  0
   -2.7446   -2.9240    0.1429 C   0  0  0  0  0  0  0  0  0  0  0  0
   -3.3313   -2.3763    0.8845 H   0  0  0  0  0  0  0  0  0  0  0  0
   -3.2435   -2.8594   -0.8271 H   0  0  0  0  0  0  0  0  0  0  0  0
   -1.3498   -2.3352    0.0477 C   0  0  0  0  0  0  0  0  0  0  0  0
   -0.3737   -3.0355    0.2667 O   0  0  0  0  0  0  0  0  0  0  0  0
   -1.1873   -1.0047   -0.2773 N   0  0  0  0  0  0  0  0  0  0  0  0
   -2.0281   -0.4330   -0.3556 H   0  0  0  0  0  0  0  0  0  0  0  0
    0.0985   -0.2936   -0.2661 C   0  0  1  0  0  0  0  0  0  0  0  0
    0.8287   -0.8438    0.3376 H   0  0  0  0  0  0  0  0  0  0  0  0
    0.6356   -0.2130   -1.7162 C   0  0  0  0  0  0  0  0  0  0  0  0
    1.4217   -0.9604   -1.8540 H   0  0  0  0  0  0  0  0  0  0  0  0
   -0.1657   -0.4561   -2.4197 H   0  0  0  0  0  0  0  0  0  0  0  0
    1.1768    1.1580   -2.1037 C   0  0  0  0  0  0  0  0  0  0  0  0
    2.2635    1.4883   -1.6579 O   0  0  0  0  0  0  0  0  0  0  0  0
    0.4358    1.9299   -2.9312 O   0  0  0  0  0  0  0  0  0  0  0  0
    0.9195    2.7633   -3.0327 H   0  0  0  0  0  0  0  0  0  0  0  0
   -0.0889    1.0776    0.4256 C   0  0  0  0  0  0  0  0  0  0  0  0
   -1.1006    1.7349    0.2089 O   0  0  0  0  0  0  0  0  0  0  0  0
    0.8271    1.5274    1.3578 N   0  0  0  0  0  0  0  0  0  0  0  0
    1.6955    1.0064    1.4460 H   0  0  0  0  0  0  0  0  0  0  0  0
    0.7227    2.8263    2.0115 C   0  0  0  0  0  0  0  0  0  0  0  0
   -0.2310    2.9137    2.5427 H   0  0  0  0  0  0  0  0  0  0  0  0
    1.5323    2.9510    2.7370 H   0  0  0  0  0  0  0  0  0  0  0  0
    0.7906    3.6322    1.2734 H   0  0  0  0  0  0  0  0  0  0  0  0
  1  2  1  0  0  0  0
  2  3  1  0  0  0  0
  2  4  1  0  0  0  0
  2  5  1  0  0  0  0
  5  6  2  0  0  0  0
  5  7  1  0  0  0  0
  7  8  1  0  0  0  0
  7  9  1  0  0  0  0
  9 10  1  0  0  0  0
  9 11  1  0  0  0  0
  9 18  1  0  0  0  0
 11 12  1  0  0  0  0
 11 13  1  0  0  0  0
 11 14  1  0  0  0  0
 14 15  2  0  0  0  0
 14 16  1  0  0  0  0
 16 17  1  0  0  0  0
 18 19  2  0  0  0  0
 18 20  1  0  0  0  0
 20 21  1  0  0  0  0
 20 22  1  0  0  0  0
 22 23  1  0  0  0  0
 22 24  1  0  0  0  0
 22 25  1  0  0  0  0
M  END
$$$$

  -OEChem-02102214113D

 25 24  0     1  0  0  0  0  0999 V2000
   -2.6808   -3.9721    0.4417 H   0  0  0  0  0  0  0  0  0  0  0  0
   -2.7411   -2.9213    0.1453 C   0  0  0  0  0  0  0  0  0  0  0  0
   -3.3282   -2.3789    0.8902 H   0  0  0  0  0  0  0  0  0  0  0  0
   -3.2434   -2.8564   -0.8228 H   0  0  0  0  0  0  0  0  0  0  0  0
   -1.3494   -2.3250    0.0479 C   0  0  0  0  0  0  0  0  0  0  0  0
   -0.3697   -3.0206    0.2659 O   0  0  0  0  0  0  0  0  0  0  0  0
   -1.1933   -0.9939   -0.2785 N   0  0  0  0  0  0  0  0  0  0  0  0
   -2.0365   -0.4249   -0.3504 H   0  0  0  0  0  0  0  0  0  0  0  0
    0.0893   -0.2771   -0.2721 C   0  0  1  0  0  0  0  0  0  0  0  0
    0.8159   -0.8254    0.3374 H   0  0  0  0  0  0  0  0  0  0  0  0
    0.6398   -0.2117   -1.7172 C   0  0  0  0  0  0  0  0  0  0  0  0
    1.4298   -0.9584   -1.8376 H   0  0  0  0  0  0  0  0  0  0  0  0
   -0.1531   -0.4668   -2.4258 H   0  0  0  0  0  0  0  0  0  0  0  0
    1.1761    1.1584   -2.1147 C   0  0  0  0  0  0  0  0  0  0  0  0
    2.3535    1.3929   -1.9015 O   0  0  0  0  0  0  0  0  0  0  0  0
    0.3340    2.0257   -2.7212 O   0  0  0  0  0  0  0  0  0  0  0  0
    0.8416    2.8352   -2.8810 H   0  0  0  0  0  0  0  0  0  0  0  0
   -0.0885    1.0964    0.4170 C   0  0  0  0  0  0  0  0  0  0  0  0
   -1.1122    1.7443    0.2337 O   0  0  0  0  0  0  0  0  0  0  0  0
    0.8379    1.5429    1.3410 N   0  0  0  0  0  0  0  0  0  0  0  0
    1.6919    1.0023    1.4508 H   0  0  0  0  0  0  0  0  0  0  0  0
    0.7170    2.8148    2.0431 C   0  0  0  0  0  0  0  0  0  0  0  0
   -0.2230    2.8562    2.6037 H   0  0  0  0  0  0  0  0  0  0  0  0
    1.5441    2.9367    2.7491 H   0  0  0  0  0  0  0  0  0  0  0  0
    0.7411    3.6478    1.3328 H   0  0  0  0  0  0  0  0  0  0  0  0
  1  2  1  0  0  0  0
  2  3  1  0  0  0  0
  2  4  1  0  0  0  0
  2  5  1  0  0  0  0
  5  6  2  0  0  0  0
  5  7  1  0  0  0  0
  7  8  1  0  0  0  0
  7  9  1  0  0  0  0
  9 10  1  0  0  0  0
  9 11  1  0  0  0  0
  9 18  1  0  0  0  0
 11 12  1  0  0  0  0
 11 13  1  0  0  0  0
 11 14  1  0  0  0  0
 14 15  2  0  0  0  0
 14 16  1  0  0  0  0
 16 17  1  0  0  0  0
 18 19  2  0  0  0  0
 18 20  1  0  0  0  0
 20 21  1  0  0  0  0
 20 22  1  0  0  0  0
 22 23  1  0  0  0  0
 22 24  1  0  0  0  0
 22 25  1  0  0  0  0
M  END
$$$$

  -OEChem-02102214113D

 25 24  0     1  0  0  0  0  0999 V2000
   -2.6754   -3.9631    0.4320 H   0  0  0  0  0  0  0  0  0  0  0  0
   -2.7369   -2.9090    0.1474 C   0  0  0  0  0  0  0  0  0  0  0  0
   -3.3181   -2.3735    0.9020 H   0  0  0  0  0  0  0  0  0  0  0  0
   -3.2456   -2.8327   -0.8165 H   0  0  0  0  0  0  0  0  0  0  0  0
   -1.3459   -2.3125    0.0457 C   0  0  0  0  0  0  0  0  0  0  0  0
   -0.3643   -3.0080    0.2548 O   0  0  0  0  0  0  0  0  0  0  0  0
   -1.1941   -0.9803   -0.2767 N   0  0  0  0  0  0  0  0  0  0  0  0
   -2.0387   -0.4118   -0.3365 H   0  0  0  0  0  0  0  0  0  0  0  0
    0.0860   -0.2597   -0.2727 C   0  0  1  0  0  0  0  0  0  0  0  0
    0.8093   -0.8072    0.3415 H   0  0  0  0  0  0  0  0  0  0  0  0
    0.6488   -0.2070   -1.7142 C   0  0  0  0  0  0  0  0  0  0  0  0
    1.4370   -0.9584   -1.8188 H   0  0  0  0  0  0  0  0  0  0  0  0
   -0.1405   -0.4697   -2.4238 H   0  0  0  0  0  0  0  0  0  0  0  0
    1.1879    1.1557   -2.1366 C   0  0  0  0  0  0  0  0  0  0  0  0
    2.3975    1.2998   -2.1838 O   0  0  0  0  0  0  0  0  0  0  0  0
    0.3045    2.1044   -2.5220 O   0  0  0  0  0  0  0  0  0  0  0  0
    0.8247    2.8843   -2.7660 H   0  0  0  0  0  0  0  0  0  0  0  0
   -0.0903    1.1114    0.4208 C   0  0  0  0  0  0  0  0  0  0  0  0
   -1.1322    1.7407    0.2796 O   0  0  0  0  0  0  0  0  0  0  0  0
    0.8426    1.5528    1.3409 N   0  0  0  0  0  0  0  0  0  0  0  0
    1.6892    1.0026    1.4572 H   0  0  0  0  0  0  0  0  0  0  0  0
    0.7028    2.7966    2.0886 C   0  0  0  0  0  0  0  0  0  0  0  0
   -0.2121    2.7818    2.6903 H   0  0  0  0  0  0  0  0  0  0  0  0
    1.5555    2.9317    2.7610 H   0  0  0  0  0  0  0  0  0  0  0  0
    0.6618    3.6511    1.4052 H   0  0  0  0  0  0  0  0  0  0  0  0
  1  2  1  0  0  0  0
  2  3  1  0  0  0  0
  2  4  1  0  0  0  0
  2  5  1  0  0  0  0
  5  6  2  0  0  0  0
  5  7  1  0  0  0  0
  7  8  1  0  0  0  0
  7  9  1  0  0  0  0
  9 10  1  0  0  0  0
  9 11  1  0  0  0  0
  9 18  1  0  0  0  0
 11 12  1  0  0  0  0
 11 13  1  0  0  0  0
 11 14  1  0  0  0  0
 14 15  2  0  0  0  0
 14 16  1  0  0  0  0
 16 17  1  0  0  0  0
 18 19  2  0  0  0  0
 18 20  1  0  0  0  0
 20 21  1  0  0  0  0
 20 22  1  0  0  0  0
 22 23  1  0  0  0  0
 22 24  1  0  0  0  0
 22 25  1  0  0  0  0
M  END
$$$$

  -OEChem-02102214113D

 25 24  0     1  0  0  0  0  0999 V2000
   -2.6667   -3.9462    0.4341 H   0  0  0  0  0  0  0  0  0  0  0  0
   -2.7309   -2.8902    0.1573 C   0  0  0  0  0  0  0  0  0  0  0  0
   -3.3003   -2.3590    0.9239 H   0  0  0  0  0  0  0  0  0  0  0  0
   -3.2541   -2.8072   -0.7981 H   0  0  0  0  0  0  0  0  0  0  0  0
   -1.3407   -2.2950    0.0383 C   0  0  0  0  0  0  0  0  0  0  0  0
   -0.3572   -2.9917    0.2347 O   0  0  0  0  0  0  0  0  0  0  0  0
   -1.1912   -0.9611   -0.2789 N   0  0  0  0  0  0  0  0  0  0  0  0
   -2.0357   -0.3907   -0.3209 H   0  0  0  0  0  0  0  0  0  0  0  0
    0.0886   -0.2396   -0.2748 C   0  0  1  0  0  0  0  0  0  0  0  0
    0.8079   -0.7869    0.3443 H   0  0  0  0  0  0  0  0  0  0  0  0
    0.6621   -0.2006   -1.7141 C   0  0  0  0  0  0  0  0  0  0  0  0
    1.4454   -0.9595   -1.8009 H   0  0  0  0  0  0  0  0  0  0  0  0
   -0.1257   -0.4722   -2.4217 H   0  0  0  0  0  0  0  0  0  0  0  0
    1.2116    1.1474   -2.1757 C   0  0  0  0  0  0  0  0  0  0  0  0
    2.3878    1.1975   -2.4910 O   0  0  0  0  0  0  0  0  0  0  0  0
    0.3522    2.1774   -2.3422 O   0  0  0  0  0  0  0  0  0  0  0  0
    0.8722    2.9190   -2.6857 H   0  0  0  0  0  0  0  0  0  0  0  0
   -0.0898    1.1280    0.4255 C   0  0  0  0  0  0  0  0  0  0  0  0
   -1.1497    1.7356    0.3244 O   0  0  0  0  0  0  0  0  0  0  0  0
    0.8462    1.5639    1.3457 N   0  0  0  0  0  0  0  0  0  0  0  0
    1.6856    1.0045    1.4697 H   0  0  0  0  0  0  0  0  0  0  0  0
    0.6766    2.7680    2.1501 C   0  0  0  0  0  0  0  0  0  0  0  0
   -0.2162    2.6865    2.7790 H   0  0  0  0  0  0  0  0  0  0  0  0
    1.5446    2.9141    2.8001 H   0  0  0  0  0  0  0  0  0  0  0  0
    0.5751    3.6476    1.5058 H   0  0  0  0  0  0  0  0  0  0  0  0
  1  2  1  0  0  0  0
  2  3  1  0  0  0  0
  2  4  1  0  0  0  0
  2  5  1  0  0  0  0
  5  6  2  0  0  0  0
  5  7  1  0  0  0  0
  7  8  1  0  0  0  0
  7  9  1  0  0  0  0
  9 10  1  0  0  0  0
  9 11  1  0  0  0  0
  9 18  1  0  0  0  0
 11 12  1  0  0  0  0
 11 13  1  0  0  0  0
 11 14  1  0  0  0  0
 14 15  2  0  0  0  0
 14 16  1  0  0  0  0
 16 17  1  0  0  0  0
 18 19  2  0  0  0  0
 18 20  1  0  0  0  0
 20 21  1  0  0  0  0
 20 22  1  0  0  0  0
 22 23  1  0  0  0  0
 22 24  1  0  0  0  0
 22 25  1  0  0  0  0
M  END
$$$$

  -OEChem-02102214113D

 25 24  0     1  0  0  0  0  0999 V2000
   -2.6571   -3.9421    0.4231 H   0  0  0  0  0  0  0  0  0  0  0  0
   -2.7246   -2.8861    0.1474 C   0  0  0  0  0  0  0  0  0  0  0  0
   -3.2955   -2.3575    0.9145 H   0  0  0  0  0  0  0  0  0  0  0  0
   -3.2480   -2.8038   -0.8081 H   0  0  0  0  0  0  0  0  0  0  0  0
   -1.3362   -2.2862    0.0296 C   0  0  0  0  0  0  0  0  0  0  0  0
   -0.3502   -2.9842    0.2087 O   0  0  0  0  0  0  0  0  0  0  0  0
   -1.1904   -0.9484   -0.2730 N   0  0  0  0  0  0  0  0  0  0  0  0
   -2.0354   -0.3773   -0.2937 H   0  0  0  0  0  0  0  0  0  0  0  0
    0.0890   -0.2252   -0.2636 C   0  0  1  0  0  0  0  0  0  0  0  0
    0.8059   -0.7757    0.3551 H   0  0  0  0  0  0  0  0  0  0  0  0
    0.6679   -0.1914   -1.7040 C   0  0  0  0  0  0  0  0  0  0  0  0
    1.4450   -0.9583   -1.7789 H   0  0  0  0  0  0  0  0  0  0  0  0
   -0.1223   -0.4703   -2.4065 H   0  0  0  0  0  0  0  0  0  0  0  0
    1.2308    1.1377   -2.2119 C   0  0  0  0  0  0  0  0  0  0  0  0
    2.3035    1.0935   -2.7887 O   0  0  0  0  0  0  0  0  0  0  0  0
    0.4738    2.2551   -2.1482 O   0  0  0  0  0  0  0  0  0  0  0  0
    0.9770    2.9546   -2.5911 H   0  0  0  0  0  0  0  0  0  0  0  0
   -0.0961    1.1328    0.4537 C   0  0  0  0  0  0  0  0  0  0  0  0
   -1.1683    1.7235    0.3793 O   0  0  0  0  0  0  0  0  0  0  0  0
    0.8386    1.5619    1.3789 N   0  0  0  0  0  0  0  0  0  0  0  0
    1.6860    1.0119    1.4869 H   0  0  0  0  0  0  0  0  0  0  0  0
    0.6648    2.7563    2.1969 C   0  0  0  0  0  0  0  0  0  0  0  0
   -0.2356    2.6707    2.8144 H   0  0  0  0  0  0  0  0  0  0  0  0
    1.5256    2.8904    2.8591 H   0  0  0  0  0  0  0  0  0  0  0  0
    0.5743    3.6444    1.5626 H   0  0  0  0  0  0  0  0  0  0  0  0
  1  2  1  0  0  0  0
  2  3  1  0  0  0  0
  2  4  1  0  0  0  0
  2  5  1  0  0  0  0
  5  6  2  0  0  0  0
  5  7  1  0  0  0  0
  7  8  1  0  0  0  0
  7  9  1  0  0  0  0
  9 10  1  0  0  0  0
  9 11  1  0  0  0  0
  9 18  1  0  0  0  0
 11 12  1  0  0  0  0
 11 13  1  0  0  0  0
 11 14  1  0  0  0  0
 14 15  2  0  0  0  0
 14 16  1  0  0  0  0
 16 17  1  0  0  0  0
 18 19  2  0  0  0  0
 18 20  1  0  0  0  0
 20 21  1  0  0  0  0
 20 22  1  0  0  0  0
 22 23  1  0  0  0  0
 22 24  1  0  0  0  0
 22 25  1  0  0  0  0
M  END
$$$$

  -OEChem-02102214113D

 25 24  0     1  0  0  0  0  0999 V2000
   -2.6527   -3.9379    0.4041 H   0  0  0  0  0  0  0  0  0  0  0  0
   -2.7199   -2.8789    0.1395 C   0  0  0  0  0  0  0  0  0  0  0  0
   -3.2832   -2.3564    0.9164 H   0  0  0  0  0  0  0  0  0  0  0  0
   -3.2507   -2.7859   -0.8110 H   0  0  0  0  0  0  0  0  0  0  0  0
   -1.3309   -2.2817    0.0165 C   0  0  0  0  0  0  0  0  0  0  0  0
   -0.3455   -2.9845    0.1788 O   0  0  0  0  0  0  0  0  0  0  0  0
   -1.1831   -0.9409   -0.2706 N   0  0  0  0  0  0  0  0  0  0  0  0
   -2.0260   -0.3662   -0.2729 H   0  0  0  0  0  0  0  0  0  0  0  0
    0.0986   -0.2214   -0.2528 C   0  0  1  0  0  0  0  0  0  0  0  0
    0.8160   -0.7766    0.3617 H   0  0  0  0  0  0  0  0  0  0  0  0
    0.6703   -0.1841   -1.6994 C   0  0  0  0  0  0  0  0  0  0  0  0
    1.4371   -0.9609   -1.7747 H   0  0  0  0  0  0  0  0  0  0  0  0
   -0.1293   -0.4610   -2.3917 H   0  0  0  0  0  0  0  0  0  0  0  0
    1.2498    1.1227   -2.2526 C   0  0  0  0  0  0  0  0  0  0  0  0
    2.1441    1.0010   -3.0716 O   0  0  0  0  0  0  0  0  0  0  0  0
    0.7071    2.3178   -1.9340 O   0  0  0  0  0  0  0  0  0  0  0  0
    1.1785    2.9816   -2.4594 H   0  0  0  0  0  0  0  0  0  0  0  0
   -0.1026    1.1244    0.4834 C   0  0  0  0  0  0  0  0  0  0  0  0
   -1.1810    1.7053    0.4084 O   0  0  0  0  0  0  0  0  0  0  0  0
    0.8208    1.5512    1.4212 N   0  0  0  0  0  0  0  0  0  0  0  0
    1.6834    1.0227    1.5122 H   0  0  0  0  0  0  0  0  0  0  0  0
    0.6388    2.7491    2.2321 C   0  0  0  0  0  0  0  0  0  0  0  0
   -0.2628    2.6623    2.8477 H   0  0  0  0  0  0  0  0  0  0  0  0
    1.4971    2.8917    2.8956 H   0  0  0  0  0  0  0  0  0  0  0  0
    0.5450    3.6331    1.5925 H   0  0  0  0  0  0  0  0  0  0  0  0
  1  2  1  0  0  0  0
  2  3  1  0  0  0  0
  2  4  1  0  0  0  0
  2  5  1  0  0  0  0
  5  6  2  0  0  0  0
  5  7  1  0  0  0  0
  7  8  1  0  0  0  0
  7  9  1  0  0  0  0
  9 10  1  0  0  0  0
  9 11  1  0  0  0  0
  9 18  1  0  0  0  0
 11 12  1  0  0  0  0
 11 13  1  0  0  0  0
 11 14  1  0  0  0  0
 14 15  2  0  0  0  0
 14 16  1  0  0  0  0
 16 17  1  0  0  0  0
 18 19  2  0  0  0  0
 18 20  1  0  0  0  0
 20 21  1  0  0  0  0
 20 22  1  0  0  0  0
 22 23  1  0  0  0  0
 22 24  1  0  0  0  0
 22 25  1  0  0  0  0
M  END
$$$$

  -OEChem-02102214113D

 25 24  0     1  0  0  0  0  0999 V2000
   -2.6550   -3.9418    0.3716 H   0  0  0  0  0  0  0  0  0  0  0  0
   -2.7175   -2.8769    0.1308 C   0  0  0  0  0  0  0  0  0  0  0  0
   -3.2773   -2.3692    0.9201 H   0  0  0  0  0  0  0  0  0  0  0  0
   -3.2493   -2.7603   -0.8166 H   0  0  0  0  0  0  0  0  0  0  0  0
   -1.3259   -2.2838    0.0188 C   0  0  0  0  0  0  0  0  0  0  0  0
   -0.3437   -2.9900    0.1862 O   0  0  0  0  0  0  0  0  0  0  0  0
   -1.1717   -0.9427   -0.2628 N   0  0  0  0  0  0  0  0  0  0  0  0
   -2.0120   -0.3640   -0.2687 H   0  0  0  0  0  0  0  0  0  0  0  0
    0.1144   -0.2304   -0.2418 C   0  0  1  0  0  0  0  0  0  0  0  0
    0.8409   -0.7873    0.3601 H   0  0  0  0  0  0  0  0  0  0  0  0
    0.6564   -0.1750   -1.7019 C   0  0  0  0  0  0  0  0  0  0  0  0
    1.4144   -0.9579   -1.7982 H   0  0  0  0  0  0  0  0  0  0  0  0
   -0.1608   -0.4418   -2.3780 H   0  0  0  0  0  0  0  0  0  0  0  0
    1.2438    1.1189   -2.2823 C   0  0  0  0  0  0  0  0  0  0  0  0
    1.8868    0.9780   -3.3079 O   0  0  0  0  0  0  0  0  0  0  0  0
    1.0622    2.3218   -1.6960 O   0  0  0  0  0  0  0  0  0  0  0  0
    1.4918    2.9712   -2.2732 H   0  0  0  0  0  0  0  0  0  0  0  0
   -0.1106    1.1060    0.5051 C   0  0  0  0  0  0  0  0  0  0  0  0
   -1.1821    1.6948    0.3922 O   0  0  0  0  0  0  0  0  0  0  0  0
    0.7964    1.5372    1.4565 N   0  0  0  0  0  0  0  0  0  0  0  0
    1.6713    1.0284    1.5393 H   0  0  0  0  0  0  0  0  0  0  0  0
    0.6104    2.7510    2.2419 C   0  0  0  0  0  0  0  0  0  0  0  0
   -0.3026    2.6828    2.8427 H   0  0  0  0  0  0  0  0  0  0  0  0
    1.4582    2.8979    2.9178 H   0  0  0  0  0  0  0  0  0  0  0  0
    0.5357    3.6240    1.5849 H   0  0  0  0  0  0  0  0  0  0  0  0
  1  2  1  0  0  0  0
  2  3  1  0  0  0  0
  2  4  1  0  0  0  0
  2  5  1  0  0  0  0
  5  6  2  0  0  0  0
  5  7  1  0  0  0  0
  7  8  1  0  0  0  0
  7  9  1  0  0  0  0
  9 10  1  0  0  0  0
  9 11  1  0  0  0  0
  9 18  1  0  0  0  0
 11 12  1  0  0  0  0
 11 13  1  0  0  0  0
 11 14  1  0  0  0  0
 14 15  2  0  0  0  0
 14 16  1  0  0  0  0
 16 17  1  0  0  0  0
 18 19  2  0  0  0  0
 18 20  1  0  0  0  0
 20 21  1  0  0  0  0
 20 22  1  0  0  0  0
 22 23  1  0  0  0  0
 22 24  1  0  0  0  0
 22 25  1  0  0  0  0
M  END
$$$$

  -OEChem-02102214113D

 25 24  0     1  0  0  0  0  0999 V2000
   -2.6842   -3.9338    0.3905 H   0  0  0  0  0  0  0  0  0  0  0  0
   -2.7238   -2.8769    0.1128 C   0  0  0  0  0  0  0  0  0  0  0  0
   -3.3073   -2.3374    0.8626 H   0  0  0  0  0  0  0  0  0  0  0  0
   -3.2166   -2.7852   -0.8580 H   0  0  0  0  0  0  0  0  0  0  0  0
   -1.3215   -2.3034    0.0369 C   0  0  0  0  0  0  0  0  0  0  0  0
   -0.3545   -3.0174    0.2525 O   0  0  0  0  0  0  0  0  0  0  0  0
   -1.1398   -0.9701   -0.2642 N   0  0  0  0  0  0  0  0  0  0  0  0
   -1.9711   -0.3813   -0.3196 H   0  0  0  0  0  0  0  0  0  0  0  0
    0.1572   -0.2793   -0.2190 C   0  0  1  0  0  0  0  0  0  0  0  0
    0.8953   -0.8339    0.3704 H   0  0  0  0  0  0  0  0  0  0  0  0
    0.6430   -0.1759   -1.6900 C   0  0  0  0  0  0  0  0  0  0  0  0
    1.1688   -1.1025   -1.9369 H   0  0  0  0  0  0  0  0  0  0  0  0
   -0.2366   -0.1168   -2.3380 H   0  0  0  0  0  0  0  0  0  0  0  0
    1.5315    1.0016   -2.1017 C   0  0  0  0  0  0  0  0  0  0  0  0
    1.8724    1.0207   -3.2714 O   0  0  0  0  0  0  0  0  0  0  0  0
    2.0363    1.8527   -1.1794 O   0  0  0  0  0  0  0  0  0  0  0  0
    2.5918    2.4748   -1.6748 H   0  0  0  0  0  0  0  0  0  0  0  0
   -0.1010    1.0667    0.5024 C   0  0  0  0  0  0  0  0  0  0  0  0
   -1.1238    1.7000    0.2584 O   0  0  0  0  0  0  0  0  0  0  0  0
    0.7584    1.5221    1.4859 N   0  0  0  0  0  0  0  0  0  0  0  0
    1.6489    1.0420    1.5779 H   0  0  0  0  0  0  0  0  0  0  0  0
    0.5810    2.8005    2.1633 C   0  0  0  0  0  0  0  0  0  0  0  0
   -0.3977    2.8425    2.6530 H   0  0  0  0  0  0  0  0  0  0  0  0
    1.3531    2.9345    2.9270 H   0  0  0  0  0  0  0  0  0  0  0  0
    0.6529    3.6257    1.4471 H   0  0  0  0  0  0  0  0  0  0  0  0
  1  2  1  0  0  0  0
  2  3  1  0  0  0  0
  2  4  1  0  0  0  0
  2  5  1  0  0  0  0
  5  6  2  0  0  0  0
  5  7  1  0  0  0  0
  7  8  1  0  0  0  0
  7  9  1  0  0  0  0
  9 10  1  0  0  0  0
  9 11  1  0  0  0  0
  9 18  1  0  0  0  0
 11 12  1  0  0  0  0
 11 13  1  0  0  0  0
 11 14  1  0  0  0  0
 14 15  2  0  0  0  0
 14 16  1  0  0  0  0
 16 17  1  0  0  0  0
 18 19  2  0  0  0  0
 18 20  1  0  0  0  0
 20 21  1  0  0  0  0
 20 22  1  0  0  0  0
 22 23  1  0  0  0  0
 22 24  1  0  0  0  0
 22 25  1  0  0  0  0
M  END
$$$$

  -OEChem-02102214113D

 25 24  0     1  0  0  0  0  0999 V2000
   -2.6939   -3.9422    0.3970 H   0  0  0  0  0  0  0  0  0  0  0  0
   -2.7318   -2.8876    0.1096 C   0  0  0  0  0  0  0  0  0  0  0  0
   -3.3266   -2.3432    0.8469 H   0  0  0  0  0  0  0  0  0  0  0  0
   -3.2120   -2.8056   -0.8684 H   0  0  0  0  0  0  0  0  0  0  0  0
   -1.3296   -2.3117    0.0472 C   0  0  0  0  0  0  0  0  0  0  0  0
   -0.3650   -3.0228    0.2819 O   0  0  0  0  0  0  0  0  0  0  0  0
   -1.1461   -0.9808   -0.2639 N   0  0  0  0  0  0  0  0  0  0  0  0
   -1.9774   -0.3949   -0.3415 H   0  0  0  0  0  0  0  0  0  0  0  0
    0.1508   -0.2900   -0.2196 C   0  0  1  0  0  0  0  0  0  0  0  0
    0.8893   -0.8442    0.3697 H   0  0  0  0  0  0  0  0  0  0  0  0
    0.6381   -0.1766   -1.6867 C   0  0  0  0  0  0  0  0  0  0  0  0
    1.1755   -1.0936   -1.9426 H   0  0  0  0  0  0  0  0  0  0  0  0
   -0.2372   -0.1147   -2.3407 H   0  0  0  0  0  0  0  0  0  0  0  0
    1.5229    1.0177   -2.0464 C   0  0  0  0  0  0  0  0  0  0  0  0
    1.6612    1.2539   -3.2337 O   0  0  0  0  0  0  0  0  0  0  0  0
    2.2620    1.6217   -1.0854 O   0  0  0  0  0  0  0  0  0  0  0  0
    2.7901    2.2917   -1.5477 H   0  0  0  0  0  0  0  0  0  0  0  0
   -0.0954    1.0653    0.4886 C   0  0  0  0  0  0  0  0  0  0  0  0
   -1.1032    1.7130    0.2239 O   0  0  0  0  0  0  0  0  0  0  0  0
    0.7670    1.5249    1.4670 N   0  0  0  0  0  0  0  0  0  0  0  0
    1.6541    1.0384    1.5611 H   0  0  0  0  0  0  0  0  0  0  0  0
    0.6065    2.8156    2.1249 C   0  0  0  0  0  0  0  0  0  0  0  0
   -0.3759    2.8830    2.6041 H   0  0  0  0  0  0  0  0  0  0  0  0
    1.3729    2.9448    2.8951 H   0  0  0  0  0  0  0  0  0  0  0  0
    0.7013    3.6296    1.3987 H   0  0  0  0  0  0  0  0  0  0  0  0
  1  2  1  0  0  0  0
  2  3  1  0  0  0  0
  2  4  1  0  0  0  0
  2  5  1  0  0  0  0
  5  6  2  0  0  0  0
  5  7  1  0  0  0  0
  7  8  1  0  0  0  0
  7  9  1  0  0  0  0
  9 10  1  0  0  0  0
  9 11  1  0  0  0  0
  9 18  1  0  0  0  0
 11 12  1  0  0  0  0
 11 13  1  0  0  0  0
 11 14  1  0  0  0  0
 14 15  2  0  0  0  0
 14 16  1  0  0  0  0
 16 17  1  0  0  0  0
 18 19  2  0  0  0  0
 18 20  1  0  0  0  0
 20 21  1  0  0  0  0
 20 22  1  0  0  0  0
 22 23  1  0  0  0  0
 22 24  1  0  0  0  0
 22 25  1  0  0  0  0
M  END
$$$$

  -OEChem-02102214113D

 25 24  0     1  0  0  0  0  0999 V2000
   -2.7029   -3.9457    0.4034 H   0  0  0  0  0  0  0  0  0  0  0  0
   -2.7404   -2.8923    0.1124 C   0  0  0  0  0  0  0  0  0  0  0  0
   -3.3374   -2.3452    0.8460 H   0  0  0  0  0  0  0  0  0  0  0  0
   -3.2174   -2.8140   -0.8675 H   0  0  0  0  0  0  0  0  0  0  0  0
   -1.3382   -2.3166    0.0519 C   0  0  0  0  0  0  0  0  0  0  0  0
   -0.3742   -3.0266    0.2923 O   0  0  0  0  0  0  0  0  0  0  0  0
   -1.1537   -0.9882   -0.2694 N   0  0  0  0  0  0  0  0  0  0  0  0
   -1.9849   -0.4031   -0.3538 H   0  0  0  0  0  0  0  0  0  0  0  0
    0.1428   -0.2976   -0.2282 C   0  0  1  0  0  0  0  0  0  0  0  0
    0.8764   -0.8511    0.3682 H   0  0  0  0  0  0  0  0  0  0  0  0
    0.6456   -0.1894   -1.6881 C   0  0  0  0  0  0  0  0  0  0  0  0
    1.1962   -1.0998   -1.9387 H   0  0  0  0  0  0  0  0  0  0  0  0
   -0.2189   -0.1313   -2.3570 H   0  0  0  0  0  0  0  0  0  0  0  0
    1.5279    1.0177   -1.9983 C   0  0  0  0  0  0  0  0  0  0  0  0
    1.4906    1.4685   -3.1296 O   0  0  0  0  0  0  0  0  0  0  0  0
    2.4266    1.4221   -1.0677 O   0  0  0  0  0  0  0  0  0  0  0  0
    2.9247    2.1423   -1.4860 H   0  0  0  0  0  0  0  0  0  0  0  0
   -0.0855    1.0671    0.4664 C   0  0  0  0  0  0  0  0  0  0  0  0
   -1.0869    1.7226    0.1992 O   0  0  0  0  0  0  0  0  0  0  0  0
    0.7855    1.5275    1.4364 N   0  0  0  0  0  0  0  0  0  0  0  0
    1.6639    1.0267    1.5407 H   0  0  0  0  0  0  0  0  0  0  0  0
    0.6369    2.8229    2.0883 C   0  0  0  0  0  0  0  0  0  0  0  0
   -0.3405    2.8969    2.5768 H   0  0  0  0  0  0  0  0  0  0  0  0
    1.4118    2.9546    2.8496 H   0  0  0  0  0  0  0  0  0  0  0  0
    0.7272    3.6321    1.3561 H   0  0  0  0  0  0  0  0  0  0  0  0
  1  2  1  0  0  0  0
  2  3  1  0  0  0  0
  2  4  1  0  0  0  0
  2  5  1  0  0  0  0
  5  6  2  0  0  0  0
  5  7  1  0  0  0  0
  7  8  1  0  0  0  0
  7  9  1  0  0  0  0
  9 10  1  0  0  0  0
  9 11  1  0  0  0  0
  9 18  1  0  0  0  0
 11 12  1  0  0  0  0
 11 13  1  0  0  0  0
 11 14  1  0  0  0  0
 14 15  2  0  0  0  0
 14 16  1  0  0  0  0
 16 17  1  0  0  0  0
 18 19  2  0  0  0  0
 18 20  1  0  0  0  0
 20 21  1  0  0  0  0
 20 22  1  0  0  0  0
 22 23  1  0  0  0  0
 22 24  1  0  0  0  0
 22 25  1  0  0  0  0
M  END
$$$$

  -OEChem-02102214113D

 25 24  0     1  0  0  0  0  0999 V2000
   -2.7120   -3.9496    0.4104 H   0  0  0  0  0  0  0  0  0  0  0  0
   -2.7483   -2.8984    0.1110 C   0  0  0  0  0  0  0  0  0  0  0  0
   -3.3521   -2.3465    0.8353 H   0  0  0  0  0  0  0  0  0  0  0  0
   -3.2176   -2.8285   -0.8733 H   0  0  0  0  0  0  0  0  0  0  0  0
   -1.3462   -2.3213    0.0575 C   0  0  0  0  0  0  0  0  0  0  0  0
   -0.3831   -3.0287    0.3088 O   0  0  0  0  0  0  0  0  0  0  0  0
   -1.1612   -0.9953   -0.2734 N   0  0  0  0  0  0  0  0  0  0  0  0
   -1.9927   -0.4127   -0.3682 H   0  0  0  0  0  0  0  0  0  0  0  0
    0.1334   -0.3016   -0.2377 C   0  0  1  0  0  0  0  0  0  0  0  0
    0.8618   -0.8527    0.3672 H   0  0  0  0  0  0  0  0  0  0  0  0
    0.6543   -0.2079   -1.6899 C   0  0  0  0  0  0  0  0  0  0  0  0
    1.2179   -1.1139   -1.9268 H   0  0  0  0  0  0  0  0  0  0  0  0
   -0.1984   -0.1603   -2.3746 H   0  0  0  0  0  0  0  0  0  0  0  0
    1.5314    1.0092   -1.9687 C   0  0  0  0  0  0  0  0  0  0  0  0
    1.3328    1.6463   -2.9878 O   0  0  0  0  0  0  0  0  0  0  0  0
    2.5488    1.2695   -1.1118 O   0  0  0  0  0  0  0  0  0  0  0  0
    3.0045    2.0433   -1.4799 H   0  0  0  0  0  0  0  0  0  0  0  0
   -0.0748    1.0720    0.4428 C   0  0  0  0  0  0  0  0  0  0  0  0
   -1.0733    1.7333    0.1823 O   0  0  0  0  0  0  0  0  0  0  0  0
    0.8106    1.5290    1.4011 N   0  0  0  0  0  0  0  0  0  0  0  0
    1.6750    1.0069    1.5190 H   0  0  0  0  0  0  0  0  0  0  0  0
    0.6790    2.8252    2.0549 C   0  0  0  0  0  0  0  0  0  0  0  0
   -0.2943    2.9083    2.5503 H   0  0  0  0  0  0  0  0  0  0  0  0
    1.4605    2.9482    2.8109 H   0  0  0  0  0  0  0  0  0  0  0  0
    0.7722    3.6344    1.3230 H   0  0  0  0  0  0  0  0  0  0  0  0
  1  2  1  0  0  0  0
  2  3  1  0  0  0  0
  2  4  1  0  0  0  0
  2  5  1  0  0  0  0
  5  6  2  0  0  0  0
  5  7  1  0  0  0  0
  7  8  1  0  0  0  0
  7  9  1  0  0  0  0
  9 10  1  0  0  0  0
  9 11  1  0  0  0  0
  9 18  1  0  0  0  0
 11 12  1  0  0  0  0
 11 13  1  0  0  0  0
 11 14  1  0  0  0  0
 14 15  2  0  0  0  0
 14 16  1  0  0  0  0
 16 17  1  0  0  0  0
 18 19  2  0  0  0  0
 18 20  1  0  0  0  0
 20 21  1  0  0  0  0
 20 22  1  0  0  0  0
 22 23  1  0  0  0  0
 22 24  1  0  0  0  0
 22 25  1  0  0  0  0
M  END
$$$$

  -OEChem-02102214113D

 25 24  0     1  0  0  0  0  0999 V2000
   -2.7164   -3.9472    0.4226 H   0  0  0  0  0  0  0  0  0  0  0  0
   -2.7524   -2.8976    0.1178 C   0  0  0  0  0  0  0  0  0  0  0  0
   -3.3531   -2.3410    0.8411 H   0  0  0  0  0  0  0  0  0  0  0  0
   -3.2248   -2.8319   -0.8653 H   0  0  0  0  0  0  0  0  0  0  0  0
   -1.3499   -2.3223    0.0570 C   0  0  0  0  0  0  0  0  0  0  0  0
   -0.3865   -3.0283    0.3112 O   0  0  0  0  0  0  0  0  0  0  0  0
   -1.1660   -0.9982   -0.2816 N   0  0  0  0  0  0  0  0  0  0  0  0
   -1.9981   -0.4177   -0.3853 H   0  0  0  0  0  0  0  0  0  0  0  0
    0.1273   -0.3029   -0.2528 C   0  0  1  0  0  0  0  0  0  0  0  0
    0.8517   -0.8528    0.3583 H   0  0  0  0  0  0  0  0  0  0  0  0
    0.6623   -0.2240   -1.6991 C   0  0  0  0  0  0  0  0  0  0  0  0
    1.2334   -1.1286   -1.9233 H   0  0  0  0  0  0  0  0  0  0  0  0
   -0.1807   -0.1846   -2.3961 H   0  0  0  0  0  0  0  0  0  0  0  0
    1.5351    0.9985   -1.9597 C   0  0  0  0  0  0  0  0  0  0  0  0
    1.1944    1.7948   -2.8161 O   0  0  0  0  0  0  0  0  0  0  0  0
    2.6619    1.1312   -1.2197 O   0  0  0  0  0  0  0  0  0  0  0  0
    3.0835    1.9464   -1.5350 H   0  0  0  0  0  0  0  0  0  0  0  0
   -0.0652    1.0770    0.4183 C   0  0  0  0  0  0  0  0  0  0  0  0
   -1.0678    1.7380    0.1744 O   0  0  0  0  0  0  0  0  0  0  0  0
    0.8328    1.5307    1.3662 N   0  0  0  0  0  0  0  0  0  0  0  0
    1.6828    0.9893    1.5009 H   0  0  0  0  0  0  0  0  0  0  0  0
    0.7070    2.8221    2.0309 C   0  0  0  0  0  0  0  0  0  0  0  0
   -0.2576    2.8976    2.5441 H   0  0  0  0  0  0  0  0  0  0  0  0
    1.5014    2.9446    2.7735 H   0  0  0  0  0  0  0  0  0  0  0  0
    0.7831    3.6359    1.3022 H   0  0  0  0  0  0  0  0  0  0  0  0
  1  2  1  0  0  0  0
  2  3  1  0  0  0  0
  2  4  1  0  0  0  0
  2  5  1  0  0  0  0
  5  6  2  0  0  0  0
  5  7  1  0  0  0  0
  7  8  1  0  0  0  0
  7  9  1  0  0  0  0
  9 10  1  0  0  0  0
  9 11  1  0  0  0  0
  9 18  1  0  0  0  0
 11 12  1  0  0  0  0
 11 13  1  0  0  0  0
 11 14  1  0  0  0  0
 14 15  2  0  0  0  0
 14 16  1  0  0  0  0
 16 17  1  0  0  0  0
 18 19  2  0  0  0  0
 18 20  1  0  0  0  0
 20 21  1  0  0  0  0
 20 22  1  0  0  0  0
 22 23  1  0  0  0  0
 22 24  1  0  0  0  0
 22 25  1  0  0  0  0
M  END
$$$$

  -OEChem-02102214113D

 25 24  0     1  0  0  0  0  0999 V2000
   -2.7175   -3.9401    0.4361 H   0  0  0  0  0  0  0  0  0  0  0  0
   -2.7550   -2.8908    0.1307 C   0  0  0  0  0  0  0  0  0  0  0  0
   -3.3451   -2.3322    0.8611 H   0  0  0  0  0  0  0  0  0  0  0  0
   -3.2402   -2.8252   -0.8461 H   0  0  0  0  0  0  0  0  0  0  0  0
   -1.3522   -2.3186    0.0513 C   0  0  0  0  0  0  0  0  0  0  0  0
   -0.3875   -3.0260    0.2972 O   0  0  0  0  0  0  0  0  0  0  0  0
   -1.1692   -0.9957   -0.2929 N   0  0  0  0  0  0  0  0  0  0  0  0
   -2.0016   -0.4134   -0.3834 H   0  0  0  0  0  0  0  0  0  0  0  0
    0.1241   -0.2996   -0.2701 C   0  0  1  0  0  0  0  0  0  0  0  0
    0.8440   -0.8478    0.3475 H   0  0  0  0  0  0  0  0  0  0  0  0
    0.6722   -0.2349   -1.7116 C   0  0  0  0  0  0  0  0  0  0  0  0
    1.2459   -1.1409   -1.9237 H   0  0  0  0  0  0  0  0  0  0  0  0
   -0.1635   -0.2025   -2.4175 H   0  0  0  0  0  0  0  0  0  0  0  0
    1.5445    0.9877   -1.9717 C   0  0  0  0  0  0  0  0  0  0  0  0
    1.0929    1.9103   -2.6260 O   0  0  0  0  0  0  0  0  0  0  0  0
    2.7758    1.0014   -1.4091 O   0  0  0  0  0  0  0  0  0  0  0  0
    3.1754    1.8440   -1.6770 H   0  0  0  0  0  0  0  0  0  0  0  0
   -0.0598    1.0841    0.3947 C   0  0  0  0  0  0  0  0  0  0  0  0
   -1.0731    1.7365    0.1742 O   0  0  0  0  0  0  0  0  0  0  0  0
    0.8466    1.5362    1.3357 N   0  0  0  0  0  0  0  0  0  0  0  0
    1.6831    0.9796    1.4900 H   0  0  0  0  0  0  0  0  0  0  0  0
    0.7128    2.8150    2.0226 C   0  0  0  0  0  0  0  0  0  0  0  0
   -0.2350    2.8598    2.5695 H   0  0  0  0  0  0  0  0  0  0  0  0
    1.5297    2.9472    2.7385 H   0  0  0  0  0  0  0  0  0  0  0  0
    0.7441    3.6405    1.3037 H   0  0  0  0  0  0  0  0  0  0  0  0
  1  2  1  0  0  0  0
  2  3  1  0  0  0  0
  2  4  1  0  0  0  0
  2  5  1  0  0  0  0
  5  6  2  0  0  0  0
  5  7  1  0  0  0  0
  7  8  1  0  0  0  0
  7  9  1  0  0  0  0
  9 10  1  0  0  0  0
  9 11  1  0  0  0  0
  9 18  1  0  0  0  0
 11 12  1  0  0  0  0
 11 13  1  0  0  0  0
 11 14  1  0  0  0  0
 14 15  2  0  0  0  0
 14 16  1  0  0  0  0
 16 17  1  0  0  0  0
 18 19  2  0  0  0  0
 18 20  1  0  0  0  0
 20 21  1  0  0  0  0
 20 22  1  0  0  0  0
 22 23  1  0  0  0  0
 22 24  1  0  0  0  0
 22 25  1  0  0  0  0
M  END
$$$$

  -OEChem-02102214113D

 25 24  0     1  0  0  0  0  0999 V2000
   -2.7137   -3.9288    0.4463 H   0  0  0  0  0  0  0  0  0  0  0  0
   -2.7527   -2.8790    0.1423 C   0  0  0  0  0  0  0  0  0  0  0  0
   -3.3329   -2.3200    0.8803 H   0  0  0  0  0  0  0  0  0  0  0  0
   -3.2490   -2.8113   -0.8287 H   0  0  0  0  0  0  0  0  0  0  0  0
   -1.3497   -2.3094    0.0470 C   0  0  0  0  0  0  0  0  0  0  0  0
   -0.3838   -3.0173    0.2857 O   0  0  0  0  0  0  0  0  0  0  0  0
   -1.1675   -0.9872   -0.2996 N   0  0  0  0  0  0  0  0  0  0  0  0
   -1.9998   -0.4028   -0.3777 H   0  0  0  0  0  0  0  0  0  0  0  0
    0.1259   -0.2910   -0.2807 C   0  0  1  0  0  0  0  0  0  0  0  0
    0.8438   -0.8371    0.3411 H   0  0  0  0  0  0  0  0  0  0  0  0
    0.6797   -0.2398   -1.7210 C   0  0  0  0  0  0  0  0  0  0  0  0
    1.2485   -1.1513   -1.9235 H   0  0  0  0  0  0  0  0  0  0  0  0
   -0.1536   -0.2109   -2.4291 H   0  0  0  0  0  0  0  0  0  0  0  0
    1.5551    0.9762   -2.0023 C   0  0  0  0  0  0  0  0  0  0  0  0
    1.0399    1.9957   -2.4244 O   0  0  0  0  0  0  0  0  0  0  0  0
    2.8698    0.8740   -1.6995 O   0  0  0  0  0  0  0  0  0  0  0  0
    3.2610    1.7302   -1.9343 H   0  0  0  0  0  0  0  0  0  0  0  0
   -0.0589    1.0933    0.3827 C   0  0  0  0  0  0  0  0  0  0  0  0
   -1.0880    1.7300    0.1893 O   0  0  0  0  0  0  0  0  0  0  0  0
    0.8500    1.5455    1.3214 N   0  0  0  0  0  0  0  0  0  0  0  0
    1.6775    0.9803    1.4904 H   0  0  0  0  0  0  0  0  0  0  0  0
    0.6975    2.8067    2.0366 C   0  0  0  0  0  0  0  0  0  0  0  0
   -0.2379    2.8140    2.6061 H   0  0  0  0  0  0  0  0  0  0  0  0
    1.5278    2.9487    2.7350 H   0  0  0  0  0  0  0  0  0  0  0  0
    0.6882    3.6466    1.3338 H   0  0  0  0  0  0  0  0  0  0  0  0
  1  2  1  0  0  0  0
  2  3  1  0  0  0  0
  2  4  1  0  0  0  0
  2  5  1  0  0  0  0
  5  6  2  0  0  0  0
  5  7  1  0  0  0  0
  7  8  1  0  0  0  0
  7  9  1  0  0  0  0
  9 10  1  0  0  0  0
  9 11  1  0  0  0  0
  9 18  1  0  0  0  0
 11 12  1  0  0  0  0
 11 13  1  0  0  0  0
 11 14  1  0  0  0  0
 14 15  2  0  0  0  0
 14 16  1  0  0  0  0
 16 17  1  0  0  0  0
 18 19  2  0  0  0  0
 18 20  1  0  0  0  0
 20 21  1  0  0  0  0
 20 22  1  0  0  0  0
 22 23  1  0  0  0  0
 22 24  1  0  0  0  0
 22 25  1  0  0  0  0
M  END
$$$$

  -OEChem-02102214113D

 25 24  0     1  0  0  0  0  0999 V2000
   -2.7048   -3.9219    0.4411 H   0  0  0  0  0  0  0  0  0  0  0  0
   -2.7456   -2.8706    0.1430 C   0  0  0  0  0  0  0  0  0  0  0  0
   -3.3213   -2.3155    0.8875 H   0  0  0  0  0  0  0  0  0  0  0  0
   -3.2474   -2.7975   -0.8248 H   0  0  0  0  0  0  0  0  0  0  0  0
   -1.3438   -2.3003    0.0421 C   0  0  0  0  0  0  0  0  0  0  0  0
   -0.3760   -3.0092    0.2708 O   0  0  0  0  0  0  0  0  0  0  0  0
   -1.1654   -0.9763   -0.2991 N   0  0  0  0  0  0  0  0  0  0  0  0
   -1.9985   -0.3913   -0.3658 H   0  0  0  0  0  0  0  0  0  0  0  0
    0.1270   -0.2786   -0.2777 C   0  0  1  0  0  0  0  0  0  0  0  0
    0.8425   -0.8239    0.3474 H   0  0  0  0  0  0  0  0  0  0  0  0
    0.6846   -0.2372   -1.7192 C   0  0  0  0  0  0  0  0  0  0  0  0
    1.2451   -1.1563   -1.9114 H   0  0  0  0  0  0  0  0  0  0  0  0
   -0.1499   -0.2130   -2.4262 H   0  0  0  0  0  0  0  0  0  0  0  0
    1.5657    0.9670   -2.0396 C   0  0  0  0  0  0  0  0  0  0  0  0
    1.0544    2.0578   -2.2170 O   0  0  0  0  0  0  0  0  0  0  0  0
    2.9022    0.7599   -2.0596 O   0  0  0  0  0  0  0  0  0  0  0  0
    3.2996    1.6167   -2.2799 H   0  0  0  0  0  0  0  0  0  0  0  0
   -0.0661    1.1015    0.3930 C   0  0  0  0  0  0  0  0  0  0  0  0
   -1.1107    1.7206    0.2239 O   0  0  0  0  0  0  0  0  0  0  0  0
    0.8405    1.5523    1.3352 N   0  0  0  0  0  0  0  0  0  0  0  0
    1.6788    0.9995    1.4895 H   0  0  0  0  0  0  0  0  0  0  0  0
    0.6756    2.8038    2.0644 C   0  0  0  0  0  0  0  0  0  0  0  0
   -0.2569    2.7932    2.6385 H   0  0  0  0  0  0  0  0  0  0  0  0
    1.5075    2.9491    2.7601 H   0  0  0  0  0  0  0  0  0  0  0  0
    0.6522    3.6505    1.3702 H   0  0  0  0  0  0  0  0  0  0  0  0
  1  2  1  0  0  0  0
  2  3  1  0  0  0  0
  2  4  1  0  0  0  0
  2  5  1  0  0  0  0
  5  6  2  0  0  0  0
  5  7  1  0  0  0  0
  7  8  1  0  0  0  0
  7  9  1  0  0  0  0
  9 10  1  0  0  0  0
  9 11  1  0  0  0  0
  9 18  1  0  0  0  0
 11 12  1  0  0  0  0
 11 13  1  0  0  0  0
 11 14  1  0  0  0  0
 14 15  2  0  0  0  0
 14 16  1  0  0  0  0
 16 17  1  0  0  0  0
 18 19  2  0  0  0  0
 18 20  1  0  0  0  0
 20 21  1  0  0  0  0
 20 22  1  0  0  0  0
 22 23  1  0  0  0  0
 22 24  1  0  0  0  0
 22 25  1  0  0  0  0
M  END
$$$$

  -OEChem-02102214113D

 25 24  0     1  0  0  0  0  0999 V2000
   -2.6957   -3.9187    0.4259 H   0  0  0  0  0  0  0  0  0  0  0  0
   -2.7380   -2.8646    0.1379 C   0  0  0  0  0  0  0  0  0  0  0  0
   -3.3064   -2.3158    0.8926 H   0  0  0  0  0  0  0  0  0  0  0  0
   -3.2488   -2.7818   -0.8244 H   0  0  0  0  0  0  0  0  0  0  0  0
   -1.3361   -2.2948    0.0303 C   0  0  0  0  0  0  0  0  0  0  0  0
   -0.3668   -3.0069    0.2426 O   0  0  0  0  0  0  0  0  0  0  0  0
   -1.1588   -0.9670   -0.2967 N   0  0  0  0  0  0  0  0  0  0  0  0
   -1.9915   -0.3796   -0.3455 H   0  0  0  0  0  0  0  0  0  0  0  0
    0.1334   -0.2684   -0.2680 C   0  0  1  0  0  0  0  0  0  0  0  0
    0.8486   -0.8159    0.3556 H   0  0  0  0  0  0  0  0  0  0  0  0
    0.6902   -0.2268   -1.7132 C   0  0  0  0  0  0  0  0  0  0  0  0
    1.2397   -1.1536   -1.9009 H   0  0  0  0  0  0  0  0  0  0  0  0
   -0.1486   -0.2037   -2.4145 H   0  0  0  0  0  0  0  0  0  0  0  0
    1.5791    0.9627   -2.0770 C   0  0  0  0  0  0  0  0  0  0  0  0
    1.1472    2.0990   -2.0090 O   0  0  0  0  0  0  0  0  0  0  0  0
    2.8498    0.6753   -2.4411 O   0  0  0  0  0  0  0  0  0  0  0  0
    3.2665    1.5261   -2.6479 H   0  0  0  0  0  0  0  0  0  0  0  0
   -0.0766    1.1016    0.4200 C   0  0  0  0  0  0  0  0  0  0  0  0
   -1.1328    1.7057    0.2632 O   0  0  0  0  0  0  0  0  0  0  0  0
    0.8205    1.5510    1.3720 N   0  0  0  0  0  0  0  0  0  0  0  0
    1.6757    1.0197    1.5052 H   0  0  0  0  0  0  0  0  0  0  0  0
    0.6511    2.8062    2.0941 C   0  0  0  0  0  0  0  0  0  0  0  0
   -0.2809    2.7958    2.6691 H   0  0  0  0  0  0  0  0  0  0  0  0
    1.4828    2.9593    2.7885 H   0  0  0  0  0  0  0  0  0  0  0  0
    0.6241    3.6486    1.3947 H   0  0  0  0  0  0  0  0  0  0  0  0
  1  2  1  0  0  0  0
  2  3  1  0  0  0  0
  2  4  1  0  0  0  0
  2  5  1  0  0  0  0
  5  6  2  0  0  0  0
  5  7  1  0  0  0  0
  7  8  1  0  0  0  0
  7  9  1  0  0  0  0
  9 10  1  0  0  0  0
  9 11  1  0  0  0  0
  9 18  1  0  0  0  0
 11 12  1  0  0  0  0
 11 13  1  0  0  0  0
 11 14  1  0  0  0  0
 14 15  2  0  0  0  0
 14 16  1  0  0  0  0
 16 17  1  0  0  0  0
 18 19  2  0  0  0  0
 18 20  1  0  0  0  0
 20 21  1  0  0  0  0
 20 22  1  0  0  0  0
 22 23  1  0  0  0  0
 22 24  1  0  0  0  0
 22 25  1  0  0  0  0
M  END
$$$$

  -OEChem-02102214113D

 25 24  0     1  0  0  0  0  0999 V2000
   -2.6855   -3.9138    0.4108 H   0  0  0  0  0  0  0  0  0  0  0  0
   -2.7286   -2.8578    0.1303 C   0  0  0  0  0  0  0  0  0  0  0  0
   -3.2956   -2.3142    0.8901 H   0  0  0  0  0  0  0  0  0  0  0  0
   -3.2414   -2.7688   -0.8305 H   0  0  0  0  0  0  0  0  0  0  0  0
   -1.3269   -2.2877    0.0234 C   0  0  0  0  0  0  0  0  0  0  0  0
   -0.3576   -3.0032    0.2245 O   0  0  0  0  0  0  0  0  0  0  0  0
   -1.1490   -0.9571   -0.2916 N   0  0  0  0  0  0  0  0  0  0  0  0
   -1.9806   -0.3666   -0.3236 H   0  0  0  0  0  0  0  0  0  0  0  0
    0.1448   -0.2610   -0.2556 C   0  0  1  0  0  0  0  0  0  0  0  0
    0.8616   -0.8109    0.3637 H   0  0  0  0  0  0  0  0  0  0  0  0
    0.6944   -0.2130   -1.7065 C   0  0  0  0  0  0  0  0  0  0  0  0
    1.2336   -1.1458   -1.8948 H   0  0  0  0  0  0  0  0  0  0  0  0
   -0.1515   -0.1878   -2.3987 H   0  0  0  0  0  0  0  0  0  0  0  0
    1.5914    0.9607   -2.1103 C   0  0  0  0  0  0  0  0  0  0  0  0
    1.3070    2.1064   -1.8132 O   0  0  0  0  0  0  0  0  0  0  0  0
    2.7056    0.6365   -2.8055 O   0  0  0  0  0  0  0  0  0  0  0  0
    3.1500    1.4753   -3.0029 H   0  0  0  0  0  0  0  0  0  0  0  0
   -0.0830    1.0989    0.4474 C   0  0  0  0  0  0  0  0  0  0  0  0
   -1.1419    1.6976    0.2845 O   0  0  0  0  0  0  0  0  0  0  0  0
    0.8028    1.5467    1.4107 N   0  0  0  0  0  0  0  0  0  0  0  0
    1.6754    1.0395    1.5208 H   0  0  0  0  0  0  0  0  0  0  0  0
    0.6262    2.8044    2.1259 C   0  0  0  0  0  0  0  0  0  0  0  0
   -0.3203    2.8030    2.6768 H   0  0  0  0  0  0  0  0  0  0  0  0
    1.4411    2.9507    2.8413 H   0  0  0  0  0  0  0  0  0  0  0  0
    0.6245    3.6452    1.4241 H   0  0  0  0  0  0  0  0  0  0  0  0
  1  2  1  0  0  0  0
  2  3  1  0  0  0  0
  2  4  1  0  0  0  0
  2  5  1  0  0  0  0
  5  6  2  0  0  0  0
  5  7  1  0  0  0  0
  7  8  1  0  0  0  0
  7  9  1  0  0  0  0
  9 10  1  0  0  0  0
  9 11  1  0  0  0  0
  9 18  1  0  0  0  0
 11 12  1  0  0  0  0
 11 13  1  0  0  0  0
 11 14  1  0  0  0  0
 14 15  2  0  0  0  0
 14 16  1  0  0  0  0
 16 17  1  0  0  0  0
 18 19  2  0  0  0  0
 18 20  1  0  0  0  0
 20 21  1  0  0  0  0
 20 22  1  0  0  0  0
 22 23  1  0  0  0  0
 22 24  1  0  0  0  0
 22 25  1  0  0  0  0
M  END
$$$$

  -OEChem-02102214113D

 25 24  0     1  0  0  0  0  0999 V2000
   -2.6823   -3.9117    0.3994 H   0  0  0  0  0  0  0  0  0  0  0  0
   -2.7236   -2.8553    0.1197 C   0  0  0  0  0  0  0  0  0  0  0  0
   -3.2929   -2.3120    0.8778 H   0  0  0  0  0  0  0  0  0  0  0  0
   -3.2326   -2.7649   -0.8429 H   0  0  0  0  0  0  0  0  0  0  0  0
   -1.3209   -2.2860    0.0187 C   0  0  0  0  0  0  0  0  0  0  0  0
   -0.3526   -3.0040    0.2151 O   0  0  0  0  0  0  0  0  0  0  0  0
   -1.1398   -0.9533   -0.2857 N   0  0  0  0  0  0  0  0  0  0  0  0
   -1.9698   -0.3603   -0.3129 H   0  0  0  0  0  0  0  0  0  0  0  0
    0.1565   -0.2615   -0.2430 C   0  0  1  0  0  0  0  0  0  0  0  0
    0.8763   -0.8154    0.3693 H   0  0  0  0  0  0  0  0  0  0  0  0
    0.6934   -0.2002   -1.7003 C   0  0  0  0  0  0  0  0  0  0  0  0
    1.2240   -1.1357   -1.8991 H   0  0  0  0  0  0  0  0  0  0  0  0
   -0.1611   -0.1673   -2.3819 H   0  0  0  0  0  0  0  0  0  0  0  0
    1.5954    0.9631   -2.1281 C   0  0  0  0  0  0  0  0  0  0  0  0
    1.5036    2.0687   -1.6273 O   0  0  0  0  0  0  0  0  0  0  0  0
    2.4886    0.6712   -3.1011 O   0  0  0  0  0  0  0  0  0  0  0  0
    2.9667    1.4954   -3.2800 H   0  0  0  0  0  0  0  0  0  0  0  0
   -0.0856    1.0900    0.4732 C   0  0  0  0  0  0  0  0  0  0  0  0
   -1.1421    1.6902    0.2970 O   0  0  0  0  0  0  0  0  0  0  0  0
    0.7899    1.5355    1.4471 N   0  0  0  0  0  0  0  0  0  0  0  0
    1.6780    1.0509    1.5332 H   0  0  0  0  0  0  0  0  0  0  0  0
    0.6165    2.8045    2.1431 C   0  0  0  0  0  0  0  0  0  0  0  0
   -0.3466    2.8286    2.6638 H   0  0  0  0  0  0  0  0  0  0  0  0
    1.4108    2.9422    2.8830 H   0  0  0  0  0  0  0  0  0  0  0  0
    0.6544    3.6373    1.4327 H   0  0  0  0  0  0  0  0  0  0  0  0
  1  2  1  0  0  0  0
  2  3  1  0  0  0  0
  2  4  1  0  0  0  0
  2  5  1  0  0  0  0
  5  6  2  0  0  0  0
  5  7  1  0  0  0  0
  7  8  1  0  0  0  0
  7  9  1  0  0  0  0
  9 10  1  0  0  0  0
  9 11  1  0  0  0  0
  9 18  1  0  0  0  0
 11 12  1  0  0  0  0
 11 13  1  0  0  0  0
 11 14  1  0  0  0  0
 14 15  2  0  0  0  0
 14 16  1  0  0  0  0
 16 17  1  0  0  0  0
 18 19  2  0  0  0  0
 18 20  1  0  0  0  0
 20 21  1  0  0  0  0
 20 22  1  0  0  0  0
 22 23  1  0  0  0  0
 22 24  1  0  0  0  0
 22 25  1  0  0  0  0
M  END
$$$$

  -OEChem-02102214113D

 25 24  0     1  0  0  0  0  0999 V2000
   -2.6865   -3.9088    0.3973 H   0  0  0  0  0  0  0  0  0  0  0  0
   -2.7243   -2.8525    0.1169 C   0  0  0  0  0  0  0  0  0  0  0  0
   -3.2913   -2.3070    0.8751 H   0  0  0  0  0  0  0  0  0  0  0  0
   -3.2334   -2.7607   -0.8454 H   0  0  0  0  0  0  0  0  0  0  0  0
   -1.3197   -2.2885    0.0148 C   0  0  0  0  0  0  0  0  0  0  0  0
   -0.3540   -3.0113    0.2057 O   0  0  0  0  0  0  0  0  0  0  0  0
   -1.1339   -0.9553   -0.2842 N   0  0  0  0  0  0  0  0  0  0  0  0
   -1.9617   -0.3589   -0.3075 H   0  0  0  0  0  0  0  0  0  0  0  0
    0.1660   -0.2698   -0.2357 C   0  0  1  0  0  0  0  0  0  0  0  0
    0.8882   -0.8280    0.3697 H   0  0  0  0  0  0  0  0  0  0  0  0
    0.6896   -0.1920   -1.6978 C   0  0  0  0  0  0  0  0  0  0  0  0
    1.2128   -1.1276   -1.9141 H   0  0  0  0  0  0  0  0  0  0  0  0
   -0.1729   -0.1457   -2.3685 H   0  0  0  0  0  0  0  0  0  0  0  0
    1.5953    0.9672   -2.1304 C   0  0  0  0  0  0  0  0  0  0  0  0
    1.7193    1.9783   -1.4636 O   0  0  0  0  0  0  0  0  0  0  0  0
    2.2378    0.7815   -3.3064 O   0  0  0  0  0  0  0  0  0  0  0  0
    2.7515    1.5891   -3.4610 H   0  0  0  0  0  0  0  0  0  0  0  0
   -0.0845    1.0773    0.4872 C   0  0  0  0  0  0  0  0  0  0  0  0
   -1.1314    1.6875    0.2882 O   0  0  0  0  0  0  0  0  0  0  0  0
    0.7819    1.5220    1.4698 N   0  0  0  0  0  0  0  0  0  0  0  0
    1.6798    1.0530    1.5391 H   0  0  0  0  0  0  0  0  0  0  0  0
    0.6151    2.8033    2.1445 C   0  0  0  0  0  0  0  0  0  0  0  0
   -0.3574    2.8499    2.6456 H   0  0  0  0  0  0  0  0  0  0  0  0
    1.3969    2.9384    2.8980 H   0  0  0  0  0  0  0  0  0  0  0  0
    0.6808    3.6253    1.4239 H   0  0  0  0  0  0  0  0  0  0  0  0
  1  2  1  0  0  0  0
  2  3  1  0  0  0  0
  2  4  1  0  0  0  0
  2  5  1  0  0  0  0
  5  6  2  0  0  0  0
  5  7  1  0  0  0  0
  7  8  1  0  0  0  0
  7  9  1  0  0  0  0
  9 10  1  0  0  0  0
  9 11  1  0  0  0  0
  9 18  1  0  0  0  0
 11 12  1  0  0  0  0
 11 13  1  0  0  0  0
 11 14  1  0  0  0  0
 14 15  2  0  0  0  0
 14 16  1  0  0  0  0
 16 17  1  0  0  0  0
 18 19  2  0  0  0  0
 18 20  1  0  0  0  0
 20 21  1  0  0  0  0
 20 22  1  0  0  0  0
 22 23  1  0  0  0  0
 22 24  1  0  0  0  0
 22 25  1  0  0  0  0
M  END
$$$$

  -OEChem-02102214113D

 25 24  0     1  0  0  0  0  0999 V2000
   -2.6965   -3.9073    0.4041 H   0  0  0  0  0  0  0  0  0  0  0  0
   -2.7285   -2.8521    0.1189 C   0  0  0  0  0  0  0  0  0  0  0  0
   -3.2966   -2.3007    0.8721 H   0  0  0  0  0  0  0  0  0  0  0  0
   -3.2330   -2.7624   -0.8461 H   0  0  0  0  0  0  0  0  0  0  0  0
   -1.3211   -2.2946    0.0205 C   0  0  0  0  0  0  0  0  0  0  0  0
   -0.3592   -3.0216    0.2145 O   0  0  0  0  0  0  0  0  0  0  0  0
   -1.1293   -0.9628   -0.2808 N   0  0  0  0  0  0  0  0  0  0  0  0
   -1.9546   -0.3635   -0.3108 H   0  0  0  0  0  0  0  0  0  0  0  0
    0.1734   -0.2831   -0.2333 C   0  0  1  0  0  0  0  0  0  0  0  0
    0.9003   -0.8428    0.3652 H   0  0  0  0  0  0  0  0  0  0  0  0
    0.6795   -0.1911   -1.6998 C   0  0  0  0  0  0  0  0  0  0  0  0
    1.1962   -1.1244   -1.9387 H   0  0  0  0  0  0  0  0  0  0  0  0
   -0.1916   -0.1288   -2.3585 H   0  0  0  0  0  0  0  0  0  0  0  0
    1.5844    0.9711   -2.1208 C   0  0  0  0  0  0  0  0  0  0  0  0
    1.9284    1.8367   -1.3354 O   0  0  0  0  0  0  0  0  0  0  0  0
    1.9710    0.9584   -3.4171 O   0  0  0  0  0  0  0  0  0  0  0  0
    2.5199    1.7477   -3.5407 H   0  0  0  0  0  0  0  0  0  0  0  0
   -0.0781    1.0654    0.4880 C   0  0  0  0  0  0  0  0  0  0  0  0
   -1.1124    1.6884    0.2647 O   0  0  0  0  0  0  0  0  0  0  0  0
    0.7839    1.5130    1.4728 N   0  0  0  0  0  0  0  0  0  0  0  0
    1.6859    1.0501    1.5346 H   0  0  0  0  0  0  0  0  0  0  0  0
    0.6228    2.8031    2.1323 C   0  0  0  0  0  0  0  0  0  0  0  0
   -0.3578    2.8688    2.6156 H   0  0  0  0  0  0  0  0  0  0  0  0
    1.3922    2.9344    2.8991 H   0  0  0  0  0  0  0  0  0  0  0  0
    0.7131    3.6172    1.4055 H   0  0  0  0  0  0  0  0  0  0  0  0
  1  2  1  0  0  0  0
  2  3  1  0  0  0  0
  2  4  1  0  0  0  0
  2  5  1  0  0  0  0
  5  6  2  0  0  0  0
  5  7  1  0  0  0  0
  7  8  1  0  0  0  0
  7  9  1  0  0  0  0
  9 10  1  0  0  0  0
  9 11  1  0  0  0  0
  9 18  1  0  0  0  0
 11 12  1  0  0  0  0
 11 13  1  0  0  0  0
 11 14  1  0  0  0  0
 14 15  2  0  0  0  0
 14 16  1  0  0  0  0
 16 17  1  0  0  0  0
 18 19  2  0  0  0  0
 18 20  1  0  0  0  0
 20 21  1  0  0  0  0
 20 22  1  0  0  0  0
 22 23  1  0  0  0  0
 22 24  1  0  0  0  0
 22 25  1  0  0  0  0
M  END
$$$$

  -OEChem-02102214113D

 25 24  0     1  0  0  0  0  0999 V2000
   -2.7083   -3.9140    0.4158 H   0  0  0  0  0  0  0  0  0  0  0  0
   -2.7363   -2.8595    0.1276 C   0  0  0  0  0  0  0  0  0  0  0  0
   -3.3034   -2.3039    0.8784 H   0  0  0  0  0  0  0  0  0  0  0  0
   -3.2393   -2.7710   -0.8382 H   0  0  0  0  0  0  0  0  0  0  0  0
   -1.3270   -2.3065    0.0296 C   0  0  0  0  0  0  0  0  0  0  0  0
   -0.3672   -3.0350    0.2288 O   0  0  0  0  0  0  0  0  0  0  0  0
   -1.1319   -0.9768   -0.2786 N   0  0  0  0  0  0  0  0  0  0  0  0
   -1.9563   -0.3770   -0.3180 H   0  0  0  0  0  0  0  0  0  0  0  0
    0.1720   -0.2992   -0.2365 C   0  0  1  0  0  0  0  0  0  0  0  0
    0.9034   -0.8589    0.3565 H   0  0  0  0  0  0  0  0  0  0  0  0
    0.6665   -0.1950   -1.7042 C   0  0  0  0  0  0  0  0  0  0  0  0
    1.1833   -1.1229   -1.9621 H   0  0  0  0  0  0  0  0  0  0  0  0
   -0.2089   -0.1213   -2.3561 H   0  0  0  0  0  0  0  0  0  0  0  0
    1.5676    0.9792   -2.0941 C   0  0  0  0  0  0  0  0  0  0  0  0
    2.1168    1.6591   -1.2436 O   0  0  0  0  0  0  0  0  0  0  0  0
    1.7173    1.1932   -3.4216 O   0  0  0  0  0  0  0  0  0  0  0  0
    2.2971    1.9654   -3.5058 H   0  0  0  0  0  0  0  0  0  0  0  0
   -0.0728    1.0543    0.4779 C   0  0  0  0  0  0  0  0  0  0  0  0
   -1.0967    1.6879    0.2379 O   0  0  0  0  0  0  0  0  0  0  0  0
    0.7911    1.5067    1.4584 N   0  0  0  0  0  0  0  0  0  0  0  0
    1.6956    1.0469    1.5126 H   0  0  0  0  0  0  0  0  0  0  0  0
    0.6397    2.8068    2.1000 C   0  0  0  0  0  0  0  0  0  0  0  0
   -0.3422    2.8881    2.5781 H   0  0  0  0  0  0  0  0  0  0  0  0
    1.4071    2.9403    2.8685 H   0  0  0  0  0  0  0  0  0  0  0  0
    0.7410    3.6105    1.3631 H   0  0  0  0  0  0  0  0  0  0  0  0
  1  2  1  0  0  0  0
  2  3  1  0  0  0  0
  2  4  1  0  0  0  0
  2  5  1  0  0  0  0
  5  6  2  0  0  0  0
  5  7  1  0  0  0  0
  7  8  1  0  0  0  0
  7  9  1  0  0  0  0
  9 10  1  0  0  0  0
  9 11  1  0  0  0  0
  9 18  1  0  0  0  0
 11 12  1  0  0  0  0
 11 13  1  0  0  0  0
 11 14  1  0  0  0  0
 14 15  2  0  0  0  0
 14 16  1  0  0  0  0
 16 17  1  0  0  0  0
 18 19  2  0  0  0  0
 18 20  1  0  0  0  0
 20 21  1  0  0  0  0
 20 22  1  0  0  0  0
 22 23  1  0  0  0  0
 22 24  1  0  0  0  0
 22 25  1  0  0  0  0
M  END
$$$$

  -OEChem-02102214113D

 25 24  0     1  0  0  0  0  0999 V2000
   -2.7083   -3.9297    0.4367 H   0  0  0  0  0  0  0  0  0  0  0  0
   -2.7411   -2.8795    0.1336 C   0  0  0  0  0  0  0  0  0  0  0  0
   -3.3216   -2.3182    0.8697 H   0  0  0  0  0  0  0  0  0  0  0  0
   -3.2324   -2.8085   -0.8397 H   0  0  0  0  0  0  0  0  0  0  0  0
   -1.3349   -2.3175    0.0447 C   0  0  0  0  0  0  0  0  0  0  0  0
   -0.3729   -3.0391    0.2567 O   0  0  0  0  0  0  0  0  0  0  0  0
   -1.1444   -0.9898   -0.2750 N   0  0  0  0  0  0  0  0  0  0  0  0
   -1.9713   -0.3947   -0.3275 H   0  0  0  0  0  0  0  0  0  0  0  0
    0.1576   -0.3082   -0.2439 C   0  0  1  0  0  0  0  0  0  0  0  0
    0.8936   -0.8649    0.3468 H   0  0  0  0  0  0  0  0  0  0  0  0
    0.6485   -0.2012   -1.7101 C   0  0  0  0  0  0  0  0  0  0  0  0
    1.1757   -1.1213   -1.9755 H   0  0  0  0  0  0  0  0  0  0  0  0
   -0.2254   -0.1280   -2.3642 H   0  0  0  0  0  0  0  0  0  0  0  0
    1.5405    0.9904   -2.0579 C   0  0  0  0  0  0  0  0  0  0  0  0
    2.2720    1.4700   -1.2067 O   0  0  0  0  0  0  0  0  0  0  0  0
    1.4803    1.4472   -3.3299 O   0  0  0  0  0  0  0  0  0  0  0  0
    2.0894    2.1998   -3.3753 H   0  0  0  0  0  0  0  0  0  0  0  0
   -0.0707    1.0538    0.4584 C   0  0  0  0  0  0  0  0  0  0  0  0
   -1.0856    1.6982    0.2116 O   0  0  0  0  0  0  0  0  0  0  0  0
    0.8053    1.5099    1.4259 N   0  0  0  0  0  0  0  0  0  0  0  0
    1.7078    1.0443    1.4740 H   0  0  0  0  0  0  0  0  0  0  0  0
    0.6676    2.8137    2.0629 C   0  0  0  0  0  0  0  0  0  0  0  0
   -0.3168    2.9105    2.5329 H   0  0  0  0  0  0  0  0  0  0  0  0
    1.4306    2.9378    2.8374 H   0  0  0  0  0  0  0  0  0  0  0  0
    0.7862    3.6140    1.3250 H   0  0  0  0  0  0  0  0  0  0  0  0
  1  2  1  0  0  0  0
  2  3  1  0  0  0  0
  2  4  1  0  0  0  0
  2  5  1  0  0  0  0
  5  6  2  0  0  0  0
  5  7  1  0  0  0  0
  7  8  1  0  0  0  0
  7  9  1  0  0  0  0
  9 10  1  0  0  0  0
  9 11  1  0  0  0  0
  9 18  1  0  0  0  0
 11 12  1  0  0  0  0
 11 13  1  0  0  0  0
 11 14  1  0  0  0  0
 14 15  2  0  0  0  0
 14 16  1  0  0  0  0
 16 17  1  0  0  0  0
 18 19  2  0  0  0  0
 18 20  1  0  0  0  0
 20 21  1  0  0  0  0
 20 22  1  0  0  0  0
 22 23  1  0  0  0  0
 22 24  1  0  0  0  0
 22 25  1  0  0  0  0
M  END
$$$$

  -OEChem-02102214113D

 25 24  0     1  0  0  0  0  0999 V2000
   -2.7052   -3.9490    0.4552 H   0  0  0  0  0  0  0  0  0  0  0  0
   -2.7452   -2.9007    0.1464 C   0  0  0  0  0  0  0  0  0  0  0  0
   -3.3235   -2.3383    0.8834 H   0  0  0  0  0  0  0  0  0  0  0  0
   -3.2438   -2.8376   -0.8238 H   0  0  0  0  0  0  0  0  0  0  0  0
   -1.3423   -2.3322    0.0451 C   0  0  0  0  0  0  0  0  0  0  0  0
   -0.3757   -3.0476    0.2566 O   0  0  0  0  0  0  0  0  0  0  0  0
   -1.1611   -1.0046   -0.2816 N   0  0  0  0  0  0  0  0  0  0  0  0
   -1.9926   -0.4166   -0.3386 H   0  0  0  0  0  0  0  0  0  0  0  0
    0.1358   -0.3139   -0.2573 C   0  0  1  0  0  0  0  0  0  0  0  0
    0.8723   -0.8675    0.3357 H   0  0  0  0  0  0  0  0  0  0  0  0
    0.6388   -0.2055   -1.7164 C   0  0  0  0  0  0  0  0  0  0  0  0
    1.1856   -1.1144   -1.9799 H   0  0  0  0  0  0  0  0  0  0  0  0
   -0.2250   -0.1391   -2.3845 H   0  0  0  0  0  0  0  0  0  0  0  0
    1.5177    1.0076   -2.0095 C   0  0  0  0  0  0  0  0  0  0  0  0
    2.4038    1.2939   -1.2195 O   0  0  0  0  0  0  0  0  0  0  0  0
    1.2778    1.6991   -3.1472 O   0  0  0  0  0  0  0  0  0  0  0  0
    1.9128    2.4313   -3.1581 H   0  0  0  0  0  0  0  0  0  0  0  0
   -0.0760    1.0544    0.4352 C   0  0  0  0  0  0  0  0  0  0  0  0
   -1.0842    1.7075    0.1875 O   0  0  0  0  0  0  0  0  0  0  0  0
    0.8130    1.5114    1.3899 N   0  0  0  0  0  0  0  0  0  0  0  0
    1.7064    1.0287    1.4464 H   0  0  0  0  0  0  0  0  0  0  0  0
    0.6940    2.8218    2.0170 C   0  0  0  0  0  0  0  0  0  0  0  0
   -0.2804    2.9271    2.5059 H   0  0  0  0  0  0  0  0  0  0  0  0
    1.4732    2.9503    2.7744 H   0  0  0  0  0  0  0  0  0  0  0  0
    0.8010    3.6148    1.2694 H   0  0  0  0  0  0  0  0  0  0  0  0
  1  2  1  0  0  0  0
  2  3  1  0  0  0  0
  2  4  1  0  0  0  0
  2  5  1  0  0  0  0
  5  6  2  0  0  0  0
  5  7  1  0  0  0  0
  7  8  1  0  0  0  0
  7  9  1  0  0  0  0
  9 10  1  0  0  0  0
  9 11  1  0  0  0  0
  9 18  1  0  0  0  0
 11 12  1  0  0  0  0
 11 13  1  0  0  0  0
 11 14  1  0  0  0  0
 14 15  2  0  0  0  0
 14 16  1  0  0  0  0
 16 17  1  0  0  0  0
 18 19  2  0  0  0  0
 18 20  1  0  0  0  0
 20 21  1  0  0  0  0
 20 22  1  0  0  0  0
 22 23  1  0  0  0  0
 22 24  1  0  0  0  0
 22 25  1  0  0  0  0
M  END
$$$$

  -OEChem-02102214113D

 25 24  0     1  0  0  0  0  0999 V2000
   -2.6971   -3.9692    0.4514 H   0  0  0  0  0  0  0  0  0  0  0  0
   -2.7444   -2.9221    0.1396 C   0  0  0  0  0  0  0  0  0  0  0  0
   -3.3373   -2.3642    0.8684 H   0  0  0  0  0  0  0  0  0  0  0  0
   -3.2324   -2.8666   -0.8364 H   0  0  0  0  0  0  0  0  0  0  0  0
   -1.3466   -2.3388    0.0529 C   0  0  0  0  0  0  0  0  0  0  0  0
   -0.3752   -3.0424    0.2810 O   0  0  0  0  0  0  0  0  0  0  0  0
   -1.1759   -1.0112   -0.2797 N   0  0  0  0  0  0  0  0  0  0  0  0
   -2.0127   -0.4335   -0.3545 H   0  0  0  0  0  0  0  0  0  0  0  0
    0.1144   -0.3088   -0.2629 C   0  0  1  0  0  0  0  0  0  0  0  0
    0.8507   -0.8580    0.3344 H   0  0  0  0  0  0  0  0  0  0  0  0
    0.6303   -0.2094   -1.7156 C   0  0  0  0  0  0  0  0  0  0  0  0
    1.1965   -1.1101   -1.9671 H   0  0  0  0  0  0  0  0  0  0  0  0
   -0.2227   -0.1572   -2.3983 H   0  0  0  0  0  0  0  0  0  0  0  0
    1.4932    1.0202   -1.9752 C   0  0  0  0  0  0  0  0  0  0  0  0
    2.5158    1.1499   -1.3214 O   0  0  0  0  0  0  0  0  0  0  0  0
    1.0900    1.8985   -2.9216 O   0  0  0  0  0  0  0  0  0  0  0  0
    1.7463    2.6114   -2.9292 H   0  0  0  0  0  0  0  0  0  0  0  0
   -0.0805    1.0655    0.4201 C   0  0  0  0  0  0  0  0  0  0  0  0
   -1.0840    1.7265    0.1776 O   0  0  0  0  0  0  0  0  0  0  0  0
    0.8245    1.5206    1.3604 N   0  0  0  0  0  0  0  0  0  0  0  0
    1.6999    1.0091    1.4421 H   0  0  0  0  0  0  0  0  0  0  0  0
    0.7223    2.8309    1.9906 C   0  0  0  0  0  0  0  0  0  0  0  0
   -0.2440    2.9411    2.4939 H   0  0  0  0  0  0  0  0  0  0  0  0
    1.5134    2.9543    2.7363 H   0  0  0  0  0  0  0  0  0  0  0  0
    0.8227    3.6239    1.2424 H   0  0  0  0  0  0  0  0  0  0  0  0
  1  2  1  0  0  0  0
  2  3  1  0  0  0  0
  2  4  1  0  0  0  0
  2  5  1  0  0  0  0
  5  6  2  0  0  0  0
  5  7  1  0  0  0  0
  7  8  1  0  0  0  0
  7  9  1  0  0  0  0
  9 10  1  0  0  0  0
  9 11  1  0  0  0  0
  9 18  1  0  0  0  0
 11 12  1  0  0  0  0
 11 13  1  0  0  0  0
 11 14  1  0  0  0  0
 14 15  2  0  0  0  0
 14 16  1  0  0  0  0
 16 17  1  0  0  0  0
 18 19  2  0  0  0  0
 18 20  1  0  0  0  0
 20 21  1  0  0  0  0
 20 22  1  0  0  0  0
 22 23  1  0  0  0  0
 22 24  1  0  0  0  0
 22 25  1  0  0  0  0
M  END
$$$$

  -OEChem-02102214113D

 25 24  0     1  0  0  0  0  0999 V2000
   -2.6892   -3.9709    0.4560 H   0  0  0  0  0  0  0  0  0  0  0  0
   -2.7418   -2.9240    0.1443 C   0  0  0  0  0  0  0  0  0  0  0  0
   -3.3317   -2.3679    0.8769 H   0  0  0  0  0  0  0  0  0  0  0  0
   -3.2360   -2.8701   -0.8286 H   0  0  0  0  0  0  0  0  0  0  0  0
   -1.3468   -2.3359    0.0492 C   0  0  0  0  0  0  0  0  0  0  0  0
   -0.3717   -3.0351    0.2753 O   0  0  0  0  0  0  0  0  0  0  0  0
   -1.1829   -1.0081   -0.2862 N   0  0  0  0  0  0  0  0  0  0  0  0
   -2.0230   -0.4354   -0.3642 H   0  0  0  0  0  0  0  0  0  0  0  0
    0.1036   -0.2988   -0.2721 C   0  0  1  0  0  0  0  0  0  0  0  0
    0.8367   -0.8450    0.3318 H   0  0  0  0  0  0  0  0  0  0  0  0
    0.6345   -0.2121   -1.7190 C   0  0  0  0  0  0  0  0  0  0  0  0
    1.2104   -1.1113   -1.9547 H   0  0  0  0  0  0  0  0  0  0  0  0
   -0.2086   -0.1702   -2.4147 H   0  0  0  0  0  0  0  0  0  0  0  0
    1.4893    1.0243   -1.9672 C   0  0  0  0  0  0  0  0  0  0  0  0
    2.6211    1.0330   -1.5124 O   0  0  0  0  0  0  0  0  0  0  0  0
    0.9591    2.0401   -2.6861 O   0  0  0  0  0  0  0  0  0  0  0  0
    1.6354    2.7329   -2.7229 H   0  0  0  0  0  0  0  0  0  0  0  0
   -0.0830    1.0785    0.4058 C   0  0  0  0  0  0  0  0  0  0  0  0
   -1.0913    1.7372    0.1801 O   0  0  0  0  0  0  0  0  0  0  0  0
    0.8308    1.5311    1.3390 N   0  0  0  0  0  0  0  0  0  0  0  0
    1.6886    0.9963    1.4504 H   0  0  0  0  0  0  0  0  0  0  0  0
    0.7225    2.8275    1.9969 C   0  0  0  0  0  0  0  0  0  0  0  0
   -0.2324    2.9111    2.5264 H   0  0  0  0  0  0  0  0  0  0  0  0
    1.5306    2.9512    2.7242 H   0  0  0  0  0  0  0  0  0  0  0  0
    0.7900    3.6362    1.2618 H   0  0  0  0  0  0  0  0  0  0  0  0
  1  2  1  0  0  0  0
  2  3  1  0  0  0  0
  2  4  1  0  0  0  0
  2  5  1  0  0  0  0
  5  6  2  0  0  0  0
  5  7  1  0  0  0  0
  7  8  1  0  0  0  0
  7  9  1  0  0  0  0
  9 10  1  0  0  0  0
  9 11  1  0  0  0  0
  9 18  1  0  0  0  0
 11 12  1  0  0  0  0
 11 13  1  0  0  0  0
 11 14  1  0  0  0  0
 14 15  2  0  0  0  0
 14 16  1  0  0  0  0
 16 17  1  0  0  0  0
 18 19  2  0  0  0  0
 18 20  1  0  0  0  0
 20 21  1  0  0  0  0
 20 22  1  0  0  0  0
 22 23  1  0  0  0  0
 22 24  1  0  0  0  0
 22 25  1  0  0  0  0
M  END
$$$$

  -OEChem-02102214113D

 25 24  0     1  0  0  0  0  0999 V2000
   -2.6847   -3.9545    0.4594 H   0  0  0  0  0  0  0  0  0  0  0  0
   -2.7379   -2.9053    0.1557 C   0  0  0  0  0  0  0  0  0  0  0  0
   -3.3163   -2.3523    0.8996 H   0  0  0  0  0  0  0  0  0  0  0  0
   -3.2446   -2.8433   -0.8103 H   0  0  0  0  0  0  0  0  0  0  0  0
   -1.3421   -2.3209    0.0470 C   0  0  0  0  0  0  0  0  0  0  0  0
   -0.3668   -3.0200    0.2730 O   0  0  0  0  0  0  0  0  0  0  0  0
   -1.1780   -0.9941   -0.2919 N   0  0  0  0  0  0  0  0  0  0  0  0
   -2.0175   -0.4195   -0.3626 H   0  0  0  0  0  0  0  0  0  0  0  0
    0.1081   -0.2845   -0.2808 C   0  0  1  0  0  0  0  0  0  0  0  0
    0.8379   -0.8288    0.3288 H   0  0  0  0  0  0  0  0  0  0  0  0
    0.6461   -0.2133   -1.7258 C   0  0  0  0  0  0  0  0  0  0  0  0
    1.2198   -1.1176   -1.9480 H   0  0  0  0  0  0  0  0  0  0  0  0
   -0.1940   -0.1786   -2.4252 H   0  0  0  0  0  0  0  0  0  0  0  0
    1.5027    1.0189   -1.9905 C   0  0  0  0  0  0  0  0  0  0  0  0
    2.7015    0.9330   -1.7868 O   0  0  0  0  0  0  0  0  0  0  0  0
    0.9011    2.1292   -2.4743 O   0  0  0  0  0  0  0  0  0  0  0  0
    1.5968    2.7946   -2.5831 H   0  0  0  0  0  0  0  0  0  0  0  0
   -0.0789    1.0939    0.3937 C   0  0  0  0  0  0  0  0  0  0  0  0
   -1.1028    1.7375    0.1957 O   0  0  0  0  0  0  0  0  0  0  0  0
    0.8374    1.5465    1.3247 N   0  0  0  0  0  0  0  0  0  0  0  0
    1.6780    0.9929    1.4689 H   0  0  0  0  0  0  0  0  0  0  0  0
    0.6926    2.8078    2.0406 C   0  0  0  0  0  0  0  0  0  0  0  0
   -0.2438    2.8211    2.6085 H   0  0  0  0  0  0  0  0  0  0  0  0
    1.5223    2.9424    2.7414 H   0  0  0  0  0  0  0  0  0  0  0  0
    0.6915    3.6484    1.3388 H   0  0  0  0  0  0  0  0  0  0  0  0
  1  2  1  0  0  0  0
  2  3  1  0  0  0  0
  2  4  1  0  0  0  0
  2  5  1  0  0  0  0
  5  6  2  0  0  0  0
  5  7  1  0  0  0  0
  7  8  1  0  0  0  0
  7  9  1  0  0  0  0
  9 10  1  0  0  0  0
  9 11  1  0  0  0  0
  9 18  1  0  0  0  0
 11 12  1  0  0  0  0
 11 13  1  0  0  0  0
 11 14  1  0  0  0  0
 14 15  2  0  0  0  0
 14 16  1  0  0  0  0
 16 17  1  0  0  0  0
 18 19  2  0  0  0  0
 18 20  1  0  0  0  0
 20 21  1  0  0  0  0
 20 22  1  0  0  0  0
 22 23  1  0  0  0  0
 22 24  1  0  0  0  0
 22 25  1  0  0  0  0
M  END
$$$$

  -OEChem-02102214113D

 25 24  0     1  0  0  0  0  0999 V2000
   -2.6837   -3.9466    0.4408 H   0  0  0  0  0  0  0  0  0  0  0  0
   -2.7351   -2.8938    0.1498 C   0  0  0  0  0  0  0  0  0  0  0  0
   -3.3129   -2.3486    0.9000 H   0  0  0  0  0  0  0  0  0  0  0  0
   -3.2412   -2.8193   -0.8156 H   0  0  0  0  0  0  0  0  0  0  0  0
   -1.3385   -2.3103    0.0481 C   0  0  0  0  0  0  0  0  0  0  0  0
   -0.3642   -3.0112    0.2726 O   0  0  0  0  0  0  0  0  0  0  0  0
   -1.1731   -0.9827   -0.2861 N   0  0  0  0  0  0  0  0  0  0  0  0
   -2.0121   -0.4068   -0.3529 H   0  0  0  0  0  0  0  0  0  0  0  0
    0.1132   -0.2733   -0.2742 C   0  0  1  0  0  0  0  0  0  0  0  0
    0.8410   -0.8185    0.3369 H   0  0  0  0  0  0  0  0  0  0  0  0
    0.6552   -0.2108   -1.7195 C   0  0  0  0  0  0  0  0  0  0  0  0
    1.2207   -1.1227   -1.9326 H   0  0  0  0  0  0  0  0  0  0  0  0
   -0.1859   -0.1780   -2.4176 H   0  0  0  0  0  0  0  0  0  0  0  0
    1.5175    1.0127   -2.0135 C   0  0  0  0  0  0  0  0  0  0  0  0
    2.7232    0.8519   -2.0870 O   0  0  0  0  0  0  0  0  0  0  0  0
    0.9055    2.1936   -2.2569 O   0  0  0  0  0  0  0  0  0  0  0  0
    1.6065    2.8319   -2.4563 H   0  0  0  0  0  0  0  0  0  0  0  0
   -0.0785    1.1019    0.4061 C   0  0  0  0  0  0  0  0  0  0  0  0
   -1.1173    1.7296    0.2343 O   0  0  0  0  0  0  0  0  0  0  0  0
    0.8366    1.5534    1.3393 N   0  0  0  0  0  0  0  0  0  0  0  0
    1.6703    0.9934    1.4957 H   0  0  0  0  0  0  0  0  0  0  0  0
    0.6728    2.7970    2.0822 C   0  0  0  0  0  0  0  0  0  0  0  0
   -0.2440    2.7682    2.6805 H   0  0  0  0  0  0  0  0  0  0  0  0
    1.5208    2.9494    2.7569 H   0  0  0  0  0  0  0  0  0  0  0  0
    0.6192    3.6488    1.3960 H   0  0  0  0  0  0  0  0  0  0  0  0
  1  2  1  0  0  0  0
  2  3  1  0  0  0  0
  2  4  1  0  0  0  0
  2  5  1  0  0  0  0
  5  6  2  0  0  0  0
  5  7  1  0  0  0  0
  7  8  1  0  0  0  0
  7  9  1  0  0  0  0
  9 10  1  0  0  0  0
  9 11  1  0  0  0  0
  9 18  1  0  0  0  0
 11 12  1  0  0  0  0
 11 13  1  0  0  0  0
 11 14  1  0  0  0  0
 14 15  2  0  0  0  0
 14 16  1  0  0  0  0
 16 17  1  0  0  0  0
 18 19  2  0  0  0  0
 18 20  1  0  0  0  0
 20 21  1  0  0  0  0
 20 22  1  0  0  0  0
 22 23  1  0  0  0  0
 22 24  1  0  0  0  0
 22 25  1  0  0  0  0
M  END
$$$$

  -OEChem-02102214113D

 25 24  0     1  0  0  0  0  0999 V2000
   -2.6784   -3.9378    0.4335 H   0  0  0  0  0  0  0  0  0  0  0  0
   -2.7306   -2.8841    0.1456 C   0  0  0  0  0  0  0  0  0  0  0  0
   -3.3055   -2.3411    0.8996 H   0  0  0  0  0  0  0  0  0  0  0  0
   -3.2410   -2.8065   -0.8174 H   0  0  0  0  0  0  0  0  0  0  0  0
   -1.3340   -2.3010    0.0399 C   0  0  0  0  0  0  0  0  0  0  0  0
   -0.3590   -3.0049    0.2520 O   0  0  0  0  0  0  0  0  0  0  0  0
   -1.1683   -0.9706   -0.2833 N   0  0  0  0  0  0  0  0  0  0  0  0
   -2.0066   -0.3918   -0.3360 H   0  0  0  0  0  0  0  0  0  0  0  0
    0.1189   -0.2623   -0.2640 C   0  0  1  0  0  0  0  0  0  0  0  0
    0.8430   -0.8102    0.3490 H   0  0  0  0  0  0  0  0  0  0  0  0
    0.6667   -0.2060   -1.7101 C   0  0  0  0  0  0  0  0  0  0  0  0
    1.2210   -1.1271   -1.9145 H   0  0  0  0  0  0  0  0  0  0  0  0
   -0.1769   -0.1741   -2.4049 H   0  0  0  0  0  0  0  0  0  0  0  0
    1.5391    1.0035   -2.0439 C   0  0  0  0  0  0  0  0  0  0  0  0
    2.6845    0.7848   -2.3979 O   0  0  0  0  0  0  0  0  0  0  0  0
    0.9839    2.2364   -2.0503 O   0  0  0  0  0  0  0  0  0  0  0  0
    1.6736    2.8471   -2.3504 H   0  0  0  0  0  0  0  0  0  0  0  0
   -0.0815    1.1057    0.4290 C   0  0  0  0  0  0  0  0  0  0  0  0
   -1.1309    1.7210    0.2735 O   0  0  0  0  0  0  0  0  0  0  0  0
    0.8282    1.5528    1.3703 N   0  0  0  0  0  0  0  0  0  0  0  0
    1.6631    0.9951    1.5264 H   0  0  0  0  0  0  0  0  0  0  0  0
    0.6505    2.7851    2.1289 C   0  0  0  0  0  0  0  0  0  0  0  0
   -0.2660    2.7387    2.7263 H   0  0  0  0  0  0  0  0  0  0  0  0
    1.4963    2.9386    2.8057 H   0  0  0  0  0  0  0  0  0  0  0  0
    0.5874    3.6447    1.4532 H   0  0  0  0  0  0  0  0  0  0  0  0
  1  2  1  0  0  0  0
  2  3  1  0  0  0  0
  2  4  1  0  0  0  0
  2  5  1  0  0  0  0
  5  6  2  0  0  0  0
  5  7  1  0  0  0  0
  7  8  1  0  0  0  0
  7  9  1  0  0  0  0
  9 10  1  0  0  0  0
  9 11  1  0  0  0  0
  9 18  1  0  0  0  0
 11 12  1  0  0  0  0
 11 13  1  0  0  0  0
 11 14  1  0  0  0  0
 14 15  2  0  0  0  0
 14 16  1  0  0  0  0
 16 17  1  0  0  0  0
 18 19  2  0  0  0  0
 18 20  1  0  0  0  0
 20 21  1  0  0  0  0
 20 22  1  0  0  0  0
 22 23  1  0  0  0  0
 22 24  1  0  0  0  0
 22 25  1  0  0  0  0
M  END
$$$$

  -OEChem-02102214113D

 25 24  0     1  0  0  0  0  0999 V2000
   -2.6752   -3.9309    0.4188 H   0  0  0  0  0  0  0  0  0  0  0  0
   -2.7257   -2.8758    0.1361 C   0  0  0  0  0  0  0  0  0  0  0  0
   -3.3000   -2.3359    0.8927 H   0  0  0  0  0  0  0  0  0  0  0  0
   -3.2356   -2.7927   -0.8265 H   0  0  0  0  0  0  0  0  0  0  0  0
   -1.3284   -2.2941    0.0335 C   0  0  0  0  0  0  0  0  0  0  0  0
   -0.3542   -3.0006    0.2411 O   0  0  0  0  0  0  0  0  0  0  0  0
   -1.1603   -0.9613   -0.2786 N   0  0  0  0  0  0  0  0  0  0  0  0
   -1.9974   -0.3797   -0.3216 H   0  0  0  0  0  0  0  0  0  0  0  0
    0.1285   -0.2554   -0.2498 C   0  0  1  0  0  0  0  0  0  0  0  0
    0.8505   -0.8054    0.3636 H   0  0  0  0  0  0  0  0  0  0  0  0
    0.6757   -0.2015   -1.6996 C   0  0  0  0  0  0  0  0  0  0  0  0
    1.2174   -1.1313   -1.8976 H   0  0  0  0  0  0  0  0  0  0  0  0
   -0.1740   -0.1692   -2.3867 H   0  0  0  0  0  0  0  0  0  0  0  0
    1.5593    0.9891   -2.0822 C   0  0  0  0  0  0  0  0  0  0  0  0
    2.5737    0.7342   -2.7077 O   0  0  0  0  0  0  0  0  0  0  0  0
    1.1450    2.2520   -1.8369 O   0  0  0  0  0  0  0  0  0  0  0  0
    1.8074    2.8386   -2.2320 H   0  0  0  0  0  0  0  0  0  0  0  0
   -0.0871    1.1039    0.4560 C   0  0  0  0  0  0  0  0  0  0  0  0
   -1.1420    1.7113    0.3015 O   0  0  0  0  0  0  0  0  0  0  0  0
    0.8125    1.5474    1.4088 N   0  0  0  0  0  0  0  0  0  0  0  0
    1.6580    1.0032    1.5528 H   0  0  0  0  0  0  0  0  0  0  0  0
    0.6254    2.7757    2.1713 C   0  0  0  0  0  0  0  0  0  0  0  0
   -0.3045    2.7316    2.7479 H   0  0  0  0  0  0  0  0  0  0  0  0
    1.4568    2.9191    2.8681 H   0  0  0  0  0  0  0  0  0  0  0  0
    0.5830    3.6396    1.4996 H   0  0  0  0  0  0  0  0  0  0  0  0
  1  2  1  0  0  0  0
  2  3  1  0  0  0  0
  2  4  1  0  0  0  0
  2  5  1  0  0  0  0
  5  6  2  0  0  0  0
  5  7  1  0  0  0  0
  7  8  1  0  0  0  0
  7  9  1  0  0  0  0
  9 10  1  0  0  0  0
  9 11  1  0  0  0  0
  9 18  1  0  0  0  0
 11 12  1  0  0  0  0
 11 13  1  0  0  0  0
 11 14  1  0  0  0  0
 14 15  2  0  0  0  0
 14 16  1  0  0  0  0
 16 17  1  0  0  0  0
 18 19  2  0  0  0  0
 18 20  1  0  0  0  0
 20 21  1  0  0  0  0
 20 22  1  0  0  0  0
 22 23  1  0  0  0  0
 22 24  1  0  0  0  0
 22 25  1  0  0  0  0
M  END
$$$$

  -OEChem-02102214113D

 25 24  0     1  0  0  0  0  0999 V2000
   -2.6734   -3.9304    0.3969 H   0  0  0  0  0  0  0  0  0  0  0  0
   -2.7215   -2.8728    0.1227 C   0  0  0  0  0  0  0  0  0  0  0  0
   -3.2985   -2.3384    0.8812 H   0  0  0  0  0  0  0  0  0  0  0  0
   -3.2268   -2.7807   -0.8417 H   0  0  0  0  0  0  0  0  0  0  0  0
   -1.3228   -2.2925    0.0306 C   0  0  0  0  0  0  0  0  0  0  0  0
   -0.3505   -3.0028    0.2345 O   0  0  0  0  0  0  0  0  0  0  0  0
   -1.1507   -0.9579   -0.2710 N   0  0  0  0  0  0  0  0  0  0  0  0
   -1.9852   -0.3719   -0.3059 H   0  0  0  0  0  0  0  0  0  0  0  0
    0.1416   -0.2582   -0.2334 C   0  0  1  0  0  0  0  0  0  0  0  0
    0.8669   -0.8115    0.3731 H   0  0  0  0  0  0  0  0  0  0  0  0
    0.6725   -0.1941   -1.6917 C   0  0  0  0  0  0  0  0  0  0  0  0
    1.2003   -1.1300   -1.8981 H   0  0  0  0  0  0  0  0  0  0  0  0
   -0.1892   -0.1543   -2.3638 H   0  0  0  0  0  0  0  0  0  0  0  0
    1.5649    0.9779   -2.1178 C   0  0  0  0  0  0  0  0  0  0  0  0
    2.3787    0.7305   -2.9906 O   0  0  0  0  0  0  0  0  0  0  0  0
    1.4070    2.2139   -1.5950 O   0  0  0  0  0  0  0  0  0  0  0  0
    2.0308    2.7876   -2.0655 H   0  0  0  0  0  0  0  0  0  0  0  0
   -0.0955    1.0908    0.4861 C   0  0  0  0  0  0  0  0  0  0  0  0
   -1.1465    1.6999    0.3092 O   0  0  0  0  0  0  0  0  0  0  0  0
    0.7879    1.5346    1.4538 N   0  0  0  0  0  0  0  0  0  0  0  0
    1.6507    1.0141    1.5797 H   0  0  0  0  0  0  0  0  0  0  0  0
    0.6005    2.7777    2.1917 C   0  0  0  0  0  0  0  0  0  0  0  0
   -0.3460    2.7586    2.7422 H   0  0  0  0  0  0  0  0  0  0  0  0
    1.4138    2.9179    2.9101 H   0  0  0  0  0  0  0  0  0  0  0  0
    0.5922    3.6311    1.5056 H   0  0  0  0  0  0  0  0  0  0  0  0
  1  2  1  0  0  0  0
  2  3  1  0  0  0  0
  2  4  1  0  0  0  0
  2  5  1  0  0  0  0
  5  6  2  0  0  0  0
  5  7  1  0  0  0  0
  7  8  1  0  0  0  0
  7  9  1  0  0  0  0
  9 10  1  0  0  0  0
  9 11  1  0  0  0  0
  9 18  1  0  0  0  0
 11 12  1  0  0  0  0
 11 13  1  0  0  0  0
 11 14  1  0  0  0  0
 14 15  2  0  0  0  0
 14 16  1  0  0  0  0
 16 17  1  0  0  0  0
 18 19  2  0  0  0  0
 18 20  1  0  0  0  0
 20 21  1  0  0  0  0
 20 22  1  0  0  0  0
 22 23  1  0  0  0  0
 22 24  1  0  0  0  0
 22 25  1  0  0  0  0
M  END
$$$$

  -OEChem-02102214113D

 25 24  0     1  0  0  0  0  0999 V2000
   -2.6722   -3.9357    0.3885 H   0  0  0  0  0  0  0  0  0  0  0  0
   -2.7186   -2.8794    0.1090 C   0  0  0  0  0  0  0  0  0  0  0  0
   -3.3070   -2.3427    0.8571 H   0  0  0  0  0  0  0  0  0  0  0  0
   -3.2107   -2.7930   -0.8628 H   0  0  0  0  0  0  0  0  0  0  0  0
   -1.3198   -2.2969    0.0330 C   0  0  0  0  0  0  0  0  0  0  0  0
   -0.3486   -3.0077    0.2405 O   0  0  0  0  0  0  0  0  0  0  0  0
   -1.1447   -0.9614   -0.2634 N   0  0  0  0  0  0  0  0  0  0  0  0
   -1.9782   -0.3745   -0.3072 H   0  0  0  0  0  0  0  0  0  0  0  0
    0.1503   -0.2661   -0.2195 C   0  0  1  0  0  0  0  0  0  0  0  0
    0.8830   -0.8206    0.3764 H   0  0  0  0  0  0  0  0  0  0  0  0
    0.6540   -0.1830   -1.6876 C   0  0  0  0  0  0  0  0  0  0  0  0
    1.1752   -1.1178   -1.9139 H   0  0  0  0  0  0  0  0  0  0  0  0
   -0.2208   -0.1332   -2.3425 H   0  0  0  0  0  0  0  0  0  0  0  0
    1.5456    0.9837   -2.1296 C   0  0  0  0  0  0  0  0  0  0  0  0
    2.1188    0.8263   -3.1934 O   0  0  0  0  0  0  0  0  0  0  0  0
    1.7283    2.0778   -1.3577 O   0  0  0  0  0  0  0  0  0  0  0  0
    2.3152    2.6626   -1.8614 H   0  0  0  0  0  0  0  0  0  0  0  0
   -0.1026    1.0775    0.5072 C   0  0  0  0  0  0  0  0  0  0  0  0
   -1.1391    1.6997    0.2933 O   0  0  0  0  0  0  0  0  0  0  0  0
    0.7663    1.5251    1.4865 N   0  0  0  0  0  0  0  0  0  0  0  0
    1.6448    1.0269    1.5930 H   0  0  0  0  0  0  0  0  0  0  0  0
    0.5890    2.7907    2.1879 C   0  0  0  0  0  0  0  0  0  0  0  0
   -0.3836    2.8189    2.6905 H   0  0  0  0  0  0  0  0  0  0  0  0
    1.3698    2.9171    2.9441 H   0  0  0  0  0  0  0  0  0  0  0  0
    0.6469    3.6281    1.4846 H   0  0  0  0  0  0  0  0  0  0  0  0
  1  2  1  0  0  0  0
  2  3  1  0  0  0  0
  2  4  1  0  0  0  0
  2  5  1  0  0  0  0
  5  6  2  0  0  0  0
  5  7  1  0  0  0  0
  7  8  1  0  0  0  0
  7  9  1  0  0  0  0
  9 10  1  0  0  0  0
  9 11  1  0  0  0  0
  9 18  1  0  0  0  0
 11 12  1  0  0  0  0
 11 13  1  0  0  0  0
 11 14  1  0  0  0  0
 14 15  2  0  0  0  0
 14 16  1  0  0  0  0
 16 17  1  0  0  0  0
 18 19  2  0  0  0  0
 18 20  1  0  0  0  0
 20 21  1  0  0  0  0
 20 22  1  0  0  0  0
 22 23  1  0  0  0  0
 22 24  1  0  0  0  0
 22 25  1  0  0  0  0
M  END
$$$$

  -OEChem-02102214113D

 25 24  0     1  0  0  0  0  0999 V2000
   -2.7039   -3.9380    0.3910 H   0  0  0  0  0  0  0  0  0  0  0  0
   -2.7340   -2.8845    0.0991 C   0  0  0  0  0  0  0  0  0  0  0  0
   -3.3363   -2.3346    0.8263 H   0  0  0  0  0  0  0  0  0  0  0  0
   -3.2010   -2.8051   -0.8856 H   0  0  0  0  0  0  0  0  0  0  0  0
   -1.3286   -2.3147    0.0527 C   0  0  0  0  0  0  0  0  0  0  0  0
   -0.3701   -3.0280    0.3047 O   0  0  0  0  0  0  0  0  0  0  0  0
   -1.1353   -0.9875   -0.2681 N   0  0  0  0  0  0  0  0  0  0  0  0
   -1.9633   -0.3991   -0.3600 H   0  0  0  0  0  0  0  0  0  0  0  0
    0.1621   -0.2997   -0.2108 C   0  0  1  0  0  0  0  0  0  0  0  0
    0.8947   -0.8560    0.3842 H   0  0  0  0  0  0  0  0  0  0  0  0
    0.6502   -0.1850   -1.6732 C   0  0  0  0  0  0  0  0  0  0  0  0
    0.9515   -1.1791   -2.0153 H   0  0  0  0  0  0  0  0  0  0  0  0
   -0.1892    0.1418   -2.2942 H   0  0  0  0  0  0  0  0  0  0  0  0
    1.8004    0.7841   -1.9474 C   0  0  0  0  0  0  0  0  0  0  0  0
    2.1718    0.8655   -3.1048 O   0  0  0  0  0  0  0  0  0  0  0  0
    2.4535    1.3803   -0.9218 O   0  0  0  0  0  0  0  0  0  0  0  0
    3.1636    1.8975   -1.3343 H   0  0  0  0  0  0  0  0  0  0  0  0
   -0.0841    1.0647    0.4798 C   0  0  0  0  0  0  0  0  0  0  0  0
   -1.0874    1.7119    0.1972 O   0  0  0  0  0  0  0  0  0  0  0  0
    0.7661    1.5325    1.4650 N   0  0  0  0  0  0  0  0  0  0  0  0
    1.6573    1.0533    1.5610 H   0  0  0  0  0  0  0  0  0  0  0  0
    0.6025    2.8326    2.1037 C   0  0  0  0  0  0  0  0  0  0  0  0
   -0.3869    2.9116    2.5664 H   0  0  0  0  0  0  0  0  0  0  0  0
    1.3573    2.9679    2.8844 H   0  0  0  0  0  0  0  0  0  0  0  0
    0.7127    3.6366    1.3687 H   0  0  0  0  0  0  0  0  0  0  0  0
  1  2  1  0  0  0  0
  2  3  1  0  0  0  0
  2  4  1  0  0  0  0
  2  5  1  0  0  0  0
  5  6  2  0  0  0  0
  5  7  1  0  0  0  0
  7  8  1  0  0  0  0
  7  9  1  0  0  0  0
  9 10  1  0  0  0  0
  9 11  1  0  0  0  0
  9 18  1  0  0  0  0
 11 12  1  0  0  0  0
 11 13  1  0  0  0  0
 11 14  1  0  0  0  0
 14 15  2  0  0  0  0
 14 16  1  0  0  0  0
 16 17  1  0  0  0  0
 18 19  2  0  0  0  0
 18 20  1  0  0  0  0
 20 21  1  0  0  0  0
 20 22  1  0  0  0  0
 22 23  1  0  0  0  0
 22 24  1  0  0  0  0
 22 25  1  0  0  0  0
M  END
$$$$

  -OEChem-02102214113D

 25 24  0     1  0  0  0  0  0999 V2000
   -2.7095   -3.9482    0.3958 H   0  0  0  0  0  0  0  0  0  0  0  0
   -2.7402   -2.8968    0.0963 C   0  0  0  0  0  0  0  0  0  0  0  0
   -3.3511   -2.3436    0.8136 H   0  0  0  0  0  0  0  0  0  0  0  0
   -3.1977   -2.8252   -0.8935 H   0  0  0  0  0  0  0  0  0  0  0  0
   -1.3369   -2.3222    0.0591 C   0  0  0  0  0  0  0  0  0  0  0  0
   -0.3775   -3.0317    0.3182 O   0  0  0  0  0  0  0  0  0  0  0  0
   -1.1476   -0.9962   -0.2685 N   0  0  0  0  0  0  0  0  0  0  0  0
   -1.9778   -0.4123   -0.3672 H   0  0  0  0  0  0  0  0  0  0  0  0
    0.1472   -0.3042   -0.2153 C   0  0  1  0  0  0  0  0  0  0  0  0
    0.8780   -0.8601    0.3827 H   0  0  0  0  0  0  0  0  0  0  0  0
    0.6472   -0.1891   -1.6709 C   0  0  0  0  0  0  0  0  0  0  0  0
    0.9657   -1.1779   -2.0119 H   0  0  0  0  0  0  0  0  0  0  0  0
   -0.1852    0.1327   -2.3042 H   0  0  0  0  0  0  0  0  0  0  0  0
    1.7941    0.7934   -1.8967 C   0  0  0  0  0  0  0  0  0  0  0  0
    2.0231    1.1213   -3.0473 O   0  0  0  0  0  0  0  0  0  0  0  0
    2.5940    1.1343   -0.8568 O   0  0  0  0  0  0  0  0  0  0  0  0
    3.2823    1.7024   -1.2385 H   0  0  0  0  0  0  0  0  0  0  0  0
   -0.0800    1.0672    0.4653 C   0  0  0  0  0  0  0  0  0  0  0  0
   -1.0764    1.7239    0.1826 O   0  0  0  0  0  0  0  0  0  0  0  0
    0.7828    1.5325    1.4400 N   0  0  0  0  0  0  0  0  0  0  0  0
    1.6659    1.0381    1.5391 H   0  0  0  0  0  0  0  0  0  0  0  0
    0.6408    2.8401    2.0685 C   0  0  0  0  0  0  0  0  0  0  0  0
   -0.3465    2.9383    2.5322 H   0  0  0  0  0  0  0  0  0  0  0  0
    1.3991    2.9700    2.8467 H   0  0  0  0  0  0  0  0  0  0  0  0
    0.7628    3.6367    1.3270 H   0  0  0  0  0  0  0  0  0  0  0  0
  1  2  1  0  0  0  0
  2  3  1  0  0  0  0
  2  4  1  0  0  0  0
  2  5  1  0  0  0  0
  5  6  2  0  0  0  0
  5  7  1  0  0  0  0
  7  8  1  0  0  0  0
  7  9  1  0  0  0  0
  9 10  1  0  0  0  0
  9 11  1  0  0  0  0
  9 18  1  0  0  0  0
 11 12  1  0  0  0  0
 11 13  1  0  0  0  0
 11 14  1  0  0  0  0
 14 15  2  0  0  0  0
 14 16  1  0  0  0  0
 16 17  1  0  0  0  0
 18 19  2  0  0  0  0
 18 20  1  0  0  0  0
 20 21  1  0  0  0  0
 20 22  1  0  0  0  0
 22 23  1  0  0  0  0
 22 24  1  0  0  0  0
 22 25  1  0  0  0  0
M  END
$$$$

  -OEChem-02102214113D

 25 24  0     1  0  0  0  0  0999 V2000
   -2.7164   -3.9526    0.4065 H   0  0  0  0  0  0  0  0  0  0  0  0
   -2.7484   -2.9022    0.1040 C   0  0  0  0  0  0  0  0  0  0  0  0
   -3.3577   -2.3472    0.8214 H   0  0  0  0  0  0  0  0  0  0  0  0
   -3.2086   -2.8336   -0.8846 H   0  0  0  0  0  0  0  0  0  0  0  0
   -1.3452   -2.3272    0.0621 C   0  0  0  0  0  0  0  0  0  0  0  0
   -0.3856   -3.0343    0.3271 O   0  0  0  0  0  0  0  0  0  0  0  0
   -1.1564   -1.0034   -0.2749 N   0  0  0  0  0  0  0  0  0  0  0  0
   -1.9870   -0.4228   -0.3884 H   0  0  0  0  0  0  0  0  0  0  0  0
    0.1367   -0.3084   -0.2284 C   0  0  1  0  0  0  0  0  0  0  0  0
    0.8640   -0.8627    0.3756 H   0  0  0  0  0  0  0  0  0  0  0  0
    0.6513   -0.2020   -1.6772 C   0  0  0  0  0  0  0  0  0  0  0  0
    0.9855   -1.1879   -2.0108 H   0  0  0  0  0  0  0  0  0  0  0  0
   -0.1722    0.1127   -2.3258 H   0  0  0  0  0  0  0  0  0  0  0  0
    1.7947    0.7914   -1.8592 C   0  0  0  0  0  0  0  0  0  0  0  0
    1.8936    1.3543   -2.9349 O   0  0  0  0  0  0  0  0  0  0  0  0
    2.7027    0.9269   -0.8611 O   0  0  0  0  0  0  0  0  0  0  0  0
    3.3644    1.5515   -1.1990 H   0  0  0  0  0  0  0  0  0  0  0  0
   -0.0709    1.0708    0.4395 C   0  0  0  0  0  0  0  0  0  0  0  0
   -1.0631    1.7348    0.1614 O   0  0  0  0  0  0  0  0  0  0  0  0
    0.8069    1.5319    1.4023 N   0  0  0  0  0  0  0  0  0  0  0  0
    1.6752    1.0145    1.5168 H   0  0  0  0  0  0  0  0  0  0  0  0
    0.6781    2.8368    2.0392 C   0  0  0  0  0  0  0  0  0  0  0  0
   -0.3013    2.9360    2.5191 H   0  0  0  0  0  0  0  0  0  0  0  0
    1.4491    2.9610    2.8057 H   0  0  0  0  0  0  0  0  0  0  0  0
    0.7901    3.6362    1.2994 H   0  0  0  0  0  0  0  0  0  0  0  0
  1  2  1  0  0  0  0
  2  3  1  0  0  0  0
  2  4  1  0  0  0  0
  2  5  1  0  0  0  0
  5  6  2  0  0  0  0
  5  7  1  0  0  0  0
  7  8  1  0  0  0  0
  7  9  1  0  0  0  0
  9 10  1  0  0  0  0
  9 11  1  0  0  0  0
  9 18  1  0  0  0  0
 11 12  1  0  0  0  0
 11 13  1  0  0  0  0
 11 14  1  0  0  0  0
 14 15  2  0  0  0  0
 14 16  1  0  0  0  0
 16 17  1  0  0  0  0
 18 19  2  0  0  0  0
 18 20  1  0  0  0  0
 20 21  1  0  0  0  0
 20 22  1  0  0  0  0
 22 23  1  0  0  0  0
 22 24  1  0  0  0  0
 22 25  1  0  0  0  0
M  END
$$$$

  -OEChem-02102214113D

 25 24  0     1  0  0  0  0  0999 V2000
   -2.7197   -3.9543    0.4171 H   0  0  0  0  0  0  0  0  0  0  0  0
   -2.7543   -2.9042    0.1141 C   0  0  0  0  0  0  0  0  0  0  0  0
   -3.3559   -2.3484    0.8373 H   0  0  0  0  0  0  0  0  0  0  0  0
   -3.2247   -2.8364   -0.8697 H   0  0  0  0  0  0  0  0  0  0  0  0
   -1.3514   -2.3301    0.0574 C   0  0  0  0  0  0  0  0  0  0  0  0
   -0.3904   -3.0359    0.3205 O   0  0  0  0  0  0  0  0  0  0  0  0
   -1.1652   -1.0075   -0.2859 N   0  0  0  0  0  0  0  0  0  0  0  0
   -1.9972   -0.4282   -0.3958 H   0  0  0  0  0  0  0  0  0  0  0  0
    0.1268   -0.3103   -0.2465 C   0  0  1  0  0  0  0  0  0  0  0  0
    0.8496   -0.8642    0.3634 H   0  0  0  0  0  0  0  0  0  0  0  0
    0.6574   -0.2162   -1.6889 C   0  0  0  0  0  0  0  0  0  0  0  0
    1.0044   -1.2014   -2.0115 H   0  0  0  0  0  0  0  0  0  0  0  0
   -0.1568    0.0890   -2.3534 H   0  0  0  0  0  0  0  0  0  0  0  0
    1.7976    0.7854   -1.8387 C   0  0  0  0  0  0  0  0  0  0  0  0
    1.7753    1.5545   -2.7829 O   0  0  0  0  0  0  0  0  0  0  0  0
    2.7997    0.7506   -0.9264 O   0  0  0  0  0  0  0  0  0  0  0  0
    3.4339    1.4266   -1.2143 H   0  0  0  0  0  0  0  0  0  0  0  0
   -0.0625    1.0740    0.4131 C   0  0  0  0  0  0  0  0  0  0  0  0
   -1.0536    1.7434    0.1459 O   0  0  0  0  0  0  0  0  0  0  0  0
    0.8300    1.5295    1.3650 N   0  0  0  0  0  0  0  0  0  0  0  0
    1.6775    0.9850    1.5055 H   0  0  0  0  0  0  0  0  0  0  0  0
    0.7113    2.8298    2.0130 C   0  0  0  0  0  0  0  0  0  0  0  0
   -0.2537    2.9177    2.5234 H   0  0  0  0  0  0  0  0  0  0  0  0
    1.5053    2.9566    2.7552 H   0  0  0  0  0  0  0  0  0  0  0  0
    0.7937    3.6341    1.2745 H   0  0  0  0  0  0  0  0  0  0  0  0
  1  2  1  0  0  0  0
  2  3  1  0  0  0  0
  2  4  1  0  0  0  0
  2  5  1  0  0  0  0
  5  6  2  0  0  0  0
  5  7  1  0  0  0  0
  7  8  1  0  0  0  0
  7  9  1  0  0  0  0
  9 10  1  0  0  0  0
  9 11  1  0  0  0  0
  9 18  1  0  0  0  0
 11 12  1  0  0  0  0
 11 13  1  0  0  0  0
 11 14  1  0  0  0  0
 14 15  2  0  0  0  0
 14 16  1  0  0  0  0
 16 17  1  0  0  0  0
 18 19  2  0  0  0  0
 18 20  1  0  0  0  0
 20 21  1  0  0  0  0
 20 22  1  0  0  0  0
 22 23  1  0  0  0  0
 22 24  1  0  0  0  0
 22 25  1  0  0  0  0
M  END
$$$$

  -OEChem-02102214113D

 25 24  0     1  0  0  0  0  0999 V2000
   -2.7206   -3.9543    0.4292 H   0  0  0  0  0  0  0  0  0  0  0  0
   -2.7565   -2.9056    0.1209 C   0  0  0  0  0  0  0  0  0  0  0  0
   -3.3532   -2.3454    0.8449 H   0  0  0  0  0  0  0  0  0  0  0  0
   -3.2330   -2.8427   -0.8604 H   0  0  0  0  0  0  0  0  0  0  0  0
   -1.3538   -2.3319    0.0532 C   0  0  0  0  0  0  0  0  0  0  0  0
   -0.3913   -3.0365    0.3143 O   0  0  0  0  0  0  0  0  0  0  0  0
   -1.1697   -1.0100   -0.2938 N   0  0  0  0  0  0  0  0  0  0  0  0
   -2.0022   -0.4314   -0.4012 H   0  0  0  0  0  0  0  0  0  0  0  0
    0.1216   -0.3117   -0.2614 C   0  0  1  0  0  0  0  0  0  0  0  0
    0.8433   -0.8651    0.3499 H   0  0  0  0  0  0  0  0  0  0  0  0
    0.6576   -0.2254   -1.7012 C   0  0  0  0  0  0  0  0  0  0  0  0
    1.0099   -1.2100   -2.0195 H   0  0  0  0  0  0  0  0  0  0  0  0
   -0.1515    0.0762   -2.3738 H   0  0  0  0  0  0  0  0  0  0  0  0
    1.7946    0.7810   -1.8332 C   0  0  0  0  0  0  0  0  0  0  0  0
    1.6611    1.7237   -2.5928 O   0  0  0  0  0  0  0  0  0  0  0  0
    2.8931    0.5899   -1.0644 O   0  0  0  0  0  0  0  0  0  0  0  0
    3.5010    1.3099   -1.2962 H   0  0  0  0  0  0  0  0  0  0  0  0
   -0.0557    1.0753    0.3943 C   0  0  0  0  0  0  0  0  0  0  0  0
   -1.0487    1.7458    0.1391 O   0  0  0  0  0  0  0  0  0  0  0  0
    0.8481    1.5264    1.3377 N   0  0  0  0  0  0  0  0  0  0  0  0
    1.6752    0.9587    1.5043 H   0  0  0  0  0  0  0  0  0  0  0  0
    0.7374    2.8247    1.9914 C   0  0  0  0  0  0  0  0  0  0  0  0
   -0.2163    2.9056    2.5237 H   0  0  0  0  0  0  0  0  0  0  0  0
    1.5478    2.9549    2.7150 H   0  0  0  0  0  0  0  0  0  0  0  0
    0.7983    3.6312    1.2530 H   0  0  0  0  0  0  0  0  0  0  0  0
  1  2  1  0  0  0  0
  2  3  1  0  0  0  0
  2  4  1  0  0  0  0
  2  5  1  0  0  0  0
  5  6  2  0  0  0  0
  5  7  1  0  0  0  0
  7  8  1  0  0  0  0
  7  9  1  0  0  0  0
  9 10  1  0  0  0  0
  9 11  1  0  0  0  0
  9 18  1  0  0  0  0
 11 12  1  0  0  0  0
 11 13  1  0  0  0  0
 11 14  1  0  0  0  0
 14 15  2  0  0  0  0
 14 16  1  0  0  0  0
 16 17  1  0  0  0  0
 18 19  2  0  0  0  0
 18 20  1  0  0  0  0
 20 21  1  0  0  0  0
 20 22  1  0  0  0  0
 22 23  1  0  0  0  0
 22 24  1  0  0  0  0
 22 25  1  0  0  0  0
M  END
$$$$

  -OEChem-02102214113D

 25 24  0     1  0  0  0  0  0999 V2000
   -2.7194   -3.9488    0.4342 H   0  0  0  0  0  0  0  0  0  0  0  0
   -2.7564   -2.8998    0.1277 C   0  0  0  0  0  0  0  0  0  0  0  0
   -3.3485   -2.3406    0.8561 H   0  0  0  0  0  0  0  0  0  0  0  0
   -3.2391   -2.8352   -0.8504 H   0  0  0  0  0  0  0  0  0  0  0  0
   -1.3536   -2.3274    0.0517 C   0  0  0  0  0  0  0  0  0  0  0  0
   -0.3903   -3.0328    0.3077 O   0  0  0  0  0  0  0  0  0  0  0  0
   -1.1695   -1.0063   -0.2987 N   0  0  0  0  0  0  0  0  0  0  0  0
   -2.0021   -0.4260   -0.3979 H   0  0  0  0  0  0  0  0  0  0  0  0
    0.1225   -0.3084   -0.2720 C   0  0  1  0  0  0  0  0  0  0  0  0
    0.8438   -0.8602    0.3412 H   0  0  0  0  0  0  0  0  0  0  0  0
    0.6603   -0.2320   -1.7114 C   0  0  0  0  0  0  0  0  0  0  0  0
    1.0111   -1.2190   -2.0246 H   0  0  0  0  0  0  0  0  0  0  0  0
   -0.1470    0.0666   -2.3872 H   0  0  0  0  0  0  0  0  0  0  0  0
    1.7973    0.7729   -1.8483 C   0  0  0  0  0  0  0  0  0  0  0  0
    1.5783    1.8433   -2.3862 O   0  0  0  0  0  0  0  0  0  0  0  0
    2.9894    0.4422   -1.2993 O   0  0  0  0  0  0  0  0  0  0  0  0
    3.5818    1.1870   -1.4880 H   0  0  0  0  0  0  0  0  0  0  0  0
   -0.0523    1.0802    0.3812 C   0  0  0  0  0  0  0  0  0  0  0  0
   -1.0547    1.7433    0.1429 O   0  0  0  0  0  0  0  0  0  0  0  0
    0.8565    1.5307    1.3205 N   0  0  0  0  0  0  0  0  0  0  0  0
    1.6711    0.9515    1.5058 H   0  0  0  0  0  0  0  0  0  0  0  0
    0.7384    2.8199    1.9902 C   0  0  0  0  0  0  0  0  0  0  0  0
   -0.2037    2.8788    2.5454 H   0  0  0  0  0  0  0  0  0  0  0  0
    1.5634    2.9566    2.6957 H   0  0  0  0  0  0  0  0  0  0  0  0
    0.7686    3.6349    1.2593 H   0  0  0  0  0  0  0  0  0  0  0  0
  1  2  1  0  0  0  0
  2  3  1  0  0  0  0
  2  4  1  0  0  0  0
  2  5  1  0  0  0  0
  5  6  2  0  0  0  0
  5  7  1  0  0  0  0
  7  8  1  0  0  0  0
  7  9  1  0  0  0  0
  9 10  1  0  0  0  0
  9 11  1  0  0  0  0
  9 18  1  0  0  0  0
 11 12  1  0  0  0  0
 11 13  1  0  0  0  0
 11 14  1  0  0  0  0
 14 15  2  0  0  0  0
 14 16  1  0  0  0  0
 16 17  1  0  0  0  0
 18 19  2  0  0  0  0
 18 20  1  0  0  0  0
 20 21  1  0  0  0  0
 20 22  1  0  0  0  0
 22 23  1  0  0  0  0
 22 24  1  0  0  0  0
 22 25  1  0  0  0  0
M  END
$$$$

  -OEChem-02102214113D

 25 24  0     1  0  0  0  0  0999 V2000
   -2.7173   -3.9388    0.4386 H   0  0  0  0  0  0  0  0  0  0  0  0
   -2.7536   -2.8894    0.1333 C   0  0  0  0  0  0  0  0  0  0  0  0
   -3.3383   -2.3293    0.8671 H   0  0  0  0  0  0  0  0  0  0  0  0
   -3.2436   -2.8226   -0.8411 H   0  0  0  0  0  0  0  0  0  0  0  0
   -1.3497   -2.3211    0.0468 C   0  0  0  0  0  0  0  0  0  0  0  0
   -0.3864   -3.0300    0.2928 O   0  0  0  0  0  0  0  0  0  0  0  0
   -1.1641   -0.9995   -0.3012 N   0  0  0  0  0  0  0  0  0  0  0  0
   -1.9953   -0.4148   -0.3861 H   0  0  0  0  0  0  0  0  0  0  0  0
    0.1296   -0.3049   -0.2738 C   0  0  1  0  0  0  0  0  0  0  0  0
    0.8506   -0.8571    0.3393 H   0  0  0  0  0  0  0  0  0  0  0  0
    0.6648   -0.2332   -1.7156 C   0  0  0  0  0  0  0  0  0  0  0  0
    1.0044   -1.2245   -2.0283 H   0  0  0  0  0  0  0  0  0  0  0  0
   -0.1429    0.0690   -2.3889 H   0  0  0  0  0  0  0  0  0  0  0  0
    1.8066    0.7636   -1.8748 C   0  0  0  0  0  0  0  0  0  0  0  0
    1.5509    1.9197   -2.1606 O   0  0  0  0  0  0  0  0  0  0  0  0
    3.0585    0.3159   -1.6253 O   0  0  0  0  0  0  0  0  0  0  0  0
    3.6464    1.0715   -1.7805 H   0  0  0  0  0  0  0  0  0  0  0  0
   -0.0528    1.0811    0.3843 C   0  0  0  0  0  0  0  0  0  0  0  0
   -1.0681    1.7304    0.1612 O   0  0  0  0  0  0  0  0  0  0  0  0
    0.8508    1.5339    1.3279 N   0  0  0  0  0  0  0  0  0  0  0  0
    1.6706    0.9624    1.5116 H   0  0  0  0  0  0  0  0  0  0  0  0
    0.7189    2.8185    2.0042 C   0  0  0  0  0  0  0  0  0  0  0  0
   -0.2222    2.8634    2.5625 H   0  0  0  0  0  0  0  0  0  0  0  0
    1.5446    2.9628    2.7077 H   0  0  0  0  0  0  0  0  0  0  0  0
    0.7365    3.6371    1.2767 H   0  0  0  0  0  0  0  0  0  0  0  0
  1  2  1  0  0  0  0
  2  3  1  0  0  0  0
  2  4  1  0  0  0  0
  2  5  1  0  0  0  0
  5  6  2  0  0  0  0
  5  7  1  0  0  0  0
  7  8  1  0  0  0  0
  7  9  1  0  0  0  0
  9 10  1  0  0  0  0
  9 11  1  0  0  0  0
  9 18  1  0  0  0  0
 11 12  1  0  0  0  0
 11 13  1  0  0  0  0
 11 14  1  0  0  0  0
 14 15  2  0  0  0  0
 14 16  1  0  0  0  0
 16 17  1  0  0  0  0
 18 19  2  0  0  0  0
 18 20  1  0  0  0  0
 20 21  1  0  0  0  0
 20 22  1  0  0  0  0
 22 23  1  0  0  0  0
 22 24  1  0  0  0  0
 22 25  1  0  0  0  0
M  END
$$$$

  -OEChem-02102214113D

 25 24  0     1  0  0  0  0  0999 V2000
   -2.7129   -3.9343    0.4316 H   0  0  0  0  0  0  0  0  0  0  0  0
   -2.7482   -2.8847    0.1265 C   0  0  0  0  0  0  0  0  0  0  0  0
   -3.3369   -2.3250    0.8573 H   0  0  0  0  0  0  0  0  0  0  0  0
   -3.2330   -2.8174   -0.8503 H   0  0  0  0  0  0  0  0  0  0  0  0
   -1.3440   -2.3161    0.0469 C   0  0  0  0  0  0  0  0  0  0  0  0
   -0.3810   -3.0276    0.2873 O   0  0  0  0  0  0  0  0  0  0  0  0
   -1.1572   -0.9928   -0.2936 N   0  0  0  0  0  0  0  0  0  0  0  0
   -1.9877   -0.4056   -0.3703 H   0  0  0  0  0  0  0  0  0  0  0  0
    0.1374   -0.2996   -0.2617 C   0  0  1  0  0  0  0  0  0  0  0  0
    0.8579   -0.8532    0.3505 H   0  0  0  0  0  0  0  0  0  0  0  0
    0.6680   -0.2306   -1.7080 C   0  0  0  0  0  0  0  0  0  0  0  0
    0.9944   -1.2272   -2.0183 H   0  0  0  0  0  0  0  0  0  0  0  0
   -0.1443    0.0731   -2.3750 H   0  0  0  0  0  0  0  0  0  0  0  0
    1.8149    0.7557   -1.9070 C   0  0  0  0  0  0  0  0  0  0  0  0
    1.5834    1.9513   -1.9330 O   0  0  0  0  0  0  0  0  0  0  0  0
    3.0604    0.2375   -2.0057 O   0  0  0  0  0  0  0  0  0  0  0  0
    3.6540    0.9925   -2.1396 H   0  0  0  0  0  0  0  0  0  0  0  0
   -0.0587    1.0806    0.4064 C   0  0  0  0  0  0  0  0  0  0  0  0
   -1.0837    1.7184    0.1908 O   0  0  0  0  0  0  0  0  0  0  0  0
    0.8364    1.5347    1.3579 N   0  0  0  0  0  0  0  0  0  0  0  0
    1.6755    0.9855    1.5190 H   0  0  0  0  0  0  0  0  0  0  0  0
    0.6995    2.8233    2.0255 C   0  0  0  0  0  0  0  0  0  0  0  0
   -0.2583    2.8830    2.5532 H   0  0  0  0  0  0  0  0  0  0  0  0
    1.5037    2.9593    2.7550 H   0  0  0  0  0  0  0  0  0  0  0  0
    0.7511    3.6383    1.2956 H   0  0  0  0  0  0  0  0  0  0  0  0
  1  2  1  0  0  0  0
  2  3  1  0  0  0  0
  2  4  1  0  0  0  0
  2  5  1  0  0  0  0
  5  6  2  0  0  0  0
  5  7  1  0  0  0  0
  7  8  1  0  0  0  0
  7  9  1  0  0  0  0
  9 10  1  0  0  0  0
  9 11  1  0  0  0  0
  9 18  1  0  0  0  0
 11 12  1  0  0  0  0
 11 13  1  0  0  0  0
 11 14  1  0  0  0  0
 14 15  2  0  0  0  0
 14 16  1  0  0  0  0
 16 17  1  0  0  0  0
 18 19  2  0  0  0  0
 18 20  1  0  0  0  0
 20 21  1  0  0  0  0
 20 22  1  0  0  0  0
 22 23  1  0  0  0  0
 22 24  1  0  0  0  0
 22 25  1  0  0  0  0
M  END
$$$$

  -OEChem-02102214113D

 25 24  0     1  0  0  0  0  0999 V2000
   -2.7072   -3.9276    0.4189 H   0  0  0  0  0  0  0  0  0  0  0  0
   -2.7406   -2.8765    0.1185 C   0  0  0  0  0  0  0  0  0  0  0  0
   -3.3298   -2.3192    0.8507 H   0  0  0  0  0  0  0  0  0  0  0  0
   -3.2239   -2.8044   -0.8587 H   0  0  0  0  0  0  0  0  0  0  0  0
   -1.3357   -2.3089    0.0436 C   0  0  0  0  0  0  0  0  0  0  0  0
   -0.3738   -3.0230    0.2805 O   0  0  0  0  0  0  0  0  0  0  0  0
   -1.1468   -0.9836   -0.2875 N   0  0  0  0  0  0  0  0  0  0  0  0
   -1.9758   -0.3931   -0.3567 H   0  0  0  0  0  0  0  0  0  0  0  0
    0.1493   -0.2932   -0.2479 C   0  0  1  0  0  0  0  0  0  0  0  0
    0.8690   -0.8478    0.3642 H   0  0  0  0  0  0  0  0  0  0  0  0
    0.6761   -0.2268   -1.6990 C   0  0  0  0  0  0  0  0  0  0  0  0
    0.9882   -1.2298   -2.0039 H   0  0  0  0  0  0  0  0  0  0  0  0
   -0.1408    0.0765   -2.3601 H   0  0  0  0  0  0  0  0  0  0  0  0
    1.8293    0.7458   -1.9443 C   0  0  0  0  0  0  0  0  0  0  0  0
    1.6881    1.9351   -1.7228 O   0  0  0  0  0  0  0  0  0  0  0  0
    2.9872    0.2091   -2.3929 O   0  0  0  0  0  0  0  0  0  0  0  0
    3.5989    0.9518   -2.5124 H   0  0  0  0  0  0  0  0  0  0  0  0
   -0.0645    1.0798    0.4321 C   0  0  0  0  0  0  0  0  0  0  0  0
   -1.0973    1.7066    0.2182 O   0  0  0  0  0  0  0  0  0  0  0  0
    0.8179    1.5355    1.3949 N   0  0  0  0  0  0  0  0  0  0  0  0
    1.6786    1.0136    1.5289 H   0  0  0  0  0  0  0  0  0  0  0  0
    0.6714    2.8267    2.0554 C   0  0  0  0  0  0  0  0  0  0  0  0
   -0.2984    2.8932    2.5599 H   0  0  0  0  0  0  0  0  0  0  0  0
    1.4578    2.9598    2.8045 H   0  0  0  0  0  0  0  0  0  0  0  0
    0.7455    3.6392    1.3248 H   0  0  0  0  0  0  0  0  0  0  0  0
  1  2  1  0  0  0  0
  2  3  1  0  0  0  0
  2  4  1  0  0  0  0
  2  5  1  0  0  0  0
  5  6  2  0  0  0  0
  5  7  1  0  0  0  0
  7  8  1  0  0  0  0
  7  9  1  0  0  0  0
  9 10  1  0  0  0  0
  9 11  1  0  0  0  0
  9 18  1  0  0  0  0
 11 12  1  0  0  0  0
 11 13  1  0  0  0  0
 11 14  1  0  0  0  0
 14 15  2  0  0  0  0
 14 16  1  0  0  0  0
 16 17  1  0  0  0  0
 18 19  2  0  0  0  0
 18 20  1  0  0  0  0
 20 21  1  0  0  0  0
 20 22  1  0  0  0  0
 22 23  1  0  0  0  0
 22 24  1  0  0  0  0
 22 25  1  0  0  0  0
M  END
$$$$

  -OEChem-02102214113D

 25 24  0     1  0  0  0  0  0999 V2000
   -2.7047   -3.9196    0.4055 H   0  0  0  0  0  0  0  0  0  0  0  0
   -2.7344   -2.8671    0.1100 C   0  0  0  0  0  0  0  0  0  0  0  0
   -3.3225   -2.3112    0.8442 H   0  0  0  0  0  0  0  0  0  0  0  0
   -3.2160   -2.7885   -0.8677 H   0  0  0  0  0  0  0  0  0  0  0  0
   -1.3275   -2.3039    0.0398 C   0  0  0  0  0  0  0  0  0  0  0  0
   -0.3677   -3.0225    0.2720 O   0  0  0  0  0  0  0  0  0  0  0  0
   -1.1344   -0.9773   -0.2833 N   0  0  0  0  0  0  0  0  0  0  0  0
   -1.9617   -0.3840   -0.3492 H   0  0  0  0  0  0  0  0  0  0  0  0
    0.1638   -0.2907   -0.2337 C   0  0  1  0  0  0  0  0  0  0  0  0
    0.8833   -0.8465    0.3773 H   0  0  0  0  0  0  0  0  0  0  0  0
    0.6843   -0.2212   -1.6894 C   0  0  0  0  0  0  0  0  0  0  0  0
    0.9849   -1.2280   -1.9934 H   0  0  0  0  0  0  0  0  0  0  0  0
   -0.1381    0.0842   -2.3424 H   0  0  0  0  0  0  0  0  0  0  0  0
    1.8422    0.7379   -1.9731 C   0  0  0  0  0  0  0  0  0  0  0  0
    1.8428    1.8707   -1.5260 O   0  0  0  0  0  0  0  0  0  0  0  0
    2.8426    0.2477   -2.7408 O   0  0  0  0  0  0  0  0  0  0  0  0
    3.4807    0.9700   -2.8448 H   0  0  0  0  0  0  0  0  0  0  0  0
   -0.0670    1.0764    0.4552 C   0  0  0  0  0  0  0  0  0  0  0  0
   -1.1011    1.6985    0.2319 O   0  0  0  0  0  0  0  0  0  0  0  0
    0.8015    1.5328    1.4304 N   0  0  0  0  0  0  0  0  0  0  0  0
    1.6829    1.0399    1.5356 H   0  0  0  0  0  0  0  0  0  0  0  0
    0.6457    2.8274    2.0823 C   0  0  0  0  0  0  0  0  0  0  0  0
   -0.3341    2.8991    2.5663 H   0  0  0  0  0  0  0  0  0  0  0  0
    1.4165    2.9616    2.8472 H   0  0  0  0  0  0  0  0  0  0  0  0
    0.7373    3.6366    1.3500 H   0  0  0  0  0  0  0  0  0  0  0  0
  1  2  1  0  0  0  0
  2  3  1  0  0  0  0
  2  4  1  0  0  0  0
  2  5  1  0  0  0  0
  5  6  2  0  0  0  0
  5  7  1  0  0  0  0
  7  8  1  0  0  0  0
  7  9  1  0  0  0  0
  9 10  1  0  0  0  0
  9 11  1  0  0  0  0
  9 18  1  0  0  0  0
 11 12  1  0  0  0  0
 11 13  1  0  0  0  0
 11 14  1  0  0  0  0
 14 15  2  0  0  0  0
 14 16  1  0  0  0  0
 16 17  1  0  0  0  0
 18 19  2  0  0  0  0
 18 20  1  0  0  0  0
 20 21  1  0  0  0  0
 20 22  1  0  0  0  0
 22 23  1  0  0  0  0
 22 24  1  0  0  0  0
 22 25  1  0  0  0  0
M  END
$$$$

  -OEChem-02102214113D

 25 24  0     1  0  0  0  0  0999 V2000
   -2.7047   -3.9159    0.3971 H   0  0  0  0  0  0  0  0  0  0  0  0
   -2.7316   -2.8634    0.1017 C   0  0  0  0  0  0  0  0  0  0  0  0
   -3.3219   -2.3064    0.8333 H   0  0  0  0  0  0  0  0  0  0  0  0
   -3.2085   -2.7840   -0.8781 H   0  0  0  0  0  0  0  0  0  0  0  0
   -1.3238   -2.3025    0.0380 C   0  0  0  0  0  0  0  0  0  0  0  0
   -0.3657   -3.0241    0.2671 O   0  0  0  0  0  0  0  0  0  0  0  0
   -1.1272   -0.9752   -0.2796 N   0  0  0  0  0  0  0  0  0  0  0  0
   -1.9528   -0.3789   -0.3412 H   0  0  0  0  0  0  0  0  0  0  0  0
    0.1731   -0.2931   -0.2232 C   0  0  1  0  0  0  0  0  0  0  0  0
    0.8937   -0.8512    0.3846 H   0  0  0  0  0  0  0  0  0  0  0  0
    0.6864   -0.2144   -1.6820 C   0  0  0  0  0  0  0  0  0  0  0  0
    0.9799   -1.2217   -1.9915 H   0  0  0  0  0  0  0  0  0  0  0  0
   -0.1407    0.0966   -2.3262 H   0  0  0  0  0  0  0  0  0  0  0  0
    1.8473    0.7364   -1.9859 C   0  0  0  0  0  0  0  0  0  0  0  0
    2.0173    1.7579   -1.3449 O   0  0  0  0  0  0  0  0  0  0  0  0
    2.6513    0.3677   -3.0095 O   0  0  0  0  0  0  0  0  0  0  0  0
    3.3183    1.0661   -3.0934 H   0  0  0  0  0  0  0  0  0  0  0  0
   -0.0682    1.0698    0.4720 C   0  0  0  0  0  0  0  0  0  0  0  0
   -1.0972    1.6958    0.2344 O   0  0  0  0  0  0  0  0  0  0  0  0
    0.7907    1.5253    1.4557 N   0  0  0  0  0  0  0  0  0  0  0  0
    1.6856    1.0521    1.5379 H   0  0  0  0  0  0  0  0  0  0  0  0
    0.6359    2.8268    2.0935 C   0  0  0  0  0  0  0  0  0  0  0  0
   -0.3515    2.9122    2.5595 H   0  0  0  0  0  0  0  0  0  0  0  0
    1.3946    2.9592    2.8707 H   0  0  0  0  0  0  0  0  0  0  0  0
    0.7486    3.6285    1.3561 H   0  0  0  0  0  0  0  0  0  0  0  0
  1  2  1  0  0  0  0
  2  3  1  0  0  0  0
  2  4  1  0  0  0  0
  2  5  1  0  0  0  0
  5  6  2  0  0  0  0
  5  7  1  0  0  0  0
  7  8  1  0  0  0  0
  7  9  1  0  0  0  0
  9 10  1  0  0  0  0
  9 11  1  0  0  0  0
  9 18  1  0  0  0  0
 11 12  1  0  0  0  0
 11 13  1  0  0  0  0
 11 14  1  0  0  0  0
 14 15  2  0  0  0  0
 14 16  1  0  0  0  0
 16 17  1  0  0  0  0
 18 19  2  0  0  0  0
 18 20  1  0  0  0  0
 20 21  1  0  0  0  0
 20 22  1  0  0  0  0
 22 23  1  0  0  0  0
 22 24  1  0  0  0  0
 22 25  1  0  0  0  0
M  END
$$$$

  -OEChem-02102214113D

 25 24  0     1  0  0  0  0  0999 V2000
   -2.7137   -3.9113    0.3993 H   0  0  0  0  0  0  0  0  0  0  0  0
   -2.7362   -2.8572    0.1093 C   0  0  0  0  0  0  0  0  0  0  0  0
   -3.3145   -2.3001    0.8504 H   0  0  0  0  0  0  0  0  0  0  0  0
   -3.2240   -2.7694   -0.8644 H   0  0  0  0  0  0  0  0  0  0  0  0
   -1.3249   -2.3060    0.0324 C   0  0  0  0  0  0  0  0  0  0  0  0
   -0.3697   -3.0341    0.2533 O   0  0  0  0  0  0  0  0  0  0  0  0
   -1.1227   -0.9790   -0.2834 N   0  0  0  0  0  0  0  0  0  0  0  0
   -1.9456   -0.3782   -0.3362 H   0  0  0  0  0  0  0  0  0  0  0  0
    0.1806   -0.3027   -0.2239 C   0  0  1  0  0  0  0  0  0  0  0  0
    0.9021   -0.8639    0.3799 H   0  0  0  0  0  0  0  0  0  0  0  0
    0.6871   -0.2091   -1.6841 C   0  0  0  0  0  0  0  0  0  0  0  0
    0.9771   -1.2126   -2.0079 H   0  0  0  0  0  0  0  0  0  0  0  0
   -0.1429    0.1127   -2.3196 H   0  0  0  0  0  0  0  0  0  0  0  0
    1.8505    0.7390   -1.9855 C   0  0  0  0  0  0  0  0  0  0  0  0
    2.1976    1.5949   -1.1906 O   0  0  0  0  0  0  0  0  0  0  0  0
    2.4495    0.5618   -3.1853 O   0  0  0  0  0  0  0  0  0  0  0  0
    3.1463    1.2335   -3.2404 H   0  0  0  0  0  0  0  0  0  0  0  0
   -0.0644    1.0593    0.4736 C   0  0  0  0  0  0  0  0  0  0  0  0
   -1.0875    1.6900    0.2228 O   0  0  0  0  0  0  0  0  0  0  0  0
    0.7876    1.5164    1.4625 N   0  0  0  0  0  0  0  0  0  0  0  0
    1.6936    1.0609    1.5246 H   0  0  0  0  0  0  0  0  0  0  0  0
    0.6291    2.8215    2.0919 C   0  0  0  0  0  0  0  0  0  0  0  0
   -0.3580    2.9065    2.5586 H   0  0  0  0  0  0  0  0  0  0  0  0
    1.3881    2.9619    2.8674 H   0  0  0  0  0  0  0  0  0  0  0  0
    0.7381    3.6190    1.3494 H   0  0  0  0  0  0  0  0  0  0  0  0
  1  2  1  0  0  0  0
  2  3  1  0  0  0  0
  2  4  1  0  0  0  0
  2  5  1  0  0  0  0
  5  6  2  0  0  0  0
  5  7  1  0  0  0  0
  7  8  1  0  0  0  0
  7  9  1  0  0  0  0
  9 10  1  0  0  0  0
  9 11  1  0  0  0  0
  9 18  1  0  0  0  0
 11 12  1  0  0  0  0
 11 13  1  0  0  0  0
 11 14  1  0  0  0  0
 14 15  2  0  0  0  0
 14 16  1  0  0  0  0
 16 17  1  0  0  0  0
 18 19  2  0  0  0  0
 18 20  1  0  0  0  0
 20 21  1  0  0  0  0
 20 22  1  0  0  0  0
 22 23  1  0  0  0  0
 22 24  1  0  0  0  0
 22 25  1  0  0  0  0
M  END
$$$$

  -OEChem-02102214113D

 25 24  0     1  0  0  0  0  0999 V2000
   -2.7178   -3.9175    0.4097 H   0  0  0  0  0  0  0  0  0  0  0  0
   -2.7405   -2.8650    0.1138 C   0  0  0  0  0  0  0  0  0  0  0  0
   -3.3203   -2.3041    0.8509 H   0  0  0  0  0  0  0  0  0  0  0  0
   -3.2269   -2.7836   -0.8611 H   0  0  0  0  0  0  0  0  0  0  0  0
   -1.3297   -2.3129    0.0363 C   0  0  0  0  0  0  0  0  0  0  0  0
   -0.3742   -3.0407    0.2562 O   0  0  0  0  0  0  0  0  0  0  0  0
   -1.1276   -0.9866   -0.2826 N   0  0  0  0  0  0  0  0  0  0  0  0
   -1.9504   -0.3866   -0.3405 H   0  0  0  0  0  0  0  0  0  0  0  0
    0.1760   -0.3105   -0.2266 C   0  0  1  0  0  0  0  0  0  0  0  0
    0.9009   -0.8726    0.3724 H   0  0  0  0  0  0  0  0  0  0  0  0
    0.6752   -0.2056   -1.6871 C   0  0  0  0  0  0  0  0  0  0  0  0
    0.9656   -1.2038   -2.0258 H   0  0  0  0  0  0  0  0  0  0  0  0
   -0.1574    0.1249   -2.3147 H   0  0  0  0  0  0  0  0  0  0  0  0
    1.8364    0.7483   -1.9726 C   0  0  0  0  0  0  0  0  0  0  0  0
    2.3508    1.4000   -1.0793 O   0  0  0  0  0  0  0  0  0  0  0  0
    2.2431    0.8099   -3.2613 O   0  0  0  0  0  0  0  0  0  0  0  0
    2.9692    1.4516   -3.2849 H   0  0  0  0  0  0  0  0  0  0  0  0
   -0.0614    1.0547    0.4679 C   0  0  0  0  0  0  0  0  0  0  0  0
   -1.0773    1.6933    0.2088 O   0  0  0  0  0  0  0  0  0  0  0  0
    0.7942    1.5133    1.4525 N   0  0  0  0  0  0  0  0  0  0  0  0
    1.7022    1.0593    1.5044 H   0  0  0  0  0  0  0  0  0  0  0  0
    0.6445    2.8220    2.0769 C   0  0  0  0  0  0  0  0  0  0  0  0
   -0.3434    2.9167    2.5399 H   0  0  0  0  0  0  0  0  0  0  0  0
    1.4021    2.9579    2.8547 H   0  0  0  0  0  0  0  0  0  0  0  0
    0.7629    3.6164    1.3326 H   0  0  0  0  0  0  0  0  0  0  0  0
  1  2  1  0  0  0  0
  2  3  1  0  0  0  0
  2  4  1  0  0  0  0
  2  5  1  0  0  0  0
  5  6  2  0  0  0  0
  5  7  1  0  0  0  0
  7  8  1  0  0  0  0
  7  9  1  0  0  0  0
  9 10  1  0  0  0  0
  9 11  1  0  0  0  0
  9 18  1  0  0  0  0
 11 12  1  0  0  0  0
 11 13  1  0  0  0  0
 11 14  1  0  0  0  0
 14 15  2  0  0  0  0
 14 16  1  0  0  0  0
 16 17  1  0  0  0  0
 18 19  2  0  0  0  0
 18 20  1  0  0  0  0
 20 21  1  0  0  0  0
 20 22  1  0  0  0  0
 22 23  1  0  0  0  0
 22 24  1  0  0  0  0
 22 25  1  0  0  0  0
M  END
$$$$

  -OEChem-02102214113D

 25 24  0     1  0  0  0  0  0999 V2000
   -2.7186   -3.9290    0.4262 H   0  0  0  0  0  0  0  0  0  0  0  0
   -2.7448   -2.8789    0.1218 C   0  0  0  0  0  0  0  0  0  0  0  0
   -3.3314   -2.3151    0.8512 H   0  0  0  0  0  0  0  0  0  0  0  0
   -3.2255   -2.8071   -0.8568 H   0  0  0  0  0  0  0  0  0  0  0  0
   -1.3360   -2.3214    0.0475 C   0  0  0  0  0  0  0  0  0  0  0  0
   -0.3790   -3.0448    0.2755 O   0  0  0  0  0  0  0  0  0  0  0  0
   -1.1384   -0.9965   -0.2798 N   0  0  0  0  0  0  0  0  0  0  0  0
   -1.9635   -0.4003   -0.3451 H   0  0  0  0  0  0  0  0  0  0  0  0
    0.1636   -0.3169   -0.2350 C   0  0  1  0  0  0  0  0  0  0  0  0
    0.8934   -0.8773    0.3600 H   0  0  0  0  0  0  0  0  0  0  0  0
    0.6585   -0.2047   -1.6946 C   0  0  0  0  0  0  0  0  0  0  0  0
    0.9558   -1.1966   -2.0446 H   0  0  0  0  0  0  0  0  0  0  0  0
   -0.1748    0.1293   -2.3197 H   0  0  0  0  0  0  0  0  0  0  0  0
    1.8149    0.7620   -1.9478 C   0  0  0  0  0  0  0  0  0  0  0  0
    2.4789    1.1853   -1.0151 O   0  0  0  0  0  0  0  0  0  0  0  0
    2.0492    1.0950   -3.2378 O   0  0  0  0  0  0  0  0  0  0  0  0
    2.7985    1.7097   -3.2264 H   0  0  0  0  0  0  0  0  0  0  0  0
   -0.0601    1.0533    0.4513 C   0  0  0  0  0  0  0  0  0  0  0  0
   -1.0691    1.7008    0.1894 O   0  0  0  0  0  0  0  0  0  0  0  0
    0.8077    1.5129    1.4241 N   0  0  0  0  0  0  0  0  0  0  0  0
    1.7128    1.0513    1.4717 H   0  0  0  0  0  0  0  0  0  0  0  0
    0.6687    2.8220    2.0497 C   0  0  0  0  0  0  0  0  0  0  0  0
   -0.3181    2.9241    2.5136 H   0  0  0  0  0  0  0  0  0  0  0  0
    1.4276    2.9512    2.8274 H   0  0  0  0  0  0  0  0  0  0  0  0
    0.7928    3.6163    1.3063 H   0  0  0  0  0  0  0  0  0  0  0  0
  1  2  1  0  0  0  0
  2  3  1  0  0  0  0
  2  4  1  0  0  0  0
  2  5  1  0  0  0  0
  5  6  2  0  0  0  0
  5  7  1  0  0  0  0
  7  8  1  0  0  0  0
  7  9  1  0  0  0  0
  9 10  1  0  0  0  0
  9 11  1  0  0  0  0
  9 18  1  0  0  0  0
 11 12  1  0  0  0  0
 11 13  1  0  0  0  0
 11 14  1  0  0  0  0
 14 15  2  0  0  0  0
 14 16  1  0  0  0  0
 16 17  1  0  0  0  0
 18 19  2  0  0  0  0
 18 20  1  0  0  0  0
 20 21  1  0  0  0  0
 20 22  1  0  0  0  0
 22 23  1  0  0  0  0
 22 24  1  0  0  0  0
 22 25  1  0  0  0  0
M  END
$$$$

  -OEChem-02102214113D

 25 24  0     1  0  0  0  0  0999 V2000
   -2.7127   -3.9474    0.4471 H   0  0  0  0  0  0  0  0  0  0  0  0
   -2.7482   -2.8990    0.1383 C   0  0  0  0  0  0  0  0  0  0  0  0
   -3.3294   -2.3353    0.8721 H   0  0  0  0  0  0  0  0  0  0  0  0
   -3.2408   -2.8343   -0.8348 H   0  0  0  0  0  0  0  0  0  0  0  0
   -1.3433   -2.3342    0.0453 C   0  0  0  0  0  0  0  0  0  0  0  0
   -0.3803   -3.0517    0.2663 O   0  0  0  0  0  0  0  0  0  0  0  0
   -1.1569   -1.0088   -0.2871 N   0  0  0  0  0  0  0  0  0  0  0  0
   -1.9870   -0.4200   -0.3529 H   0  0  0  0  0  0  0  0  0  0  0  0
    0.1399   -0.3192   -0.2510 C   0  0  1  0  0  0  0  0  0  0  0  0
    0.8712   -0.8775    0.3445 H   0  0  0  0  0  0  0  0  0  0  0  0
    0.6445   -0.2028   -1.7046 C   0  0  0  0  0  0  0  0  0  0  0  0
    0.9606   -1.1876   -2.0580 H   0  0  0  0  0  0  0  0  0  0  0  0
   -0.1836    0.1270   -2.3388 H   0  0  0  0  0  0  0  0  0  0  0  0
    1.7921    0.7838   -1.9073 C   0  0  0  0  0  0  0  0  0  0  0  0
    2.5819    0.9786   -0.9961 O   0  0  0  0  0  0  0  0  0  0  0  0
    1.8815    1.3883   -3.1140 O   0  0  0  0  0  0  0  0  0  0  0  0
    2.6518    1.9747   -3.0674 H   0  0  0  0  0  0  0  0  0  0  0  0
   -0.0664    1.0556    0.4287 C   0  0  0  0  0  0  0  0  0  0  0  0
   -1.0696    1.7122    0.1697 O   0  0  0  0  0  0  0  0  0  0  0  0
    0.8175    1.5130    1.3875 N   0  0  0  0  0  0  0  0  0  0  0  0
    1.7126    1.0318    1.4416 H   0  0  0  0  0  0  0  0  0  0  0  0
    0.6983    2.8247    2.0118 C   0  0  0  0  0  0  0  0  0  0  0  0
   -0.2776    2.9323    2.4970 H   0  0  0  0  0  0  0  0  0  0  0  0
    1.4749    2.9528    2.7719 H   0  0  0  0  0  0  0  0  0  0  0  0
    0.8093    3.6163    1.2635 H   0  0  0  0  0  0  0  0  0  0  0  0
  1  2  1  0  0  0  0
  2  3  1  0  0  0  0
  2  4  1  0  0  0  0
  2  5  1  0  0  0  0
  5  6  2  0  0  0  0
  5  7  1  0  0  0  0
  7  8  1  0  0  0  0
  7  9  1  0  0  0  0
  9 10  1  0  0  0  0
  9 11  1  0  0  0  0
  9 18  1  0  0  0  0
 11 12  1  0  0  0  0
 11 13  1  0  0  0  0
 11 14  1  0  0  0  0
 14 15  2  0  0  0  0
 14 16  1  0  0  0  0
 16 17  1  0  0  0  0
 18 19  2  0  0  0  0
 18 20  1  0  0  0  0
 20 21  1  0  0  0  0
 20 22  1  0  0  0  0
 22 23  1  0  0  0  0
 22 24  1  0  0  0  0
 22 25  1  0  0  0  0
M  END
$$$$

  -OEChem-02102214113D

 25 24  0     1  0  0  0  0  0999 V2000
   -2.7039   -3.9698    0.4509 H   0  0  0  0  0  0  0  0  0  0  0  0
   -2.7476   -2.9233    0.1367 C   0  0  0  0  0  0  0  0  0  0  0  0
   -3.3395   -2.3620    0.8637 H   0  0  0  0  0  0  0  0  0  0  0  0
   -3.2343   -2.8683   -0.8400 H   0  0  0  0  0  0  0  0  0  0  0  0
   -1.3481   -2.3441    0.0503 C   0  0  0  0  0  0  0  0  0  0  0  0
   -0.3792   -3.0509    0.2793 O   0  0  0  0  0  0  0  0  0  0  0  0
   -1.1741   -1.0179   -0.2863 N   0  0  0  0  0  0  0  0  0  0  0  0
   -2.0106   -0.4403   -0.3652 H   0  0  0  0  0  0  0  0  0  0  0  0
    0.1154   -0.3147   -0.2596 C   0  0  1  0  0  0  0  0  0  0  0  0
    0.8485   -0.8690    0.3375 H   0  0  0  0  0  0  0  0  0  0  0  0
    0.6299   -0.2032   -1.7079 C   0  0  0  0  0  0  0  0  0  0  0  0
    0.9691   -1.1828   -2.0548 H   0  0  0  0  0  0  0  0  0  0  0  0
   -0.1926    0.1139   -2.3560 H   0  0  0  0  0  0  0  0  0  0  0  0
    1.7640    0.8040   -1.8677 C   0  0  0  0  0  0  0  0  0  0  0  0
    2.6702    0.7964   -1.0489 O   0  0  0  0  0  0  0  0  0  0  0  0
    1.7139    1.6503   -2.9218 O   0  0  0  0  0  0  0  0  0  0  0  0
    2.5021    2.2107   -2.8594 H   0  0  0  0  0  0  0  0  0  0  0  0
   -0.0728    1.0641    0.4130 C   0  0  0  0  0  0  0  0  0  0  0  0
   -1.0695    1.7308    0.1584 O   0  0  0  0  0  0  0  0  0  0  0  0
    0.8298    1.5181    1.3559 N   0  0  0  0  0  0  0  0  0  0  0  0
    1.7062    1.0065    1.4327 H   0  0  0  0  0  0  0  0  0  0  0  0
    0.7339    2.8326    1.9781 C   0  0  0  0  0  0  0  0  0  0  0  0
   -0.2326    2.9506    2.4793 H   0  0  0  0  0  0  0  0  0  0  0  0
    1.5249    2.9561    2.7240 H   0  0  0  0  0  0  0  0  0  0  0  0
    0.8393    3.6209    1.2255 H   0  0  0  0  0  0  0  0  0  0  0  0
  1  2  1  0  0  0  0
  2  3  1  0  0  0  0
  2  4  1  0  0  0  0
  2  5  1  0  0  0  0
  5  6  2  0  0  0  0
  5  7  1  0  0  0  0
  7  8  1  0  0  0  0
  7  9  1  0  0  0  0
  9 10  1  0  0  0  0
  9 11  1  0  0  0  0
  9 18  1  0  0  0  0
 11 12  1  0  0  0  0
 11 13  1  0  0  0  0
 11 14  1  0  0  0  0
 14 15  2  0  0  0  0
 14 16  1  0  0  0  0
 16 17  1  0  0  0  0
 18 19  2  0  0  0  0
 18 20  1  0  0  0  0
 20 21  1  0  0  0  0
 20 22  1  0  0  0  0
 22 23  1  0  0  0  0
 22 24  1  0  0  0  0
 22 25  1  0  0  0  0
M  END
$$$$

  -OEChem-02102214113D

 25 24  0     1  0  0  0  0  0999 V2000
   -2.6945   -3.9783    0.4507 H   0  0  0  0  0  0  0  0  0  0  0  0
   -2.7443   -2.9323    0.1358 C   0  0  0  0  0  0  0  0  0  0  0  0
   -3.3428   -2.3748    0.8602 H   0  0  0  0  0  0  0  0  0  0  0  0
   -3.2275   -2.8815   -0.8429 H   0  0  0  0  0  0  0  0  0  0  0  0
   -1.3484   -2.3438    0.0547 C   0  0  0  0  0  0  0  0  0  0  0  0
   -0.3762   -3.0422    0.2944 O   0  0  0  0  0  0  0  0  0  0  0  0
   -1.1816   -1.0180   -0.2873 N   0  0  0  0  0  0  0  0  0  0  0  0
   -2.0215   -0.4474   -0.3780 H   0  0  0  0  0  0  0  0  0  0  0  0
    0.1036   -0.3072   -0.2682 C   0  0  1  0  0  0  0  0  0  0  0  0
    0.8373   -0.8577    0.3316 H   0  0  0  0  0  0  0  0  0  0  0  0
    0.6247   -0.2066   -1.7131 C   0  0  0  0  0  0  0  0  0  0  0  0
    0.9775   -1.1851   -2.0501 H   0  0  0  0  0  0  0  0  0  0  0  0
   -0.1923    0.0999   -2.3728 H   0  0  0  0  0  0  0  0  0  0  0  0
    1.7495    0.8119   -1.8500 C   0  0  0  0  0  0  0  0  0  0  0  0
    2.7642    0.6377   -1.1947 O   0  0  0  0  0  0  0  0  0  0  0  0
    1.5695    1.8542   -2.6930 O   0  0  0  0  0  0  0  0  0  0  0  0
    2.3761    2.3889   -2.6434 H   0  0  0  0  0  0  0  0  0  0  0  0
   -0.0739    1.0754    0.3969 C   0  0  0  0  0  0  0  0  0  0  0  0
   -1.0692    1.7458    0.1491 O   0  0  0  0  0  0  0  0  0  0  0  0
    0.8406    1.5280    1.3291 N   0  0  0  0  0  0  0  0  0  0  0  0
    1.6940    0.9860    1.4447 H   0  0  0  0  0  0  0  0  0  0  0  0
    0.7468    2.8345    1.9687 C   0  0  0  0  0  0  0  0  0  0  0  0
   -0.2121    2.9403    2.4871 H   0  0  0  0  0  0  0  0  0  0  0  0
    1.5493    2.9544    2.7030 H   0  0  0  0  0  0  0  0  0  0  0  0
    0.8349    3.6323    1.2238 H   0  0  0  0  0  0  0  0  0  0  0  0
  1  2  1  0  0  0  0
  2  3  1  0  0  0  0
  2  4  1  0  0  0  0
  2  5  1  0  0  0  0
  5  6  2  0  0  0  0
  5  7  1  0  0  0  0
  7  8  1  0  0  0  0
  7  9  1  0  0  0  0
  9 10  1  0  0  0  0
  9 11  1  0  0  0  0
  9 18  1  0  0  0  0
 11 12  1  0  0  0  0
 11 13  1  0  0  0  0
 11 14  1  0  0  0  0
 14 15  2  0  0  0  0
 14 16  1  0  0  0  0
 16 17  1  0  0  0  0
 18 19  2  0  0  0  0
 18 20  1  0  0  0  0
 20 21  1  0  0  0  0
 20 22  1  0  0  0  0
 22 23  1  0  0  0  0
 22 24  1  0  0  0  0
 22 25  1  0  0  0  0
M  END
$$$$

  -OEChem-02102214113D

 25 24  0     1  0  0  0  0  0999 V2000
   -2.6901   -3.9728    0.4532 H   0  0  0  0  0  0  0  0  0  0  0  0
   -2.7412   -2.9265    0.1395 C   0  0  0  0  0  0  0  0  0  0  0  0
   -3.3361   -2.3696    0.8674 H   0  0  0  0  0  0  0  0  0  0  0  0
   -3.2291   -2.8745   -0.8367 H   0  0  0  0  0  0  0  0  0  0  0  0
   -1.3455   -2.3383    0.0521 C   0  0  0  0  0  0  0  0  0  0  0  0
   -0.3727   -3.0351    0.2943 O   0  0  0  0  0  0  0  0  0  0  0  0
   -1.1799   -1.0130   -0.2920 N   0  0  0  0  0  0  0  0  0  0  0  0
   -2.0201   -0.4427   -0.3825 H   0  0  0  0  0  0  0  0  0  0  0  0
    0.1047   -0.3012   -0.2754 C   0  0  1  0  0  0  0  0  0  0  0  0
    0.8382   -0.8501    0.3262 H   0  0  0  0  0  0  0  0  0  0  0  0
    0.6285   -0.2084   -1.7191 C   0  0  0  0  0  0  0  0  0  0  0  0
    0.9827   -1.1888   -2.0497 H   0  0  0  0  0  0  0  0  0  0  0  0
   -0.1852    0.0948   -2.3841 H   0  0  0  0  0  0  0  0  0  0  0  0
    1.7517    0.8116   -1.8515 C   0  0  0  0  0  0  0  0  0  0  0  0
    2.8518    0.5093   -1.4215 O   0  0  0  0  0  0  0  0  0  0  0  0
    1.4756    1.9976   -2.4398 O   0  0  0  0  0  0  0  0  0  0  0  0
    2.3002    2.5065   -2.4316 H   0  0  0  0  0  0  0  0  0  0  0  0
   -0.0725    1.0823    0.3876 C   0  0  0  0  0  0  0  0  0  0  0  0
   -1.0737    1.7474    0.1501 O   0  0  0  0  0  0  0  0  0  0  0  0
    0.8436    1.5360    1.3180 N   0  0  0  0  0  0  0  0  0  0  0  0
    1.6766    0.9730    1.4717 H   0  0  0  0  0  0  0  0  0  0  0  0
    0.7362    2.8309    1.9786 C   0  0  0  0  0  0  0  0  0  0  0  0
   -0.2114    2.9071    2.5224 H   0  0  0  0  0  0  0  0  0  0  0  0
    1.5547    2.9600    2.6933 H   0  0  0  0  0  0  0  0  0  0  0  0
    0.7867    3.6407    1.2432 H   0  0  0  0  0  0  0  0  0  0  0  0
  1  2  1  0  0  0  0
  2  3  1  0  0  0  0
  2  4  1  0  0  0  0
  2  5  1  0  0  0  0
  5  6  2  0  0  0  0
  5  7  1  0  0  0  0
  7  8  1  0  0  0  0
  7  9  1  0  0  0  0
  9 10  1  0  0  0  0
  9 11  1  0  0  0  0
  9 18  1  0  0  0  0
 11 12  1  0  0  0  0
 11 13  1  0  0  0  0
 11 14  1  0  0  0  0
 14 15  2  0  0  0  0
 14 16  1  0  0  0  0
 16 17  1  0  0  0  0
 18 19  2  0  0  0  0
 18 20  1  0  0  0  0
 20 21  1  0  0  0  0
 20 22  1  0  0  0  0
 22 23  1  0  0  0  0
 22 24  1  0  0  0  0
 22 25  1  0  0  0  0
M  END
$$$$

  -OEChem-02102214113D

 25 24  0     1  0  0  0  0  0999 V2000
   -2.6915   -3.9557    0.4512 H   0  0  0  0  0  0  0  0  0  0  0  0
   -2.7382   -2.9071    0.1448 C   0  0  0  0  0  0  0  0  0  0  0  0
   -3.3249   -2.3512    0.8802 H   0  0  0  0  0  0  0  0  0  0  0  0
   -3.2322   -2.8456   -0.8278 H   0  0  0  0  0  0  0  0  0  0  0  0
   -1.3399   -2.3262    0.0520 C   0  0  0  0  0  0  0  0  0  0  0  0
   -0.3693   -3.0254    0.2961 O   0  0  0  0  0  0  0  0  0  0  0  0
   -1.1698   -1.0020   -0.2942 N   0  0  0  0  0  0  0  0  0  0  0  0
   -2.0080   -0.4284   -0.3829 H   0  0  0  0  0  0  0  0  0  0  0  0
    0.1166   -0.2938   -0.2773 C   0  0  1  0  0  0  0  0  0  0  0  0
    0.8477   -0.8424    0.3269 H   0  0  0  0  0  0  0  0  0  0  0  0
    0.6400   -0.2104   -1.7224 C   0  0  0  0  0  0  0  0  0  0  0  0
    0.9852   -1.1964   -2.0466 H   0  0  0  0  0  0  0  0  0  0  0  0
   -0.1734    0.0926   -2.3879 H   0  0  0  0  0  0  0  0  0  0  0  0
    1.7679    0.8027   -1.8739 C   0  0  0  0  0  0  0  0  0  0  0  0
    2.9117    0.4142   -1.7125 O   0  0  0  0  0  0  0  0  0  0  0  0
    1.4483    2.0750   -2.2030 O   0  0  0  0  0  0  0  0  0  0  0  0
    2.2847    2.5591   -2.2730 H   0  0  0  0  0  0  0  0  0  0  0  0
   -0.0668    1.0898    0.3848 C   0  0  0  0  0  0  0  0  0  0  0  0
   -1.0798    1.7423    0.1607 O   0  0  0  0  0  0  0  0  0  0  0  0
    0.8447    1.5468    1.3187 N   0  0  0  0  0  0  0  0  0  0  0  0
    1.6631    0.9725    1.5030 H   0  0  0  0  0  0  0  0  0  0  0  0
    0.7027    2.8189    2.0160 C   0  0  0  0  0  0  0  0  0  0  0  0
   -0.2309    2.8407    2.5881 H   0  0  0  0  0  0  0  0  0  0  0  0
    1.5358    2.9656    2.7100 H   0  0  0  0  0  0  0  0  0  0  0  0
    0.6974    3.6482    1.3007 H   0  0  0  0  0  0  0  0  0  0  0  0
  1  2  1  0  0  0  0
  2  3  1  0  0  0  0
  2  4  1  0  0  0  0
  2  5  1  0  0  0  0
  5  6  2  0  0  0  0
  5  7  1  0  0  0  0
  7  8  1  0  0  0  0
  7  9  1  0  0  0  0
  9 10  1  0  0  0  0
  9 11  1  0  0  0  0
  9 18  1  0  0  0  0
 11 12  1  0  0  0  0
 11 13  1  0  0  0  0
 11 14  1  0  0  0  0
 14 15  2  0  0  0  0
 14 16  1  0  0  0  0
 16 17  1  0  0  0  0
 18 19  2  0  0  0  0
 18 20  1  0  0  0  0
 20 21  1  0  0  0  0
 20 22  1  0  0  0  0
 22 23  1  0  0  0  0
 22 24  1  0  0  0  0
 22 25  1  0  0  0  0
M  END
$$$$

  -OEChem-02102214113D

 25 24  0     1  0  0  0  0  0999 V2000
   -2.6900   -3.9511    0.4266 H   0  0  0  0  0  0  0  0  0  0  0  0
   -2.7353   -2.8989    0.1321 C   0  0  0  0  0  0  0  0  0  0  0  0
   -3.3256   -2.3511    0.8707 H   0  0  0  0  0  0  0  0  0  0  0  0
   -3.2248   -2.8260   -0.8420 H   0  0  0  0  0  0  0  0  0  0  0  0
   -1.3365   -2.3173    0.0526 C   0  0  0  0  0  0  0  0  0  0  0  0
   -0.3672   -3.0181    0.2979 O   0  0  0  0  0  0  0  0  0  0  0  0
   -1.1634   -0.9919   -0.2874 N   0  0  0  0  0  0  0  0  0  0  0  0
   -2.0004   -0.4158   -0.3736 H   0  0  0  0  0  0  0  0  0  0  0  0
    0.1239   -0.2853   -0.2635 C   0  0  1  0  0  0  0  0  0  0  0  0
    0.8523   -0.8346    0.3434 H   0  0  0  0  0  0  0  0  0  0  0  0
    0.6495   -0.2108   -1.7100 C   0  0  0  0  0  0  0  0  0  0  0  0
    0.9832   -1.2039   -2.0255 H   0  0  0  0  0  0  0  0  0  0  0  0
   -0.1654    0.0917   -2.3736 H   0  0  0  0  0  0  0  0  0  0  0  0
    1.7831    0.7929   -1.8941 C   0  0  0  0  0  0  0  0  0  0  0  0
    2.9139    0.3566   -2.0176 O   0  0  0  0  0  0  0  0  0  0  0  0
    1.4786    2.1080   -1.9760 O   0  0  0  0  0  0  0  0  0  0  0  0
    2.3128    2.5731   -2.1405 H   0  0  0  0  0  0  0  0  0  0  0  0
   -0.0693    1.0940    0.4051 C   0  0  0  0  0  0  0  0  0  0  0  0
   -1.0916    1.7360    0.1913 O   0  0  0  0  0  0  0  0  0  0  0  0
    0.8352    1.5497    1.3468 N   0  0  0  0  0  0  0  0  0  0  0  0
    1.6534    0.9771    1.5348 H   0  0  0  0  0  0  0  0  0  0  0  0
    0.6817    2.8155    2.0533 C   0  0  0  0  0  0  0  0  0  0  0  0
   -0.2457    2.8197    2.6355 H   0  0  0  0  0  0  0  0  0  0  0  0
    1.5206    2.9706    2.7385 H   0  0  0  0  0  0  0  0  0  0  0  0
    0.6562    3.6490    1.3433 H   0  0  0  0  0  0  0  0  0  0  0  0
  1  2  1  0  0  0  0
  2  3  1  0  0  0  0
  2  4  1  0  0  0  0
  2  5  1  0  0  0  0
  5  6  2  0  0  0  0
  5  7  1  0  0  0  0
  7  8  1  0  0  0  0
  7  9  1  0  0  0  0
  9 10  1  0  0  0  0
  9 11  1  0  0  0  0
  9 18  1  0  0  0  0
 11 12  1  0  0  0  0
 11 13  1  0  0  0  0
 11 14  1  0  0  0  0
 14 15  2  0  0  0  0
 14 16  1  0  0  0  0
 16 17  1  0  0  0  0
 18 19  2  0  0  0  0
 18 20  1  0  0  0  0
 20 21  1  0  0  0  0
 20 22  1  0  0  0  0
 22 23  1  0  0  0  0
 22 24  1  0  0  0  0
 22 25  1  0  0  0  0
M  END
$$$$

  -OEChem-02102214113D

 25 24  0     1  0  0  0  0  0999 V2000
   -2.6901   -3.9416    0.4139 H   0  0  0  0  0  0  0  0  0  0  0  0
   -2.7325   -2.8878    0.1248 C   0  0  0  0  0  0  0  0  0  0  0  0
   -3.3215   -2.3425    0.8664 H   0  0  0  0  0  0  0  0  0  0  0  0
   -3.2216   -2.8088   -0.8489 H   0  0  0  0  0  0  0  0  0  0  0  0
   -1.3320   -2.3099    0.0481 C   0  0  0  0  0  0  0  0  0  0  0  0
   -0.3650   -3.0147    0.2910 O   0  0  0  0  0  0  0  0  0  0  0  0
   -1.1537   -0.9830   -0.2831 N   0  0  0  0  0  0  0  0  0  0  0  0
   -1.9881   -0.4020   -0.3628 H   0  0  0  0  0  0  0  0  0  0  0  0
    0.1366   -0.2816   -0.2484 C   0  0  1  0  0  0  0  0  0  0  0  0
    0.8615   -0.8333    0.3602 H   0  0  0  0  0  0  0  0  0  0  0  0
    0.6619   -0.2102   -1.6983 C   0  0  0  0  0  0  0  0  0  0  0  0
    0.9779   -1.2101   -2.0112 H   0  0  0  0  0  0  0  0  0  0  0  0
   -0.1569    0.0975   -2.3546 H   0  0  0  0  0  0  0  0  0  0  0  0
    1.8046    0.7784   -1.9243 C   0  0  0  0  0  0  0  0  0  0  0  0
    2.8591    0.3286   -2.3368 O   0  0  0  0  0  0  0  0  0  0  0  0
    1.5812    2.1006   -1.7512 O   0  0  0  0  0  0  0  0  0  0  0  0
    2.3980    2.5516   -2.0137 H   0  0  0  0  0  0  0  0  0  0  0  0
   -0.0719    1.0911    0.4306 C   0  0  0  0  0  0  0  0  0  0  0  0
   -1.0992    1.7257    0.2155 O   0  0  0  0  0  0  0  0  0  0  0  0
    0.8193    1.5460    1.3856 N   0  0  0  0  0  0  0  0  0  0  0  0
    1.6475    0.9863    1.5669 H   0  0  0  0  0  0  0  0  0  0  0  0
    0.6519    2.8094    2.0931 C   0  0  0  0  0  0  0  0  0  0  0  0
   -0.2855    2.8110    2.6593 H   0  0  0  0  0  0  0  0  0  0  0  0
    1.4782    2.9641    2.7934 H   0  0  0  0  0  0  0  0  0  0  0  0
    0.6373    3.6446    1.3848 H   0  0  0  0  0  0  0  0  0  0  0  0
  1  2  1  0  0  0  0
  2  3  1  0  0  0  0
  2  4  1  0  0  0  0
  2  5  1  0  0  0  0
  5  6  2  0  0  0  0
  5  7  1  0  0  0  0
  7  8  1  0  0  0  0
  7  9  1  0  0  0  0
  9 10  1  0  0  0  0
  9 11  1  0  0  0  0
  9 18  1  0  0  0  0
 11 12  1  0  0  0  0
 11 13  1  0  0  0  0
 11 14  1  0  0  0  0
 14 15  2  0  0  0  0
 14 16  1  0  0  0  0
 16 17  1  0  0  0  0
 18 19  2  0  0  0  0
 18 20  1  0  0  0  0
 20 21  1  0  0  0  0
 20 22  1  0  0  0  0
 22 23  1  0  0  0  0
 22 24  1  0  0  0  0
 22 25  1  0  0  0  0
M  END
$$$$

  -OEChem-02102214113D

 25 24  0     1  0  0  0  0  0999 V2000
   -2.6879   -3.9365    0.3989 H   0  0  0  0  0  0  0  0  0  0  0  0
   -2.7279   -2.8822    0.1110 C   0  0  0  0  0  0  0  0  0  0  0  0
   -3.3214   -2.3372    0.8491 H   0  0  0  0  0  0  0  0  0  0  0  0
   -3.2104   -2.8020   -0.8660 H   0  0  0  0  0  0  0  0  0  0  0  0
   -1.3266   -2.3047    0.0456 C   0  0  0  0  0  0  0  0  0  0  0  0
   -0.3614   -3.0121    0.2887 O   0  0  0  0  0  0  0  0  0  0  0  0
   -1.1448   -0.9761   -0.2763 N   0  0  0  0  0  0  0  0  0  0  0  0
   -1.9776   -0.3924   -0.3546 H   0  0  0  0  0  0  0  0  0  0  0  0
    0.1477   -0.2787   -0.2293 C   0  0  1  0  0  0  0  0  0  0  0  0
    0.8707   -0.8322    0.3796 H   0  0  0  0  0  0  0  0  0  0  0  0
    0.6687   -0.2102   -1.6838 C   0  0  0  0  0  0  0  0  0  0  0  0
    0.9707   -1.2163   -1.9910 H   0  0  0  0  0  0  0  0  0  0  0  0
   -0.1561    0.0980   -2.3322 H   0  0  0  0  0  0  0  0  0  0  0  0
    1.8182    0.7617   -1.9595 C   0  0  0  0  0  0  0  0  0  0  0  0
    2.7358    0.3417   -2.6422 O   0  0  0  0  0  0  0  0  0  0  0  0
    1.7487    2.0409   -1.5279 O   0  0  0  0  0  0  0  0  0  0  0  0
    2.5330    2.4876   -1.8816 H   0  0  0  0  0  0  0  0  0  0  0  0
   -0.0780    1.0872    0.4597 C   0  0  0  0  0  0  0  0  0  0  0  0
   -1.1040    1.7204    0.2322 O   0  0  0  0  0  0  0  0  0  0  0  0
    0.7987    1.5407    1.4291 N   0  0  0  0  0  0  0  0  0  0  0  0
    1.6433    1.0008    1.5914 H   0  0  0  0  0  0  0  0  0  0  0  0
    0.6276    2.8085    2.1279 C   0  0  0  0  0  0  0  0  0  0  0  0
   -0.3351    2.8321    2.6494 H   0  0  0  0  0  0  0  0  0  0  0  0
    1.4229    2.9440    2.8673 H   0  0  0  0  0  0  0  0  0  0  0  0
    0.6657    3.6431    1.4198 H   0  0  0  0  0  0  0  0  0  0  0  0
  1  2  1  0  0  0  0
  2  3  1  0  0  0  0
  2  4  1  0  0  0  0
  2  5  1  0  0  0  0
  5  6  2  0  0  0  0
  5  7  1  0  0  0  0
  7  8  1  0  0  0  0
  7  9  1  0  0  0  0
  9 10  1  0  0  0  0
  9 11  1  0  0  0  0
  9 18  1  0  0  0  0
 11 12  1  0  0  0  0
 11 13  1  0  0  0  0
 11 14  1  0  0  0  0
 14 15  2  0  0  0  0
 14 16  1  0  0  0  0
 16 17  1  0  0  0  0
 18 19  2  0  0  0  0
 18 20  1  0  0  0  0
 20 21  1  0  0  0  0
 20 22  1  0  0  0  0
 22 23  1  0  0  0  0
 22 24  1  0  0  0  0
 22 25  1  0  0  0  0
M  END
$$$$

  -OEChem-02102214113D

 25 24  0     1  0  0  0  0  0999 V2000
   -2.6925   -3.9379    0.3812 H   0  0  0  0  0  0  0  0  0  0  0  0
   -2.7260   -2.8834    0.0932 C   0  0  0  0  0  0  0  0  0  0  0  0
   -3.3311   -2.3382    0.8216 H   0  0  0  0  0  0  0  0  0  0  0  0
   -3.1922   -2.8018   -0.8916 H   0  0  0  0  0  0  0  0  0  0  0  0
   -1.3228   -2.3084    0.0494 C   0  0  0  0  0  0  0  0  0  0  0  0
   -0.3615   -3.0196    0.2967 O   0  0  0  0  0  0  0  0  0  0  0  0
   -1.1346   -0.9788   -0.2644 N   0  0  0  0  0  0  0  0  0  0  0  0
   -1.9647   -0.3917   -0.3458 H   0  0  0  0  0  0  0  0  0  0  0  0
    0.1605   -0.2866   -0.2093 C   0  0  1  0  0  0  0  0  0  0  0  0
    0.8887   -0.8429    0.3912 H   0  0  0  0  0  0  0  0  0  0  0  0
    0.6608   -0.2012   -1.6719 C   0  0  0  0  0  0  0  0  0  0  0  0
    0.9510   -1.2070   -1.9910 H   0  0  0  0  0  0  0  0  0  0  0  0
   -0.1758    0.1159   -2.3008 H   0  0  0  0  0  0  0  0  0  0  0  0
    1.8118    0.7598   -1.9837 C   0  0  0  0  0  0  0  0  0  0  0  0
    2.5412    0.4373   -2.9050 O   0  0  0  0  0  0  0  0  0  0  0  0
    1.9869    1.8973   -1.2747 O   0  0  0  0  0  0  0  0  0  0  0  0
    2.7392    2.3518   -1.6844 H   0  0  0  0  0  0  0  0  0  0  0  0
   -0.0850    1.0722    0.4895 C   0  0  0  0  0  0  0  0  0  0  0  0
   -1.1038    1.7083    0.2370 O   0  0  0  0  0  0  0  0  0  0  0  0
    0.7747    1.5299    1.4720 N   0  0  0  0  0  0  0  0  0  0  0  0
    1.6450    1.0229    1.6013 H   0  0  0  0  0  0  0  0  0  0  0  0
    0.6110    2.8190    2.1322 C   0  0  0  0  0  0  0  0  0  0  0  0
   -0.3712    2.8834    2.6122 H   0  0  0  0  0  0  0  0  0  0  0  0
    1.3781    2.9501    2.9014 H   0  0  0  0  0  0  0  0  0  0  0  0
    0.7028    3.6338    1.4063 H   0  0  0  0  0  0  0  0  0  0  0  0
  1  2  1  0  0  0  0
  2  3  1  0  0  0  0
  2  4  1  0  0  0  0
  2  5  1  0  0  0  0
  5  6  2  0  0  0  0
  5  7  1  0  0  0  0
  7  8  1  0  0  0  0
  7  9  1  0  0  0  0
  9 10  1  0  0  0  0
  9 11  1  0  0  0  0
  9 18  1  0  0  0  0
 11 12  1  0  0  0  0
 11 13  1  0  0  0  0
 11 14  1  0  0  0  0
 14 15  2  0  0  0  0
 14 16  1  0  0  0  0
 16 17  1  0  0  0  0
 18 19  2  0  0  0  0
 18 20  1  0  0  0  0
 20 21  1  0  0  0  0
 20 22  1  0  0  0  0
 22 23  1  0  0  0  0
 22 24  1  0  0  0  0
 22 25  1  0  0  0  0
M  END
$$$$

  -OEChem-02102214113D

 25 24  0     1  0  0  0  0  0999 V2000
   -2.6960   -3.9342    0.3794 H   0  0  0  0  0  0  0  0  0  0  0  0
   -2.7267   -2.8801    0.0903 C   0  0  0  0  0  0  0  0  0  0  0  0
   -3.3334   -2.3330    0.8159 H   0  0  0  0  0  0  0  0  0  0  0  0
   -3.1889   -2.7986   -0.8965 H   0  0  0  0  0  0  0  0  0  0  0  0
   -1.3222   -2.3079    0.0526 C   0  0  0  0  0  0  0  0  0  0  0  0
   -0.3632   -3.0211    0.3031 O   0  0  0  0  0  0  0  0  0  0  0  0
   -1.1297   -0.9792   -0.2626 N   0  0  0  0  0  0  0  0  0  0  0  0
   -1.9578   -0.3898   -0.3479 H   0  0  0  0  0  0  0  0  0  0  0  0
    0.1677   -0.2912   -0.2046 C   0  0  1  0  0  0  0  0  0  0  0  0
    0.8996   -0.8471    0.3913 H   0  0  0  0  0  0  0  0  0  0  0  0
    0.6536   -0.1938   -1.6707 C   0  0  0  0  0  0  0  0  0  0  0  0
    0.9426   -1.1964   -1.9998 H   0  0  0  0  0  0  0  0  0  0  0  0
   -0.1890    0.1283   -2.2896 H   0  0  0  0  0  0  0  0  0  0  0  0
    1.8044    0.7644   -1.9869 C   0  0  0  0  0  0  0  0  0  0  0  0
    2.3403    0.6110   -3.0702 O   0  0  0  0  0  0  0  0  0  0  0  0
    2.2451    1.6572   -1.0719 O   0  0  0  0  0  0  0  0  0  0  0  0
    2.9703    2.1354   -1.5039 H   0  0  0  0  0  0  0  0  0  0  0  0
   -0.0841    1.0685    0.4929 C   0  0  0  0  0  0  0  0  0  0  0  0
   -1.0963    1.7080    0.2229 O   0  0  0  0  0  0  0  0  0  0  0  0
    0.7658    1.5324    1.4806 N   0  0  0  0  0  0  0  0  0  0  0  0
    1.6541    1.0508    1.5846 H   0  0  0  0  0  0  0  0  0  0  0  0
    0.5929    2.8247    2.1321 C   0  0  0  0  0  0  0  0  0  0  0  0
   -0.3996    2.8943    2.5899 H   0  0  0  0  0  0  0  0  0  0  0  0
    1.3429    2.9552    2.9181 H   0  0  0  0  0  0  0  0  0  0  0  0
    0.7044    3.6366    1.4058 H   0  0  0  0  0  0  0  0  0  0  0  0
  1  2  1  0  0  0  0
  2  3  1  0  0  0  0
  2  4  1  0  0  0  0
  2  5  1  0  0  0  0
  5  6  2  0  0  0  0
  5  7  1  0  0  0  0
  7  8  1  0  0  0  0
  7  9  1  0  0  0  0
  9 10  1  0  0  0  0
  9 11  1  0  0  0  0
  9 18  1  0  0  0  0
 11 12  1  0  0  0  0
 11 13  1  0  0  0  0
 11 14  1  0  0  0  0
 14 15  2  0  0  0  0
 14 16  1  0  0  0  0
 16 17  1  0  0  0  0
 18 19  2  0  0  0  0
 18 20  1  0  0  0  0
 20 21  1  0  0  0  0
 20 22  1  0  0  0  0
 22 23  1  0  0  0  0
 22 24  1  0  0  0  0
 22 25  1  0  0  0  0
M  END
$$$$
