default_name
  -OEChem-02102213163D

 25 24  0     1  0  0  0  0  0999 V2000
   -2.7826   -3.8464    0.7821 H   0  0  0  0  0  0  0  0  0  0  0  0
   -2.8156   -2.8034    0.4711 C   0  0  0  0  0  0  0  0  0  0  0  0
   -3.4336   -2.2354    1.1641 H   0  0  0  0  0  0  0  0  0  0  0  0
   -3.2256   -2.7344   -0.5349 H   0  0  0  0  0  0  0  0  0  0  0  0
   -1.4126   -2.2444    0.4801 C   0  0  0  0  0  0  0  0  0  0  0  0
   -0.4686   -2.9534    0.8001 O   0  0  0  0  0  0  0  0  0  0  0  0
   -1.2736   -0.9704    0.1241 N   0  0  0  0  0  0  0  0  0  0  0  0
   -2.0996   -0.4354   -0.1019 H   0  0  0  0  0  0  0  0  0  0  0  0
   -0.0016   -0.2394    0.1271 C   0  0  1  0  0  0  0  0  0  0  0  0
    0.7164   -0.7963    0.7332 H   0  0  0  0  0  0  0  0  0  0  0  0
    0.5351   -0.1414   -1.3146 C   0  0  0  0  0  0  0  0  0  0  0  0
    0.7017   -1.1447   -1.7088 H   0  0  0  0  0  0  0  0  0  0  0  0
   -0.2039    0.3494   -1.9490 H   0  0  0  0  0  0  0  0  0  0  0  0
    1.8615    0.6052   -1.4190 C   0  0  0  0  0  0  0  0  0  0  0  0
    2.4835    0.8116   -2.4528 O   0  0  0  0  0  0  0  0  0  0  0  0
    2.3534    1.0488   -0.2472 O   0  0  0  0  0  0  0  0  0  0  0  0
    3.1659    1.5086   -0.4608 H   0  0  0  0  0  0  0  0  0  0  0  0
   -0.1923    1.1526    0.7617 C   0  0  0  0  0  0  0  0  0  0  0  0
   -1.1582    1.8438    0.4410 O   0  0  0  0  0  0  0  0  0  0  0  0
    0.7203    1.5683    1.6472 N   0  0  0  0  0  0  0  0  0  0  0  0
    1.5210    0.9664    1.8100 H   0  0  0  0  0  0  0  0  0  0  0  0
    0.6747    2.8558    2.3368 C   0  0  0  0  0  0  0  0  0  0  0  0
   -0.3018    2.9877    2.8079 H   0  0  0  0  0  0  0  0  0  0  0  0
    1.4516    2.8997    3.1011 H   0  0  0  0  0  0  0  0  0  0  0  0
    0.8279    3.6639    1.6193 H   0  0  0  0  0  0  0  0  0  0  0  0
  5  6  2  0  0  0  0
  5  7  1  0  0  0  0
  2  3  1  0  0  0  0
  2  4  1  0  0  0  0
  2  5  1  0  0  0  0
  1  2  1  0  0  0  0
 18 19  2  0  0  0  0
 18 20  1  0  0  0  0
 16 17  1  0  0  0  0
 14 15  2  0  0  0  0
 14 16  1  0  0  0  0
 11 12  1  0  0  0  0
 11 13  1  0  0  0  0
 11 14  1  0  0  0  0
  9 10  1  0  0  0  0
  9 11  1  0  0  0  0
  9 18  1  0  0  0  0
  7  8  1  0  0  0  0
  7  9  1  0  0  0  0
 22 23  1  0  0  0  0
 22 24  1  0  0  0  0
 22 25  1  0  0  0  0
 20 21  1  0  0  0  0
 20 22  1  0  0  0  0
M  END
$$$$
default_name
  -OEChem-02102213163D

 25 24  0     1  0  0  0  0  0999 V2000
   -2.7826   -3.8464    0.7821 H   0  0  0  0  0  0  0  0  0  0  0  0
   -2.8156   -2.8034    0.4711 C   0  0  0  0  0  0  0  0  0  0  0  0
   -3.4336   -2.2354    1.1641 H   0  0  0  0  0  0  0  0  0  0  0  0
   -3.2256   -2.7344   -0.5349 H   0  0  0  0  0  0  0  0  0  0  0  0
   -1.4126   -2.2444    0.4801 C   0  0  0  0  0  0  0  0  0  0  0  0
   -0.4686   -2.9534    0.8001 O   0  0  0  0  0  0  0  0  0  0  0  0
   -1.2736   -0.9704    0.1241 N   0  0  0  0  0  0  0  0  0  0  0  0
   -2.0996   -0.4354   -0.1019 H   0  0  0  0  0  0  0  0  0  0  0  0
   -0.0016   -0.2394    0.1271 C   0  0  1  0  0  0  0  0  0  0  0  0
    0.7164   -0.7963    0.7332 H   0  0  0  0  0  0  0  0  0  0  0  0
    0.5351   -0.1414   -1.3146 C   0  0  0  0  0  0  0  0  0  0  0  0
    0.7017   -1.1447   -1.7088 H   0  0  0  0  0  0  0  0  0  0  0  0
   -0.2039    0.3494   -1.9490 H   0  0  0  0  0  0  0  0  0  0  0  0
    1.8615    0.6052   -1.4190 C   0  0  0  0  0  0  0  0  0  0  0  0
    2.3561    1.0381   -2.4516 O   0  0  0  0  0  0  0  0  0  0  0  0
    2.5096    0.7707   -0.2509 O   0  0  0  0  0  0  0  0  0  0  0  0
    3.3036    1.2643   -0.4589 H   0  0  0  0  0  0  0  0  0  0  0  0
   -0.1923    1.1526    0.7617 C   0  0  0  0  0  0  0  0  0  0  0  0
   -1.1582    1.8438    0.4410 O   0  0  0  0  0  0  0  0  0  0  0  0
    0.7203    1.5683    1.6472 N   0  0  0  0  0  0  0  0  0  0  0  0
    1.5210    0.9664    1.8100 H   0  0  0  0  0  0  0  0  0  0  0  0
    0.6747    2.8558    2.3368 C   0  0  0  0  0  0  0  0  0  0  0  0
   -0.3018    2.9877    2.8079 H   0  0  0  0  0  0  0  0  0  0  0  0
    1.4516    2.8997    3.1011 H   0  0  0  0  0  0  0  0  0  0  0  0
    0.8279    3.6639    1.6193 H   0  0  0  0  0  0  0  0  0  0  0  0
  5  6  2  0  0  0  0
  5  7  1  0  0  0  0
  2  3  1  0  0  0  0
  2  4  1  0  0  0  0
  2  5  1  0  0  0  0
  1  2  1  0  0  0  0
 18 19  2  0  0  0  0
 18 20  1  0  0  0  0
 16 17  1  0  0  0  0
 14 15  2  0  0  0  0
 14 16  1  0  0  0  0
 11 12  1  0  0  0  0
 11 13  1  0  0  0  0
 11 14  1  0  0  0  0
  9 10  1  0  0  0  0
  9 11  1  0  0  0  0
  9 18  1  0  0  0  0
  7  8  1  0  0  0  0
  7  9  1  0  0  0  0
 22 23  1  0  0  0  0
 22 24  1  0  0  0  0
 22 25  1  0  0  0  0
 20 21  1  0  0  0  0
 20 22  1  0  0  0  0
M  END
$$$$
default_name
  -OEChem-02102213163D

 25 24  0     1  0  0  0  0  0999 V2000
   -2.7826   -3.8464    0.7821 H   0  0  0  0  0  0  0  0  0  0  0  0
   -2.8156   -2.8034    0.4711 C   0  0  0  0  0  0  0  0  0  0  0  0
   -3.4336   -2.2354    1.1641 H   0  0  0  0  0  0  0  0  0  0  0  0
   -3.2256   -2.7344   -0.5349 H   0  0  0  0  0  0  0  0  0  0  0  0
   -1.4126   -2.2444    0.4801 C   0  0  0  0  0  0  0  0  0  0  0  0
   -0.4686   -2.9534    0.8001 O   0  0  0  0  0  0  0  0  0  0  0  0
   -1.2736   -0.9704    0.1241 N   0  0  0  0  0  0  0  0  0  0  0  0
   -2.0996   -0.4354   -0.1019 H   0  0  0  0  0  0  0  0  0  0  0  0
   -0.0016   -0.2394    0.1271 C   0  0  1  0  0  0  0  0  0  0  0  0
    0.7164   -0.7963    0.7332 H   0  0  0  0  0  0  0  0  0  0  0  0
    0.5351   -0.1414   -1.3146 C   0  0  0  0  0  0  0  0  0  0  0  0
    0.7017   -1.1447   -1.7088 H   0  0  0  0  0  0  0  0  0  0  0  0
   -0.2039    0.3494   -1.9490 H   0  0  0  0  0  0  0  0  0  0  0  0
    1.8615    0.6052   -1.4190 C   0  0  0  0  0  0  0  0  0  0  0  0
    2.2373    1.2588   -2.3833 O   0  0  0  0  0  0  0  0  0  0  0  0
    2.6552    0.5001   -0.3369 O   0  0  0  0  0  0  0  0  0  0  0  0
    3.4324    1.0254   -0.5295 H   0  0  0  0  0  0  0  0  0  0  0  0
   -0.1923    1.1526    0.7617 C   0  0  0  0  0  0  0  0  0  0  0  0
   -1.1582    1.8438    0.4410 O   0  0  0  0  0  0  0  0  0  0  0  0
    0.7203    1.5683    1.6472 N   0  0  0  0  0  0  0  0  0  0  0  0
    1.5210    0.9664    1.8100 H   0  0  0  0  0  0  0  0  0  0  0  0
    0.6747    2.8558    2.3368 C   0  0  0  0  0  0  0  0  0  0  0  0
   -0.3018    2.9877    2.8079 H   0  0  0  0  0  0  0  0  0  0  0  0
    1.4516    2.8997    3.1011 H   0  0  0  0  0  0  0  0  0  0  0  0
    0.8279    3.6639    1.6193 H   0  0  0  0  0  0  0  0  0  0  0  0
  5  6  2  0  0  0  0
  5  7  1  0  0  0  0
  2  3  1  0  0  0  0
  2  4  1  0  0  0  0
  2  5  1  0  0  0  0
  1  2  1  0  0  0  0
 18 19  2  0  0  0  0
 18 20  1  0  0  0  0
 16 17  1  0  0  0  0
 14 15  2  0  0  0  0
 14 16  1  0  0  0  0
 11 12  1  0  0  0  0
 11 13  1  0  0  0  0
 11 14  1  0  0  0  0
  9 10  1  0  0  0  0
  9 11  1  0  0  0  0
  9 18  1  0  0  0  0
  7  8  1  0  0  0  0
  7  9  1  0  0  0  0
 22 23  1  0  0  0  0
 22 24  1  0  0  0  0
 22 25  1  0  0  0  0
 20 21  1  0  0  0  0
 20 22  1  0  0  0  0
M  END
$$$$
default_name
  -OEChem-02102213163D

 25 24  0     1  0  0  0  0  0999 V2000
   -2.7826   -3.8464    0.7821 H   0  0  0  0  0  0  0  0  0  0  0  0
   -2.8156   -2.8034    0.4711 C   0  0  0  0  0  0  0  0  0  0  0  0
   -3.4336   -2.2354    1.1641 H   0  0  0  0  0  0  0  0  0  0  0  0
   -3.2256   -2.7344   -0.5349 H   0  0  0  0  0  0  0  0  0  0  0  0
   -1.4126   -2.2444    0.4801 C   0  0  0  0  0  0  0  0  0  0  0  0
   -0.4686   -2.9534    0.8001 O   0  0  0  0  0  0  0  0  0  0  0  0
   -1.2736   -0.9704    0.1241 N   0  0  0  0  0  0  0  0  0  0  0  0
   -2.0996   -0.4354   -0.1019 H   0  0  0  0  0  0  0  0  0  0  0  0
   -0.0016   -0.2394    0.1271 C   0  0  1  0  0  0  0  0  0  0  0  0
    0.7164   -0.7963    0.7332 H   0  0  0  0  0  0  0  0  0  0  0  0
    0.5351   -0.1414   -1.3146 C   0  0  0  0  0  0  0  0  0  0  0  0
    0.7017   -1.1447   -1.7088 H   0  0  0  0  0  0  0  0  0  0  0  0
   -0.2039    0.3494   -1.9490 H   0  0  0  0  0  0  0  0  0  0  0  0
    1.8615    0.6052   -1.4190 C   0  0  0  0  0  0  0  0  0  0  0  0
    2.1350    1.4587   -2.2526 O   0  0  0  0  0  0  0  0  0  0  0  0
    2.7800    0.2555   -0.4992 O   0  0  0  0  0  0  0  0  0  0  0  0
    3.5438    0.8083   -0.6677 H   0  0  0  0  0  0  0  0  0  0  0  0
   -0.1923    1.1526    0.7617 C   0  0  0  0  0  0  0  0  0  0  0  0
   -1.1582    1.8438    0.4410 O   0  0  0  0  0  0  0  0  0  0  0  0
    0.7203    1.5683    1.6472 N   0  0  0  0  0  0  0  0  0  0  0  0
    1.5210    0.9664    1.8100 H   0  0  0  0  0  0  0  0  0  0  0  0
    0.6747    2.8558    2.3368 C   0  0  0  0  0  0  0  0  0  0  0  0
   -0.3018    2.9877    2.8079 H   0  0  0  0  0  0  0  0  0  0  0  0
    1.4516    2.8997    3.1011 H   0  0  0  0  0  0  0  0  0  0  0  0
    0.8279    3.6639    1.6193 H   0  0  0  0  0  0  0  0  0  0  0  0
  5  6  2  0  0  0  0
  5  7  1  0  0  0  0
  2  3  1  0  0  0  0
  2  4  1  0  0  0  0
  2  5  1  0  0  0  0
  1  2  1  0  0  0  0
 18 19  2  0  0  0  0
 18 20  1  0  0  0  0
 16 17  1  0  0  0  0
 14 15  2  0  0  0  0
 14 16  1  0  0  0  0
 11 12  1  0  0  0  0
 11 13  1  0  0  0  0
 11 14  1  0  0  0  0
  9 10  1  0  0  0  0
  9 11  1  0  0  0  0
  9 18  1  0  0  0  0
  7  8  1  0  0  0  0
  7  9  1  0  0  0  0
 22 23  1  0  0  0  0
 22 24  1  0  0  0  0
 22 25  1  0  0  0  0
 20 21  1  0  0  0  0
 20 22  1  0  0  0  0
M  END
$$$$
default_name
  -OEChem-02102213163D

 25 24  0     1  0  0  0  0  0999 V2000
   -2.7826   -3.8464    0.7821 H   0  0  0  0  0  0  0  0  0  0  0  0
   -2.8156   -2.8034    0.4711 C   0  0  0  0  0  0  0  0  0  0  0  0
   -3.4336   -2.2354    1.1641 H   0  0  0  0  0  0  0  0  0  0  0  0
   -3.2256   -2.7344   -0.5349 H   0  0  0  0  0  0  0  0  0  0  0  0
   -1.4126   -2.2444    0.4801 C   0  0  0  0  0  0  0  0  0  0  0  0
   -0.4686   -2.9534    0.8001 O   0  0  0  0  0  0  0  0  0  0  0  0
   -1.2736   -0.9704    0.1241 N   0  0  0  0  0  0  0  0  0  0  0  0
   -2.0996   -0.4354   -0.1019 H   0  0  0  0  0  0  0  0  0  0  0  0
   -0.0016   -0.2394    0.1271 C   0  0  1  0  0  0  0  0  0  0  0  0
    0.7164   -0.7963    0.7332 H   0  0  0  0  0  0  0  0  0  0  0  0
    0.5351   -0.1414   -1.3146 C   0  0  0  0  0  0  0  0  0  0  0  0
    0.7017   -1.1447   -1.7088 H   0  0  0  0  0  0  0  0  0  0  0  0
   -0.2039    0.3494   -1.9490 H   0  0  0  0  0  0  0  0  0  0  0  0
    1.8615    0.6052   -1.4190 C   0  0  0  0  0  0  0  0  0  0  0  0
    2.0564    1.6243   -2.0685 O   0  0  0  0  0  0  0  0  0  0  0  0
    2.8758    0.0536   -0.7269 O   0  0  0  0  0  0  0  0  0  0  0  0
    3.6300    0.6277   -0.8642 H   0  0  0  0  0  0  0  0  0  0  0  0
   -0.1923    1.1526    0.7617 C   0  0  0  0  0  0  0  0  0  0  0  0
   -1.1582    1.8438    0.4410 O   0  0  0  0  0  0  0  0  0  0  0  0
    0.7203    1.5683    1.6472 N   0  0  0  0  0  0  0  0  0  0  0  0
    1.5210    0.9664    1.8100 H   0  0  0  0  0  0  0  0  0  0  0  0
    0.6747    2.8558    2.3368 C   0  0  0  0  0  0  0  0  0  0  0  0
   -0.3018    2.9877    2.8079 H   0  0  0  0  0  0  0  0  0  0  0  0
    1.4516    2.8997    3.1011 H   0  0  0  0  0  0  0  0  0  0  0  0
    0.8279    3.6639    1.6193 H   0  0  0  0  0  0  0  0  0  0  0  0
  5  6  2  0  0  0  0
  5  7  1  0  0  0  0
  2  3  1  0  0  0  0
  2  4  1  0  0  0  0
  2  5  1  0  0  0  0
  1  2  1  0  0  0  0
 18 19  2  0  0  0  0
 18 20  1  0  0  0  0
 16 17  1  0  0  0  0
 14 15  2  0  0  0  0
 14 16  1  0  0  0  0
 11 12  1  0  0  0  0
 11 13  1  0  0  0  0
 11 14  1  0  0  0  0
  9 10  1  0  0  0  0
  9 11  1  0  0  0  0
  9 18  1  0  0  0  0
  7  8  1  0  0  0  0
  7  9  1  0  0  0  0
 22 23  1  0  0  0  0
 22 24  1  0  0  0  0
 22 25  1  0  0  0  0
 20 21  1  0  0  0  0
 20 22  1  0  0  0  0
M  END
$$$$
default_name
  -OEChem-02102213163D

 25 24  0     1  0  0  0  0  0999 V2000
   -2.7826   -3.8464    0.7821 H   0  0  0  0  0  0  0  0  0  0  0  0
   -2.8156   -2.8034    0.4711 C   0  0  0  0  0  0  0  0  0  0  0  0
   -3.4336   -2.2354    1.1641 H   0  0  0  0  0  0  0  0  0  0  0  0
   -3.2256   -2.7344   -0.5349 H   0  0  0  0  0  0  0  0  0  0  0  0
   -1.4126   -2.2444    0.4801 C   0  0  0  0  0  0  0  0  0  0  0  0
   -0.4686   -2.9534    0.8001 O   0  0  0  0  0  0  0  0  0  0  0  0
   -1.2736   -0.9704    0.1241 N   0  0  0  0  0  0  0  0  0  0  0  0
   -2.0996   -0.4354   -0.1019 H   0  0  0  0  0  0  0  0  0  0  0  0
   -0.0016   -0.2394    0.1271 C   0  0  1  0  0  0  0  0  0  0  0  0
    0.7164   -0.7963    0.7332 H   0  0  0  0  0  0  0  0  0  0  0  0
    0.5351   -0.1414   -1.3146 C   0  0  0  0  0  0  0  0  0  0  0  0
    0.7017   -1.1447   -1.7088 H   0  0  0  0  0  0  0  0  0  0  0  0
   -0.2039    0.3494   -1.9490 H   0  0  0  0  0  0  0  0  0  0  0  0
    1.8615    0.6052   -1.4190 C   0  0  0  0  0  0  0  0  0  0  0  0
    2.0066    1.7441   -1.8433 O   0  0  0  0  0  0  0  0  0  0  0  0
    2.9358   -0.0919   -1.0044 O   0  0  0  0  0  0  0  0  0  0  0  0
    3.6851    0.4960   -1.1055 H   0  0  0  0  0  0  0  0  0  0  0  0
   -0.1923    1.1526    0.7617 C   0  0  0  0  0  0  0  0  0  0  0  0
   -1.1582    1.8438    0.4410 O   0  0  0  0  0  0  0  0  0  0  0  0
    0.7203    1.5683    1.6472 N   0  0  0  0  0  0  0  0  0  0  0  0
    1.5210    0.9664    1.8100 H   0  0  0  0  0  0  0  0  0  0  0  0
    0.6747    2.8558    2.3368 C   0  0  0  0  0  0  0  0  0  0  0  0
   -0.3018    2.9877    2.8079 H   0  0  0  0  0  0  0  0  0  0  0  0
    1.4516    2.8997    3.1011 H   0  0  0  0  0  0  0  0  0  0  0  0
    0.8279    3.6639    1.6193 H   0  0  0  0  0  0  0  0  0  0  0  0
  5  6  2  0  0  0  0
  5  7  1  0  0  0  0
  2  3  1  0  0  0  0
  2  4  1  0  0  0  0
  2  5  1  0  0  0  0
  1  2  1  0  0  0  0
 18 19  2  0  0  0  0
 18 20  1  0  0  0  0
 16 17  1  0  0  0  0
 14 15  2  0  0  0  0
 14 16  1  0  0  0  0
 11 12  1  0  0  0  0
 11 13  1  0  0  0  0
 11 14  1  0  0  0  0
  9 10  1  0  0  0  0
  9 11  1  0  0  0  0
  9 18  1  0  0  0  0
  7  8  1  0  0  0  0
  7  9  1  0  0  0  0
 22 23  1  0  0  0  0
 22 24  1  0  0  0  0
 22 25  1  0  0  0  0
 20 21  1  0  0  0  0
 20 22  1  0  0  0  0
M  END
$$$$
default_name
  -OEChem-02102213163D

 25 24  0     1  0  0  0  0  0999 V2000
   -2.7826   -3.8464    0.7821 H   0  0  0  0  0  0  0  0  0  0  0  0
   -2.8156   -2.8034    0.4711 C   0  0  0  0  0  0  0  0  0  0  0  0
   -3.4336   -2.2354    1.1641 H   0  0  0  0  0  0  0  0  0  0  0  0
   -3.2256   -2.7344   -0.5349 H   0  0  0  0  0  0  0  0  0  0  0  0
   -1.4126   -2.2444    0.4801 C   0  0  0  0  0  0  0  0  0  0  0  0
   -0.4686   -2.9534    0.8001 O   0  0  0  0  0  0  0  0  0  0  0  0
   -1.2736   -0.9704    0.1241 N   0  0  0  0  0  0  0  0  0  0  0  0
   -2.0996   -0.4354   -0.1019 H   0  0  0  0  0  0  0  0  0  0  0  0
   -0.0016   -0.2394    0.1271 C   0  0  1  0  0  0  0  0  0  0  0  0
    0.7164   -0.7963    0.7332 H   0  0  0  0  0  0  0  0  0  0  0  0
    0.5351   -0.1414   -1.3146 C   0  0  0  0  0  0  0  0  0  0  0  0
    0.7017   -1.1447   -1.7088 H   0  0  0  0  0  0  0  0  0  0  0  0
   -0.2039    0.3494   -1.9490 H   0  0  0  0  0  0  0  0  0  0  0  0
    1.8615    0.6052   -1.4190 C   0  0  0  0  0  0  0  0  0  0  0  0
    1.9892    1.8101   -1.5927 O   0  0  0  0  0  0  0  0  0  0  0  0
    2.9561   -0.1710   -1.3127 O   0  0  0  0  0  0  0  0  0  0  0  0
    3.7055    0.4220   -1.3753 H   0  0  0  0  0  0  0  0  0  0  0  0
   -0.1923    1.1526    0.7617 C   0  0  0  0  0  0  0  0  0  0  0  0
   -1.1582    1.8438    0.4410 O   0  0  0  0  0  0  0  0  0  0  0  0
    0.7203    1.5683    1.6472 N   0  0  0  0  0  0  0  0  0  0  0  0
    1.5210    0.9664    1.8100 H   0  0  0  0  0  0  0  0  0  0  0  0
    0.6747    2.8558    2.3368 C   0  0  0  0  0  0  0  0  0  0  0  0
   -0.3018    2.9877    2.8079 H   0  0  0  0  0  0  0  0  0  0  0  0
    1.4516    2.8997    3.1011 H   0  0  0  0  0  0  0  0  0  0  0  0
    0.8279    3.6639    1.6193 H   0  0  0  0  0  0  0  0  0  0  0  0
  5  6  2  0  0  0  0
  5  7  1  0  0  0  0
  2  3  1  0  0  0  0
  2  4  1  0  0  0  0
  2  5  1  0  0  0  0
  1  2  1  0  0  0  0
 18 19  2  0  0  0  0
 18 20  1  0  0  0  0
 16 17  1  0  0  0  0
 14 15  2  0  0  0  0
 14 16  1  0  0  0  0
 11 12  1  0  0  0  0
 11 13  1  0  0  0  0
 11 14  1  0  0  0  0
  9 10  1  0  0  0  0
  9 11  1  0  0  0  0
  9 18  1  0  0  0  0
  7  8  1  0  0  0  0
  7  9  1  0  0  0  0
 22 23  1  0  0  0  0
 22 24  1  0  0  0  0
 22 25  1  0  0  0  0
 20 21  1  0  0  0  0
 20 22  1  0  0  0  0
M  END
$$$$
default_name
  -OEChem-02102213163D

 25 24  0     1  0  0  0  0  0999 V2000
   -2.7826   -3.8464    0.7821 H   0  0  0  0  0  0  0  0  0  0  0  0
   -2.8156   -2.8034    0.4711 C   0  0  0  0  0  0  0  0  0  0  0  0
   -3.4336   -2.2354    1.1641 H   0  0  0  0  0  0  0  0  0  0  0  0
   -3.2256   -2.7344   -0.5349 H   0  0  0  0  0  0  0  0  0  0  0  0
   -1.4126   -2.2444    0.4801 C   0  0  0  0  0  0  0  0  0  0  0  0
   -0.4686   -2.9534    0.8001 O   0  0  0  0  0  0  0  0  0  0  0  0
   -1.2736   -0.9704    0.1241 N   0  0  0  0  0  0  0  0  0  0  0  0
   -2.0996   -0.4354   -0.1019 H   0  0  0  0  0  0  0  0  0  0  0  0
   -0.0016   -0.2394    0.1271 C   0  0  1  0  0  0  0  0  0  0  0  0
    0.7164   -0.7963    0.7332 H   0  0  0  0  0  0  0  0  0  0  0  0
    0.5351   -0.1414   -1.3146 C   0  0  0  0  0  0  0  0  0  0  0  0
    0.7017   -1.1447   -1.7088 H   0  0  0  0  0  0  0  0  0  0  0  0
   -0.2039    0.3494   -1.9490 H   0  0  0  0  0  0  0  0  0  0  0  0
    1.8615    0.6052   -1.4190 C   0  0  0  0  0  0  0  0  0  0  0  0
    2.0053    1.8177   -1.3334 O   0  0  0  0  0  0  0  0  0  0  0  0
    2.9353   -0.1785   -1.6309 O   0  0  0  0  0  0  0  0  0  0  0  0
    3.6897    0.4109   -1.6550 H   0  0  0  0  0  0  0  0  0  0  0  0
   -0.1923    1.1526    0.7617 C   0  0  0  0  0  0  0  0  0  0  0  0
   -1.1582    1.8438    0.4410 O   0  0  0  0  0  0  0  0  0  0  0  0
    0.7203    1.5683    1.6472 N   0  0  0  0  0  0  0  0  0  0  0  0
    1.5210    0.9664    1.8100 H   0  0  0  0  0  0  0  0  0  0  0  0
    0.6747    2.8558    2.3368 C   0  0  0  0  0  0  0  0  0  0  0  0
   -0.3018    2.9877    2.8079 H   0  0  0  0  0  0  0  0  0  0  0  0
    1.4516    2.8997    3.1011 H   0  0  0  0  0  0  0  0  0  0  0  0
    0.8279    3.6639    1.6193 H   0  0  0  0  0  0  0  0  0  0  0  0
  5  6  2  0  0  0  0
  5  7  1  0  0  0  0
  2  3  1  0  0  0  0
  2  4  1  0  0  0  0
  2  5  1  0  0  0  0
  1  2  1  0  0  0  0
 18 19  2  0  0  0  0
 18 20  1  0  0  0  0
 16 17  1  0  0  0  0
 14 15  2  0  0  0  0
 14 16  1  0  0  0  0
 11 12  1  0  0  0  0
 11 13  1  0  0  0  0
 11 14  1  0  0  0  0
  9 10  1  0  0  0  0
  9 11  1  0  0  0  0
  9 18  1  0  0  0  0
  7  8  1  0  0  0  0
  7  9  1  0  0  0  0
 22 23  1  0  0  0  0
 22 24  1  0  0  0  0
 22 25  1  0  0  0  0
 20 21  1  0  0  0  0
 20 22  1  0  0  0  0
M  END
$$$$
default_name
  -OEChem-02102213163D

 25 24  0     1  0  0  0  0  0999 V2000
   -2.7826   -3.8464    0.7821 H   0  0  0  0  0  0  0  0  0  0  0  0
   -2.8156   -2.8034    0.4711 C   0  0  0  0  0  0  0  0  0  0  0  0
   -3.4336   -2.2354    1.1641 H   0  0  0  0  0  0  0  0  0  0  0  0
   -3.2256   -2.7344   -0.5349 H   0  0  0  0  0  0  0  0  0  0  0  0
   -1.4126   -2.2444    0.4801 C   0  0  0  0  0  0  0  0  0  0  0  0
   -0.4686   -2.9534    0.8001 O   0  0  0  0  0  0  0  0  0  0  0  0
   -1.2736   -0.9704    0.1241 N   0  0  0  0  0  0  0  0  0  0  0  0
   -2.0996   -0.4354   -0.1019 H   0  0  0  0  0  0  0  0  0  0  0  0
   -0.0016   -0.2394    0.1271 C   0  0  1  0  0  0  0  0  0  0  0  0
    0.7164   -0.7963    0.7332 H   0  0  0  0  0  0  0  0  0  0  0  0
    0.5351   -0.1414   -1.3146 C   0  0  0  0  0  0  0  0  0  0  0  0
    0.7017   -1.1447   -1.7088 H   0  0  0  0  0  0  0  0  0  0  0  0
   -0.2039    0.3494   -1.9490 H   0  0  0  0  0  0  0  0  0  0  0  0
    1.8615    0.6052   -1.4190 C   0  0  0  0  0  0  0  0  0  0  0  0
    2.0538    1.7665   -1.0834 O   0  0  0  0  0  0  0  0  0  0  0  0
    2.8747   -0.1137   -1.9374 O   0  0  0  0  0  0  0  0  0  0  0  0
    3.6388    0.4635   -1.9258 H   0  0  0  0  0  0  0  0  0  0  0  0
   -0.1923    1.1526    0.7617 C   0  0  0  0  0  0  0  0  0  0  0  0
   -1.1582    1.8438    0.4410 O   0  0  0  0  0  0  0  0  0  0  0  0
    0.7203    1.5683    1.6472 N   0  0  0  0  0  0  0  0  0  0  0  0
    1.5210    0.9664    1.8100 H   0  0  0  0  0  0  0  0  0  0  0  0
    0.6747    2.8558    2.3368 C   0  0  0  0  0  0  0  0  0  0  0  0
   -0.3018    2.9877    2.8079 H   0  0  0  0  0  0  0  0  0  0  0  0
    1.4516    2.8997    3.1011 H   0  0  0  0  0  0  0  0  0  0  0  0
    0.8279    3.6639    1.6193 H   0  0  0  0  0  0  0  0  0  0  0  0
  5  6  2  0  0  0  0
  5  7  1  0  0  0  0
  2  3  1  0  0  0  0
  2  4  1  0  0  0  0
  2  5  1  0  0  0  0
  1  2  1  0  0  0  0
 18 19  2  0  0  0  0
 18 20  1  0  0  0  0
 16 17  1  0  0  0  0
 14 15  2  0  0  0  0
 14 16  1  0  0  0  0
 11 12  1  0  0  0  0
 11 13  1  0  0  0  0
 11 14  1  0  0  0  0
  9 10  1  0  0  0  0
  9 11  1  0  0  0  0
  9 18  1  0  0  0  0
  7  8  1  0  0  0  0
  7  9  1  0  0  0  0
 22 23  1  0  0  0  0
 22 24  1  0  0  0  0
 22 25  1  0  0  0  0
 20 21  1  0  0  0  0
 20 22  1  0  0  0  0
M  END
$$$$
default_name
  -OEChem-02102213163D

 25 24  0     1  0  0  0  0  0999 V2000
   -2.7826   -3.8464    0.7821 H   0  0  0  0  0  0  0  0  0  0  0  0
   -2.8156   -2.8034    0.4711 C   0  0  0  0  0  0  0  0  0  0  0  0
   -3.4336   -2.2354    1.1641 H   0  0  0  0  0  0  0  0  0  0  0  0
   -3.2256   -2.7344   -0.5349 H   0  0  0  0  0  0  0  0  0  0  0  0
   -1.4126   -2.2444    0.4801 C   0  0  0  0  0  0  0  0  0  0  0  0
   -0.4686   -2.9534    0.8001 O   0  0  0  0  0  0  0  0  0  0  0  0
   -1.2736   -0.9704    0.1241 N   0  0  0  0  0  0  0  0  0  0  0  0
   -2.0996   -0.4354   -0.1019 H   0  0  0  0  0  0  0  0  0  0  0  0
   -0.0016   -0.2394    0.1271 C   0  0  1  0  0  0  0  0  0  0  0  0
    0.7164   -0.7963    0.7332 H   0  0  0  0  0  0  0  0  0  0  0  0
    0.5351   -0.1414   -1.3146 C   0  0  0  0  0  0  0  0  0  0  0  0
    0.7017   -1.1447   -1.7088 H   0  0  0  0  0  0  0  0  0  0  0  0
   -0.2039    0.3494   -1.9490 H   0  0  0  0  0  0  0  0  0  0  0  0
    1.8615    0.6052   -1.4190 C   0  0  0  0  0  0  0  0  0  0  0  0
    2.1315    1.6599   -0.8595 O   0  0  0  0  0  0  0  0  0  0  0  0
    2.7785    0.0189   -2.2111 O   0  0  0  0  0  0  0  0  0  0  0  0
    3.5563    0.5760   -2.1690 H   0  0  0  0  0  0  0  0  0  0  0  0
   -0.1923    1.1526    0.7617 C   0  0  0  0  0  0  0  0  0  0  0  0
   -1.1582    1.8438    0.4410 O   0  0  0  0  0  0  0  0  0  0  0  0
    0.7203    1.5683    1.6472 N   0  0  0  0  0  0  0  0  0  0  0  0
    1.5210    0.9664    1.8100 H   0  0  0  0  0  0  0  0  0  0  0  0
    0.6747    2.8558    2.3368 C   0  0  0  0  0  0  0  0  0  0  0  0
   -0.3018    2.9877    2.8079 H   0  0  0  0  0  0  0  0  0  0  0  0
    1.4516    2.8997    3.1011 H   0  0  0  0  0  0  0  0  0  0  0  0
    0.8279    3.6639    1.6193 H   0  0  0  0  0  0  0  0  0  0  0  0
  5  6  2  0  0  0  0
  5  7  1  0  0  0  0
  2  3  1  0  0  0  0
  2  4  1  0  0  0  0
  2  5  1  0  0  0  0
  1  2  1  0  0  0  0
 18 19  2  0  0  0  0
 18 20  1  0  0  0  0
 16 17  1  0  0  0  0
 14 15  2  0  0  0  0
 14 16  1  0  0  0  0
 11 12  1  0  0  0  0
 11 13  1  0  0  0  0
 11 14  1  0  0  0  0
  9 10  1  0  0  0  0
  9 11  1  0  0  0  0
  9 18  1  0  0  0  0
  7  8  1  0  0  0  0
  7  9  1  0  0  0  0
 22 23  1  0  0  0  0
 22 24  1  0  0  0  0
 22 25  1  0  0  0  0
 20 21  1  0  0  0  0
 20 22  1  0  0  0  0
M  END
$$$$
default_name
  -OEChem-02102213163D

 25 24  0     1  0  0  0  0  0999 V2000
   -2.7826   -3.8464    0.7821 H   0  0  0  0  0  0  0  0  0  0  0  0
   -2.8156   -2.8034    0.4711 C   0  0  0  0  0  0  0  0  0  0  0  0
   -3.4336   -2.2354    1.1641 H   0  0  0  0  0  0  0  0  0  0  0  0
   -3.2256   -2.7344   -0.5349 H   0  0  0  0  0  0  0  0  0  0  0  0
   -1.4126   -2.2444    0.4801 C   0  0  0  0  0  0  0  0  0  0  0  0
   -0.4686   -2.9534    0.8001 O   0  0  0  0  0  0  0  0  0  0  0  0
   -1.2736   -0.9704    0.1241 N   0  0  0  0  0  0  0  0  0  0  0  0
   -2.0996   -0.4354   -0.1019 H   0  0  0  0  0  0  0  0  0  0  0  0
   -0.0016   -0.2394    0.1271 C   0  0  1  0  0  0  0  0  0  0  0  0
    0.7164   -0.7963    0.7332 H   0  0  0  0  0  0  0  0  0  0  0  0
    0.5351   -0.1414   -1.3146 C   0  0  0  0  0  0  0  0  0  0  0  0
    0.7017   -1.1447   -1.7088 H   0  0  0  0  0  0  0  0  0  0  0  0
   -0.2039    0.3494   -1.9490 H   0  0  0  0  0  0  0  0  0  0  0  0
    1.8615    0.6052   -1.4190 C   0  0  0  0  0  0  0  0  0  0  0  0
    2.2329    1.5051   -0.6771 O   0  0  0  0  0  0  0  0  0  0  0  0
    2.6533    0.2103   -2.4335 O   0  0  0  0  0  0  0  0  0  0  0  0
    3.4478    0.7410   -2.3682 H   0  0  0  0  0  0  0  0  0  0  0  0
   -0.1923    1.1526    0.7617 C   0  0  0  0  0  0  0  0  0  0  0  0
   -1.1582    1.8438    0.4410 O   0  0  0  0  0  0  0  0  0  0  0  0
    0.7203    1.5683    1.6472 N   0  0  0  0  0  0  0  0  0  0  0  0
    1.5210    0.9664    1.8100 H   0  0  0  0  0  0  0  0  0  0  0  0
    0.6747    2.8558    2.3368 C   0  0  0  0  0  0  0  0  0  0  0  0
   -0.3018    2.9877    2.8079 H   0  0  0  0  0  0  0  0  0  0  0  0
    1.4516    2.8997    3.1011 H   0  0  0  0  0  0  0  0  0  0  0  0
    0.8279    3.6639    1.6193 H   0  0  0  0  0  0  0  0  0  0  0  0
  5  6  2  0  0  0  0
  5  7  1  0  0  0  0
  2  3  1  0  0  0  0
  2  4  1  0  0  0  0
  2  5  1  0  0  0  0
  1  2  1  0  0  0  0
 18 19  2  0  0  0  0
 18 20  1  0  0  0  0
 16 17  1  0  0  0  0
 14 15  2  0  0  0  0
 14 16  1  0  0  0  0
 11 12  1  0  0  0  0
 11 13  1  0  0  0  0
 11 14  1  0  0  0  0
  9 10  1  0  0  0  0
  9 11  1  0  0  0  0
  9 18  1  0  0  0  0
  7  8  1  0  0  0  0
  7  9  1  0  0  0  0
 22 23  1  0  0  0  0
 22 24  1  0  0  0  0
 22 25  1  0  0  0  0
 20 21  1  0  0  0  0
 20 22  1  0  0  0  0
M  END
$$$$
default_name
  -OEChem-02102213163D

 25 24  0     1  0  0  0  0  0999 V2000
   -2.7826   -3.8464    0.7821 H   0  0  0  0  0  0  0  0  0  0  0  0
   -2.8156   -2.8034    0.4711 C   0  0  0  0  0  0  0  0  0  0  0  0
   -3.4336   -2.2354    1.1641 H   0  0  0  0  0  0  0  0  0  0  0  0
   -3.2256   -2.7344   -0.5349 H   0  0  0  0  0  0  0  0  0  0  0  0
   -1.4126   -2.2444    0.4801 C   0  0  0  0  0  0  0  0  0  0  0  0
   -0.4686   -2.9534    0.8001 O   0  0  0  0  0  0  0  0  0  0  0  0
   -1.2736   -0.9704    0.1241 N   0  0  0  0  0  0  0  0  0  0  0  0
   -2.0996   -0.4354   -0.1019 H   0  0  0  0  0  0  0  0  0  0  0  0
   -0.0016   -0.2394    0.1271 C   0  0  1  0  0  0  0  0  0  0  0  0
    0.7164   -0.7963    0.7332 H   0  0  0  0  0  0  0  0  0  0  0  0
    0.5351   -0.1414   -1.3146 C   0  0  0  0  0  0  0  0  0  0  0  0
    0.7017   -1.1447   -1.7088 H   0  0  0  0  0  0  0  0  0  0  0  0
   -0.2039    0.3494   -1.9490 H   0  0  0  0  0  0  0  0  0  0  0  0
    1.8615    0.6052   -1.4190 C   0  0  0  0  0  0  0  0  0  0  0  0
    2.3513    1.3128   -0.5486 O   0  0  0  0  0  0  0  0  0  0  0  0
    2.5075    0.4474   -2.5894 O   0  0  0  0  0  0  0  0  0  0  0  0
    3.3207    0.9470   -2.5097 H   0  0  0  0  0  0  0  0  0  0  0  0
   -0.1923    1.1526    0.7617 C   0  0  0  0  0  0  0  0  0  0  0  0
   -1.1582    1.8438    0.4410 O   0  0  0  0  0  0  0  0  0  0  0  0
    0.7203    1.5683    1.6472 N   0  0  0  0  0  0  0  0  0  0  0  0
    1.5210    0.9664    1.8100 H   0  0  0  0  0  0  0  0  0  0  0  0
    0.6747    2.8558    2.3368 C   0  0  0  0  0  0  0  0  0  0  0  0
   -0.3018    2.9877    2.8079 H   0  0  0  0  0  0  0  0  0  0  0  0
    1.4516    2.8997    3.1011 H   0  0  0  0  0  0  0  0  0  0  0  0
    0.8279    3.6639    1.6193 H   0  0  0  0  0  0  0  0  0  0  0  0
  5  6  2  0  0  0  0
  5  7  1  0  0  0  0
  2  3  1  0  0  0  0
  2  4  1  0  0  0  0
  2  5  1  0  0  0  0
  1  2  1  0  0  0  0
 18 19  2  0  0  0  0
 18 20  1  0  0  0  0
 16 17  1  0  0  0  0
 14 15  2  0  0  0  0
 14 16  1  0  0  0  0
 11 12  1  0  0  0  0
 11 13  1  0  0  0  0
 11 14  1  0  0  0  0
  9 10  1  0  0  0  0
  9 11  1  0  0  0  0
  9 18  1  0  0  0  0
  7  8  1  0  0  0  0
  7  9  1  0  0  0  0
 22 23  1  0  0  0  0
 22 24  1  0  0  0  0
 22 25  1  0  0  0  0
 20 21  1  0  0  0  0
 20 22  1  0  0  0  0
M  END
$$$$
default_name
  -OEChem-02102213163D

 25 24  0     1  0  0  0  0  0999 V2000
   -2.7826   -3.8464    0.7821 H   0  0  0  0  0  0  0  0  0  0  0  0
   -2.8156   -2.8034    0.4711 C   0  0  0  0  0  0  0  0  0  0  0  0
   -3.4336   -2.2354    1.1641 H   0  0  0  0  0  0  0  0  0  0  0  0
   -3.2256   -2.7344   -0.5349 H   0  0  0  0  0  0  0  0  0  0  0  0
   -1.4126   -2.2444    0.4801 C   0  0  0  0  0  0  0  0  0  0  0  0
   -0.4686   -2.9534    0.8001 O   0  0  0  0  0  0  0  0  0  0  0  0
   -1.2736   -0.9704    0.1241 N   0  0  0  0  0  0  0  0  0  0  0  0
   -2.0996   -0.4354   -0.1019 H   0  0  0  0  0  0  0  0  0  0  0  0
   -0.0016   -0.2394    0.1271 C   0  0  1  0  0  0  0  0  0  0  0  0
    0.7164   -0.7963    0.7332 H   0  0  0  0  0  0  0  0  0  0  0  0
    0.5351   -0.1414   -1.3146 C   0  0  0  0  0  0  0  0  0  0  0  0
    0.7017   -1.1447   -1.7088 H   0  0  0  0  0  0  0  0  0  0  0  0
   -0.2039    0.3494   -1.9490 H   0  0  0  0  0  0  0  0  0  0  0  0
    1.8615    0.6052   -1.4190 C   0  0  0  0  0  0  0  0  0  0  0  0
    2.4785    1.0961   -0.4827 O   0  0  0  0  0  0  0  0  0  0  0  0
    2.3512    0.7141   -2.6681 O   0  0  0  0  0  0  0  0  0  0  0  0
    3.1837    1.1801   -2.5840 H   0  0  0  0  0  0  0  0  0  0  0  0
   -0.1923    1.1526    0.7617 C   0  0  0  0  0  0  0  0  0  0  0  0
   -1.1582    1.8438    0.4410 O   0  0  0  0  0  0  0  0  0  0  0  0
    0.7203    1.5683    1.6472 N   0  0  0  0  0  0  0  0  0  0  0  0
    1.5210    0.9664    1.8100 H   0  0  0  0  0  0  0  0  0  0  0  0
    0.6747    2.8558    2.3368 C   0  0  0  0  0  0  0  0  0  0  0  0
   -0.3018    2.9877    2.8079 H   0  0  0  0  0  0  0  0  0  0  0  0
    1.4516    2.8997    3.1011 H   0  0  0  0  0  0  0  0  0  0  0  0
    0.8279    3.6639    1.6193 H   0  0  0  0  0  0  0  0  0  0  0  0
  5  6  2  0  0  0  0
  5  7  1  0  0  0  0
  2  3  1  0  0  0  0
  2  4  1  0  0  0  0
  2  5  1  0  0  0  0
  1  2  1  0  0  0  0
 18 19  2  0  0  0  0
 18 20  1  0  0  0  0
 16 17  1  0  0  0  0
 14 15  2  0  0  0  0
 14 16  1  0  0  0  0
 11 12  1  0  0  0  0
 11 13  1  0  0  0  0
 11 14  1  0  0  0  0
  9 10  1  0  0  0  0
  9 11  1  0  0  0  0
  9 18  1  0  0  0  0
  7  8  1  0  0  0  0
  7  9  1  0  0  0  0
 22 23  1  0  0  0  0
 22 24  1  0  0  0  0
 22 25  1  0  0  0  0
 20 21  1  0  0  0  0
 20 22  1  0  0  0  0
M  END
$$$$
default_name
  -OEChem-02102213163D

 25 24  0     1  0  0  0  0  0999 V2000
   -2.7826   -3.8464    0.7821 H   0  0  0  0  0  0  0  0  0  0  0  0
   -2.8156   -2.8034    0.4711 C   0  0  0  0  0  0  0  0  0  0  0  0
   -3.4336   -2.2354    1.1641 H   0  0  0  0  0  0  0  0  0  0  0  0
   -3.2256   -2.7344   -0.5349 H   0  0  0  0  0  0  0  0  0  0  0  0
   -1.4126   -2.2444    0.4801 C   0  0  0  0  0  0  0  0  0  0  0  0
   -0.4686   -2.9534    0.8001 O   0  0  0  0  0  0  0  0  0  0  0  0
   -1.2736   -0.9704    0.1241 N   0  0  0  0  0  0  0  0  0  0  0  0
   -2.0996   -0.4354   -0.1019 H   0  0  0  0  0  0  0  0  0  0  0  0
   -0.0016   -0.2394    0.1271 C   0  0  1  0  0  0  0  0  0  0  0  0
    0.7164   -0.7963    0.7332 H   0  0  0  0  0  0  0  0  0  0  0  0
    0.5351   -0.1414   -1.3146 C   0  0  0  0  0  0  0  0  0  0  0  0
    0.7017   -1.1447   -1.7088 H   0  0  0  0  0  0  0  0  0  0  0  0
   -0.2039    0.3494   -1.9490 H   0  0  0  0  0  0  0  0  0  0  0  0
    1.8615    0.6052   -1.4190 C   0  0  0  0  0  0  0  0  0  0  0  0
    2.6058    0.8696   -0.4840 O   0  0  0  0  0  0  0  0  0  0  0  0
    2.1950    0.9922   -2.6644 O   0  0  0  0  0  0  0  0  0  0  0  0
    3.0460    1.4245   -2.5859 H   0  0  0  0  0  0  0  0  0  0  0  0
   -0.1923    1.1526    0.7617 C   0  0  0  0  0  0  0  0  0  0  0  0
   -1.1582    1.8438    0.4410 O   0  0  0  0  0  0  0  0  0  0  0  0
    0.7203    1.5683    1.6472 N   0  0  0  0  0  0  0  0  0  0  0  0
    1.5210    0.9664    1.8100 H   0  0  0  0  0  0  0  0  0  0  0  0
    0.6747    2.8558    2.3368 C   0  0  0  0  0  0  0  0  0  0  0  0
   -0.3018    2.9877    2.8079 H   0  0  0  0  0  0  0  0  0  0  0  0
    1.4516    2.8997    3.1011 H   0  0  0  0  0  0  0  0  0  0  0  0
    0.8279    3.6639    1.6193 H   0  0  0  0  0  0  0  0  0  0  0  0
  5  6  2  0  0  0  0
  5  7  1  0  0  0  0
  2  3  1  0  0  0  0
  2  4  1  0  0  0  0
  2  5  1  0  0  0  0
  1  2  1  0  0  0  0
 18 19  2  0  0  0  0
 18 20  1  0  0  0  0
 16 17  1  0  0  0  0
 14 15  2  0  0  0  0
 14 16  1  0  0  0  0
 11 12  1  0  0  0  0
 11 13  1  0  0  0  0
 11 14  1  0  0  0  0
  9 10  1  0  0  0  0
  9 11  1  0  0  0  0
  9 18  1  0  0  0  0
  7  8  1  0  0  0  0
  7  9  1  0  0  0  0
 22 23  1  0  0  0  0
 22 24  1  0  0  0  0
 22 25  1  0  0  0  0
 20 21  1  0  0  0  0
 20 22  1  0  0  0  0
M  END
$$$$
default_name
  -OEChem-02102213163D

 25 24  0     1  0  0  0  0  0999 V2000
   -2.7826   -3.8464    0.7821 H   0  0  0  0  0  0  0  0  0  0  0  0
   -2.8156   -2.8034    0.4711 C   0  0  0  0  0  0  0  0  0  0  0  0
   -3.4336   -2.2354    1.1641 H   0  0  0  0  0  0  0  0  0  0  0  0
   -3.2256   -2.7344   -0.5349 H   0  0  0  0  0  0  0  0  0  0  0  0
   -1.4126   -2.2444    0.4801 C   0  0  0  0  0  0  0  0  0  0  0  0
   -0.4686   -2.9534    0.8001 O   0  0  0  0  0  0  0  0  0  0  0  0
   -1.2736   -0.9704    0.1241 N   0  0  0  0  0  0  0  0  0  0  0  0
   -2.0996   -0.4354   -0.1019 H   0  0  0  0  0  0  0  0  0  0  0  0
   -0.0016   -0.2394    0.1271 C   0  0  1  0  0  0  0  0  0  0  0  0
    0.7164   -0.7963    0.7332 H   0  0  0  0  0  0  0  0  0  0  0  0
    0.5351   -0.1414   -1.3146 C   0  0  0  0  0  0  0  0  0  0  0  0
    0.7017   -1.1447   -1.7088 H   0  0  0  0  0  0  0  0  0  0  0  0
   -0.2039    0.3494   -1.9490 H   0  0  0  0  0  0  0  0  0  0  0  0
    1.8615    0.6052   -1.4190 C   0  0  0  0  0  0  0  0  0  0  0  0
    2.7247    0.6489   -0.5523 O   0  0  0  0  0  0  0  0  0  0  0  0
    2.0495    1.2627   -2.5784 O   0  0  0  0  0  0  0  0  0  0  0  0
    2.9171    1.6633   -2.5153 H   0  0  0  0  0  0  0  0  0  0  0  0
   -0.1923    1.1526    0.7617 C   0  0  0  0  0  0  0  0  0  0  0  0
   -1.1582    1.8438    0.4410 O   0  0  0  0  0  0  0  0  0  0  0  0
    0.7203    1.5683    1.6472 N   0  0  0  0  0  0  0  0  0  0  0  0
    1.5210    0.9664    1.8100 H   0  0  0  0  0  0  0  0  0  0  0  0
    0.6747    2.8558    2.3368 C   0  0  0  0  0  0  0  0  0  0  0  0
   -0.3018    2.9877    2.8079 H   0  0  0  0  0  0  0  0  0  0  0  0
    1.4516    2.8997    3.1011 H   0  0  0  0  0  0  0  0  0  0  0  0
    0.8279    3.6639    1.6193 H   0  0  0  0  0  0  0  0  0  0  0  0
  5  6  2  0  0  0  0
  5  7  1  0  0  0  0
  2  3  1  0  0  0  0
  2  4  1  0  0  0  0
  2  5  1  0  0  0  0
  1  2  1  0  0  0  0
 18 19  2  0  0  0  0
 18 20  1  0  0  0  0
 16 17  1  0  0  0  0
 14 15  2  0  0  0  0
 14 16  1  0  0  0  0
 11 12  1  0  0  0  0
 11 13  1  0  0  0  0
 11 14  1  0  0  0  0
  9 10  1  0  0  0  0
  9 11  1  0  0  0  0
  9 18  1  0  0  0  0
  7  8  1  0  0  0  0
  7  9  1  0  0  0  0
 22 23  1  0  0  0  0
 22 24  1  0  0  0  0
 22 25  1  0  0  0  0
 20 21  1  0  0  0  0
 20 22  1  0  0  0  0
M  END
$$$$
default_name
  -OEChem-02102213163D

 25 24  0     1  0  0  0  0  0999 V2000
   -2.7826   -3.8464    0.7821 H   0  0  0  0  0  0  0  0  0  0  0  0
   -2.8156   -2.8034    0.4711 C   0  0  0  0  0  0  0  0  0  0  0  0
   -3.4336   -2.2354    1.1641 H   0  0  0  0  0  0  0  0  0  0  0  0
   -3.2256   -2.7344   -0.5349 H   0  0  0  0  0  0  0  0  0  0  0  0
   -1.4126   -2.2444    0.4801 C   0  0  0  0  0  0  0  0  0  0  0  0
   -0.4686   -2.9534    0.8001 O   0  0  0  0  0  0  0  0  0  0  0  0
   -1.2736   -0.9704    0.1241 N   0  0  0  0  0  0  0  0  0  0  0  0
   -2.0996   -0.4354   -0.1019 H   0  0  0  0  0  0  0  0  0  0  0  0
   -0.0016   -0.2394    0.1271 C   0  0  1  0  0  0  0  0  0  0  0  0
    0.7164   -0.7963    0.7332 H   0  0  0  0  0  0  0  0  0  0  0  0
    0.5351   -0.1414   -1.3146 C   0  0  0  0  0  0  0  0  0  0  0  0
    0.7017   -1.1447   -1.7088 H   0  0  0  0  0  0  0  0  0  0  0  0
   -0.2039    0.3494   -1.9490 H   0  0  0  0  0  0  0  0  0  0  0  0
    1.8615    0.6052   -1.4190 C   0  0  0  0  0  0  0  0  0  0  0  0
    2.8269    0.4490   -0.6830 O   0  0  0  0  0  0  0  0  0  0  0  0
    1.9246    1.5073   -2.4161 O   0  0  0  0  0  0  0  0  0  0  0  0
    2.8058    1.8804   -2.3771 H   0  0  0  0  0  0  0  0  0  0  0  0
   -0.1923    1.1526    0.7617 C   0  0  0  0  0  0  0  0  0  0  0  0
   -1.1582    1.8438    0.4410 O   0  0  0  0  0  0  0  0  0  0  0  0
    0.7203    1.5683    1.6472 N   0  0  0  0  0  0  0  0  0  0  0  0
    1.5210    0.9664    1.8100 H   0  0  0  0  0  0  0  0  0  0  0  0
    0.6747    2.8558    2.3368 C   0  0  0  0  0  0  0  0  0  0  0  0
   -0.3018    2.9877    2.8079 H   0  0  0  0  0  0  0  0  0  0  0  0
    1.4516    2.8997    3.1011 H   0  0  0  0  0  0  0  0  0  0  0  0
    0.8279    3.6639    1.6193 H   0  0  0  0  0  0  0  0  0  0  0  0
  5  6  2  0  0  0  0
  5  7  1  0  0  0  0
  2  3  1  0  0  0  0
  2  4  1  0  0  0  0
  2  5  1  0  0  0  0
  1  2  1  0  0  0  0
 18 19  2  0  0  0  0
 18 20  1  0  0  0  0
 16 17  1  0  0  0  0
 14 15  2  0  0  0  0
 14 16  1  0  0  0  0
 11 12  1  0  0  0  0
 11 13  1  0  0  0  0
 11 14  1  0  0  0  0
  9 10  1  0  0  0  0
  9 11  1  0  0  0  0
  9 18  1  0  0  0  0
  7  8  1  0  0  0  0
  7  9  1  0  0  0  0
 22 23  1  0  0  0  0
 22 24  1  0  0  0  0
 22 25  1  0  0  0  0
 20 21  1  0  0  0  0
 20 22  1  0  0  0  0
M  END
$$$$
default_name
  -OEChem-02102213163D

 25 24  0     1  0  0  0  0  0999 V2000
   -2.7826   -3.8464    0.7821 H   0  0  0  0  0  0  0  0  0  0  0  0
   -2.8156   -2.8034    0.4711 C   0  0  0  0  0  0  0  0  0  0  0  0
   -3.4336   -2.2354    1.1641 H   0  0  0  0  0  0  0  0  0  0  0  0
   -3.2256   -2.7344   -0.5349 H   0  0  0  0  0  0  0  0  0  0  0  0
   -1.4126   -2.2444    0.4801 C   0  0  0  0  0  0  0  0  0  0  0  0
   -0.4686   -2.9534    0.8001 O   0  0  0  0  0  0  0  0  0  0  0  0
   -1.2736   -0.9704    0.1241 N   0  0  0  0  0  0  0  0  0  0  0  0
   -2.0996   -0.4354   -0.1019 H   0  0  0  0  0  0  0  0  0  0  0  0
   -0.0016   -0.2394    0.1271 C   0  0  1  0  0  0  0  0  0  0  0  0
    0.7164   -0.7963    0.7332 H   0  0  0  0  0  0  0  0  0  0  0  0
    0.5351   -0.1414   -1.3146 C   0  0  0  0  0  0  0  0  0  0  0  0
    0.7017   -1.1447   -1.7088 H   0  0  0  0  0  0  0  0  0  0  0  0
   -0.2039    0.3494   -1.9490 H   0  0  0  0  0  0  0  0  0  0  0  0
    1.8615    0.6052   -1.4190 C   0  0  0  0  0  0  0  0  0  0  0  0
    2.9056    0.2834   -0.8671 O   0  0  0  0  0  0  0  0  0  0  0  0
    1.8289    1.7092   -2.1884 O   0  0  0  0  0  0  0  0  0  0  0  0
    2.7196    2.0610   -2.1806 H   0  0  0  0  0  0  0  0  0  0  0  0
   -0.1923    1.1526    0.7617 C   0  0  0  0  0  0  0  0  0  0  0  0
   -1.1582    1.8438    0.4410 O   0  0  0  0  0  0  0  0  0  0  0  0
    0.7203    1.5683    1.6472 N   0  0  0  0  0  0  0  0  0  0  0  0
    1.5210    0.9664    1.8100 H   0  0  0  0  0  0  0  0  0  0  0  0
    0.6747    2.8558    2.3368 C   0  0  0  0  0  0  0  0  0  0  0  0
   -0.3018    2.9877    2.8079 H   0  0  0  0  0  0  0  0  0  0  0  0
    1.4516    2.8997    3.1011 H   0  0  0  0  0  0  0  0  0  0  0  0
    0.8279    3.6639    1.6193 H   0  0  0  0  0  0  0  0  0  0  0  0
  5  6  2  0  0  0  0
  5  7  1  0  0  0  0
  2  3  1  0  0  0  0
  2  4  1  0  0  0  0
  2  5  1  0  0  0  0
  1  2  1  0  0  0  0
 18 19  2  0  0  0  0
 18 20  1  0  0  0  0
 16 17  1  0  0  0  0
 14 15  2  0  0  0  0
 14 16  1  0  0  0  0
 11 12  1  0  0  0  0
 11 13  1  0  0  0  0
 11 14  1  0  0  0  0
  9 10  1  0  0  0  0
  9 11  1  0  0  0  0
  9 18  1  0  0  0  0
  7  8  1  0  0  0  0
  7  9  1  0  0  0  0
 22 23  1  0  0  0  0
 22 24  1  0  0  0  0
 22 25  1  0  0  0  0
 20 21  1  0  0  0  0
 20 22  1  0  0  0  0
M  END
$$$$
default_name
  -OEChem-02102213163D

 25 24  0     1  0  0  0  0  0999 V2000
   -2.7826   -3.8464    0.7821 H   0  0  0  0  0  0  0  0  0  0  0  0
   -2.8156   -2.8034    0.4711 C   0  0  0  0  0  0  0  0  0  0  0  0
   -3.4336   -2.2354    1.1641 H   0  0  0  0  0  0  0  0  0  0  0  0
   -3.2256   -2.7344   -0.5349 H   0  0  0  0  0  0  0  0  0  0  0  0
   -1.4126   -2.2444    0.4801 C   0  0  0  0  0  0  0  0  0  0  0  0
   -0.4686   -2.9534    0.8001 O   0  0  0  0  0  0  0  0  0  0  0  0
   -1.2736   -0.9704    0.1241 N   0  0  0  0  0  0  0  0  0  0  0  0
   -2.0996   -0.4354   -0.1019 H   0  0  0  0  0  0  0  0  0  0  0  0
   -0.0016   -0.2394    0.1271 C   0  0  1  0  0  0  0  0  0  0  0  0
    0.7164   -0.7963    0.7332 H   0  0  0  0  0  0  0  0  0  0  0  0
    0.5351   -0.1414   -1.3146 C   0  0  0  0  0  0  0  0  0  0  0  0
    0.7017   -1.1447   -1.7088 H   0  0  0  0  0  0  0  0  0  0  0  0
   -0.2039    0.3494   -1.9490 H   0  0  0  0  0  0  0  0  0  0  0  0
    1.8615    0.6052   -1.4190 C   0  0  0  0  0  0  0  0  0  0  0  0
    2.9553    0.1636   -1.0922 O   0  0  0  0  0  0  0  0  0  0  0  0
    1.7688    1.8547   -1.9110 O   0  0  0  0  0  0  0  0  0  0  0  0
    2.6644    2.1928   -1.9392 H   0  0  0  0  0  0  0  0  0  0  0  0
   -0.1923    1.1526    0.7617 C   0  0  0  0  0  0  0  0  0  0  0  0
   -1.1582    1.8438    0.4410 O   0  0  0  0  0  0  0  0  0  0  0  0
    0.7203    1.5683    1.6472 N   0  0  0  0  0  0  0  0  0  0  0  0
    1.5210    0.9664    1.8100 H   0  0  0  0  0  0  0  0  0  0  0  0
    0.6747    2.8558    2.3368 C   0  0  0  0  0  0  0  0  0  0  0  0
   -0.3018    2.9877    2.8079 H   0  0  0  0  0  0  0  0  0  0  0  0
    1.4516    2.8997    3.1011 H   0  0  0  0  0  0  0  0  0  0  0  0
    0.8279    3.6639    1.6193 H   0  0  0  0  0  0  0  0  0  0  0  0
  5  6  2  0  0  0  0
  5  7  1  0  0  0  0
  2  3  1  0  0  0  0
  2  4  1  0  0  0  0
  2  5  1  0  0  0  0
  1  2  1  0  0  0  0
 18 19  2  0  0  0  0
 18 20  1  0  0  0  0
 16 17  1  0  0  0  0
 14 15  2  0  0  0  0
 14 16  1  0  0  0  0
 11 12  1  0  0  0  0
 11 13  1  0  0  0  0
 11 14  1  0  0  0  0
  9 10  1  0  0  0  0
  9 11  1  0  0  0  0
  9 18  1  0  0  0  0
  7  8  1  0  0  0  0
  7  9  1  0  0  0  0
 22 23  1  0  0  0  0
 22 24  1  0  0  0  0
 22 25  1  0  0  0  0
 20 21  1  0  0  0  0
 20 22  1  0  0  0  0
M  END
$$$$
default_name
  -OEChem-02102213163D

 25 24  0     1  0  0  0  0  0999 V2000
   -2.7826   -3.8464    0.7821 H   0  0  0  0  0  0  0  0  0  0  0  0
   -2.8156   -2.8034    0.4711 C   0  0  0  0  0  0  0  0  0  0  0  0
   -3.4336   -2.2354    1.1641 H   0  0  0  0  0  0  0  0  0  0  0  0
   -3.2256   -2.7344   -0.5349 H   0  0  0  0  0  0  0  0  0  0  0  0
   -1.4126   -2.2444    0.4801 C   0  0  0  0  0  0  0  0  0  0  0  0
   -0.4686   -2.9534    0.8001 O   0  0  0  0  0  0  0  0  0  0  0  0
   -1.2736   -0.9704    0.1241 N   0  0  0  0  0  0  0  0  0  0  0  0
   -2.0996   -0.4354   -0.1019 H   0  0  0  0  0  0  0  0  0  0  0  0
   -0.0016   -0.2394    0.1271 C   0  0  1  0  0  0  0  0  0  0  0  0
    0.7164   -0.7963    0.7332 H   0  0  0  0  0  0  0  0  0  0  0  0
    0.5351   -0.1414   -1.3146 C   0  0  0  0  0  0  0  0  0  0  0  0
    0.7017   -1.1447   -1.7088 H   0  0  0  0  0  0  0  0  0  0  0  0
   -0.2039    0.3494   -1.9490 H   0  0  0  0  0  0  0  0  0  0  0  0
    1.8615    0.6052   -1.4190 C   0  0  0  0  0  0  0  0  0  0  0  0
    2.9728    0.0976   -1.3429 O   0  0  0  0  0  0  0  0  0  0  0  0
    1.7485    1.9339   -1.6026 O   0  0  0  0  0  0  0  0  0  0  0  0
    2.6440    2.2667   -1.6695 H   0  0  0  0  0  0  0  0  0  0  0  0
   -0.1923    1.1526    0.7617 C   0  0  0  0  0  0  0  0  0  0  0  0
   -1.1582    1.8438    0.4410 O   0  0  0  0  0  0  0  0  0  0  0  0
    0.7203    1.5683    1.6472 N   0  0  0  0  0  0  0  0  0  0  0  0
    1.5210    0.9664    1.8100 H   0  0  0  0  0  0  0  0  0  0  0  0
    0.6747    2.8558    2.3368 C   0  0  0  0  0  0  0  0  0  0  0  0
   -0.3018    2.9877    2.8079 H   0  0  0  0  0  0  0  0  0  0  0  0
    1.4516    2.8997    3.1011 H   0  0  0  0  0  0  0  0  0  0  0  0
    0.8279    3.6639    1.6193 H   0  0  0  0  0  0  0  0  0  0  0  0
  5  6  2  0  0  0  0
  5  7  1  0  0  0  0
  2  3  1  0  0  0  0
  2  4  1  0  0  0  0
  2  5  1  0  0  0  0
  1  2  1  0  0  0  0
 18 19  2  0  0  0  0
 18 20  1  0  0  0  0
 16 17  1  0  0  0  0
 14 15  2  0  0  0  0
 14 16  1  0  0  0  0
 11 12  1  0  0  0  0
 11 13  1  0  0  0  0
 11 14  1  0  0  0  0
  9 10  1  0  0  0  0
  9 11  1  0  0  0  0
  9 18  1  0  0  0  0
  7  8  1  0  0  0  0
  7  9  1  0  0  0  0
 22 23  1  0  0  0  0
 22 24  1  0  0  0  0
 22 25  1  0  0  0  0
 20 21  1  0  0  0  0
 20 22  1  0  0  0  0
M  END
$$$$
default_name
  -OEChem-02102213163D

 25 24  0     1  0  0  0  0  0999 V2000
   -2.7826   -3.8464    0.7821 H   0  0  0  0  0  0  0  0  0  0  0  0
   -2.8156   -2.8034    0.4711 C   0  0  0  0  0  0  0  0  0  0  0  0
   -3.4336   -2.2354    1.1641 H   0  0  0  0  0  0  0  0  0  0  0  0
   -3.2256   -2.7344   -0.5349 H   0  0  0  0  0  0  0  0  0  0  0  0
   -1.4126   -2.2444    0.4801 C   0  0  0  0  0  0  0  0  0  0  0  0
   -0.4686   -2.9534    0.8001 O   0  0  0  0  0  0  0  0  0  0  0  0
   -1.2736   -0.9704    0.1241 N   0  0  0  0  0  0  0  0  0  0  0  0
   -2.0996   -0.4354   -0.1019 H   0  0  0  0  0  0  0  0  0  0  0  0
   -0.0016   -0.2394    0.1271 C   0  0  1  0  0  0  0  0  0  0  0  0
    0.7164   -0.7963    0.7332 H   0  0  0  0  0  0  0  0  0  0  0  0
    0.5351   -0.1414   -1.3146 C   0  0  0  0  0  0  0  0  0  0  0  0
    0.7017   -1.1447   -1.7088 H   0  0  0  0  0  0  0  0  0  0  0  0
   -0.2039    0.3494   -1.9490 H   0  0  0  0  0  0  0  0  0  0  0  0
    1.8615    0.6052   -1.4190 C   0  0  0  0  0  0  0  0  0  0  0  0
    2.9566    0.0900   -1.6021 O   0  0  0  0  0  0  0  0  0  0  0  0
    1.7694    1.9413   -1.2844 O   0  0  0  0  0  0  0  0  0  0  0  0
    2.6598    2.2778   -1.3897 H   0  0  0  0  0  0  0  0  0  0  0  0
   -0.1923    1.1526    0.7617 C   0  0  0  0  0  0  0  0  0  0  0  0
   -1.1582    1.8438    0.4410 O   0  0  0  0  0  0  0  0  0  0  0  0
    0.7203    1.5683    1.6472 N   0  0  0  0  0  0  0  0  0  0  0  0
    1.5210    0.9664    1.8100 H   0  0  0  0  0  0  0  0  0  0  0  0
    0.6747    2.8558    2.3368 C   0  0  0  0  0  0  0  0  0  0  0  0
   -0.3018    2.9877    2.8079 H   0  0  0  0  0  0  0  0  0  0  0  0
    1.4516    2.8997    3.1011 H   0  0  0  0  0  0  0  0  0  0  0  0
    0.8279    3.6639    1.6193 H   0  0  0  0  0  0  0  0  0  0  0  0
  5  6  2  0  0  0  0
  5  7  1  0  0  0  0
  2  3  1  0  0  0  0
  2  4  1  0  0  0  0
  2  5  1  0  0  0  0
  1  2  1  0  0  0  0
 18 19  2  0  0  0  0
 18 20  1  0  0  0  0
 16 17  1  0  0  0  0
 14 15  2  0  0  0  0
 14 16  1  0  0  0  0
 11 12  1  0  0  0  0
 11 13  1  0  0  0  0
 11 14  1  0  0  0  0
  9 10  1  0  0  0  0
  9 11  1  0  0  0  0
  9 18  1  0  0  0  0
  7  8  1  0  0  0  0
  7  9  1  0  0  0  0
 22 23  1  0  0  0  0
 22 24  1  0  0  0  0
 22 25  1  0  0  0  0
 20 21  1  0  0  0  0
 20 22  1  0  0  0  0
M  END
$$$$
default_name
  -OEChem-02102213163D

 25 24  0     1  0  0  0  0  0999 V2000
   -2.7826   -3.8464    0.7821 H   0  0  0  0  0  0  0  0  0  0  0  0
   -2.8156   -2.8034    0.4711 C   0  0  0  0  0  0  0  0  0  0  0  0
   -3.4336   -2.2354    1.1641 H   0  0  0  0  0  0  0  0  0  0  0  0
   -3.2256   -2.7344   -0.5349 H   0  0  0  0  0  0  0  0  0  0  0  0
   -1.4126   -2.2444    0.4801 C   0  0  0  0  0  0  0  0  0  0  0  0
   -0.4686   -2.9534    0.8001 O   0  0  0  0  0  0  0  0  0  0  0  0
   -1.2736   -0.9704    0.1241 N   0  0  0  0  0  0  0  0  0  0  0  0
   -2.0996   -0.4354   -0.1019 H   0  0  0  0  0  0  0  0  0  0  0  0
   -0.0016   -0.2394    0.1271 C   0  0  1  0  0  0  0  0  0  0  0  0
    0.7164   -0.7963    0.7332 H   0  0  0  0  0  0  0  0  0  0  0  0
    0.5351   -0.1414   -1.3146 C   0  0  0  0  0  0  0  0  0  0  0  0
    0.7017   -1.1447   -1.7088 H   0  0  0  0  0  0  0  0  0  0  0  0
   -0.2039    0.3494   -1.9490 H   0  0  0  0  0  0  0  0  0  0  0  0
    1.8615    0.6052   -1.4190 C   0  0  0  0  0  0  0  0  0  0  0  0
    2.9081    0.1412   -1.8522 O   0  0  0  0  0  0  0  0  0  0  0  0
    1.8299    1.8765   -0.9779 O   0  0  0  0  0  0  0  0  0  0  0  0
    2.7107    2.2252   -1.1190 H   0  0  0  0  0  0  0  0  0  0  0  0
   -0.1923    1.1526    0.7617 C   0  0  0  0  0  0  0  0  0  0  0  0
   -1.1582    1.8438    0.4410 O   0  0  0  0  0  0  0  0  0  0  0  0
    0.7203    1.5683    1.6472 N   0  0  0  0  0  0  0  0  0  0  0  0
    1.5210    0.9664    1.8100 H   0  0  0  0  0  0  0  0  0  0  0  0
    0.6747    2.8558    2.3368 C   0  0  0  0  0  0  0  0  0  0  0  0
   -0.3018    2.9877    2.8079 H   0  0  0  0  0  0  0  0  0  0  0  0
    1.4516    2.8997    3.1011 H   0  0  0  0  0  0  0  0  0  0  0  0
    0.8279    3.6639    1.6193 H   0  0  0  0  0  0  0  0  0  0  0  0
  5  6  2  0  0  0  0
  5  7  1  0  0  0  0
  2  3  1  0  0  0  0
  2  4  1  0  0  0  0
  2  5  1  0  0  0  0
  1  2  1  0  0  0  0
 18 19  2  0  0  0  0
 18 20  1  0  0  0  0
 16 17  1  0  0  0  0
 14 15  2  0  0  0  0
 14 16  1  0  0  0  0
 11 12  1  0  0  0  0
 11 13  1  0  0  0  0
 11 14  1  0  0  0  0
  9 10  1  0  0  0  0
  9 11  1  0  0  0  0
  9 18  1  0  0  0  0
  7  8  1  0  0  0  0
  7  9  1  0  0  0  0
 22 23  1  0  0  0  0
 22 24  1  0  0  0  0
 22 25  1  0  0  0  0
 20 21  1  0  0  0  0
 20 22  1  0  0  0  0
M  END
$$$$
default_name
  -OEChem-02102213163D

 25 24  0     1  0  0  0  0  0999 V2000
   -2.7826   -3.8464    0.7821 H   0  0  0  0  0  0  0  0  0  0  0  0
   -2.8156   -2.8034    0.4711 C   0  0  0  0  0  0  0  0  0  0  0  0
   -3.4336   -2.2354    1.1641 H   0  0  0  0  0  0  0  0  0  0  0  0
   -3.2256   -2.7344   -0.5349 H   0  0  0  0  0  0  0  0  0  0  0  0
   -1.4126   -2.2444    0.4801 C   0  0  0  0  0  0  0  0  0  0  0  0
   -0.4686   -2.9534    0.8001 O   0  0  0  0  0  0  0  0  0  0  0  0
   -1.2736   -0.9704    0.1241 N   0  0  0  0  0  0  0  0  0  0  0  0
   -2.0996   -0.4354   -0.1019 H   0  0  0  0  0  0  0  0  0  0  0  0
   -0.0016   -0.2394    0.1271 C   0  0  1  0  0  0  0  0  0  0  0  0
    0.7164   -0.7963    0.7332 H   0  0  0  0  0  0  0  0  0  0  0  0
    0.5351   -0.1414   -1.3146 C   0  0  0  0  0  0  0  0  0  0  0  0
    0.7017   -1.1447   -1.7088 H   0  0  0  0  0  0  0  0  0  0  0  0
   -0.2039    0.3494   -1.9490 H   0  0  0  0  0  0  0  0  0  0  0  0
    1.8615    0.6052   -1.4190 C   0  0  0  0  0  0  0  0  0  0  0  0
    2.8305    0.2478   -2.0760 O   0  0  0  0  0  0  0  0  0  0  0  0
    1.9261    1.7439   -0.7042 O   0  0  0  0  0  0  0  0  0  0  0  0
    2.7932    2.1127   -0.8758 H   0  0  0  0  0  0  0  0  0  0  0  0
   -0.1923    1.1526    0.7617 C   0  0  0  0  0  0  0  0  0  0  0  0
   -1.1582    1.8438    0.4410 O   0  0  0  0  0  0  0  0  0  0  0  0
    0.7203    1.5683    1.6472 N   0  0  0  0  0  0  0  0  0  0  0  0
    1.5210    0.9664    1.8100 H   0  0  0  0  0  0  0  0  0  0  0  0
    0.6747    2.8558    2.3368 C   0  0  0  0  0  0  0  0  0  0  0  0
   -0.3018    2.9877    2.8079 H   0  0  0  0  0  0  0  0  0  0  0  0
    1.4516    2.8997    3.1011 H   0  0  0  0  0  0  0  0  0  0  0  0
    0.8279    3.6639    1.6193 H   0  0  0  0  0  0  0  0  0  0  0  0
  5  6  2  0  0  0  0
  5  7  1  0  0  0  0
  2  3  1  0  0  0  0
  2  4  1  0  0  0  0
  2  5  1  0  0  0  0
  1  2  1  0  0  0  0
 18 19  2  0  0  0  0
 18 20  1  0  0  0  0
 16 17  1  0  0  0  0
 14 15  2  0  0  0  0
 14 16  1  0  0  0  0
 11 12  1  0  0  0  0
 11 13  1  0  0  0  0
 11 14  1  0  0  0  0
  9 10  1  0  0  0  0
  9 11  1  0  0  0  0
  9 18  1  0  0  0  0
  7  8  1  0  0  0  0
  7  9  1  0  0  0  0
 22 23  1  0  0  0  0
 22 24  1  0  0  0  0
 22 25  1  0  0  0  0
 20 21  1  0  0  0  0
 20 22  1  0  0  0  0
M  END
$$$$
default_name
  -OEChem-02102213163D

 25 24  0     1  0  0  0  0  0999 V2000
   -2.7826   -3.8464    0.7821 H   0  0  0  0  0  0  0  0  0  0  0  0
   -2.8156   -2.8034    0.4711 C   0  0  0  0  0  0  0  0  0  0  0  0
   -3.4336   -2.2354    1.1641 H   0  0  0  0  0  0  0  0  0  0  0  0
   -3.2256   -2.7344   -0.5349 H   0  0  0  0  0  0  0  0  0  0  0  0
   -1.4126   -2.2444    0.4801 C   0  0  0  0  0  0  0  0  0  0  0  0
   -0.4686   -2.9534    0.8001 O   0  0  0  0  0  0  0  0  0  0  0  0
   -1.2736   -0.9704    0.1241 N   0  0  0  0  0  0  0  0  0  0  0  0
   -2.0996   -0.4354   -0.1019 H   0  0  0  0  0  0  0  0  0  0  0  0
   -0.0016   -0.2394    0.1271 C   0  0  1  0  0  0  0  0  0  0  0  0
    0.7164   -0.7963    0.7332 H   0  0  0  0  0  0  0  0  0  0  0  0
    0.5351   -0.1414   -1.3146 C   0  0  0  0  0  0  0  0  0  0  0  0
    0.7017   -1.1447   -1.7088 H   0  0  0  0  0  0  0  0  0  0  0  0
   -0.2039    0.3494   -1.9490 H   0  0  0  0  0  0  0  0  0  0  0  0
    1.8615    0.6052   -1.4190 C   0  0  0  0  0  0  0  0  0  0  0  0
    2.7291    0.4026   -2.2584 O   0  0  0  0  0  0  0  0  0  0  0  0
    2.0513    1.5526   -0.4818 O   0  0  0  0  0  0  0  0  0  0  0  0
    2.9017    1.9477   -0.6766 H   0  0  0  0  0  0  0  0  0  0  0  0
   -0.1923    1.1526    0.7617 C   0  0  0  0  0  0  0  0  0  0  0  0
   -1.1582    1.8438    0.4410 O   0  0  0  0  0  0  0  0  0  0  0  0
    0.7203    1.5683    1.6472 N   0  0  0  0  0  0  0  0  0  0  0  0
    1.5210    0.9664    1.8100 H   0  0  0  0  0  0  0  0  0  0  0  0
    0.6747    2.8558    2.3368 C   0  0  0  0  0  0  0  0  0  0  0  0
   -0.3018    2.9877    2.8079 H   0  0  0  0  0  0  0  0  0  0  0  0
    1.4516    2.8997    3.1011 H   0  0  0  0  0  0  0  0  0  0  0  0
    0.8279    3.6639    1.6193 H   0  0  0  0  0  0  0  0  0  0  0  0
  5  6  2  0  0  0  0
  5  7  1  0  0  0  0
  2  3  1  0  0  0  0
  2  4  1  0  0  0  0
  2  5  1  0  0  0  0
  1  2  1  0  0  0  0
 18 19  2  0  0  0  0
 18 20  1  0  0  0  0
 16 17  1  0  0  0  0
 14 15  2  0  0  0  0
 14 16  1  0  0  0  0
 11 12  1  0  0  0  0
 11 13  1  0  0  0  0
 11 14  1  0  0  0  0
  9 10  1  0  0  0  0
  9 11  1  0  0  0  0
  9 18  1  0  0  0  0
  7  8  1  0  0  0  0
  7  9  1  0  0  0  0
 22 23  1  0  0  0  0
 22 24  1  0  0  0  0
 22 25  1  0  0  0  0
 20 21  1  0  0  0  0
 20 22  1  0  0  0  0
M  END
$$$$
default_name
  -OEChem-02102213163D

 25 24  0     1  0  0  0  0  0999 V2000
   -2.7826   -3.8464    0.7821 H   0  0  0  0  0  0  0  0  0  0  0  0
   -2.8156   -2.8034    0.4711 C   0  0  0  0  0  0  0  0  0  0  0  0
   -3.4336   -2.2354    1.1641 H   0  0  0  0  0  0  0  0  0  0  0  0
   -3.2256   -2.7344   -0.5349 H   0  0  0  0  0  0  0  0  0  0  0  0
   -1.4126   -2.2444    0.4801 C   0  0  0  0  0  0  0  0  0  0  0  0
   -0.4686   -2.9534    0.8001 O   0  0  0  0  0  0  0  0  0  0  0  0
   -1.2736   -0.9704    0.1241 N   0  0  0  0  0  0  0  0  0  0  0  0
   -2.0996   -0.4354   -0.1019 H   0  0  0  0  0  0  0  0  0  0  0  0
   -0.0016   -0.2394    0.1271 C   0  0  1  0  0  0  0  0  0  0  0  0
    0.7164   -0.7963    0.7332 H   0  0  0  0  0  0  0  0  0  0  0  0
    0.5351   -0.1414   -1.3146 C   0  0  0  0  0  0  0  0  0  0  0  0
    0.7017   -1.1447   -1.7088 H   0  0  0  0  0  0  0  0  0  0  0  0
   -0.2039    0.3494   -1.9490 H   0  0  0  0  0  0  0  0  0  0  0  0
    1.8615    0.6052   -1.4190 C   0  0  0  0  0  0  0  0  0  0  0  0
    2.6107    0.5949   -2.3870 O   0  0  0  0  0  0  0  0  0  0  0  0
    2.1971    1.3154   -0.3259 O   0  0  0  0  0  0  0  0  0  0  0  0
    3.0288    1.7417   -0.5350 H   0  0  0  0  0  0  0  0  0  0  0  0
   -0.1923    1.1526    0.7617 C   0  0  0  0  0  0  0  0  0  0  0  0
   -1.1582    1.8438    0.4410 O   0  0  0  0  0  0  0  0  0  0  0  0
    0.7203    1.5683    1.6472 N   0  0  0  0  0  0  0  0  0  0  0  0
    1.5210    0.9664    1.8100 H   0  0  0  0  0  0  0  0  0  0  0  0
    0.6747    2.8558    2.3368 C   0  0  0  0  0  0  0  0  0  0  0  0
   -0.3018    2.9877    2.8079 H   0  0  0  0  0  0  0  0  0  0  0  0
    1.4516    2.8997    3.1011 H   0  0  0  0  0  0  0  0  0  0  0  0
    0.8279    3.6639    1.6193 H   0  0  0  0  0  0  0  0  0  0  0  0
  5  6  2  0  0  0  0
  5  7  1  0  0  0  0
  2  3  1  0  0  0  0
  2  4  1  0  0  0  0
  2  5  1  0  0  0  0
  1  2  1  0  0  0  0
 18 19  2  0  0  0  0
 18 20  1  0  0  0  0
 16 17  1  0  0  0  0
 14 15  2  0  0  0  0
 14 16  1  0  0  0  0
 11 12  1  0  0  0  0
 11 13  1  0  0  0  0
 11 14  1  0  0  0  0
  9 10  1  0  0  0  0
  9 11  1  0  0  0  0
  9 18  1  0  0  0  0
  7  8  1  0  0  0  0
  7  9  1  0  0  0  0
 22 23  1  0  0  0  0
 22 24  1  0  0  0  0
 22 25  1  0  0  0  0
 20 21  1  0  0  0  0
 20 22  1  0  0  0  0
M  END
$$$$
default_name
  -OEChem-02102213163D

 25 24  0     1  0  0  0  0  0999 V2000
   -2.7826   -3.8464    0.7821 H   0  0  0  0  0  0  0  0  0  0  0  0
   -2.8156   -2.8034    0.4711 C   0  0  0  0  0  0  0  0  0  0  0  0
   -3.4336   -2.2354    1.1641 H   0  0  0  0  0  0  0  0  0  0  0  0
   -3.2256   -2.7344   -0.5349 H   0  0  0  0  0  0  0  0  0  0  0  0
   -1.4126   -2.2444    0.4801 C   0  0  0  0  0  0  0  0  0  0  0  0
   -0.4686   -2.9534    0.8001 O   0  0  0  0  0  0  0  0  0  0  0  0
   -1.2736   -0.9704    0.1241 N   0  0  0  0  0  0  0  0  0  0  0  0
   -2.0996   -0.4354   -0.1019 H   0  0  0  0  0  0  0  0  0  0  0  0
   -0.0016   -0.2394    0.1271 C   0  0  1  0  0  0  0  0  0  0  0  0
    0.7164   -0.7963    0.7332 H   0  0  0  0  0  0  0  0  0  0  0  0
    0.5351   -0.1414   -1.3146 C   0  0  0  0  0  0  0  0  0  0  0  0
    0.4510   -1.1145   -1.8001 H   0  0  0  0  0  0  0  0  0  0  0  0
   -0.0660    0.5695   -1.8827 H   0  0  0  0  0  0  0  0  0  0  0  0
    2.0025    0.2694   -1.3894 C   0  0  0  0  0  0  0  0  0  0  0  0
    2.6505    0.4140   -2.4177 O   0  0  0  0  0  0  0  0  0  0  0  0
    2.5937    0.4712   -0.1970 O   0  0  0  0  0  0  0  0  0  0  0  0
    3.4923    0.7391   -0.3916 H   0  0  0  0  0  0  0  0  0  0  0  0
   -0.1923    1.1526    0.7617 C   0  0  0  0  0  0  0  0  0  0  0  0
   -1.1582    1.8438    0.4410 O   0  0  0  0  0  0  0  0  0  0  0  0
    0.7203    1.5683    1.6472 N   0  0  0  0  0  0  0  0  0  0  0  0
    1.5210    0.9664    1.8100 H   0  0  0  0  0  0  0  0  0  0  0  0
    0.6747    2.8558    2.3368 C   0  0  0  0  0  0  0  0  0  0  0  0
   -0.3018    2.9877    2.8079 H   0  0  0  0  0  0  0  0  0  0  0  0
    1.4516    2.8997    3.1011 H   0  0  0  0  0  0  0  0  0  0  0  0
    0.8279    3.6639    1.6193 H   0  0  0  0  0  0  0  0  0  0  0  0
  5  6  2  0  0  0  0
  5  7  1  0  0  0  0
  2  3  1  0  0  0  0
  2  4  1  0  0  0  0
  2  5  1  0  0  0  0
  1  2  1  0  0  0  0
 18 19  2  0  0  0  0
 18 20  1  0  0  0  0
 16 17  1  0  0  0  0
 14 15  2  0  0  0  0
 14 16  1  0  0  0  0
 11 12  1  0  0  0  0
 11 13  1  0  0  0  0
 11 14  1  0  0  0  0
  9 10  1  0  0  0  0
  9 11  1  0  0  0  0
  9 18  1  0  0  0  0
  7  8  1  0  0  0  0
  7  9  1  0  0  0  0
 22 23  1  0  0  0  0
 22 24  1  0  0  0  0
 22 25  1  0  0  0  0
 20 21  1  0  0  0  0
 20 22  1  0  0  0  0
M  END
$$$$
default_name
  -OEChem-02102213163D

 25 24  0     1  0  0  0  0  0999 V2000
   -2.7826   -3.8464    0.7821 H   0  0  0  0  0  0  0  0  0  0  0  0
   -2.8156   -2.8034    0.4711 C   0  0  0  0  0  0  0  0  0  0  0  0
   -3.4336   -2.2354    1.1641 H   0  0  0  0  0  0  0  0  0  0  0  0
   -3.2256   -2.7344   -0.5349 H   0  0  0  0  0  0  0  0  0  0  0  0
   -1.4126   -2.2444    0.4801 C   0  0  0  0  0  0  0  0  0  0  0  0
   -0.4686   -2.9534    0.8001 O   0  0  0  0  0  0  0  0  0  0  0  0
   -1.2736   -0.9704    0.1241 N   0  0  0  0  0  0  0  0  0  0  0  0
   -2.0996   -0.4354   -0.1019 H   0  0  0  0  0  0  0  0  0  0  0  0
   -0.0016   -0.2394    0.1271 C   0  0  1  0  0  0  0  0  0  0  0  0
    0.7164   -0.7963    0.7332 H   0  0  0  0  0  0  0  0  0  0  0  0
    0.5351   -0.1414   -1.3146 C   0  0  0  0  0  0  0  0  0  0  0  0
    0.4510   -1.1145   -1.8001 H   0  0  0  0  0  0  0  0  0  0  0  0
   -0.0660    0.5695   -1.8827 H   0  0  0  0  0  0  0  0  0  0  0  0
    2.0025    0.2694   -1.3894 C   0  0  0  0  0  0  0  0  0  0  0  0
    2.5819    0.6634   -2.3930 O   0  0  0  0  0  0  0  0  0  0  0  0
    2.6777    0.1652   -0.2295 O   0  0  0  0  0  0  0  0  0  0  0  0
    3.5666    0.4696   -0.4150 H   0  0  0  0  0  0  0  0  0  0  0  0
   -0.1923    1.1526    0.7617 C   0  0  0  0  0  0  0  0  0  0  0  0
   -1.1582    1.8438    0.4410 O   0  0  0  0  0  0  0  0  0  0  0  0
    0.7203    1.5683    1.6472 N   0  0  0  0  0  0  0  0  0  0  0  0
    1.5210    0.9664    1.8100 H   0  0  0  0  0  0  0  0  0  0  0  0
    0.6747    2.8558    2.3368 C   0  0  0  0  0  0  0  0  0  0  0  0
   -0.3018    2.9877    2.8079 H   0  0  0  0  0  0  0  0  0  0  0  0
    1.4516    2.8997    3.1011 H   0  0  0  0  0  0  0  0  0  0  0  0
    0.8279    3.6639    1.6193 H   0  0  0  0  0  0  0  0  0  0  0  0
  5  6  2  0  0  0  0
  5  7  1  0  0  0  0
  2  3  1  0  0  0  0
  2  4  1  0  0  0  0
  2  5  1  0  0  0  0
  1  2  1  0  0  0  0
 18 19  2  0  0  0  0
 18 20  1  0  0  0  0
 16 17  1  0  0  0  0
 14 15  2  0  0  0  0
 14 16  1  0  0  0  0
 11 12  1  0  0  0  0
 11 13  1  0  0  0  0
 11 14  1  0  0  0  0
  9 10  1  0  0  0  0
  9 11  1  0  0  0  0
  9 18  1  0  0  0  0
  7  8  1  0  0  0  0
  7  9  1  0  0  0  0
 22 23  1  0  0  0  0
 22 24  1  0  0  0  0
 22 25  1  0  0  0  0
 20 21  1  0  0  0  0
 20 22  1  0  0  0  0
M  END
$$$$
default_name
  -OEChem-02102213163D

 25 24  0     1  0  0  0  0  0999 V2000
   -2.7826   -3.8464    0.7821 H   0  0  0  0  0  0  0  0  0  0  0  0
   -2.8156   -2.8034    0.4711 C   0  0  0  0  0  0  0  0  0  0  0  0
   -3.4336   -2.2354    1.1641 H   0  0  0  0  0  0  0  0  0  0  0  0
   -3.2256   -2.7344   -0.5349 H   0  0  0  0  0  0  0  0  0  0  0  0
   -1.4126   -2.2444    0.4801 C   0  0  0  0  0  0  0  0  0  0  0  0
   -0.4686   -2.9534    0.8001 O   0  0  0  0  0  0  0  0  0  0  0  0
   -1.2736   -0.9704    0.1241 N   0  0  0  0  0  0  0  0  0  0  0  0
   -2.0996   -0.4354   -0.1019 H   0  0  0  0  0  0  0  0  0  0  0  0
   -0.0016   -0.2394    0.1271 C   0  0  1  0  0  0  0  0  0  0  0  0
    0.7164   -0.7963    0.7332 H   0  0  0  0  0  0  0  0  0  0  0  0
    0.5351   -0.1414   -1.3146 C   0  0  0  0  0  0  0  0  0  0  0  0
    0.4510   -1.1145   -1.8001 H   0  0  0  0  0  0  0  0  0  0  0  0
   -0.0660    0.5695   -1.8827 H   0  0  0  0  0  0  0  0  0  0  0  0
    2.0025    0.2694   -1.3894 C   0  0  0  0  0  0  0  0  0  0  0  0
    2.5206    0.8990   -2.3023 O   0  0  0  0  0  0  0  0  0  0  0  0
    2.7527   -0.1234   -0.3429 O   0  0  0  0  0  0  0  0  0  0  0  0
    3.6332    0.2143   -0.5099 H   0  0  0  0  0  0  0  0  0  0  0  0
   -0.1923    1.1526    0.7617 C   0  0  0  0  0  0  0  0  0  0  0  0
   -1.1582    1.8438    0.4410 O   0  0  0  0  0  0  0  0  0  0  0  0
    0.7203    1.5683    1.6472 N   0  0  0  0  0  0  0  0  0  0  0  0
    1.5210    0.9664    1.8100 H   0  0  0  0  0  0  0  0  0  0  0  0
    0.6747    2.8558    2.3368 C   0  0  0  0  0  0  0  0  0  0  0  0
   -0.3018    2.9877    2.8079 H   0  0  0  0  0  0  0  0  0  0  0  0
    1.4516    2.8997    3.1011 H   0  0  0  0  0  0  0  0  0  0  0  0
    0.8279    3.6639    1.6193 H   0  0  0  0  0  0  0  0  0  0  0  0
  5  6  2  0  0  0  0
  5  7  1  0  0  0  0
  2  3  1  0  0  0  0
  2  4  1  0  0  0  0
  2  5  1  0  0  0  0
  1  2  1  0  0  0  0
 18 19  2  0  0  0  0
 18 20  1  0  0  0  0
 16 17  1  0  0  0  0
 14 15  2  0  0  0  0
 14 16  1  0  0  0  0
 11 12  1  0  0  0  0
 11 13  1  0  0  0  0
 11 14  1  0  0  0  0
  9 10  1  0  0  0  0
  9 11  1  0  0  0  0
  9 18  1  0  0  0  0
  7  8  1  0  0  0  0
  7  9  1  0  0  0  0
 22 23  1  0  0  0  0
 22 24  1  0  0  0  0
 22 25  1  0  0  0  0
 20 21  1  0  0  0  0
 20 22  1  0  0  0  0
M  END
$$$$
default_name
  -OEChem-02102213163D

 25 24  0     1  0  0  0  0  0999 V2000
   -2.7826   -3.8464    0.7821 H   0  0  0  0  0  0  0  0  0  0  0  0
   -2.8156   -2.8034    0.4711 C   0  0  0  0  0  0  0  0  0  0  0  0
   -3.4336   -2.2354    1.1641 H   0  0  0  0  0  0  0  0  0  0  0  0
   -3.2256   -2.7344   -0.5349 H   0  0  0  0  0  0  0  0  0  0  0  0
   -1.4126   -2.2444    0.4801 C   0  0  0  0  0  0  0  0  0  0  0  0
   -0.4686   -2.9534    0.8001 O   0  0  0  0  0  0  0  0  0  0  0  0
   -1.2736   -0.9704    0.1241 N   0  0  0  0  0  0  0  0  0  0  0  0
   -2.0996   -0.4354   -0.1019 H   0  0  0  0  0  0  0  0  0  0  0  0
   -0.0016   -0.2394    0.1271 C   0  0  1  0  0  0  0  0  0  0  0  0
    0.7164   -0.7963    0.7332 H   0  0  0  0  0  0  0  0  0  0  0  0
    0.5351   -0.1414   -1.3146 C   0  0  0  0  0  0  0  0  0  0  0  0
    0.4510   -1.1145   -1.8001 H   0  0  0  0  0  0  0  0  0  0  0  0
   -0.0660    0.5695   -1.8827 H   0  0  0  0  0  0  0  0  0  0  0  0
    2.0025    0.2694   -1.3894 C   0  0  0  0  0  0  0  0  0  0  0  0
    2.4707    1.1048   -2.1517 O   0  0  0  0  0  0  0  0  0  0  0  0
    2.8136   -0.3748   -0.5296 O   0  0  0  0  0  0  0  0  0  0  0  0
    3.6878   -0.0096   -0.6697 H   0  0  0  0  0  0  0  0  0  0  0  0
   -0.1923    1.1526    0.7617 C   0  0  0  0  0  0  0  0  0  0  0  0
   -1.1582    1.8438    0.4410 O   0  0  0  0  0  0  0  0  0  0  0  0
    0.7203    1.5683    1.6472 N   0  0  0  0  0  0  0  0  0  0  0  0
    1.5210    0.9664    1.8100 H   0  0  0  0  0  0  0  0  0  0  0  0
    0.6747    2.8558    2.3368 C   0  0  0  0  0  0  0  0  0  0  0  0
   -0.3018    2.9877    2.8079 H   0  0  0  0  0  0  0  0  0  0  0  0
    1.4516    2.8997    3.1011 H   0  0  0  0  0  0  0  0  0  0  0  0
    0.8279    3.6639    1.6193 H   0  0  0  0  0  0  0  0  0  0  0  0
  5  6  2  0  0  0  0
  5  7  1  0  0  0  0
  2  3  1  0  0  0  0
  2  4  1  0  0  0  0
  2  5  1  0  0  0  0
  1  2  1  0  0  0  0
 18 19  2  0  0  0  0
 18 20  1  0  0  0  0
 16 17  1  0  0  0  0
 14 15  2  0  0  0  0
 14 16  1  0  0  0  0
 11 12  1  0  0  0  0
 11 13  1  0  0  0  0
 11 14  1  0  0  0  0
  9 10  1  0  0  0  0
  9 11  1  0  0  0  0
  9 18  1  0  0  0  0
  7  8  1  0  0  0  0
  7  9  1  0  0  0  0
 22 23  1  0  0  0  0
 22 24  1  0  0  0  0
 22 25  1  0  0  0  0
 20 21  1  0  0  0  0
 20 22  1  0  0  0  0
M  END
$$$$
default_name
  -OEChem-02102213163D

 25 24  0     1  0  0  0  0  0999 V2000
   -2.7826   -3.8464    0.7821 H   0  0  0  0  0  0  0  0  0  0  0  0
   -2.8156   -2.8034    0.4711 C   0  0  0  0  0  0  0  0  0  0  0  0
   -3.4336   -2.2354    1.1641 H   0  0  0  0  0  0  0  0  0  0  0  0
   -3.2256   -2.7344   -0.5349 H   0  0  0  0  0  0  0  0  0  0  0  0
   -1.4126   -2.2444    0.4801 C   0  0  0  0  0  0  0  0  0  0  0  0
   -0.4686   -2.9534    0.8001 O   0  0  0  0  0  0  0  0  0  0  0  0
   -1.2736   -0.9704    0.1241 N   0  0  0  0  0  0  0  0  0  0  0  0
   -2.0996   -0.4354   -0.1019 H   0  0  0  0  0  0  0  0  0  0  0  0
   -0.0016   -0.2394    0.1271 C   0  0  1  0  0  0  0  0  0  0  0  0
    0.7164   -0.7963    0.7332 H   0  0  0  0  0  0  0  0  0  0  0  0
    0.5351   -0.1414   -1.3146 C   0  0  0  0  0  0  0  0  0  0  0  0
    0.4510   -1.1145   -1.8001 H   0  0  0  0  0  0  0  0  0  0  0  0
   -0.0660    0.5695   -1.8827 H   0  0  0  0  0  0  0  0  0  0  0  0
    2.0025    0.2694   -1.3894 C   0  0  0  0  0  0  0  0  0  0  0  0
    2.4355    1.2667   -1.9516 O   0  0  0  0  0  0  0  0  0  0  0  0
    2.8562   -0.5720   -0.7767 O   0  0  0  0  0  0  0  0  0  0  0  0
    3.7265   -0.1867   -0.8836 H   0  0  0  0  0  0  0  0  0  0  0  0
   -0.1923    1.1526    0.7617 C   0  0  0  0  0  0  0  0  0  0  0  0
   -1.1582    1.8438    0.4410 O   0  0  0  0  0  0  0  0  0  0  0  0
    0.7203    1.5683    1.6472 N   0  0  0  0  0  0  0  0  0  0  0  0
    1.5210    0.9664    1.8100 H   0  0  0  0  0  0  0  0  0  0  0  0
    0.6747    2.8558    2.3368 C   0  0  0  0  0  0  0  0  0  0  0  0
   -0.3018    2.9877    2.8079 H   0  0  0  0  0  0  0  0  0  0  0  0
    1.4516    2.8997    3.1011 H   0  0  0  0  0  0  0  0  0  0  0  0
    0.8279    3.6639    1.6193 H   0  0  0  0  0  0  0  0  0  0  0  0
  5  6  2  0  0  0  0
  5  7  1  0  0  0  0
  2  3  1  0  0  0  0
  2  4  1  0  0  0  0
  2  5  1  0  0  0  0
  1  2  1  0  0  0  0
 18 19  2  0  0  0  0
 18 20  1  0  0  0  0
 16 17  1  0  0  0  0
 14 15  2  0  0  0  0
 14 16  1  0  0  0  0
 11 12  1  0  0  0  0
 11 13  1  0  0  0  0
 11 14  1  0  0  0  0
  9 10  1  0  0  0  0
  9 11  1  0  0  0  0
  9 18  1  0  0  0  0
  7  8  1  0  0  0  0
  7  9  1  0  0  0  0
 22 23  1  0  0  0  0
 22 24  1  0  0  0  0
 22 25  1  0  0  0  0
 20 21  1  0  0  0  0
 20 22  1  0  0  0  0
M  END
$$$$
default_name
  -OEChem-02102213163D

 25 24  0     1  0  0  0  0  0999 V2000
   -2.7826   -3.8464    0.7821 H   0  0  0  0  0  0  0  0  0  0  0  0
   -2.8156   -2.8034    0.4711 C   0  0  0  0  0  0  0  0  0  0  0  0
   -3.4336   -2.2354    1.1641 H   0  0  0  0  0  0  0  0  0  0  0  0
   -3.2256   -2.7344   -0.5349 H   0  0  0  0  0  0  0  0  0  0  0  0
   -1.4126   -2.2444    0.4801 C   0  0  0  0  0  0  0  0  0  0  0  0
   -0.4686   -2.9534    0.8001 O   0  0  0  0  0  0  0  0  0  0  0  0
   -1.2736   -0.9704    0.1241 N   0  0  0  0  0  0  0  0  0  0  0  0
   -2.0996   -0.4354   -0.1019 H   0  0  0  0  0  0  0  0  0  0  0  0
   -0.0016   -0.2394    0.1271 C   0  0  1  0  0  0  0  0  0  0  0  0
    0.7164   -0.7963    0.7332 H   0  0  0  0  0  0  0  0  0  0  0  0
    0.5351   -0.1414   -1.3146 C   0  0  0  0  0  0  0  0  0  0  0  0
    0.4510   -1.1145   -1.8001 H   0  0  0  0  0  0  0  0  0  0  0  0
   -0.0660    0.5695   -1.8827 H   0  0  0  0  0  0  0  0  0  0  0  0
    2.0025    0.2694   -1.3894 C   0  0  0  0  0  0  0  0  0  0  0  0
    2.4176    1.3737   -1.7155 O   0  0  0  0  0  0  0  0  0  0  0  0
    2.8776   -0.7015   -1.0675 O   0  0  0  0  0  0  0  0  0  0  0  0
    3.7467   -0.3051   -1.1371 H   0  0  0  0  0  0  0  0  0  0  0  0
   -0.1923    1.1526    0.7617 C   0  0  0  0  0  0  0  0  0  0  0  0
   -1.1582    1.8438    0.4410 O   0  0  0  0  0  0  0  0  0  0  0  0
    0.7203    1.5683    1.6472 N   0  0  0  0  0  0  0  0  0  0  0  0
    1.5210    0.9664    1.8100 H   0  0  0  0  0  0  0  0  0  0  0  0
    0.6747    2.8558    2.3368 C   0  0  0  0  0  0  0  0  0  0  0  0
   -0.3018    2.9877    2.8079 H   0  0  0  0  0  0  0  0  0  0  0  0
    1.4516    2.8997    3.1011 H   0  0  0  0  0  0  0  0  0  0  0  0
    0.8279    3.6639    1.6193 H   0  0  0  0  0  0  0  0  0  0  0  0
  5  6  2  0  0  0  0
  5  7  1  0  0  0  0
  2  3  1  0  0  0  0
  2  4  1  0  0  0  0
  2  5  1  0  0  0  0
  1  2  1  0  0  0  0
 18 19  2  0  0  0  0
 18 20  1  0  0  0  0
 16 17  1  0  0  0  0
 14 15  2  0  0  0  0
 14 16  1  0  0  0  0
 11 12  1  0  0  0  0
 11 13  1  0  0  0  0
 11 14  1  0  0  0  0
  9 10  1  0  0  0  0
  9 11  1  0  0  0  0
  9 18  1  0  0  0  0
  7  8  1  0  0  0  0
  7  9  1  0  0  0  0
 22 23  1  0  0  0  0
 22 24  1  0  0  0  0
 22 25  1  0  0  0  0
 20 21  1  0  0  0  0
 20 22  1  0  0  0  0
M  END
$$$$
default_name
  -OEChem-02102213163D

 25 24  0     1  0  0  0  0  0999 V2000
   -2.7826   -3.8464    0.7821 H   0  0  0  0  0  0  0  0  0  0  0  0
   -2.8156   -2.8034    0.4711 C   0  0  0  0  0  0  0  0  0  0  0  0
   -3.4336   -2.2354    1.1641 H   0  0  0  0  0  0  0  0  0  0  0  0
   -3.2256   -2.7344   -0.5349 H   0  0  0  0  0  0  0  0  0  0  0  0
   -1.4126   -2.2444    0.4801 C   0  0  0  0  0  0  0  0  0  0  0  0
   -0.4686   -2.9534    0.8001 O   0  0  0  0  0  0  0  0  0  0  0  0
   -1.2736   -0.9704    0.1241 N   0  0  0  0  0  0  0  0  0  0  0  0
   -2.0996   -0.4354   -0.1019 H   0  0  0  0  0  0  0  0  0  0  0  0
   -0.0016   -0.2394    0.1271 C   0  0  1  0  0  0  0  0  0  0  0  0
    0.7164   -0.7963    0.7332 H   0  0  0  0  0  0  0  0  0  0  0  0
    0.5351   -0.1414   -1.3146 C   0  0  0  0  0  0  0  0  0  0  0  0
    0.4510   -1.1145   -1.8001 H   0  0  0  0  0  0  0  0  0  0  0  0
   -0.0660    0.5695   -1.8827 H   0  0  0  0  0  0  0  0  0  0  0  0
    2.0025    0.2694   -1.3894 C   0  0  0  0  0  0  0  0  0  0  0  0
    2.4181    1.4186   -1.4596 O   0  0  0  0  0  0  0  0  0  0  0  0
    2.8764   -0.7544   -1.3820 O   0  0  0  0  0  0  0  0  0  0  0  0
    3.7471   -0.3566   -1.4127 H   0  0  0  0  0  0  0  0  0  0  0  0
   -0.1923    1.1526    0.7617 C   0  0  0  0  0  0  0  0  0  0  0  0
   -1.1582    1.8438    0.4410 O   0  0  0  0  0  0  0  0  0  0  0  0
    0.7203    1.5683    1.6472 N   0  0  0  0  0  0  0  0  0  0  0  0
    1.5210    0.9664    1.8100 H   0  0  0  0  0  0  0  0  0  0  0  0
    0.6747    2.8558    2.3368 C   0  0  0  0  0  0  0  0  0  0  0  0
   -0.3018    2.9877    2.8079 H   0  0  0  0  0  0  0  0  0  0  0  0
    1.4516    2.8997    3.1011 H   0  0  0  0  0  0  0  0  0  0  0  0
    0.8279    3.6639    1.6193 H   0  0  0  0  0  0  0  0  0  0  0  0
  5  6  2  0  0  0  0
  5  7  1  0  0  0  0
  2  3  1  0  0  0  0
  2  4  1  0  0  0  0
  2  5  1  0  0  0  0
  1  2  1  0  0  0  0
 18 19  2  0  0  0  0
 18 20  1  0  0  0  0
 16 17  1  0  0  0  0
 14 15  2  0  0  0  0
 14 16  1  0  0  0  0
 11 12  1  0  0  0  0
 11 13  1  0  0  0  0
 11 14  1  0  0  0  0
  9 10  1  0  0  0  0
  9 11  1  0  0  0  0
  9 18  1  0  0  0  0
  7  8  1  0  0  0  0
  7  9  1  0  0  0  0
 22 23  1  0  0  0  0
 22 24  1  0  0  0  0
 22 25  1  0  0  0  0
 20 21  1  0  0  0  0
 20 22  1  0  0  0  0
M  END
$$$$
default_name
  -OEChem-02102213163D

 25 24  0     1  0  0  0  0  0999 V2000
   -2.7826   -3.8464    0.7821 H   0  0  0  0  0  0  0  0  0  0  0  0
   -2.8156   -2.8034    0.4711 C   0  0  0  0  0  0  0  0  0  0  0  0
   -3.4336   -2.2354    1.1641 H   0  0  0  0  0  0  0  0  0  0  0  0
   -3.2256   -2.7344   -0.5349 H   0  0  0  0  0  0  0  0  0  0  0  0
   -1.4126   -2.2444    0.4801 C   0  0  0  0  0  0  0  0  0  0  0  0
   -0.4686   -2.9534    0.8001 O   0  0  0  0  0  0  0  0  0  0  0  0
   -1.2736   -0.9704    0.1241 N   0  0  0  0  0  0  0  0  0  0  0  0
   -2.0996   -0.4354   -0.1019 H   0  0  0  0  0  0  0  0  0  0  0  0
   -0.0016   -0.2394    0.1271 C   0  0  1  0  0  0  0  0  0  0  0  0
    0.7164   -0.7963    0.7332 H   0  0  0  0  0  0  0  0  0  0  0  0
    0.5351   -0.1414   -1.3146 C   0  0  0  0  0  0  0  0  0  0  0  0
    0.4510   -1.1145   -1.8001 H   0  0  0  0  0  0  0  0  0  0  0  0
   -0.0660    0.5695   -1.8827 H   0  0  0  0  0  0  0  0  0  0  0  0
    2.0025    0.2694   -1.3894 C   0  0  0  0  0  0  0  0  0  0  0  0
    2.4369    1.3982   -1.2013 O   0  0  0  0  0  0  0  0  0  0  0  0
    2.8527   -0.7273   -1.6990 O   0  0  0  0  0  0  0  0  0  0  0  0
    3.7276   -0.3377   -1.6918 H   0  0  0  0  0  0  0  0  0  0  0  0
   -0.1923    1.1526    0.7617 C   0  0  0  0  0  0  0  0  0  0  0  0
   -1.1582    1.8438    0.4410 O   0  0  0  0  0  0  0  0  0  0  0  0
    0.7203    1.5683    1.6472 N   0  0  0  0  0  0  0  0  0  0  0  0
    1.5210    0.9664    1.8100 H   0  0  0  0  0  0  0  0  0  0  0  0
    0.6747    2.8558    2.3368 C   0  0  0  0  0  0  0  0  0  0  0  0
   -0.3018    2.9877    2.8079 H   0  0  0  0  0  0  0  0  0  0  0  0
    1.4516    2.8997    3.1011 H   0  0  0  0  0  0  0  0  0  0  0  0
    0.8279    3.6639    1.6193 H   0  0  0  0  0  0  0  0  0  0  0  0
  5  6  2  0  0  0  0
  5  7  1  0  0  0  0
  2  3  1  0  0  0  0
  2  4  1  0  0  0  0
  2  5  1  0  0  0  0
  1  2  1  0  0  0  0
 18 19  2  0  0  0  0
 18 20  1  0  0  0  0
 16 17  1  0  0  0  0
 14 15  2  0  0  0  0
 14 16  1  0  0  0  0
 11 12  1  0  0  0  0
 11 13  1  0  0  0  0
 11 14  1  0  0  0  0
  9 10  1  0  0  0  0
  9 11  1  0  0  0  0
  9 18  1  0  0  0  0
  7  8  1  0  0  0  0
  7  9  1  0  0  0  0
 22 23  1  0  0  0  0
 22 24  1  0  0  0  0
 22 25  1  0  0  0  0
 20 21  1  0  0  0  0
 20 22  1  0  0  0  0
M  END
$$$$
default_name
  -OEChem-02102213163D

 25 24  0     1  0  0  0  0  0999 V2000
   -2.7826   -3.8464    0.7821 H   0  0  0  0  0  0  0  0  0  0  0  0
   -2.8156   -2.8034    0.4711 C   0  0  0  0  0  0  0  0  0  0  0  0
   -3.4336   -2.2354    1.1641 H   0  0  0  0  0  0  0  0  0  0  0  0
   -3.2256   -2.7344   -0.5349 H   0  0  0  0  0  0  0  0  0  0  0  0
   -1.4126   -2.2444    0.4801 C   0  0  0  0  0  0  0  0  0  0  0  0
   -0.4686   -2.9534    0.8001 O   0  0  0  0  0  0  0  0  0  0  0  0
   -1.2736   -0.9704    0.1241 N   0  0  0  0  0  0  0  0  0  0  0  0
   -2.0996   -0.4354   -0.1019 H   0  0  0  0  0  0  0  0  0  0  0  0
   -0.0016   -0.2394    0.1271 C   0  0  1  0  0  0  0  0  0  0  0  0
    0.7164   -0.7963    0.7332 H   0  0  0  0  0  0  0  0  0  0  0  0
    0.5351   -0.1414   -1.3146 C   0  0  0  0  0  0  0  0  0  0  0  0
    0.4510   -1.1145   -1.8001 H   0  0  0  0  0  0  0  0  0  0  0  0
   -0.0660    0.5695   -1.8827 H   0  0  0  0  0  0  0  0  0  0  0  0
    2.0025    0.2694   -1.3894 C   0  0  0  0  0  0  0  0  0  0  0  0
    2.4729    1.3139   -0.9582 O   0  0  0  0  0  0  0  0  0  0  0  0
    2.8080   -0.6218   -1.9967 O   0  0  0  0  0  0  0  0  0  0  0  0
    3.6895   -0.2497   -1.9554 H   0  0  0  0  0  0  0  0  0  0  0  0
   -0.1923    1.1526    0.7617 C   0  0  0  0  0  0  0  0  0  0  0  0
   -1.1582    1.8438    0.4410 O   0  0  0  0  0  0  0  0  0  0  0  0
    0.7203    1.5683    1.6472 N   0  0  0  0  0  0  0  0  0  0  0  0
    1.5210    0.9664    1.8100 H   0  0  0  0  0  0  0  0  0  0  0  0
    0.6747    2.8558    2.3368 C   0  0  0  0  0  0  0  0  0  0  0  0
   -0.3018    2.9877    2.8079 H   0  0  0  0  0  0  0  0  0  0  0  0
    1.4516    2.8997    3.1011 H   0  0  0  0  0  0  0  0  0  0  0  0
    0.8279    3.6639    1.6193 H   0  0  0  0  0  0  0  0  0  0  0  0
  5  6  2  0  0  0  0
  5  7  1  0  0  0  0
  2  3  1  0  0  0  0
  2  4  1  0  0  0  0
  2  5  1  0  0  0  0
  1  2  1  0  0  0  0
 18 19  2  0  0  0  0
 18 20  1  0  0  0  0
 16 17  1  0  0  0  0
 14 15  2  0  0  0  0
 14 16  1  0  0  0  0
 11 12  1  0  0  0  0
 11 13  1  0  0  0  0
 11 14  1  0  0  0  0
  9 10  1  0  0  0  0
  9 11  1  0  0  0  0
  9 18  1  0  0  0  0
  7  8  1  0  0  0  0
  7  9  1  0  0  0  0
 22 23  1  0  0  0  0
 22 24  1  0  0  0  0
 22 25  1  0  0  0  0
 20 21  1  0  0  0  0
 20 22  1  0  0  0  0
M  END
$$$$
default_name
  -OEChem-02102213163D

 25 24  0     1  0  0  0  0  0999 V2000
   -2.7826   -3.8464    0.7821 H   0  0  0  0  0  0  0  0  0  0  0  0
   -2.8156   -2.8034    0.4711 C   0  0  0  0  0  0  0  0  0  0  0  0
   -3.4336   -2.2354    1.1641 H   0  0  0  0  0  0  0  0  0  0  0  0
   -3.2256   -2.7344   -0.5349 H   0  0  0  0  0  0  0  0  0  0  0  0
   -1.4126   -2.2444    0.4801 C   0  0  0  0  0  0  0  0  0  0  0  0
   -0.4686   -2.9534    0.8001 O   0  0  0  0  0  0  0  0  0  0  0  0
   -1.2736   -0.9704    0.1241 N   0  0  0  0  0  0  0  0  0  0  0  0
   -2.0996   -0.4354   -0.1019 H   0  0  0  0  0  0  0  0  0  0  0  0
   -0.0016   -0.2394    0.1271 C   0  0  1  0  0  0  0  0  0  0  0  0
    0.7164   -0.7963    0.7332 H   0  0  0  0  0  0  0  0  0  0  0  0
    0.5351   -0.1414   -1.3146 C   0  0  0  0  0  0  0  0  0  0  0  0
    0.4510   -1.1145   -1.8001 H   0  0  0  0  0  0  0  0  0  0  0  0
   -0.0660    0.5695   -1.8827 H   0  0  0  0  0  0  0  0  0  0  0  0
    2.0025    0.2694   -1.3894 C   0  0  0  0  0  0  0  0  0  0  0  0
    2.5235    1.1716   -0.7468 O   0  0  0  0  0  0  0  0  0  0  0  0
    2.7455   -0.4453   -2.2550 O   0  0  0  0  0  0  0  0  0  0  0  0
    3.6355   -0.0987   -2.1854 H   0  0  0  0  0  0  0  0  0  0  0  0
   -0.1923    1.1526    0.7617 C   0  0  0  0  0  0  0  0  0  0  0  0
   -1.1582    1.8438    0.4410 O   0  0  0  0  0  0  0  0  0  0  0  0
    0.7203    1.5683    1.6472 N   0  0  0  0  0  0  0  0  0  0  0  0
    1.5210    0.9664    1.8100 H   0  0  0  0  0  0  0  0  0  0  0  0
    0.6747    2.8558    2.3368 C   0  0  0  0  0  0  0  0  0  0  0  0
   -0.3018    2.9877    2.8079 H   0  0  0  0  0  0  0  0  0  0  0  0
    1.4516    2.8997    3.1011 H   0  0  0  0  0  0  0  0  0  0  0  0
    0.8279    3.6639    1.6193 H   0  0  0  0  0  0  0  0  0  0  0  0
  5  6  2  0  0  0  0
  5  7  1  0  0  0  0
  2  3  1  0  0  0  0
  2  4  1  0  0  0  0
  2  5  1  0  0  0  0
  1  2  1  0  0  0  0
 18 19  2  0  0  0  0
 18 20  1  0  0  0  0
 16 17  1  0  0  0  0
 14 15  2  0  0  0  0
 14 16  1  0  0  0  0
 11 12  1  0  0  0  0
 11 13  1  0  0  0  0
 11 14  1  0  0  0  0
  9 10  1  0  0  0  0
  9 11  1  0  0  0  0
  9 18  1  0  0  0  0
  7  8  1  0  0  0  0
  7  9  1  0  0  0  0
 22 23  1  0  0  0  0
 22 24  1  0  0  0  0
 22 25  1  0  0  0  0
 20 21  1  0  0  0  0
 20 22  1  0  0  0  0
M  END
$$$$
default_name
  -OEChem-02102213163D

 25 24  0     1  0  0  0  0  0999 V2000
   -2.7826   -3.8464    0.7821 H   0  0  0  0  0  0  0  0  0  0  0  0
   -2.8156   -2.8034    0.4711 C   0  0  0  0  0  0  0  0  0  0  0  0
   -3.4336   -2.2354    1.1641 H   0  0  0  0  0  0  0  0  0  0  0  0
   -3.2256   -2.7344   -0.5349 H   0  0  0  0  0  0  0  0  0  0  0  0
   -1.4126   -2.2444    0.4801 C   0  0  0  0  0  0  0  0  0  0  0  0
   -0.4686   -2.9534    0.8001 O   0  0  0  0  0  0  0  0  0  0  0  0
   -1.2736   -0.9704    0.1241 N   0  0  0  0  0  0  0  0  0  0  0  0
   -2.0996   -0.4354   -0.1019 H   0  0  0  0  0  0  0  0  0  0  0  0
   -0.0016   -0.2394    0.1271 C   0  0  1  0  0  0  0  0  0  0  0  0
    0.7164   -0.7963    0.7332 H   0  0  0  0  0  0  0  0  0  0  0  0
    0.5351   -0.1414   -1.3146 C   0  0  0  0  0  0  0  0  0  0  0  0
    0.4510   -1.1145   -1.8001 H   0  0  0  0  0  0  0  0  0  0  0  0
   -0.0660    0.5695   -1.8827 H   0  0  0  0  0  0  0  0  0  0  0  0
    2.0025    0.2694   -1.3894 C   0  0  0  0  0  0  0  0  0  0  0  0
    2.5853    0.9808   -0.5816 O   0  0  0  0  0  0  0  0  0  0  0  0
    2.6693   -0.2097   -2.4561 O   0  0  0  0  0  0  0  0  0  0  0  0
    3.5692    0.1052   -2.3662 H   0  0  0  0  0  0  0  0  0  0  0  0
   -0.1923    1.1526    0.7617 C   0  0  0  0  0  0  0  0  0  0  0  0
   -1.1582    1.8438    0.4410 O   0  0  0  0  0  0  0  0  0  0  0  0
    0.7203    1.5683    1.6472 N   0  0  0  0  0  0  0  0  0  0  0  0
    1.5210    0.9664    1.8100 H   0  0  0  0  0  0  0  0  0  0  0  0
    0.6747    2.8558    2.3368 C   0  0  0  0  0  0  0  0  0  0  0  0
   -0.3018    2.9877    2.8079 H   0  0  0  0  0  0  0  0  0  0  0  0
    1.4516    2.8997    3.1011 H   0  0  0  0  0  0  0  0  0  0  0  0
    0.8279    3.6639    1.6193 H   0  0  0  0  0  0  0  0  0  0  0  0
  5  6  2  0  0  0  0
  5  7  1  0  0  0  0
  2  3  1  0  0  0  0
  2  4  1  0  0  0  0
  2  5  1  0  0  0  0
  1  2  1  0  0  0  0
 18 19  2  0  0  0  0
 18 20  1  0  0  0  0
 16 17  1  0  0  0  0
 14 15  2  0  0  0  0
 14 16  1  0  0  0  0
 11 12  1  0  0  0  0
 11 13  1  0  0  0  0
 11 14  1  0  0  0  0
  9 10  1  0  0  0  0
  9 11  1  0  0  0  0
  9 18  1  0  0  0  0
  7  8  1  0  0  0  0
  7  9  1  0  0  0  0
 22 23  1  0  0  0  0
 22 24  1  0  0  0  0
 22 25  1  0  0  0  0
 20 21  1  0  0  0  0
 20 22  1  0  0  0  0
M  END
$$$$
default_name
  -OEChem-02102213163D

 25 24  0     1  0  0  0  0  0999 V2000
   -2.7826   -3.8464    0.7821 H   0  0  0  0  0  0  0  0  0  0  0  0
   -2.8156   -2.8034    0.4711 C   0  0  0  0  0  0  0  0  0  0  0  0
   -3.4336   -2.2354    1.1641 H   0  0  0  0  0  0  0  0  0  0  0  0
   -3.2256   -2.7344   -0.5349 H   0  0  0  0  0  0  0  0  0  0  0  0
   -1.4126   -2.2444    0.4801 C   0  0  0  0  0  0  0  0  0  0  0  0
   -0.4686   -2.9534    0.8001 O   0  0  0  0  0  0  0  0  0  0  0  0
   -1.2736   -0.9704    0.1241 N   0  0  0  0  0  0  0  0  0  0  0  0
   -2.0996   -0.4354   -0.1019 H   0  0  0  0  0  0  0  0  0  0  0  0
   -0.0016   -0.2394    0.1271 C   0  0  1  0  0  0  0  0  0  0  0  0
    0.7164   -0.7963    0.7332 H   0  0  0  0  0  0  0  0  0  0  0  0
    0.5351   -0.1414   -1.3146 C   0  0  0  0  0  0  0  0  0  0  0  0
    0.4510   -1.1145   -1.8001 H   0  0  0  0  0  0  0  0  0  0  0  0
   -0.0660    0.5695   -1.8827 H   0  0  0  0  0  0  0  0  0  0  0  0
    2.0025    0.2694   -1.3894 C   0  0  0  0  0  0  0  0  0  0  0  0
    2.6541    0.7546   -0.4738 O   0  0  0  0  0  0  0  0  0  0  0  0
    2.5846    0.0689   -2.5864 O   0  0  0  0  0  0  0  0  0  0  0  0
    3.4952    0.3480   -2.4855 H   0  0  0  0  0  0  0  0  0  0  0  0
   -0.1923    1.1526    0.7617 C   0  0  0  0  0  0  0  0  0  0  0  0
   -1.1582    1.8438    0.4410 O   0  0  0  0  0  0  0  0  0  0  0  0
    0.7203    1.5683    1.6472 N   0  0  0  0  0  0  0  0  0  0  0  0
    1.5210    0.9664    1.8100 H   0  0  0  0  0  0  0  0  0  0  0  0
    0.6747    2.8558    2.3368 C   0  0  0  0  0  0  0  0  0  0  0  0
   -0.3018    2.9877    2.8079 H   0  0  0  0  0  0  0  0  0  0  0  0
    1.4516    2.8997    3.1011 H   0  0  0  0  0  0  0  0  0  0  0  0
    0.8279    3.6639    1.6193 H   0  0  0  0  0  0  0  0  0  0  0  0
  5  6  2  0  0  0  0
  5  7  1  0  0  0  0
  2  3  1  0  0  0  0
  2  4  1  0  0  0  0
  2  5  1  0  0  0  0
  1  2  1  0  0  0  0
 18 19  2  0  0  0  0
 18 20  1  0  0  0  0
 16 17  1  0  0  0  0
 14 15  2  0  0  0  0
 14 16  1  0  0  0  0
 11 12  1  0  0  0  0
 11 13  1  0  0  0  0
 11 14  1  0  0  0  0
  9 10  1  0  0  0  0
  9 11  1  0  0  0  0
  9 18  1  0  0  0  0
  7  8  1  0  0  0  0
  7  9  1  0  0  0  0
 22 23  1  0  0  0  0
 22 24  1  0  0  0  0
 22 25  1  0  0  0  0
 20 21  1  0  0  0  0
 20 22  1  0  0  0  0
M  END
$$$$
default_name
  -OEChem-02102213163D

 25 24  0     1  0  0  0  0  0999 V2000
   -2.7826   -3.8464    0.7821 H   0  0  0  0  0  0  0  0  0  0  0  0
   -2.8156   -2.8034    0.4711 C   0  0  0  0  0  0  0  0  0  0  0  0
   -3.4336   -2.2354    1.1641 H   0  0  0  0  0  0  0  0  0  0  0  0
   -3.2256   -2.7344   -0.5349 H   0  0  0  0  0  0  0  0  0  0  0  0
   -1.4126   -2.2444    0.4801 C   0  0  0  0  0  0  0  0  0  0  0  0
   -0.4686   -2.9534    0.8001 O   0  0  0  0  0  0  0  0  0  0  0  0
   -1.2736   -0.9704    0.1241 N   0  0  0  0  0  0  0  0  0  0  0  0
   -2.0996   -0.4354   -0.1019 H   0  0  0  0  0  0  0  0  0  0  0  0
   -0.0016   -0.2394    0.1271 C   0  0  1  0  0  0  0  0  0  0  0  0
    0.7164   -0.7963    0.7332 H   0  0  0  0  0  0  0  0  0  0  0  0
    0.5351   -0.1414   -1.3146 C   0  0  0  0  0  0  0  0  0  0  0  0
    0.4510   -1.1145   -1.8001 H   0  0  0  0  0  0  0  0  0  0  0  0
   -0.0660    0.5695   -1.8827 H   0  0  0  0  0  0  0  0  0  0  0  0
    2.0025    0.2694   -1.3894 C   0  0  0  0  0  0  0  0  0  0  0  0
    2.7252    0.5084   -0.4308 O   0  0  0  0  0  0  0  0  0  0  0  0
    2.4973    0.3715   -2.6370 O   0  0  0  0  0  0  0  0  0  0  0  0
    3.4185    0.6131   -2.5351 H   0  0  0  0  0  0  0  0  0  0  0  0
   -0.1923    1.1526    0.7617 C   0  0  0  0  0  0  0  0  0  0  0  0
   -1.1582    1.8438    0.4410 O   0  0  0  0  0  0  0  0  0  0  0  0
    0.7203    1.5683    1.6472 N   0  0  0  0  0  0  0  0  0  0  0  0
    1.5210    0.9664    1.8100 H   0  0  0  0  0  0  0  0  0  0  0  0
    0.6747    2.8558    2.3368 C   0  0  0  0  0  0  0  0  0  0  0  0
   -0.3018    2.9877    2.8079 H   0  0  0  0  0  0  0  0  0  0  0  0
    1.4516    2.8997    3.1011 H   0  0  0  0  0  0  0  0  0  0  0  0
    0.8279    3.6639    1.6193 H   0  0  0  0  0  0  0  0  0  0  0  0
  5  6  2  0  0  0  0
  5  7  1  0  0  0  0
  2  3  1  0  0  0  0
  2  4  1  0  0  0  0
  2  5  1  0  0  0  0
  1  2  1  0  0  0  0
 18 19  2  0  0  0  0
 18 20  1  0  0  0  0
 16 17  1  0  0  0  0
 14 15  2  0  0  0  0
 14 16  1  0  0  0  0
 11 12  1  0  0  0  0
 11 13  1  0  0  0  0
 11 14  1  0  0  0  0
  9 10  1  0  0  0  0
  9 11  1  0  0  0  0
  9 18  1  0  0  0  0
  7  8  1  0  0  0  0
  7  9  1  0  0  0  0
 22 23  1  0  0  0  0
 22 24  1  0  0  0  0
 22 25  1  0  0  0  0
 20 21  1  0  0  0  0
 20 22  1  0  0  0  0
M  END
$$$$
default_name
  -OEChem-02102213163D

 25 24  0     1  0  0  0  0  0999 V2000
   -2.7826   -3.8464    0.7821 H   0  0  0  0  0  0  0  0  0  0  0  0
   -2.8156   -2.8034    0.4711 C   0  0  0  0  0  0  0  0  0  0  0  0
   -3.4336   -2.2354    1.1641 H   0  0  0  0  0  0  0  0  0  0  0  0
   -3.2256   -2.7344   -0.5349 H   0  0  0  0  0  0  0  0  0  0  0  0
   -1.4126   -2.2444    0.4801 C   0  0  0  0  0  0  0  0  0  0  0  0
   -0.4686   -2.9534    0.8001 O   0  0  0  0  0  0  0  0  0  0  0  0
   -1.2736   -0.9704    0.1241 N   0  0  0  0  0  0  0  0  0  0  0  0
   -2.0996   -0.4354   -0.1019 H   0  0  0  0  0  0  0  0  0  0  0  0
   -0.0016   -0.2394    0.1271 C   0  0  1  0  0  0  0  0  0  0  0  0
    0.7164   -0.7963    0.7332 H   0  0  0  0  0  0  0  0  0  0  0  0
    0.5351   -0.1414   -1.3146 C   0  0  0  0  0  0  0  0  0  0  0  0
    0.4510   -1.1145   -1.8001 H   0  0  0  0  0  0  0  0  0  0  0  0
   -0.0660    0.5695   -1.8827 H   0  0  0  0  0  0  0  0  0  0  0  0
    2.0025    0.2694   -1.3894 C   0  0  0  0  0  0  0  0  0  0  0  0
    2.7938    0.2591   -0.4555 O   0  0  0  0  0  0  0  0  0  0  0  0
    2.4133    0.6775   -2.6045 O   0  0  0  0  0  0  0  0  0  0  0  0
    3.3442    0.8825   -2.5117 H   0  0  0  0  0  0  0  0  0  0  0  0
   -0.1923    1.1526    0.7617 C   0  0  0  0  0  0  0  0  0  0  0  0
   -1.1582    1.8438    0.4410 O   0  0  0  0  0  0  0  0  0  0  0  0
    0.7203    1.5683    1.6472 N   0  0  0  0  0  0  0  0  0  0  0  0
    1.5210    0.9664    1.8100 H   0  0  0  0  0  0  0  0  0  0  0  0
    0.6747    2.8558    2.3368 C   0  0  0  0  0  0  0  0  0  0  0  0
   -0.3018    2.9877    2.8079 H   0  0  0  0  0  0  0  0  0  0  0  0
    1.4516    2.8997    3.1011 H   0  0  0  0  0  0  0  0  0  0  0  0
    0.8279    3.6639    1.6193 H   0  0  0  0  0  0  0  0  0  0  0  0
  5  6  2  0  0  0  0
  5  7  1  0  0  0  0
  2  3  1  0  0  0  0
  2  4  1  0  0  0  0
  2  5  1  0  0  0  0
  1  2  1  0  0  0  0
 18 19  2  0  0  0  0
 18 20  1  0  0  0  0
 16 17  1  0  0  0  0
 14 15  2  0  0  0  0
 14 16  1  0  0  0  0
 11 12  1  0  0  0  0
 11 13  1  0  0  0  0
 11 14  1  0  0  0  0
  9 10  1  0  0  0  0
  9 11  1  0  0  0  0
  9 18  1  0  0  0  0
  7  8  1  0  0  0  0
  7  9  1  0  0  0  0
 22 23  1  0  0  0  0
 22 24  1  0  0  0  0
 22 25  1  0  0  0  0
 20 21  1  0  0  0  0
 20 22  1  0  0  0  0
M  END
$$$$
default_name
  -OEChem-02102213163D

 25 24  0     1  0  0  0  0  0999 V2000
   -2.7826   -3.8464    0.7821 H   0  0  0  0  0  0  0  0  0  0  0  0
   -2.8156   -2.8034    0.4711 C   0  0  0  0  0  0  0  0  0  0  0  0
   -3.4336   -2.2354    1.1641 H   0  0  0  0  0  0  0  0  0  0  0  0
   -3.2256   -2.7344   -0.5349 H   0  0  0  0  0  0  0  0  0  0  0  0
   -1.4126   -2.2444    0.4801 C   0  0  0  0  0  0  0  0  0  0  0  0
   -0.4686   -2.9534    0.8001 O   0  0  0  0  0  0  0  0  0  0  0  0
   -1.2736   -0.9704    0.1241 N   0  0  0  0  0  0  0  0  0  0  0  0
   -2.0996   -0.4354   -0.1019 H   0  0  0  0  0  0  0  0  0  0  0  0
   -0.0016   -0.2394    0.1271 C   0  0  1  0  0  0  0  0  0  0  0  0
    0.7164   -0.7963    0.7332 H   0  0  0  0  0  0  0  0  0  0  0  0
    0.5351   -0.1414   -1.3146 C   0  0  0  0  0  0  0  0  0  0  0  0
    0.4510   -1.1145   -1.8001 H   0  0  0  0  0  0  0  0  0  0  0  0
   -0.0660    0.5695   -1.8827 H   0  0  0  0  0  0  0  0  0  0  0  0
    2.0025    0.2694   -1.3894 C   0  0  0  0  0  0  0  0  0  0  0  0
    2.8551    0.0234   -0.5462 O   0  0  0  0  0  0  0  0  0  0  0  0
    2.3383    0.9661   -2.4911 O   0  0  0  0  0  0  0  0  0  0  0  0
    3.2776    1.1379   -2.4168 H   0  0  0  0  0  0  0  0  0  0  0  0
   -0.1923    1.1526    0.7617 C   0  0  0  0  0  0  0  0  0  0  0  0
   -1.1582    1.8438    0.4410 O   0  0  0  0  0  0  0  0  0  0  0  0
    0.7203    1.5683    1.6472 N   0  0  0  0  0  0  0  0  0  0  0  0
    1.5210    0.9664    1.8100 H   0  0  0  0  0  0  0  0  0  0  0  0
    0.6747    2.8558    2.3368 C   0  0  0  0  0  0  0  0  0  0  0  0
   -0.3018    2.9877    2.8079 H   0  0  0  0  0  0  0  0  0  0  0  0
    1.4516    2.8997    3.1011 H   0  0  0  0  0  0  0  0  0  0  0  0
    0.8279    3.6639    1.6193 H   0  0  0  0  0  0  0  0  0  0  0  0
  5  6  2  0  0  0  0
  5  7  1  0  0  0  0
  2  3  1  0  0  0  0
  2  4  1  0  0  0  0
  2  5  1  0  0  0  0
  1  2  1  0  0  0  0
 18 19  2  0  0  0  0
 18 20  1  0  0  0  0
 16 17  1  0  0  0  0
 14 15  2  0  0  0  0
 14 16  1  0  0  0  0
 11 12  1  0  0  0  0
 11 13  1  0  0  0  0
 11 14  1  0  0  0  0
  9 10  1  0  0  0  0
  9 11  1  0  0  0  0
  9 18  1  0  0  0  0
  7  8  1  0  0  0  0
  7  9  1  0  0  0  0
 22 23  1  0  0  0  0
 22 24  1  0  0  0  0
 22 25  1  0  0  0  0
 20 21  1  0  0  0  0
 20 22  1  0  0  0  0
M  END
$$$$
default_name
  -OEChem-02102213163D

 25 24  0     1  0  0  0  0  0999 V2000
   -2.7826   -3.8464    0.7821 H   0  0  0  0  0  0  0  0  0  0  0  0
   -2.8156   -2.8034    0.4711 C   0  0  0  0  0  0  0  0  0  0  0  0
   -3.4336   -2.2354    1.1641 H   0  0  0  0  0  0  0  0  0  0  0  0
   -3.2256   -2.7344   -0.5349 H   0  0  0  0  0  0  0  0  0  0  0  0
   -1.4126   -2.2444    0.4801 C   0  0  0  0  0  0  0  0  0  0  0  0
   -0.4686   -2.9534    0.8001 O   0  0  0  0  0  0  0  0  0  0  0  0
   -1.2736   -0.9704    0.1241 N   0  0  0  0  0  0  0  0  0  0  0  0
   -2.0996   -0.4354   -0.1019 H   0  0  0  0  0  0  0  0  0  0  0  0
   -0.0016   -0.2394    0.1271 C   0  0  1  0  0  0  0  0  0  0  0  0
    0.7164   -0.7963    0.7332 H   0  0  0  0  0  0  0  0  0  0  0  0
    0.5351   -0.1414   -1.3146 C   0  0  0  0  0  0  0  0  0  0  0  0
    0.4510   -1.1145   -1.8001 H   0  0  0  0  0  0  0  0  0  0  0  0
   -0.0660    0.5695   -1.8827 H   0  0  0  0  0  0  0  0  0  0  0  0
    2.0025    0.2694   -1.3894 C   0  0  0  0  0  0  0  0  0  0  0  0
    2.9051   -0.1823   -0.6968 O   0  0  0  0  0  0  0  0  0  0  0  0
    2.2774    1.2175   -2.3044 O   0  0  0  0  0  0  0  0  0  0  0  0
    3.2230    1.3618   -2.2570 H   0  0  0  0  0  0  0  0  0  0  0  0
   -0.1923    1.1526    0.7617 C   0  0  0  0  0  0  0  0  0  0  0  0
   -1.1582    1.8438    0.4410 O   0  0  0  0  0  0  0  0  0  0  0  0
    0.7203    1.5683    1.6472 N   0  0  0  0  0  0  0  0  0  0  0  0
    1.5210    0.9664    1.8100 H   0  0  0  0  0  0  0  0  0  0  0  0
    0.6747    2.8558    2.3368 C   0  0  0  0  0  0  0  0  0  0  0  0
   -0.3018    2.9877    2.8079 H   0  0  0  0  0  0  0  0  0  0  0  0
    1.4516    2.8997    3.1011 H   0  0  0  0  0  0  0  0  0  0  0  0
    0.8279    3.6639    1.6193 H   0  0  0  0  0  0  0  0  0  0  0  0
  5  6  2  0  0  0  0
  5  7  1  0  0  0  0
  2  3  1  0  0  0  0
  2  4  1  0  0  0  0
  2  5  1  0  0  0  0
  1  2  1  0  0  0  0
 18 19  2  0  0  0  0
 18 20  1  0  0  0  0
 16 17  1  0  0  0  0
 14 15  2  0  0  0  0
 14 16  1  0  0  0  0
 11 12  1  0  0  0  0
 11 13  1  0  0  0  0
 11 14  1  0  0  0  0
  9 10  1  0  0  0  0
  9 11  1  0  0  0  0
  9 18  1  0  0  0  0
  7  8  1  0  0  0  0
  7  9  1  0  0  0  0
 22 23  1  0  0  0  0
 22 24  1  0  0  0  0
 22 25  1  0  0  0  0
 20 21  1  0  0  0  0
 20 22  1  0  0  0  0
M  END
$$$$
default_name
  -OEChem-02102213163D

 25 24  0     1  0  0  0  0  0999 V2000
   -2.7826   -3.8464    0.7821 H   0  0  0  0  0  0  0  0  0  0  0  0
   -2.8156   -2.8034    0.4711 C   0  0  0  0  0  0  0  0  0  0  0  0
   -3.4336   -2.2354    1.1641 H   0  0  0  0  0  0  0  0  0  0  0  0
   -3.2256   -2.7344   -0.5349 H   0  0  0  0  0  0  0  0  0  0  0  0
   -1.4126   -2.2444    0.4801 C   0  0  0  0  0  0  0  0  0  0  0  0
   -0.4686   -2.9534    0.8001 O   0  0  0  0  0  0  0  0  0  0  0  0
   -1.2736   -0.9704    0.1241 N   0  0  0  0  0  0  0  0  0  0  0  0
   -2.0996   -0.4354   -0.1019 H   0  0  0  0  0  0  0  0  0  0  0  0
   -0.0016   -0.2394    0.1271 C   0  0  1  0  0  0  0  0  0  0  0  0
    0.7164   -0.7963    0.7332 H   0  0  0  0  0  0  0  0  0  0  0  0
    0.5351   -0.1414   -1.3146 C   0  0  0  0  0  0  0  0  0  0  0  0
    0.4510   -1.1145   -1.8001 H   0  0  0  0  0  0  0  0  0  0  0  0
   -0.0660    0.5695   -1.8827 H   0  0  0  0  0  0  0  0  0  0  0  0
    2.0025    0.2694   -1.3894 C   0  0  0  0  0  0  0  0  0  0  0  0
    2.9402   -0.3443   -0.8969 O   0  0  0  0  0  0  0  0  0  0  0  0
    2.2348    1.4147   -2.0573 O   0  0  0  0  0  0  0  0  0  0  0  0
    3.1843    1.5389   -2.0431 H   0  0  0  0  0  0  0  0  0  0  0  0
   -0.1923    1.1526    0.7617 C   0  0  0  0  0  0  0  0  0  0  0  0
   -1.1582    1.8438    0.4410 O   0  0  0  0  0  0  0  0  0  0  0  0
    0.7203    1.5683    1.6472 N   0  0  0  0  0  0  0  0  0  0  0  0
    1.5210    0.9664    1.8100 H   0  0  0  0  0  0  0  0  0  0  0  0
    0.6747    2.8558    2.3368 C   0  0  0  0  0  0  0  0  0  0  0  0
   -0.3018    2.9877    2.8079 H   0  0  0  0  0  0  0  0  0  0  0  0
    1.4516    2.8997    3.1011 H   0  0  0  0  0  0  0  0  0  0  0  0
    0.8279    3.6639    1.6193 H   0  0  0  0  0  0  0  0  0  0  0  0
  5  6  2  0  0  0  0
  5  7  1  0  0  0  0
  2  3  1  0  0  0  0
  2  4  1  0  0  0  0
  2  5  1  0  0  0  0
  1  2  1  0  0  0  0
 18 19  2  0  0  0  0
 18 20  1  0  0  0  0
 16 17  1  0  0  0  0
 14 15  2  0  0  0  0
 14 16  1  0  0  0  0
 11 12  1  0  0  0  0
 11 13  1  0  0  0  0
 11 14  1  0  0  0  0
  9 10  1  0  0  0  0
  9 11  1  0  0  0  0
  9 18  1  0  0  0  0
  7  8  1  0  0  0  0
  7  9  1  0  0  0  0
 22 23  1  0  0  0  0
 22 24  1  0  0  0  0
 22 25  1  0  0  0  0
 20 21  1  0  0  0  0
 20 22  1  0  0  0  0
M  END
$$$$
default_name
  -OEChem-02102213163D

 25 24  0     1  0  0  0  0  0999 V2000
   -2.7826   -3.8464    0.7821 H   0  0  0  0  0  0  0  0  0  0  0  0
   -2.8156   -2.8034    0.4711 C   0  0  0  0  0  0  0  0  0  0  0  0
   -3.4336   -2.2354    1.1641 H   0  0  0  0  0  0  0  0  0  0  0  0
   -3.2256   -2.7344   -0.5349 H   0  0  0  0  0  0  0  0  0  0  0  0
   -1.4126   -2.2444    0.4801 C   0  0  0  0  0  0  0  0  0  0  0  0
   -0.4686   -2.9534    0.8001 O   0  0  0  0  0  0  0  0  0  0  0  0
   -1.2736   -0.9704    0.1241 N   0  0  0  0  0  0  0  0  0  0  0  0
   -2.0996   -0.4354   -0.1019 H   0  0  0  0  0  0  0  0  0  0  0  0
   -0.0016   -0.2394    0.1271 C   0  0  1  0  0  0  0  0  0  0  0  0
    0.7164   -0.7963    0.7332 H   0  0  0  0  0  0  0  0  0  0  0  0
    0.5351   -0.1414   -1.3146 C   0  0  0  0  0  0  0  0  0  0  0  0
    0.4510   -1.1145   -1.8001 H   0  0  0  0  0  0  0  0  0  0  0  0
   -0.0660    0.5695   -1.8827 H   0  0  0  0  0  0  0  0  0  0  0  0
    2.0025    0.2694   -1.3894 C   0  0  0  0  0  0  0  0  0  0  0  0
    2.9581   -0.4513   -1.1330 O   0  0  0  0  0  0  0  0  0  0  0  0
    2.2134    1.5442   -1.7666 O   0  0  0  0  0  0  0  0  0  0  0  0
    3.1641    1.6573   -1.7896 H   0  0  0  0  0  0  0  0  0  0  0  0
   -0.1923    1.1526    0.7617 C   0  0  0  0  0  0  0  0  0  0  0  0
   -1.1582    1.8438    0.4410 O   0  0  0  0  0  0  0  0  0  0  0  0
    0.7203    1.5683    1.6472 N   0  0  0  0  0  0  0  0  0  0  0  0
    1.5210    0.9664    1.8100 H   0  0  0  0  0  0  0  0  0  0  0  0
    0.6747    2.8558    2.3368 C   0  0  0  0  0  0  0  0  0  0  0  0
   -0.3018    2.9877    2.8079 H   0  0  0  0  0  0  0  0  0  0  0  0
    1.4516    2.8997    3.1011 H   0  0  0  0  0  0  0  0  0  0  0  0
    0.8279    3.6639    1.6193 H   0  0  0  0  0  0  0  0  0  0  0  0
  5  6  2  0  0  0  0
  5  7  1  0  0  0  0
  2  3  1  0  0  0  0
  2  4  1  0  0  0  0
  2  5  1  0  0  0  0
  1  2  1  0  0  0  0
 18 19  2  0  0  0  0
 18 20  1  0  0  0  0
 16 17  1  0  0  0  0
 14 15  2  0  0  0  0
 14 16  1  0  0  0  0
 11 12  1  0  0  0  0
 11 13  1  0  0  0  0
 11 14  1  0  0  0  0
  9 10  1  0  0  0  0
  9 11  1  0  0  0  0
  9 18  1  0  0  0  0
  7  8  1  0  0  0  0
  7  9  1  0  0  0  0
 22 23  1  0  0  0  0
 22 24  1  0  0  0  0
 22 25  1  0  0  0  0
 20 21  1  0  0  0  0
 20 22  1  0  0  0  0
M  END
$$$$
default_name
  -OEChem-02102213163D

 25 24  0     1  0  0  0  0  0999 V2000
   -2.7826   -3.8464    0.7821 H   0  0  0  0  0  0  0  0  0  0  0  0
   -2.8156   -2.8034    0.4711 C   0  0  0  0  0  0  0  0  0  0  0  0
   -3.4336   -2.2354    1.1641 H   0  0  0  0  0  0  0  0  0  0  0  0
   -3.2256   -2.7344   -0.5349 H   0  0  0  0  0  0  0  0  0  0  0  0
   -1.4126   -2.2444    0.4801 C   0  0  0  0  0  0  0  0  0  0  0  0
   -0.4686   -2.9534    0.8001 O   0  0  0  0  0  0  0  0  0  0  0  0
   -1.2736   -0.9704    0.1241 N   0  0  0  0  0  0  0  0  0  0  0  0
   -2.0996   -0.4354   -0.1019 H   0  0  0  0  0  0  0  0  0  0  0  0
   -0.0016   -0.2394    0.1271 C   0  0  1  0  0  0  0  0  0  0  0  0
    0.7164   -0.7963    0.7332 H   0  0  0  0  0  0  0  0  0  0  0  0
    0.5351   -0.1414   -1.3146 C   0  0  0  0  0  0  0  0  0  0  0  0
    0.4510   -1.1145   -1.8001 H   0  0  0  0  0  0  0  0  0  0  0  0
   -0.0660    0.5695   -1.8827 H   0  0  0  0  0  0  0  0  0  0  0  0
    2.0025    0.2694   -1.3894 C   0  0  0  0  0  0  0  0  0  0  0  0
    2.9577   -0.4961   -1.3889 O   0  0  0  0  0  0  0  0  0  0  0  0
    2.2146    1.5972   -1.4520 O   0  0  0  0  0  0  0  0  0  0  0  0
    3.1637    1.7087   -1.5140 H   0  0  0  0  0  0  0  0  0  0  0  0
   -0.1923    1.1526    0.7617 C   0  0  0  0  0  0  0  0  0  0  0  0
   -1.1582    1.8438    0.4410 O   0  0  0  0  0  0  0  0  0  0  0  0
    0.7203    1.5683    1.6472 N   0  0  0  0  0  0  0  0  0  0  0  0
    1.5210    0.9664    1.8100 H   0  0  0  0  0  0  0  0  0  0  0  0
    0.6747    2.8558    2.3368 C   0  0  0  0  0  0  0  0  0  0  0  0
   -0.3018    2.9877    2.8079 H   0  0  0  0  0  0  0  0  0  0  0  0
    1.4516    2.8997    3.1011 H   0  0  0  0  0  0  0  0  0  0  0  0
    0.8279    3.6639    1.6193 H   0  0  0  0  0  0  0  0  0  0  0  0
  5  6  2  0  0  0  0
  5  7  1  0  0  0  0
  2  3  1  0  0  0  0
  2  4  1  0  0  0  0
  2  5  1  0  0  0  0
  1  2  1  0  0  0  0
 18 19  2  0  0  0  0
 18 20  1  0  0  0  0
 16 17  1  0  0  0  0
 14 15  2  0  0  0  0
 14 16  1  0  0  0  0
 11 12  1  0  0  0  0
 11 13  1  0  0  0  0
 11 14  1  0  0  0  0
  9 10  1  0  0  0  0
  9 11  1  0  0  0  0
  9 18  1  0  0  0  0
  7  8  1  0  0  0  0
  7  9  1  0  0  0  0
 22 23  1  0  0  0  0
 22 24  1  0  0  0  0
 22 25  1  0  0  0  0
 20 21  1  0  0  0  0
 20 22  1  0  0  0  0
M  END
$$$$
default_name
  -OEChem-02102213163D

 25 24  0     1  0  0  0  0  0999 V2000
   -2.7826   -3.8464    0.7821 H   0  0  0  0  0  0  0  0  0  0  0  0
   -2.8156   -2.8034    0.4711 C   0  0  0  0  0  0  0  0  0  0  0  0
   -3.4336   -2.2354    1.1641 H   0  0  0  0  0  0  0  0  0  0  0  0
   -3.2256   -2.7344   -0.5349 H   0  0  0  0  0  0  0  0  0  0  0  0
   -1.4126   -2.2444    0.4801 C   0  0  0  0  0  0  0  0  0  0  0  0
   -0.4686   -2.9534    0.8001 O   0  0  0  0  0  0  0  0  0  0  0  0
   -1.2736   -0.9704    0.1241 N   0  0  0  0  0  0  0  0  0  0  0  0
   -2.0996   -0.4354   -0.1019 H   0  0  0  0  0  0  0  0  0  0  0  0
   -0.0016   -0.2394    0.1271 C   0  0  1  0  0  0  0  0  0  0  0  0
    0.7164   -0.7963    0.7332 H   0  0  0  0  0  0  0  0  0  0  0  0
    0.5351   -0.1414   -1.3146 C   0  0  0  0  0  0  0  0  0  0  0  0
    0.4510   -1.1145   -1.8001 H   0  0  0  0  0  0  0  0  0  0  0  0
   -0.0660    0.5695   -1.8827 H   0  0  0  0  0  0  0  0  0  0  0  0
    2.0025    0.2694   -1.3894 C   0  0  0  0  0  0  0  0  0  0  0  0
    2.9388   -0.4757   -1.6472 O   0  0  0  0  0  0  0  0  0  0  0  0
    2.2383    1.5700   -1.1350 O   0  0  0  0  0  0  0  0  0  0  0  0
    3.1832    1.6898   -1.2348 H   0  0  0  0  0  0  0  0  0  0  0  0
   -0.1923    1.1526    0.7617 C   0  0  0  0  0  0  0  0  0  0  0  0
   -1.1582    1.8438    0.4410 O   0  0  0  0  0  0  0  0  0  0  0  0
    0.7203    1.5683    1.6472 N   0  0  0  0  0  0  0  0  0  0  0  0
    1.5210    0.9664    1.8100 H   0  0  0  0  0  0  0  0  0  0  0  0
    0.6747    2.8558    2.3368 C   0  0  0  0  0  0  0  0  0  0  0  0
   -0.3018    2.9877    2.8079 H   0  0  0  0  0  0  0  0  0  0  0  0
    1.4516    2.8997    3.1011 H   0  0  0  0  0  0  0  0  0  0  0  0
    0.8279    3.6639    1.6193 H   0  0  0  0  0  0  0  0  0  0  0  0
  5  6  2  0  0  0  0
  5  7  1  0  0  0  0
  2  3  1  0  0  0  0
  2  4  1  0  0  0  0
  2  5  1  0  0  0  0
  1  2  1  0  0  0  0
 18 19  2  0  0  0  0
 18 20  1  0  0  0  0
 16 17  1  0  0  0  0
 14 15  2  0  0  0  0
 14 16  1  0  0  0  0
 11 12  1  0  0  0  0
 11 13  1  0  0  0  0
 11 14  1  0  0  0  0
  9 10  1  0  0  0  0
  9 11  1  0  0  0  0
  9 18  1  0  0  0  0
  7  8  1  0  0  0  0
  7  9  1  0  0  0  0
 22 23  1  0  0  0  0
 22 24  1  0  0  0  0
 22 25  1  0  0  0  0
 20 21  1  0  0  0  0
 20 22  1  0  0  0  0
M  END
$$$$
default_name
  -OEChem-02102213163D

 25 24  0     1  0  0  0  0  0999 V2000
   -2.7826   -3.8464    0.7821 H   0  0  0  0  0  0  0  0  0  0  0  0
   -2.8156   -2.8034    0.4711 C   0  0  0  0  0  0  0  0  0  0  0  0
   -3.4336   -2.2354    1.1641 H   0  0  0  0  0  0  0  0  0  0  0  0
   -3.2256   -2.7344   -0.5349 H   0  0  0  0  0  0  0  0  0  0  0  0
   -1.4126   -2.2444    0.4801 C   0  0  0  0  0  0  0  0  0  0  0  0
   -0.4686   -2.9534    0.8001 O   0  0  0  0  0  0  0  0  0  0  0  0
   -1.2736   -0.9704    0.1241 N   0  0  0  0  0  0  0  0  0  0  0  0
   -2.0996   -0.4354   -0.1019 H   0  0  0  0  0  0  0  0  0  0  0  0
   -0.0016   -0.2394    0.1271 C   0  0  1  0  0  0  0  0  0  0  0  0
    0.7164   -0.7963    0.7332 H   0  0  0  0  0  0  0  0  0  0  0  0
    0.5351   -0.1414   -1.3146 C   0  0  0  0  0  0  0  0  0  0  0  0
    0.4510   -1.1145   -1.8001 H   0  0  0  0  0  0  0  0  0  0  0  0
   -0.0660    0.5695   -1.8827 H   0  0  0  0  0  0  0  0  0  0  0  0
    2.0025    0.2694   -1.3894 C   0  0  0  0  0  0  0  0  0  0  0  0
    2.9028   -0.3915   -1.8904 O   0  0  0  0  0  0  0  0  0  0  0  0
    2.2830    1.4646   -0.8373 O   0  0  0  0  0  0  0  0  0  0  0  0
    3.2213    1.6019   -0.9713 H   0  0  0  0  0  0  0  0  0  0  0  0
   -0.1923    1.1526    0.7617 C   0  0  0  0  0  0  0  0  0  0  0  0
   -1.1582    1.8438    0.4410 O   0  0  0  0  0  0  0  0  0  0  0  0
    0.7203    1.5683    1.6472 N   0  0  0  0  0  0  0  0  0  0  0  0
    1.5210    0.9664    1.8100 H   0  0  0  0  0  0  0  0  0  0  0  0
    0.6747    2.8558    2.3368 C   0  0  0  0  0  0  0  0  0  0  0  0
   -0.3018    2.9877    2.8079 H   0  0  0  0  0  0  0  0  0  0  0  0
    1.4516    2.8997    3.1011 H   0  0  0  0  0  0  0  0  0  0  0  0
    0.8279    3.6639    1.6193 H   0  0  0  0  0  0  0  0  0  0  0  0
  5  6  2  0  0  0  0
  5  7  1  0  0  0  0
  2  3  1  0  0  0  0
  2  4  1  0  0  0  0
  2  5  1  0  0  0  0
  1  2  1  0  0  0  0
 18 19  2  0  0  0  0
 18 20  1  0  0  0  0
 16 17  1  0  0  0  0
 14 15  2  0  0  0  0
 14 16  1  0  0  0  0
 11 12  1  0  0  0  0
 11 13  1  0  0  0  0
 11 14  1  0  0  0  0
  9 10  1  0  0  0  0
  9 11  1  0  0  0  0
  9 18  1  0  0  0  0
  7  8  1  0  0  0  0
  7  9  1  0  0  0  0
 22 23  1  0  0  0  0
 22 24  1  0  0  0  0
 22 25  1  0  0  0  0
 20 21  1  0  0  0  0
 20 22  1  0  0  0  0
M  END
$$$$
default_name
  -OEChem-02102213163D

 25 24  0     1  0  0  0  0  0999 V2000
   -2.7826   -3.8464    0.7821 H   0  0  0  0  0  0  0  0  0  0  0  0
   -2.8156   -2.8034    0.4711 C   0  0  0  0  0  0  0  0  0  0  0  0
   -3.4336   -2.2354    1.1641 H   0  0  0  0  0  0  0  0  0  0  0  0
   -3.2256   -2.7344   -0.5349 H   0  0  0  0  0  0  0  0  0  0  0  0
   -1.4126   -2.2444    0.4801 C   0  0  0  0  0  0  0  0  0  0  0  0
   -0.4686   -2.9534    0.8001 O   0  0  0  0  0  0  0  0  0  0  0  0
   -1.2736   -0.9704    0.1241 N   0  0  0  0  0  0  0  0  0  0  0  0
   -2.0996   -0.4354   -0.1019 H   0  0  0  0  0  0  0  0  0  0  0  0
   -0.0016   -0.2394    0.1271 C   0  0  1  0  0  0  0  0  0  0  0  0
    0.7164   -0.7963    0.7332 H   0  0  0  0  0  0  0  0  0  0  0  0
    0.5351   -0.1414   -1.3146 C   0  0  0  0  0  0  0  0  0  0  0  0
    0.4510   -1.1145   -1.8001 H   0  0  0  0  0  0  0  0  0  0  0  0
   -0.0660    0.5695   -1.8827 H   0  0  0  0  0  0  0  0  0  0  0  0
    2.0025    0.2694   -1.3894 C   0  0  0  0  0  0  0  0  0  0  0  0
    2.8522   -0.2491   -2.1017 O   0  0  0  0  0  0  0  0  0  0  0  0
    2.3456    1.2880   -0.5791 O   0  0  0  0  0  0  0  0  0  0  0  0
    3.2753    1.4508   -0.7413 H   0  0  0  0  0  0  0  0  0  0  0  0
   -0.1923    1.1526    0.7617 C   0  0  0  0  0  0  0  0  0  0  0  0
   -1.1582    1.8438    0.4410 O   0  0  0  0  0  0  0  0  0  0  0  0
    0.7203    1.5683    1.6472 N   0  0  0  0  0  0  0  0  0  0  0  0
    1.5210    0.9664    1.8100 H   0  0  0  0  0  0  0  0  0  0  0  0
    0.6747    2.8558    2.3368 C   0  0  0  0  0  0  0  0  0  0  0  0
   -0.3018    2.9877    2.8079 H   0  0  0  0  0  0  0  0  0  0  0  0
    1.4516    2.8997    3.1011 H   0  0  0  0  0  0  0  0  0  0  0  0
    0.8279    3.6639    1.6193 H   0  0  0  0  0  0  0  0  0  0  0  0
  5  6  2  0  0  0  0
  5  7  1  0  0  0  0
  2  3  1  0  0  0  0
  2  4  1  0  0  0  0
  2  5  1  0  0  0  0
  1  2  1  0  0  0  0
 18 19  2  0  0  0  0
 18 20  1  0  0  0  0
 16 17  1  0  0  0  0
 14 15  2  0  0  0  0
 14 16  1  0  0  0  0
 11 12  1  0  0  0  0
 11 13  1  0  0  0  0
 11 14  1  0  0  0  0
  9 10  1  0  0  0  0
  9 11  1  0  0  0  0
  9 18  1  0  0  0  0
  7  8  1  0  0  0  0
  7  9  1  0  0  0  0
 22 23  1  0  0  0  0
 22 24  1  0  0  0  0
 22 25  1  0  0  0  0
 20 21  1  0  0  0  0
 20 22  1  0  0  0  0
M  END
$$$$
default_name
  -OEChem-02102213163D

 25 24  0     1  0  0  0  0  0999 V2000
   -2.7826   -3.8464    0.7821 H   0  0  0  0  0  0  0  0  0  0  0  0
   -2.8156   -2.8034    0.4711 C   0  0  0  0  0  0  0  0  0  0  0  0
   -3.4336   -2.2354    1.1641 H   0  0  0  0  0  0  0  0  0  0  0  0
   -3.2256   -2.7344   -0.5349 H   0  0  0  0  0  0  0  0  0  0  0  0
   -1.4126   -2.2444    0.4801 C   0  0  0  0  0  0  0  0  0  0  0  0
   -0.4686   -2.9534    0.8001 O   0  0  0  0  0  0  0  0  0  0  0  0
   -1.2736   -0.9704    0.1241 N   0  0  0  0  0  0  0  0  0  0  0  0
   -2.0996   -0.4354   -0.1019 H   0  0  0  0  0  0  0  0  0  0  0  0
   -0.0016   -0.2394    0.1271 C   0  0  1  0  0  0  0  0  0  0  0  0
    0.7164   -0.7963    0.7332 H   0  0  0  0  0  0  0  0  0  0  0  0
    0.5351   -0.1414   -1.3146 C   0  0  0  0  0  0  0  0  0  0  0  0
    0.4510   -1.1145   -1.8001 H   0  0  0  0  0  0  0  0  0  0  0  0
   -0.0660    0.5695   -1.8827 H   0  0  0  0  0  0  0  0  0  0  0  0
    2.0025    0.2694   -1.3894 C   0  0  0  0  0  0  0  0  0  0  0  0
    2.7904   -0.0584   -2.2669 O   0  0  0  0  0  0  0  0  0  0  0  0
    2.4217    1.0524   -0.3779 O   0  0  0  0  0  0  0  0  0  0  0  0
    3.3416    1.2469   -0.5605 H   0  0  0  0  0  0  0  0  0  0  0  0
   -0.1923    1.1526    0.7617 C   0  0  0  0  0  0  0  0  0  0  0  0
   -1.1582    1.8438    0.4410 O   0  0  0  0  0  0  0  0  0  0  0  0
    0.7203    1.5683    1.6472 N   0  0  0  0  0  0  0  0  0  0  0  0
    1.5210    0.9664    1.8100 H   0  0  0  0  0  0  0  0  0  0  0  0
    0.6747    2.8558    2.3368 C   0  0  0  0  0  0  0  0  0  0  0  0
   -0.3018    2.9877    2.8079 H   0  0  0  0  0  0  0  0  0  0  0  0
    1.4516    2.8997    3.1011 H   0  0  0  0  0  0  0  0  0  0  0  0
    0.8279    3.6639    1.6193 H   0  0  0  0  0  0  0  0  0  0  0  0
  5  6  2  0  0  0  0
  5  7  1  0  0  0  0
  2  3  1  0  0  0  0
  2  4  1  0  0  0  0
  2  5  1  0  0  0  0
  1  2  1  0  0  0  0
 18 19  2  0  0  0  0
 18 20  1  0  0  0  0
 16 17  1  0  0  0  0
 14 15  2  0  0  0  0
 14 16  1  0  0  0  0
 11 12  1  0  0  0  0
 11 13  1  0  0  0  0
 11 14  1  0  0  0  0
  9 10  1  0  0  0  0
  9 11  1  0  0  0  0
  9 18  1  0  0  0  0
  7  8  1  0  0  0  0
  7  9  1  0  0  0  0
 22 23  1  0  0  0  0
 22 24  1  0  0  0  0
 22 25  1  0  0  0  0
 20 21  1  0  0  0  0
 20 22  1  0  0  0  0
M  END
$$$$
default_name
  -OEChem-02102213163D

 25 24  0     1  0  0  0  0  0999 V2000
   -2.7826   -3.8464    0.7821 H   0  0  0  0  0  0  0  0  0  0  0  0
   -2.8156   -2.8034    0.4711 C   0  0  0  0  0  0  0  0  0  0  0  0
   -3.4336   -2.2354    1.1641 H   0  0  0  0  0  0  0  0  0  0  0  0
   -3.2256   -2.7344   -0.5349 H   0  0  0  0  0  0  0  0  0  0  0  0
   -1.4126   -2.2444    0.4801 C   0  0  0  0  0  0  0  0  0  0  0  0
   -0.4686   -2.9534    0.8001 O   0  0  0  0  0  0  0  0  0  0  0  0
   -1.2736   -0.9704    0.1241 N   0  0  0  0  0  0  0  0  0  0  0  0
   -2.0996   -0.4354   -0.1019 H   0  0  0  0  0  0  0  0  0  0  0  0
   -0.0016   -0.2394    0.1271 C   0  0  1  0  0  0  0  0  0  0  0  0
    0.7164   -0.7963    0.7332 H   0  0  0  0  0  0  0  0  0  0  0  0
    0.5351   -0.1414   -1.3146 C   0  0  0  0  0  0  0  0  0  0  0  0
    0.4510   -1.1145   -1.8001 H   0  0  0  0  0  0  0  0  0  0  0  0
   -0.0660    0.5695   -1.8827 H   0  0  0  0  0  0  0  0  0  0  0  0
    2.0025    0.2694   -1.3894 C   0  0  0  0  0  0  0  0  0  0  0  0
    2.7216    0.1678   -2.3747 O   0  0  0  0  0  0  0  0  0  0  0  0
    2.5064    0.7738   -0.2476 O   0  0  0  0  0  0  0  0  0  0  0  0
    3.4156    1.0042   -0.4412 H   0  0  0  0  0  0  0  0  0  0  0  0
   -0.1923    1.1526    0.7617 C   0  0  0  0  0  0  0  0  0  0  0  0
   -1.1582    1.8438    0.4410 O   0  0  0  0  0  0  0  0  0  0  0  0
    0.7203    1.5683    1.6472 N   0  0  0  0  0  0  0  0  0  0  0  0
    1.5210    0.9664    1.8100 H   0  0  0  0  0  0  0  0  0  0  0  0
    0.6747    2.8558    2.3368 C   0  0  0  0  0  0  0  0  0  0  0  0
   -0.3018    2.9877    2.8079 H   0  0  0  0  0  0  0  0  0  0  0  0
    1.4516    2.8997    3.1011 H   0  0  0  0  0  0  0  0  0  0  0  0
    0.8279    3.6639    1.6193 H   0  0  0  0  0  0  0  0  0  0  0  0
  5  6  2  0  0  0  0
  5  7  1  0  0  0  0
  2  3  1  0  0  0  0
  2  4  1  0  0  0  0
  2  5  1  0  0  0  0
  1  2  1  0  0  0  0
 18 19  2  0  0  0  0
 18 20  1  0  0  0  0
 16 17  1  0  0  0  0
 14 15  2  0  0  0  0
 14 16  1  0  0  0  0
 11 12  1  0  0  0  0
 11 13  1  0  0  0  0
 11 14  1  0  0  0  0
  9 10  1  0  0  0  0
  9 11  1  0  0  0  0
  9 18  1  0  0  0  0
  7  8  1  0  0  0  0
  7  9  1  0  0  0  0
 22 23  1  0  0  0  0
 22 24  1  0  0  0  0
 22 25  1  0  0  0  0
 20 21  1  0  0  0  0
 20 22  1  0  0  0  0
M  END
$$$$
default_name
  -OEChem-02102213163D

 25 24  0     1  0  0  0  0  0999 V2000
   -2.7826   -3.8464    0.7821 H   0  0  0  0  0  0  0  0  0  0  0  0
   -2.8156   -2.8034    0.4711 C   0  0  0  0  0  0  0  0  0  0  0  0
   -3.4336   -2.2354    1.1641 H   0  0  0  0  0  0  0  0  0  0  0  0
   -3.2256   -2.7344   -0.5349 H   0  0  0  0  0  0  0  0  0  0  0  0
   -1.4126   -2.2444    0.4801 C   0  0  0  0  0  0  0  0  0  0  0  0
   -0.4686   -2.9534    0.8001 O   0  0  0  0  0  0  0  0  0  0  0  0
   -1.2736   -0.9704    0.1241 N   0  0  0  0  0  0  0  0  0  0  0  0
   -2.0996   -0.4354   -0.1019 H   0  0  0  0  0  0  0  0  0  0  0  0
   -0.0016   -0.2394    0.1271 C   0  0  1  0  0  0  0  0  0  0  0  0
    0.7164   -0.7963    0.7332 H   0  0  0  0  0  0  0  0  0  0  0  0
    0.5351   -0.1414   -1.3146 C   0  0  0  0  0  0  0  0  0  0  0  0
    0.2146   -1.0164   -1.8815 H   0  0  0  0  0  0  0  0  0  0  0  0
    0.1216    0.7427   -1.8011 H   0  0  0  0  0  0  0  0  0  0  0  0
    2.0579   -0.0918   -1.3933 C   0  0  0  0  0  0  0  0  0  0  0  0
    2.7161   -0.0137   -2.4224 O   0  0  0  0  0  0  0  0  0  0  0  0
    2.6868   -0.1493   -0.2045 O   0  0  0  0  0  0  0  0  0  0  0  0
    3.6225   -0.0895   -0.3994 H   0  0  0  0  0  0  0  0  0  0  0  0
   -0.1923    1.1526    0.7617 C   0  0  0  0  0  0  0  0  0  0  0  0
   -1.1582    1.8438    0.4410 O   0  0  0  0  0  0  0  0  0  0  0  0
    0.7203    1.5683    1.6472 N   0  0  0  0  0  0  0  0  0  0  0  0
    1.5210    0.9664    1.8100 H   0  0  0  0  0  0  0  0  0  0  0  0
    0.6747    2.8558    2.3368 C   0  0  0  0  0  0  0  0  0  0  0  0
   -0.3018    2.9877    2.8079 H   0  0  0  0  0  0  0  0  0  0  0  0
    1.4516    2.8997    3.1011 H   0  0  0  0  0  0  0  0  0  0  0  0
    0.8279    3.6639    1.6193 H   0  0  0  0  0  0  0  0  0  0  0  0
  5  6  2  0  0  0  0
  5  7  1  0  0  0  0
  2  3  1  0  0  0  0
  2  4  1  0  0  0  0
  2  5  1  0  0  0  0
  1  2  1  0  0  0  0
 18 19  2  0  0  0  0
 18 20  1  0  0  0  0
 16 17  1  0  0  0  0
 14 15  2  0  0  0  0
 14 16  1  0  0  0  0
 11 12  1  0  0  0  0
 11 13  1  0  0  0  0
 11 14  1  0  0  0  0
  9 10  1  0  0  0  0
  9 11  1  0  0  0  0
  9 18  1  0  0  0  0
  7  8  1  0  0  0  0
  7  9  1  0  0  0  0
 22 23  1  0  0  0  0
 22 24  1  0  0  0  0
 22 25  1  0  0  0  0
 20 21  1  0  0  0  0
 20 22  1  0  0  0  0
M  END
$$$$
default_name
  -OEChem-02102213163D

 25 24  0     1  0  0  0  0  0999 V2000
   -2.7826   -3.8464    0.7821 H   0  0  0  0  0  0  0  0  0  0  0  0
   -2.8156   -2.8034    0.4711 C   0  0  0  0  0  0  0  0  0  0  0  0
   -3.4336   -2.2354    1.1641 H   0  0  0  0  0  0  0  0  0  0  0  0
   -3.2256   -2.7344   -0.5349 H   0  0  0  0  0  0  0  0  0  0  0  0
   -1.4126   -2.2444    0.4801 C   0  0  0  0  0  0  0  0  0  0  0  0
   -0.4686   -2.9534    0.8001 O   0  0  0  0  0  0  0  0  0  0  0  0
   -1.2736   -0.9704    0.1241 N   0  0  0  0  0  0  0  0  0  0  0  0
   -2.0996   -0.4354   -0.1019 H   0  0  0  0  0  0  0  0  0  0  0  0
   -0.0016   -0.2394    0.1271 C   0  0  1  0  0  0  0  0  0  0  0  0
    0.7164   -0.7963    0.7332 H   0  0  0  0  0  0  0  0  0  0  0  0
    0.5351   -0.1414   -1.3146 C   0  0  0  0  0  0  0  0  0  0  0  0
    0.2146   -1.0164   -1.8815 H   0  0  0  0  0  0  0  0  0  0  0  0
    0.1216    0.7427   -1.8011 H   0  0  0  0  0  0  0  0  0  0  0  0
    2.0579   -0.0918   -1.3933 C   0  0  0  0  0  0  0  0  0  0  0  0
    2.7103    0.2415   -2.3739 O   0  0  0  0  0  0  0  0  0  0  0  0
    2.6938   -0.4622   -0.2662 O   0  0  0  0  0  0  0  0  0  0  0  0
    3.6290   -0.3655   -0.4485 H   0  0  0  0  0  0  0  0  0  0  0  0
   -0.1923    1.1526    0.7617 C   0  0  0  0  0  0  0  0  0  0  0  0
   -1.1582    1.8438    0.4410 O   0  0  0  0  0  0  0  0  0  0  0  0
    0.7203    1.5683    1.6472 N   0  0  0  0  0  0  0  0  0  0  0  0
    1.5210    0.9664    1.8100 H   0  0  0  0  0  0  0  0  0  0  0  0
    0.6747    2.8558    2.3368 C   0  0  0  0  0  0  0  0  0  0  0  0
   -0.3018    2.9877    2.8079 H   0  0  0  0  0  0  0  0  0  0  0  0
    1.4516    2.8997    3.1011 H   0  0  0  0  0  0  0  0  0  0  0  0
    0.8279    3.6639    1.6193 H   0  0  0  0  0  0  0  0  0  0  0  0
  5  6  2  0  0  0  0
  5  7  1  0  0  0  0
  2  3  1  0  0  0  0
  2  4  1  0  0  0  0
  2  5  1  0  0  0  0
  1  2  1  0  0  0  0
 18 19  2  0  0  0  0
 18 20  1  0  0  0  0
 16 17  1  0  0  0  0
 14 15  2  0  0  0  0
 14 16  1  0  0  0  0
 11 12  1  0  0  0  0
 11 13  1  0  0  0  0
 11 14  1  0  0  0  0
  9 10  1  0  0  0  0
  9 11  1  0  0  0  0
  9 18  1  0  0  0  0
  7  8  1  0  0  0  0
  7  9  1  0  0  0  0
 22 23  1  0  0  0  0
 22 24  1  0  0  0  0
 22 25  1  0  0  0  0
 20 21  1  0  0  0  0
 20 22  1  0  0  0  0
M  END
$$$$
default_name
  -OEChem-02102213163D

 25 24  0     1  0  0  0  0  0999 V2000
   -2.7826   -3.8464    0.7821 H   0  0  0  0  0  0  0  0  0  0  0  0
   -2.8156   -2.8034    0.4711 C   0  0  0  0  0  0  0  0  0  0  0  0
   -3.4336   -2.2354    1.1641 H   0  0  0  0  0  0  0  0  0  0  0  0
   -3.2256   -2.7344   -0.5349 H   0  0  0  0  0  0  0  0  0  0  0  0
   -1.4126   -2.2444    0.4801 C   0  0  0  0  0  0  0  0  0  0  0  0
   -0.4686   -2.9534    0.8001 O   0  0  0  0  0  0  0  0  0  0  0  0
   -1.2736   -0.9704    0.1241 N   0  0  0  0  0  0  0  0  0  0  0  0
   -2.0996   -0.4354   -0.1019 H   0  0  0  0  0  0  0  0  0  0  0  0
   -0.0016   -0.2394    0.1271 C   0  0  1  0  0  0  0  0  0  0  0  0
    0.7164   -0.7963    0.7332 H   0  0  0  0  0  0  0  0  0  0  0  0
    0.5351   -0.1414   -1.3146 C   0  0  0  0  0  0  0  0  0  0  0  0
    0.2146   -1.0164   -1.8815 H   0  0  0  0  0  0  0  0  0  0  0  0
    0.1216    0.7427   -1.8011 H   0  0  0  0  0  0  0  0  0  0  0  0
    2.0579   -0.0918   -1.3933 C   0  0  0  0  0  0  0  0  0  0  0  0
    2.7085    0.4755   -2.2611 O   0  0  0  0  0  0  0  0  0  0  0  0
    2.6959   -0.7487   -0.4066 O   0  0  0  0  0  0  0  0  0  0  0  0
    3.6311   -0.6196   -0.5673 H   0  0  0  0  0  0  0  0  0  0  0  0
   -0.1923    1.1526    0.7617 C   0  0  0  0  0  0  0  0  0  0  0  0
   -1.1582    1.8438    0.4410 O   0  0  0  0  0  0  0  0  0  0  0  0
    0.7203    1.5683    1.6472 N   0  0  0  0  0  0  0  0  0  0  0  0
    1.5210    0.9664    1.8100 H   0  0  0  0  0  0  0  0  0  0  0  0
    0.6747    2.8558    2.3368 C   0  0  0  0  0  0  0  0  0  0  0  0
   -0.3018    2.9877    2.8079 H   0  0  0  0  0  0  0  0  0  0  0  0
    1.4516    2.8997    3.1011 H   0  0  0  0  0  0  0  0  0  0  0  0
    0.8279    3.6639    1.6193 H   0  0  0  0  0  0  0  0  0  0  0  0
  5  6  2  0  0  0  0
  5  7  1  0  0  0  0
  2  3  1  0  0  0  0
  2  4  1  0  0  0  0
  2  5  1  0  0  0  0
  1  2  1  0  0  0  0
 18 19  2  0  0  0  0
 18 20  1  0  0  0  0
 16 17  1  0  0  0  0
 14 15  2  0  0  0  0
 14 16  1  0  0  0  0
 11 12  1  0  0  0  0
 11 13  1  0  0  0  0
 11 14  1  0  0  0  0
  9 10  1  0  0  0  0
  9 11  1  0  0  0  0
  9 18  1  0  0  0  0
  7  8  1  0  0  0  0
  7  9  1  0  0  0  0
 22 23  1  0  0  0  0
 22 24  1  0  0  0  0
 22 25  1  0  0  0  0
 20 21  1  0  0  0  0
 20 22  1  0  0  0  0
M  END
$$$$
default_name
  -OEChem-02102213163D

 25 24  0     1  0  0  0  0  0999 V2000
   -2.7826   -3.8464    0.7821 H   0  0  0  0  0  0  0  0  0  0  0  0
   -2.8156   -2.8034    0.4711 C   0  0  0  0  0  0  0  0  0  0  0  0
   -3.4336   -2.2354    1.1641 H   0  0  0  0  0  0  0  0  0  0  0  0
   -3.2256   -2.7344   -0.5349 H   0  0  0  0  0  0  0  0  0  0  0  0
   -1.4126   -2.2444    0.4801 C   0  0  0  0  0  0  0  0  0  0  0  0
   -0.4686   -2.9534    0.8001 O   0  0  0  0  0  0  0  0  0  0  0  0
   -1.2736   -0.9704    0.1241 N   0  0  0  0  0  0  0  0  0  0  0  0
   -2.0996   -0.4354   -0.1019 H   0  0  0  0  0  0  0  0  0  0  0  0
   -0.0016   -0.2394    0.1271 C   0  0  1  0  0  0  0  0  0  0  0  0
    0.7164   -0.7963    0.7332 H   0  0  0  0  0  0  0  0  0  0  0  0
    0.5351   -0.1414   -1.3146 C   0  0  0  0  0  0  0  0  0  0  0  0
    0.2146   -1.0164   -1.8815 H   0  0  0  0  0  0  0  0  0  0  0  0
    0.1216    0.7427   -1.8011 H   0  0  0  0  0  0  0  0  0  0  0  0
    2.0579   -0.0918   -1.3933 C   0  0  0  0  0  0  0  0  0  0  0  0
    2.7108    0.6725   -2.0917 O   0  0  0  0  0  0  0  0  0  0  0  0
    2.6929   -0.9891   -0.6163 O   0  0  0  0  0  0  0  0  0  0  0  0
    3.6288   -0.8343   -0.7477 H   0  0  0  0  0  0  0  0  0  0  0  0
   -0.1923    1.1526    0.7617 C   0  0  0  0  0  0  0  0  0  0  0  0
   -1.1582    1.8438    0.4410 O   0  0  0  0  0  0  0  0  0  0  0  0
    0.7203    1.5683    1.6472 N   0  0  0  0  0  0  0  0  0  0  0  0
    1.5210    0.9664    1.8100 H   0  0  0  0  0  0  0  0  0  0  0  0
    0.6747    2.8558    2.3368 C   0  0  0  0  0  0  0  0  0  0  0  0
   -0.3018    2.9877    2.8079 H   0  0  0  0  0  0  0  0  0  0  0  0
    1.4516    2.8997    3.1011 H   0  0  0  0  0  0  0  0  0  0  0  0
    0.8279    3.6639    1.6193 H   0  0  0  0  0  0  0  0  0  0  0  0
  5  6  2  0  0  0  0
  5  7  1  0  0  0  0
  2  3  1  0  0  0  0
  2  4  1  0  0  0  0
  2  5  1  0  0  0  0
  1  2  1  0  0  0  0
 18 19  2  0  0  0  0
 18 20  1  0  0  0  0
 16 17  1  0  0  0  0
 14 15  2  0  0  0  0
 14 16  1  0  0  0  0
 11 12  1  0  0  0  0
 11 13  1  0  0  0  0
 11 14  1  0  0  0  0
  9 10  1  0  0  0  0
  9 11  1  0  0  0  0
  9 18  1  0  0  0  0
  7  8  1  0  0  0  0
  7  9  1  0  0  0  0
 22 23  1  0  0  0  0
 22 24  1  0  0  0  0
 22 25  1  0  0  0  0
 20 21  1  0  0  0  0
 20 22  1  0  0  0  0
M  END
$$$$
default_name
  -OEChem-02102213163D

 25 24  0     1  0  0  0  0  0999 V2000
   -2.7826   -3.8464    0.7821 H   0  0  0  0  0  0  0  0  0  0  0  0
   -2.8156   -2.8034    0.4711 C   0  0  0  0  0  0  0  0  0  0  0  0
   -3.4336   -2.2354    1.1641 H   0  0  0  0  0  0  0  0  0  0  0  0
   -3.2256   -2.7344   -0.5349 H   0  0  0  0  0  0  0  0  0  0  0  0
   -1.4126   -2.2444    0.4801 C   0  0  0  0  0  0  0  0  0  0  0  0
   -0.4686   -2.9534    0.8001 O   0  0  0  0  0  0  0  0  0  0  0  0
   -1.2736   -0.9704    0.1241 N   0  0  0  0  0  0  0  0  0  0  0  0
   -2.0996   -0.4354   -0.1019 H   0  0  0  0  0  0  0  0  0  0  0  0
   -0.0016   -0.2394    0.1271 C   0  0  1  0  0  0  0  0  0  0  0  0
    0.7164   -0.7963    0.7332 H   0  0  0  0  0  0  0  0  0  0  0  0
    0.5351   -0.1414   -1.3146 C   0  0  0  0  0  0  0  0  0  0  0  0
    0.2146   -1.0164   -1.8815 H   0  0  0  0  0  0  0  0  0  0  0  0
    0.1216    0.7427   -1.8011 H   0  0  0  0  0  0  0  0  0  0  0  0
    2.0579   -0.0918   -1.3933 C   0  0  0  0  0  0  0  0  0  0  0  0
    2.7171    0.8190   -1.8772 O   0  0  0  0  0  0  0  0  0  0  0  0
    2.6850   -1.1671   -0.8809 O   0  0  0  0  0  0  0  0  0  0  0  0
    3.6222   -0.9950   -0.9774 H   0  0  0  0  0  0  0  0  0  0  0  0
   -0.1923    1.1526    0.7617 C   0  0  0  0  0  0  0  0  0  0  0  0
   -1.1582    1.8438    0.4410 O   0  0  0  0  0  0  0  0  0  0  0  0
    0.7203    1.5683    1.6472 N   0  0  0  0  0  0  0  0  0  0  0  0
    1.5210    0.9664    1.8100 H   0  0  0  0  0  0  0  0  0  0  0  0
    0.6747    2.8558    2.3368 C   0  0  0  0  0  0  0  0  0  0  0  0
   -0.3018    2.9877    2.8079 H   0  0  0  0  0  0  0  0  0  0  0  0
    1.4516    2.8997    3.1011 H   0  0  0  0  0  0  0  0  0  0  0  0
    0.8279    3.6639    1.6193 H   0  0  0  0  0  0  0  0  0  0  0  0
  5  6  2  0  0  0  0
  5  7  1  0  0  0  0
  2  3  1  0  0  0  0
  2  4  1  0  0  0  0
  2  5  1  0  0  0  0
  1  2  1  0  0  0  0
 18 19  2  0  0  0  0
 18 20  1  0  0  0  0
 16 17  1  0  0  0  0
 14 15  2  0  0  0  0
 14 16  1  0  0  0  0
 11 12  1  0  0  0  0
 11 13  1  0  0  0  0
 11 14  1  0  0  0  0
  9 10  1  0  0  0  0
  9 11  1  0  0  0  0
  9 18  1  0  0  0  0
  7  8  1  0  0  0  0
  7  9  1  0  0  0  0
 22 23  1  0  0  0  0
 22 24  1  0  0  0  0
 22 25  1  0  0  0  0
 20 21  1  0  0  0  0
 20 22  1  0  0  0  0
M  END
$$$$
default_name
  -OEChem-02102213163D

 25 24  0     1  0  0  0  0  0999 V2000
   -2.7826   -3.8464    0.7821 H   0  0  0  0  0  0  0  0  0  0  0  0
   -2.8156   -2.8034    0.4711 C   0  0  0  0  0  0  0  0  0  0  0  0
   -3.4336   -2.2354    1.1641 H   0  0  0  0  0  0  0  0  0  0  0  0
   -3.2256   -2.7344   -0.5349 H   0  0  0  0  0  0  0  0  0  0  0  0
   -1.4126   -2.2444    0.4801 C   0  0  0  0  0  0  0  0  0  0  0  0
   -0.4686   -2.9534    0.8001 O   0  0  0  0  0  0  0  0  0  0  0  0
   -1.2736   -0.9704    0.1241 N   0  0  0  0  0  0  0  0  0  0  0  0
   -2.0996   -0.4354   -0.1019 H   0  0  0  0  0  0  0  0  0  0  0  0
   -0.0016   -0.2394    0.1271 C   0  0  1  0  0  0  0  0  0  0  0  0
    0.7164   -0.7963    0.7332 H   0  0  0  0  0  0  0  0  0  0  0  0
    0.5351   -0.1414   -1.3146 C   0  0  0  0  0  0  0  0  0  0  0  0
    0.2146   -1.0164   -1.8815 H   0  0  0  0  0  0  0  0  0  0  0  0
    0.1216    0.7427   -1.8011 H   0  0  0  0  0  0  0  0  0  0  0  0
    2.0579   -0.0918   -1.3933 C   0  0  0  0  0  0  0  0  0  0  0  0
    2.7270    0.9050   -1.6322 O   0  0  0  0  0  0  0  0  0  0  0  0
    2.6728   -1.2705   -1.1824 O   0  0  0  0  0  0  0  0  0  0  0  0
    3.6117   -1.0909   -1.2407 H   0  0  0  0  0  0  0  0  0  0  0  0
   -0.1923    1.1526    0.7617 C   0  0  0  0  0  0  0  0  0  0  0  0
   -1.1582    1.8438    0.4410 O   0  0  0  0  0  0  0  0  0  0  0  0
    0.7203    1.5683    1.6472 N   0  0  0  0  0  0  0  0  0  0  0  0
    1.5210    0.9664    1.8100 H   0  0  0  0  0  0  0  0  0  0  0  0
    0.6747    2.8558    2.3368 C   0  0  0  0  0  0  0  0  0  0  0  0
   -0.3018    2.9877    2.8079 H   0  0  0  0  0  0  0  0  0  0  0  0
    1.4516    2.8997    3.1011 H   0  0  0  0  0  0  0  0  0  0  0  0
    0.8279    3.6639    1.6193 H   0  0  0  0  0  0  0  0  0  0  0  0
  5  6  2  0  0  0  0
  5  7  1  0  0  0  0
  2  3  1  0  0  0  0
  2  4  1  0  0  0  0
  2  5  1  0  0  0  0
  1  2  1  0  0  0  0
 18 19  2  0  0  0  0
 18 20  1  0  0  0  0
 16 17  1  0  0  0  0
 14 15  2  0  0  0  0
 14 16  1  0  0  0  0
 11 12  1  0  0  0  0
 11 13  1  0  0  0  0
 11 14  1  0  0  0  0
  9 10  1  0  0  0  0
  9 11  1  0  0  0  0
  9 18  1  0  0  0  0
  7  8  1  0  0  0  0
  7  9  1  0  0  0  0
 22 23  1  0  0  0  0
 22 24  1  0  0  0  0
 22 25  1  0  0  0  0
 20 21  1  0  0  0  0
 20 22  1  0  0  0  0
M  END
$$$$
default_name
  -OEChem-02102213163D

 25 24  0     1  0  0  0  0  0999 V2000
   -2.7826   -3.8464    0.7821 H   0  0  0  0  0  0  0  0  0  0  0  0
   -2.8156   -2.8034    0.4711 C   0  0  0  0  0  0  0  0  0  0  0  0
   -3.4336   -2.2354    1.1641 H   0  0  0  0  0  0  0  0  0  0  0  0
   -3.2256   -2.7344   -0.5349 H   0  0  0  0  0  0  0  0  0  0  0  0
   -1.4126   -2.2444    0.4801 C   0  0  0  0  0  0  0  0  0  0  0  0
   -0.4686   -2.9534    0.8001 O   0  0  0  0  0  0  0  0  0  0  0  0
   -1.2736   -0.9704    0.1241 N   0  0  0  0  0  0  0  0  0  0  0  0
   -2.0996   -0.4354   -0.1019 H   0  0  0  0  0  0  0  0  0  0  0  0
   -0.0016   -0.2394    0.1271 C   0  0  1  0  0  0  0  0  0  0  0  0
    0.7164   -0.7963    0.7332 H   0  0  0  0  0  0  0  0  0  0  0  0
    0.5351   -0.1414   -1.3146 C   0  0  0  0  0  0  0  0  0  0  0  0
    0.2146   -1.0164   -1.8815 H   0  0  0  0  0  0  0  0  0  0  0  0
    0.1216    0.7427   -1.8011 H   0  0  0  0  0  0  0  0  0  0  0  0
    2.0579   -0.0918   -1.3933 C   0  0  0  0  0  0  0  0  0  0  0  0
    2.7397    0.9246   -1.3735 O   0  0  0  0  0  0  0  0  0  0  0  0
    2.6571   -1.2924   -1.5002 O   0  0  0  0  0  0  0  0  0  0  0  0
    3.5981   -1.1153   -1.5197 H   0  0  0  0  0  0  0  0  0  0  0  0
   -0.1923    1.1526    0.7617 C   0  0  0  0  0  0  0  0  0  0  0  0
   -1.1582    1.8438    0.4410 O   0  0  0  0  0  0  0  0  0  0  0  0
    0.7203    1.5683    1.6472 N   0  0  0  0  0  0  0  0  0  0  0  0
    1.5210    0.9664    1.8100 H   0  0  0  0  0  0  0  0  0  0  0  0
    0.6747    2.8558    2.3368 C   0  0  0  0  0  0  0  0  0  0  0  0
   -0.3018    2.9877    2.8079 H   0  0  0  0  0  0  0  0  0  0  0  0
    1.4516    2.8997    3.1011 H   0  0  0  0  0  0  0  0  0  0  0  0
    0.8279    3.6639    1.6193 H   0  0  0  0  0  0  0  0  0  0  0  0
  5  6  2  0  0  0  0
  5  7  1  0  0  0  0
  2  3  1  0  0  0  0
  2  4  1  0  0  0  0
  2  5  1  0  0  0  0
  1  2  1  0  0  0  0
 18 19  2  0  0  0  0
 18 20  1  0  0  0  0
 16 17  1  0  0  0  0
 14 15  2  0  0  0  0
 14 16  1  0  0  0  0
 11 12  1  0  0  0  0
 11 13  1  0  0  0  0
 11 14  1  0  0  0  0
  9 10  1  0  0  0  0
  9 11  1  0  0  0  0
  9 18  1  0  0  0  0
  7  8  1  0  0  0  0
  7  9  1  0  0  0  0
 22 23  1  0  0  0  0
 22 24  1  0  0  0  0
 22 25  1  0  0  0  0
 20 21  1  0  0  0  0
 20 22  1  0  0  0  0
M  END
$$$$
default_name
  -OEChem-02102213163D

 25 24  0     1  0  0  0  0  0999 V2000
   -2.7826   -3.8464    0.7821 H   0  0  0  0  0  0  0  0  0  0  0  0
   -2.8156   -2.8034    0.4711 C   0  0  0  0  0  0  0  0  0  0  0  0
   -3.4336   -2.2354    1.1641 H   0  0  0  0  0  0  0  0  0  0  0  0
   -3.2256   -2.7344   -0.5349 H   0  0  0  0  0  0  0  0  0  0  0  0
   -1.4126   -2.2444    0.4801 C   0  0  0  0  0  0  0  0  0  0  0  0
   -0.4686   -2.9534    0.8001 O   0  0  0  0  0  0  0  0  0  0  0  0
   -1.2736   -0.9704    0.1241 N   0  0  0  0  0  0  0  0  0  0  0  0
   -2.0996   -0.4354   -0.1019 H   0  0  0  0  0  0  0  0  0  0  0  0
   -0.0016   -0.2394    0.1271 C   0  0  1  0  0  0  0  0  0  0  0  0
    0.7164   -0.7963    0.7332 H   0  0  0  0  0  0  0  0  0  0  0  0
    0.5351   -0.1414   -1.3146 C   0  0  0  0  0  0  0  0  0  0  0  0
    0.2146   -1.0164   -1.8815 H   0  0  0  0  0  0  0  0  0  0  0  0
    0.1216    0.7427   -1.8011 H   0  0  0  0  0  0  0  0  0  0  0  0
    2.0579   -0.0918   -1.3933 C   0  0  0  0  0  0  0  0  0  0  0  0
    2.7544    0.8765   -1.1186 O   0  0  0  0  0  0  0  0  0  0  0  0
    2.6390   -1.2313   -1.8128 O   0  0  0  0  0  0  0  0  0  0  0  0
    3.5823   -1.0667   -1.7955 H   0  0  0  0  0  0  0  0  0  0  0  0
   -0.1923    1.1526    0.7617 C   0  0  0  0  0  0  0  0  0  0  0  0
   -1.1582    1.8438    0.4410 O   0  0  0  0  0  0  0  0  0  0  0  0
    0.7203    1.5683    1.6472 N   0  0  0  0  0  0  0  0  0  0  0  0
    1.5210    0.9664    1.8100 H   0  0  0  0  0  0  0  0  0  0  0  0
    0.6747    2.8558    2.3368 C   0  0  0  0  0  0  0  0  0  0  0  0
   -0.3018    2.9877    2.8079 H   0  0  0  0  0  0  0  0  0  0  0  0
    1.4516    2.8997    3.1011 H   0  0  0  0  0  0  0  0  0  0  0  0
    0.8279    3.6639    1.6193 H   0  0  0  0  0  0  0  0  0  0  0  0
  5  6  2  0  0  0  0
  5  7  1  0  0  0  0
  2  3  1  0  0  0  0
  2  4  1  0  0  0  0
  2  5  1  0  0  0  0
  1  2  1  0  0  0  0
 18 19  2  0  0  0  0
 18 20  1  0  0  0  0
 16 17  1  0  0  0  0
 14 15  2  0  0  0  0
 14 16  1  0  0  0  0
 11 12  1  0  0  0  0
 11 13  1  0  0  0  0
 11 14  1  0  0  0  0
  9 10  1  0  0  0  0
  9 11  1  0  0  0  0
  9 18  1  0  0  0  0
  7  8  1  0  0  0  0
  7  9  1  0  0  0  0
 22 23  1  0  0  0  0
 22 24  1  0  0  0  0
 22 25  1  0  0  0  0
 20 21  1  0  0  0  0
 20 22  1  0  0  0  0
M  END
$$$$
default_name
  -OEChem-02102213163D

 25 24  0     1  0  0  0  0  0999 V2000
   -2.7826   -3.8464    0.7821 H   0  0  0  0  0  0  0  0  0  0  0  0
   -2.8156   -2.8034    0.4711 C   0  0  0  0  0  0  0  0  0  0  0  0
   -3.4336   -2.2354    1.1641 H   0  0  0  0  0  0  0  0  0  0  0  0
   -3.2256   -2.7344   -0.5349 H   0  0  0  0  0  0  0  0  0  0  0  0
   -1.4126   -2.2444    0.4801 C   0  0  0  0  0  0  0  0  0  0  0  0
   -0.4686   -2.9534    0.8001 O   0  0  0  0  0  0  0  0  0  0  0  0
   -1.2736   -0.9704    0.1241 N   0  0  0  0  0  0  0  0  0  0  0  0
   -2.0996   -0.4354   -0.1019 H   0  0  0  0  0  0  0  0  0  0  0  0
   -0.0016   -0.2394    0.1271 C   0  0  1  0  0  0  0  0  0  0  0  0
    0.7164   -0.7963    0.7332 H   0  0  0  0  0  0  0  0  0  0  0  0
    0.5351   -0.1414   -1.3146 C   0  0  0  0  0  0  0  0  0  0  0  0
    0.2146   -1.0164   -1.8815 H   0  0  0  0  0  0  0  0  0  0  0  0
    0.1216    0.7427   -1.8011 H   0  0  0  0  0  0  0  0  0  0  0  0
    2.0579   -0.0918   -1.3933 C   0  0  0  0  0  0  0  0  0  0  0  0
    2.7702    0.7641   -0.8849 O   0  0  0  0  0  0  0  0  0  0  0  0
    2.6197   -1.0912   -2.0988 O   0  0  0  0  0  0  0  0  0  0  0  0
    3.5653   -0.9482   -2.0491 H   0  0  0  0  0  0  0  0  0  0  0  0
   -0.1923    1.1526    0.7617 C   0  0  0  0  0  0  0  0  0  0  0  0
   -1.1582    1.8438    0.4410 O   0  0  0  0  0  0  0  0  0  0  0  0
    0.7203    1.5683    1.6472 N   0  0  0  0  0  0  0  0  0  0  0  0
    1.5210    0.9664    1.8100 H   0  0  0  0  0  0  0  0  0  0  0  0
    0.6747    2.8558    2.3368 C   0  0  0  0  0  0  0  0  0  0  0  0
   -0.3018    2.9877    2.8079 H   0  0  0  0  0  0  0  0  0  0  0  0
    1.4516    2.8997    3.1011 H   0  0  0  0  0  0  0  0  0  0  0  0
    0.8279    3.6639    1.6193 H   0  0  0  0  0  0  0  0  0  0  0  0
  5  6  2  0  0  0  0
  5  7  1  0  0  0  0
  2  3  1  0  0  0  0
  2  4  1  0  0  0  0
  2  5  1  0  0  0  0
  1  2  1  0  0  0  0
 18 19  2  0  0  0  0
 18 20  1  0  0  0  0
 16 17  1  0  0  0  0
 14 15  2  0  0  0  0
 14 16  1  0  0  0  0
 11 12  1  0  0  0  0
 11 13  1  0  0  0  0
 11 14  1  0  0  0  0
  9 10  1  0  0  0  0
  9 11  1  0  0  0  0
  9 18  1  0  0  0  0
  7  8  1  0  0  0  0
  7  9  1  0  0  0  0
 22 23  1  0  0  0  0
 22 24  1  0  0  0  0
 22 25  1  0  0  0  0
 20 21  1  0  0  0  0
 20 22  1  0  0  0  0
M  END
$$$$
default_name
  -OEChem-02102213163D

 25 24  0     1  0  0  0  0  0999 V2000
   -2.7826   -3.8464    0.7821 H   0  0  0  0  0  0  0  0  0  0  0  0
   -2.8156   -2.8034    0.4711 C   0  0  0  0  0  0  0  0  0  0  0  0
   -3.4336   -2.2354    1.1641 H   0  0  0  0  0  0  0  0  0  0  0  0
   -3.2256   -2.7344   -0.5349 H   0  0  0  0  0  0  0  0  0  0  0  0
   -1.4126   -2.2444    0.4801 C   0  0  0  0  0  0  0  0  0  0  0  0
   -0.4686   -2.9534    0.8001 O   0  0  0  0  0  0  0  0  0  0  0  0
   -1.2736   -0.9704    0.1241 N   0  0  0  0  0  0  0  0  0  0  0  0
   -2.0996   -0.4354   -0.1019 H   0  0  0  0  0  0  0  0  0  0  0  0
   -0.0016   -0.2394    0.1271 C   0  0  1  0  0  0  0  0  0  0  0  0
    0.7164   -0.7963    0.7332 H   0  0  0  0  0  0  0  0  0  0  0  0
    0.5351   -0.1414   -1.3146 C   0  0  0  0  0  0  0  0  0  0  0  0
    0.2146   -1.0164   -1.8815 H   0  0  0  0  0  0  0  0  0  0  0  0
    0.1216    0.7427   -1.8011 H   0  0  0  0  0  0  0  0  0  0  0  0
    2.0579   -0.0918   -1.3933 C   0  0  0  0  0  0  0  0  0  0  0  0
    2.7858    0.5948   -0.6883 O   0  0  0  0  0  0  0  0  0  0  0  0
    2.6004   -0.8818   -2.3386 O   0  0  0  0  0  0  0  0  0  0  0  0
    3.5484   -0.7681   -2.2633 H   0  0  0  0  0  0  0  0  0  0  0  0
   -0.1923    1.1526    0.7617 C   0  0  0  0  0  0  0  0  0  0  0  0
   -1.1582    1.8438    0.4410 O   0  0  0  0  0  0  0  0  0  0  0  0
    0.7203    1.5683    1.6472 N   0  0  0  0  0  0  0  0  0  0  0  0
    1.5210    0.9664    1.8100 H   0  0  0  0  0  0  0  0  0  0  0  0
    0.6747    2.8558    2.3368 C   0  0  0  0  0  0  0  0  0  0  0  0
   -0.3018    2.9877    2.8079 H   0  0  0  0  0  0  0  0  0  0  0  0
    1.4516    2.8997    3.1011 H   0  0  0  0  0  0  0  0  0  0  0  0
    0.8279    3.6639    1.6193 H   0  0  0  0  0  0  0  0  0  0  0  0
  5  6  2  0  0  0  0
  5  7  1  0  0  0  0
  2  3  1  0  0  0  0
  2  4  1  0  0  0  0
  2  5  1  0  0  0  0
  1  2  1  0  0  0  0
 18 19  2  0  0  0  0
 18 20  1  0  0  0  0
 16 17  1  0  0  0  0
 14 15  2  0  0  0  0
 14 16  1  0  0  0  0
 11 12  1  0  0  0  0
 11 13  1  0  0  0  0
 11 14  1  0  0  0  0
  9 10  1  0  0  0  0
  9 11  1  0  0  0  0
  9 18  1  0  0  0  0
  7  8  1  0  0  0  0
  7  9  1  0  0  0  0
 22 23  1  0  0  0  0
 22 24  1  0  0  0  0
 22 25  1  0  0  0  0
 20 21  1  0  0  0  0
 20 22  1  0  0  0  0
M  END
$$$$
default_name
  -OEChem-02102213163D

 25 24  0     1  0  0  0  0  0999 V2000
   -2.7826   -3.8464    0.7821 H   0  0  0  0  0  0  0  0  0  0  0  0
   -2.8156   -2.8034    0.4711 C   0  0  0  0  0  0  0  0  0  0  0  0
   -3.4336   -2.2354    1.1641 H   0  0  0  0  0  0  0  0  0  0  0  0
   -3.2256   -2.7344   -0.5349 H   0  0  0  0  0  0  0  0  0  0  0  0
   -1.4126   -2.2444    0.4801 C   0  0  0  0  0  0  0  0  0  0  0  0
   -0.4686   -2.9534    0.8001 O   0  0  0  0  0  0  0  0  0  0  0  0
   -1.2736   -0.9704    0.1241 N   0  0  0  0  0  0  0  0  0  0  0  0
   -2.0996   -0.4354   -0.1019 H   0  0  0  0  0  0  0  0  0  0  0  0
   -0.0016   -0.2394    0.1271 C   0  0  1  0  0  0  0  0  0  0  0  0
    0.7164   -0.7963    0.7332 H   0  0  0  0  0  0  0  0  0  0  0  0
    0.5351   -0.1414   -1.3146 C   0  0  0  0  0  0  0  0  0  0  0  0
    0.2146   -1.0164   -1.8815 H   0  0  0  0  0  0  0  0  0  0  0  0
    0.1216    0.7427   -1.8011 H   0  0  0  0  0  0  0  0  0  0  0  0
    2.0579   -0.0918   -1.3933 C   0  0  0  0  0  0  0  0  0  0  0  0
    2.8004    0.3804   -0.5424 O   0  0  0  0  0  0  0  0  0  0  0  0
    2.5827   -0.6172   -2.5160 O   0  0  0  0  0  0  0  0  0  0  0  0
    3.5326   -0.5385   -2.4236 H   0  0  0  0  0  0  0  0  0  0  0  0
   -0.1923    1.1526    0.7617 C   0  0  0  0  0  0  0  0  0  0  0  0
   -1.1582    1.8438    0.4410 O   0  0  0  0  0  0  0  0  0  0  0  0
    0.7203    1.5683    1.6472 N   0  0  0  0  0  0  0  0  0  0  0  0
    1.5210    0.9664    1.8100 H   0  0  0  0  0  0  0  0  0  0  0  0
    0.6747    2.8558    2.3368 C   0  0  0  0  0  0  0  0  0  0  0  0
   -0.3018    2.9877    2.8079 H   0  0  0  0  0  0  0  0  0  0  0  0
    1.4516    2.8997    3.1011 H   0  0  0  0  0  0  0  0  0  0  0  0
    0.8279    3.6639    1.6193 H   0  0  0  0  0  0  0  0  0  0  0  0
  5  6  2  0  0  0  0
  5  7  1  0  0  0  0
  2  3  1  0  0  0  0
  2  4  1  0  0  0  0
  2  5  1  0  0  0  0
  1  2  1  0  0  0  0
 18 19  2  0  0  0  0
 18 20  1  0  0  0  0
 16 17  1  0  0  0  0
 14 15  2  0  0  0  0
 14 16  1  0  0  0  0
 11 12  1  0  0  0  0
 11 13  1  0  0  0  0
 11 14  1  0  0  0  0
  9 10  1  0  0  0  0
  9 11  1  0  0  0  0
  9 18  1  0  0  0  0
  7  8  1  0  0  0  0
  7  9  1  0  0  0  0
 22 23  1  0  0  0  0
 22 24  1  0  0  0  0
 22 25  1  0  0  0  0
 20 21  1  0  0  0  0
 20 22  1  0  0  0  0
M  END
$$$$
default_name
  -OEChem-02102213163D

 25 24  0     1  0  0  0  0  0999 V2000
   -2.7826   -3.8464    0.7821 H   0  0  0  0  0  0  0  0  0  0  0  0
   -2.8156   -2.8034    0.4711 C   0  0  0  0  0  0  0  0  0  0  0  0
   -3.4336   -2.2354    1.1641 H   0  0  0  0  0  0  0  0  0  0  0  0
   -3.2256   -2.7344   -0.5349 H   0  0  0  0  0  0  0  0  0  0  0  0
   -1.4126   -2.2444    0.4801 C   0  0  0  0  0  0  0  0  0  0  0  0
   -0.4686   -2.9534    0.8001 O   0  0  0  0  0  0  0  0  0  0  0  0
   -1.2736   -0.9704    0.1241 N   0  0  0  0  0  0  0  0  0  0  0  0
   -2.0996   -0.4354   -0.1019 H   0  0  0  0  0  0  0  0  0  0  0  0
   -0.0016   -0.2394    0.1271 C   0  0  1  0  0  0  0  0  0  0  0  0
    0.7164   -0.7963    0.7332 H   0  0  0  0  0  0  0  0  0  0  0  0
    0.5351   -0.1414   -1.3146 C   0  0  0  0  0  0  0  0  0  0  0  0
    0.2146   -1.0164   -1.8815 H   0  0  0  0  0  0  0  0  0  0  0  0
    0.1216    0.7427   -1.8011 H   0  0  0  0  0  0  0  0  0  0  0  0
    2.0579   -0.0918   -1.3933 C   0  0  0  0  0  0  0  0  0  0  0  0
    2.8128    0.1354   -0.4569 O   0  0  0  0  0  0  0  0  0  0  0  0
    2.5675   -0.3157   -2.6189 O   0  0  0  0  0  0  0  0  0  0  0  0
    3.5191   -0.2751   -2.5189 H   0  0  0  0  0  0  0  0  0  0  0  0
   -0.1923    1.1526    0.7617 C   0  0  0  0  0  0  0  0  0  0  0  0
   -1.1582    1.8438    0.4410 O   0  0  0  0  0  0  0  0  0  0  0  0
    0.7203    1.5683    1.6472 N   0  0  0  0  0  0  0  0  0  0  0  0
    1.5210    0.9664    1.8100 H   0  0  0  0  0  0  0  0  0  0  0  0
    0.6747    2.8558    2.3368 C   0  0  0  0  0  0  0  0  0  0  0  0
   -0.3018    2.9877    2.8079 H   0  0  0  0  0  0  0  0  0  0  0  0
    1.4516    2.8997    3.1011 H   0  0  0  0  0  0  0  0  0  0  0  0
    0.8279    3.6639    1.6193 H   0  0  0  0  0  0  0  0  0  0  0  0
  5  6  2  0  0  0  0
  5  7  1  0  0  0  0
  2  3  1  0  0  0  0
  2  4  1  0  0  0  0
  2  5  1  0  0  0  0
  1  2  1  0  0  0  0
 18 19  2  0  0  0  0
 18 20  1  0  0  0  0
 16 17  1  0  0  0  0
 14 15  2  0  0  0  0
 14 16  1  0  0  0  0
 11 12  1  0  0  0  0
 11 13  1  0  0  0  0
 11 14  1  0  0  0  0
  9 10  1  0  0  0  0
  9 11  1  0  0  0  0
  9 18  1  0  0  0  0
  7  8  1  0  0  0  0
  7  9  1  0  0  0  0
 22 23  1  0  0  0  0
 22 24  1  0  0  0  0
 22 25  1  0  0  0  0
 20 21  1  0  0  0  0
 20 22  1  0  0  0  0
M  END
$$$$
default_name
  -OEChem-02102213163D

 25 24  0     1  0  0  0  0  0999 V2000
   -2.7826   -3.8464    0.7821 H   0  0  0  0  0  0  0  0  0  0  0  0
   -2.8156   -2.8034    0.4711 C   0  0  0  0  0  0  0  0  0  0  0  0
   -3.4336   -2.2354    1.1641 H   0  0  0  0  0  0  0  0  0  0  0  0
   -3.2256   -2.7344   -0.5349 H   0  0  0  0  0  0  0  0  0  0  0  0
   -1.4126   -2.2444    0.4801 C   0  0  0  0  0  0  0  0  0  0  0  0
   -0.4686   -2.9534    0.8001 O   0  0  0  0  0  0  0  0  0  0  0  0
   -1.2736   -0.9704    0.1241 N   0  0  0  0  0  0  0  0  0  0  0  0
   -2.0996   -0.4354   -0.1019 H   0  0  0  0  0  0  0  0  0  0  0  0
   -0.0016   -0.2394    0.1271 C   0  0  1  0  0  0  0  0  0  0  0  0
    0.7164   -0.7963    0.7332 H   0  0  0  0  0  0  0  0  0  0  0  0
    0.5351   -0.1414   -1.3146 C   0  0  0  0  0  0  0  0  0  0  0  0
    0.2146   -1.0164   -1.8815 H   0  0  0  0  0  0  0  0  0  0  0  0
    0.1216    0.7427   -1.8011 H   0  0  0  0  0  0  0  0  0  0  0  0
    2.0579   -0.0918   -1.3933 C   0  0  0  0  0  0  0  0  0  0  0  0
    2.8222   -0.1236   -0.4377 O   0  0  0  0  0  0  0  0  0  0  0  0
    2.5560    0.0024   -2.6403 O   0  0  0  0  0  0  0  0  0  0  0  0
    3.5088    0.0042   -2.5429 H   0  0  0  0  0  0  0  0  0  0  0  0
   -0.1923    1.1526    0.7617 C   0  0  0  0  0  0  0  0  0  0  0  0
   -1.1582    1.8438    0.4410 O   0  0  0  0  0  0  0  0  0  0  0  0
    0.7203    1.5683    1.6472 N   0  0  0  0  0  0  0  0  0  0  0  0
    1.5210    0.9664    1.8100 H   0  0  0  0  0  0  0  0  0  0  0  0
    0.6747    2.8558    2.3368 C   0  0  0  0  0  0  0  0  0  0  0  0
   -0.3018    2.9877    2.8079 H   0  0  0  0  0  0  0  0  0  0  0  0
    1.4516    2.8997    3.1011 H   0  0  0  0  0  0  0  0  0  0  0  0
    0.8279    3.6639    1.6193 H   0  0  0  0  0  0  0  0  0  0  0  0
  5  6  2  0  0  0  0
  5  7  1  0  0  0  0
  2  3  1  0  0  0  0
  2  4  1  0  0  0  0
  2  5  1  0  0  0  0
  1  2  1  0  0  0  0
 18 19  2  0  0  0  0
 18 20  1  0  0  0  0
 16 17  1  0  0  0  0
 14 15  2  0  0  0  0
 14 16  1  0  0  0  0
 11 12  1  0  0  0  0
 11 13  1  0  0  0  0
 11 14  1  0  0  0  0
  9 10  1  0  0  0  0
  9 11  1  0  0  0  0
  9 18  1  0  0  0  0
  7  8  1  0  0  0  0
  7  9  1  0  0  0  0
 22 23  1  0  0  0  0
 22 24  1  0  0  0  0
 22 25  1  0  0  0  0
 20 21  1  0  0  0  0
 20 22  1  0  0  0  0
M  END
$$$$
default_name
  -OEChem-02102213163D

 25 24  0     1  0  0  0  0  0999 V2000
   -2.7826   -3.8464    0.7821 H   0  0  0  0  0  0  0  0  0  0  0  0
   -2.8156   -2.8034    0.4711 C   0  0  0  0  0  0  0  0  0  0  0  0
   -3.4336   -2.2354    1.1641 H   0  0  0  0  0  0  0  0  0  0  0  0
   -3.2256   -2.7344   -0.5349 H   0  0  0  0  0  0  0  0  0  0  0  0
   -1.4126   -2.2444    0.4801 C   0  0  0  0  0  0  0  0  0  0  0  0
   -0.4686   -2.9534    0.8001 O   0  0  0  0  0  0  0  0  0  0  0  0
   -1.2736   -0.9704    0.1241 N   0  0  0  0  0  0  0  0  0  0  0  0
   -2.0996   -0.4354   -0.1019 H   0  0  0  0  0  0  0  0  0  0  0  0
   -0.0016   -0.2394    0.1271 C   0  0  1  0  0  0  0  0  0  0  0  0
    0.7164   -0.7963    0.7332 H   0  0  0  0  0  0  0  0  0  0  0  0
    0.5351   -0.1414   -1.3146 C   0  0  0  0  0  0  0  0  0  0  0  0
    0.2146   -1.0164   -1.8815 H   0  0  0  0  0  0  0  0  0  0  0  0
    0.1216    0.7427   -1.8011 H   0  0  0  0  0  0  0  0  0  0  0  0
    2.0579   -0.0918   -1.3933 C   0  0  0  0  0  0  0  0  0  0  0  0
    2.8280   -0.3788   -0.4861 O   0  0  0  0  0  0  0  0  0  0  0  0
    2.5490    0.3153   -2.5786 O   0  0  0  0  0  0  0  0  0  0  0  0
    3.5023    0.2802   -2.4938 H   0  0  0  0  0  0  0  0  0  0  0  0
   -0.1923    1.1526    0.7617 C   0  0  0  0  0  0  0  0  0  0  0  0
   -1.1582    1.8438    0.4410 O   0  0  0  0  0  0  0  0  0  0  0  0
    0.7203    1.5683    1.6472 N   0  0  0  0  0  0  0  0  0  0  0  0
    1.5210    0.9664    1.8100 H   0  0  0  0  0  0  0  0  0  0  0  0
    0.6747    2.8558    2.3368 C   0  0  0  0  0  0  0  0  0  0  0  0
   -0.3018    2.9877    2.8079 H   0  0  0  0  0  0  0  0  0  0  0  0
    1.4516    2.8997    3.1011 H   0  0  0  0  0  0  0  0  0  0  0  0
    0.8279    3.6639    1.6193 H   0  0  0  0  0  0  0  0  0  0  0  0
  5  6  2  0  0  0  0
  5  7  1  0  0  0  0
  2  3  1  0  0  0  0
  2  4  1  0  0  0  0
  2  5  1  0  0  0  0
  1  2  1  0  0  0  0
 18 19  2  0  0  0  0
 18 20  1  0  0  0  0
 16 17  1  0  0  0  0
 14 15  2  0  0  0  0
 14 16  1  0  0  0  0
 11 12  1  0  0  0  0
 11 13  1  0  0  0  0
 11 14  1  0  0  0  0
  9 10  1  0  0  0  0
  9 11  1  0  0  0  0
  9 18  1  0  0  0  0
  7  8  1  0  0  0  0
  7  9  1  0  0  0  0
 22 23  1  0  0  0  0
 22 24  1  0  0  0  0
 22 25  1  0  0  0  0
 20 21  1  0  0  0  0
 20 22  1  0  0  0  0
M  END
$$$$
default_name
  -OEChem-02102213163D

 25 24  0     1  0  0  0  0  0999 V2000
   -2.7826   -3.8464    0.7821 H   0  0  0  0  0  0  0  0  0  0  0  0
   -2.8156   -2.8034    0.4711 C   0  0  0  0  0  0  0  0  0  0  0  0
   -3.4336   -2.2354    1.1641 H   0  0  0  0  0  0  0  0  0  0  0  0
   -3.2256   -2.7344   -0.5349 H   0  0  0  0  0  0  0  0  0  0  0  0
   -1.4126   -2.2444    0.4801 C   0  0  0  0  0  0  0  0  0  0  0  0
   -0.4686   -2.9534    0.8001 O   0  0  0  0  0  0  0  0  0  0  0  0
   -1.2736   -0.9704    0.1241 N   0  0  0  0  0  0  0  0  0  0  0  0
   -2.0996   -0.4354   -0.1019 H   0  0  0  0  0  0  0  0  0  0  0  0
   -0.0016   -0.2394    0.1271 C   0  0  1  0  0  0  0  0  0  0  0  0
    0.7164   -0.7963    0.7332 H   0  0  0  0  0  0  0  0  0  0  0  0
    0.5351   -0.1414   -1.3146 C   0  0  0  0  0  0  0  0  0  0  0  0
    0.2146   -1.0164   -1.8815 H   0  0  0  0  0  0  0  0  0  0  0  0
    0.1216    0.7427   -1.8011 H   0  0  0  0  0  0  0  0  0  0  0  0
    2.0579   -0.0918   -1.3933 C   0  0  0  0  0  0  0  0  0  0  0  0
    2.8298   -0.6128   -0.5989 O   0  0  0  0  0  0  0  0  0  0  0  0
    2.5470    0.6017   -2.4382 O   0  0  0  0  0  0  0  0  0  0  0  0
    3.5002    0.5342   -2.3750 H   0  0  0  0  0  0  0  0  0  0  0  0
   -0.1923    1.1526    0.7617 C   0  0  0  0  0  0  0  0  0  0  0  0
   -1.1582    1.8438    0.4410 O   0  0  0  0  0  0  0  0  0  0  0  0
    0.7203    1.5683    1.6472 N   0  0  0  0  0  0  0  0  0  0  0  0
    1.5210    0.9664    1.8100 H   0  0  0  0  0  0  0  0  0  0  0  0
    0.6747    2.8558    2.3368 C   0  0  0  0  0  0  0  0  0  0  0  0
   -0.3018    2.9877    2.8079 H   0  0  0  0  0  0  0  0  0  0  0  0
    1.4516    2.8997    3.1011 H   0  0  0  0  0  0  0  0  0  0  0  0
    0.8279    3.6639    1.6193 H   0  0  0  0  0  0  0  0  0  0  0  0
  5  6  2  0  0  0  0
  5  7  1  0  0  0  0
  2  3  1  0  0  0  0
  2  4  1  0  0  0  0
  2  5  1  0  0  0  0
  1  2  1  0  0  0  0
 18 19  2  0  0  0  0
 18 20  1  0  0  0  0
 16 17  1  0  0  0  0
 14 15  2  0  0  0  0
 14 16  1  0  0  0  0
 11 12  1  0  0  0  0
 11 13  1  0  0  0  0
 11 14  1  0  0  0  0
  9 10  1  0  0  0  0
  9 11  1  0  0  0  0
  9 18  1  0  0  0  0
  7  8  1  0  0  0  0
  7  9  1  0  0  0  0
 22 23  1  0  0  0  0
 22 24  1  0  0  0  0
 22 25  1  0  0  0  0
 20 21  1  0  0  0  0
 20 22  1  0  0  0  0
M  END
$$$$
default_name
  -OEChem-02102213163D

 25 24  0     1  0  0  0  0  0999 V2000
   -2.7826   -3.8464    0.7821 H   0  0  0  0  0  0  0  0  0  0  0  0
   -2.8156   -2.8034    0.4711 C   0  0  0  0  0  0  0  0  0  0  0  0
   -3.4336   -2.2354    1.1641 H   0  0  0  0  0  0  0  0  0  0  0  0
   -3.2256   -2.7344   -0.5349 H   0  0  0  0  0  0  0  0  0  0  0  0
   -1.4126   -2.2444    0.4801 C   0  0  0  0  0  0  0  0  0  0  0  0
   -0.4686   -2.9534    0.8001 O   0  0  0  0  0  0  0  0  0  0  0  0
   -1.2736   -0.9704    0.1241 N   0  0  0  0  0  0  0  0  0  0  0  0
   -2.0996   -0.4354   -0.1019 H   0  0  0  0  0  0  0  0  0  0  0  0
   -0.0016   -0.2394    0.1271 C   0  0  1  0  0  0  0  0  0  0  0  0
    0.7164   -0.7963    0.7332 H   0  0  0  0  0  0  0  0  0  0  0  0
    0.5351   -0.1414   -1.3146 C   0  0  0  0  0  0  0  0  0  0  0  0
    0.2146   -1.0164   -1.8815 H   0  0  0  0  0  0  0  0  0  0  0  0
    0.1216    0.7427   -1.8011 H   0  0  0  0  0  0  0  0  0  0  0  0
    2.0579   -0.0918   -1.3933 C   0  0  0  0  0  0  0  0  0  0  0  0
    2.8275   -0.8098   -0.7683 O   0  0  0  0  0  0  0  0  0  0  0  0
    2.5499    0.8422   -2.2285 O   0  0  0  0  0  0  0  0  0  0  0  0
    3.5025    0.7489   -2.1946 H   0  0  0  0  0  0  0  0  0  0  0  0
   -0.1923    1.1526    0.7617 C   0  0  0  0  0  0  0  0  0  0  0  0
   -1.1582    1.8438    0.4410 O   0  0  0  0  0  0  0  0  0  0  0  0
    0.7203    1.5683    1.6472 N   0  0  0  0  0  0  0  0  0  0  0  0
    1.5210    0.9664    1.8100 H   0  0  0  0  0  0  0  0  0  0  0  0
    0.6747    2.8558    2.3368 C   0  0  0  0  0  0  0  0  0  0  0  0
   -0.3018    2.9877    2.8079 H   0  0  0  0  0  0  0  0  0  0  0  0
    1.4516    2.8997    3.1011 H   0  0  0  0  0  0  0  0  0  0  0  0
    0.8279    3.6639    1.6193 H   0  0  0  0  0  0  0  0  0  0  0  0
  5  6  2  0  0  0  0
  5  7  1  0  0  0  0
  2  3  1  0  0  0  0
  2  4  1  0  0  0  0
  2  5  1  0  0  0  0
  1  2  1  0  0  0  0
 18 19  2  0  0  0  0
 18 20  1  0  0  0  0
 16 17  1  0  0  0  0
 14 15  2  0  0  0  0
 14 16  1  0  0  0  0
 11 12  1  0  0  0  0
 11 13  1  0  0  0  0
 11 14  1  0  0  0  0
  9 10  1  0  0  0  0
  9 11  1  0  0  0  0
  9 18  1  0  0  0  0
  7  8  1  0  0  0  0
  7  9  1  0  0  0  0
 22 23  1  0  0  0  0
 22 24  1  0  0  0  0
 22 25  1  0  0  0  0
 20 21  1  0  0  0  0
 20 22  1  0  0  0  0
M  END
$$$$
default_name
  -OEChem-02102213163D

 25 24  0     1  0  0  0  0  0999 V2000
   -2.7826   -3.8464    0.7821 H   0  0  0  0  0  0  0  0  0  0  0  0
   -2.8156   -2.8034    0.4711 C   0  0  0  0  0  0  0  0  0  0  0  0
   -3.4336   -2.2354    1.1641 H   0  0  0  0  0  0  0  0  0  0  0  0
   -3.2256   -2.7344   -0.5349 H   0  0  0  0  0  0  0  0  0  0  0  0
   -1.4126   -2.2444    0.4801 C   0  0  0  0  0  0  0  0  0  0  0  0
   -0.4686   -2.9534    0.8001 O   0  0  0  0  0  0  0  0  0  0  0  0
   -1.2736   -0.9704    0.1241 N   0  0  0  0  0  0  0  0  0  0  0  0
   -2.0996   -0.4354   -0.1019 H   0  0  0  0  0  0  0  0  0  0  0  0
   -0.0016   -0.2394    0.1271 C   0  0  1  0  0  0  0  0  0  0  0  0
    0.7164   -0.7963    0.7332 H   0  0  0  0  0  0  0  0  0  0  0  0
    0.5351   -0.1414   -1.3146 C   0  0  0  0  0  0  0  0  0  0  0  0
    0.2146   -1.0164   -1.8815 H   0  0  0  0  0  0  0  0  0  0  0  0
    0.1216    0.7427   -1.8011 H   0  0  0  0  0  0  0  0  0  0  0  0
    2.0579   -0.0918   -1.3933 C   0  0  0  0  0  0  0  0  0  0  0  0
    2.8212   -0.9563   -0.9828 O   0  0  0  0  0  0  0  0  0  0  0  0
    2.5578    1.0202   -1.9639 O   0  0  0  0  0  0  0  0  0  0  0  0
    3.5091    0.9097   -1.9649 H   0  0  0  0  0  0  0  0  0  0  0  0
   -0.1923    1.1526    0.7617 C   0  0  0  0  0  0  0  0  0  0  0  0
   -1.1582    1.8438    0.4410 O   0  0  0  0  0  0  0  0  0  0  0  0
    0.7203    1.5683    1.6472 N   0  0  0  0  0  0  0  0  0  0  0  0
    1.5210    0.9664    1.8100 H   0  0  0  0  0  0  0  0  0  0  0  0
    0.6747    2.8558    2.3368 C   0  0  0  0  0  0  0  0  0  0  0  0
   -0.3018    2.9877    2.8079 H   0  0  0  0  0  0  0  0  0  0  0  0
    1.4516    2.8997    3.1011 H   0  0  0  0  0  0  0  0  0  0  0  0
    0.8279    3.6639    1.6193 H   0  0  0  0  0  0  0  0  0  0  0  0
  5  6  2  0  0  0  0
  5  7  1  0  0  0  0
  2  3  1  0  0  0  0
  2  4  1  0  0  0  0
  2  5  1  0  0  0  0
  1  2  1  0  0  0  0
 18 19  2  0  0  0  0
 18 20  1  0  0  0  0
 16 17  1  0  0  0  0
 14 15  2  0  0  0  0
 14 16  1  0  0  0  0
 11 12  1  0  0  0  0
 11 13  1  0  0  0  0
 11 14  1  0  0  0  0
  9 10  1  0  0  0  0
  9 11  1  0  0  0  0
  9 18  1  0  0  0  0
  7  8  1  0  0  0  0
  7  9  1  0  0  0  0
 22 23  1  0  0  0  0
 22 24  1  0  0  0  0
 22 25  1  0  0  0  0
 20 21  1  0  0  0  0
 20 22  1  0  0  0  0
M  END
$$$$
default_name
  -OEChem-02102213163D

 25 24  0     1  0  0  0  0  0999 V2000
   -2.7826   -3.8464    0.7821 H   0  0  0  0  0  0  0  0  0  0  0  0
   -2.8156   -2.8034    0.4711 C   0  0  0  0  0  0  0  0  0  0  0  0
   -3.4336   -2.2354    1.1641 H   0  0  0  0  0  0  0  0  0  0  0  0
   -3.2256   -2.7344   -0.5349 H   0  0  0  0  0  0  0  0  0  0  0  0
   -1.4126   -2.2444    0.4801 C   0  0  0  0  0  0  0  0  0  0  0  0
   -0.4686   -2.9534    0.8001 O   0  0  0  0  0  0  0  0  0  0  0  0
   -1.2736   -0.9704    0.1241 N   0  0  0  0  0  0  0  0  0  0  0  0
   -2.0996   -0.4354   -0.1019 H   0  0  0  0  0  0  0  0  0  0  0  0
   -0.0016   -0.2394    0.1271 C   0  0  1  0  0  0  0  0  0  0  0  0
    0.7164   -0.7963    0.7332 H   0  0  0  0  0  0  0  0  0  0  0  0
    0.5351   -0.1414   -1.3146 C   0  0  0  0  0  0  0  0  0  0  0  0
    0.2146   -1.0164   -1.8815 H   0  0  0  0  0  0  0  0  0  0  0  0
    0.1216    0.7427   -1.8011 H   0  0  0  0  0  0  0  0  0  0  0  0
    2.0579   -0.0918   -1.3933 C   0  0  0  0  0  0  0  0  0  0  0  0
    2.8113   -1.0422   -1.2278 O   0  0  0  0  0  0  0  0  0  0  0  0
    2.5700    1.1236   -1.6624 O   0  0  0  0  0  0  0  0  0  0  0  0
    3.5196    1.0056   -1.7016 H   0  0  0  0  0  0  0  0  0  0  0  0
   -0.1923    1.1526    0.7617 C   0  0  0  0  0  0  0  0  0  0  0  0
   -1.1582    1.8438    0.4410 O   0  0  0  0  0  0  0  0  0  0  0  0
    0.7203    1.5683    1.6472 N   0  0  0  0  0  0  0  0  0  0  0  0
    1.5210    0.9664    1.8100 H   0  0  0  0  0  0  0  0  0  0  0  0
    0.6747    2.8558    2.3368 C   0  0  0  0  0  0  0  0  0  0  0  0
   -0.3018    2.9877    2.8079 H   0  0  0  0  0  0  0  0  0  0  0  0
    1.4516    2.8997    3.1011 H   0  0  0  0  0  0  0  0  0  0  0  0
    0.8279    3.6639    1.6193 H   0  0  0  0  0  0  0  0  0  0  0  0
  5  6  2  0  0  0  0
  5  7  1  0  0  0  0
  2  3  1  0  0  0  0
  2  4  1  0  0  0  0
  2  5  1  0  0  0  0
  1  2  1  0  0  0  0
 18 19  2  0  0  0  0
 18 20  1  0  0  0  0
 16 17  1  0  0  0  0
 14 15  2  0  0  0  0
 14 16  1  0  0  0  0
 11 12  1  0  0  0  0
 11 13  1  0  0  0  0
 11 14  1  0  0  0  0
  9 10  1  0  0  0  0
  9 11  1  0  0  0  0
  9 18  1  0  0  0  0
  7  8  1  0  0  0  0
  7  9  1  0  0  0  0
 22 23  1  0  0  0  0
 22 24  1  0  0  0  0
 22 25  1  0  0  0  0
 20 21  1  0  0  0  0
 20 22  1  0  0  0  0
M  END
$$$$
default_name
  -OEChem-02102213163D

 25 24  0     1  0  0  0  0  0999 V2000
   -2.7826   -3.8464    0.7821 H   0  0  0  0  0  0  0  0  0  0  0  0
   -2.8156   -2.8034    0.4711 C   0  0  0  0  0  0  0  0  0  0  0  0
   -3.4336   -2.2354    1.1641 H   0  0  0  0  0  0  0  0  0  0  0  0
   -3.2256   -2.7344   -0.5349 H   0  0  0  0  0  0  0  0  0  0  0  0
   -1.4126   -2.2444    0.4801 C   0  0  0  0  0  0  0  0  0  0  0  0
   -0.4686   -2.9534    0.8001 O   0  0  0  0  0  0  0  0  0  0  0  0
   -1.2736   -0.9704    0.1241 N   0  0  0  0  0  0  0  0  0  0  0  0
   -2.0996   -0.4354   -0.1019 H   0  0  0  0  0  0  0  0  0  0  0  0
   -0.0016   -0.2394    0.1271 C   0  0  1  0  0  0  0  0  0  0  0  0
    0.7164   -0.7963    0.7332 H   0  0  0  0  0  0  0  0  0  0  0  0
    0.5351   -0.1414   -1.3146 C   0  0  0  0  0  0  0  0  0  0  0  0
    0.2146   -1.0164   -1.8815 H   0  0  0  0  0  0  0  0  0  0  0  0
    0.1216    0.7427   -1.8011 H   0  0  0  0  0  0  0  0  0  0  0  0
    2.0579   -0.0918   -1.3933 C   0  0  0  0  0  0  0  0  0  0  0  0
    2.7986   -1.0619   -1.4866 O   0  0  0  0  0  0  0  0  0  0  0  0
    2.5857    1.1455   -1.3445 O   0  0  0  0  0  0  0  0  0  0  0  0
    3.5332    1.0300   -1.4226 H   0  0  0  0  0  0  0  0  0  0  0  0
   -0.1923    1.1526    0.7617 C   0  0  0  0  0  0  0  0  0  0  0  0
   -1.1582    1.8438    0.4410 O   0  0  0  0  0  0  0  0  0  0  0  0
    0.7203    1.5683    1.6472 N   0  0  0  0  0  0  0  0  0  0  0  0
    1.5210    0.9664    1.8100 H   0  0  0  0  0  0  0  0  0  0  0  0
    0.6747    2.8558    2.3368 C   0  0  0  0  0  0  0  0  0  0  0  0
   -0.3018    2.9877    2.8079 H   0  0  0  0  0  0  0  0  0  0  0  0
    1.4516    2.8997    3.1011 H   0  0  0  0  0  0  0  0  0  0  0  0
    0.8279    3.6639    1.6193 H   0  0  0  0  0  0  0  0  0  0  0  0
  5  6  2  0  0  0  0
  5  7  1  0  0  0  0
  2  3  1  0  0  0  0
  2  4  1  0  0  0  0
  2  5  1  0  0  0  0
  1  2  1  0  0  0  0
 18 19  2  0  0  0  0
 18 20  1  0  0  0  0
 16 17  1  0  0  0  0
 14 15  2  0  0  0  0
 14 16  1  0  0  0  0
 11 12  1  0  0  0  0
 11 13  1  0  0  0  0
 11 14  1  0  0  0  0
  9 10  1  0  0  0  0
  9 11  1  0  0  0  0
  9 18  1  0  0  0  0
  7  8  1  0  0  0  0
  7  9  1  0  0  0  0
 22 23  1  0  0  0  0
 22 24  1  0  0  0  0
 22 25  1  0  0  0  0
 20 21  1  0  0  0  0
 20 22  1  0  0  0  0
M  END
$$$$
default_name
  -OEChem-02102213163D

 25 24  0     1  0  0  0  0  0999 V2000
   -2.7826   -3.8464    0.7821 H   0  0  0  0  0  0  0  0  0  0  0  0
   -2.8156   -2.8034    0.4711 C   0  0  0  0  0  0  0  0  0  0  0  0
   -3.4336   -2.2354    1.1641 H   0  0  0  0  0  0  0  0  0  0  0  0
   -3.2256   -2.7344   -0.5349 H   0  0  0  0  0  0  0  0  0  0  0  0
   -1.4126   -2.2444    0.4801 C   0  0  0  0  0  0  0  0  0  0  0  0
   -0.4686   -2.9534    0.8001 O   0  0  0  0  0  0  0  0  0  0  0  0
   -1.2736   -0.9704    0.1241 N   0  0  0  0  0  0  0  0  0  0  0  0
   -2.0996   -0.4354   -0.1019 H   0  0  0  0  0  0  0  0  0  0  0  0
   -0.0016   -0.2394    0.1271 C   0  0  1  0  0  0  0  0  0  0  0  0
    0.7164   -0.7963    0.7332 H   0  0  0  0  0  0  0  0  0  0  0  0
    0.5351   -0.1414   -1.3146 C   0  0  0  0  0  0  0  0  0  0  0  0
    0.2146   -1.0164   -1.8815 H   0  0  0  0  0  0  0  0  0  0  0  0
    0.1216    0.7427   -1.8011 H   0  0  0  0  0  0  0  0  0  0  0  0
    2.0579   -0.0918   -1.3933 C   0  0  0  0  0  0  0  0  0  0  0  0
    2.7839   -1.0138   -1.7415 O   0  0  0  0  0  0  0  0  0  0  0  0
    2.6038    1.0844   -1.0320 O   0  0  0  0  0  0  0  0  0  0  0  0
    3.5490    0.9813   -1.1468 H   0  0  0  0  0  0  0  0  0  0  0  0
   -0.1923    1.1526    0.7617 C   0  0  0  0  0  0  0  0  0  0  0  0
   -1.1582    1.8438    0.4410 O   0  0  0  0  0  0  0  0  0  0  0  0
    0.7203    1.5683    1.6472 N   0  0  0  0  0  0  0  0  0  0  0  0
    1.5210    0.9664    1.8100 H   0  0  0  0  0  0  0  0  0  0  0  0
    0.6747    2.8558    2.3368 C   0  0  0  0  0  0  0  0  0  0  0  0
   -0.3018    2.9877    2.8079 H   0  0  0  0  0  0  0  0  0  0  0  0
    1.4516    2.8997    3.1011 H   0  0  0  0  0  0  0  0  0  0  0  0
    0.8279    3.6639    1.6193 H   0  0  0  0  0  0  0  0  0  0  0  0
  5  6  2  0  0  0  0
  5  7  1  0  0  0  0
  2  3  1  0  0  0  0
  2  4  1  0  0  0  0
  2  5  1  0  0  0  0
  1  2  1  0  0  0  0
 18 19  2  0  0  0  0
 18 20  1  0  0  0  0
 16 17  1  0  0  0  0
 14 15  2  0  0  0  0
 14 16  1  0  0  0  0
 11 12  1  0  0  0  0
 11 13  1  0  0  0  0
 11 14  1  0  0  0  0
  9 10  1  0  0  0  0
  9 11  1  0  0  0  0
  9 18  1  0  0  0  0
  7  8  1  0  0  0  0
  7  9  1  0  0  0  0
 22 23  1  0  0  0  0
 22 24  1  0  0  0  0
 22 25  1  0  0  0  0
 20 21  1  0  0  0  0
 20 22  1  0  0  0  0
M  END
$$$$
default_name
  -OEChem-02102213163D

 25 24  0     1  0  0  0  0  0999 V2000
   -2.7826   -3.8464    0.7821 H   0  0  0  0  0  0  0  0  0  0  0  0
   -2.8156   -2.8034    0.4711 C   0  0  0  0  0  0  0  0  0  0  0  0
   -3.4336   -2.2354    1.1641 H   0  0  0  0  0  0  0  0  0  0  0  0
   -3.2256   -2.7344   -0.5349 H   0  0  0  0  0  0  0  0  0  0  0  0
   -1.4126   -2.2444    0.4801 C   0  0  0  0  0  0  0  0  0  0  0  0
   -0.4686   -2.9534    0.8001 O   0  0  0  0  0  0  0  0  0  0  0  0
   -1.2736   -0.9704    0.1241 N   0  0  0  0  0  0  0  0  0  0  0  0
   -2.0996   -0.4354   -0.1019 H   0  0  0  0  0  0  0  0  0  0  0  0
   -0.0016   -0.2394    0.1271 C   0  0  1  0  0  0  0  0  0  0  0  0
    0.7164   -0.7963    0.7332 H   0  0  0  0  0  0  0  0  0  0  0  0
    0.5351   -0.1414   -1.3146 C   0  0  0  0  0  0  0  0  0  0  0  0
    0.2146   -1.0164   -1.8815 H   0  0  0  0  0  0  0  0  0  0  0  0
    0.1216    0.7427   -1.8011 H   0  0  0  0  0  0  0  0  0  0  0  0
    2.0579   -0.0918   -1.3933 C   0  0  0  0  0  0  0  0  0  0  0  0
    2.7681   -0.9013   -1.9752 O   0  0  0  0  0  0  0  0  0  0  0  0
    2.6232    0.9443   -0.7460 O   0  0  0  0  0  0  0  0  0  0  0  0
    3.5660    0.8629   -0.8932 H   0  0  0  0  0  0  0  0  0  0  0  0
   -0.1923    1.1526    0.7617 C   0  0  0  0  0  0  0  0  0  0  0  0
   -1.1582    1.8438    0.4410 O   0  0  0  0  0  0  0  0  0  0  0  0
    0.7203    1.5683    1.6472 N   0  0  0  0  0  0  0  0  0  0  0  0
    1.5210    0.9664    1.8100 H   0  0  0  0  0  0  0  0  0  0  0  0
    0.6747    2.8558    2.3368 C   0  0  0  0  0  0  0  0  0  0  0  0
   -0.3018    2.9877    2.8079 H   0  0  0  0  0  0  0  0  0  0  0  0
    1.4516    2.8997    3.1011 H   0  0  0  0  0  0  0  0  0  0  0  0
    0.8279    3.6639    1.6193 H   0  0  0  0  0  0  0  0  0  0  0  0
  5  6  2  0  0  0  0
  5  7  1  0  0  0  0
  2  3  1  0  0  0  0
  2  4  1  0  0  0  0
  2  5  1  0  0  0  0
  1  2  1  0  0  0  0
 18 19  2  0  0  0  0
 18 20  1  0  0  0  0
 16 17  1  0  0  0  0
 14 15  2  0  0  0  0
 14 16  1  0  0  0  0
 11 12  1  0  0  0  0
 11 13  1  0  0  0  0
 11 14  1  0  0  0  0
  9 10  1  0  0  0  0
  9 11  1  0  0  0  0
  9 18  1  0  0  0  0
  7  8  1  0  0  0  0
  7  9  1  0  0  0  0
 22 23  1  0  0  0  0
 22 24  1  0  0  0  0
 22 25  1  0  0  0  0
 20 21  1  0  0  0  0
 20 22  1  0  0  0  0
M  END
$$$$
default_name
  -OEChem-02102213163D

 25 24  0     1  0  0  0  0  0999 V2000
   -2.7826   -3.8464    0.7821 H   0  0  0  0  0  0  0  0  0  0  0  0
   -2.8156   -2.8034    0.4711 C   0  0  0  0  0  0  0  0  0  0  0  0
   -3.4336   -2.2354    1.1641 H   0  0  0  0  0  0  0  0  0  0  0  0
   -3.2256   -2.7344   -0.5349 H   0  0  0  0  0  0  0  0  0  0  0  0
   -1.4126   -2.2444    0.4801 C   0  0  0  0  0  0  0  0  0  0  0  0
   -0.4686   -2.9534    0.8001 O   0  0  0  0  0  0  0  0  0  0  0  0
   -1.2736   -0.9704    0.1241 N   0  0  0  0  0  0  0  0  0  0  0  0
   -2.0996   -0.4354   -0.1019 H   0  0  0  0  0  0  0  0  0  0  0  0
   -0.0016   -0.2394    0.1271 C   0  0  1  0  0  0  0  0  0  0  0  0
    0.7164   -0.7963    0.7332 H   0  0  0  0  0  0  0  0  0  0  0  0
    0.5351   -0.1414   -1.3146 C   0  0  0  0  0  0  0  0  0  0  0  0
    0.2146   -1.0164   -1.8815 H   0  0  0  0  0  0  0  0  0  0  0  0
    0.1216    0.7427   -1.8011 H   0  0  0  0  0  0  0  0  0  0  0  0
    2.0579   -0.0918   -1.3933 C   0  0  0  0  0  0  0  0  0  0  0  0
    2.7525   -0.7321   -2.1717 O   0  0  0  0  0  0  0  0  0  0  0  0
    2.6424    0.7349   -0.5062 O   0  0  0  0  0  0  0  0  0  0  0  0
    3.5829    0.6827   -0.6790 H   0  0  0  0  0  0  0  0  0  0  0  0
   -0.1923    1.1526    0.7617 C   0  0  0  0  0  0  0  0  0  0  0  0
   -1.1582    1.8438    0.4410 O   0  0  0  0  0  0  0  0  0  0  0  0
    0.7203    1.5683    1.6472 N   0  0  0  0  0  0  0  0  0  0  0  0
    1.5210    0.9664    1.8100 H   0  0  0  0  0  0  0  0  0  0  0  0
    0.6747    2.8558    2.3368 C   0  0  0  0  0  0  0  0  0  0  0  0
   -0.3018    2.9877    2.8079 H   0  0  0  0  0  0  0  0  0  0  0  0
    1.4516    2.8997    3.1011 H   0  0  0  0  0  0  0  0  0  0  0  0
    0.8279    3.6639    1.6193 H   0  0  0  0  0  0  0  0  0  0  0  0
  5  6  2  0  0  0  0
  5  7  1  0  0  0  0
  2  3  1  0  0  0  0
  2  4  1  0  0  0  0
  2  5  1  0  0  0  0
  1  2  1  0  0  0  0
 18 19  2  0  0  0  0
 18 20  1  0  0  0  0
 16 17  1  0  0  0  0
 14 15  2  0  0  0  0
 14 16  1  0  0  0  0
 11 12  1  0  0  0  0
 11 13  1  0  0  0  0
 11 14  1  0  0  0  0
  9 10  1  0  0  0  0
  9 11  1  0  0  0  0
  9 18  1  0  0  0  0
  7  8  1  0  0  0  0
  7  9  1  0  0  0  0
 22 23  1  0  0  0  0
 22 24  1  0  0  0  0
 22 25  1  0  0  0  0
 20 21  1  0  0  0  0
 20 22  1  0  0  0  0
M  END
$$$$
default_name
  -OEChem-02102213163D

 25 24  0     1  0  0  0  0  0999 V2000
   -2.7826   -3.8464    0.7821 H   0  0  0  0  0  0  0  0  0  0  0  0
   -2.8156   -2.8034    0.4711 C   0  0  0  0  0  0  0  0  0  0  0  0
   -3.4336   -2.2354    1.1641 H   0  0  0  0  0  0  0  0  0  0  0  0
   -3.2256   -2.7344   -0.5349 H   0  0  0  0  0  0  0  0  0  0  0  0
   -1.4126   -2.2444    0.4801 C   0  0  0  0  0  0  0  0  0  0  0  0
   -0.4686   -2.9534    0.8001 O   0  0  0  0  0  0  0  0  0  0  0  0
   -1.2736   -0.9704    0.1241 N   0  0  0  0  0  0  0  0  0  0  0  0
   -2.0996   -0.4354   -0.1019 H   0  0  0  0  0  0  0  0  0  0  0  0
   -0.0016   -0.2394    0.1271 C   0  0  1  0  0  0  0  0  0  0  0  0
    0.7164   -0.7963    0.7332 H   0  0  0  0  0  0  0  0  0  0  0  0
    0.5351   -0.1414   -1.3146 C   0  0  0  0  0  0  0  0  0  0  0  0
    0.2146   -1.0164   -1.8815 H   0  0  0  0  0  0  0  0  0  0  0  0
    0.1216    0.7427   -1.8011 H   0  0  0  0  0  0  0  0  0  0  0  0
    2.0579   -0.0918   -1.3933 C   0  0  0  0  0  0  0  0  0  0  0  0
    2.7379   -0.5177   -2.3177 O   0  0  0  0  0  0  0  0  0  0  0  0
    2.6602    0.4703   -0.3287 O   0  0  0  0  0  0  0  0  0  0  0  0
    3.5987    0.4531   -0.5187 H   0  0  0  0  0  0  0  0  0  0  0  0
   -0.1923    1.1526    0.7617 C   0  0  0  0  0  0  0  0  0  0  0  0
   -1.1582    1.8438    0.4410 O   0  0  0  0  0  0  0  0  0  0  0  0
    0.7203    1.5683    1.6472 N   0  0  0  0  0  0  0  0  0  0  0  0
    1.5210    0.9664    1.8100 H   0  0  0  0  0  0  0  0  0  0  0  0
    0.6747    2.8558    2.3368 C   0  0  0  0  0  0  0  0  0  0  0  0
   -0.3018    2.9877    2.8079 H   0  0  0  0  0  0  0  0  0  0  0  0
    1.4516    2.8997    3.1011 H   0  0  0  0  0  0  0  0  0  0  0  0
    0.8279    3.6639    1.6193 H   0  0  0  0  0  0  0  0  0  0  0  0
  5  6  2  0  0  0  0
  5  7  1  0  0  0  0
  2  3  1  0  0  0  0
  2  4  1  0  0  0  0
  2  5  1  0  0  0  0
  1  2  1  0  0  0  0
 18 19  2  0  0  0  0
 18 20  1  0  0  0  0
 16 17  1  0  0  0  0
 14 15  2  0  0  0  0
 14 16  1  0  0  0  0
 11 12  1  0  0  0  0
 11 13  1  0  0  0  0
 11 14  1  0  0  0  0
  9 10  1  0  0  0  0
  9 11  1  0  0  0  0
  9 18  1  0  0  0  0
  7  8  1  0  0  0  0
  7  9  1  0  0  0  0
 22 23  1  0  0  0  0
 22 24  1  0  0  0  0
 22 25  1  0  0  0  0
 20 21  1  0  0  0  0
 20 22  1  0  0  0  0
M  END
$$$$
default_name
  -OEChem-02102213163D

 25 24  0     1  0  0  0  0  0999 V2000
   -2.7826   -3.8464    0.7821 H   0  0  0  0  0  0  0  0  0  0  0  0
   -2.8156   -2.8034    0.4711 C   0  0  0  0  0  0  0  0  0  0  0  0
   -3.4336   -2.2354    1.1641 H   0  0  0  0  0  0  0  0  0  0  0  0
   -3.2256   -2.7344   -0.5349 H   0  0  0  0  0  0  0  0  0  0  0  0
   -1.4126   -2.2444    0.4801 C   0  0  0  0  0  0  0  0  0  0  0  0
   -0.4686   -2.9534    0.8001 O   0  0  0  0  0  0  0  0  0  0  0  0
   -1.2736   -0.9704    0.1241 N   0  0  0  0  0  0  0  0  0  0  0  0
   -2.0996   -0.4354   -0.1019 H   0  0  0  0  0  0  0  0  0  0  0  0
   -0.0016   -0.2394    0.1271 C   0  0  1  0  0  0  0  0  0  0  0  0
    0.7164   -0.7963    0.7332 H   0  0  0  0  0  0  0  0  0  0  0  0
    0.5351   -0.1414   -1.3146 C   0  0  0  0  0  0  0  0  0  0  0  0
    0.2146   -1.0164   -1.8815 H   0  0  0  0  0  0  0  0  0  0  0  0
    0.1216    0.7427   -1.8011 H   0  0  0  0  0  0  0  0  0  0  0  0
    2.0579   -0.0918   -1.3933 C   0  0  0  0  0  0  0  0  0  0  0  0
    2.7255   -0.2726   -2.4032 O   0  0  0  0  0  0  0  0  0  0  0  0
    2.6753    0.1688   -0.2259 O   0  0  0  0  0  0  0  0  0  0  0  0
    3.6122    0.1897   -0.4234 H   0  0  0  0  0  0  0  0  0  0  0  0
   -0.1923    1.1526    0.7617 C   0  0  0  0  0  0  0  0  0  0  0  0
   -1.1582    1.8438    0.4410 O   0  0  0  0  0  0  0  0  0  0  0  0
    0.7203    1.5683    1.6472 N   0  0  0  0  0  0  0  0  0  0  0  0
    1.5210    0.9664    1.8100 H   0  0  0  0  0  0  0  0  0  0  0  0
    0.6747    2.8558    2.3368 C   0  0  0  0  0  0  0  0  0  0  0  0
   -0.3018    2.9877    2.8079 H   0  0  0  0  0  0  0  0  0  0  0  0
    1.4516    2.8997    3.1011 H   0  0  0  0  0  0  0  0  0  0  0  0
    0.8279    3.6639    1.6193 H   0  0  0  0  0  0  0  0  0  0  0  0
  5  6  2  0  0  0  0
  5  7  1  0  0  0  0
  2  3  1  0  0  0  0
  2  4  1  0  0  0  0
  2  5  1  0  0  0  0
  1  2  1  0  0  0  0
 18 19  2  0  0  0  0
 18 20  1  0  0  0  0
 16 17  1  0  0  0  0
 14 15  2  0  0  0  0
 14 16  1  0  0  0  0
 11 12  1  0  0  0  0
 11 13  1  0  0  0  0
 11 14  1  0  0  0  0
  9 10  1  0  0  0  0
  9 11  1  0  0  0  0
  9 18  1  0  0  0  0
  7  8  1  0  0  0  0
  7  9  1  0  0  0  0
 22 23  1  0  0  0  0
 22 24  1  0  0  0  0
 22 25  1  0  0  0  0
 20 21  1  0  0  0  0
 20 22  1  0  0  0  0
M  END
$$$$
default_name
  -OEChem-02102213163D

 25 24  0     1  0  0  0  0  0999 V2000
   -2.7826   -3.8464    0.7821 H   0  0  0  0  0  0  0  0  0  0  0  0
   -2.8156   -2.8034    0.4711 C   0  0  0  0  0  0  0  0  0  0  0  0
   -3.4336   -2.2354    1.1641 H   0  0  0  0  0  0  0  0  0  0  0  0
   -3.2256   -2.7344   -0.5349 H   0  0  0  0  0  0  0  0  0  0  0  0
   -1.4126   -2.2444    0.4801 C   0  0  0  0  0  0  0  0  0  0  0  0
   -0.4686   -2.9534    0.8001 O   0  0  0  0  0  0  0  0  0  0  0  0
   -1.2736   -0.9704    0.1241 N   0  0  0  0  0  0  0  0  0  0  0  0
   -2.0996   -0.4354   -0.1019 H   0  0  0  0  0  0  0  0  0  0  0  0
   -0.0016   -0.2394    0.1271 C   0  0  1  0  0  0  0  0  0  0  0  0
    0.7164   -0.7963    0.7332 H   0  0  0  0  0  0  0  0  0  0  0  0
    0.5351   -0.1414   -1.3146 C   0  0  0  0  0  0  0  0  0  0  0  0
    0.0087   -0.8572   -1.9473 H   0  0  0  0  0  0  0  0  0  0  0  0
    0.3461    0.8573   -1.7097 H   0  0  0  0  0  0  0  0  0  0  0  0
    2.0240   -0.4537   -1.4305 C   0  0  0  0  0  0  0  0  0  0  0  0
    2.6759   -0.4423   -2.4665 O   0  0  0  0  0  0  0  0  0  0  0  0
    2.6264   -0.7706   -0.2692 O   0  0  0  0  0  0  0  0  0  0  0  0
    3.5476   -0.9206   -0.4838 H   0  0  0  0  0  0  0  0  0  0  0  0
   -0.1923    1.1526    0.7617 C   0  0  0  0  0  0  0  0  0  0  0  0
   -1.1582    1.8438    0.4410 O   0  0  0  0  0  0  0  0  0  0  0  0
    0.7203    1.5683    1.6472 N   0  0  0  0  0  0  0  0  0  0  0  0
    1.5210    0.9664    1.8100 H   0  0  0  0  0  0  0  0  0  0  0  0
    0.6747    2.8558    2.3368 C   0  0  0  0  0  0  0  0  0  0  0  0
   -0.3018    2.9877    2.8079 H   0  0  0  0  0  0  0  0  0  0  0  0
    1.4516    2.8997    3.1011 H   0  0  0  0  0  0  0  0  0  0  0  0
    0.8279    3.6639    1.6193 H   0  0  0  0  0  0  0  0  0  0  0  0
  5  6  2  0  0  0  0
  5  7  1  0  0  0  0
  2  3  1  0  0  0  0
  2  4  1  0  0  0  0
  2  5  1  0  0  0  0
  1  2  1  0  0  0  0
 18 19  2  0  0  0  0
 18 20  1  0  0  0  0
 16 17  1  0  0  0  0
 14 15  2  0  0  0  0
 14 16  1  0  0  0  0
 11 12  1  0  0  0  0
 11 13  1  0  0  0  0
 11 14  1  0  0  0  0
  9 10  1  0  0  0  0
  9 11  1  0  0  0  0
  9 18  1  0  0  0  0
  7  8  1  0  0  0  0
  7  9  1  0  0  0  0
 22 23  1  0  0  0  0
 22 24  1  0  0  0  0
 22 25  1  0  0  0  0
 20 21  1  0  0  0  0
 20 22  1  0  0  0  0
M  END
$$$$
default_name
  -OEChem-02102213163D

 25 24  0     1  0  0  0  0  0999 V2000
   -2.7826   -3.8464    0.7821 H   0  0  0  0  0  0  0  0  0  0  0  0
   -2.8156   -2.8034    0.4711 C   0  0  0  0  0  0  0  0  0  0  0  0
   -3.4336   -2.2354    1.1641 H   0  0  0  0  0  0  0  0  0  0  0  0
   -3.2256   -2.7344   -0.5349 H   0  0  0  0  0  0  0  0  0  0  0  0
   -1.4126   -2.2444    0.4801 C   0  0  0  0  0  0  0  0  0  0  0  0
   -0.4686   -2.9534    0.8001 O   0  0  0  0  0  0  0  0  0  0  0  0
   -1.2736   -0.9704    0.1241 N   0  0  0  0  0  0  0  0  0  0  0  0
   -2.0996   -0.4354   -0.1019 H   0  0  0  0  0  0  0  0  0  0  0  0
   -0.0016   -0.2394    0.1271 C   0  0  1  0  0  0  0  0  0  0  0  0
    0.7164   -0.7963    0.7332 H   0  0  0  0  0  0  0  0  0  0  0  0
    0.5351   -0.1414   -1.3146 C   0  0  0  0  0  0  0  0  0  0  0  0
    0.0087   -0.8572   -1.9473 H   0  0  0  0  0  0  0  0  0  0  0  0
    0.3461    0.8573   -1.7097 H   0  0  0  0  0  0  0  0  0  0  0  0
    2.0240   -0.4537   -1.4305 C   0  0  0  0  0  0  0  0  0  0  0  0
    2.7325   -0.1988   -2.3956 O   0  0  0  0  0  0  0  0  0  0  0  0
    2.5569   -1.0689   -0.3584 O   0  0  0  0  0  0  0  0  0  0  0  0
    3.4866   -1.1843   -0.5572 H   0  0  0  0  0  0  0  0  0  0  0  0
   -0.1923    1.1526    0.7617 C   0  0  0  0  0  0  0  0  0  0  0  0
   -1.1582    1.8438    0.4410 O   0  0  0  0  0  0  0  0  0  0  0  0
    0.7203    1.5683    1.6472 N   0  0  0  0  0  0  0  0  0  0  0  0
    1.5210    0.9664    1.8100 H   0  0  0  0  0  0  0  0  0  0  0  0
    0.6747    2.8558    2.3368 C   0  0  0  0  0  0  0  0  0  0  0  0
   -0.3018    2.9877    2.8079 H   0  0  0  0  0  0  0  0  0  0  0  0
    1.4516    2.8997    3.1011 H   0  0  0  0  0  0  0  0  0  0  0  0
    0.8279    3.6639    1.6193 H   0  0  0  0  0  0  0  0  0  0  0  0
  5  6  2  0  0  0  0
  5  7  1  0  0  0  0
  2  3  1  0  0  0  0
  2  4  1  0  0  0  0
  2  5  1  0  0  0  0
  1  2  1  0  0  0  0
 18 19  2  0  0  0  0
 18 20  1  0  0  0  0
 16 17  1  0  0  0  0
 14 15  2  0  0  0  0
 14 16  1  0  0  0  0
 11 12  1  0  0  0  0
 11 13  1  0  0  0  0
 11 14  1  0  0  0  0
  9 10  1  0  0  0  0
  9 11  1  0  0  0  0
  9 18  1  0  0  0  0
  7  8  1  0  0  0  0
  7  9  1  0  0  0  0
 22 23  1  0  0  0  0
 22 24  1  0  0  0  0
 22 25  1  0  0  0  0
 20 21  1  0  0  0  0
 20 22  1  0  0  0  0
M  END
$$$$
default_name
  -OEChem-02102213163D

 25 24  0     1  0  0  0  0  0999 V2000
   -2.7826   -3.8464    0.7821 H   0  0  0  0  0  0  0  0  0  0  0  0
   -2.8156   -2.8034    0.4711 C   0  0  0  0  0  0  0  0  0  0  0  0
   -3.4336   -2.2354    1.1641 H   0  0  0  0  0  0  0  0  0  0  0  0
   -3.2256   -2.7344   -0.5349 H   0  0  0  0  0  0  0  0  0  0  0  0
   -1.4126   -2.2444    0.4801 C   0  0  0  0  0  0  0  0  0  0  0  0
   -0.4686   -2.9534    0.8001 O   0  0  0  0  0  0  0  0  0  0  0  0
   -1.2736   -0.9704    0.1241 N   0  0  0  0  0  0  0  0  0  0  0  0
   -2.0996   -0.4354   -0.1019 H   0  0  0  0  0  0  0  0  0  0  0  0
   -0.0016   -0.2394    0.1271 C   0  0  1  0  0  0  0  0  0  0  0  0
    0.7164   -0.7963    0.7332 H   0  0  0  0  0  0  0  0  0  0  0  0
    0.5351   -0.1414   -1.3146 C   0  0  0  0  0  0  0  0  0  0  0  0
    0.0087   -0.8572   -1.9473 H   0  0  0  0  0  0  0  0  0  0  0  0
    0.3461    0.8573   -1.7097 H   0  0  0  0  0  0  0  0  0  0  0  0
    2.0240   -0.4537   -1.4305 C   0  0  0  0  0  0  0  0  0  0  0  0
    2.7882    0.0173   -2.2626 O   0  0  0  0  0  0  0  0  0  0  0  0
    2.4886   -1.3331   -0.5235 O   0  0  0  0  0  0  0  0  0  0  0  0
    3.4263   -1.4193   -0.6979 H   0  0  0  0  0  0  0  0  0  0  0  0
   -0.1923    1.1526    0.7617 C   0  0  0  0  0  0  0  0  0  0  0  0
   -1.1582    1.8438    0.4410 O   0  0  0  0  0  0  0  0  0  0  0  0
    0.7203    1.5683    1.6472 N   0  0  0  0  0  0  0  0  0  0  0  0
    1.5210    0.9664    1.8100 H   0  0  0  0  0  0  0  0  0  0  0  0
    0.6747    2.8558    2.3368 C   0  0  0  0  0  0  0  0  0  0  0  0
   -0.3018    2.9877    2.8079 H   0  0  0  0  0  0  0  0  0  0  0  0
    1.4516    2.8997    3.1011 H   0  0  0  0  0  0  0  0  0  0  0  0
    0.8279    3.6639    1.6193 H   0  0  0  0  0  0  0  0  0  0  0  0
  5  6  2  0  0  0  0
  5  7  1  0  0  0  0
  2  3  1  0  0  0  0
  2  4  1  0  0  0  0
  2  5  1  0  0  0  0
  1  2  1  0  0  0  0
 18 19  2  0  0  0  0
 18 20  1  0  0  0  0
 16 17  1  0  0  0  0
 14 15  2  0  0  0  0
 14 16  1  0  0  0  0
 11 12  1  0  0  0  0
 11 13  1  0  0  0  0
 11 14  1  0  0  0  0
  9 10  1  0  0  0  0
  9 11  1  0  0  0  0
  9 18  1  0  0  0  0
  7  8  1  0  0  0  0
  7  9  1  0  0  0  0
 22 23  1  0  0  0  0
 22 24  1  0  0  0  0
 22 25  1  0  0  0  0
 20 21  1  0  0  0  0
 20 22  1  0  0  0  0
M  END
$$$$
default_name
  -OEChem-02102213163D

 25 24  0     1  0  0  0  0  0999 V2000
   -2.7826   -3.8464    0.7821 H   0  0  0  0  0  0  0  0  0  0  0  0
   -2.8156   -2.8034    0.4711 C   0  0  0  0  0  0  0  0  0  0  0  0
   -3.4336   -2.2354    1.1641 H   0  0  0  0  0  0  0  0  0  0  0  0
   -3.2256   -2.7344   -0.5349 H   0  0  0  0  0  0  0  0  0  0  0  0
   -1.4126   -2.2444    0.4801 C   0  0  0  0  0  0  0  0  0  0  0  0
   -0.4686   -2.9534    0.8001 O   0  0  0  0  0  0  0  0  0  0  0  0
   -1.2736   -0.9704    0.1241 N   0  0  0  0  0  0  0  0  0  0  0  0
   -2.0996   -0.4354   -0.1019 H   0  0  0  0  0  0  0  0  0  0  0  0
   -0.0016   -0.2394    0.1271 C   0  0  1  0  0  0  0  0  0  0  0  0
    0.7164   -0.7963    0.7332 H   0  0  0  0  0  0  0  0  0  0  0  0
    0.5351   -0.1414   -1.3146 C   0  0  0  0  0  0  0  0  0  0  0  0
    0.0087   -0.8572   -1.9473 H   0  0  0  0  0  0  0  0  0  0  0  0
    0.3461    0.8573   -1.7097 H   0  0  0  0  0  0  0  0  0  0  0  0
    2.0240   -0.4537   -1.4305 C   0  0  0  0  0  0  0  0  0  0  0  0
    2.8392    0.1915   -2.0766 O   0  0  0  0  0  0  0  0  0  0  0  0
    2.4262   -1.5453   -0.7534 O   0  0  0  0  0  0  0  0  0  0  0  0
    3.3710   -1.6096   -0.8964 H   0  0  0  0  0  0  0  0  0  0  0  0
   -0.1923    1.1526    0.7617 C   0  0  0  0  0  0  0  0  0  0  0  0
   -1.1582    1.8438    0.4410 O   0  0  0  0  0  0  0  0  0  0  0  0
    0.7203    1.5683    1.6472 N   0  0  0  0  0  0  0  0  0  0  0  0
    1.5210    0.9664    1.8100 H   0  0  0  0  0  0  0  0  0  0  0  0
    0.6747    2.8558    2.3368 C   0  0  0  0  0  0  0  0  0  0  0  0
   -0.3018    2.9877    2.8079 H   0  0  0  0  0  0  0  0  0  0  0  0
    1.4516    2.8997    3.1011 H   0  0  0  0  0  0  0  0  0  0  0  0
    0.8279    3.6639    1.6193 H   0  0  0  0  0  0  0  0  0  0  0  0
  5  6  2  0  0  0  0
  5  7  1  0  0  0  0
  2  3  1  0  0  0  0
  2  4  1  0  0  0  0
  2  5  1  0  0  0  0
  1  2  1  0  0  0  0
 18 19  2  0  0  0  0
 18 20  1  0  0  0  0
 16 17  1  0  0  0  0
 14 15  2  0  0  0  0
 14 16  1  0  0  0  0
 11 12  1  0  0  0  0
 11 13  1  0  0  0  0
 11 14  1  0  0  0  0
  9 10  1  0  0  0  0
  9 11  1  0  0  0  0
  9 18  1  0  0  0  0
  7  8  1  0  0  0  0
  7  9  1  0  0  0  0
 22 23  1  0  0  0  0
 22 24  1  0  0  0  0
 22 25  1  0  0  0  0
 20 21  1  0  0  0  0
 20 22  1  0  0  0  0
M  END
$$$$
default_name
  -OEChem-02102213163D

 25 24  0     1  0  0  0  0  0999 V2000
   -2.7826   -3.8464    0.7821 H   0  0  0  0  0  0  0  0  0  0  0  0
   -2.8156   -2.8034    0.4711 C   0  0  0  0  0  0  0  0  0  0  0  0
   -3.4336   -2.2354    1.1641 H   0  0  0  0  0  0  0  0  0  0  0  0
   -3.2256   -2.7344   -0.5349 H   0  0  0  0  0  0  0  0  0  0  0  0
   -1.4126   -2.2444    0.4801 C   0  0  0  0  0  0  0  0  0  0  0  0
   -0.4686   -2.9534    0.8001 O   0  0  0  0  0  0  0  0  0  0  0  0
   -1.2736   -0.9704    0.1241 N   0  0  0  0  0  0  0  0  0  0  0  0
   -2.0996   -0.4354   -0.1019 H   0  0  0  0  0  0  0  0  0  0  0  0
   -0.0016   -0.2394    0.1271 C   0  0  1  0  0  0  0  0  0  0  0  0
    0.7164   -0.7963    0.7332 H   0  0  0  0  0  0  0  0  0  0  0  0
    0.5351   -0.1414   -1.3146 C   0  0  0  0  0  0  0  0  0  0  0  0
    0.0087   -0.8572   -1.9473 H   0  0  0  0  0  0  0  0  0  0  0  0
    0.3461    0.8573   -1.7097 H   0  0  0  0  0  0  0  0  0  0  0  0
    2.0240   -0.4537   -1.4305 C   0  0  0  0  0  0  0  0  0  0  0  0
    2.8820    0.3117   -1.8503 O   0  0  0  0  0  0  0  0  0  0  0  0
    2.3739   -1.6910   -1.0323 O   0  0  0  0  0  0  0  0  0  0  0  0
    3.3243   -1.7421   -1.1391 H   0  0  0  0  0  0  0  0  0  0  0  0
   -0.1923    1.1526    0.7617 C   0  0  0  0  0  0  0  0  0  0  0  0
   -1.1582    1.8438    0.4410 O   0  0  0  0  0  0  0  0  0  0  0  0
    0.7203    1.5683    1.6472 N   0  0  0  0  0  0  0  0  0  0  0  0
    1.5210    0.9664    1.8100 H   0  0  0  0  0  0  0  0  0  0  0  0
    0.6747    2.8558    2.3368 C   0  0  0  0  0  0  0  0  0  0  0  0
   -0.3018    2.9877    2.8079 H   0  0  0  0  0  0  0  0  0  0  0  0
    1.4516    2.8997    3.1011 H   0  0  0  0  0  0  0  0  0  0  0  0
    0.8279    3.6639    1.6193 H   0  0  0  0  0  0  0  0  0  0  0  0
  5  6  2  0  0  0  0
  5  7  1  0  0  0  0
  2  3  1  0  0  0  0
  2  4  1  0  0  0  0
  2  5  1  0  0  0  0
  1  2  1  0  0  0  0
 18 19  2  0  0  0  0
 18 20  1  0  0  0  0
 16 17  1  0  0  0  0
 14 15  2  0  0  0  0
 14 16  1  0  0  0  0
 11 12  1  0  0  0  0
 11 13  1  0  0  0  0
 11 14  1  0  0  0  0
  9 10  1  0  0  0  0
  9 11  1  0  0  0  0
  9 18  1  0  0  0  0
  7  8  1  0  0  0  0
  7  9  1  0  0  0  0
 22 23  1  0  0  0  0
 22 24  1  0  0  0  0
 22 25  1  0  0  0  0
 20 21  1  0  0  0  0
 20 22  1  0  0  0  0
M  END
$$$$
default_name
  -OEChem-02102213163D

 25 24  0     1  0  0  0  0  0999 V2000
   -2.7826   -3.8464    0.7821 H   0  0  0  0  0  0  0  0  0  0  0  0
   -2.8156   -2.8034    0.4711 C   0  0  0  0  0  0  0  0  0  0  0  0
   -3.4336   -2.2354    1.1641 H   0  0  0  0  0  0  0  0  0  0  0  0
   -3.2256   -2.7344   -0.5349 H   0  0  0  0  0  0  0  0  0  0  0  0
   -1.4126   -2.2444    0.4801 C   0  0  0  0  0  0  0  0  0  0  0  0
   -0.4686   -2.9534    0.8001 O   0  0  0  0  0  0  0  0  0  0  0  0
   -1.2736   -0.9704    0.1241 N   0  0  0  0  0  0  0  0  0  0  0  0
   -2.0996   -0.4354   -0.1019 H   0  0  0  0  0  0  0  0  0  0  0  0
   -0.0016   -0.2394    0.1271 C   0  0  1  0  0  0  0  0  0  0  0  0
    0.7164   -0.7963    0.7332 H   0  0  0  0  0  0  0  0  0  0  0  0
    0.5351   -0.1414   -1.3146 C   0  0  0  0  0  0  0  0  0  0  0  0
    0.0087   -0.8572   -1.9473 H   0  0  0  0  0  0  0  0  0  0  0  0
    0.3461    0.8573   -1.7097 H   0  0  0  0  0  0  0  0  0  0  0  0
    2.0240   -0.4537   -1.4305 C   0  0  0  0  0  0  0  0  0  0  0  0
    2.9137    0.3698   -1.5991 O   0  0  0  0  0  0  0  0  0  0  0  0
    2.3354   -1.7603   -1.3413 O   0  0  0  0  0  0  0  0  0  0  0  0
    3.2895   -1.8079   -1.4094 H   0  0  0  0  0  0  0  0  0  0  0  0
   -0.1923    1.1526    0.7617 C   0  0  0  0  0  0  0  0  0  0  0  0
   -1.1582    1.8438    0.4410 O   0  0  0  0  0  0  0  0  0  0  0  0
    0.7203    1.5683    1.6472 N   0  0  0  0  0  0  0  0  0  0  0  0
    1.5210    0.9664    1.8100 H   0  0  0  0  0  0  0  0  0  0  0  0
    0.6747    2.8558    2.3368 C   0  0  0  0  0  0  0  0  0  0  0  0
   -0.3018    2.9877    2.8079 H   0  0  0  0  0  0  0  0  0  0  0  0
    1.4516    2.8997    3.1011 H   0  0  0  0  0  0  0  0  0  0  0  0
    0.8279    3.6639    1.6193 H   0  0  0  0  0  0  0  0  0  0  0  0
  5  6  2  0  0  0  0
  5  7  1  0  0  0  0
  2  3  1  0  0  0  0
  2  4  1  0  0  0  0
  2  5  1  0  0  0  0
  1  2  1  0  0  0  0
 18 19  2  0  0  0  0
 18 20  1  0  0  0  0
 16 17  1  0  0  0  0
 14 15  2  0  0  0  0
 14 16  1  0  0  0  0
 11 12  1  0  0  0  0
 11 13  1  0  0  0  0
 11 14  1  0  0  0  0
  9 10  1  0  0  0  0
  9 11  1  0  0  0  0
  9 18  1  0  0  0  0
  7  8  1  0  0  0  0
  7  9  1  0  0  0  0
 22 23  1  0  0  0  0
 22 24  1  0  0  0  0
 22 25  1  0  0  0  0
 20 21  1  0  0  0  0
 20 22  1  0  0  0  0
M  END
$$$$
default_name
  -OEChem-02102213163D

 25 24  0     1  0  0  0  0  0999 V2000
   -2.7826   -3.8464    0.7821 H   0  0  0  0  0  0  0  0  0  0  0  0
   -2.8156   -2.8034    0.4711 C   0  0  0  0  0  0  0  0  0  0  0  0
   -3.4336   -2.2354    1.1641 H   0  0  0  0  0  0  0  0  0  0  0  0
   -3.2256   -2.7344   -0.5349 H   0  0  0  0  0  0  0  0  0  0  0  0
   -1.4126   -2.2444    0.4801 C   0  0  0  0  0  0  0  0  0  0  0  0
   -0.4686   -2.9534    0.8001 O   0  0  0  0  0  0  0  0  0  0  0  0
   -1.2736   -0.9704    0.1241 N   0  0  0  0  0  0  0  0  0  0  0  0
   -2.0996   -0.4354   -0.1019 H   0  0  0  0  0  0  0  0  0  0  0  0
   -0.0016   -0.2394    0.1271 C   0  0  1  0  0  0  0  0  0  0  0  0
    0.7164   -0.7963    0.7332 H   0  0  0  0  0  0  0  0  0  0  0  0
    0.5351   -0.1414   -1.3146 C   0  0  0  0  0  0  0  0  0  0  0  0
    0.0087   -0.8572   -1.9473 H   0  0  0  0  0  0  0  0  0  0  0  0
    0.3461    0.8573   -1.7097 H   0  0  0  0  0  0  0  0  0  0  0  0
    2.0240   -0.4537   -1.4305 C   0  0  0  0  0  0  0  0  0  0  0  0
    2.9322    0.3618   -1.3400 O   0  0  0  0  0  0  0  0  0  0  0  0
    2.3131   -1.7484   -1.6593 O   0  0  0  0  0  0  0  0  0  0  0  0
    3.2688   -1.8025   -1.6890 H   0  0  0  0  0  0  0  0  0  0  0  0
   -0.1923    1.1526    0.7617 C   0  0  0  0  0  0  0  0  0  0  0  0
   -1.1582    1.8438    0.4410 O   0  0  0  0  0  0  0  0  0  0  0  0
    0.7203    1.5683    1.6472 N   0  0  0  0  0  0  0  0  0  0  0  0
    1.5210    0.9664    1.8100 H   0  0  0  0  0  0  0  0  0  0  0  0
    0.6747    2.8558    2.3368 C   0  0  0  0  0  0  0  0  0  0  0  0
   -0.3018    2.9877    2.8079 H   0  0  0  0  0  0  0  0  0  0  0  0
    1.4516    2.8997    3.1011 H   0  0  0  0  0  0  0  0  0  0  0  0
    0.8279    3.6639    1.6193 H   0  0  0  0  0  0  0  0  0  0  0  0
  5  6  2  0  0  0  0
  5  7  1  0  0  0  0
  2  3  1  0  0  0  0
  2  4  1  0  0  0  0
  2  5  1  0  0  0  0
  1  2  1  0  0  0  0
 18 19  2  0  0  0  0
 18 20  1  0  0  0  0
 16 17  1  0  0  0  0
 14 15  2  0  0  0  0
 14 16  1  0  0  0  0
 11 12  1  0  0  0  0
 11 13  1  0  0  0  0
 11 14  1  0  0  0  0
  9 10  1  0  0  0  0
  9 11  1  0  0  0  0
  9 18  1  0  0  0  0
  7  8  1  0  0  0  0
  7  9  1  0  0  0  0
 22 23  1  0  0  0  0
 22 24  1  0  0  0  0
 22 25  1  0  0  0  0
 20 21  1  0  0  0  0
 20 22  1  0  0  0  0
M  END
$$$$
default_name
  -OEChem-02102213163D

 25 24  0     1  0  0  0  0  0999 V2000
   -2.7826   -3.8464    0.7821 H   0  0  0  0  0  0  0  0  0  0  0  0
   -2.8156   -2.8034    0.4711 C   0  0  0  0  0  0  0  0  0  0  0  0
   -3.4336   -2.2354    1.1641 H   0  0  0  0  0  0  0  0  0  0  0  0
   -3.2256   -2.7344   -0.5349 H   0  0  0  0  0  0  0  0  0  0  0  0
   -1.4126   -2.2444    0.4801 C   0  0  0  0  0  0  0  0  0  0  0  0
   -0.4686   -2.9534    0.8001 O   0  0  0  0  0  0  0  0  0  0  0  0
   -1.2736   -0.9704    0.1241 N   0  0  0  0  0  0  0  0  0  0  0  0
   -2.0996   -0.4354   -0.1019 H   0  0  0  0  0  0  0  0  0  0  0  0
   -0.0016   -0.2394    0.1271 C   0  0  1  0  0  0  0  0  0  0  0  0
    0.7164   -0.7963    0.7332 H   0  0  0  0  0  0  0  0  0  0  0  0
    0.5351   -0.1414   -1.3146 C   0  0  0  0  0  0  0  0  0  0  0  0
    0.0087   -0.8572   -1.9473 H   0  0  0  0  0  0  0  0  0  0  0  0
    0.3461    0.8573   -1.7097 H   0  0  0  0  0  0  0  0  0  0  0  0
    2.0240   -0.4537   -1.4305 C   0  0  0  0  0  0  0  0  0  0  0  0
    2.9362    0.2884   -1.0909 O   0  0  0  0  0  0  0  0  0  0  0  0
    2.3087   -1.6561   -1.9646 O   0  0  0  0  0  0  0  0  0  0  0  0
    3.2638   -1.7263   -1.9589 H   0  0  0  0  0  0  0  0  0  0  0  0
   -0.1923    1.1526    0.7617 C   0  0  0  0  0  0  0  0  0  0  0  0
   -1.1582    1.8438    0.4410 O   0  0  0  0  0  0  0  0  0  0  0  0
    0.7203    1.5683    1.6472 N   0  0  0  0  0  0  0  0  0  0  0  0
    1.5210    0.9664    1.8100 H   0  0  0  0  0  0  0  0  0  0  0  0
    0.6747    2.8558    2.3368 C   0  0  0  0  0  0  0  0  0  0  0  0
   -0.3018    2.9877    2.8079 H   0  0  0  0  0  0  0  0  0  0  0  0
    1.4516    2.8997    3.1011 H   0  0  0  0  0  0  0  0  0  0  0  0
    0.8279    3.6639    1.6193 H   0  0  0  0  0  0  0  0  0  0  0  0
  5  6  2  0  0  0  0
  5  7  1  0  0  0  0
  2  3  1  0  0  0  0
  2  4  1  0  0  0  0
  2  5  1  0  0  0  0
  1  2  1  0  0  0  0
 18 19  2  0  0  0  0
 18 20  1  0  0  0  0
 16 17  1  0  0  0  0
 14 15  2  0  0  0  0
 14 16  1  0  0  0  0
 11 12  1  0  0  0  0
 11 13  1  0  0  0  0
 11 14  1  0  0  0  0
  9 10  1  0  0  0  0
  9 11  1  0  0  0  0
  9 18  1  0  0  0  0
  7  8  1  0  0  0  0
  7  9  1  0  0  0  0
 22 23  1  0  0  0  0
 22 24  1  0  0  0  0
 22 25  1  0  0  0  0
 20 21  1  0  0  0  0
 20 22  1  0  0  0  0
M  END
$$$$
default_name
  -OEChem-02102213163D

 25 24  0     1  0  0  0  0  0999 V2000
   -2.7826   -3.8464    0.7821 H   0  0  0  0  0  0  0  0  0  0  0  0
   -2.8156   -2.8034    0.4711 C   0  0  0  0  0  0  0  0  0  0  0  0
   -3.4336   -2.2354    1.1641 H   0  0  0  0  0  0  0  0  0  0  0  0
   -3.2256   -2.7344   -0.5349 H   0  0  0  0  0  0  0  0  0  0  0  0
   -1.4126   -2.2444    0.4801 C   0  0  0  0  0  0  0  0  0  0  0  0
   -0.4686   -2.9534    0.8001 O   0  0  0  0  0  0  0  0  0  0  0  0
   -1.2736   -0.9704    0.1241 N   0  0  0  0  0  0  0  0  0  0  0  0
   -2.0996   -0.4354   -0.1019 H   0  0  0  0  0  0  0  0  0  0  0  0
   -0.0016   -0.2394    0.1271 C   0  0  1  0  0  0  0  0  0  0  0  0
    0.7164   -0.7963    0.7332 H   0  0  0  0  0  0  0  0  0  0  0  0
    0.5351   -0.1414   -1.3146 C   0  0  0  0  0  0  0  0  0  0  0  0
    0.0087   -0.8572   -1.9473 H   0  0  0  0  0  0  0  0  0  0  0  0
    0.3461    0.8573   -1.7097 H   0  0  0  0  0  0  0  0  0  0  0  0
    2.0240   -0.4537   -1.4305 C   0  0  0  0  0  0  0  0  0  0  0  0
    2.9254    0.1544   -0.8685 O   0  0  0  0  0  0  0  0  0  0  0  0
    2.3224   -1.4898   -2.2365 O   0  0  0  0  0  0  0  0  0  0  0  0
    3.2748   -1.5844   -2.2005 H   0  0  0  0  0  0  0  0  0  0  0  0
   -0.1923    1.1526    0.7617 C   0  0  0  0  0  0  0  0  0  0  0  0
   -1.1582    1.8438    0.4410 O   0  0  0  0  0  0  0  0  0  0  0  0
    0.7203    1.5683    1.6472 N   0  0  0  0  0  0  0  0  0  0  0  0
    1.5210    0.9664    1.8100 H   0  0  0  0  0  0  0  0  0  0  0  0
    0.6747    2.8558    2.3368 C   0  0  0  0  0  0  0  0  0  0  0  0
   -0.3018    2.9877    2.8079 H   0  0  0  0  0  0  0  0  0  0  0  0
    1.4516    2.8997    3.1011 H   0  0  0  0  0  0  0  0  0  0  0  0
    0.8279    3.6639    1.6193 H   0  0  0  0  0  0  0  0  0  0  0  0
  5  6  2  0  0  0  0
  5  7  1  0  0  0  0
  2  3  1  0  0  0  0
  2  4  1  0  0  0  0
  2  5  1  0  0  0  0
  1  2  1  0  0  0  0
 18 19  2  0  0  0  0
 18 20  1  0  0  0  0
 16 17  1  0  0  0  0
 14 15  2  0  0  0  0
 14 16  1  0  0  0  0
 11 12  1  0  0  0  0
 11 13  1  0  0  0  0
 11 14  1  0  0  0  0
  9 10  1  0  0  0  0
  9 11  1  0  0  0  0
  9 18  1  0  0  0  0
  7  8  1  0  0  0  0
  7  9  1  0  0  0  0
 22 23  1  0  0  0  0
 22 24  1  0  0  0  0
 22 25  1  0  0  0  0
 20 21  1  0  0  0  0
 20 22  1  0  0  0  0
M  END
$$$$
default_name
  -OEChem-02102213163D

 25 24  0     1  0  0  0  0  0999 V2000
   -2.7826   -3.8464    0.7821 H   0  0  0  0  0  0  0  0  0  0  0  0
   -2.8156   -2.8034    0.4711 C   0  0  0  0  0  0  0  0  0  0  0  0
   -3.4336   -2.2354    1.1641 H   0  0  0  0  0  0  0  0  0  0  0  0
   -3.2256   -2.7344   -0.5349 H   0  0  0  0  0  0  0  0  0  0  0  0
   -1.4126   -2.2444    0.4801 C   0  0  0  0  0  0  0  0  0  0  0  0
   -0.4686   -2.9534    0.8001 O   0  0  0  0  0  0  0  0  0  0  0  0
   -1.2736   -0.9704    0.1241 N   0  0  0  0  0  0  0  0  0  0  0  0
   -2.0996   -0.4354   -0.1019 H   0  0  0  0  0  0  0  0  0  0  0  0
   -0.0016   -0.2394    0.1271 C   0  0  1  0  0  0  0  0  0  0  0  0
    0.7164   -0.7963    0.7332 H   0  0  0  0  0  0  0  0  0  0  0  0
    0.5351   -0.1414   -1.3146 C   0  0  0  0  0  0  0  0  0  0  0  0
    0.0087   -0.8572   -1.9473 H   0  0  0  0  0  0  0  0  0  0  0  0
    0.3461    0.8573   -1.7097 H   0  0  0  0  0  0  0  0  0  0  0  0
    2.0240   -0.4537   -1.4305 C   0  0  0  0  0  0  0  0  0  0  0  0
    2.9006   -0.0310   -0.6882 O   0  0  0  0  0  0  0  0  0  0  0  0
    2.3533   -1.2607   -2.4564 O   0  0  0  0  0  0  0  0  0  0  0  0
    3.3009   -1.3865   -2.3975 H   0  0  0  0  0  0  0  0  0  0  0  0
   -0.1923    1.1526    0.7617 C   0  0  0  0  0  0  0  0  0  0  0  0
   -1.1582    1.8438    0.4410 O   0  0  0  0  0  0  0  0  0  0  0  0
    0.7203    1.5683    1.6472 N   0  0  0  0  0  0  0  0  0  0  0  0
    1.5210    0.9664    1.8100 H   0  0  0  0  0  0  0  0  0  0  0  0
    0.6747    2.8558    2.3368 C   0  0  0  0  0  0  0  0  0  0  0  0
   -0.3018    2.9877    2.8079 H   0  0  0  0  0  0  0  0  0  0  0  0
    1.4516    2.8997    3.1011 H   0  0  0  0  0  0  0  0  0  0  0  0
    0.8279    3.6639    1.6193 H   0  0  0  0  0  0  0  0  0  0  0  0
  5  6  2  0  0  0  0
  5  7  1  0  0  0  0
  2  3  1  0  0  0  0
  2  4  1  0  0  0  0
  2  5  1  0  0  0  0
  1  2  1  0  0  0  0
 18 19  2  0  0  0  0
 18 20  1  0  0  0  0
 16 17  1  0  0  0  0
 14 15  2  0  0  0  0
 14 16  1  0  0  0  0
 11 12  1  0  0  0  0
 11 13  1  0  0  0  0
 11 14  1  0  0  0  0
  9 10  1  0  0  0  0
  9 11  1  0  0  0  0
  9 18  1  0  0  0  0
  7  8  1  0  0  0  0
  7  9  1  0  0  0  0
 22 23  1  0  0  0  0
 22 24  1  0  0  0  0
 22 25  1  0  0  0  0
 20 21  1  0  0  0  0
 20 22  1  0  0  0  0
M  END
$$$$
default_name
  -OEChem-02102213163D

 25 24  0     1  0  0  0  0  0999 V2000
   -2.7826   -3.8464    0.7821 H   0  0  0  0  0  0  0  0  0  0  0  0
   -2.8156   -2.8034    0.4711 C   0  0  0  0  0  0  0  0  0  0  0  0
   -3.4336   -2.2354    1.1641 H   0  0  0  0  0  0  0  0  0  0  0  0
   -3.2256   -2.7344   -0.5349 H   0  0  0  0  0  0  0  0  0  0  0  0
   -1.4126   -2.2444    0.4801 C   0  0  0  0  0  0  0  0  0  0  0  0
   -0.4686   -2.9534    0.8001 O   0  0  0  0  0  0  0  0  0  0  0  0
   -1.2736   -0.9704    0.1241 N   0  0  0  0  0  0  0  0  0  0  0  0
   -2.0996   -0.4354   -0.1019 H   0  0  0  0  0  0  0  0  0  0  0  0
   -0.0016   -0.2394    0.1271 C   0  0  1  0  0  0  0  0  0  0  0  0
    0.7164   -0.7963    0.7332 H   0  0  0  0  0  0  0  0  0  0  0  0
    0.5351   -0.1414   -1.3146 C   0  0  0  0  0  0  0  0  0  0  0  0
    0.0087   -0.8572   -1.9473 H   0  0  0  0  0  0  0  0  0  0  0  0
    0.3461    0.8573   -1.7097 H   0  0  0  0  0  0  0  0  0  0  0  0
    2.0240   -0.4537   -1.4305 C   0  0  0  0  0  0  0  0  0  0  0  0
    2.8634   -0.2551   -0.5621 O   0  0  0  0  0  0  0  0  0  0  0  0
    2.3994   -0.9845   -2.6092 O   0  0  0  0  0  0  0  0  0  0  0  0
    3.3405   -1.1462   -2.5364 H   0  0  0  0  0  0  0  0  0  0  0  0
   -0.1923    1.1526    0.7617 C   0  0  0  0  0  0  0  0  0  0  0  0
   -1.1582    1.8438    0.4410 O   0  0  0  0  0  0  0  0  0  0  0  0
    0.7203    1.5683    1.6472 N   0  0  0  0  0  0  0  0  0  0  0  0
    1.5210    0.9664    1.8100 H   0  0  0  0  0  0  0  0  0  0  0  0
    0.6747    2.8558    2.3368 C   0  0  0  0  0  0  0  0  0  0  0  0
   -0.3018    2.9877    2.8079 H   0  0  0  0  0  0  0  0  0  0  0  0
    1.4516    2.8997    3.1011 H   0  0  0  0  0  0  0  0  0  0  0  0
    0.8279    3.6639    1.6193 H   0  0  0  0  0  0  0  0  0  0  0  0
  5  6  2  0  0  0  0
  5  7  1  0  0  0  0
  2  3  1  0  0  0  0
  2  4  1  0  0  0  0
  2  5  1  0  0  0  0
  1  2  1  0  0  0  0
 18 19  2  0  0  0  0
 18 20  1  0  0  0  0
 16 17  1  0  0  0  0
 14 15  2  0  0  0  0
 14 16  1  0  0  0  0
 11 12  1  0  0  0  0
 11 13  1  0  0  0  0
 11 14  1  0  0  0  0
  9 10  1  0  0  0  0
  9 11  1  0  0  0  0
  9 18  1  0  0  0  0
  7  8  1  0  0  0  0
  7  9  1  0  0  0  0
 22 23  1  0  0  0  0
 22 24  1  0  0  0  0
 22 25  1  0  0  0  0
 20 21  1  0  0  0  0
 20 22  1  0  0  0  0
M  END
$$$$
default_name
  -OEChem-02102213163D

 25 24  0     1  0  0  0  0  0999 V2000
   -2.7826   -3.8464    0.7821 H   0  0  0  0  0  0  0  0  0  0  0  0
   -2.8156   -2.8034    0.4711 C   0  0  0  0  0  0  0  0  0  0  0  0
   -3.4336   -2.2354    1.1641 H   0  0  0  0  0  0  0  0  0  0  0  0
   -3.2256   -2.7344   -0.5349 H   0  0  0  0  0  0  0  0  0  0  0  0
   -1.4126   -2.2444    0.4801 C   0  0  0  0  0  0  0  0  0  0  0  0
   -0.4686   -2.9534    0.8001 O   0  0  0  0  0  0  0  0  0  0  0  0
   -1.2736   -0.9704    0.1241 N   0  0  0  0  0  0  0  0  0  0  0  0
   -2.0996   -0.4354   -0.1019 H   0  0  0  0  0  0  0  0  0  0  0  0
   -0.0016   -0.2394    0.1271 C   0  0  1  0  0  0  0  0  0  0  0  0
    0.7164   -0.7963    0.7332 H   0  0  0  0  0  0  0  0  0  0  0  0
    0.5351   -0.1414   -1.3146 C   0  0  0  0  0  0  0  0  0  0  0  0
    0.0087   -0.8572   -1.9473 H   0  0  0  0  0  0  0  0  0  0  0  0
    0.3461    0.8573   -1.7097 H   0  0  0  0  0  0  0  0  0  0  0  0
    2.0240   -0.4537   -1.4305 C   0  0  0  0  0  0  0  0  0  0  0  0
    2.8164   -0.5027   -0.4989 O   0  0  0  0  0  0  0  0  0  0  0  0
    2.4574   -0.6800   -2.6847 O   0  0  0  0  0  0  0  0  0  0  0  0
    3.3909   -0.8797   -2.6078 H   0  0  0  0  0  0  0  0  0  0  0  0
   -0.1923    1.1526    0.7617 C   0  0  0  0  0  0  0  0  0  0  0  0
   -1.1582    1.8438    0.4410 O   0  0  0  0  0  0  0  0  0  0  0  0
    0.7203    1.5683    1.6472 N   0  0  0  0  0  0  0  0  0  0  0  0
    1.5210    0.9664    1.8100 H   0  0  0  0  0  0  0  0  0  0  0  0
    0.6747    2.8558    2.3368 C   0  0  0  0  0  0  0  0  0  0  0  0
   -0.3018    2.9877    2.8079 H   0  0  0  0  0  0  0  0  0  0  0  0
    1.4516    2.8997    3.1011 H   0  0  0  0  0  0  0  0  0  0  0  0
    0.8279    3.6639    1.6193 H   0  0  0  0  0  0  0  0  0  0  0  0
  5  6  2  0  0  0  0
  5  7  1  0  0  0  0
  2  3  1  0  0  0  0
  2  4  1  0  0  0  0
  2  5  1  0  0  0  0
  1  2  1  0  0  0  0
 18 19  2  0  0  0  0
 18 20  1  0  0  0  0
 16 17  1  0  0  0  0
 14 15  2  0  0  0  0
 14 16  1  0  0  0  0
 11 12  1  0  0  0  0
 11 13  1  0  0  0  0
 11 14  1  0  0  0  0
  9 10  1  0  0  0  0
  9 11  1  0  0  0  0
  9 18  1  0  0  0  0
  7  8  1  0  0  0  0
  7  9  1  0  0  0  0
 22 23  1  0  0  0  0
 22 24  1  0  0  0  0
 22 25  1  0  0  0  0
 20 21  1  0  0  0  0
 20 22  1  0  0  0  0
M  END
$$$$
default_name
  -OEChem-02102213163D

 25 24  0     1  0  0  0  0  0999 V2000
   -2.7826   -3.8464    0.7821 H   0  0  0  0  0  0  0  0  0  0  0  0
   -2.8156   -2.8034    0.4711 C   0  0  0  0  0  0  0  0  0  0  0  0
   -3.4336   -2.2354    1.1641 H   0  0  0  0  0  0  0  0  0  0  0  0
   -3.2256   -2.7344   -0.5349 H   0  0  0  0  0  0  0  0  0  0  0  0
   -1.4126   -2.2444    0.4801 C   0  0  0  0  0  0  0  0  0  0  0  0
   -0.4686   -2.9534    0.8001 O   0  0  0  0  0  0  0  0  0  0  0  0
   -1.2736   -0.9704    0.1241 N   0  0  0  0  0  0  0  0  0  0  0  0
   -2.0996   -0.4354   -0.1019 H   0  0  0  0  0  0  0  0  0  0  0  0
   -0.0016   -0.2394    0.1271 C   0  0  1  0  0  0  0  0  0  0  0  0
    0.7164   -0.7963    0.7332 H   0  0  0  0  0  0  0  0  0  0  0  0
    0.5351   -0.1414   -1.3146 C   0  0  0  0  0  0  0  0  0  0  0  0
    0.0087   -0.8572   -1.9473 H   0  0  0  0  0  0  0  0  0  0  0  0
    0.3461    0.8573   -1.7097 H   0  0  0  0  0  0  0  0  0  0  0  0
    2.0240   -0.4537   -1.4305 C   0  0  0  0  0  0  0  0  0  0  0  0
    2.7627   -0.7569   -0.5029 O   0  0  0  0  0  0  0  0  0  0  0  0
    2.5234   -0.3680   -2.6776 O   0  0  0  0  0  0  0  0  0  0  0  0
    3.4485   -0.6052   -2.6067 H   0  0  0  0  0  0  0  0  0  0  0  0
   -0.1923    1.1526    0.7617 C   0  0  0  0  0  0  0  0  0  0  0  0
   -1.1582    1.8438    0.4410 O   0  0  0  0  0  0  0  0  0  0  0  0
    0.7203    1.5683    1.6472 N   0  0  0  0  0  0  0  0  0  0  0  0
    1.5210    0.9664    1.8100 H   0  0  0  0  0  0  0  0  0  0  0  0
    0.6747    2.8558    2.3368 C   0  0  0  0  0  0  0  0  0  0  0  0
   -0.3018    2.9877    2.8079 H   0  0  0  0  0  0  0  0  0  0  0  0
    1.4516    2.8997    3.1011 H   0  0  0  0  0  0  0  0  0  0  0  0
    0.8279    3.6639    1.6193 H   0  0  0  0  0  0  0  0  0  0  0  0
  5  6  2  0  0  0  0
  5  7  1  0  0  0  0
  2  3  1  0  0  0  0
  2  4  1  0  0  0  0
  2  5  1  0  0  0  0
  1  2  1  0  0  0  0
 18 19  2  0  0  0  0
 18 20  1  0  0  0  0
 16 17  1  0  0  0  0
 14 15  2  0  0  0  0
 14 16  1  0  0  0  0
 11 12  1  0  0  0  0
 11 13  1  0  0  0  0
 11 14  1  0  0  0  0
  9 10  1  0  0  0  0
  9 11  1  0  0  0  0
  9 18  1  0  0  0  0
  7  8  1  0  0  0  0
  7  9  1  0  0  0  0
 22 23  1  0  0  0  0
 22 24  1  0  0  0  0
 22 25  1  0  0  0  0
 20 21  1  0  0  0  0
 20 22  1  0  0  0  0
M  END
$$$$
default_name
  -OEChem-02102213163D

 25 24  0     1  0  0  0  0  0999 V2000
   -2.7826   -3.8464    0.7821 H   0  0  0  0  0  0  0  0  0  0  0  0
   -2.8156   -2.8034    0.4711 C   0  0  0  0  0  0  0  0  0  0  0  0
   -3.4336   -2.2354    1.1641 H   0  0  0  0  0  0  0  0  0  0  0  0
   -3.2256   -2.7344   -0.5349 H   0  0  0  0  0  0  0  0  0  0  0  0
   -1.4126   -2.2444    0.4801 C   0  0  0  0  0  0  0  0  0  0  0  0
   -0.4686   -2.9534    0.8001 O   0  0  0  0  0  0  0  0  0  0  0  0
   -1.2736   -0.9704    0.1241 N   0  0  0  0  0  0  0  0  0  0  0  0
   -2.0996   -0.4354   -0.1019 H   0  0  0  0  0  0  0  0  0  0  0  0
   -0.0016   -0.2394    0.1271 C   0  0  1  0  0  0  0  0  0  0  0  0
    0.7164   -0.7963    0.7332 H   0  0  0  0  0  0  0  0  0  0  0  0
    0.5351   -0.1414   -1.3146 C   0  0  0  0  0  0  0  0  0  0  0  0
    0.0087   -0.8572   -1.9473 H   0  0  0  0  0  0  0  0  0  0  0  0
    0.3461    0.8573   -1.7097 H   0  0  0  0  0  0  0  0  0  0  0  0
    2.0240   -0.4537   -1.4305 C   0  0  0  0  0  0  0  0  0  0  0  0
    2.7062   -1.0004   -0.5737 O   0  0  0  0  0  0  0  0  0  0  0  0
    2.5929   -0.0697   -2.5885 O   0  0  0  0  0  0  0  0  0  0  0  0
    3.5095   -0.3415   -2.5334 H   0  0  0  0  0  0  0  0  0  0  0  0
   -0.1923    1.1526    0.7617 C   0  0  0  0  0  0  0  0  0  0  0  0
   -1.1582    1.8438    0.4410 O   0  0  0  0  0  0  0  0  0  0  0  0
    0.7203    1.5683    1.6472 N   0  0  0  0  0  0  0  0  0  0  0  0
    1.5210    0.9664    1.8100 H   0  0  0  0  0  0  0  0  0  0  0  0
    0.6747    2.8558    2.3368 C   0  0  0  0  0  0  0  0  0  0  0  0
   -0.3018    2.9877    2.8079 H   0  0  0  0  0  0  0  0  0  0  0  0
    1.4516    2.8997    3.1011 H   0  0  0  0  0  0  0  0  0  0  0  0
    0.8279    3.6639    1.6193 H   0  0  0  0  0  0  0  0  0  0  0  0
  5  6  2  0  0  0  0
  5  7  1  0  0  0  0
  2  3  1  0  0  0  0
  2  4  1  0  0  0  0
  2  5  1  0  0  0  0
  1  2  1  0  0  0  0
 18 19  2  0  0  0  0
 18 20  1  0  0  0  0
 16 17  1  0  0  0  0
 14 15  2  0  0  0  0
 14 16  1  0  0  0  0
 11 12  1  0  0  0  0
 11 13  1  0  0  0  0
 11 14  1  0  0  0  0
  9 10  1  0  0  0  0
  9 11  1  0  0  0  0
  9 18  1  0  0  0  0
  7  8  1  0  0  0  0
  7  9  1  0  0  0  0
 22 23  1  0  0  0  0
 22 24  1  0  0  0  0
 22 25  1  0  0  0  0
 20 21  1  0  0  0  0
 20 22  1  0  0  0  0
M  END
$$$$
default_name
  -OEChem-02102213163D

 25 24  0     1  0  0  0  0  0999 V2000
   -2.7826   -3.8464    0.7821 H   0  0  0  0  0  0  0  0  0  0  0  0
   -2.8156   -2.8034    0.4711 C   0  0  0  0  0  0  0  0  0  0  0  0
   -3.4336   -2.2354    1.1641 H   0  0  0  0  0  0  0  0  0  0  0  0
   -3.2256   -2.7344   -0.5349 H   0  0  0  0  0  0  0  0  0  0  0  0
   -1.4126   -2.2444    0.4801 C   0  0  0  0  0  0  0  0  0  0  0  0
   -0.4686   -2.9534    0.8001 O   0  0  0  0  0  0  0  0  0  0  0  0
   -1.2736   -0.9704    0.1241 N   0  0  0  0  0  0  0  0  0  0  0  0
   -2.0996   -0.4354   -0.1019 H   0  0  0  0  0  0  0  0  0  0  0  0
   -0.0016   -0.2394    0.1271 C   0  0  1  0  0  0  0  0  0  0  0  0
    0.7164   -0.7963    0.7332 H   0  0  0  0  0  0  0  0  0  0  0  0
    0.5351   -0.1414   -1.3146 C   0  0  0  0  0  0  0  0  0  0  0  0
    0.0087   -0.8572   -1.9473 H   0  0  0  0  0  0  0  0  0  0  0  0
    0.3461    0.8573   -1.7097 H   0  0  0  0  0  0  0  0  0  0  0  0
    2.0240   -0.4537   -1.4305 C   0  0  0  0  0  0  0  0  0  0  0  0
    2.6505   -1.2165   -0.7067 O   0  0  0  0  0  0  0  0  0  0  0  0
    2.6612    0.1946   -2.4233 O   0  0  0  0  0  0  0  0  0  0  0  0
    3.5698   -0.1065   -2.3926 H   0  0  0  0  0  0  0  0  0  0  0  0
   -0.1923    1.1526    0.7617 C   0  0  0  0  0  0  0  0  0  0  0  0
   -1.1582    1.8438    0.4410 O   0  0  0  0  0  0  0  0  0  0  0  0
    0.7203    1.5683    1.6472 N   0  0  0  0  0  0  0  0  0  0  0  0
    1.5210    0.9664    1.8100 H   0  0  0  0  0  0  0  0  0  0  0  0
    0.6747    2.8558    2.3368 C   0  0  0  0  0  0  0  0  0  0  0  0
   -0.3018    2.9877    2.8079 H   0  0  0  0  0  0  0  0  0  0  0  0
    1.4516    2.8997    3.1011 H   0  0  0  0  0  0  0  0  0  0  0  0
    0.8279    3.6639    1.6193 H   0  0  0  0  0  0  0  0  0  0  0  0
  5  6  2  0  0  0  0
  5  7  1  0  0  0  0
  2  3  1  0  0  0  0
  2  4  1  0  0  0  0
  2  5  1  0  0  0  0
  1  2  1  0  0  0  0
 18 19  2  0  0  0  0
 18 20  1  0  0  0  0
 16 17  1  0  0  0  0
 14 15  2  0  0  0  0
 14 16  1  0  0  0  0
 11 12  1  0  0  0  0
 11 13  1  0  0  0  0
 11 14  1  0  0  0  0
  9 10  1  0  0  0  0
  9 11  1  0  0  0  0
  9 18  1  0  0  0  0
  7  8  1  0  0  0  0
  7  9  1  0  0  0  0
 22 23  1  0  0  0  0
 22 24  1  0  0  0  0
 22 25  1  0  0  0  0
 20 21  1  0  0  0  0
 20 22  1  0  0  0  0
M  END
$$$$
default_name
  -OEChem-02102213163D

 25 24  0     1  0  0  0  0  0999 V2000
   -2.7826   -3.8464    0.7821 H   0  0  0  0  0  0  0  0  0  0  0  0
   -2.8156   -2.8034    0.4711 C   0  0  0  0  0  0  0  0  0  0  0  0
   -3.4336   -2.2354    1.1641 H   0  0  0  0  0  0  0  0  0  0  0  0
   -3.2256   -2.7344   -0.5349 H   0  0  0  0  0  0  0  0  0  0  0  0
   -1.4126   -2.2444    0.4801 C   0  0  0  0  0  0  0  0  0  0  0  0
   -0.4686   -2.9534    0.8001 O   0  0  0  0  0  0  0  0  0  0  0  0
   -1.2736   -0.9704    0.1241 N   0  0  0  0  0  0  0  0  0  0  0  0
   -2.0996   -0.4354   -0.1019 H   0  0  0  0  0  0  0  0  0  0  0  0
   -0.0016   -0.2394    0.1271 C   0  0  1  0  0  0  0  0  0  0  0  0
    0.7164   -0.7963    0.7332 H   0  0  0  0  0  0  0  0  0  0  0  0
    0.5351   -0.1414   -1.3146 C   0  0  0  0  0  0  0  0  0  0  0  0
    0.0087   -0.8572   -1.9473 H   0  0  0  0  0  0  0  0  0  0  0  0
    0.3461    0.8573   -1.7097 H   0  0  0  0  0  0  0  0  0  0  0  0
    2.0240   -0.4537   -1.4305 C   0  0  0  0  0  0  0  0  0  0  0  0
    2.5995   -1.3906   -0.8927 O   0  0  0  0  0  0  0  0  0  0  0  0
    2.7236    0.4068   -2.1935 O   0  0  0  0  0  0  0  0  0  0  0  0
    3.6251    0.0837   -2.1942 H   0  0  0  0  0  0  0  0  0  0  0  0
   -0.1923    1.1526    0.7617 C   0  0  0  0  0  0  0  0  0  0  0  0
   -1.1582    1.8438    0.4410 O   0  0  0  0  0  0  0  0  0  0  0  0
    0.7203    1.5683    1.6472 N   0  0  0  0  0  0  0  0  0  0  0  0
    1.5210    0.9664    1.8100 H   0  0  0  0  0  0  0  0  0  0  0  0
    0.6747    2.8558    2.3368 C   0  0  0  0  0  0  0  0  0  0  0  0
   -0.3018    2.9877    2.8079 H   0  0  0  0  0  0  0  0  0  0  0  0
    1.4516    2.8997    3.1011 H   0  0  0  0  0  0  0  0  0  0  0  0
    0.8279    3.6639    1.6193 H   0  0  0  0  0  0  0  0  0  0  0  0
  5  6  2  0  0  0  0
  5  7  1  0  0  0  0
  2  3  1  0  0  0  0
  2  4  1  0  0  0  0
  2  5  1  0  0  0  0
  1  2  1  0  0  0  0
 18 19  2  0  0  0  0
 18 20  1  0  0  0  0
 16 17  1  0  0  0  0
 14 15  2  0  0  0  0
 14 16  1  0  0  0  0
 11 12  1  0  0  0  0
 11 13  1  0  0  0  0
 11 14  1  0  0  0  0
  9 10  1  0  0  0  0
  9 11  1  0  0  0  0
  9 18  1  0  0  0  0
  7  8  1  0  0  0  0
  7  9  1  0  0  0  0
 22 23  1  0  0  0  0
 22 24  1  0  0  0  0
 22 25  1  0  0  0  0
 20 21  1  0  0  0  0
 20 22  1  0  0  0  0
M  END
$$$$
default_name
  -OEChem-02102213163D

 25 24  0     1  0  0  0  0  0999 V2000
   -2.7826   -3.8464    0.7821 H   0  0  0  0  0  0  0  0  0  0  0  0
   -2.8156   -2.8034    0.4711 C   0  0  0  0  0  0  0  0  0  0  0  0
   -3.4336   -2.2354    1.1641 H   0  0  0  0  0  0  0  0  0  0  0  0
   -3.2256   -2.7344   -0.5349 H   0  0  0  0  0  0  0  0  0  0  0  0
   -1.4126   -2.2444    0.4801 C   0  0  0  0  0  0  0  0  0  0  0  0
   -0.4686   -2.9534    0.8001 O   0  0  0  0  0  0  0  0  0  0  0  0
   -1.2736   -0.9704    0.1241 N   0  0  0  0  0  0  0  0  0  0  0  0
   -2.0996   -0.4354   -0.1019 H   0  0  0  0  0  0  0  0  0  0  0  0
   -0.0016   -0.2394    0.1271 C   0  0  1  0  0  0  0  0  0  0  0  0
    0.7164   -0.7963    0.7332 H   0  0  0  0  0  0  0  0  0  0  0  0
    0.5351   -0.1414   -1.3146 C   0  0  0  0  0  0  0  0  0  0  0  0
    0.0087   -0.8572   -1.9473 H   0  0  0  0  0  0  0  0  0  0  0  0
    0.3461    0.8573   -1.7097 H   0  0  0  0  0  0  0  0  0  0  0  0
    2.0240   -0.4537   -1.4305 C   0  0  0  0  0  0  0  0  0  0  0  0
    2.5566   -1.5108   -1.1190 O   0  0  0  0  0  0  0  0  0  0  0  0
    2.7758    0.5524   -1.9145 O   0  0  0  0  0  0  0  0  0  0  0  0
    3.6718    0.2163   -1.9515 H   0  0  0  0  0  0  0  0  0  0  0  0
   -0.1923    1.1526    0.7617 C   0  0  0  0  0  0  0  0  0  0  0  0
   -1.1582    1.8438    0.4410 O   0  0  0  0  0  0  0  0  0  0  0  0
    0.7203    1.5683    1.6472 N   0  0  0  0  0  0  0  0  0  0  0  0
    1.5210    0.9664    1.8100 H   0  0  0  0  0  0  0  0  0  0  0  0
    0.6747    2.8558    2.3368 C   0  0  0  0  0  0  0  0  0  0  0  0
   -0.3018    2.9877    2.8079 H   0  0  0  0  0  0  0  0  0  0  0  0
    1.4516    2.8997    3.1011 H   0  0  0  0  0  0  0  0  0  0  0  0
    0.8279    3.6639    1.6193 H   0  0  0  0  0  0  0  0  0  0  0  0
  5  6  2  0  0  0  0
  5  7  1  0  0  0  0
  2  3  1  0  0  0  0
  2  4  1  0  0  0  0
  2  5  1  0  0  0  0
  1  2  1  0  0  0  0
 18 19  2  0  0  0  0
 18 20  1  0  0  0  0
 16 17  1  0  0  0  0
 14 15  2  0  0  0  0
 14 16  1  0  0  0  0
 11 12  1  0  0  0  0
 11 13  1  0  0  0  0
 11 14  1  0  0  0  0
  9 10  1  0  0  0  0
  9 11  1  0  0  0  0
  9 18  1  0  0  0  0
  7  8  1  0  0  0  0
  7  9  1  0  0  0  0
 22 23  1  0  0  0  0
 22 24  1  0  0  0  0
 22 25  1  0  0  0  0
 20 21  1  0  0  0  0
 20 22  1  0  0  0  0
M  END
$$$$
default_name
  -OEChem-02102213163D

 25 24  0     1  0  0  0  0  0999 V2000
   -2.7826   -3.8464    0.7821 H   0  0  0  0  0  0  0  0  0  0  0  0
   -2.8156   -2.8034    0.4711 C   0  0  0  0  0  0  0  0  0  0  0  0
   -3.4336   -2.2354    1.1641 H   0  0  0  0  0  0  0  0  0  0  0  0
   -3.2256   -2.7344   -0.5349 H   0  0  0  0  0  0  0  0  0  0  0  0
   -1.4126   -2.2444    0.4801 C   0  0  0  0  0  0  0  0  0  0  0  0
   -0.4686   -2.9534    0.8001 O   0  0  0  0  0  0  0  0  0  0  0  0
   -1.2736   -0.9704    0.1241 N   0  0  0  0  0  0  0  0  0  0  0  0
   -2.0996   -0.4354   -0.1019 H   0  0  0  0  0  0  0  0  0  0  0  0
   -0.0016   -0.2394    0.1271 C   0  0  1  0  0  0  0  0  0  0  0  0
    0.7164   -0.7963    0.7332 H   0  0  0  0  0  0  0  0  0  0  0  0
    0.5351   -0.1414   -1.3146 C   0  0  0  0  0  0  0  0  0  0  0  0
    0.0087   -0.8572   -1.9473 H   0  0  0  0  0  0  0  0  0  0  0  0
    0.3461    0.8573   -1.7097 H   0  0  0  0  0  0  0  0  0  0  0  0
    2.0240   -0.4537   -1.4305 C   0  0  0  0  0  0  0  0  0  0  0  0
    2.5249   -1.5690   -1.3702 O   0  0  0  0  0  0  0  0  0  0  0  0
    2.8144    0.6217   -1.6055 O   0  0  0  0  0  0  0  0  0  0  0  0
    3.7067    0.2821   -1.6811 H   0  0  0  0  0  0  0  0  0  0  0  0
   -0.1923    1.1526    0.7617 C   0  0  0  0  0  0  0  0  0  0  0  0
   -1.1582    1.8438    0.4410 O   0  0  0  0  0  0  0  0  0  0  0  0
    0.7203    1.5683    1.6472 N   0  0  0  0  0  0  0  0  0  0  0  0
    1.5210    0.9664    1.8100 H   0  0  0  0  0  0  0  0  0  0  0  0
    0.6747    2.8558    2.3368 C   0  0  0  0  0  0  0  0  0  0  0  0
   -0.3018    2.9877    2.8079 H   0  0  0  0  0  0  0  0  0  0  0  0
    1.4516    2.8997    3.1011 H   0  0  0  0  0  0  0  0  0  0  0  0
    0.8279    3.6639    1.6193 H   0  0  0  0  0  0  0  0  0  0  0  0
  5  6  2  0  0  0  0
  5  7  1  0  0  0  0
  2  3  1  0  0  0  0
  2  4  1  0  0  0  0
  2  5  1  0  0  0  0
  1  2  1  0  0  0  0
 18 19  2  0  0  0  0
 18 20  1  0  0  0  0
 16 17  1  0  0  0  0
 14 15  2  0  0  0  0
 14 16  1  0  0  0  0
 11 12  1  0  0  0  0
 11 13  1  0  0  0  0
 11 14  1  0  0  0  0
  9 10  1  0  0  0  0
  9 11  1  0  0  0  0
  9 18  1  0  0  0  0
  7  8  1  0  0  0  0
  7  9  1  0  0  0  0
 22 23  1  0  0  0  0
 22 24  1  0  0  0  0
 22 25  1  0  0  0  0
 20 21  1  0  0  0  0
 20 22  1  0  0  0  0
M  END
$$$$
default_name
  -OEChem-02102213163D

 25 24  0     1  0  0  0  0  0999 V2000
   -2.7826   -3.8464    0.7821 H   0  0  0  0  0  0  0  0  0  0  0  0
   -2.8156   -2.8034    0.4711 C   0  0  0  0  0  0  0  0  0  0  0  0
   -3.4336   -2.2354    1.1641 H   0  0  0  0  0  0  0  0  0  0  0  0
   -3.2256   -2.7344   -0.5349 H   0  0  0  0  0  0  0  0  0  0  0  0
   -1.4126   -2.2444    0.4801 C   0  0  0  0  0  0  0  0  0  0  0  0
   -0.4686   -2.9534    0.8001 O   0  0  0  0  0  0  0  0  0  0  0  0
   -1.2736   -0.9704    0.1241 N   0  0  0  0  0  0  0  0  0  0  0  0
   -2.0996   -0.4354   -0.1019 H   0  0  0  0  0  0  0  0  0  0  0  0
   -0.0016   -0.2394    0.1271 C   0  0  1  0  0  0  0  0  0  0  0  0
    0.7164   -0.7963    0.7332 H   0  0  0  0  0  0  0  0  0  0  0  0
    0.5351   -0.1414   -1.3146 C   0  0  0  0  0  0  0  0  0  0  0  0
    0.0087   -0.8572   -1.9473 H   0  0  0  0  0  0  0  0  0  0  0  0
    0.3461    0.8573   -1.7097 H   0  0  0  0  0  0  0  0  0  0  0  0
    2.0240   -0.4537   -1.4305 C   0  0  0  0  0  0  0  0  0  0  0  0
    2.5064   -1.5610   -1.6293 O   0  0  0  0  0  0  0  0  0  0  0  0
    2.8367    0.6098   -1.2875 O   0  0  0  0  0  0  0  0  0  0  0  0
    3.7273    0.2767   -1.4015 H   0  0  0  0  0  0  0  0  0  0  0  0
   -0.1923    1.1526    0.7617 C   0  0  0  0  0  0  0  0  0  0  0  0
   -1.1582    1.8438    0.4410 O   0  0  0  0  0  0  0  0  0  0  0  0
    0.7203    1.5683    1.6472 N   0  0  0  0  0  0  0  0  0  0  0  0
    1.5210    0.9664    1.8100 H   0  0  0  0  0  0  0  0  0  0  0  0
    0.6747    2.8558    2.3368 C   0  0  0  0  0  0  0  0  0  0  0  0
   -0.3018    2.9877    2.8079 H   0  0  0  0  0  0  0  0  0  0  0  0
    1.4516    2.8997    3.1011 H   0  0  0  0  0  0  0  0  0  0  0  0
    0.8279    3.6639    1.6193 H   0  0  0  0  0  0  0  0  0  0  0  0
  5  6  2  0  0  0  0
  5  7  1  0  0  0  0
  2  3  1  0  0  0  0
  2  4  1  0  0  0  0
  2  5  1  0  0  0  0
  1  2  1  0  0  0  0
 18 19  2  0  0  0  0
 18 20  1  0  0  0  0
 16 17  1  0  0  0  0
 14 15  2  0  0  0  0
 14 16  1  0  0  0  0
 11 12  1  0  0  0  0
 11 13  1  0  0  0  0
 11 14  1  0  0  0  0
  9 10  1  0  0  0  0
  9 11  1  0  0  0  0
  9 18  1  0  0  0  0
  7  8  1  0  0  0  0
  7  9  1  0  0  0  0
 22 23  1  0  0  0  0
 22 24  1  0  0  0  0
 22 25  1  0  0  0  0
 20 21  1  0  0  0  0
 20 22  1  0  0  0  0
M  END
$$$$
default_name
  -OEChem-02102213163D

 25 24  0     1  0  0  0  0  0999 V2000
   -2.7826   -3.8464    0.7821 H   0  0  0  0  0  0  0  0  0  0  0  0
   -2.8156   -2.8034    0.4711 C   0  0  0  0  0  0  0  0  0  0  0  0
   -3.4336   -2.2354    1.1641 H   0  0  0  0  0  0  0  0  0  0  0  0
   -3.2256   -2.7344   -0.5349 H   0  0  0  0  0  0  0  0  0  0  0  0
   -1.4126   -2.2444    0.4801 C   0  0  0  0  0  0  0  0  0  0  0  0
   -0.4686   -2.9534    0.8001 O   0  0  0  0  0  0  0  0  0  0  0  0
   -1.2736   -0.9704    0.1241 N   0  0  0  0  0  0  0  0  0  0  0  0
   -2.0996   -0.4354   -0.1019 H   0  0  0  0  0  0  0  0  0  0  0  0
   -0.0016   -0.2394    0.1271 C   0  0  1  0  0  0  0  0  0  0  0  0
    0.7164   -0.7963    0.7332 H   0  0  0  0  0  0  0  0  0  0  0  0
    0.5351   -0.1414   -1.3146 C   0  0  0  0  0  0  0  0  0  0  0  0
    0.0087   -0.8572   -1.9473 H   0  0  0  0  0  0  0  0  0  0  0  0
    0.3461    0.8573   -1.7097 H   0  0  0  0  0  0  0  0  0  0  0  0
    2.0240   -0.4537   -1.4305 C   0  0  0  0  0  0  0  0  0  0  0  0
    2.5024   -1.4875   -1.8784 O   0  0  0  0  0  0  0  0  0  0  0  0
    2.8411    0.5175   -0.9822 O   0  0  0  0  0  0  0  0  0  0  0  0
    3.7323    0.2004   -1.1317 H   0  0  0  0  0  0  0  0  0  0  0  0
   -0.1923    1.1526    0.7617 C   0  0  0  0  0  0  0  0  0  0  0  0
   -1.1582    1.8438    0.4410 O   0  0  0  0  0  0  0  0  0  0  0  0
    0.7203    1.5683    1.6472 N   0  0  0  0  0  0  0  0  0  0  0  0
    1.5210    0.9664    1.8100 H   0  0  0  0  0  0  0  0  0  0  0  0
    0.6747    2.8558    2.3368 C   0  0  0  0  0  0  0  0  0  0  0  0
   -0.3018    2.9877    2.8079 H   0  0  0  0  0  0  0  0  0  0  0  0
    1.4516    2.8997    3.1011 H   0  0  0  0  0  0  0  0  0  0  0  0
    0.8279    3.6639    1.6193 H   0  0  0  0  0  0  0  0  0  0  0  0
  5  6  2  0  0  0  0
  5  7  1  0  0  0  0
  2  3  1  0  0  0  0
  2  4  1  0  0  0  0
  2  5  1  0  0  0  0
  1  2  1  0  0  0  0
 18 19  2  0  0  0  0
 18 20  1  0  0  0  0
 16 17  1  0  0  0  0
 14 15  2  0  0  0  0
 14 16  1  0  0  0  0
 11 12  1  0  0  0  0
 11 13  1  0  0  0  0
 11 14  1  0  0  0  0
  9 10  1  0  0  0  0
  9 11  1  0  0  0  0
  9 18  1  0  0  0  0
  7  8  1  0  0  0  0
  7  9  1  0  0  0  0
 22 23  1  0  0  0  0
 22 24  1  0  0  0  0
 22 25  1  0  0  0  0
 20 21  1  0  0  0  0
 20 22  1  0  0  0  0
M  END
$$$$
default_name
  -OEChem-02102213163D

 25 24  0     1  0  0  0  0  0999 V2000
   -2.7826   -3.8464    0.7821 H   0  0  0  0  0  0  0  0  0  0  0  0
   -2.8156   -2.8034    0.4711 C   0  0  0  0  0  0  0  0  0  0  0  0
   -3.4336   -2.2354    1.1641 H   0  0  0  0  0  0  0  0  0  0  0  0
   -3.2256   -2.7344   -0.5349 H   0  0  0  0  0  0  0  0  0  0  0  0
   -1.4126   -2.2444    0.4801 C   0  0  0  0  0  0  0  0  0  0  0  0
   -0.4686   -2.9534    0.8001 O   0  0  0  0  0  0  0  0  0  0  0  0
   -1.2736   -0.9704    0.1241 N   0  0  0  0  0  0  0  0  0  0  0  0
   -2.0996   -0.4354   -0.1019 H   0  0  0  0  0  0  0  0  0  0  0  0
   -0.0016   -0.2394    0.1271 C   0  0  1  0  0  0  0  0  0  0  0  0
    0.7164   -0.7963    0.7332 H   0  0  0  0  0  0  0  0  0  0  0  0
    0.5351   -0.1414   -1.3146 C   0  0  0  0  0  0  0  0  0  0  0  0
    0.0087   -0.8572   -1.9473 H   0  0  0  0  0  0  0  0  0  0  0  0
    0.3461    0.8573   -1.7097 H   0  0  0  0  0  0  0  0  0  0  0  0
    2.0240   -0.4537   -1.4305 C   0  0  0  0  0  0  0  0  0  0  0  0
    2.5132   -1.3536   -2.1008 O   0  0  0  0  0  0  0  0  0  0  0  0
    2.8273    0.3512   -0.7103 O   0  0  0  0  0  0  0  0  0  0  0  0
    3.7214    0.0585   -0.8900 H   0  0  0  0  0  0  0  0  0  0  0  0
   -0.1923    1.1526    0.7617 C   0  0  0  0  0  0  0  0  0  0  0  0
   -1.1582    1.8438    0.4410 O   0  0  0  0  0  0  0  0  0  0  0  0
    0.7203    1.5683    1.6472 N   0  0  0  0  0  0  0  0  0  0  0  0
    1.5210    0.9664    1.8100 H   0  0  0  0  0  0  0  0  0  0  0  0
    0.6747    2.8558    2.3368 C   0  0  0  0  0  0  0  0  0  0  0  0
   -0.3018    2.9877    2.8079 H   0  0  0  0  0  0  0  0  0  0  0  0
    1.4516    2.8997    3.1011 H   0  0  0  0  0  0  0  0  0  0  0  0
    0.8279    3.6639    1.6193 H   0  0  0  0  0  0  0  0  0  0  0  0
  5  6  2  0  0  0  0
  5  7  1  0  0  0  0
  2  3  1  0  0  0  0
  2  4  1  0  0  0  0
  2  5  1  0  0  0  0
  1  2  1  0  0  0  0
 18 19  2  0  0  0  0
 18 20  1  0  0  0  0
 16 17  1  0  0  0  0
 14 15  2  0  0  0  0
 14 16  1  0  0  0  0
 11 12  1  0  0  0  0
 11 13  1  0  0  0  0
 11 14  1  0  0  0  0
  9 10  1  0  0  0  0
  9 11  1  0  0  0  0
  9 18  1  0  0  0  0
  7  8  1  0  0  0  0
  7  9  1  0  0  0  0
 22 23  1  0  0  0  0
 22 24  1  0  0  0  0
 22 25  1  0  0  0  0
 20 21  1  0  0  0  0
 20 22  1  0  0  0  0
M  END
$$$$
default_name
  -OEChem-02102213163D

 25 24  0     1  0  0  0  0  0999 V2000
   -2.7826   -3.8464    0.7821 H   0  0  0  0  0  0  0  0  0  0  0  0
   -2.8156   -2.8034    0.4711 C   0  0  0  0  0  0  0  0  0  0  0  0
   -3.4336   -2.2354    1.1641 H   0  0  0  0  0  0  0  0  0  0  0  0
   -3.2256   -2.7344   -0.5349 H   0  0  0  0  0  0  0  0  0  0  0  0
   -1.4126   -2.2444    0.4801 C   0  0  0  0  0  0  0  0  0  0  0  0
   -0.4686   -2.9534    0.8001 O   0  0  0  0  0  0  0  0  0  0  0  0
   -1.2736   -0.9704    0.1241 N   0  0  0  0  0  0  0  0  0  0  0  0
   -2.0996   -0.4354   -0.1019 H   0  0  0  0  0  0  0  0  0  0  0  0
   -0.0016   -0.2394    0.1271 C   0  0  1  0  0  0  0  0  0  0  0  0
    0.7164   -0.7963    0.7332 H   0  0  0  0  0  0  0  0  0  0  0  0
    0.5351   -0.1414   -1.3146 C   0  0  0  0  0  0  0  0  0  0  0  0
    0.0087   -0.8572   -1.9473 H   0  0  0  0  0  0  0  0  0  0  0  0
    0.3461    0.8573   -1.7097 H   0  0  0  0  0  0  0  0  0  0  0  0
    2.0240   -0.4537   -1.4305 C   0  0  0  0  0  0  0  0  0  0  0  0
    2.5380   -1.1682   -2.2811 O   0  0  0  0  0  0  0  0  0  0  0  0
    2.7964    0.1221   -0.4905 O   0  0  0  0  0  0  0  0  0  0  0  0
    3.6952   -0.1393   -0.6931 H   0  0  0  0  0  0  0  0  0  0  0  0
   -0.1923    1.1526    0.7617 C   0  0  0  0  0  0  0  0  0  0  0  0
   -1.1582    1.8438    0.4410 O   0  0  0  0  0  0  0  0  0  0  0  0
    0.7203    1.5683    1.6472 N   0  0  0  0  0  0  0  0  0  0  0  0
    1.5210    0.9664    1.8100 H   0  0  0  0  0  0  0  0  0  0  0  0
    0.6747    2.8558    2.3368 C   0  0  0  0  0  0  0  0  0  0  0  0
   -0.3018    2.9877    2.8079 H   0  0  0  0  0  0  0  0  0  0  0  0
    1.4516    2.8997    3.1011 H   0  0  0  0  0  0  0  0  0  0  0  0
    0.8279    3.6639    1.6193 H   0  0  0  0  0  0  0  0  0  0  0  0
  5  6  2  0  0  0  0
  5  7  1  0  0  0  0
  2  3  1  0  0  0  0
  2  4  1  0  0  0  0
  2  5  1  0  0  0  0
  1  2  1  0  0  0  0
 18 19  2  0  0  0  0
 18 20  1  0  0  0  0
 16 17  1  0  0  0  0
 14 15  2  0  0  0  0
 14 16  1  0  0  0  0
 11 12  1  0  0  0  0
 11 13  1  0  0  0  0
 11 14  1  0  0  0  0
  9 10  1  0  0  0  0
  9 11  1  0  0  0  0
  9 18  1  0  0  0  0
  7  8  1  0  0  0  0
  7  9  1  0  0  0  0
 22 23  1  0  0  0  0
 22 24  1  0  0  0  0
 22 25  1  0  0  0  0
 20 21  1  0  0  0  0
 20 22  1  0  0  0  0
M  END
$$$$
default_name
  -OEChem-02102213163D

 25 24  0     1  0  0  0  0  0999 V2000
   -2.7826   -3.8464    0.7821 H   0  0  0  0  0  0  0  0  0  0  0  0
   -2.8156   -2.8034    0.4711 C   0  0  0  0  0  0  0  0  0  0  0  0
   -3.4336   -2.2354    1.1641 H   0  0  0  0  0  0  0  0  0  0  0  0
   -3.2256   -2.7344   -0.5349 H   0  0  0  0  0  0  0  0  0  0  0  0
   -1.4126   -2.2444    0.4801 C   0  0  0  0  0  0  0  0  0  0  0  0
   -0.4686   -2.9534    0.8001 O   0  0  0  0  0  0  0  0  0  0  0  0
   -1.2736   -0.9704    0.1241 N   0  0  0  0  0  0  0  0  0  0  0  0
   -2.0996   -0.4354   -0.1019 H   0  0  0  0  0  0  0  0  0  0  0  0
   -0.0016   -0.2394    0.1271 C   0  0  1  0  0  0  0  0  0  0  0  0
    0.7164   -0.7963    0.7332 H   0  0  0  0  0  0  0  0  0  0  0  0
    0.5351   -0.1414   -1.3146 C   0  0  0  0  0  0  0  0  0  0  0  0
    0.0087   -0.8572   -1.9473 H   0  0  0  0  0  0  0  0  0  0  0  0
    0.3461    0.8573   -1.7097 H   0  0  0  0  0  0  0  0  0  0  0  0
    2.0240   -0.4537   -1.4305 C   0  0  0  0  0  0  0  0  0  0  0  0
    2.5752   -0.9441   -2.4072 O   0  0  0  0  0  0  0  0  0  0  0  0
    2.7504   -0.1541   -0.3376 O   0  0  0  0  0  0  0  0  0  0  0  0
    3.6556   -0.3797   -0.5541 H   0  0  0  0  0  0  0  0  0  0  0  0
   -0.1923    1.1526    0.7617 C   0  0  0  0  0  0  0  0  0  0  0  0
   -1.1582    1.8438    0.4410 O   0  0  0  0  0  0  0  0  0  0  0  0
    0.7203    1.5683    1.6472 N   0  0  0  0  0  0  0  0  0  0  0  0
    1.5210    0.9664    1.8100 H   0  0  0  0  0  0  0  0  0  0  0  0
    0.6747    2.8558    2.3368 C   0  0  0  0  0  0  0  0  0  0  0  0
   -0.3018    2.9877    2.8079 H   0  0  0  0  0  0  0  0  0  0  0  0
    1.4516    2.8997    3.1011 H   0  0  0  0  0  0  0  0  0  0  0  0
    0.8279    3.6639    1.6193 H   0  0  0  0  0  0  0  0  0  0  0  0
  5  6  2  0  0  0  0
  5  7  1  0  0  0  0
  2  3  1  0  0  0  0
  2  4  1  0  0  0  0
  2  5  1  0  0  0  0
  1  2  1  0  0  0  0
 18 19  2  0  0  0  0
 18 20  1  0  0  0  0
 16 17  1  0  0  0  0
 14 15  2  0  0  0  0
 14 16  1  0  0  0  0
 11 12  1  0  0  0  0
 11 13  1  0  0  0  0
 11 14  1  0  0  0  0
  9 10  1  0  0  0  0
  9 11  1  0  0  0  0
  9 18  1  0  0  0  0
  7  8  1  0  0  0  0
  7  9  1  0  0  0  0
 22 23  1  0  0  0  0
 22 24  1  0  0  0  0
 22 25  1  0  0  0  0
 20 21  1  0  0  0  0
 20 22  1  0  0  0  0
M  END
$$$$
default_name
  -OEChem-02102213163D

 25 24  0     1  0  0  0  0  0999 V2000
   -2.7826   -3.8464    0.7821 H   0  0  0  0  0  0  0  0  0  0  0  0
   -2.8156   -2.8034    0.4711 C   0  0  0  0  0  0  0  0  0  0  0  0
   -3.4336   -2.2354    1.1641 H   0  0  0  0  0  0  0  0  0  0  0  0
   -3.2256   -2.7344   -0.5349 H   0  0  0  0  0  0  0  0  0  0  0  0
   -1.4126   -2.2444    0.4801 C   0  0  0  0  0  0  0  0  0  0  0  0
   -0.4686   -2.9534    0.8001 O   0  0  0  0  0  0  0  0  0  0  0  0
   -1.2736   -0.9704    0.1241 N   0  0  0  0  0  0  0  0  0  0  0  0
   -2.0996   -0.4354   -0.1019 H   0  0  0  0  0  0  0  0  0  0  0  0
   -0.0016   -0.2394    0.1271 C   0  0  1  0  0  0  0  0  0  0  0  0
    0.7164   -0.7963    0.7332 H   0  0  0  0  0  0  0  0  0  0  0  0
    0.5351   -0.1414   -1.3146 C   0  0  0  0  0  0  0  0  0  0  0  0
    0.0087   -0.8572   -1.9473 H   0  0  0  0  0  0  0  0  0  0  0  0
    0.3461    0.8573   -1.7097 H   0  0  0  0  0  0  0  0  0  0  0  0
    2.0240   -0.4537   -1.4305 C   0  0  0  0  0  0  0  0  0  0  0  0
    2.6223   -0.6965   -2.4704 O   0  0  0  0  0  0  0  0  0  0  0  0
    2.6924   -0.4586   -0.2621 O   0  0  0  0  0  0  0  0  0  0  0  0
    3.6053   -0.6462   -0.4828 H   0  0  0  0  0  0  0  0  0  0  0  0
   -0.1923    1.1526    0.7617 C   0  0  0  0  0  0  0  0  0  0  0  0
   -1.1582    1.8438    0.4410 O   0  0  0  0  0  0  0  0  0  0  0  0
    0.7203    1.5683    1.6472 N   0  0  0  0  0  0  0  0  0  0  0  0
    1.5210    0.9664    1.8100 H   0  0  0  0  0  0  0  0  0  0  0  0
    0.6747    2.8558    2.3368 C   0  0  0  0  0  0  0  0  0  0  0  0
   -0.3018    2.9877    2.8079 H   0  0  0  0  0  0  0  0  0  0  0  0
    1.4516    2.8997    3.1011 H   0  0  0  0  0  0  0  0  0  0  0  0
    0.8279    3.6639    1.6193 H   0  0  0  0  0  0  0  0  0  0  0  0
  5  6  2  0  0  0  0
  5  7  1  0  0  0  0
  2  3  1  0  0  0  0
  2  4  1  0  0  0  0
  2  5  1  0  0  0  0
  1  2  1  0  0  0  0
 18 19  2  0  0  0  0
 18 20  1  0  0  0  0
 16 17  1  0  0  0  0
 14 15  2  0  0  0  0
 14 16  1  0  0  0  0
 11 12  1  0  0  0  0
 11 13  1  0  0  0  0
 11 14  1  0  0  0  0
  9 10  1  0  0  0  0
  9 11  1  0  0  0  0
  9 18  1  0  0  0  0
  7  8  1  0  0  0  0
  7  9  1  0  0  0  0
 22 23  1  0  0  0  0
 22 24  1  0  0  0  0
 22 25  1  0  0  0  0
 20 21  1  0  0  0  0
 20 22  1  0  0  0  0
M  END
$$$$
default_name
  -OEChem-02102213163D

 25 24  0     1  0  0  0  0  0999 V2000
   -2.7826   -3.8464    0.7821 H   0  0  0  0  0  0  0  0  0  0  0  0
   -2.8156   -2.8034    0.4711 C   0  0  0  0  0  0  0  0  0  0  0  0
   -3.4336   -2.2354    1.1641 H   0  0  0  0  0  0  0  0  0  0  0  0
   -3.2256   -2.7344   -0.5349 H   0  0  0  0  0  0  0  0  0  0  0  0
   -1.4126   -2.2444    0.4801 C   0  0  0  0  0  0  0  0  0  0  0  0
   -0.4686   -2.9534    0.8001 O   0  0  0  0  0  0  0  0  0  0  0  0
   -1.2736   -0.9704    0.1241 N   0  0  0  0  0  0  0  0  0  0  0  0
   -2.0996   -0.4354   -0.1019 H   0  0  0  0  0  0  0  0  0  0  0  0
   -0.0016   -0.2394    0.1271 C   0  0  1  0  0  0  0  0  0  0  0  0
    0.7164   -0.7963    0.7332 H   0  0  0  0  0  0  0  0  0  0  0  0
    0.5351   -0.1414   -1.3146 C   0  0  0  0  0  0  0  0  0  0  0  0
   -0.1527   -0.6476   -1.9931 H   0  0  0  0  0  0  0  0  0  0  0  0
    0.5921    0.9054   -1.6149 H   0  0  0  0  0  0  0  0  0  0  0  0
    1.9029   -0.7918   -1.4986 C   0  0  0  0  0  0  0  0  0  0  0  0
    2.5325   -0.8426   -2.5470 O   0  0  0  0  0  0  0  0  0  0  0  0
    2.4166   -1.3502   -0.3867 O   0  0  0  0  0  0  0  0  0  0  0  0
    3.2726   -1.6977   -0.6390 H   0  0  0  0  0  0  0  0  0  0  0  0
   -0.1923    1.1526    0.7617 C   0  0  0  0  0  0  0  0  0  0  0  0
   -1.1582    1.8438    0.4410 O   0  0  0  0  0  0  0  0  0  0  0  0
    0.7203    1.5683    1.6472 N   0  0  0  0  0  0  0  0  0  0  0  0
    1.5210    0.9664    1.8100 H   0  0  0  0  0  0  0  0  0  0  0  0
    0.6747    2.8558    2.3368 C   0  0  0  0  0  0  0  0  0  0  0  0
   -0.3018    2.9877    2.8079 H   0  0  0  0  0  0  0  0  0  0  0  0
    1.4516    2.8997    3.1011 H   0  0  0  0  0  0  0  0  0  0  0  0
    0.8279    3.6639    1.6193 H   0  0  0  0  0  0  0  0  0  0  0  0
  5  6  2  0  0  0  0
  5  7  1  0  0  0  0
  2  3  1  0  0  0  0
  2  4  1  0  0  0  0
  2  5  1  0  0  0  0
  1  2  1  0  0  0  0
 18 19  2  0  0  0  0
 18 20  1  0  0  0  0
 16 17  1  0  0  0  0
 14 15  2  0  0  0  0
 14 16  1  0  0  0  0
 11 12  1  0  0  0  0
 11 13  1  0  0  0  0
 11 14  1  0  0  0  0
  9 10  1  0  0  0  0
  9 11  1  0  0  0  0
  9 18  1  0  0  0  0
  7  8  1  0  0  0  0
  7  9  1  0  0  0  0
 22 23  1  0  0  0  0
 22 24  1  0  0  0  0
 22 25  1  0  0  0  0
 20 21  1  0  0  0  0
 20 22  1  0  0  0  0
M  END
$$$$
default_name
  -OEChem-02102213163D

 25 24  0     1  0  0  0  0  0999 V2000
   -2.7826   -3.8464    0.7821 H   0  0  0  0  0  0  0  0  0  0  0  0
   -2.8156   -2.8034    0.4711 C   0  0  0  0  0  0  0  0  0  0  0  0
   -3.4336   -2.2354    1.1641 H   0  0  0  0  0  0  0  0  0  0  0  0
   -3.2256   -2.7344   -0.5349 H   0  0  0  0  0  0  0  0  0  0  0  0
   -1.4126   -2.2444    0.4801 C   0  0  0  0  0  0  0  0  0  0  0  0
   -0.4686   -2.9534    0.8001 O   0  0  0  0  0  0  0  0  0  0  0  0
   -1.2736   -0.9704    0.1241 N   0  0  0  0  0  0  0  0  0  0  0  0
   -2.0996   -0.4354   -0.1019 H   0  0  0  0  0  0  0  0  0  0  0  0
   -0.0016   -0.2394    0.1271 C   0  0  1  0  0  0  0  0  0  0  0  0
    0.7164   -0.7963    0.7332 H   0  0  0  0  0  0  0  0  0  0  0  0
    0.5351   -0.1414   -1.3146 C   0  0  0  0  0  0  0  0  0  0  0  0
   -0.1527   -0.6476   -1.9931 H   0  0  0  0  0  0  0  0  0  0  0  0
    0.5921    0.9054   -1.6149 H   0  0  0  0  0  0  0  0  0  0  0  0
    1.9029   -0.7918   -1.4986 C   0  0  0  0  0  0  0  0  0  0  0  0
    2.6469   -0.6275   -2.4566 O   0  0  0  0  0  0  0  0  0  0  0  0
    2.2763   -1.6134   -0.4998 O   0  0  0  0  0  0  0  0  0  0  0  0
    3.1490   -1.9310   -0.7336 H   0  0  0  0  0  0  0  0  0  0  0  0
   -0.1923    1.1526    0.7617 C   0  0  0  0  0  0  0  0  0  0  0  0
   -1.1582    1.8438    0.4410 O   0  0  0  0  0  0  0  0  0  0  0  0
    0.7203    1.5683    1.6472 N   0  0  0  0  0  0  0  0  0  0  0  0
    1.5210    0.9664    1.8100 H   0  0  0  0  0  0  0  0  0  0  0  0
    0.6747    2.8558    2.3368 C   0  0  0  0  0  0  0  0  0  0  0  0
   -0.3018    2.9877    2.8079 H   0  0  0  0  0  0  0  0  0  0  0  0
    1.4516    2.8997    3.1011 H   0  0  0  0  0  0  0  0  0  0  0  0
    0.8279    3.6639    1.6193 H   0  0  0  0  0  0  0  0  0  0  0  0
  5  6  2  0  0  0  0
  5  7  1  0  0  0  0
  2  3  1  0  0  0  0
  2  4  1  0  0  0  0
  2  5  1  0  0  0  0
  1  2  1  0  0  0  0
 18 19  2  0  0  0  0
 18 20  1  0  0  0  0
 16 17  1  0  0  0  0
 14 15  2  0  0  0  0
 14 16  1  0  0  0  0
 11 12  1  0  0  0  0
 11 13  1  0  0  0  0
 11 14  1  0  0  0  0
  9 10  1  0  0  0  0
  9 11  1  0  0  0  0
  9 18  1  0  0  0  0
  7  8  1  0  0  0  0
  7  9  1  0  0  0  0
 22 23  1  0  0  0  0
 22 24  1  0  0  0  0
 22 25  1  0  0  0  0
 20 21  1  0  0  0  0
 20 22  1  0  0  0  0
M  END
$$$$
default_name
  -OEChem-02102213163D

 25 24  0     1  0  0  0  0  0999 V2000
   -2.7826   -3.8464    0.7821 H   0  0  0  0  0  0  0  0  0  0  0  0
   -2.8156   -2.8034    0.4711 C   0  0  0  0  0  0  0  0  0  0  0  0
   -3.4336   -2.2354    1.1641 H   0  0  0  0  0  0  0  0  0  0  0  0
   -3.2256   -2.7344   -0.5349 H   0  0  0  0  0  0  0  0  0  0  0  0
   -1.4126   -2.2444    0.4801 C   0  0  0  0  0  0  0  0  0  0  0  0
   -0.4686   -2.9534    0.8001 O   0  0  0  0  0  0  0  0  0  0  0  0
   -1.2736   -0.9704    0.1241 N   0  0  0  0  0  0  0  0  0  0  0  0
   -2.0996   -0.4354   -0.1019 H   0  0  0  0  0  0  0  0  0  0  0  0
   -0.0016   -0.2394    0.1271 C   0  0  1  0  0  0  0  0  0  0  0  0
    0.7164   -0.7963    0.7332 H   0  0  0  0  0  0  0  0  0  0  0  0
    0.5351   -0.1414   -1.3146 C   0  0  0  0  0  0  0  0  0  0  0  0
   -0.1527   -0.6476   -1.9931 H   0  0  0  0  0  0  0  0  0  0  0  0
    0.5921    0.9054   -1.6149 H   0  0  0  0  0  0  0  0  0  0  0  0
    1.9029   -0.7918   -1.4986 C   0  0  0  0  0  0  0  0  0  0  0  0
    2.7542   -0.4444   -2.3067 O   0  0  0  0  0  0  0  0  0  0  0  0
    2.1450   -1.8370   -0.6857 O   0  0  0  0  0  0  0  0  0  0  0  0
    3.0328   -2.1305   -0.8928 H   0  0  0  0  0  0  0  0  0  0  0  0
   -0.1923    1.1526    0.7617 C   0  0  0  0  0  0  0  0  0  0  0  0
   -1.1582    1.8438    0.4410 O   0  0  0  0  0  0  0  0  0  0  0  0
    0.7203    1.5683    1.6472 N   0  0  0  0  0  0  0  0  0  0  0  0
    1.5210    0.9664    1.8100 H   0  0  0  0  0  0  0  0  0  0  0  0
    0.6747    2.8558    2.3368 C   0  0  0  0  0  0  0  0  0  0  0  0
   -0.3018    2.9877    2.8079 H   0  0  0  0  0  0  0  0  0  0  0  0
    1.4516    2.8997    3.1011 H   0  0  0  0  0  0  0  0  0  0  0  0
    0.8279    3.6639    1.6193 H   0  0  0  0  0  0  0  0  0  0  0  0
  5  6  2  0  0  0  0
  5  7  1  0  0  0  0
  2  3  1  0  0  0  0
  2  4  1  0  0  0  0
  2  5  1  0  0  0  0
  1  2  1  0  0  0  0
 18 19  2  0  0  0  0
 18 20  1  0  0  0  0
 16 17  1  0  0  0  0
 14 15  2  0  0  0  0
 14 16  1  0  0  0  0
 11 12  1  0  0  0  0
 11 13  1  0  0  0  0
 11 14  1  0  0  0  0
  9 10  1  0  0  0  0
  9 11  1  0  0  0  0
  9 18  1  0  0  0  0
  7  8  1  0  0  0  0
  7  9  1  0  0  0  0
 22 23  1  0  0  0  0
 22 24  1  0  0  0  0
 22 25  1  0  0  0  0
 20 21  1  0  0  0  0
 20 22  1  0  0  0  0
M  END
$$$$
default_name
  -OEChem-02102213163D

 25 24  0     1  0  0  0  0  0999 V2000
   -2.7826   -3.8464    0.7821 H   0  0  0  0  0  0  0  0  0  0  0  0
   -2.8156   -2.8034    0.4711 C   0  0  0  0  0  0  0  0  0  0  0  0
   -3.4336   -2.2354    1.1641 H   0  0  0  0  0  0  0  0  0  0  0  0
   -3.2256   -2.7344   -0.5349 H   0  0  0  0  0  0  0  0  0  0  0  0
   -1.4126   -2.2444    0.4801 C   0  0  0  0  0  0  0  0  0  0  0  0
   -0.4686   -2.9534    0.8001 O   0  0  0  0  0  0  0  0  0  0  0  0
   -1.2736   -0.9704    0.1241 N   0  0  0  0  0  0  0  0  0  0  0  0
   -2.0996   -0.4354   -0.1019 H   0  0  0  0  0  0  0  0  0  0  0  0
   -0.0016   -0.2394    0.1271 C   0  0  1  0  0  0  0  0  0  0  0  0
    0.7164   -0.7963    0.7332 H   0  0  0  0  0  0  0  0  0  0  0  0
    0.5351   -0.1414   -1.3146 C   0  0  0  0  0  0  0  0  0  0  0  0
   -0.1527   -0.6476   -1.9931 H   0  0  0  0  0  0  0  0  0  0  0  0
    0.5921    0.9054   -1.6149 H   0  0  0  0  0  0  0  0  0  0  0  0
    1.9029   -0.7918   -1.4986 C   0  0  0  0  0  0  0  0  0  0  0  0
    2.8469   -0.3056   -2.1075 O   0  0  0  0  0  0  0  0  0  0  0  0
    2.0317   -2.0058   -0.9315 O   0  0  0  0  0  0  0  0  0  0  0  0
    2.9318   -2.2826   -1.1056 H   0  0  0  0  0  0  0  0  0  0  0  0
   -0.1923    1.1526    0.7617 C   0  0  0  0  0  0  0  0  0  0  0  0
   -1.1582    1.8438    0.4410 O   0  0  0  0  0  0  0  0  0  0  0  0
    0.7203    1.5683    1.6472 N   0  0  0  0  0  0  0  0  0  0  0  0
    1.5210    0.9664    1.8100 H   0  0  0  0  0  0  0  0  0  0  0  0
    0.6747    2.8558    2.3368 C   0  0  0  0  0  0  0  0  0  0  0  0
   -0.3018    2.9877    2.8079 H   0  0  0  0  0  0  0  0  0  0  0  0
    1.4516    2.8997    3.1011 H   0  0  0  0  0  0  0  0  0  0  0  0
    0.8279    3.6639    1.6193 H   0  0  0  0  0  0  0  0  0  0  0  0
  5  6  2  0  0  0  0
  5  7  1  0  0  0  0
  2  3  1  0  0  0  0
  2  4  1  0  0  0  0
  2  5  1  0  0  0  0
  1  2  1  0  0  0  0
 18 19  2  0  0  0  0
 18 20  1  0  0  0  0
 16 17  1  0  0  0  0
 14 15  2  0  0  0  0
 14 16  1  0  0  0  0
 11 12  1  0  0  0  0
 11 13  1  0  0  0  0
 11 14  1  0  0  0  0
  9 10  1  0  0  0  0
  9 11  1  0  0  0  0
  9 18  1  0  0  0  0
  7  8  1  0  0  0  0
  7  9  1  0  0  0  0
 22 23  1  0  0  0  0
 22 24  1  0  0  0  0
 22 25  1  0  0  0  0
 20 21  1  0  0  0  0
 20 22  1  0  0  0  0
M  END
$$$$
default_name
  -OEChem-02102213163D

 25 24  0     1  0  0  0  0  0999 V2000
   -2.7826   -3.8464    0.7821 H   0  0  0  0  0  0  0  0  0  0  0  0
   -2.8156   -2.8034    0.4711 C   0  0  0  0  0  0  0  0  0  0  0  0
   -3.4336   -2.2354    1.1641 H   0  0  0  0  0  0  0  0  0  0  0  0
   -3.2256   -2.7344   -0.5349 H   0  0  0  0  0  0  0  0  0  0  0  0
   -1.4126   -2.2444    0.4801 C   0  0  0  0  0  0  0  0  0  0  0  0
   -0.4686   -2.9534    0.8001 O   0  0  0  0  0  0  0  0  0  0  0  0
   -1.2736   -0.9704    0.1241 N   0  0  0  0  0  0  0  0  0  0  0  0
   -2.0996   -0.4354   -0.1019 H   0  0  0  0  0  0  0  0  0  0  0  0
   -0.0016   -0.2394    0.1271 C   0  0  1  0  0  0  0  0  0  0  0  0
    0.7164   -0.7963    0.7332 H   0  0  0  0  0  0  0  0  0  0  0  0
    0.5351   -0.1414   -1.3146 C   0  0  0  0  0  0  0  0  0  0  0  0
   -0.1527   -0.6476   -1.9931 H   0  0  0  0  0  0  0  0  0  0  0  0
    0.5921    0.9054   -1.6149 H   0  0  0  0  0  0  0  0  0  0  0  0
    1.9029   -0.7918   -1.4986 C   0  0  0  0  0  0  0  0  0  0  0  0
    2.9189   -0.2207   -1.8728 O   0  0  0  0  0  0  0  0  0  0  0  0
    1.9441   -2.1082   -1.2207 O   0  0  0  0  0  0  0  0  0  0  0  0
    2.8530   -2.3771   -1.3576 H   0  0  0  0  0  0  0  0  0  0  0  0
   -0.1923    1.1526    0.7617 C   0  0  0  0  0  0  0  0  0  0  0  0
   -1.1582    1.8438    0.4410 O   0  0  0  0  0  0  0  0  0  0  0  0
    0.7203    1.5683    1.6472 N   0  0  0  0  0  0  0  0  0  0  0  0
    1.5210    0.9664    1.8100 H   0  0  0  0  0  0  0  0  0  0  0  0
    0.6747    2.8558    2.3368 C   0  0  0  0  0  0  0  0  0  0  0  0
   -0.3018    2.9877    2.8079 H   0  0  0  0  0  0  0  0  0  0  0  0
    1.4516    2.8997    3.1011 H   0  0  0  0  0  0  0  0  0  0  0  0
    0.8279    3.6639    1.6193 H   0  0  0  0  0  0  0  0  0  0  0  0
  5  6  2  0  0  0  0
  5  7  1  0  0  0  0
  2  3  1  0  0  0  0
  2  4  1  0  0  0  0
  2  5  1  0  0  0  0
  1  2  1  0  0  0  0
 18 19  2  0  0  0  0
 18 20  1  0  0  0  0
 16 17  1  0  0  0  0
 14 15  2  0  0  0  0
 14 16  1  0  0  0  0
 11 12  1  0  0  0  0
 11 13  1  0  0  0  0
 11 14  1  0  0  0  0
  9 10  1  0  0  0  0
  9 11  1  0  0  0  0
  9 18  1  0  0  0  0
  7  8  1  0  0  0  0
  7  9  1  0  0  0  0
 22 23  1  0  0  0  0
 22 24  1  0  0  0  0
 22 25  1  0  0  0  0
 20 21  1  0  0  0  0
 20 22  1  0  0  0  0
M  END
$$$$
default_name
  -OEChem-02102213163D

 25 24  0     1  0  0  0  0  0999 V2000
   -2.7826   -3.8464    0.7821 H   0  0  0  0  0  0  0  0  0  0  0  0
   -2.8156   -2.8034    0.4711 C   0  0  0  0  0  0  0  0  0  0  0  0
   -3.4336   -2.2354    1.1641 H   0  0  0  0  0  0  0  0  0  0  0  0
   -3.2256   -2.7344   -0.5349 H   0  0  0  0  0  0  0  0  0  0  0  0
   -1.4126   -2.2444    0.4801 C   0  0  0  0  0  0  0  0  0  0  0  0
   -0.4686   -2.9534    0.8001 O   0  0  0  0  0  0  0  0  0  0  0  0
   -1.2736   -0.9704    0.1241 N   0  0  0  0  0  0  0  0  0  0  0  0
   -2.0996   -0.4354   -0.1019 H   0  0  0  0  0  0  0  0  0  0  0  0
   -0.0016   -0.2394    0.1271 C   0  0  1  0  0  0  0  0  0  0  0  0
    0.7164   -0.7963    0.7332 H   0  0  0  0  0  0  0  0  0  0  0  0
    0.5351   -0.1414   -1.3146 C   0  0  0  0  0  0  0  0  0  0  0  0
   -0.1527   -0.6476   -1.9931 H   0  0  0  0  0  0  0  0  0  0  0  0
    0.5921    0.9054   -1.6149 H   0  0  0  0  0  0  0  0  0  0  0  0
    1.9029   -0.7918   -1.4986 C   0  0  0  0  0  0  0  0  0  0  0  0
    2.9651   -0.1954   -1.6184 O   0  0  0  0  0  0  0  0  0  0  0  0
    1.8882   -2.1373   -1.5334 O   0  0  0  0  0  0  0  0  0  0  0  0
    2.8018   -2.4073   -1.6317 H   0  0  0  0  0  0  0  0  0  0  0  0
   -0.1923    1.1526    0.7617 C   0  0  0  0  0  0  0  0  0  0  0  0
   -1.1582    1.8438    0.4410 O   0  0  0  0  0  0  0  0  0  0  0  0
    0.7203    1.5683    1.6472 N   0  0  0  0  0  0  0  0  0  0  0  0
    1.5210    0.9664    1.8100 H   0  0  0  0  0  0  0  0  0  0  0  0
    0.6747    2.8558    2.3368 C   0  0  0  0  0  0  0  0  0  0  0  0
   -0.3018    2.9877    2.8079 H   0  0  0  0  0  0  0  0  0  0  0  0
    1.4516    2.8997    3.1011 H   0  0  0  0  0  0  0  0  0  0  0  0
    0.8279    3.6639    1.6193 H   0  0  0  0  0  0  0  0  0  0  0  0
  5  6  2  0  0  0  0
  5  7  1  0  0  0  0
  2  3  1  0  0  0  0
  2  4  1  0  0  0  0
  2  5  1  0  0  0  0
  1  2  1  0  0  0  0
 18 19  2  0  0  0  0
 18 20  1  0  0  0  0
 16 17  1  0  0  0  0
 14 15  2  0  0  0  0
 14 16  1  0  0  0  0
 11 12  1  0  0  0  0
 11 13  1  0  0  0  0
 11 14  1  0  0  0  0
  9 10  1  0  0  0  0
  9 11  1  0  0  0  0
  9 18  1  0  0  0  0
  7  8  1  0  0  0  0
  7  9  1  0  0  0  0
 22 23  1  0  0  0  0
 22 24  1  0  0  0  0
 22 25  1  0  0  0  0
 20 21  1  0  0  0  0
 20 22  1  0  0  0  0
M  END
$$$$
default_name
  -OEChem-02102213163D

 25 24  0     1  0  0  0  0  0999 V2000
   -2.7826   -3.8464    0.7821 H   0  0  0  0  0  0  0  0  0  0  0  0
   -2.8156   -2.8034    0.4711 C   0  0  0  0  0  0  0  0  0  0  0  0
   -3.4336   -2.2354    1.1641 H   0  0  0  0  0  0  0  0  0  0  0  0
   -3.2256   -2.7344   -0.5349 H   0  0  0  0  0  0  0  0  0  0  0  0
   -1.4126   -2.2444    0.4801 C   0  0  0  0  0  0  0  0  0  0  0  0
   -0.4686   -2.9534    0.8001 O   0  0  0  0  0  0  0  0  0  0  0  0
   -1.2736   -0.9704    0.1241 N   0  0  0  0  0  0  0  0  0  0  0  0
   -2.0996   -0.4354   -0.1019 H   0  0  0  0  0  0  0  0  0  0  0  0
   -0.0016   -0.2394    0.1271 C   0  0  1  0  0  0  0  0  0  0  0  0
    0.7164   -0.7963    0.7332 H   0  0  0  0  0  0  0  0  0  0  0  0
    0.5351   -0.1414   -1.3146 C   0  0  0  0  0  0  0  0  0  0  0  0
   -0.1527   -0.6476   -1.9931 H   0  0  0  0  0  0  0  0  0  0  0  0
    0.5921    0.9054   -1.6149 H   0  0  0  0  0  0  0  0  0  0  0  0
    1.9029   -0.7918   -1.4986 C   0  0  0  0  0  0  0  0  0  0  0  0
    2.9825   -0.2314   -1.3616 O   0  0  0  0  0  0  0  0  0  0  0  0
    1.8678   -2.0911   -1.8484 O   0  0  0  0  0  0  0  0  0  0  0  0
    2.7816   -2.3714   -1.9091 H   0  0  0  0  0  0  0  0  0  0  0  0
   -0.1923    1.1526    0.7617 C   0  0  0  0  0  0  0  0  0  0  0  0
   -1.1582    1.8438    0.4410 O   0  0  0  0  0  0  0  0  0  0  0  0
    0.7203    1.5683    1.6472 N   0  0  0  0  0  0  0  0  0  0  0  0
    1.5210    0.9664    1.8100 H   0  0  0  0  0  0  0  0  0  0  0  0
    0.6747    2.8558    2.3368 C   0  0  0  0  0  0  0  0  0  0  0  0
   -0.3018    2.9877    2.8079 H   0  0  0  0  0  0  0  0  0  0  0  0
    1.4516    2.8997    3.1011 H   0  0  0  0  0  0  0  0  0  0  0  0
    0.8279    3.6639    1.6193 H   0  0  0  0  0  0  0  0  0  0  0  0
  5  6  2  0  0  0  0
  5  7  1  0  0  0  0
  2  3  1  0  0  0  0
  2  4  1  0  0  0  0
  2  5  1  0  0  0  0
  1  2  1  0  0  0  0
 18 19  2  0  0  0  0
 18 20  1  0  0  0  0
 16 17  1  0  0  0  0
 14 15  2  0  0  0  0
 14 16  1  0  0  0  0
 11 12  1  0  0  0  0
 11 13  1  0  0  0  0
 11 14  1  0  0  0  0
  9 10  1  0  0  0  0
  9 11  1  0  0  0  0
  9 18  1  0  0  0  0
  7  8  1  0  0  0  0
  7  9  1  0  0  0  0
 22 23  1  0  0  0  0
 22 24  1  0  0  0  0
 22 25  1  0  0  0  0
 20 21  1  0  0  0  0
 20 22  1  0  0  0  0
M  END
$$$$
default_name
  -OEChem-02102213163D

 25 24  0     1  0  0  0  0  0999 V2000
   -2.7826   -3.8464    0.7821 H   0  0  0  0  0  0  0  0  0  0  0  0
   -2.8156   -2.8034    0.4711 C   0  0  0  0  0  0  0  0  0  0  0  0
   -3.4336   -2.2354    1.1641 H   0  0  0  0  0  0  0  0  0  0  0  0
   -3.2256   -2.7344   -0.5349 H   0  0  0  0  0  0  0  0  0  0  0  0
   -1.4126   -2.2444    0.4801 C   0  0  0  0  0  0  0  0  0  0  0  0
   -0.4686   -2.9534    0.8001 O   0  0  0  0  0  0  0  0  0  0  0  0
   -1.2736   -0.9704    0.1241 N   0  0  0  0  0  0  0  0  0  0  0  0
   -2.0996   -0.4354   -0.1019 H   0  0  0  0  0  0  0  0  0  0  0  0
   -0.0016   -0.2394    0.1271 C   0  0  1  0  0  0  0  0  0  0  0  0
    0.7164   -0.7963    0.7332 H   0  0  0  0  0  0  0  0  0  0  0  0
    0.5351   -0.1414   -1.3146 C   0  0  0  0  0  0  0  0  0  0  0  0
   -0.1527   -0.6476   -1.9931 H   0  0  0  0  0  0  0  0  0  0  0  0
    0.5921    0.9054   -1.6149 H   0  0  0  0  0  0  0  0  0  0  0  0
    1.9029   -0.7918   -1.4986 C   0  0  0  0  0  0  0  0  0  0  0  0
    2.9699   -0.3263   -1.1201 O   0  0  0  0  0  0  0  0  0  0  0  0
    1.8843   -1.9728   -2.1441 O   0  0  0  0  0  0  0  0  0  0  0  0
    2.7938   -2.2716   -2.1709 H   0  0  0  0  0  0  0  0  0  0  0  0
   -0.1923    1.1526    0.7617 C   0  0  0  0  0  0  0  0  0  0  0  0
   -1.1582    1.8438    0.4410 O   0  0  0  0  0  0  0  0  0  0  0  0
    0.7203    1.5683    1.6472 N   0  0  0  0  0  0  0  0  0  0  0  0
    1.5210    0.9664    1.8100 H   0  0  0  0  0  0  0  0  0  0  0  0
    0.6747    2.8558    2.3368 C   0  0  0  0  0  0  0  0  0  0  0  0
   -0.3018    2.9877    2.8079 H   0  0  0  0  0  0  0  0  0  0  0  0
    1.4516    2.8997    3.1011 H   0  0  0  0  0  0  0  0  0  0  0  0
    0.8279    3.6639    1.6193 H   0  0  0  0  0  0  0  0  0  0  0  0
  5  6  2  0  0  0  0
  5  7  1  0  0  0  0
  2  3  1  0  0  0  0
  2  4  1  0  0  0  0
  2  5  1  0  0  0  0
  1  2  1  0  0  0  0
 18 19  2  0  0  0  0
 18 20  1  0  0  0  0
 16 17  1  0  0  0  0
 14 15  2  0  0  0  0
 14 16  1  0  0  0  0
 11 12  1  0  0  0  0
 11 13  1  0  0  0  0
 11 14  1  0  0  0  0
  9 10  1  0  0  0  0
  9 11  1  0  0  0  0
  9 18  1  0  0  0  0
  7  8  1  0  0  0  0
  7  9  1  0  0  0  0
 22 23  1  0  0  0  0
 22 24  1  0  0  0  0
 22 25  1  0  0  0  0
 20 21  1  0  0  0  0
 20 22  1  0  0  0  0
M  END
$$$$
default_name
  -OEChem-02102213163D

 25 24  0     1  0  0  0  0  0999 V2000
   -2.7826   -3.8464    0.7821 H   0  0  0  0  0  0  0  0  0  0  0  0
   -2.8156   -2.8034    0.4711 C   0  0  0  0  0  0  0  0  0  0  0  0
   -3.4336   -2.2354    1.1641 H   0  0  0  0  0  0  0  0  0  0  0  0
   -3.2256   -2.7344   -0.5349 H   0  0  0  0  0  0  0  0  0  0  0  0
   -1.4126   -2.2444    0.4801 C   0  0  0  0  0  0  0  0  0  0  0  0
   -0.4686   -2.9534    0.8001 O   0  0  0  0  0  0  0  0  0  0  0  0
   -1.2736   -0.9704    0.1241 N   0  0  0  0  0  0  0  0  0  0  0  0
   -2.0996   -0.4354   -0.1019 H   0  0  0  0  0  0  0  0  0  0  0  0
   -0.0016   -0.2394    0.1271 C   0  0  1  0  0  0  0  0  0  0  0  0
    0.7164   -0.7963    0.7332 H   0  0  0  0  0  0  0  0  0  0  0  0
    0.5351   -0.1414   -1.3146 C   0  0  0  0  0  0  0  0  0  0  0  0
   -0.1527   -0.6476   -1.9931 H   0  0  0  0  0  0  0  0  0  0  0  0
    0.5921    0.9054   -1.6149 H   0  0  0  0  0  0  0  0  0  0  0  0
    1.9029   -0.7918   -1.4986 C   0  0  0  0  0  0  0  0  0  0  0  0
    2.9281   -0.4736   -0.9102 O   0  0  0  0  0  0  0  0  0  0  0  0
    1.9366   -1.7904   -2.4006 O   0  0  0  0  0  0  0  0  0  0  0  0
    2.8376   -2.1149   -2.3993 H   0  0  0  0  0  0  0  0  0  0  0  0
   -0.1923    1.1526    0.7617 C   0  0  0  0  0  0  0  0  0  0  0  0
   -1.1582    1.8438    0.4410 O   0  0  0  0  0  0  0  0  0  0  0  0
    0.7203    1.5683    1.6472 N   0  0  0  0  0  0  0  0  0  0  0  0
    1.5210    0.9664    1.8100 H   0  0  0  0  0  0  0  0  0  0  0  0
    0.6747    2.8558    2.3368 C   0  0  0  0  0  0  0  0  0  0  0  0
   -0.3018    2.9877    2.8079 H   0  0  0  0  0  0  0  0  0  0  0  0
    1.4516    2.8997    3.1011 H   0  0  0  0  0  0  0  0  0  0  0  0
    0.8279    3.6639    1.6193 H   0  0  0  0  0  0  0  0  0  0  0  0
  5  6  2  0  0  0  0
  5  7  1  0  0  0  0
  2  3  1  0  0  0  0
  2  4  1  0  0  0  0
  2  5  1  0  0  0  0
  1  2  1  0  0  0  0
 18 19  2  0  0  0  0
 18 20  1  0  0  0  0
 16 17  1  0  0  0  0
 14 15  2  0  0  0  0
 14 16  1  0  0  0  0
 11 12  1  0  0  0  0
 11 13  1  0  0  0  0
 11 14  1  0  0  0  0
  9 10  1  0  0  0  0
  9 11  1  0  0  0  0
  9 18  1  0  0  0  0
  7  8  1  0  0  0  0
  7  9  1  0  0  0  0
 22 23  1  0  0  0  0
 22 24  1  0  0  0  0
 22 25  1  0  0  0  0
 20 21  1  0  0  0  0
 20 22  1  0  0  0  0
M  END
$$$$
default_name
  -OEChem-02102213163D

 25 24  0     1  0  0  0  0  0999 V2000
   -2.7826   -3.8464    0.7821 H   0  0  0  0  0  0  0  0  0  0  0  0
   -2.8156   -2.8034    0.4711 C   0  0  0  0  0  0  0  0  0  0  0  0
   -3.4336   -2.2354    1.1641 H   0  0  0  0  0  0  0  0  0  0  0  0
   -3.2256   -2.7344   -0.5349 H   0  0  0  0  0  0  0  0  0  0  0  0
   -1.4126   -2.2444    0.4801 C   0  0  0  0  0  0  0  0  0  0  0  0
   -0.4686   -2.9534    0.8001 O   0  0  0  0  0  0  0  0  0  0  0  0
   -1.2736   -0.9704    0.1241 N   0  0  0  0  0  0  0  0  0  0  0  0
   -2.0996   -0.4354   -0.1019 H   0  0  0  0  0  0  0  0  0  0  0  0
   -0.0016   -0.2394    0.1271 C   0  0  1  0  0  0  0  0  0  0  0  0
    0.7164   -0.7963    0.7332 H   0  0  0  0  0  0  0  0  0  0  0  0
    0.5351   -0.1414   -1.3146 C   0  0  0  0  0  0  0  0  0  0  0  0
   -0.1527   -0.6476   -1.9931 H   0  0  0  0  0  0  0  0  0  0  0  0
    0.5921    0.9054   -1.6149 H   0  0  0  0  0  0  0  0  0  0  0  0
    1.9029   -0.7918   -1.4986 C   0  0  0  0  0  0  0  0  0  0  0  0
    2.8599   -0.6633   -0.7463 O   0  0  0  0  0  0  0  0  0  0  0  0
    2.0210   -1.5563   -2.6002 O   0  0  0  0  0  0  0  0  0  0  0  0
    2.9100   -1.9119   -2.5787 H   0  0  0  0  0  0  0  0  0  0  0  0
   -0.1923    1.1526    0.7617 C   0  0  0  0  0  0  0  0  0  0  0  0
   -1.1582    1.8438    0.4410 O   0  0  0  0  0  0  0  0  0  0  0  0
    0.7203    1.5683    1.6472 N   0  0  0  0  0  0  0  0  0  0  0  0
    1.5210    0.9664    1.8100 H   0  0  0  0  0  0  0  0  0  0  0  0
    0.6747    2.8558    2.3368 C   0  0  0  0  0  0  0  0  0  0  0  0
   -0.3018    2.9877    2.8079 H   0  0  0  0  0  0  0  0  0  0  0  0
    1.4516    2.8997    3.1011 H   0  0  0  0  0  0  0  0  0  0  0  0
    0.8279    3.6639    1.6193 H   0  0  0  0  0  0  0  0  0  0  0  0
  5  6  2  0  0  0  0
  5  7  1  0  0  0  0
  2  3  1  0  0  0  0
  2  4  1  0  0  0  0
  2  5  1  0  0  0  0
  1  2  1  0  0  0  0
 18 19  2  0  0  0  0
 18 20  1  0  0  0  0
 16 17  1  0  0  0  0
 14 15  2  0  0  0  0
 14 16  1  0  0  0  0
 11 12  1  0  0  0  0
 11 13  1  0  0  0  0
 11 14  1  0  0  0  0
  9 10  1  0  0  0  0
  9 11  1  0  0  0  0
  9 18  1  0  0  0  0
  7  8  1  0  0  0  0
  7  9  1  0  0  0  0
 22 23  1  0  0  0  0
 22 24  1  0  0  0  0
 22 25  1  0  0  0  0
 20 21  1  0  0  0  0
 20 22  1  0  0  0  0
M  END
$$$$
default_name
  -OEChem-02102213163D

 25 24  0     1  0  0  0  0  0999 V2000
   -2.7826   -3.8464    0.7821 H   0  0  0  0  0  0  0  0  0  0  0  0
   -2.8156   -2.8034    0.4711 C   0  0  0  0  0  0  0  0  0  0  0  0
   -3.4336   -2.2354    1.1641 H   0  0  0  0  0  0  0  0  0  0  0  0
   -3.2256   -2.7344   -0.5349 H   0  0  0  0  0  0  0  0  0  0  0  0
   -1.4126   -2.2444    0.4801 C   0  0  0  0  0  0  0  0  0  0  0  0
   -0.4686   -2.9534    0.8001 O   0  0  0  0  0  0  0  0  0  0  0  0
   -1.2736   -0.9704    0.1241 N   0  0  0  0  0  0  0  0  0  0  0  0
   -2.0996   -0.4354   -0.1019 H   0  0  0  0  0  0  0  0  0  0  0  0
   -0.0016   -0.2394    0.1271 C   0  0  1  0  0  0  0  0  0  0  0  0
    0.7164   -0.7963    0.7332 H   0  0  0  0  0  0  0  0  0  0  0  0
    0.5351   -0.1414   -1.3146 C   0  0  0  0  0  0  0  0  0  0  0  0
   -0.1527   -0.6476   -1.9931 H   0  0  0  0  0  0  0  0  0  0  0  0
    0.5921    0.9054   -1.6149 H   0  0  0  0  0  0  0  0  0  0  0  0
    1.9029   -0.7918   -1.4986 C   0  0  0  0  0  0  0  0  0  0  0  0
    2.7701   -0.8824   -0.6395 O   0  0  0  0  0  0  0  0  0  0  0  0
    2.1319   -1.2865   -2.7293 O   0  0  0  0  0  0  0  0  0  0  0  0
    3.0060   -1.6765   -2.6970 H   0  0  0  0  0  0  0  0  0  0  0  0
   -0.1923    1.1526    0.7617 C   0  0  0  0  0  0  0  0  0  0  0  0
   -1.1582    1.8438    0.4410 O   0  0  0  0  0  0  0  0  0  0  0  0
    0.7203    1.5683    1.6472 N   0  0  0  0  0  0  0  0  0  0  0  0
    1.5210    0.9664    1.8100 H   0  0  0  0  0  0  0  0  0  0  0  0
    0.6747    2.8558    2.3368 C   0  0  0  0  0  0  0  0  0  0  0  0
   -0.3018    2.9877    2.8079 H   0  0  0  0  0  0  0  0  0  0  0  0
    1.4516    2.8997    3.1011 H   0  0  0  0  0  0  0  0  0  0  0  0
    0.8279    3.6639    1.6193 H   0  0  0  0  0  0  0  0  0  0  0  0
  5  6  2  0  0  0  0
  5  7  1  0  0  0  0
  2  3  1  0  0  0  0
  2  4  1  0  0  0  0
  2  5  1  0  0  0  0
  1  2  1  0  0  0  0
 18 19  2  0  0  0  0
 18 20  1  0  0  0  0
 16 17  1  0  0  0  0
 14 15  2  0  0  0  0
 14 16  1  0  0  0  0
 11 12  1  0  0  0  0
 11 13  1  0  0  0  0
 11 14  1  0  0  0  0
  9 10  1  0  0  0  0
  9 11  1  0  0  0  0
  9 18  1  0  0  0  0
  7  8  1  0  0  0  0
  7  9  1  0  0  0  0
 22 23  1  0  0  0  0
 22 24  1  0  0  0  0
 22 25  1  0  0  0  0
 20 21  1  0  0  0  0
 20 22  1  0  0  0  0
M  END
$$$$
default_name
  -OEChem-02102213163D

 25 24  0     1  0  0  0  0  0999 V2000
   -2.7826   -3.8464    0.7821 H   0  0  0  0  0  0  0  0  0  0  0  0
   -2.8156   -2.8034    0.4711 C   0  0  0  0  0  0  0  0  0  0  0  0
   -3.4336   -2.2354    1.1641 H   0  0  0  0  0  0  0  0  0  0  0  0
   -3.2256   -2.7344   -0.5349 H   0  0  0  0  0  0  0  0  0  0  0  0
   -1.4126   -2.2444    0.4801 C   0  0  0  0  0  0  0  0  0  0  0  0
   -0.4686   -2.9534    0.8001 O   0  0  0  0  0  0  0  0  0  0  0  0
   -1.2736   -0.9704    0.1241 N   0  0  0  0  0  0  0  0  0  0  0  0
   -2.0996   -0.4354   -0.1019 H   0  0  0  0  0  0  0  0  0  0  0  0
   -0.0016   -0.2394    0.1271 C   0  0  1  0  0  0  0  0  0  0  0  0
    0.7164   -0.7963    0.7332 H   0  0  0  0  0  0  0  0  0  0  0  0
    0.5351   -0.1414   -1.3146 C   0  0  0  0  0  0  0  0  0  0  0  0
   -0.1527   -0.6476   -1.9931 H   0  0  0  0  0  0  0  0  0  0  0  0
    0.5921    0.9054   -1.6149 H   0  0  0  0  0  0  0  0  0  0  0  0
    1.9029   -0.7918   -1.4986 C   0  0  0  0  0  0  0  0  0  0  0  0
    2.6647   -1.1161   -0.5970 O   0  0  0  0  0  0  0  0  0  0  0  0
    2.2617   -0.9994   -2.7792 O   0  0  0  0  0  0  0  0  0  0  0  0
    3.1192   -1.4246   -2.7460 H   0  0  0  0  0  0  0  0  0  0  0  0
   -0.1923    1.1526    0.7617 C   0  0  0  0  0  0  0  0  0  0  0  0
   -1.1582    1.8438    0.4410 O   0  0  0  0  0  0  0  0  0  0  0  0
    0.7203    1.5683    1.6472 N   0  0  0  0  0  0  0  0  0  0  0  0
    1.5210    0.9664    1.8100 H   0  0  0  0  0  0  0  0  0  0  0  0
    0.6747    2.8558    2.3368 C   0  0  0  0  0  0  0  0  0  0  0  0
   -0.3018    2.9877    2.8079 H   0  0  0  0  0  0  0  0  0  0  0  0
    1.4516    2.8997    3.1011 H   0  0  0  0  0  0  0  0  0  0  0  0
    0.8279    3.6639    1.6193 H   0  0  0  0  0  0  0  0  0  0  0  0
  5  6  2  0  0  0  0
  5  7  1  0  0  0  0
  2  3  1  0  0  0  0
  2  4  1  0  0  0  0
  2  5  1  0  0  0  0
  1  2  1  0  0  0  0
 18 19  2  0  0  0  0
 18 20  1  0  0  0  0
 16 17  1  0  0  0  0
 14 15  2  0  0  0  0
 14 16  1  0  0  0  0
 11 12  1  0  0  0  0
 11 13  1  0  0  0  0
 11 14  1  0  0  0  0
  9 10  1  0  0  0  0
  9 11  1  0  0  0  0
  9 18  1  0  0  0  0
  7  8  1  0  0  0  0
  7  9  1  0  0  0  0
 22 23  1  0  0  0  0
 22 24  1  0  0  0  0
 22 25  1  0  0  0  0
 20 21  1  0  0  0  0
 20 22  1  0  0  0  0
M  END
$$$$
default_name
  -OEChem-02102213163D

 25 24  0     1  0  0  0  0  0999 V2000
   -2.7826   -3.8464    0.7821 H   0  0  0  0  0  0  0  0  0  0  0  0
   -2.8156   -2.8034    0.4711 C   0  0  0  0  0  0  0  0  0  0  0  0
   -3.4336   -2.2354    1.1641 H   0  0  0  0  0  0  0  0  0  0  0  0
   -3.2256   -2.7344   -0.5349 H   0  0  0  0  0  0  0  0  0  0  0  0
   -1.4126   -2.2444    0.4801 C   0  0  0  0  0  0  0  0  0  0  0  0
   -0.4686   -2.9534    0.8001 O   0  0  0  0  0  0  0  0  0  0  0  0
   -1.2736   -0.9704    0.1241 N   0  0  0  0  0  0  0  0  0  0  0  0
   -2.0996   -0.4354   -0.1019 H   0  0  0  0  0  0  0  0  0  0  0  0
   -0.0016   -0.2394    0.1271 C   0  0  1  0  0  0  0  0  0  0  0  0
    0.7164   -0.7963    0.7332 H   0  0  0  0  0  0  0  0  0  0  0  0
    0.5351   -0.1414   -1.3146 C   0  0  0  0  0  0  0  0  0  0  0  0
   -0.1527   -0.6476   -1.9931 H   0  0  0  0  0  0  0  0  0  0  0  0
    0.5921    0.9054   -1.6149 H   0  0  0  0  0  0  0  0  0  0  0  0
    1.9029   -0.7918   -1.4986 C   0  0  0  0  0  0  0  0  0  0  0  0
    2.5509   -1.3484   -0.6219 O   0  0  0  0  0  0  0  0  0  0  0  0
    2.4015   -0.7145   -2.7465 O   0  0  0  0  0  0  0  0  0  0  0  0
    3.2417   -1.1735   -2.7223 H   0  0  0  0  0  0  0  0  0  0  0  0
   -0.1923    1.1526    0.7617 C   0  0  0  0  0  0  0  0  0  0  0  0
   -1.1582    1.8438    0.4410 O   0  0  0  0  0  0  0  0  0  0  0  0
    0.7203    1.5683    1.6472 N   0  0  0  0  0  0  0  0  0  0  0  0
    1.5210    0.9664    1.8100 H   0  0  0  0  0  0  0  0  0  0  0  0
    0.6747    2.8558    2.3368 C   0  0  0  0  0  0  0  0  0  0  0  0
   -0.3018    2.9877    2.8079 H   0  0  0  0  0  0  0  0  0  0  0  0
    1.4516    2.8997    3.1011 H   0  0  0  0  0  0  0  0  0  0  0  0
    0.8279    3.6639    1.6193 H   0  0  0  0  0  0  0  0  0  0  0  0
  5  6  2  0  0  0  0
  5  7  1  0  0  0  0
  2  3  1  0  0  0  0
  2  4  1  0  0  0  0
  2  5  1  0  0  0  0
  1  2  1  0  0  0  0
 18 19  2  0  0  0  0
 18 20  1  0  0  0  0
 16 17  1  0  0  0  0
 14 15  2  0  0  0  0
 14 16  1  0  0  0  0
 11 12  1  0  0  0  0
 11 13  1  0  0  0  0
 11 14  1  0  0  0  0
  9 10  1  0  0  0  0
  9 11  1  0  0  0  0
  9 18  1  0  0  0  0
  7  8  1  0  0  0  0
  7  9  1  0  0  0  0
 22 23  1  0  0  0  0
 22 24  1  0  0  0  0
 22 25  1  0  0  0  0
 20 21  1  0  0  0  0
 20 22  1  0  0  0  0
M  END
$$$$
default_name
  -OEChem-02102213163D

 25 24  0     1  0  0  0  0  0999 V2000
   -2.7826   -3.8464    0.7821 H   0  0  0  0  0  0  0  0  0  0  0  0
   -2.8156   -2.8034    0.4711 C   0  0  0  0  0  0  0  0  0  0  0  0
   -3.4336   -2.2354    1.1641 H   0  0  0  0  0  0  0  0  0  0  0  0
   -3.2256   -2.7344   -0.5349 H   0  0  0  0  0  0  0  0  0  0  0  0
   -1.4126   -2.2444    0.4801 C   0  0  0  0  0  0  0  0  0  0  0  0
   -0.4686   -2.9534    0.8001 O   0  0  0  0  0  0  0  0  0  0  0  0
   -1.2736   -0.9704    0.1241 N   0  0  0  0  0  0  0  0  0  0  0  0
   -2.0996   -0.4354   -0.1019 H   0  0  0  0  0  0  0  0  0  0  0  0
   -0.0016   -0.2394    0.1271 C   0  0  1  0  0  0  0  0  0  0  0  0
    0.7164   -0.7963    0.7332 H   0  0  0  0  0  0  0  0  0  0  0  0
    0.5351   -0.1414   -1.3146 C   0  0  0  0  0  0  0  0  0  0  0  0
   -0.1527   -0.6476   -1.9931 H   0  0  0  0  0  0  0  0  0  0  0  0
    0.5921    0.9054   -1.6149 H   0  0  0  0  0  0  0  0  0  0  0  0
    1.9029   -0.7918   -1.4986 C   0  0  0  0  0  0  0  0  0  0  0  0
    2.4365   -1.5634   -0.7124 O   0  0  0  0  0  0  0  0  0  0  0  0
    2.5418   -0.4513   -2.6334 O   0  0  0  0  0  0  0  0  0  0  0  0
    3.3654   -0.9402   -2.6277 H   0  0  0  0  0  0  0  0  0  0  0  0
   -0.1923    1.1526    0.7617 C   0  0  0  0  0  0  0  0  0  0  0  0
   -1.1582    1.8438    0.4410 O   0  0  0  0  0  0  0  0  0  0  0  0
    0.7203    1.5683    1.6472 N   0  0  0  0  0  0  0  0  0  0  0  0
    1.5210    0.9664    1.8100 H   0  0  0  0  0  0  0  0  0  0  0  0
    0.6747    2.8558    2.3368 C   0  0  0  0  0  0  0  0  0  0  0  0
   -0.3018    2.9877    2.8079 H   0  0  0  0  0  0  0  0  0  0  0  0
    1.4516    2.8997    3.1011 H   0  0  0  0  0  0  0  0  0  0  0  0
    0.8279    3.6639    1.6193 H   0  0  0  0  0  0  0  0  0  0  0  0
  5  6  2  0  0  0  0
  5  7  1  0  0  0  0
  2  3  1  0  0  0  0
  2  4  1  0  0  0  0
  2  5  1  0  0  0  0
  1  2  1  0  0  0  0
 18 19  2  0  0  0  0
 18 20  1  0  0  0  0
 16 17  1  0  0  0  0
 14 15  2  0  0  0  0
 14 16  1  0  0  0  0
 11 12  1  0  0  0  0
 11 13  1  0  0  0  0
 11 14  1  0  0  0  0
  9 10  1  0  0  0  0
  9 11  1  0  0  0  0
  9 18  1  0  0  0  0
  7  8  1  0  0  0  0
  7  9  1  0  0  0  0
 22 23  1  0  0  0  0
 22 24  1  0  0  0  0
 22 25  1  0  0  0  0
 20 21  1  0  0  0  0
 20 22  1  0  0  0  0
M  END
$$$$
default_name
  -OEChem-02102213163D

 25 24  0     1  0  0  0  0  0999 V2000
   -2.7826   -3.8464    0.7821 H   0  0  0  0  0  0  0  0  0  0  0  0
   -2.8156   -2.8034    0.4711 C   0  0  0  0  0  0  0  0  0  0  0  0
   -3.4336   -2.2354    1.1641 H   0  0  0  0  0  0  0  0  0  0  0  0
   -3.2256   -2.7344   -0.5349 H   0  0  0  0  0  0  0  0  0  0  0  0
   -1.4126   -2.2444    0.4801 C   0  0  0  0  0  0  0  0  0  0  0  0
   -0.4686   -2.9534    0.8001 O   0  0  0  0  0  0  0  0  0  0  0  0
   -1.2736   -0.9704    0.1241 N   0  0  0  0  0  0  0  0  0  0  0  0
   -2.0996   -0.4354   -0.1019 H   0  0  0  0  0  0  0  0  0  0  0  0
   -0.0016   -0.2394    0.1271 C   0  0  1  0  0  0  0  0  0  0  0  0
    0.7164   -0.7963    0.7332 H   0  0  0  0  0  0  0  0  0  0  0  0
    0.5351   -0.1414   -1.3146 C   0  0  0  0  0  0  0  0  0  0  0  0
   -0.1527   -0.6476   -1.9931 H   0  0  0  0  0  0  0  0  0  0  0  0
    0.5921    0.9054   -1.6149 H   0  0  0  0  0  0  0  0  0  0  0  0
    1.9029   -0.7918   -1.4986 C   0  0  0  0  0  0  0  0  0  0  0  0
    2.3293   -1.7465   -0.8623 O   0  0  0  0  0  0  0  0  0  0  0  0
    2.6731   -0.2278   -2.4476 O   0  0  0  0  0  0  0  0  0  0  0  0
    3.4816   -0.7407   -2.4686 H   0  0  0  0  0  0  0  0  0  0  0  0
   -0.1923    1.1526    0.7617 C   0  0  0  0  0  0  0  0  0  0  0  0
   -1.1582    1.8438    0.4410 O   0  0  0  0  0  0  0  0  0  0  0  0
    0.7203    1.5683    1.6472 N   0  0  0  0  0  0  0  0  0  0  0  0
    1.5210    0.9664    1.8100 H   0  0  0  0  0  0  0  0  0  0  0  0
    0.6747    2.8558    2.3368 C   0  0  0  0  0  0  0  0  0  0  0  0
   -0.3018    2.9877    2.8079 H   0  0  0  0  0  0  0  0  0  0  0  0
    1.4516    2.8997    3.1011 H   0  0  0  0  0  0  0  0  0  0  0  0
    0.8279    3.6639    1.6193 H   0  0  0  0  0  0  0  0  0  0  0  0
  5  6  2  0  0  0  0
  5  7  1  0  0  0  0
  2  3  1  0  0  0  0
  2  4  1  0  0  0  0
  2  5  1  0  0  0  0
  1  2  1  0  0  0  0
 18 19  2  0  0  0  0
 18 20  1  0  0  0  0
 16 17  1  0  0  0  0
 14 15  2  0  0  0  0
 14 16  1  0  0  0  0
 11 12  1  0  0  0  0
 11 13  1  0  0  0  0
 11 14  1  0  0  0  0
  9 10  1  0  0  0  0
  9 11  1  0  0  0  0
  9 18  1  0  0  0  0
  7  8  1  0  0  0  0
  7  9  1  0  0  0  0
 22 23  1  0  0  0  0
 22 24  1  0  0  0  0
 22 25  1  0  0  0  0
 20 21  1  0  0  0  0
 20 22  1  0  0  0  0
M  END
$$$$
default_name
  -OEChem-02102213163D

 25 24  0     1  0  0  0  0  0999 V2000
   -2.7826   -3.8464    0.7821 H   0  0  0  0  0  0  0  0  0  0  0  0
   -2.8156   -2.8034    0.4711 C   0  0  0  0  0  0  0  0  0  0  0  0
   -3.4336   -2.2354    1.1641 H   0  0  0  0  0  0  0  0  0  0  0  0
   -3.2256   -2.7344   -0.5349 H   0  0  0  0  0  0  0  0  0  0  0  0
   -1.4126   -2.2444    0.4801 C   0  0  0  0  0  0  0  0  0  0  0  0
   -0.4686   -2.9534    0.8001 O   0  0  0  0  0  0  0  0  0  0  0  0
   -1.2736   -0.9704    0.1241 N   0  0  0  0  0  0  0  0  0  0  0  0
   -2.0996   -0.4354   -0.1019 H   0  0  0  0  0  0  0  0  0  0  0  0
   -0.0016   -0.2394    0.1271 C   0  0  1  0  0  0  0  0  0  0  0  0
    0.7164   -0.7963    0.7332 H   0  0  0  0  0  0  0  0  0  0  0  0
    0.5351   -0.1414   -1.3146 C   0  0  0  0  0  0  0  0  0  0  0  0
   -0.1527   -0.6476   -1.9931 H   0  0  0  0  0  0  0  0  0  0  0  0
    0.5921    0.9054   -1.6149 H   0  0  0  0  0  0  0  0  0  0  0  0
    1.9029   -0.7918   -1.4986 C   0  0  0  0  0  0  0  0  0  0  0  0
    2.2366   -1.8853   -1.0614 O   0  0  0  0  0  0  0  0  0  0  0  0
    2.7864   -0.0590   -2.2017 O   0  0  0  0  0  0  0  0  0  0  0  0
    3.5826   -0.5886   -2.2557 H   0  0  0  0  0  0  0  0  0  0  0  0
   -0.1923    1.1526    0.7617 C   0  0  0  0  0  0  0  0  0  0  0  0
   -1.1582    1.8438    0.4410 O   0  0  0  0  0  0  0  0  0  0  0  0
    0.7203    1.5683    1.6472 N   0  0  0  0  0  0  0  0  0  0  0  0
    1.5210    0.9664    1.8100 H   0  0  0  0  0  0  0  0  0  0  0  0
    0.6747    2.8558    2.3368 C   0  0  0  0  0  0  0  0  0  0  0  0
   -0.3018    2.9877    2.8079 H   0  0  0  0  0  0  0  0  0  0  0  0
    1.4516    2.8997    3.1011 H   0  0  0  0  0  0  0  0  0  0  0  0
    0.8279    3.6639    1.6193 H   0  0  0  0  0  0  0  0  0  0  0  0
  5  6  2  0  0  0  0
  5  7  1  0  0  0  0
  2  3  1  0  0  0  0
  2  4  1  0  0  0  0
  2  5  1  0  0  0  0
  1  2  1  0  0  0  0
 18 19  2  0  0  0  0
 18 20  1  0  0  0  0
 16 17  1  0  0  0  0
 14 15  2  0  0  0  0
 14 16  1  0  0  0  0
 11 12  1  0  0  0  0
 11 13  1  0  0  0  0
 11 14  1  0  0  0  0
  9 10  1  0  0  0  0
  9 11  1  0  0  0  0
  9 18  1  0  0  0  0
  7  8  1  0  0  0  0
  7  9  1  0  0  0  0
 22 23  1  0  0  0  0
 22 24  1  0  0  0  0
 22 25  1  0  0  0  0
 20 21  1  0  0  0  0
 20 22  1  0  0  0  0
M  END
$$$$
default_name
  -OEChem-02102213163D

 25 24  0     1  0  0  0  0  0999 V2000
   -2.7826   -3.8464    0.7821 H   0  0  0  0  0  0  0  0  0  0  0  0
   -2.8156   -2.8034    0.4711 C   0  0  0  0  0  0  0  0  0  0  0  0
   -3.4336   -2.2354    1.1641 H   0  0  0  0  0  0  0  0  0  0  0  0
   -3.2256   -2.7344   -0.5349 H   0  0  0  0  0  0  0  0  0  0  0  0
   -1.4126   -2.2444    0.4801 C   0  0  0  0  0  0  0  0  0  0  0  0
   -0.4686   -2.9534    0.8001 O   0  0  0  0  0  0  0  0  0  0  0  0
   -1.2736   -0.9704    0.1241 N   0  0  0  0  0  0  0  0  0  0  0  0
   -2.0996   -0.4354   -0.1019 H   0  0  0  0  0  0  0  0  0  0  0  0
   -0.0016   -0.2394    0.1271 C   0  0  1  0  0  0  0  0  0  0  0  0
    0.7164   -0.7963    0.7332 H   0  0  0  0  0  0  0  0  0  0  0  0
    0.5351   -0.1414   -1.3146 C   0  0  0  0  0  0  0  0  0  0  0  0
   -0.1527   -0.6476   -1.9931 H   0  0  0  0  0  0  0  0  0  0  0  0
    0.5921    0.9054   -1.6149 H   0  0  0  0  0  0  0  0  0  0  0  0
    1.9029   -0.7918   -1.4986 C   0  0  0  0  0  0  0  0  0  0  0  0
    2.1646   -1.9702   -1.2961 O   0  0  0  0  0  0  0  0  0  0  0  0
    2.8740    0.0434   -1.9126 O   0  0  0  0  0  0  0  0  0  0  0  0
    3.6613   -0.4942   -2.0037 H   0  0  0  0  0  0  0  0  0  0  0  0
   -0.1923    1.1526    0.7617 C   0  0  0  0  0  0  0  0  0  0  0  0
   -1.1582    1.8438    0.4410 O   0  0  0  0  0  0  0  0  0  0  0  0
    0.7203    1.5683    1.6472 N   0  0  0  0  0  0  0  0  0  0  0  0
    1.5210    0.9664    1.8100 H   0  0  0  0  0  0  0  0  0  0  0  0
    0.6747    2.8558    2.3368 C   0  0  0  0  0  0  0  0  0  0  0  0
   -0.3018    2.9877    2.8079 H   0  0  0  0  0  0  0  0  0  0  0  0
    1.4516    2.8997    3.1011 H   0  0  0  0  0  0  0  0  0  0  0  0
    0.8279    3.6639    1.6193 H   0  0  0  0  0  0  0  0  0  0  0  0
  5  6  2  0  0  0  0
  5  7  1  0  0  0  0
  2  3  1  0  0  0  0
  2  4  1  0  0  0  0
  2  5  1  0  0  0  0
  1  2  1  0  0  0  0
 18 19  2  0  0  0  0
 18 20  1  0  0  0  0
 16 17  1  0  0  0  0
 14 15  2  0  0  0  0
 14 16  1  0  0  0  0
 11 12  1  0  0  0  0
 11 13  1  0  0  0  0
 11 14  1  0  0  0  0
  9 10  1  0  0  0  0
  9 11  1  0  0  0  0
  9 18  1  0  0  0  0
  7  8  1  0  0  0  0
  7  9  1  0  0  0  0
 22 23  1  0  0  0  0
 22 24  1  0  0  0  0
 22 25  1  0  0  0  0
 20 21  1  0  0  0  0
 20 22  1  0  0  0  0
M  END
$$$$
default_name
  -OEChem-02102213163D

 25 24  0     1  0  0  0  0  0999 V2000
   -2.7826   -3.8464    0.7821 H   0  0  0  0  0  0  0  0  0  0  0  0
   -2.8156   -2.8034    0.4711 C   0  0  0  0  0  0  0  0  0  0  0  0
   -3.4336   -2.2354    1.1641 H   0  0  0  0  0  0  0  0  0  0  0  0
   -3.2256   -2.7344   -0.5349 H   0  0  0  0  0  0  0  0  0  0  0  0
   -1.4126   -2.2444    0.4801 C   0  0  0  0  0  0  0  0  0  0  0  0
   -0.4686   -2.9534    0.8001 O   0  0  0  0  0  0  0  0  0  0  0  0
   -1.2736   -0.9704    0.1241 N   0  0  0  0  0  0  0  0  0  0  0  0
   -2.0996   -0.4354   -0.1019 H   0  0  0  0  0  0  0  0  0  0  0  0
   -0.0016   -0.2394    0.1271 C   0  0  1  0  0  0  0  0  0  0  0  0
    0.7164   -0.7963    0.7332 H   0  0  0  0  0  0  0  0  0  0  0  0
    0.5351   -0.1414   -1.3146 C   0  0  0  0  0  0  0  0  0  0  0  0
   -0.1527   -0.6476   -1.9931 H   0  0  0  0  0  0  0  0  0  0  0  0
    0.5921    0.9054   -1.6149 H   0  0  0  0  0  0  0  0  0  0  0  0
    1.9029   -0.7918   -1.4986 C   0  0  0  0  0  0  0  0  0  0  0  0
    2.1184   -1.9956   -1.5506 O   0  0  0  0  0  0  0  0  0  0  0  0
    2.9299    0.0726   -1.5999 O   0  0  0  0  0  0  0  0  0  0  0  0
    3.7126   -0.4639   -1.7296 H   0  0  0  0  0  0  0  0  0  0  0  0
   -0.1923    1.1526    0.7617 C   0  0  0  0  0  0  0  0  0  0  0  0
   -1.1582    1.8438    0.4410 O   0  0  0  0  0  0  0  0  0  0  0  0
    0.7203    1.5683    1.6472 N   0  0  0  0  0  0  0  0  0  0  0  0
    1.5210    0.9664    1.8100 H   0  0  0  0  0  0  0  0  0  0  0  0
    0.6747    2.8558    2.3368 C   0  0  0  0  0  0  0  0  0  0  0  0
   -0.3018    2.9877    2.8079 H   0  0  0  0  0  0  0  0  0  0  0  0
    1.4516    2.8997    3.1011 H   0  0  0  0  0  0  0  0  0  0  0  0
    0.8279    3.6639    1.6193 H   0  0  0  0  0  0  0  0  0  0  0  0
  5  6  2  0  0  0  0
  5  7  1  0  0  0  0
  2  3  1  0  0  0  0
  2  4  1  0  0  0  0
  2  5  1  0  0  0  0
  1  2  1  0  0  0  0
 18 19  2  0  0  0  0
 18 20  1  0  0  0  0
 16 17  1  0  0  0  0
 14 15  2  0  0  0  0
 14 16  1  0  0  0  0
 11 12  1  0  0  0  0
 11 13  1  0  0  0  0
 11 14  1  0  0  0  0
  9 10  1  0  0  0  0
  9 11  1  0  0  0  0
  9 18  1  0  0  0  0
  7  8  1  0  0  0  0
  7  9  1  0  0  0  0
 22 23  1  0  0  0  0
 22 24  1  0  0  0  0
 22 25  1  0  0  0  0
 20 21  1  0  0  0  0
 20 22  1  0  0  0  0
M  END
$$$$
default_name
  -OEChem-02102213163D

 25 24  0     1  0  0  0  0  0999 V2000
   -2.7826   -3.8464    0.7821 H   0  0  0  0  0  0  0  0  0  0  0  0
   -2.8156   -2.8034    0.4711 C   0  0  0  0  0  0  0  0  0  0  0  0
   -3.4336   -2.2354    1.1641 H   0  0  0  0  0  0  0  0  0  0  0  0
   -3.2256   -2.7344   -0.5349 H   0  0  0  0  0  0  0  0  0  0  0  0
   -1.4126   -2.2444    0.4801 C   0  0  0  0  0  0  0  0  0  0  0  0
   -0.4686   -2.9534    0.8001 O   0  0  0  0  0  0  0  0  0  0  0  0
   -1.2736   -0.9704    0.1241 N   0  0  0  0  0  0  0  0  0  0  0  0
   -2.0996   -0.4354   -0.1019 H   0  0  0  0  0  0  0  0  0  0  0  0
   -0.0016   -0.2394    0.1271 C   0  0  1  0  0  0  0  0  0  0  0  0
    0.7164   -0.7963    0.7332 H   0  0  0  0  0  0  0  0  0  0  0  0
    0.5351   -0.1414   -1.3146 C   0  0  0  0  0  0  0  0  0  0  0  0
   -0.1527   -0.6476   -1.9931 H   0  0  0  0  0  0  0  0  0  0  0  0
    0.5921    0.9054   -1.6149 H   0  0  0  0  0  0  0  0  0  0  0  0
    1.9029   -0.7918   -1.4986 C   0  0  0  0  0  0  0  0  0  0  0  0
    2.1010   -1.9596   -1.8073 O   0  0  0  0  0  0  0  0  0  0  0  0
    2.9503    0.0264   -1.2849 O   0  0  0  0  0  0  0  0  0  0  0  0
    3.7328   -0.4998   -1.4523 H   0  0  0  0  0  0  0  0  0  0  0  0
   -0.1923    1.1526    0.7617 C   0  0  0  0  0  0  0  0  0  0  0  0
   -1.1582    1.8438    0.4410 O   0  0  0  0  0  0  0  0  0  0  0  0
    0.7203    1.5683    1.6472 N   0  0  0  0  0  0  0  0  0  0  0  0
    1.5210    0.9664    1.8100 H   0  0  0  0  0  0  0  0  0  0  0  0
    0.6747    2.8558    2.3368 C   0  0  0  0  0  0  0  0  0  0  0  0
   -0.3018    2.9877    2.8079 H   0  0  0  0  0  0  0  0  0  0  0  0
    1.4516    2.8997    3.1011 H   0  0  0  0  0  0  0  0  0  0  0  0
    0.8279    3.6639    1.6193 H   0  0  0  0  0  0  0  0  0  0  0  0
  5  6  2  0  0  0  0
  5  7  1  0  0  0  0
  2  3  1  0  0  0  0
  2  4  1  0  0  0  0
  2  5  1  0  0  0  0
  1  2  1  0  0  0  0
 18 19  2  0  0  0  0
 18 20  1  0  0  0  0
 16 17  1  0  0  0  0
 14 15  2  0  0  0  0
 14 16  1  0  0  0  0
 11 12  1  0  0  0  0
 11 13  1  0  0  0  0
 11 14  1  0  0  0  0
  9 10  1  0  0  0  0
  9 11  1  0  0  0  0
  9 18  1  0  0  0  0
  7  8  1  0  0  0  0
  7  9  1  0  0  0  0
 22 23  1  0  0  0  0
 22 24  1  0  0  0  0
 22 25  1  0  0  0  0
 20 21  1  0  0  0  0
 20 22  1  0  0  0  0
M  END
$$$$
default_name
  -OEChem-02102213163D

 25 24  0     1  0  0  0  0  0999 V2000
   -2.7826   -3.8464    0.7821 H   0  0  0  0  0  0  0  0  0  0  0  0
   -2.8156   -2.8034    0.4711 C   0  0  0  0  0  0  0  0  0  0  0  0
   -3.4336   -2.2354    1.1641 H   0  0  0  0  0  0  0  0  0  0  0  0
   -3.2256   -2.7344   -0.5349 H   0  0  0  0  0  0  0  0  0  0  0  0
   -1.4126   -2.2444    0.4801 C   0  0  0  0  0  0  0  0  0  0  0  0
   -0.4686   -2.9534    0.8001 O   0  0  0  0  0  0  0  0  0  0  0  0
   -1.2736   -0.9704    0.1241 N   0  0  0  0  0  0  0  0  0  0  0  0
   -2.0996   -0.4354   -0.1019 H   0  0  0  0  0  0  0  0  0  0  0  0
   -0.0016   -0.2394    0.1271 C   0  0  1  0  0  0  0  0  0  0  0  0
    0.7164   -0.7963    0.7332 H   0  0  0  0  0  0  0  0  0  0  0  0
    0.5351   -0.1414   -1.3146 C   0  0  0  0  0  0  0  0  0  0  0  0
   -0.1527   -0.6476   -1.9931 H   0  0  0  0  0  0  0  0  0  0  0  0
    0.5921    0.9054   -1.6149 H   0  0  0  0  0  0  0  0  0  0  0  0
    1.9029   -0.7918   -1.4986 C   0  0  0  0  0  0  0  0  0  0  0  0
    2.1136   -1.8647   -2.0488 O   0  0  0  0  0  0  0  0  0  0  0  0
    2.9338   -0.0920   -0.9891 O   0  0  0  0  0  0  0  0  0  0  0  0
    3.7206   -0.5996   -1.1904 H   0  0  0  0  0  0  0  0  0  0  0  0
   -0.1923    1.1526    0.7617 C   0  0  0  0  0  0  0  0  0  0  0  0
   -1.1582    1.8438    0.4410 O   0  0  0  0  0  0  0  0  0  0  0  0
    0.7203    1.5683    1.6472 N   0  0  0  0  0  0  0  0  0  0  0  0
    1.5210    0.9664    1.8100 H   0  0  0  0  0  0  0  0  0  0  0  0
    0.6747    2.8558    2.3368 C   0  0  0  0  0  0  0  0  0  0  0  0
   -0.3018    2.9877    2.8079 H   0  0  0  0  0  0  0  0  0  0  0  0
    1.4516    2.8997    3.1011 H   0  0  0  0  0  0  0  0  0  0  0  0
    0.8279    3.6639    1.6193 H   0  0  0  0  0  0  0  0  0  0  0  0
  5  6  2  0  0  0  0
  5  7  1  0  0  0  0
  2  3  1  0  0  0  0
  2  4  1  0  0  0  0
  2  5  1  0  0  0  0
  1  2  1  0  0  0  0
 18 19  2  0  0  0  0
 18 20  1  0  0  0  0
 16 17  1  0  0  0  0
 14 15  2  0  0  0  0
 14 16  1  0  0  0  0
 11 12  1  0  0  0  0
 11 13  1  0  0  0  0
 11 14  1  0  0  0  0
  9 10  1  0  0  0  0
  9 11  1  0  0  0  0
  9 18  1  0  0  0  0
  7  8  1  0  0  0  0
  7  9  1  0  0  0  0
 22 23  1  0  0  0  0
 22 24  1  0  0  0  0
 22 25  1  0  0  0  0
 20 21  1  0  0  0  0
 20 22  1  0  0  0  0
M  END
$$$$
default_name
  -OEChem-02102213163D

 25 24  0     1  0  0  0  0  0999 V2000
   -2.7826   -3.8464    0.7821 H   0  0  0  0  0  0  0  0  0  0  0  0
   -2.8156   -2.8034    0.4711 C   0  0  0  0  0  0  0  0  0  0  0  0
   -3.4336   -2.2354    1.1641 H   0  0  0  0  0  0  0  0  0  0  0  0
   -3.2256   -2.7344   -0.5349 H   0  0  0  0  0  0  0  0  0  0  0  0
   -1.4126   -2.2444    0.4801 C   0  0  0  0  0  0  0  0  0  0  0  0
   -0.4686   -2.9534    0.8001 O   0  0  0  0  0  0  0  0  0  0  0  0
   -1.2736   -0.9704    0.1241 N   0  0  0  0  0  0  0  0  0  0  0  0
   -2.0996   -0.4354   -0.1019 H   0  0  0  0  0  0  0  0  0  0  0  0
   -0.0016   -0.2394    0.1271 C   0  0  1  0  0  0  0  0  0  0  0  0
    0.7164   -0.7963    0.7332 H   0  0  0  0  0  0  0  0  0  0  0  0
    0.5351   -0.1414   -1.3146 C   0  0  0  0  0  0  0  0  0  0  0  0
   -0.1527   -0.6476   -1.9931 H   0  0  0  0  0  0  0  0  0  0  0  0
    0.5921    0.9054   -1.6149 H   0  0  0  0  0  0  0  0  0  0  0  0
    1.9029   -0.7918   -1.4986 C   0  0  0  0  0  0  0  0  0  0  0  0
    2.1554   -1.7173   -2.2587 O   0  0  0  0  0  0  0  0  0  0  0  0
    2.8816   -0.2744   -0.7327 O   0  0  0  0  0  0  0  0  0  0  0  0
    3.6768   -0.7563   -0.9620 H   0  0  0  0  0  0  0  0  0  0  0  0
   -0.1923    1.1526    0.7617 C   0  0  0  0  0  0  0  0  0  0  0  0
   -1.1582    1.8438    0.4410 O   0  0  0  0  0  0  0  0  0  0  0  0
    0.7203    1.5683    1.6472 N   0  0  0  0  0  0  0  0  0  0  0  0
    1.5210    0.9664    1.8100 H   0  0  0  0  0  0  0  0  0  0  0  0
    0.6747    2.8558    2.3368 C   0  0  0  0  0  0  0  0  0  0  0  0
   -0.3018    2.9877    2.8079 H   0  0  0  0  0  0  0  0  0  0  0  0
    1.4516    2.8997    3.1011 H   0  0  0  0  0  0  0  0  0  0  0  0
    0.8279    3.6639    1.6193 H   0  0  0  0  0  0  0  0  0  0  0  0
  5  6  2  0  0  0  0
  5  7  1  0  0  0  0
  2  3  1  0  0  0  0
  2  4  1  0  0  0  0
  2  5  1  0  0  0  0
  1  2  1  0  0  0  0
 18 19  2  0  0  0  0
 18 20  1  0  0  0  0
 16 17  1  0  0  0  0
 14 15  2  0  0  0  0
 14 16  1  0  0  0  0
 11 12  1  0  0  0  0
 11 13  1  0  0  0  0
 11 14  1  0  0  0  0
  9 10  1  0  0  0  0
  9 11  1  0  0  0  0
  9 18  1  0  0  0  0
  7  8  1  0  0  0  0
  7  9  1  0  0  0  0
 22 23  1  0  0  0  0
 22 24  1  0  0  0  0
 22 25  1  0  0  0  0
 20 21  1  0  0  0  0
 20 22  1  0  0  0  0
M  END
$$$$
default_name
  -OEChem-02102213163D

 25 24  0     1  0  0  0  0  0999 V2000
   -2.7826   -3.8464    0.7821 H   0  0  0  0  0  0  0  0  0  0  0  0
   -2.8156   -2.8034    0.4711 C   0  0  0  0  0  0  0  0  0  0  0  0
   -3.4336   -2.2354    1.1641 H   0  0  0  0  0  0  0  0  0  0  0  0
   -3.2256   -2.7344   -0.5349 H   0  0  0  0  0  0  0  0  0  0  0  0
   -1.4126   -2.2444    0.4801 C   0  0  0  0  0  0  0  0  0  0  0  0
   -0.4686   -2.9534    0.8001 O   0  0  0  0  0  0  0  0  0  0  0  0
   -1.2736   -0.9704    0.1241 N   0  0  0  0  0  0  0  0  0  0  0  0
   -2.0996   -0.4354   -0.1019 H   0  0  0  0  0  0  0  0  0  0  0  0
   -0.0016   -0.2394    0.1271 C   0  0  1  0  0  0  0  0  0  0  0  0
    0.7164   -0.7963    0.7332 H   0  0  0  0  0  0  0  0  0  0  0  0
    0.5351   -0.1414   -1.3146 C   0  0  0  0  0  0  0  0  0  0  0  0
   -0.1527   -0.6476   -1.9931 H   0  0  0  0  0  0  0  0  0  0  0  0
    0.5921    0.9054   -1.6149 H   0  0  0  0  0  0  0  0  0  0  0  0
    1.9029   -0.7918   -1.4986 C   0  0  0  0  0  0  0  0  0  0  0  0
    2.2236   -1.5276   -2.4226 O   0  0  0  0  0  0  0  0  0  0  0  0
    2.7971   -0.5085   -0.5331 O   0  0  0  0  0  0  0  0  0  0  0  0
    3.6044   -0.9593   -0.7826 H   0  0  0  0  0  0  0  0  0  0  0  0
   -0.1923    1.1526    0.7617 C   0  0  0  0  0  0  0  0  0  0  0  0
   -1.1582    1.8438    0.4410 O   0  0  0  0  0  0  0  0  0  0  0  0
    0.7203    1.5683    1.6472 N   0  0  0  0  0  0  0  0  0  0  0  0
    1.5210    0.9664    1.8100 H   0  0  0  0  0  0  0  0  0  0  0  0
    0.6747    2.8558    2.3368 C   0  0  0  0  0  0  0  0  0  0  0  0
   -0.3018    2.9877    2.8079 H   0  0  0  0  0  0  0  0  0  0  0  0
    1.4516    2.8997    3.1011 H   0  0  0  0  0  0  0  0  0  0  0  0
    0.8279    3.6639    1.6193 H   0  0  0  0  0  0  0  0  0  0  0  0
  5  6  2  0  0  0  0
  5  7  1  0  0  0  0
  2  3  1  0  0  0  0
  2  4  1  0  0  0  0
  2  5  1  0  0  0  0
  1  2  1  0  0  0  0
 18 19  2  0  0  0  0
 18 20  1  0  0  0  0
 16 17  1  0  0  0  0
 14 15  2  0  0  0  0
 14 16  1  0  0  0  0
 11 12  1  0  0  0  0
 11 13  1  0  0  0  0
 11 14  1  0  0  0  0
  9 10  1  0  0  0  0
  9 11  1  0  0  0  0
  9 18  1  0  0  0  0
  7  8  1  0  0  0  0
  7  9  1  0  0  0  0
 22 23  1  0  0  0  0
 22 24  1  0  0  0  0
 22 25  1  0  0  0  0
 20 21  1  0  0  0  0
 20 22  1  0  0  0  0
M  END
$$$$
default_name
  -OEChem-02102213163D

 25 24  0     1  0  0  0  0  0999 V2000
   -2.7826   -3.8464    0.7821 H   0  0  0  0  0  0  0  0  0  0  0  0
   -2.8156   -2.8034    0.4711 C   0  0  0  0  0  0  0  0  0  0  0  0
   -3.4336   -2.2354    1.1641 H   0  0  0  0  0  0  0  0  0  0  0  0
   -3.2256   -2.7344   -0.5349 H   0  0  0  0  0  0  0  0  0  0  0  0
   -1.4126   -2.2444    0.4801 C   0  0  0  0  0  0  0  0  0  0  0  0
   -0.4686   -2.9534    0.8001 O   0  0  0  0  0  0  0  0  0  0  0  0
   -1.2736   -0.9704    0.1241 N   0  0  0  0  0  0  0  0  0  0  0  0
   -2.0996   -0.4354   -0.1019 H   0  0  0  0  0  0  0  0  0  0  0  0
   -0.0016   -0.2394    0.1271 C   0  0  1  0  0  0  0  0  0  0  0  0
    0.7164   -0.7963    0.7332 H   0  0  0  0  0  0  0  0  0  0  0  0
    0.5351   -0.1414   -1.3146 C   0  0  0  0  0  0  0  0  0  0  0  0
   -0.1527   -0.6476   -1.9931 H   0  0  0  0  0  0  0  0  0  0  0  0
    0.5921    0.9054   -1.6149 H   0  0  0  0  0  0  0  0  0  0  0  0
    1.9029   -0.7918   -1.4986 C   0  0  0  0  0  0  0  0  0  0  0  0
    2.3134   -1.3085   -2.5295 O   0  0  0  0  0  0  0  0  0  0  0  0
    2.6862   -0.7783   -0.4039 O   0  0  0  0  0  0  0  0  0  0  0  0
    3.5084   -1.1947   -0.6643 H   0  0  0  0  0  0  0  0  0  0  0  0
   -0.1923    1.1526    0.7617 C   0  0  0  0  0  0  0  0  0  0  0  0
   -1.1582    1.8438    0.4410 O   0  0  0  0  0  0  0  0  0  0  0  0
    0.7203    1.5683    1.6472 N   0  0  0  0  0  0  0  0  0  0  0  0
    1.5210    0.9664    1.8100 H   0  0  0  0  0  0  0  0  0  0  0  0
    0.6747    2.8558    2.3368 C   0  0  0  0  0  0  0  0  0  0  0  0
   -0.3018    2.9877    2.8079 H   0  0  0  0  0  0  0  0  0  0  0  0
    1.4516    2.8997    3.1011 H   0  0  0  0  0  0  0  0  0  0  0  0
    0.8279    3.6639    1.6193 H   0  0  0  0  0  0  0  0  0  0  0  0
  5  6  2  0  0  0  0
  5  7  1  0  0  0  0
  2  3  1  0  0  0  0
  2  4  1  0  0  0  0
  2  5  1  0  0  0  0
  1  2  1  0  0  0  0
 18 19  2  0  0  0  0
 18 20  1  0  0  0  0
 16 17  1  0  0  0  0
 14 15  2  0  0  0  0
 14 16  1  0  0  0  0
 11 12  1  0  0  0  0
 11 13  1  0  0  0  0
 11 14  1  0  0  0  0
  9 10  1  0  0  0  0
  9 11  1  0  0  0  0
  9 18  1  0  0  0  0
  7  8  1  0  0  0  0
  7  9  1  0  0  0  0
 22 23  1  0  0  0  0
 22 24  1  0  0  0  0
 22 25  1  0  0  0  0
 20 21  1  0  0  0  0
 20 22  1  0  0  0  0
M  END
$$$$
default_name
  -OEChem-02102213163D

 25 24  0     1  0  0  0  0  0999 V2000
   -2.7826   -3.8464    0.7821 H   0  0  0  0  0  0  0  0  0  0  0  0
   -2.8156   -2.8034    0.4711 C   0  0  0  0  0  0  0  0  0  0  0  0
   -3.4336   -2.2354    1.1641 H   0  0  0  0  0  0  0  0  0  0  0  0
   -3.2256   -2.7344   -0.5349 H   0  0  0  0  0  0  0  0  0  0  0  0
   -1.4126   -2.2444    0.4801 C   0  0  0  0  0  0  0  0  0  0  0  0
   -0.4686   -2.9534    0.8001 O   0  0  0  0  0  0  0  0  0  0  0  0
   -1.2736   -0.9704    0.1241 N   0  0  0  0  0  0  0  0  0  0  0  0
   -2.0996   -0.4354   -0.1019 H   0  0  0  0  0  0  0  0  0  0  0  0
   -0.0016   -0.2394    0.1271 C   0  0  1  0  0  0  0  0  0  0  0  0
    0.7164   -0.7963    0.7332 H   0  0  0  0  0  0  0  0  0  0  0  0
    0.5351   -0.1414   -1.3146 C   0  0  0  0  0  0  0  0  0  0  0  0
   -0.1527   -0.6476   -1.9931 H   0  0  0  0  0  0  0  0  0  0  0  0
    0.5921    0.9054   -1.6149 H   0  0  0  0  0  0  0  0  0  0  0  0
    1.9029   -0.7918   -1.4986 C   0  0  0  0  0  0  0  0  0  0  0  0
    2.4188   -1.0748   -2.5719 O   0  0  0  0  0  0  0  0  0  0  0  0
    2.5564   -1.0654   -0.3540 O   0  0  0  0  0  0  0  0  0  0  0  0
    3.3952   -1.4466   -0.6154 H   0  0  0  0  0  0  0  0  0  0  0  0
   -0.1923    1.1526    0.7617 C   0  0  0  0  0  0  0  0  0  0  0  0
   -1.1582    1.8438    0.4410 O   0  0  0  0  0  0  0  0  0  0  0  0
    0.7203    1.5683    1.6472 N   0  0  0  0  0  0  0  0  0  0  0  0
    1.5210    0.9664    1.8100 H   0  0  0  0  0  0  0  0  0  0  0  0
    0.6747    2.8558    2.3368 C   0  0  0  0  0  0  0  0  0  0  0  0
   -0.3018    2.9877    2.8079 H   0  0  0  0  0  0  0  0  0  0  0  0
    1.4516    2.8997    3.1011 H   0  0  0  0  0  0  0  0  0  0  0  0
    0.8279    3.6639    1.6193 H   0  0  0  0  0  0  0  0  0  0  0  0
  5  6  2  0  0  0  0
  5  7  1  0  0  0  0
  2  3  1  0  0  0  0
  2  4  1  0  0  0  0
  2  5  1  0  0  0  0
  1  2  1  0  0  0  0
 18 19  2  0  0  0  0
 18 20  1  0  0  0  0
 16 17  1  0  0  0  0
 14 15  2  0  0  0  0
 14 16  1  0  0  0  0
 11 12  1  0  0  0  0
 11 13  1  0  0  0  0
 11 14  1  0  0  0  0
  9 10  1  0  0  0  0
  9 11  1  0  0  0  0
  9 18  1  0  0  0  0
  7  8  1  0  0  0  0
  7  9  1  0  0  0  0
 22 23  1  0  0  0  0
 22 24  1  0  0  0  0
 22 25  1  0  0  0  0
 20 21  1  0  0  0  0
 20 22  1  0  0  0  0
M  END
$$$$
default_name
  -OEChem-02102213163D

 25 24  0     1  0  0  0  0  0999 V2000
   -2.7826   -3.8464    0.7821 H   0  0  0  0  0  0  0  0  0  0  0  0
   -2.8156   -2.8034    0.4711 C   0  0  0  0  0  0  0  0  0  0  0  0
   -3.4336   -2.2354    1.1641 H   0  0  0  0  0  0  0  0  0  0  0  0
   -3.2256   -2.7344   -0.5349 H   0  0  0  0  0  0  0  0  0  0  0  0
   -1.4126   -2.2444    0.4801 C   0  0  0  0  0  0  0  0  0  0  0  0
   -0.4686   -2.9534    0.8001 O   0  0  0  0  0  0  0  0  0  0  0  0
   -1.2736   -0.9704    0.1241 N   0  0  0  0  0  0  0  0  0  0  0  0
   -2.0996   -0.4354   -0.1019 H   0  0  0  0  0  0  0  0  0  0  0  0
   -0.0016   -0.2394    0.1271 C   0  0  1  0  0  0  0  0  0  0  0  0
    0.7164   -0.7963    0.7332 H   0  0  0  0  0  0  0  0  0  0  0  0
    0.5351   -0.1414   -1.3146 C   0  0  0  0  0  0  0  0  0  0  0  0
   -0.2587   -0.4019   -2.0159 H   0  0  0  0  0  0  0  0  0  0  0  0
    0.8430    0.8838   -1.5229 H   0  0  0  0  0  0  0  0  0  0  0  0
    1.7031   -1.0828   -1.5927 C   0  0  0  0  0  0  0  0  0  0  0  0
    2.2959   -1.1872   -2.6586 O   0  0  0  0  0  0  0  0  0  0  0  0
    2.0717   -1.8487   -0.5490 O   0  0  0  0  0  0  0  0  0  0  0  0
    2.8164   -2.3678   -0.8544 H   0  0  0  0  0  0  0  0  0  0  0  0
   -0.1923    1.1526    0.7617 C   0  0  0  0  0  0  0  0  0  0  0  0
   -1.1582    1.8438    0.4410 O   0  0  0  0  0  0  0  0  0  0  0  0
    0.7203    1.5683    1.6472 N   0  0  0  0  0  0  0  0  0  0  0  0
    1.5210    0.9664    1.8100 H   0  0  0  0  0  0  0  0  0  0  0  0
    0.6747    2.8558    2.3368 C   0  0  0  0  0  0  0  0  0  0  0  0
   -0.3018    2.9877    2.8079 H   0  0  0  0  0  0  0  0  0  0  0  0
    1.4516    2.8997    3.1011 H   0  0  0  0  0  0  0  0  0  0  0  0
    0.8279    3.6639    1.6193 H   0  0  0  0  0  0  0  0  0  0  0  0
  5  6  2  0  0  0  0
  5  7  1  0  0  0  0
  2  3  1  0  0  0  0
  2  4  1  0  0  0  0
  2  5  1  0  0  0  0
  1  2  1  0  0  0  0
 18 19  2  0  0  0  0
 18 20  1  0  0  0  0
 16 17  1  0  0  0  0
 14 15  2  0  0  0  0
 14 16  1  0  0  0  0
 11 12  1  0  0  0  0
 11 13  1  0  0  0  0
 11 14  1  0  0  0  0
  9 10  1  0  0  0  0
  9 11  1  0  0  0  0
  9 18  1  0  0  0  0
  7  8  1  0  0  0  0
  7  9  1  0  0  0  0
 22 23  1  0  0  0  0
 22 24  1  0  0  0  0
 22 25  1  0  0  0  0
 20 21  1  0  0  0  0
 20 22  1  0  0  0  0
M  END
$$$$
default_name
  -OEChem-02102213163D

 25 24  0     1  0  0  0  0  0999 V2000
   -2.7826   -3.8464    0.7821 H   0  0  0  0  0  0  0  0  0  0  0  0
   -2.8156   -2.8034    0.4711 C   0  0  0  0  0  0  0  0  0  0  0  0
   -3.4336   -2.2354    1.1641 H   0  0  0  0  0  0  0  0  0  0  0  0
   -3.2256   -2.7344   -0.5349 H   0  0  0  0  0  0  0  0  0  0  0  0
   -1.4126   -2.2444    0.4801 C   0  0  0  0  0  0  0  0  0  0  0  0
   -0.4686   -2.9534    0.8001 O   0  0  0  0  0  0  0  0  0  0  0  0
   -1.2736   -0.9704    0.1241 N   0  0  0  0  0  0  0  0  0  0  0  0
   -2.0996   -0.4354   -0.1019 H   0  0  0  0  0  0  0  0  0  0  0  0
   -0.0016   -0.2394    0.1271 C   0  0  1  0  0  0  0  0  0  0  0  0
    0.7164   -0.7963    0.7332 H   0  0  0  0  0  0  0  0  0  0  0  0
    0.5351   -0.1414   -1.3146 C   0  0  0  0  0  0  0  0  0  0  0  0
   -0.2587   -0.4019   -2.0159 H   0  0  0  0  0  0  0  0  0  0  0  0
    0.8430    0.8838   -1.5229 H   0  0  0  0  0  0  0  0  0  0  0  0
    1.7031   -1.0828   -1.5927 C   0  0  0  0  0  0  0  0  0  0  0  0
    2.4595   -1.0155   -2.5527 O   0  0  0  0  0  0  0  0  0  0  0  0
    1.8711   -2.0587   -0.6809 O   0  0  0  0  0  0  0  0  0  0  0  0
    2.6393   -2.5546   -0.9657 H   0  0  0  0  0  0  0  0  0  0  0  0
   -0.1923    1.1526    0.7617 C   0  0  0  0  0  0  0  0  0  0  0  0
   -1.1582    1.8438    0.4410 O   0  0  0  0  0  0  0  0  0  0  0  0
    0.7203    1.5683    1.6472 N   0  0  0  0  0  0  0  0  0  0  0  0
    1.5210    0.9664    1.8100 H   0  0  0  0  0  0  0  0  0  0  0  0
    0.6747    2.8558    2.3368 C   0  0  0  0  0  0  0  0  0  0  0  0
   -0.3018    2.9877    2.8079 H   0  0  0  0  0  0  0  0  0  0  0  0
    1.4516    2.8997    3.1011 H   0  0  0  0  0  0  0  0  0  0  0  0
    0.8279    3.6639    1.6193 H   0  0  0  0  0  0  0  0  0  0  0  0
  5  6  2  0  0  0  0
  5  7  1  0  0  0  0
  2  3  1  0  0  0  0
  2  4  1  0  0  0  0
  2  5  1  0  0  0  0
  1  2  1  0  0  0  0
 18 19  2  0  0  0  0
 18 20  1  0  0  0  0
 16 17  1  0  0  0  0
 14 15  2  0  0  0  0
 14 16  1  0  0  0  0
 11 12  1  0  0  0  0
 11 13  1  0  0  0  0
 11 14  1  0  0  0  0
  9 10  1  0  0  0  0
  9 11  1  0  0  0  0
  9 18  1  0  0  0  0
  7  8  1  0  0  0  0
  7  9  1  0  0  0  0
 22 23  1  0  0  0  0
 22 24  1  0  0  0  0
 22 25  1  0  0  0  0
 20 21  1  0  0  0  0
 20 22  1  0  0  0  0
M  END
$$$$
default_name
  -OEChem-02102213163D

 25 24  0     1  0  0  0  0  0999 V2000
   -2.7826   -3.8464    0.7821 H   0  0  0  0  0  0  0  0  0  0  0  0
   -2.8156   -2.8034    0.4711 C   0  0  0  0  0  0  0  0  0  0  0  0
   -3.4336   -2.2354    1.1641 H   0  0  0  0  0  0  0  0  0  0  0  0
   -3.2256   -2.7344   -0.5349 H   0  0  0  0  0  0  0  0  0  0  0  0
   -1.4126   -2.2444    0.4801 C   0  0  0  0  0  0  0  0  0  0  0  0
   -0.4686   -2.9534    0.8001 O   0  0  0  0  0  0  0  0  0  0  0  0
   -1.2736   -0.9704    0.1241 N   0  0  0  0  0  0  0  0  0  0  0  0
   -2.0996   -0.4354   -0.1019 H   0  0  0  0  0  0  0  0  0  0  0  0
   -0.0016   -0.2394    0.1271 C   0  0  1  0  0  0  0  0  0  0  0  0
    0.7164   -0.7963    0.7332 H   0  0  0  0  0  0  0  0  0  0  0  0
    0.5351   -0.1414   -1.3146 C   0  0  0  0  0  0  0  0  0  0  0  0
   -0.2587   -0.4019   -2.0159 H   0  0  0  0  0  0  0  0  0  0  0  0
    0.8430    0.8838   -1.5229 H   0  0  0  0  0  0  0  0  0  0  0  0
    1.7031   -1.0828   -1.5927 C   0  0  0  0  0  0  0  0  0  0  0  0
    2.6088   -0.8782   -2.3902 O   0  0  0  0  0  0  0  0  0  0  0  0
    1.6884   -2.2259   -0.8820 O   0  0  0  0  0  0  0  0  0  0  0  0
    2.4773   -2.7046   -1.1386 H   0  0  0  0  0  0  0  0  0  0  0  0
   -0.1923    1.1526    0.7617 C   0  0  0  0  0  0  0  0  0  0  0  0
   -1.1582    1.8438    0.4410 O   0  0  0  0  0  0  0  0  0  0  0  0
    0.7203    1.5683    1.6472 N   0  0  0  0  0  0  0  0  0  0  0  0
    1.5210    0.9664    1.8100 H   0  0  0  0  0  0  0  0  0  0  0  0
    0.6747    2.8558    2.3368 C   0  0  0  0  0  0  0  0  0  0  0  0
   -0.3018    2.9877    2.8079 H   0  0  0  0  0  0  0  0  0  0  0  0
    1.4516    2.8997    3.1011 H   0  0  0  0  0  0  0  0  0  0  0  0
    0.8279    3.6639    1.6193 H   0  0  0  0  0  0  0  0  0  0  0  0
  5  6  2  0  0  0  0
  5  7  1  0  0  0  0
  2  3  1  0  0  0  0
  2  4  1  0  0  0  0
  2  5  1  0  0  0  0
  1  2  1  0  0  0  0
 18 19  2  0  0  0  0
 18 20  1  0  0  0  0
 16 17  1  0  0  0  0
 14 15  2  0  0  0  0
 14 16  1  0  0  0  0
 11 12  1  0  0  0  0
 11 13  1  0  0  0  0
 11 14  1  0  0  0  0
  9 10  1  0  0  0  0
  9 11  1  0  0  0  0
  9 18  1  0  0  0  0
  7  8  1  0  0  0  0
  7  9  1  0  0  0  0
 22 23  1  0  0  0  0
 22 24  1  0  0  0  0
 22 25  1  0  0  0  0
 20 21  1  0  0  0  0
 20 22  1  0  0  0  0
M  END
$$$$
default_name
  -OEChem-02102213163D

 25 24  0     1  0  0  0  0  0999 V2000
   -2.7826   -3.8464    0.7821 H   0  0  0  0  0  0  0  0  0  0  0  0
   -2.8156   -2.8034    0.4711 C   0  0  0  0  0  0  0  0  0  0  0  0
   -3.4336   -2.2354    1.1641 H   0  0  0  0  0  0  0  0  0  0  0  0
   -3.2256   -2.7344   -0.5349 H   0  0  0  0  0  0  0  0  0  0  0  0
   -1.4126   -2.2444    0.4801 C   0  0  0  0  0  0  0  0  0  0  0  0
   -0.4686   -2.9534    0.8001 O   0  0  0  0  0  0  0  0  0  0  0  0
   -1.2736   -0.9704    0.1241 N   0  0  0  0  0  0  0  0  0  0  0  0
   -2.0996   -0.4354   -0.1019 H   0  0  0  0  0  0  0  0  0  0  0  0
   -0.0016   -0.2394    0.1271 C   0  0  1  0  0  0  0  0  0  0  0  0
    0.7164   -0.7963    0.7332 H   0  0  0  0  0  0  0  0  0  0  0  0
    0.5351   -0.1414   -1.3146 C   0  0  0  0  0  0  0  0  0  0  0  0
   -0.2587   -0.4019   -2.0159 H   0  0  0  0  0  0  0  0  0  0  0  0
    0.8430    0.8838   -1.5229 H   0  0  0  0  0  0  0  0  0  0  0  0
    1.7031   -1.0828   -1.5927 C   0  0  0  0  0  0  0  0  0  0  0  0
    2.7336   -0.7849   -2.1823 O   0  0  0  0  0  0  0  0  0  0  0  0
    1.5362   -2.3390   -1.1386 O   0  0  0  0  0  0  0  0  0  0  0  0
    2.3413   -2.8076   -1.3611 H   0  0  0  0  0  0  0  0  0  0  0  0
   -0.1923    1.1526    0.7617 C   0  0  0  0  0  0  0  0  0  0  0  0
   -1.1582    1.8438    0.4410 O   0  0  0  0  0  0  0  0  0  0  0  0
    0.7203    1.5683    1.6472 N   0  0  0  0  0  0  0  0  0  0  0  0
    1.5210    0.9664    1.8100 H   0  0  0  0  0  0  0  0  0  0  0  0
    0.6747    2.8558    2.3368 C   0  0  0  0  0  0  0  0  0  0  0  0
   -0.3018    2.9877    2.8079 H   0  0  0  0  0  0  0  0  0  0  0  0
    1.4516    2.8997    3.1011 H   0  0  0  0  0  0  0  0  0  0  0  0
    0.8279    3.6639    1.6193 H   0  0  0  0  0  0  0  0  0  0  0  0
  5  6  2  0  0  0  0
  5  7  1  0  0  0  0
  2  3  1  0  0  0  0
  2  4  1  0  0  0  0
  2  5  1  0  0  0  0
  1  2  1  0  0  0  0
 18 19  2  0  0  0  0
 18 20  1  0  0  0  0
 16 17  1  0  0  0  0
 14 15  2  0  0  0  0
 14 16  1  0  0  0  0
 11 12  1  0  0  0  0
 11 13  1  0  0  0  0
 11 14  1  0  0  0  0
  9 10  1  0  0  0  0
  9 11  1  0  0  0  0
  9 18  1  0  0  0  0
  7  8  1  0  0  0  0
  7  9  1  0  0  0  0
 22 23  1  0  0  0  0
 22 24  1  0  0  0  0
 22 25  1  0  0  0  0
 20 21  1  0  0  0  0
 20 22  1  0  0  0  0
M  END
$$$$
default_name
  -OEChem-02102213163D

 25 24  0     1  0  0  0  0  0999 V2000
   -2.7826   -3.8464    0.7821 H   0  0  0  0  0  0  0  0  0  0  0  0
   -2.8156   -2.8034    0.4711 C   0  0  0  0  0  0  0  0  0  0  0  0
   -3.4336   -2.2354    1.1641 H   0  0  0  0  0  0  0  0  0  0  0  0
   -3.2256   -2.7344   -0.5349 H   0  0  0  0  0  0  0  0  0  0  0  0
   -1.4126   -2.2444    0.4801 C   0  0  0  0  0  0  0  0  0  0  0  0
   -0.4686   -2.9534    0.8001 O   0  0  0  0  0  0  0  0  0  0  0  0
   -1.2736   -0.9704    0.1241 N   0  0  0  0  0  0  0  0  0  0  0  0
   -2.0996   -0.4354   -0.1019 H   0  0  0  0  0  0  0  0  0  0  0  0
   -0.0016   -0.2394    0.1271 C   0  0  1  0  0  0  0  0  0  0  0  0
    0.7164   -0.7963    0.7332 H   0  0  0  0  0  0  0  0  0  0  0  0
    0.5351   -0.1414   -1.3146 C   0  0  0  0  0  0  0  0  0  0  0  0
   -0.2587   -0.4019   -2.0159 H   0  0  0  0  0  0  0  0  0  0  0  0
    0.8430    0.8838   -1.5229 H   0  0  0  0  0  0  0  0  0  0  0  0
    1.7031   -1.0828   -1.5927 C   0  0  0  0  0  0  0  0  0  0  0  0
    2.8252   -0.7418   -1.9431 O   0  0  0  0  0  0  0  0  0  0  0  0
    1.4248   -2.3901   -1.4331 O   0  0  0  0  0  0  0  0  0  0  0  0
    2.2406   -2.8566   -1.6182 H   0  0  0  0  0  0  0  0  0  0  0  0
   -0.1923    1.1526    0.7617 C   0  0  0  0  0  0  0  0  0  0  0  0
   -1.1582    1.8438    0.4410 O   0  0  0  0  0  0  0  0  0  0  0  0
    0.7203    1.5683    1.6472 N   0  0  0  0  0  0  0  0  0  0  0  0
    1.5210    0.9664    1.8100 H   0  0  0  0  0  0  0  0  0  0  0  0
    0.6747    2.8558    2.3368 C   0  0  0  0  0  0  0  0  0  0  0  0
   -0.3018    2.9877    2.8079 H   0  0  0  0  0  0  0  0  0  0  0  0
    1.4516    2.8997    3.1011 H   0  0  0  0  0  0  0  0  0  0  0  0
    0.8279    3.6639    1.6193 H   0  0  0  0  0  0  0  0  0  0  0  0
  5  6  2  0  0  0  0
  5  7  1  0  0  0  0
  2  3  1  0  0  0  0
  2  4  1  0  0  0  0
  2  5  1  0  0  0  0
  1  2  1  0  0  0  0
 18 19  2  0  0  0  0
 18 20  1  0  0  0  0
 16 17  1  0  0  0  0
 14 15  2  0  0  0  0
 14 16  1  0  0  0  0
 11 12  1  0  0  0  0
 11 13  1  0  0  0  0
 11 14  1  0  0  0  0
  9 10  1  0  0  0  0
  9 11  1  0  0  0  0
  9 18  1  0  0  0  0
  7  8  1  0  0  0  0
  7  9  1  0  0  0  0
 22 23  1  0  0  0  0
 22 24  1  0  0  0  0
 22 25  1  0  0  0  0
 20 21  1  0  0  0  0
 20 22  1  0  0  0  0
M  END
$$$$
default_name
  -OEChem-02102213163D

 25 24  0     1  0  0  0  0  0999 V2000
   -2.7826   -3.8464    0.7821 H   0  0  0  0  0  0  0  0  0  0  0  0
   -2.8156   -2.8034    0.4711 C   0  0  0  0  0  0  0  0  0  0  0  0
   -3.4336   -2.2354    1.1641 H   0  0  0  0  0  0  0  0  0  0  0  0
   -3.2256   -2.7344   -0.5349 H   0  0  0  0  0  0  0  0  0  0  0  0
   -1.4126   -2.2444    0.4801 C   0  0  0  0  0  0  0  0  0  0  0  0
   -0.4686   -2.9534    0.8001 O   0  0  0  0  0  0  0  0  0  0  0  0
   -1.2736   -0.9704    0.1241 N   0  0  0  0  0  0  0  0  0  0  0  0
   -2.0996   -0.4354   -0.1019 H   0  0  0  0  0  0  0  0  0  0  0  0
   -0.0016   -0.2394    0.1271 C   0  0  1  0  0  0  0  0  0  0  0  0
    0.7164   -0.7963    0.7332 H   0  0  0  0  0  0  0  0  0  0  0  0
    0.5351   -0.1414   -1.3146 C   0  0  0  0  0  0  0  0  0  0  0  0
   -0.2587   -0.4019   -2.0159 H   0  0  0  0  0  0  0  0  0  0  0  0
    0.8430    0.8838   -1.5229 H   0  0  0  0  0  0  0  0  0  0  0  0
    1.7031   -1.0828   -1.5927 C   0  0  0  0  0  0  0  0  0  0  0  0
    2.8776   -0.7520   -1.6888 O   0  0  0  0  0  0  0  0  0  0  0  0
    1.3619   -2.3760   -1.7455 O   0  0  0  0  0  0  0  0  0  0  0  0
    2.1820   -2.8482   -1.8924 H   0  0  0  0  0  0  0  0  0  0  0  0
   -0.1923    1.1526    0.7617 C   0  0  0  0  0  0  0  0  0  0  0  0
   -1.1582    1.8438    0.4410 O   0  0  0  0  0  0  0  0  0  0  0  0
    0.7203    1.5683    1.6472 N   0  0  0  0  0  0  0  0  0  0  0  0
    1.5210    0.9664    1.8100 H   0  0  0  0  0  0  0  0  0  0  0  0
    0.6747    2.8558    2.3368 C   0  0  0  0  0  0  0  0  0  0  0  0
   -0.3018    2.9877    2.8079 H   0  0  0  0  0  0  0  0  0  0  0  0
    1.4516    2.8997    3.1011 H   0  0  0  0  0  0  0  0  0  0  0  0
    0.8279    3.6639    1.6193 H   0  0  0  0  0  0  0  0  0  0  0  0
  5  6  2  0  0  0  0
  5  7  1  0  0  0  0
  2  3  1  0  0  0  0
  2  4  1  0  0  0  0
  2  5  1  0  0  0  0
  1  2  1  0  0  0  0
 18 19  2  0  0  0  0
 18 20  1  0  0  0  0
 16 17  1  0  0  0  0
 14 15  2  0  0  0  0
 14 16  1  0  0  0  0
 11 12  1  0  0  0  0
 11 13  1  0  0  0  0
 11 14  1  0  0  0  0
  9 10  1  0  0  0  0
  9 11  1  0  0  0  0
  9 18  1  0  0  0  0
  7  8  1  0  0  0  0
  7  9  1  0  0  0  0
 22 23  1  0  0  0  0
 22 24  1  0  0  0  0
 22 25  1  0  0  0  0
 20 21  1  0  0  0  0
 20 22  1  0  0  0  0
M  END
$$$$
default_name
  -OEChem-02102213163D

 25 24  0     1  0  0  0  0  0999 V2000
   -2.7826   -3.8464    0.7821 H   0  0  0  0  0  0  0  0  0  0  0  0
   -2.8156   -2.8034    0.4711 C   0  0  0  0  0  0  0  0  0  0  0  0
   -3.4336   -2.2354    1.1641 H   0  0  0  0  0  0  0  0  0  0  0  0
   -3.2256   -2.7344   -0.5349 H   0  0  0  0  0  0  0  0  0  0  0  0
   -1.4126   -2.2444    0.4801 C   0  0  0  0  0  0  0  0  0  0  0  0
   -0.4686   -2.9534    0.8001 O   0  0  0  0  0  0  0  0  0  0  0  0
   -1.2736   -0.9704    0.1241 N   0  0  0  0  0  0  0  0  0  0  0  0
   -2.0996   -0.4354   -0.1019 H   0  0  0  0  0  0  0  0  0  0  0  0
   -0.0016   -0.2394    0.1271 C   0  0  1  0  0  0  0  0  0  0  0  0
    0.7164   -0.7963    0.7332 H   0  0  0  0  0  0  0  0  0  0  0  0
    0.5351   -0.1414   -1.3146 C   0  0  0  0  0  0  0  0  0  0  0  0
   -0.2587   -0.4019   -2.0159 H   0  0  0  0  0  0  0  0  0  0  0  0
    0.8430    0.8838   -1.5229 H   0  0  0  0  0  0  0  0  0  0  0  0
    1.7031   -1.0828   -1.5927 C   0  0  0  0  0  0  0  0  0  0  0  0
    2.8871   -0.8146   -1.4368 O   0  0  0  0  0  0  0  0  0  0  0  0
    1.3516   -2.2974   -2.0545 O   0  0  0  0  0  0  0  0  0  0  0  0
    2.1697   -2.7830   -2.1649 H   0  0  0  0  0  0  0  0  0  0  0  0
   -0.1923    1.1526    0.7617 C   0  0  0  0  0  0  0  0  0  0  0  0
   -1.1582    1.8438    0.4410 O   0  0  0  0  0  0  0  0  0  0  0  0
    0.7203    1.5683    1.6472 N   0  0  0  0  0  0  0  0  0  0  0  0
    1.5210    0.9664    1.8100 H   0  0  0  0  0  0  0  0  0  0  0  0
    0.6747    2.8558    2.3368 C   0  0  0  0  0  0  0  0  0  0  0  0
   -0.3018    2.9877    2.8079 H   0  0  0  0  0  0  0  0  0  0  0  0
    1.4516    2.8997    3.1011 H   0  0  0  0  0  0  0  0  0  0  0  0
    0.8279    3.6639    1.6193 H   0  0  0  0  0  0  0  0  0  0  0  0
  5  6  2  0  0  0  0
  5  7  1  0  0  0  0
  2  3  1  0  0  0  0
  2  4  1  0  0  0  0
  2  5  1  0  0  0  0
  1  2  1  0  0  0  0
 18 19  2  0  0  0  0
 18 20  1  0  0  0  0
 16 17  1  0  0  0  0
 14 15  2  0  0  0  0
 14 16  1  0  0  0  0
 11 12  1  0  0  0  0
 11 13  1  0  0  0  0
 11 14  1  0  0  0  0
  9 10  1  0  0  0  0
  9 11  1  0  0  0  0
  9 18  1  0  0  0  0
  7  8  1  0  0  0  0
  7  9  1  0  0  0  0
 22 23  1  0  0  0  0
 22 24  1  0  0  0  0
 22 25  1  0  0  0  0
 20 21  1  0  0  0  0
 20 22  1  0  0  0  0
M  END
$$$$
default_name
  -OEChem-02102213163D

 25 24  0     1  0  0  0  0  0999 V2000
   -2.7826   -3.8464    0.7821 H   0  0  0  0  0  0  0  0  0  0  0  0
   -2.8156   -2.8034    0.4711 C   0  0  0  0  0  0  0  0  0  0  0  0
   -3.4336   -2.2354    1.1641 H   0  0  0  0  0  0  0  0  0  0  0  0
   -3.2256   -2.7344   -0.5349 H   0  0  0  0  0  0  0  0  0  0  0  0
   -1.4126   -2.2444    0.4801 C   0  0  0  0  0  0  0  0  0  0  0  0
   -0.4686   -2.9534    0.8001 O   0  0  0  0  0  0  0  0  0  0  0  0
   -1.2736   -0.9704    0.1241 N   0  0  0  0  0  0  0  0  0  0  0  0
   -2.0996   -0.4354   -0.1019 H   0  0  0  0  0  0  0  0  0  0  0  0
   -0.0016   -0.2394    0.1271 C   0  0  1  0  0  0  0  0  0  0  0  0
    0.7164   -0.7963    0.7332 H   0  0  0  0  0  0  0  0  0  0  0  0
    0.5351   -0.1414   -1.3146 C   0  0  0  0  0  0  0  0  0  0  0  0
   -0.2587   -0.4019   -2.0159 H   0  0  0  0  0  0  0  0  0  0  0  0
    0.8430    0.8838   -1.5229 H   0  0  0  0  0  0  0  0  0  0  0  0
    1.7031   -1.0828   -1.5927 C   0  0  0  0  0  0  0  0  0  0  0  0
    2.8531   -0.9255   -1.2043 O   0  0  0  0  0  0  0  0  0  0  0  0
    1.3948   -2.1598   -2.3391 O   0  0  0  0  0  0  0  0  0  0  0  0
    2.2043   -2.6655   -2.4171 H   0  0  0  0  0  0  0  0  0  0  0  0
   -0.1923    1.1526    0.7617 C   0  0  0  0  0  0  0  0  0  0  0  0
   -1.1582    1.8438    0.4410 O   0  0  0  0  0  0  0  0  0  0  0  0
    0.7203    1.5683    1.6472 N   0  0  0  0  0  0  0  0  0  0  0  0
    1.5210    0.9664    1.8100 H   0  0  0  0  0  0  0  0  0  0  0  0
    0.6747    2.8558    2.3368 C   0  0  0  0  0  0  0  0  0  0  0  0
   -0.3018    2.9877    2.8079 H   0  0  0  0  0  0  0  0  0  0  0  0
    1.4516    2.8997    3.1011 H   0  0  0  0  0  0  0  0  0  0  0  0
    0.8279    3.6639    1.6193 H   0  0  0  0  0  0  0  0  0  0  0  0
  5  6  2  0  0  0  0
  5  7  1  0  0  0  0
  2  3  1  0  0  0  0
  2  4  1  0  0  0  0
  2  5  1  0  0  0  0
  1  2  1  0  0  0  0
 18 19  2  0  0  0  0
 18 20  1  0  0  0  0
 16 17  1  0  0  0  0
 14 15  2  0  0  0  0
 14 16  1  0  0  0  0
 11 12  1  0  0  0  0
 11 13  1  0  0  0  0
 11 14  1  0  0  0  0
  9 10  1  0  0  0  0
  9 11  1  0  0  0  0
  9 18  1  0  0  0  0
  7  8  1  0  0  0  0
  7  9  1  0  0  0  0
 22 23  1  0  0  0  0
 22 24  1  0  0  0  0
 22 25  1  0  0  0  0
 20 21  1  0  0  0  0
 20 22  1  0  0  0  0
M  END
$$$$
default_name
  -OEChem-02102213163D

 25 24  0     1  0  0  0  0  0999 V2000
   -2.7826   -3.8464    0.7821 H   0  0  0  0  0  0  0  0  0  0  0  0
   -2.8156   -2.8034    0.4711 C   0  0  0  0  0  0  0  0  0  0  0  0
   -3.4336   -2.2354    1.1641 H   0  0  0  0  0  0  0  0  0  0  0  0
   -3.2256   -2.7344   -0.5349 H   0  0  0  0  0  0  0  0  0  0  0  0
   -1.4126   -2.2444    0.4801 C   0  0  0  0  0  0  0  0  0  0  0  0
   -0.4686   -2.9534    0.8001 O   0  0  0  0  0  0  0  0  0  0  0  0
   -1.2736   -0.9704    0.1241 N   0  0  0  0  0  0  0  0  0  0  0  0
   -2.0996   -0.4354   -0.1019 H   0  0  0  0  0  0  0  0  0  0  0  0
   -0.0016   -0.2394    0.1271 C   0  0  1  0  0  0  0  0  0  0  0  0
    0.7164   -0.7963    0.7332 H   0  0  0  0  0  0  0  0  0  0  0  0
    0.5351   -0.1414   -1.3146 C   0  0  0  0  0  0  0  0  0  0  0  0
   -0.2587   -0.4019   -2.0159 H   0  0  0  0  0  0  0  0  0  0  0  0
    0.8430    0.8838   -1.5229 H   0  0  0  0  0  0  0  0  0  0  0  0
    1.7031   -1.0828   -1.5927 C   0  0  0  0  0  0  0  0  0  0  0  0
    2.7779   -1.0770   -1.0071 O   0  0  0  0  0  0  0  0  0  0  0  0
    1.4884   -1.9726   -2.5798 O   0  0  0  0  0  0  0  0  0  0  0  0
    2.2836   -2.5037   -2.6320 H   0  0  0  0  0  0  0  0  0  0  0  0
   -0.1923    1.1526    0.7617 C   0  0  0  0  0  0  0  0  0  0  0  0
   -1.1582    1.8438    0.4410 O   0  0  0  0  0  0  0  0  0  0  0  0
    0.7203    1.5683    1.6472 N   0  0  0  0  0  0  0  0  0  0  0  0
    1.5210    0.9664    1.8100 H   0  0  0  0  0  0  0  0  0  0  0  0
    0.6747    2.8558    2.3368 C   0  0  0  0  0  0  0  0  0  0  0  0
   -0.3018    2.9877    2.8079 H   0  0  0  0  0  0  0  0  0  0  0  0
    1.4516    2.8997    3.1011 H   0  0  0  0  0  0  0  0  0  0  0  0
    0.8279    3.6639    1.6193 H   0  0  0  0  0  0  0  0  0  0  0  0
  5  6  2  0  0  0  0
  5  7  1  0  0  0  0
  2  3  1  0  0  0  0
  2  4  1  0  0  0  0
  2  5  1  0  0  0  0
  1  2  1  0  0  0  0
 18 19  2  0  0  0  0
 18 20  1  0  0  0  0
 16 17  1  0  0  0  0
 14 15  2  0  0  0  0
 14 16  1  0  0  0  0
 11 12  1  0  0  0  0
 11 13  1  0  0  0  0
 11 14  1  0  0  0  0
  9 10  1  0  0  0  0
  9 11  1  0  0  0  0
  9 18  1  0  0  0  0
  7  8  1  0  0  0  0
  7  9  1  0  0  0  0
 22 23  1  0  0  0  0
 22 24  1  0  0  0  0
 22 25  1  0  0  0  0
 20 21  1  0  0  0  0
 20 22  1  0  0  0  0
M  END
$$$$
default_name
  -OEChem-02102213163D

 25 24  0     1  0  0  0  0  0999 V2000
   -2.7826   -3.8464    0.7821 H   0  0  0  0  0  0  0  0  0  0  0  0
   -2.8156   -2.8034    0.4711 C   0  0  0  0  0  0  0  0  0  0  0  0
   -3.4336   -2.2354    1.1641 H   0  0  0  0  0  0  0  0  0  0  0  0
   -3.2256   -2.7344   -0.5349 H   0  0  0  0  0  0  0  0  0  0  0  0
   -1.4126   -2.2444    0.4801 C   0  0  0  0  0  0  0  0  0  0  0  0
   -0.4686   -2.9534    0.8001 O   0  0  0  0  0  0  0  0  0  0  0  0
   -1.2736   -0.9704    0.1241 N   0  0  0  0  0  0  0  0  0  0  0  0
   -2.0996   -0.4354   -0.1019 H   0  0  0  0  0  0  0  0  0  0  0  0
   -0.0016   -0.2394    0.1271 C   0  0  1  0  0  0  0  0  0  0  0  0
    0.7164   -0.7963    0.7332 H   0  0  0  0  0  0  0  0  0  0  0  0
    0.5351   -0.1414   -1.3146 C   0  0  0  0  0  0  0  0  0  0  0  0
   -0.2587   -0.4019   -2.0159 H   0  0  0  0  0  0  0  0  0  0  0  0
    0.8430    0.8838   -1.5229 H   0  0  0  0  0  0  0  0  0  0  0  0
    1.7031   -1.0828   -1.5927 C   0  0  0  0  0  0  0  0  0  0  0  0
    2.6666   -1.2590   -0.8587 O   0  0  0  0  0  0  0  0  0  0  0  0
    1.6261   -1.7484   -2.7602 O   0  0  0  0  0  0  0  0  0  0  0  0
    2.4022   -2.3085   -2.7947 H   0  0  0  0  0  0  0  0  0  0  0  0
   -0.1923    1.1526    0.7617 C   0  0  0  0  0  0  0  0  0  0  0  0
   -1.1582    1.8438    0.4410 O   0  0  0  0  0  0  0  0  0  0  0  0
    0.7203    1.5683    1.6472 N   0  0  0  0  0  0  0  0  0  0  0  0
    1.5210    0.9664    1.8100 H   0  0  0  0  0  0  0  0  0  0  0  0
    0.6747    2.8558    2.3368 C   0  0  0  0  0  0  0  0  0  0  0  0
   -0.3018    2.9877    2.8079 H   0  0  0  0  0  0  0  0  0  0  0  0
    1.4516    2.8997    3.1011 H   0  0  0  0  0  0  0  0  0  0  0  0
    0.8279    3.6639    1.6193 H   0  0  0  0  0  0  0  0  0  0  0  0
  5  6  2  0  0  0  0
  5  7  1  0  0  0  0
  2  3  1  0  0  0  0
  2  4  1  0  0  0  0
  2  5  1  0  0  0  0
  1  2  1  0  0  0  0
 18 19  2  0  0  0  0
 18 20  1  0  0  0  0
 16 17  1  0  0  0  0
 14 15  2  0  0  0  0
 14 16  1  0  0  0  0
 11 12  1  0  0  0  0
 11 13  1  0  0  0  0
 11 14  1  0  0  0  0
  9 10  1  0  0  0  0
  9 11  1  0  0  0  0
  9 18  1  0  0  0  0
  7  8  1  0  0  0  0
  7  9  1  0  0  0  0
 22 23  1  0  0  0  0
 22 24  1  0  0  0  0
 22 25  1  0  0  0  0
 20 21  1  0  0  0  0
 20 22  1  0  0  0  0
M  END
$$$$
default_name
  -OEChem-02102213163D

 25 24  0     1  0  0  0  0  0999 V2000
   -2.7826   -3.8464    0.7821 H   0  0  0  0  0  0  0  0  0  0  0  0
   -2.8156   -2.8034    0.4711 C   0  0  0  0  0  0  0  0  0  0  0  0
   -3.4336   -2.2354    1.1641 H   0  0  0  0  0  0  0  0  0  0  0  0
   -3.2256   -2.7344   -0.5349 H   0  0  0  0  0  0  0  0  0  0  0  0
   -1.4126   -2.2444    0.4801 C   0  0  0  0  0  0  0  0  0  0  0  0
   -0.4686   -2.9534    0.8001 O   0  0  0  0  0  0  0  0  0  0  0  0
   -1.2736   -0.9704    0.1241 N   0  0  0  0  0  0  0  0  0  0  0  0
   -2.0996   -0.4354   -0.1019 H   0  0  0  0  0  0  0  0  0  0  0  0
   -0.0016   -0.2394    0.1271 C   0  0  1  0  0  0  0  0  0  0  0  0
    0.7164   -0.7963    0.7332 H   0  0  0  0  0  0  0  0  0  0  0  0
    0.5351   -0.1414   -1.3146 C   0  0  0  0  0  0  0  0  0  0  0  0
   -0.2587   -0.4019   -2.0159 H   0  0  0  0  0  0  0  0  0  0  0  0
    0.8430    0.8838   -1.5229 H   0  0  0  0  0  0  0  0  0  0  0  0
    1.7031   -1.0828   -1.5927 C   0  0  0  0  0  0  0  0  0  0  0  0
    2.5269   -1.4588   -0.7692 O   0  0  0  0  0  0  0  0  0  0  0  0
    1.7985   -1.5026   -2.8681 O   0  0  0  0  0  0  0  0  0  0  0  0
    2.5519   -2.0933   -2.8944 H   0  0  0  0  0  0  0  0  0  0  0  0
   -0.1923    1.1526    0.7617 C   0  0  0  0  0  0  0  0  0  0  0  0
   -1.1582    1.8438    0.4410 O   0  0  0  0  0  0  0  0  0  0  0  0
    0.7203    1.5683    1.6472 N   0  0  0  0  0  0  0  0  0  0  0  0
    1.5210    0.9664    1.8100 H   0  0  0  0  0  0  0  0  0  0  0  0
    0.6747    2.8558    2.3368 C   0  0  0  0  0  0  0  0  0  0  0  0
   -0.3018    2.9877    2.8079 H   0  0  0  0  0  0  0  0  0  0  0  0
    1.4516    2.8997    3.1011 H   0  0  0  0  0  0  0  0  0  0  0  0
    0.8279    3.6639    1.6193 H   0  0  0  0  0  0  0  0  0  0  0  0
  5  6  2  0  0  0  0
  5  7  1  0  0  0  0
  2  3  1  0  0  0  0
  2  4  1  0  0  0  0
  2  5  1  0  0  0  0
  1  2  1  0  0  0  0
 18 19  2  0  0  0  0
 18 20  1  0  0  0  0
 16 17  1  0  0  0  0
 14 15  2  0  0  0  0
 14 16  1  0  0  0  0
 11 12  1  0  0  0  0
 11 13  1  0  0  0  0
 11 14  1  0  0  0  0
  9 10  1  0  0  0  0
  9 11  1  0  0  0  0
  9 18  1  0  0  0  0
  7  8  1  0  0  0  0
  7  9  1  0  0  0  0
 22 23  1  0  0  0  0
 22 24  1  0  0  0  0
 22 25  1  0  0  0  0
 20 21  1  0  0  0  0
 20 22  1  0  0  0  0
M  END
$$$$
default_name
  -OEChem-02102213163D

 25 24  0     1  0  0  0  0  0999 V2000
   -2.7826   -3.8464    0.7821 H   0  0  0  0  0  0  0  0  0  0  0  0
   -2.8156   -2.8034    0.4711 C   0  0  0  0  0  0  0  0  0  0  0  0
   -3.4336   -2.2354    1.1641 H   0  0  0  0  0  0  0  0  0  0  0  0
   -3.2256   -2.7344   -0.5349 H   0  0  0  0  0  0  0  0  0  0  0  0
   -1.4126   -2.2444    0.4801 C   0  0  0  0  0  0  0  0  0  0  0  0
   -0.4686   -2.9534    0.8001 O   0  0  0  0  0  0  0  0  0  0  0  0
   -1.2736   -0.9704    0.1241 N   0  0  0  0  0  0  0  0  0  0  0  0
   -2.0996   -0.4354   -0.1019 H   0  0  0  0  0  0  0  0  0  0  0  0
   -0.0016   -0.2394    0.1271 C   0  0  1  0  0  0  0  0  0  0  0  0
    0.7164   -0.7963    0.7332 H   0  0  0  0  0  0  0  0  0  0  0  0
    0.5351   -0.1414   -1.3146 C   0  0  0  0  0  0  0  0  0  0  0  0
   -0.2587   -0.4019   -2.0159 H   0  0  0  0  0  0  0  0  0  0  0  0
    0.8430    0.8838   -1.5229 H   0  0  0  0  0  0  0  0  0  0  0  0
    1.7031   -1.0828   -1.5927 C   0  0  0  0  0  0  0  0  0  0  0  0
    2.3681   -1.6631   -0.7446 O   0  0  0  0  0  0  0  0  0  0  0  0
    1.9938   -1.2520   -2.8961 O   0  0  0  0  0  0  0  0  0  0  0  0
    2.7226   -1.8728   -2.9241 H   0  0  0  0  0  0  0  0  0  0  0  0
   -0.1923    1.1526    0.7617 C   0  0  0  0  0  0  0  0  0  0  0  0
   -1.1582    1.8438    0.4410 O   0  0  0  0  0  0  0  0  0  0  0  0
    0.7203    1.5683    1.6472 N   0  0  0  0  0  0  0  0  0  0  0  0
    1.5210    0.9664    1.8100 H   0  0  0  0  0  0  0  0  0  0  0  0
    0.6747    2.8558    2.3368 C   0  0  0  0  0  0  0  0  0  0  0  0
   -0.3018    2.9877    2.8079 H   0  0  0  0  0  0  0  0  0  0  0  0
    1.4516    2.8997    3.1011 H   0  0  0  0  0  0  0  0  0  0  0  0
    0.8279    3.6639    1.6193 H   0  0  0  0  0  0  0  0  0  0  0  0
  5  6  2  0  0  0  0
  5  7  1  0  0  0  0
  2  3  1  0  0  0  0
  2  4  1  0  0  0  0
  2  5  1  0  0  0  0
  1  2  1  0  0  0  0
 18 19  2  0  0  0  0
 18 20  1  0  0  0  0
 16 17  1  0  0  0  0
 14 15  2  0  0  0  0
 14 16  1  0  0  0  0
 11 12  1  0  0  0  0
 11 13  1  0  0  0  0
 11 14  1  0  0  0  0
  9 10  1  0  0  0  0
  9 11  1  0  0  0  0
  9 18  1  0  0  0  0
  7  8  1  0  0  0  0
  7  9  1  0  0  0  0
 22 23  1  0  0  0  0
 22 24  1  0  0  0  0
 22 25  1  0  0  0  0
 20 21  1  0  0  0  0
 20 22  1  0  0  0  0
M  END
$$$$
default_name
  -OEChem-02102213163D

 25 24  0     1  0  0  0  0  0999 V2000
   -2.7826   -3.8464    0.7821 H   0  0  0  0  0  0  0  0  0  0  0  0
   -2.8156   -2.8034    0.4711 C   0  0  0  0  0  0  0  0  0  0  0  0
   -3.4336   -2.2354    1.1641 H   0  0  0  0  0  0  0  0  0  0  0  0
   -3.2256   -2.7344   -0.5349 H   0  0  0  0  0  0  0  0  0  0  0  0
   -1.4126   -2.2444    0.4801 C   0  0  0  0  0  0  0  0  0  0  0  0
   -0.4686   -2.9534    0.8001 O   0  0  0  0  0  0  0  0  0  0  0  0
   -1.2736   -0.9704    0.1241 N   0  0  0  0  0  0  0  0  0  0  0  0
   -2.0996   -0.4354   -0.1019 H   0  0  0  0  0  0  0  0  0  0  0  0
   -0.0016   -0.2394    0.1271 C   0  0  1  0  0  0  0  0  0  0  0  0
    0.7164   -0.7963    0.7332 H   0  0  0  0  0  0  0  0  0  0  0  0
    0.5351   -0.1414   -1.3146 C   0  0  0  0  0  0  0  0  0  0  0  0
   -0.2587   -0.4019   -2.0159 H   0  0  0  0  0  0  0  0  0  0  0  0
    0.8430    0.8838   -1.5229 H   0  0  0  0  0  0  0  0  0  0  0  0
    1.7031   -1.0828   -1.5927 C   0  0  0  0  0  0  0  0  0  0  0  0
    2.2012   -1.8577   -0.7867 O   0  0  0  0  0  0  0  0  0  0  0  0
    2.1988   -1.0136   -2.8423 O   0  0  0  0  0  0  0  0  0  0  0  0
    2.9026   -1.6619   -2.8818 H   0  0  0  0  0  0  0  0  0  0  0  0
   -0.1923    1.1526    0.7617 C   0  0  0  0  0  0  0  0  0  0  0  0
   -1.1582    1.8438    0.4410 O   0  0  0  0  0  0  0  0  0  0  0  0
    0.7203    1.5683    1.6472 N   0  0  0  0  0  0  0  0  0  0  0  0
    1.5210    0.9664    1.8100 H   0  0  0  0  0  0  0  0  0  0  0  0
    0.6747    2.8558    2.3368 C   0  0  0  0  0  0  0  0  0  0  0  0
   -0.3018    2.9877    2.8079 H   0  0  0  0  0  0  0  0  0  0  0  0
    1.4516    2.8997    3.1011 H   0  0  0  0  0  0  0  0  0  0  0  0
    0.8279    3.6639    1.6193 H   0  0  0  0  0  0  0  0  0  0  0  0
  5  6  2  0  0  0  0
  5  7  1  0  0  0  0
  2  3  1  0  0  0  0
  2  4  1  0  0  0  0
  2  5  1  0  0  0  0
  1  2  1  0  0  0  0
 18 19  2  0  0  0  0
 18 20  1  0  0  0  0
 16 17  1  0  0  0  0
 14 15  2  0  0  0  0
 14 16  1  0  0  0  0
 11 12  1  0  0  0  0
 11 13  1  0  0  0  0
 11 14  1  0  0  0  0
  9 10  1  0  0  0  0
  9 11  1  0  0  0  0
  9 18  1  0  0  0  0
  7  8  1  0  0  0  0
  7  9  1  0  0  0  0
 22 23  1  0  0  0  0
 22 24  1  0  0  0  0
 22 25  1  0  0  0  0
 20 21  1  0  0  0  0
 20 22  1  0  0  0  0
M  END
$$$$
default_name
  -OEChem-02102213163D

 25 24  0     1  0  0  0  0  0999 V2000
   -2.7826   -3.8464    0.7821 H   0  0  0  0  0  0  0  0  0  0  0  0
   -2.8156   -2.8034    0.4711 C   0  0  0  0  0  0  0  0  0  0  0  0
   -3.4336   -2.2354    1.1641 H   0  0  0  0  0  0  0  0  0  0  0  0
   -3.2256   -2.7344   -0.5349 H   0  0  0  0  0  0  0  0  0  0  0  0
   -1.4126   -2.2444    0.4801 C   0  0  0  0  0  0  0  0  0  0  0  0
   -0.4686   -2.9534    0.8001 O   0  0  0  0  0  0  0  0  0  0  0  0
   -1.2736   -0.9704    0.1241 N   0  0  0  0  0  0  0  0  0  0  0  0
   -2.0996   -0.4354   -0.1019 H   0  0  0  0  0  0  0  0  0  0  0  0
   -0.0016   -0.2394    0.1271 C   0  0  1  0  0  0  0  0  0  0  0  0
    0.7164   -0.7963    0.7332 H   0  0  0  0  0  0  0  0  0  0  0  0
    0.5351   -0.1414   -1.3146 C   0  0  0  0  0  0  0  0  0  0  0  0
   -0.2587   -0.4019   -2.0159 H   0  0  0  0  0  0  0  0  0  0  0  0
    0.8430    0.8838   -1.5229 H   0  0  0  0  0  0  0  0  0  0  0  0
    1.7031   -1.0828   -1.5927 C   0  0  0  0  0  0  0  0  0  0  0  0
    2.0376   -2.0295   -0.8926 O   0  0  0  0  0  0  0  0  0  0  0  0
    2.3994   -0.8036   -2.7104 O   0  0  0  0  0  0  0  0  0  0  0  0
    3.0796   -1.4751   -2.7704 H   0  0  0  0  0  0  0  0  0  0  0  0
   -0.1923    1.1526    0.7617 C   0  0  0  0  0  0  0  0  0  0  0  0
   -1.1582    1.8438    0.4410 O   0  0  0  0  0  0  0  0  0  0  0  0
    0.7203    1.5683    1.6472 N   0  0  0  0  0  0  0  0  0  0  0  0
    1.5210    0.9664    1.8100 H   0  0  0  0  0  0  0  0  0  0  0  0
    0.6747    2.8558    2.3368 C   0  0  0  0  0  0  0  0  0  0  0  0
   -0.3018    2.9877    2.8079 H   0  0  0  0  0  0  0  0  0  0  0  0
    1.4516    2.8997    3.1011 H   0  0  0  0  0  0  0  0  0  0  0  0
    0.8279    3.6639    1.6193 H   0  0  0  0  0  0  0  0  0  0  0  0
  5  6  2  0  0  0  0
  5  7  1  0  0  0  0
  2  3  1  0  0  0  0
  2  4  1  0  0  0  0
  2  5  1  0  0  0  0
  1  2  1  0  0  0  0
 18 19  2  0  0  0  0
 18 20  1  0  0  0  0
 16 17  1  0  0  0  0
 14 15  2  0  0  0  0
 14 16  1  0  0  0  0
 11 12  1  0  0  0  0
 11 13  1  0  0  0  0
 11 14  1  0  0  0  0
  9 10  1  0  0  0  0
  9 11  1  0  0  0  0
  9 18  1  0  0  0  0
  7  8  1  0  0  0  0
  7  9  1  0  0  0  0
 22 23  1  0  0  0  0
 22 24  1  0  0  0  0
 22 25  1  0  0  0  0
 20 21  1  0  0  0  0
 20 22  1  0  0  0  0
M  END
$$$$
default_name
  -OEChem-02102213163D

 25 24  0     1  0  0  0  0  0999 V2000
   -2.7826   -3.8464    0.7821 H   0  0  0  0  0  0  0  0  0  0  0  0
   -2.8156   -2.8034    0.4711 C   0  0  0  0  0  0  0  0  0  0  0  0
   -3.4336   -2.2354    1.1641 H   0  0  0  0  0  0  0  0  0  0  0  0
   -3.2256   -2.7344   -0.5349 H   0  0  0  0  0  0  0  0  0  0  0  0
   -1.4126   -2.2444    0.4801 C   0  0  0  0  0  0  0  0  0  0  0  0
   -0.4686   -2.9534    0.8001 O   0  0  0  0  0  0  0  0  0  0  0  0
   -1.2736   -0.9704    0.1241 N   0  0  0  0  0  0  0  0  0  0  0  0
   -2.0996   -0.4354   -0.1019 H   0  0  0  0  0  0  0  0  0  0  0  0
   -0.0016   -0.2394    0.1271 C   0  0  1  0  0  0  0  0  0  0  0  0
    0.7164   -0.7963    0.7332 H   0  0  0  0  0  0  0  0  0  0  0  0
    0.5351   -0.1414   -1.3146 C   0  0  0  0  0  0  0  0  0  0  0  0
   -0.2587   -0.4019   -2.0159 H   0  0  0  0  0  0  0  0  0  0  0  0
    0.8430    0.8838   -1.5229 H   0  0  0  0  0  0  0  0  0  0  0  0
    1.7031   -1.0828   -1.5927 C   0  0  0  0  0  0  0  0  0  0  0  0
    1.8883   -2.1667   -1.0550 O   0  0  0  0  0  0  0  0  0  0  0  0
    2.5821   -0.6364   -2.5093 O   0  0  0  0  0  0  0  0  0  0  0  0
    3.2417   -1.3251   -2.5976 H   0  0  0  0  0  0  0  0  0  0  0  0
   -0.1923    1.1526    0.7617 C   0  0  0  0  0  0  0  0  0  0  0  0
   -1.1582    1.8438    0.4410 O   0  0  0  0  0  0  0  0  0  0  0  0
    0.7203    1.5683    1.6472 N   0  0  0  0  0  0  0  0  0  0  0  0
    1.5210    0.9664    1.8100 H   0  0  0  0  0  0  0  0  0  0  0  0
    0.6747    2.8558    2.3368 C   0  0  0  0  0  0  0  0  0  0  0  0
   -0.3018    2.9877    2.8079 H   0  0  0  0  0  0  0  0  0  0  0  0
    1.4516    2.8997    3.1011 H   0  0  0  0  0  0  0  0  0  0  0  0
    0.8279    3.6639    1.6193 H   0  0  0  0  0  0  0  0  0  0  0  0
  5  6  2  0  0  0  0
  5  7  1  0  0  0  0
  2  3  1  0  0  0  0
  2  4  1  0  0  0  0
  2  5  1  0  0  0  0
  1  2  1  0  0  0  0
 18 19  2  0  0  0  0
 18 20  1  0  0  0  0
 16 17  1  0  0  0  0
 14 15  2  0  0  0  0
 14 16  1  0  0  0  0
 11 12  1  0  0  0  0
 11 13  1  0  0  0  0
 11 14  1  0  0  0  0
  9 10  1  0  0  0  0
  9 11  1  0  0  0  0
  9 18  1  0  0  0  0
  7  8  1  0  0  0  0
  7  9  1  0  0  0  0
 22 23  1  0  0  0  0
 22 24  1  0  0  0  0
 22 25  1  0  0  0  0
 20 21  1  0  0  0  0
 20 22  1  0  0  0  0
M  END
$$$$
default_name
  -OEChem-02102213163D

 25 24  0     1  0  0  0  0  0999 V2000
   -2.7826   -3.8464    0.7821 H   0  0  0  0  0  0  0  0  0  0  0  0
   -2.8156   -2.8034    0.4711 C   0  0  0  0  0  0  0  0  0  0  0  0
   -3.4336   -2.2354    1.1641 H   0  0  0  0  0  0  0  0  0  0  0  0
   -3.2256   -2.7344   -0.5349 H   0  0  0  0  0  0  0  0  0  0  0  0
   -1.4126   -2.2444    0.4801 C   0  0  0  0  0  0  0  0  0  0  0  0
   -0.4686   -2.9534    0.8001 O   0  0  0  0  0  0  0  0  0  0  0  0
   -1.2736   -0.9704    0.1241 N   0  0  0  0  0  0  0  0  0  0  0  0
   -2.0996   -0.4354   -0.1019 H   0  0  0  0  0  0  0  0  0  0  0  0
   -0.0016   -0.2394    0.1271 C   0  0  1  0  0  0  0  0  0  0  0  0
    0.7164   -0.7963    0.7332 H   0  0  0  0  0  0  0  0  0  0  0  0
    0.5351   -0.1414   -1.3146 C   0  0  0  0  0  0  0  0  0  0  0  0
   -0.2587   -0.4019   -2.0159 H   0  0  0  0  0  0  0  0  0  0  0  0
    0.8430    0.8838   -1.5229 H   0  0  0  0  0  0  0  0  0  0  0  0
    1.7031   -1.0828   -1.5927 C   0  0  0  0  0  0  0  0  0  0  0  0
    1.7635   -2.2600   -1.2629 O   0  0  0  0  0  0  0  0  0  0  0  0
    2.7343   -0.5233   -2.2527 O   0  0  0  0  0  0  0  0  0  0  0  0
    3.3777   -1.2221   -2.3750 H   0  0  0  0  0  0  0  0  0  0  0  0
   -0.1923    1.1526    0.7617 C   0  0  0  0  0  0  0  0  0  0  0  0
   -1.1582    1.8438    0.4410 O   0  0  0  0  0  0  0  0  0  0  0  0
    0.7203    1.5683    1.6472 N   0  0  0  0  0  0  0  0  0  0  0  0
    1.5210    0.9664    1.8100 H   0  0  0  0  0  0  0  0  0  0  0  0
    0.6747    2.8558    2.3368 C   0  0  0  0  0  0  0  0  0  0  0  0
   -0.3018    2.9877    2.8079 H   0  0  0  0  0  0  0  0  0  0  0  0
    1.4516    2.8997    3.1011 H   0  0  0  0  0  0  0  0  0  0  0  0
    0.8279    3.6639    1.6193 H   0  0  0  0  0  0  0  0  0  0  0  0
  5  6  2  0  0  0  0
  5  7  1  0  0  0  0
  2  3  1  0  0  0  0
  2  4  1  0  0  0  0
  2  5  1  0  0  0  0
  1  2  1  0  0  0  0
 18 19  2  0  0  0  0
 18 20  1  0  0  0  0
 16 17  1  0  0  0  0
 14 15  2  0  0  0  0
 14 16  1  0  0  0  0
 11 12  1  0  0  0  0
 11 13  1  0  0  0  0
 11 14  1  0  0  0  0
  9 10  1  0  0  0  0
  9 11  1  0  0  0  0
  9 18  1  0  0  0  0
  7  8  1  0  0  0  0
  7  9  1  0  0  0  0
 22 23  1  0  0  0  0
 22 24  1  0  0  0  0
 22 25  1  0  0  0  0
 20 21  1  0  0  0  0
 20 22  1  0  0  0  0
M  END
$$$$
default_name
  -OEChem-02102213163D

 25 24  0     1  0  0  0  0  0999 V2000
   -2.7826   -3.8464    0.7821 H   0  0  0  0  0  0  0  0  0  0  0  0
   -2.8156   -2.8034    0.4711 C   0  0  0  0  0  0  0  0  0  0  0  0
   -3.4336   -2.2354    1.1641 H   0  0  0  0  0  0  0  0  0  0  0  0
   -3.2256   -2.7344   -0.5349 H   0  0  0  0  0  0  0  0  0  0  0  0
   -1.4126   -2.2444    0.4801 C   0  0  0  0  0  0  0  0  0  0  0  0
   -0.4686   -2.9534    0.8001 O   0  0  0  0  0  0  0  0  0  0  0  0
   -1.2736   -0.9704    0.1241 N   0  0  0  0  0  0  0  0  0  0  0  0
   -2.0996   -0.4354   -0.1019 H   0  0  0  0  0  0  0  0  0  0  0  0
   -0.0016   -0.2394    0.1271 C   0  0  1  0  0  0  0  0  0  0  0  0
    0.7164   -0.7963    0.7332 H   0  0  0  0  0  0  0  0  0  0  0  0
    0.5351   -0.1414   -1.3146 C   0  0  0  0  0  0  0  0  0  0  0  0
   -0.2587   -0.4019   -2.0159 H   0  0  0  0  0  0  0  0  0  0  0  0
    0.8430    0.8838   -1.5229 H   0  0  0  0  0  0  0  0  0  0  0  0
    1.7031   -1.0828   -1.5927 C   0  0  0  0  0  0  0  0  0  0  0  0
    1.6719   -2.3031   -1.5022 O   0  0  0  0  0  0  0  0  0  0  0  0
    2.8457   -0.4722   -1.9582 O   0  0  0  0  0  0  0  0  0  0  0  0
    3.4784   -1.1731   -2.1179 H   0  0  0  0  0  0  0  0  0  0  0  0
   -0.1923    1.1526    0.7617 C   0  0  0  0  0  0  0  0  0  0  0  0
   -1.1582    1.8438    0.4410 O   0  0  0  0  0  0  0  0  0  0  0  0
    0.7203    1.5683    1.6472 N   0  0  0  0  0  0  0  0  0  0  0  0
    1.5210    0.9664    1.8100 H   0  0  0  0  0  0  0  0  0  0  0  0
    0.6747    2.8558    2.3368 C   0  0  0  0  0  0  0  0  0  0  0  0
   -0.3018    2.9877    2.8079 H   0  0  0  0  0  0  0  0  0  0  0  0
    1.4516    2.8997    3.1011 H   0  0  0  0  0  0  0  0  0  0  0  0
    0.8279    3.6639    1.6193 H   0  0  0  0  0  0  0  0  0  0  0  0
  5  6  2  0  0  0  0
  5  7  1  0  0  0  0
  2  3  1  0  0  0  0
  2  4  1  0  0  0  0
  2  5  1  0  0  0  0
  1  2  1  0  0  0  0
 18 19  2  0  0  0  0
 18 20  1  0  0  0  0
 16 17  1  0  0  0  0
 14 15  2  0  0  0  0
 14 16  1  0  0  0  0
 11 12  1  0  0  0  0
 11 13  1  0  0  0  0
 11 14  1  0  0  0  0
  9 10  1  0  0  0  0
  9 11  1  0  0  0  0
  9 18  1  0  0  0  0
  7  8  1  0  0  0  0
  7  9  1  0  0  0  0
 22 23  1  0  0  0  0
 22 24  1  0  0  0  0
 22 25  1  0  0  0  0
 20 21  1  0  0  0  0
 20 22  1  0  0  0  0
M  END
$$$$
default_name
  -OEChem-02102213163D

 25 24  0     1  0  0  0  0  0999 V2000
   -2.7826   -3.8464    0.7821 H   0  0  0  0  0  0  0  0  0  0  0  0
   -2.8156   -2.8034    0.4711 C   0  0  0  0  0  0  0  0  0  0  0  0
   -3.4336   -2.2354    1.1641 H   0  0  0  0  0  0  0  0  0  0  0  0
   -3.2256   -2.7344   -0.5349 H   0  0  0  0  0  0  0  0  0  0  0  0
   -1.4126   -2.2444    0.4801 C   0  0  0  0  0  0  0  0  0  0  0  0
   -0.4686   -2.9534    0.8001 O   0  0  0  0  0  0  0  0  0  0  0  0
   -1.2736   -0.9704    0.1241 N   0  0  0  0  0  0  0  0  0  0  0  0
   -2.0996   -0.4354   -0.1019 H   0  0  0  0  0  0  0  0  0  0  0  0
   -0.0016   -0.2394    0.1271 C   0  0  1  0  0  0  0  0  0  0  0  0
    0.7164   -0.7963    0.7332 H   0  0  0  0  0  0  0  0  0  0  0  0
    0.5351   -0.1414   -1.3146 C   0  0  0  0  0  0  0  0  0  0  0  0
   -0.2587   -0.4019   -2.0159 H   0  0  0  0  0  0  0  0  0  0  0  0
    0.8430    0.8838   -1.5229 H   0  0  0  0  0  0  0  0  0  0  0  0
    1.7031   -1.0828   -1.5927 C   0  0  0  0  0  0  0  0  0  0  0  0
    1.6195   -2.2930   -1.7565 O   0  0  0  0  0  0  0  0  0  0  0  0
    2.9086   -0.4863   -1.6458 O   0  0  0  0  0  0  0  0  0  0  0  0
    3.5369   -1.1815   -1.8438 H   0  0  0  0  0  0  0  0  0  0  0  0
   -0.1923    1.1526    0.7617 C   0  0  0  0  0  0  0  0  0  0  0  0
   -1.1582    1.8438    0.4410 O   0  0  0  0  0  0  0  0  0  0  0  0
    0.7203    1.5683    1.6472 N   0  0  0  0  0  0  0  0  0  0  0  0
    1.5210    0.9664    1.8100 H   0  0  0  0  0  0  0  0  0  0  0  0
    0.6747    2.8558    2.3368 C   0  0  0  0  0  0  0  0  0  0  0  0
   -0.3018    2.9877    2.8079 H   0  0  0  0  0  0  0  0  0  0  0  0
    1.4516    2.8997    3.1011 H   0  0  0  0  0  0  0  0  0  0  0  0
    0.8279    3.6639    1.6193 H   0  0  0  0  0  0  0  0  0  0  0  0
  5  6  2  0  0  0  0
  5  7  1  0  0  0  0
  2  3  1  0  0  0  0
  2  4  1  0  0  0  0
  2  5  1  0  0  0  0
  1  2  1  0  0  0  0
 18 19  2  0  0  0  0
 18 20  1  0  0  0  0
 16 17  1  0  0  0  0
 14 15  2  0  0  0  0
 14 16  1  0  0  0  0
 11 12  1  0  0  0  0
 11 13  1  0  0  0  0
 11 14  1  0  0  0  0
  9 10  1  0  0  0  0
  9 11  1  0  0  0  0
  9 18  1  0  0  0  0
  7  8  1  0  0  0  0
  7  9  1  0  0  0  0
 22 23  1  0  0  0  0
 22 24  1  0  0  0  0
 22 25  1  0  0  0  0
 20 21  1  0  0  0  0
 20 22  1  0  0  0  0
M  END
$$$$
default_name
  -OEChem-02102213163D

 25 24  0     1  0  0  0  0  0999 V2000
   -2.7826   -3.8464    0.7821 H   0  0  0  0  0  0  0  0  0  0  0  0
   -2.8156   -2.8034    0.4711 C   0  0  0  0  0  0  0  0  0  0  0  0
   -3.4336   -2.2354    1.1641 H   0  0  0  0  0  0  0  0  0  0  0  0
   -3.2256   -2.7344   -0.5349 H   0  0  0  0  0  0  0  0  0  0  0  0
   -1.4126   -2.2444    0.4801 C   0  0  0  0  0  0  0  0  0  0  0  0
   -0.4686   -2.9534    0.8001 O   0  0  0  0  0  0  0  0  0  0  0  0
   -1.2736   -0.9704    0.1241 N   0  0  0  0  0  0  0  0  0  0  0  0
   -2.0996   -0.4354   -0.1019 H   0  0  0  0  0  0  0  0  0  0  0  0
   -0.0016   -0.2394    0.1271 C   0  0  1  0  0  0  0  0  0  0  0  0
    0.7164   -0.7963    0.7332 H   0  0  0  0  0  0  0  0  0  0  0  0
    0.5351   -0.1414   -1.3146 C   0  0  0  0  0  0  0  0  0  0  0  0
   -0.2587   -0.4019   -2.0159 H   0  0  0  0  0  0  0  0  0  0  0  0
    0.8430    0.8838   -1.5229 H   0  0  0  0  0  0  0  0  0  0  0  0
    1.7031   -1.0828   -1.5927 C   0  0  0  0  0  0  0  0  0  0  0  0
    1.6100   -2.2303   -2.0085 O   0  0  0  0  0  0  0  0  0  0  0  0
    2.9189   -0.5649   -1.3368 O   0  0  0  0  0  0  0  0  0  0  0  0
    3.5493   -1.2467   -1.5713 H   0  0  0  0  0  0  0  0  0  0  0  0
   -0.1923    1.1526    0.7617 C   0  0  0  0  0  0  0  0  0  0  0  0
   -1.1582    1.8438    0.4410 O   0  0  0  0  0  0  0  0  0  0  0  0
    0.7203    1.5683    1.6472 N   0  0  0  0  0  0  0  0  0  0  0  0
    1.5210    0.9664    1.8100 H   0  0  0  0  0  0  0  0  0  0  0  0
    0.6747    2.8558    2.3368 C   0  0  0  0  0  0  0  0  0  0  0  0
   -0.3018    2.9877    2.8079 H   0  0  0  0  0  0  0  0  0  0  0  0
    1.4516    2.8997    3.1011 H   0  0  0  0  0  0  0  0  0  0  0  0
    0.8279    3.6639    1.6193 H   0  0  0  0  0  0  0  0  0  0  0  0
  5  6  2  0  0  0  0
  5  7  1  0  0  0  0
  2  3  1  0  0  0  0
  2  4  1  0  0  0  0
  2  5  1  0  0  0  0
  1  2  1  0  0  0  0
 18 19  2  0  0  0  0
 18 20  1  0  0  0  0
 16 17  1  0  0  0  0
 14 15  2  0  0  0  0
 14 16  1  0  0  0  0
 11 12  1  0  0  0  0
 11 13  1  0  0  0  0
 11 14  1  0  0  0  0
  9 10  1  0  0  0  0
  9 11  1  0  0  0  0
  9 18  1  0  0  0  0
  7  8  1  0  0  0  0
  7  9  1  0  0  0  0
 22 23  1  0  0  0  0
 22 24  1  0  0  0  0
 22 25  1  0  0  0  0
 20 21  1  0  0  0  0
 20 22  1  0  0  0  0
M  END
$$$$
default_name
  -OEChem-02102213163D

 25 24  0     1  0  0  0  0  0999 V2000
   -2.7826   -3.8464    0.7821 H   0  0  0  0  0  0  0  0  0  0  0  0
   -2.8156   -2.8034    0.4711 C   0  0  0  0  0  0  0  0  0  0  0  0
   -3.4336   -2.2354    1.1641 H   0  0  0  0  0  0  0  0  0  0  0  0
   -3.2256   -2.7344   -0.5349 H   0  0  0  0  0  0  0  0  0  0  0  0
   -1.4126   -2.2444    0.4801 C   0  0  0  0  0  0  0  0  0  0  0  0
   -0.4686   -2.9534    0.8001 O   0  0  0  0  0  0  0  0  0  0  0  0
   -1.2736   -0.9704    0.1241 N   0  0  0  0  0  0  0  0  0  0  0  0
   -2.0996   -0.4354   -0.1019 H   0  0  0  0  0  0  0  0  0  0  0  0
   -0.0016   -0.2394    0.1271 C   0  0  1  0  0  0  0  0  0  0  0  0
    0.7164   -0.7963    0.7332 H   0  0  0  0  0  0  0  0  0  0  0  0
    0.5351   -0.1414   -1.3146 C   0  0  0  0  0  0  0  0  0  0  0  0
   -0.2587   -0.4019   -2.0159 H   0  0  0  0  0  0  0  0  0  0  0  0
    0.8430    0.8838   -1.5229 H   0  0  0  0  0  0  0  0  0  0  0  0
    1.7031   -1.0828   -1.5927 C   0  0  0  0  0  0  0  0  0  0  0  0
    1.6440   -2.1195   -2.2410 O   0  0  0  0  0  0  0  0  0  0  0  0
    2.8757   -0.7025   -1.0522 O   0  0  0  0  0  0  0  0  0  0  0  0
    3.5146   -1.3642   -1.3191 H   0  0  0  0  0  0  0  0  0  0  0  0
   -0.1923    1.1526    0.7617 C   0  0  0  0  0  0  0  0  0  0  0  0
   -1.1582    1.8438    0.4410 O   0  0  0  0  0  0  0  0  0  0  0  0
    0.7203    1.5683    1.6472 N   0  0  0  0  0  0  0  0  0  0  0  0
    1.5210    0.9664    1.8100 H   0  0  0  0  0  0  0  0  0  0  0  0
    0.6747    2.8558    2.3368 C   0  0  0  0  0  0  0  0  0  0  0  0
   -0.3018    2.9877    2.8079 H   0  0  0  0  0  0  0  0  0  0  0  0
    1.4516    2.8997    3.1011 H   0  0  0  0  0  0  0  0  0  0  0  0
    0.8279    3.6639    1.6193 H   0  0  0  0  0  0  0  0  0  0  0  0
  5  6  2  0  0  0  0
  5  7  1  0  0  0  0
  2  3  1  0  0  0  0
  2  4  1  0  0  0  0
  2  5  1  0  0  0  0
  1  2  1  0  0  0  0
 18 19  2  0  0  0  0
 18 20  1  0  0  0  0
 16 17  1  0  0  0  0
 14 15  2  0  0  0  0
 14 16  1  0  0  0  0
 11 12  1  0  0  0  0
 11 13  1  0  0  0  0
 11 14  1  0  0  0  0
  9 10  1  0  0  0  0
  9 11  1  0  0  0  0
  9 18  1  0  0  0  0
  7  8  1  0  0  0  0
  7  9  1  0  0  0  0
 22 23  1  0  0  0  0
 22 24  1  0  0  0  0
 22 25  1  0  0  0  0
 20 21  1  0  0  0  0
 20 22  1  0  0  0  0
M  END
$$$$
default_name
  -OEChem-02102213163D

 25 24  0     1  0  0  0  0  0999 V2000
   -2.7826   -3.8464    0.7821 H   0  0  0  0  0  0  0  0  0  0  0  0
   -2.8156   -2.8034    0.4711 C   0  0  0  0  0  0  0  0  0  0  0  0
   -3.4336   -2.2354    1.1641 H   0  0  0  0  0  0  0  0  0  0  0  0
   -3.2256   -2.7344   -0.5349 H   0  0  0  0  0  0  0  0  0  0  0  0
   -1.4126   -2.2444    0.4801 C   0  0  0  0  0  0  0  0  0  0  0  0
   -0.4686   -2.9534    0.8001 O   0  0  0  0  0  0  0  0  0  0  0  0
   -1.2736   -0.9704    0.1241 N   0  0  0  0  0  0  0  0  0  0  0  0
   -2.0996   -0.4354   -0.1019 H   0  0  0  0  0  0  0  0  0  0  0  0
   -0.0016   -0.2394    0.1271 C   0  0  1  0  0  0  0  0  0  0  0  0
    0.7164   -0.7963    0.7332 H   0  0  0  0  0  0  0  0  0  0  0  0
    0.5351   -0.1414   -1.3146 C   0  0  0  0  0  0  0  0  0  0  0  0
   -0.2587   -0.4019   -2.0159 H   0  0  0  0  0  0  0  0  0  0  0  0
    0.8430    0.8838   -1.5229 H   0  0  0  0  0  0  0  0  0  0  0  0
    1.7031   -1.0828   -1.5927 C   0  0  0  0  0  0  0  0  0  0  0  0
    1.7192   -1.9679   -2.4381 O   0  0  0  0  0  0  0  0  0  0  0  0
    2.7821   -0.8897   -0.8115 O   0  0  0  0  0  0  0  0  0  0  0  0
    3.4353   -1.5260   -1.1042 H   0  0  0  0  0  0  0  0  0  0  0  0
   -0.1923    1.1526    0.7617 C   0  0  0  0  0  0  0  0  0  0  0  0
   -1.1582    1.8438    0.4410 O   0  0  0  0  0  0  0  0  0  0  0  0
    0.7203    1.5683    1.6472 N   0  0  0  0  0  0  0  0  0  0  0  0
    1.5210    0.9664    1.8100 H   0  0  0  0  0  0  0  0  0  0  0  0
    0.6747    2.8558    2.3368 C   0  0  0  0  0  0  0  0  0  0  0  0
   -0.3018    2.9877    2.8079 H   0  0  0  0  0  0  0  0  0  0  0  0
    1.4516    2.8997    3.1011 H   0  0  0  0  0  0  0  0  0  0  0  0
    0.8279    3.6639    1.6193 H   0  0  0  0  0  0  0  0  0  0  0  0
  5  6  2  0  0  0  0
  5  7  1  0  0  0  0
  2  3  1  0  0  0  0
  2  4  1  0  0  0  0
  2  5  1  0  0  0  0
  1  2  1  0  0  0  0
 18 19  2  0  0  0  0
 18 20  1  0  0  0  0
 16 17  1  0  0  0  0
 14 15  2  0  0  0  0
 14 16  1  0  0  0  0
 11 12  1  0  0  0  0
 11 13  1  0  0  0  0
 11 14  1  0  0  0  0
  9 10  1  0  0  0  0
  9 11  1  0  0  0  0
  9 18  1  0  0  0  0
  7  8  1  0  0  0  0
  7  9  1  0  0  0  0
 22 23  1  0  0  0  0
 22 24  1  0  0  0  0
 22 25  1  0  0  0  0
 20 21  1  0  0  0  0
 20 22  1  0  0  0  0
M  END
$$$$
default_name
  -OEChem-02102213163D

 25 24  0     1  0  0  0  0  0999 V2000
   -2.7826   -3.8464    0.7821 H   0  0  0  0  0  0  0  0  0  0  0  0
   -2.8156   -2.8034    0.4711 C   0  0  0  0  0  0  0  0  0  0  0  0
   -3.4336   -2.2354    1.1641 H   0  0  0  0  0  0  0  0  0  0  0  0
   -3.2256   -2.7344   -0.5349 H   0  0  0  0  0  0  0  0  0  0  0  0
   -1.4126   -2.2444    0.4801 C   0  0  0  0  0  0  0  0  0  0  0  0
   -0.4686   -2.9534    0.8001 O   0  0  0  0  0  0  0  0  0  0  0  0
   -1.2736   -0.9704    0.1241 N   0  0  0  0  0  0  0  0  0  0  0  0
   -2.0996   -0.4354   -0.1019 H   0  0  0  0  0  0  0  0  0  0  0  0
   -0.0016   -0.2394    0.1271 C   0  0  1  0  0  0  0  0  0  0  0  0
    0.7164   -0.7963    0.7332 H   0  0  0  0  0  0  0  0  0  0  0  0
    0.5351   -0.1414   -1.3146 C   0  0  0  0  0  0  0  0  0  0  0  0
   -0.2587   -0.4019   -2.0159 H   0  0  0  0  0  0  0  0  0  0  0  0
    0.8430    0.8838   -1.5229 H   0  0  0  0  0  0  0  0  0  0  0  0
    1.7031   -1.0828   -1.5927 C   0  0  0  0  0  0  0  0  0  0  0  0
    1.8305   -1.7860   -2.5865 O   0  0  0  0  0  0  0  0  0  0  0  0
    2.6444   -1.1139   -0.6311 O   0  0  0  0  0  0  0  0  0  0  0  0
    3.3168   -1.7212   -0.9414 H   0  0  0  0  0  0  0  0  0  0  0  0
   -0.1923    1.1526    0.7617 C   0  0  0  0  0  0  0  0  0  0  0  0
   -1.1582    1.8438    0.4410 O   0  0  0  0  0  0  0  0  0  0  0  0
    0.7203    1.5683    1.6472 N   0  0  0  0  0  0  0  0  0  0  0  0
    1.5210    0.9664    1.8100 H   0  0  0  0  0  0  0  0  0  0  0  0
    0.6747    2.8558    2.3368 C   0  0  0  0  0  0  0  0  0  0  0  0
   -0.3018    2.9877    2.8079 H   0  0  0  0  0  0  0  0  0  0  0  0
    1.4516    2.8997    3.1011 H   0  0  0  0  0  0  0  0  0  0  0  0
    0.8279    3.6639    1.6193 H   0  0  0  0  0  0  0  0  0  0  0  0
  5  6  2  0  0  0  0
  5  7  1  0  0  0  0
  2  3  1  0  0  0  0
  2  4  1  0  0  0  0
  2  5  1  0  0  0  0
  1  2  1  0  0  0  0
 18 19  2  0  0  0  0
 18 20  1  0  0  0  0
 16 17  1  0  0  0  0
 14 15  2  0  0  0  0
 14 16  1  0  0  0  0
 11 12  1  0  0  0  0
 11 13  1  0  0  0  0
 11 14  1  0  0  0  0
  9 10  1  0  0  0  0
  9 11  1  0  0  0  0
  9 18  1  0  0  0  0
  7  8  1  0  0  0  0
  7  9  1  0  0  0  0
 22 23  1  0  0  0  0
 22 24  1  0  0  0  0
 22 25  1  0  0  0  0
 20 21  1  0  0  0  0
 20 22  1  0  0  0  0
M  END
$$$$
default_name
  -OEChem-02102213163D

 25 24  0     1  0  0  0  0  0999 V2000
   -2.7826   -3.8464    0.7821 H   0  0  0  0  0  0  0  0  0  0  0  0
   -2.8156   -2.8034    0.4711 C   0  0  0  0  0  0  0  0  0  0  0  0
   -3.4336   -2.2354    1.1641 H   0  0  0  0  0  0  0  0  0  0  0  0
   -3.2256   -2.7344   -0.5349 H   0  0  0  0  0  0  0  0  0  0  0  0
   -1.4126   -2.2444    0.4801 C   0  0  0  0  0  0  0  0  0  0  0  0
   -0.4686   -2.9534    0.8001 O   0  0  0  0  0  0  0  0  0  0  0  0
   -1.2736   -0.9704    0.1241 N   0  0  0  0  0  0  0  0  0  0  0  0
   -2.0996   -0.4354   -0.1019 H   0  0  0  0  0  0  0  0  0  0  0  0
   -0.0016   -0.2394    0.1271 C   0  0  1  0  0  0  0  0  0  0  0  0
    0.7164   -0.7963    0.7332 H   0  0  0  0  0  0  0  0  0  0  0  0
    0.5351   -0.1414   -1.3146 C   0  0  0  0  0  0  0  0  0  0  0  0
   -0.2587   -0.4019   -2.0159 H   0  0  0  0  0  0  0  0  0  0  0  0
    0.8430    0.8838   -1.5229 H   0  0  0  0  0  0  0  0  0  0  0  0
    1.7031   -1.0828   -1.5927 C   0  0  0  0  0  0  0  0  0  0  0  0
    1.9703   -1.5861   -2.6761 O   0  0  0  0  0  0  0  0  0  0  0  0
    2.4720   -1.3597   -0.5232 O   0  0  0  0  0  0  0  0  0  0  0  0
    3.1671   -1.9364   -0.8418 H   0  0  0  0  0  0  0  0  0  0  0  0
   -0.1923    1.1526    0.7617 C   0  0  0  0  0  0  0  0  0  0  0  0
   -1.1582    1.8438    0.4410 O   0  0  0  0  0  0  0  0  0  0  0  0
    0.7203    1.5683    1.6472 N   0  0  0  0  0  0  0  0  0  0  0  0
    1.5210    0.9664    1.8100 H   0  0  0  0  0  0  0  0  0  0  0  0
    0.6747    2.8558    2.3368 C   0  0  0  0  0  0  0  0  0  0  0  0
   -0.3018    2.9877    2.8079 H   0  0  0  0  0  0  0  0  0  0  0  0
    1.4516    2.8997    3.1011 H   0  0  0  0  0  0  0  0  0  0  0  0
    0.8279    3.6639    1.6193 H   0  0  0  0  0  0  0  0  0  0  0  0
  5  6  2  0  0  0  0
  5  7  1  0  0  0  0
  2  3  1  0  0  0  0
  2  4  1  0  0  0  0
  2  5  1  0  0  0  0
  1  2  1  0  0  0  0
 18 19  2  0  0  0  0
 18 20  1  0  0  0  0
 16 17  1  0  0  0  0
 14 15  2  0  0  0  0
 14 16  1  0  0  0  0
 11 12  1  0  0  0  0
 11 13  1  0  0  0  0
 11 14  1  0  0  0  0
  9 10  1  0  0  0  0
  9 11  1  0  0  0  0
  9 18  1  0  0  0  0
  7  8  1  0  0  0  0
  7  9  1  0  0  0  0
 22 23  1  0  0  0  0
 22 24  1  0  0  0  0
 22 25  1  0  0  0  0
 20 21  1  0  0  0  0
 20 22  1  0  0  0  0
M  END
$$$$
default_name
  -OEChem-02102213163D

 25 24  0     1  0  0  0  0  0999 V2000
   -2.7826   -3.8464    0.7821 H   0  0  0  0  0  0  0  0  0  0  0  0
   -2.8156   -2.8034    0.4711 C   0  0  0  0  0  0  0  0  0  0  0  0
   -3.4336   -2.2354    1.1641 H   0  0  0  0  0  0  0  0  0  0  0  0
   -3.2256   -2.7344   -0.5349 H   0  0  0  0  0  0  0  0  0  0  0  0
   -1.4126   -2.2444    0.4801 C   0  0  0  0  0  0  0  0  0  0  0  0
   -0.4686   -2.9534    0.8001 O   0  0  0  0  0  0  0  0  0  0  0  0
   -1.2736   -0.9704    0.1241 N   0  0  0  0  0  0  0  0  0  0  0  0
   -2.0996   -0.4354   -0.1019 H   0  0  0  0  0  0  0  0  0  0  0  0
   -0.0016   -0.2394    0.1271 C   0  0  1  0  0  0  0  0  0  0  0  0
    0.7164   -0.7963    0.7332 H   0  0  0  0  0  0  0  0  0  0  0  0
    0.5351   -0.1414   -1.3146 C   0  0  0  0  0  0  0  0  0  0  0  0
   -0.2587   -0.4019   -2.0159 H   0  0  0  0  0  0  0  0  0  0  0  0
    0.8430    0.8838   -1.5229 H   0  0  0  0  0  0  0  0  0  0  0  0
    1.7031   -1.0828   -1.5927 C   0  0  0  0  0  0  0  0  0  0  0  0
    2.1290   -1.3819   -2.7006 O   0  0  0  0  0  0  0  0  0  0  0  0
    2.2767   -1.6103   -0.4952 O   0  0  0  0  0  0  0  0  0  0  0  0
    2.9964   -2.1569   -0.8121 H   0  0  0  0  0  0  0  0  0  0  0  0
   -0.1923    1.1526    0.7617 C   0  0  0  0  0  0  0  0  0  0  0  0
   -1.1582    1.8438    0.4410 O   0  0  0  0  0  0  0  0  0  0  0  0
    0.7203    1.5683    1.6472 N   0  0  0  0  0  0  0  0  0  0  0  0
    1.5210    0.9664    1.8100 H   0  0  0  0  0  0  0  0  0  0  0  0
    0.6747    2.8558    2.3368 C   0  0  0  0  0  0  0  0  0  0  0  0
   -0.3018    2.9877    2.8079 H   0  0  0  0  0  0  0  0  0  0  0  0
    1.4516    2.8997    3.1011 H   0  0  0  0  0  0  0  0  0  0  0  0
    0.8279    3.6639    1.6193 H   0  0  0  0  0  0  0  0  0  0  0  0
  5  6  2  0  0  0  0
  5  7  1  0  0  0  0
  2  3  1  0  0  0  0
  2  4  1  0  0  0  0
  2  5  1  0  0  0  0
  1  2  1  0  0  0  0
 18 19  2  0  0  0  0
 18 20  1  0  0  0  0
 16 17  1  0  0  0  0
 14 15  2  0  0  0  0
 14 16  1  0  0  0  0
 11 12  1  0  0  0  0
 11 13  1  0  0  0  0
 11 14  1  0  0  0  0
  9 10  1  0  0  0  0
  9 11  1  0  0  0  0
  9 18  1  0  0  0  0
  7  8  1  0  0  0  0
  7  9  1  0  0  0  0
 22 23  1  0  0  0  0
 22 24  1  0  0  0  0
 22 25  1  0  0  0  0
 20 21  1  0  0  0  0
 20 22  1  0  0  0  0
M  END
$$$$
default_name
  -OEChem-02102213163D

 25 24  0     1  0  0  0  0  0999 V2000
   -2.7826   -3.8464    0.7821 H   0  0  0  0  0  0  0  0  0  0  0  0
   -2.8156   -2.8034    0.4711 C   0  0  0  0  0  0  0  0  0  0  0  0
   -3.4336   -2.2354    1.1641 H   0  0  0  0  0  0  0  0  0  0  0  0
   -3.2256   -2.7344   -0.5349 H   0  0  0  0  0  0  0  0  0  0  0  0
   -1.4126   -2.2444    0.4801 C   0  0  0  0  0  0  0  0  0  0  0  0
   -0.4686   -2.9534    0.8001 O   0  0  0  0  0  0  0  0  0  0  0  0
   -1.2736   -0.9704    0.1241 N   0  0  0  0  0  0  0  0  0  0  0  0
   -2.0996   -0.4354   -0.1019 H   0  0  0  0  0  0  0  0  0  0  0  0
   -0.0016   -0.2394    0.1271 C   0  0  1  0  0  0  0  0  0  0  0  0
    0.7164   -0.7963    0.7332 H   0  0  0  0  0  0  0  0  0  0  0  0
    0.5351   -0.1414   -1.3146 C   0  0  0  0  0  0  0  0  0  0  0  0
   -0.3019   -0.1370   -2.0140 H   0  0  0  0  0  0  0  0  0  0  0  0
    1.0816    0.7939   -1.4402 H   0  0  0  0  0  0  0  0  0  0  0  0
    1.4380   -1.3071   -1.7067 C   0  0  0  0  0  0  0  0  0  0  0  0
    1.9820   -1.4528   -2.7934 O   0  0  0  0  0  0  0  0  0  0  0  0
    1.6152   -2.2322   -0.7450 O   0  0  0  0  0  0  0  0  0  0  0  0
    2.2099   -2.8851   -1.1153 H   0  0  0  0  0  0  0  0  0  0  0  0
   -0.1923    1.1526    0.7617 C   0  0  0  0  0  0  0  0  0  0  0  0
   -1.1582    1.8438    0.4410 O   0  0  0  0  0  0  0  0  0  0  0  0
    0.7203    1.5683    1.6472 N   0  0  0  0  0  0  0  0  0  0  0  0
    1.5210    0.9664    1.8100 H   0  0  0  0  0  0  0  0  0  0  0  0
    0.6747    2.8558    2.3368 C   0  0  0  0  0  0  0  0  0  0  0  0
   -0.3018    2.9877    2.8079 H   0  0  0  0  0  0  0  0  0  0  0  0
    1.4516    2.8997    3.1011 H   0  0  0  0  0  0  0  0  0  0  0  0
    0.8279    3.6639    1.6193 H   0  0  0  0  0  0  0  0  0  0  0  0
  5  6  2  0  0  0  0
  5  7  1  0  0  0  0
  2  3  1  0  0  0  0
  2  4  1  0  0  0  0
  2  5  1  0  0  0  0
  1  2  1  0  0  0  0
 18 19  2  0  0  0  0
 18 20  1  0  0  0  0
 16 17  1  0  0  0  0
 14 15  2  0  0  0  0
 14 16  1  0  0  0  0
 11 12  1  0  0  0  0
 11 13  1  0  0  0  0
 11 14  1  0  0  0  0
  9 10  1  0  0  0  0
  9 11  1  0  0  0  0
  9 18  1  0  0  0  0
  7  8  1  0  0  0  0
  7  9  1  0  0  0  0
 22 23  1  0  0  0  0
 22 24  1  0  0  0  0
 22 25  1  0  0  0  0
 20 21  1  0  0  0  0
 20 22  1  0  0  0  0
M  END
$$$$
default_name
  -OEChem-02102213163D

 25 24  0     1  0  0  0  0  0999 V2000
   -2.7826   -3.8464    0.7821 H   0  0  0  0  0  0  0  0  0  0  0  0
   -2.8156   -2.8034    0.4711 C   0  0  0  0  0  0  0  0  0  0  0  0
   -3.4336   -2.2354    1.1641 H   0  0  0  0  0  0  0  0  0  0  0  0
   -3.2256   -2.7344   -0.5349 H   0  0  0  0  0  0  0  0  0  0  0  0
   -1.4126   -2.2444    0.4801 C   0  0  0  0  0  0  0  0  0  0  0  0
   -0.4686   -2.9534    0.8001 O   0  0  0  0  0  0  0  0  0  0  0  0
   -1.2736   -0.9704    0.1241 N   0  0  0  0  0  0  0  0  0  0  0  0
   -2.0996   -0.4354   -0.1019 H   0  0  0  0  0  0  0  0  0  0  0  0
   -0.0016   -0.2394    0.1271 C   0  0  1  0  0  0  0  0  0  0  0  0
    0.7164   -0.7963    0.7332 H   0  0  0  0  0  0  0  0  0  0  0  0
    0.5351   -0.1414   -1.3146 C   0  0  0  0  0  0  0  0  0  0  0  0
   -0.3019   -0.1370   -2.0140 H   0  0  0  0  0  0  0  0  0  0  0  0
    1.0816    0.7939   -1.4402 H   0  0  0  0  0  0  0  0  0  0  0  0
    1.4380   -1.3071   -1.7067 C   0  0  0  0  0  0  0  0  0  0  0  0
    2.1831   -1.3361   -2.6774 O   0  0  0  0  0  0  0  0  0  0  0  0
    1.3689   -2.3744   -0.8893 O   0  0  0  0  0  0  0  0  0  0  0  0
    1.9922   -3.0126   -1.2378 H   0  0  0  0  0  0  0  0  0  0  0  0
   -0.1923    1.1526    0.7617 C   0  0  0  0  0  0  0  0  0  0  0  0
   -1.1582    1.8438    0.4410 O   0  0  0  0  0  0  0  0  0  0  0  0
    0.7203    1.5683    1.6472 N   0  0  0  0  0  0  0  0  0  0  0  0
    1.5210    0.9664    1.8100 H   0  0  0  0  0  0  0  0  0  0  0  0
    0.6747    2.8558    2.3368 C   0  0  0  0  0  0  0  0  0  0  0  0
   -0.3018    2.9877    2.8079 H   0  0  0  0  0  0  0  0  0  0  0  0
    1.4516    2.8997    3.1011 H   0  0  0  0  0  0  0  0  0  0  0  0
    0.8279    3.6639    1.6193 H   0  0  0  0  0  0  0  0  0  0  0  0
  5  6  2  0  0  0  0
  5  7  1  0  0  0  0
  2  3  1  0  0  0  0
  2  4  1  0  0  0  0
  2  5  1  0  0  0  0
  1  2  1  0  0  0  0
 18 19  2  0  0  0  0
 18 20  1  0  0  0  0
 16 17  1  0  0  0  0
 14 15  2  0  0  0  0
 14 16  1  0  0  0  0
 11 12  1  0  0  0  0
 11 13  1  0  0  0  0
 11 14  1  0  0  0  0
  9 10  1  0  0  0  0
  9 11  1  0  0  0  0
  9 18  1  0  0  0  0
  7  8  1  0  0  0  0
  7  9  1  0  0  0  0
 22 23  1  0  0  0  0
 22 24  1  0  0  0  0
 22 25  1  0  0  0  0
 20 21  1  0  0  0  0
 20 22  1  0  0  0  0
M  END
$$$$
default_name
  -OEChem-02102213163D

 25 24  0     1  0  0  0  0  0999 V2000
   -2.7826   -3.8464    0.7821 H   0  0  0  0  0  0  0  0  0  0  0  0
   -2.8156   -2.8034    0.4711 C   0  0  0  0  0  0  0  0  0  0  0  0
   -3.4336   -2.2354    1.1641 H   0  0  0  0  0  0  0  0  0  0  0  0
   -3.2256   -2.7344   -0.5349 H   0  0  0  0  0  0  0  0  0  0  0  0
   -1.4126   -2.2444    0.4801 C   0  0  0  0  0  0  0  0  0  0  0  0
   -0.4686   -2.9534    0.8001 O   0  0  0  0  0  0  0  0  0  0  0  0
   -1.2736   -0.9704    0.1241 N   0  0  0  0  0  0  0  0  0  0  0  0
   -2.0996   -0.4354   -0.1019 H   0  0  0  0  0  0  0  0  0  0  0  0
   -0.0016   -0.2394    0.1271 C   0  0  1  0  0  0  0  0  0  0  0  0
    0.7164   -0.7963    0.7332 H   0  0  0  0  0  0  0  0  0  0  0  0
    0.5351   -0.1414   -1.3146 C   0  0  0  0  0  0  0  0  0  0  0  0
   -0.3019   -0.1370   -2.0140 H   0  0  0  0  0  0  0  0  0  0  0  0
    1.0816    0.7939   -1.4402 H   0  0  0  0  0  0  0  0  0  0  0  0
    1.4380   -1.3071   -1.7067 C   0  0  0  0  0  0  0  0  0  0  0  0
    2.3621   -1.2545   -2.5077 O   0  0  0  0  0  0  0  0  0  0  0  0
    1.1500   -2.4734   -1.0993 O   0  0  0  0  0  0  0  0  0  0  0  0
    1.7977   -3.1025   -1.4186 H   0  0  0  0  0  0  0  0  0  0  0  0
   -0.1923    1.1526    0.7617 C   0  0  0  0  0  0  0  0  0  0  0  0
   -1.1582    1.8438    0.4410 O   0  0  0  0  0  0  0  0  0  0  0  0
    0.7203    1.5683    1.6472 N   0  0  0  0  0  0  0  0  0  0  0  0
    1.5210    0.9664    1.8100 H   0  0  0  0  0  0  0  0  0  0  0  0
    0.6747    2.8558    2.3368 C   0  0  0  0  0  0  0  0  0  0  0  0
   -0.3018    2.9877    2.8079 H   0  0  0  0  0  0  0  0  0  0  0  0
    1.4516    2.8997    3.1011 H   0  0  0  0  0  0  0  0  0  0  0  0
    0.8279    3.6639    1.6193 H   0  0  0  0  0  0  0  0  0  0  0  0
  5  6  2  0  0  0  0
  5  7  1  0  0  0  0
  2  3  1  0  0  0  0
  2  4  1  0  0  0  0
  2  5  1  0  0  0  0
  1  2  1  0  0  0  0
 18 19  2  0  0  0  0
 18 20  1  0  0  0  0
 16 17  1  0  0  0  0
 14 15  2  0  0  0  0
 14 16  1  0  0  0  0
 11 12  1  0  0  0  0
 11 13  1  0  0  0  0
 11 14  1  0  0  0  0
  9 10  1  0  0  0  0
  9 11  1  0  0  0  0
  9 18  1  0  0  0  0
  7  8  1  0  0  0  0
  7  9  1  0  0  0  0
 22 23  1  0  0  0  0
 22 24  1  0  0  0  0
 22 25  1  0  0  0  0
 20 21  1  0  0  0  0
 20 22  1  0  0  0  0
M  END
$$$$
default_name
  -OEChem-02102213163D

 25 24  0     1  0  0  0  0  0999 V2000
   -2.7826   -3.8464    0.7821 H   0  0  0  0  0  0  0  0  0  0  0  0
   -2.8156   -2.8034    0.4711 C   0  0  0  0  0  0  0  0  0  0  0  0
   -3.4336   -2.2354    1.1641 H   0  0  0  0  0  0  0  0  0  0  0  0
   -3.2256   -2.7344   -0.5349 H   0  0  0  0  0  0  0  0  0  0  0  0
   -1.4126   -2.2444    0.4801 C   0  0  0  0  0  0  0  0  0  0  0  0
   -0.4686   -2.9534    0.8001 O   0  0  0  0  0  0  0  0  0  0  0  0
   -1.2736   -0.9704    0.1241 N   0  0  0  0  0  0  0  0  0  0  0  0
   -2.0996   -0.4354   -0.1019 H   0  0  0  0  0  0  0  0  0  0  0  0
   -0.0016   -0.2394    0.1271 C   0  0  1  0  0  0  0  0  0  0  0  0
    0.7164   -0.7963    0.7332 H   0  0  0  0  0  0  0  0  0  0  0  0
    0.5351   -0.1414   -1.3146 C   0  0  0  0  0  0  0  0  0  0  0  0
   -0.3019   -0.1370   -2.0140 H   0  0  0  0  0  0  0  0  0  0  0  0
    1.0816    0.7939   -1.4402 H   0  0  0  0  0  0  0  0  0  0  0  0
    1.4380   -1.3071   -1.7067 C   0  0  0  0  0  0  0  0  0  0  0  0
    2.5068   -1.2136   -2.2959 O   0  0  0  0  0  0  0  0  0  0  0  0
    0.9736   -2.5222   -1.3605 O   0  0  0  0  0  0  0  0  0  0  0  0
    1.6395   -3.1487   -1.6456 H   0  0  0  0  0  0  0  0  0  0  0  0
   -0.1923    1.1526    0.7617 C   0  0  0  0  0  0  0  0  0  0  0  0
   -1.1582    1.8438    0.4410 O   0  0  0  0  0  0  0  0  0  0  0  0
    0.7203    1.5683    1.6472 N   0  0  0  0  0  0  0  0  0  0  0  0
    1.5210    0.9664    1.8100 H   0  0  0  0  0  0  0  0  0  0  0  0
    0.6747    2.8558    2.3368 C   0  0  0  0  0  0  0  0  0  0  0  0
   -0.3018    2.9877    2.8079 H   0  0  0  0  0  0  0  0  0  0  0  0
    1.4516    2.8997    3.1011 H   0  0  0  0  0  0  0  0  0  0  0  0
    0.8279    3.6639    1.6193 H   0  0  0  0  0  0  0  0  0  0  0  0
  5  6  2  0  0  0  0
  5  7  1  0  0  0  0
  2  3  1  0  0  0  0
  2  4  1  0  0  0  0
  2  5  1  0  0  0  0
  1  2  1  0  0  0  0
 18 19  2  0  0  0  0
 18 20  1  0  0  0  0
 16 17  1  0  0  0  0
 14 15  2  0  0  0  0
 14 16  1  0  0  0  0
 11 12  1  0  0  0  0
 11 13  1  0  0  0  0
 11 14  1  0  0  0  0
  9 10  1  0  0  0  0
  9 11  1  0  0  0  0
  9 18  1  0  0  0  0
  7  8  1  0  0  0  0
  7  9  1  0  0  0  0
 22 23  1  0  0  0  0
 22 24  1  0  0  0  0
 22 25  1  0  0  0  0
 20 21  1  0  0  0  0
 20 22  1  0  0  0  0
M  END
$$$$
default_name
  -OEChem-02102213163D

 25 24  0     1  0  0  0  0  0999 V2000
   -2.7826   -3.8464    0.7821 H   0  0  0  0  0  0  0  0  0  0  0  0
   -2.8156   -2.8034    0.4711 C   0  0  0  0  0  0  0  0  0  0  0  0
   -3.4336   -2.2354    1.1641 H   0  0  0  0  0  0  0  0  0  0  0  0
   -3.2256   -2.7344   -0.5349 H   0  0  0  0  0  0  0  0  0  0  0  0
   -1.4126   -2.2444    0.4801 C   0  0  0  0  0  0  0  0  0  0  0  0
   -0.4686   -2.9534    0.8001 O   0  0  0  0  0  0  0  0  0  0  0  0
   -1.2736   -0.9704    0.1241 N   0  0  0  0  0  0  0  0  0  0  0  0
   -2.0996   -0.4354   -0.1019 H   0  0  0  0  0  0  0  0  0  0  0  0
   -0.0016   -0.2394    0.1271 C   0  0  1  0  0  0  0  0  0  0  0  0
    0.7164   -0.7963    0.7332 H   0  0  0  0  0  0  0  0  0  0  0  0
    0.5351   -0.1414   -1.3146 C   0  0  0  0  0  0  0  0  0  0  0  0
   -0.3019   -0.1370   -2.0140 H   0  0  0  0  0  0  0  0  0  0  0  0
    1.0816    0.7939   -1.4402 H   0  0  0  0  0  0  0  0  0  0  0  0
    1.4380   -1.3071   -1.7067 C   0  0  0  0  0  0  0  0  0  0  0  0
    2.6075   -1.2162   -2.0563 O   0  0  0  0  0  0  0  0  0  0  0  0
    0.8515   -2.5176   -1.6552 O   0  0  0  0  0  0  0  0  0  0  0  0
    1.5286   -3.1480   -1.9031 H   0  0  0  0  0  0  0  0  0  0  0  0
   -0.1923    1.1526    0.7617 C   0  0  0  0  0  0  0  0  0  0  0  0
   -1.1582    1.8438    0.4410 O   0  0  0  0  0  0  0  0  0  0  0  0
    0.7203    1.5683    1.6472 N   0  0  0  0  0  0  0  0  0  0  0  0
    1.5210    0.9664    1.8100 H   0  0  0  0  0  0  0  0  0  0  0  0
    0.6747    2.8558    2.3368 C   0  0  0  0  0  0  0  0  0  0  0  0
   -0.3018    2.9877    2.8079 H   0  0  0  0  0  0  0  0  0  0  0  0
    1.4516    2.8997    3.1011 H   0  0  0  0  0  0  0  0  0  0  0  0
    0.8279    3.6639    1.6193 H   0  0  0  0  0  0  0  0  0  0  0  0
  5  6  2  0  0  0  0
  5  7  1  0  0  0  0
  2  3  1  0  0  0  0
  2  4  1  0  0  0  0
  2  5  1  0  0  0  0
  1  2  1  0  0  0  0
 18 19  2  0  0  0  0
 18 20  1  0  0  0  0
 16 17  1  0  0  0  0
 14 15  2  0  0  0  0
 14 16  1  0  0  0  0
 11 12  1  0  0  0  0
 11 13  1  0  0  0  0
 11 14  1  0  0  0  0
  9 10  1  0  0  0  0
  9 11  1  0  0  0  0
  9 18  1  0  0  0  0
  7  8  1  0  0  0  0
  7  9  1  0  0  0  0
 22 23  1  0  0  0  0
 22 24  1  0  0  0  0
 22 25  1  0  0  0  0
 20 21  1  0  0  0  0
 20 22  1  0  0  0  0
M  END
$$$$
default_name
  -OEChem-02102213163D

 25 24  0     1  0  0  0  0  0999 V2000
   -2.7826   -3.8464    0.7821 H   0  0  0  0  0  0  0  0  0  0  0  0
   -2.8156   -2.8034    0.4711 C   0  0  0  0  0  0  0  0  0  0  0  0
   -3.4336   -2.2354    1.1641 H   0  0  0  0  0  0  0  0  0  0  0  0
   -3.2256   -2.7344   -0.5349 H   0  0  0  0  0  0  0  0  0  0  0  0
   -1.4126   -2.2444    0.4801 C   0  0  0  0  0  0  0  0  0  0  0  0
   -0.4686   -2.9534    0.8001 O   0  0  0  0  0  0  0  0  0  0  0  0
   -1.2736   -0.9704    0.1241 N   0  0  0  0  0  0  0  0  0  0  0  0
   -2.0996   -0.4354   -0.1019 H   0  0  0  0  0  0  0  0  0  0  0  0
   -0.0016   -0.2394    0.1271 C   0  0  1  0  0  0  0  0  0  0  0  0
    0.7164   -0.7963    0.7332 H   0  0  0  0  0  0  0  0  0  0  0  0
    0.5351   -0.1414   -1.3146 C   0  0  0  0  0  0  0  0  0  0  0  0
   -0.3019   -0.1370   -2.0140 H   0  0  0  0  0  0  0  0  0  0  0  0
    1.0816    0.7939   -1.4402 H   0  0  0  0  0  0  0  0  0  0  0  0
    1.4380   -1.3071   -1.7067 C   0  0  0  0  0  0  0  0  0  0  0  0
    2.6572   -1.2621   -1.8055 O   0  0  0  0  0  0  0  0  0  0  0  0
    0.7922   -2.4600   -1.9633 O   0  0  0  0  0  0  0  0  0  0  0  0
    1.4724   -3.1006   -2.1737 H   0  0  0  0  0  0  0  0  0  0  0  0
   -0.1923    1.1526    0.7617 C   0  0  0  0  0  0  0  0  0  0  0  0
   -1.1582    1.8438    0.4410 O   0  0  0  0  0  0  0  0  0  0  0  0
    0.7203    1.5683    1.6472 N   0  0  0  0  0  0  0  0  0  0  0  0
    1.5210    0.9664    1.8100 H   0  0  0  0  0  0  0  0  0  0  0  0
    0.6747    2.8558    2.3368 C   0  0  0  0  0  0  0  0  0  0  0  0
   -0.3018    2.9877    2.8079 H   0  0  0  0  0  0  0  0  0  0  0  0
    1.4516    2.8997    3.1011 H   0  0  0  0  0  0  0  0  0  0  0  0
    0.8279    3.6639    1.6193 H   0  0  0  0  0  0  0  0  0  0  0  0
  5  6  2  0  0  0  0
  5  7  1  0  0  0  0
  2  3  1  0  0  0  0
  2  4  1  0  0  0  0
  2  5  1  0  0  0  0
  1  2  1  0  0  0  0
 18 19  2  0  0  0  0
 18 20  1  0  0  0  0
 16 17  1  0  0  0  0
 14 15  2  0  0  0  0
 14 16  1  0  0  0  0
 11 12  1  0  0  0  0
 11 13  1  0  0  0  0
 11 14  1  0  0  0  0
  9 10  1  0  0  0  0
  9 11  1  0  0  0  0
  9 18  1  0  0  0  0
  7  8  1  0  0  0  0
  7  9  1  0  0  0  0
 22 23  1  0  0  0  0
 22 24  1  0  0  0  0
 22 25  1  0  0  0  0
 20 21  1  0  0  0  0
 20 22  1  0  0  0  0
M  END
$$$$
default_name
  -OEChem-02102213163D

 25 24  0     1  0  0  0  0  0999 V2000
   -2.7826   -3.8464    0.7821 H   0  0  0  0  0  0  0  0  0  0  0  0
   -2.8156   -2.8034    0.4711 C   0  0  0  0  0  0  0  0  0  0  0  0
   -3.4336   -2.2354    1.1641 H   0  0  0  0  0  0  0  0  0  0  0  0
   -3.2256   -2.7344   -0.5349 H   0  0  0  0  0  0  0  0  0  0  0  0
   -1.4126   -2.2444    0.4801 C   0  0  0  0  0  0  0  0  0  0  0  0
   -0.4686   -2.9534    0.8001 O   0  0  0  0  0  0  0  0  0  0  0  0
   -1.2736   -0.9704    0.1241 N   0  0  0  0  0  0  0  0  0  0  0  0
   -2.0996   -0.4354   -0.1019 H   0  0  0  0  0  0  0  0  0  0  0  0
   -0.0016   -0.2394    0.1271 C   0  0  1  0  0  0  0  0  0  0  0  0
    0.7164   -0.7963    0.7332 H   0  0  0  0  0  0  0  0  0  0  0  0
    0.5351   -0.1414   -1.3146 C   0  0  0  0  0  0  0  0  0  0  0  0
   -0.3019   -0.1370   -2.0140 H   0  0  0  0  0  0  0  0  0  0  0  0
    1.0816    0.7939   -1.4402 H   0  0  0  0  0  0  0  0  0  0  0  0
    1.4380   -1.3071   -1.7067 C   0  0  0  0  0  0  0  0  0  0  0  0
    2.6526   -1.3481   -1.5604 O   0  0  0  0  0  0  0  0  0  0  0  0
    0.7997   -2.3531   -2.2638 O   0  0  0  0  0  0  0  0  0  0  0  0
    1.4747   -3.0095   -2.4390 H   0  0  0  0  0  0  0  0  0  0  0  0
   -0.1923    1.1526    0.7617 C   0  0  0  0  0  0  0  0  0  0  0  0
   -1.1582    1.8438    0.4410 O   0  0  0  0  0  0  0  0  0  0  0  0
    0.7203    1.5683    1.6472 N   0  0  0  0  0  0  0  0  0  0  0  0
    1.5210    0.9664    1.8100 H   0  0  0  0  0  0  0  0  0  0  0  0
    0.6747    2.8558    2.3368 C   0  0  0  0  0  0  0  0  0  0  0  0
   -0.3018    2.9877    2.8079 H   0  0  0  0  0  0  0  0  0  0  0  0
    1.4516    2.8997    3.1011 H   0  0  0  0  0  0  0  0  0  0  0  0
    0.8279    3.6639    1.6193 H   0  0  0  0  0  0  0  0  0  0  0  0
  5  6  2  0  0  0  0
  5  7  1  0  0  0  0
  2  3  1  0  0  0  0
  2  4  1  0  0  0  0
  2  5  1  0  0  0  0
  1  2  1  0  0  0  0
 18 19  2  0  0  0  0
 18 20  1  0  0  0  0
 16 17  1  0  0  0  0
 14 15  2  0  0  0  0
 14 16  1  0  0  0  0
 11 12  1  0  0  0  0
 11 13  1  0  0  0  0
 11 14  1  0  0  0  0
  9 10  1  0  0  0  0
  9 11  1  0  0  0  0
  9 18  1  0  0  0  0
  7  8  1  0  0  0  0
  7  9  1  0  0  0  0
 22 23  1  0  0  0  0
 22 24  1  0  0  0  0
 22 25  1  0  0  0  0
 20 21  1  0  0  0  0
 20 22  1  0  0  0  0
M  END
$$$$
default_name
  -OEChem-02102213163D

 25 24  0     1  0  0  0  0  0999 V2000
   -2.7826   -3.8464    0.7821 H   0  0  0  0  0  0  0  0  0  0  0  0
   -2.8156   -2.8034    0.4711 C   0  0  0  0  0  0  0  0  0  0  0  0
   -3.4336   -2.2354    1.1641 H   0  0  0  0  0  0  0  0  0  0  0  0
   -3.2256   -2.7344   -0.5349 H   0  0  0  0  0  0  0  0  0  0  0  0
   -1.4126   -2.2444    0.4801 C   0  0  0  0  0  0  0  0  0  0  0  0
   -0.4686   -2.9534    0.8001 O   0  0  0  0  0  0  0  0  0  0  0  0
   -1.2736   -0.9704    0.1241 N   0  0  0  0  0  0  0  0  0  0  0  0
   -2.0996   -0.4354   -0.1019 H   0  0  0  0  0  0  0  0  0  0  0  0
   -0.0016   -0.2394    0.1271 C   0  0  1  0  0  0  0  0  0  0  0  0
    0.7164   -0.7963    0.7332 H   0  0  0  0  0  0  0  0  0  0  0  0
    0.5351   -0.1414   -1.3146 C   0  0  0  0  0  0  0  0  0  0  0  0
   -0.3019   -0.1370   -2.0140 H   0  0  0  0  0  0  0  0  0  0  0  0
    1.0816    0.7939   -1.4402 H   0  0  0  0  0  0  0  0  0  0  0  0
    1.4380   -1.3071   -1.7067 C   0  0  0  0  0  0  0  0  0  0  0  0
    2.5939   -1.4684   -1.3377 O   0  0  0  0  0  0  0  0  0  0  0  0
    0.8734   -2.2044   -2.5362 O   0  0  0  0  0  0  0  0  0  0  0  0
    1.5355   -2.8811   -2.6807 H   0  0  0  0  0  0  0  0  0  0  0  0
   -0.1923    1.1526    0.7617 C   0  0  0  0  0  0  0  0  0  0  0  0
   -1.1582    1.8438    0.4410 O   0  0  0  0  0  0  0  0  0  0  0  0
    0.7203    1.5683    1.6472 N   0  0  0  0  0  0  0  0  0  0  0  0
    1.5210    0.9664    1.8100 H   0  0  0  0  0  0  0  0  0  0  0  0
    0.6747    2.8558    2.3368 C   0  0  0  0  0  0  0  0  0  0  0  0
   -0.3018    2.9877    2.8079 H   0  0  0  0  0  0  0  0  0  0  0  0
    1.4516    2.8997    3.1011 H   0  0  0  0  0  0  0  0  0  0  0  0
    0.8279    3.6639    1.6193 H   0  0  0  0  0  0  0  0  0  0  0  0
  5  6  2  0  0  0  0
  5  7  1  0  0  0  0
  2  3  1  0  0  0  0
  2  4  1  0  0  0  0
  2  5  1  0  0  0  0
  1  2  1  0  0  0  0
 18 19  2  0  0  0  0
 18 20  1  0  0  0  0
 16 17  1  0  0  0  0
 14 15  2  0  0  0  0
 14 16  1  0  0  0  0
 11 12  1  0  0  0  0
 11 13  1  0  0  0  0
 11 14  1  0  0  0  0
  9 10  1  0  0  0  0
  9 11  1  0  0  0  0
  9 18  1  0  0  0  0
  7  8  1  0  0  0  0
  7  9  1  0  0  0  0
 22 23  1  0  0  0  0
 22 24  1  0  0  0  0
 22 25  1  0  0  0  0
 20 21  1  0  0  0  0
 20 22  1  0  0  0  0
M  END
$$$$
default_name
  -OEChem-02102213163D

 25 24  0     1  0  0  0  0  0999 V2000
   -2.7826   -3.8464    0.7821 H   0  0  0  0  0  0  0  0  0  0  0  0
   -2.8156   -2.8034    0.4711 C   0  0  0  0  0  0  0  0  0  0  0  0
   -3.4336   -2.2354    1.1641 H   0  0  0  0  0  0  0  0  0  0  0  0
   -3.2256   -2.7344   -0.5349 H   0  0  0  0  0  0  0  0  0  0  0  0
   -1.4126   -2.2444    0.4801 C   0  0  0  0  0  0  0  0  0  0  0  0
   -0.4686   -2.9534    0.8001 O   0  0  0  0  0  0  0  0  0  0  0  0
   -1.2736   -0.9704    0.1241 N   0  0  0  0  0  0  0  0  0  0  0  0
   -2.0996   -0.4354   -0.1019 H   0  0  0  0  0  0  0  0  0  0  0  0
   -0.0016   -0.2394    0.1271 C   0  0  1  0  0  0  0  0  0  0  0  0
    0.7164   -0.7963    0.7332 H   0  0  0  0  0  0  0  0  0  0  0  0
    0.5351   -0.1414   -1.3146 C   0  0  0  0  0  0  0  0  0  0  0  0
   -0.3019   -0.1370   -2.0140 H   0  0  0  0  0  0  0  0  0  0  0  0
    1.0816    0.7939   -1.4402 H   0  0  0  0  0  0  0  0  0  0  0  0
    1.4380   -1.3071   -1.7067 C   0  0  0  0  0  0  0  0  0  0  0  0
    2.4852   -1.6149   -1.1526 O   0  0  0  0  0  0  0  0  0  0  0  0
    1.0084   -2.0239   -2.7620 O   0  0  0  0  0  0  0  0  0  0  0  0
    1.6506   -2.7241   -2.8826 H   0  0  0  0  0  0  0  0  0  0  0  0
   -0.1923    1.1526    0.7617 C   0  0  0  0  0  0  0  0  0  0  0  0
   -1.1582    1.8438    0.4410 O   0  0  0  0  0  0  0  0  0  0  0  0
    0.7203    1.5683    1.6472 N   0  0  0  0  0  0  0  0  0  0  0  0
    1.5210    0.9664    1.8100 H   0  0  0  0  0  0  0  0  0  0  0  0
    0.6747    2.8558    2.3368 C   0  0  0  0  0  0  0  0  0  0  0  0
   -0.3018    2.9877    2.8079 H   0  0  0  0  0  0  0  0  0  0  0  0
    1.4516    2.8997    3.1011 H   0  0  0  0  0  0  0  0  0  0  0  0
    0.8279    3.6639    1.6193 H   0  0  0  0  0  0  0  0  0  0  0  0
  5  6  2  0  0  0  0
  5  7  1  0  0  0  0
  2  3  1  0  0  0  0
  2  4  1  0  0  0  0
  2  5  1  0  0  0  0
  1  2  1  0  0  0  0
 18 19  2  0  0  0  0
 18 20  1  0  0  0  0
 16 17  1  0  0  0  0
 14 15  2  0  0  0  0
 14 16  1  0  0  0  0
 11 12  1  0  0  0  0
 11 13  1  0  0  0  0
 11 14  1  0  0  0  0
  9 10  1  0  0  0  0
  9 11  1  0  0  0  0
  9 18  1  0  0  0  0
  7  8  1  0  0  0  0
  7  9  1  0  0  0  0
 22 23  1  0  0  0  0
 22 24  1  0  0  0  0
 22 25  1  0  0  0  0
 20 21  1  0  0  0  0
 20 22  1  0  0  0  0
M  END
$$$$
default_name
  -OEChem-02102213163D

 25 24  0     1  0  0  0  0  0999 V2000
   -2.7826   -3.8464    0.7821 H   0  0  0  0  0  0  0  0  0  0  0  0
   -2.8156   -2.8034    0.4711 C   0  0  0  0  0  0  0  0  0  0  0  0
   -3.4336   -2.2354    1.1641 H   0  0  0  0  0  0  0  0  0  0  0  0
   -3.2256   -2.7344   -0.5349 H   0  0  0  0  0  0  0  0  0  0  0  0
   -1.4126   -2.2444    0.4801 C   0  0  0  0  0  0  0  0  0  0  0  0
   -0.4686   -2.9534    0.8001 O   0  0  0  0  0  0  0  0  0  0  0  0
   -1.2736   -0.9704    0.1241 N   0  0  0  0  0  0  0  0  0  0  0  0
   -2.0996   -0.4354   -0.1019 H   0  0  0  0  0  0  0  0  0  0  0  0
   -0.0016   -0.2394    0.1271 C   0  0  1  0  0  0  0  0  0  0  0  0
    0.7164   -0.7963    0.7332 H   0  0  0  0  0  0  0  0  0  0  0  0
    0.5351   -0.1414   -1.3146 C   0  0  0  0  0  0  0  0  0  0  0  0
   -0.3019   -0.1370   -2.0140 H   0  0  0  0  0  0  0  0  0  0  0  0
    1.0816    0.7939   -1.4402 H   0  0  0  0  0  0  0  0  0  0  0  0
    1.4380   -1.3071   -1.7067 C   0  0  0  0  0  0  0  0  0  0  0  0
    2.3339   -1.7774   -1.0178 O   0  0  0  0  0  0  0  0  0  0  0  0
    1.1954   -1.8239   -2.9257 O   0  0  0  0  0  0  0  0  0  0  0  0
    1.8121   -2.5491   -3.0307 H   0  0  0  0  0  0  0  0  0  0  0  0
   -0.1923    1.1526    0.7617 C   0  0  0  0  0  0  0  0  0  0  0  0
   -1.1582    1.8438    0.4410 O   0  0  0  0  0  0  0  0  0  0  0  0
    0.7203    1.5683    1.6472 N   0  0  0  0  0  0  0  0  0  0  0  0
    1.5210    0.9664    1.8100 H   0  0  0  0  0  0  0  0  0  0  0  0
    0.6747    2.8558    2.3368 C   0  0  0  0  0  0  0  0  0  0  0  0
   -0.3018    2.9877    2.8079 H   0  0  0  0  0  0  0  0  0  0  0  0
    1.4516    2.8997    3.1011 H   0  0  0  0  0  0  0  0  0  0  0  0
    0.8279    3.6639    1.6193 H   0  0  0  0  0  0  0  0  0  0  0  0
  5  6  2  0  0  0  0
  5  7  1  0  0  0  0
  2  3  1  0  0  0  0
  2  4  1  0  0  0  0
  2  5  1  0  0  0  0
  1  2  1  0  0  0  0
 18 19  2  0  0  0  0
 18 20  1  0  0  0  0
 16 17  1  0  0  0  0
 14 15  2  0  0  0  0
 14 16  1  0  0  0  0
 11 12  1  0  0  0  0
 11 13  1  0  0  0  0
 11 14  1  0  0  0  0
  9 10  1  0  0  0  0
  9 11  1  0  0  0  0
  9 18  1  0  0  0  0
  7  8  1  0  0  0  0
  7  9  1  0  0  0  0
 22 23  1  0  0  0  0
 22 24  1  0  0  0  0
 22 25  1  0  0  0  0
 20 21  1  0  0  0  0
 20 22  1  0  0  0  0
M  END
$$$$
default_name
  -OEChem-02102213163D

 25 24  0     1  0  0  0  0  0999 V2000
   -2.7826   -3.8464    0.7821 H   0  0  0  0  0  0  0  0  0  0  0  0
   -2.8156   -2.8034    0.4711 C   0  0  0  0  0  0  0  0  0  0  0  0
   -3.4336   -2.2354    1.1641 H   0  0  0  0  0  0  0  0  0  0  0  0
   -3.2256   -2.7344   -0.5349 H   0  0  0  0  0  0  0  0  0  0  0  0
   -1.4126   -2.2444    0.4801 C   0  0  0  0  0  0  0  0  0  0  0  0
   -0.4686   -2.9534    0.8001 O   0  0  0  0  0  0  0  0  0  0  0  0
   -1.2736   -0.9704    0.1241 N   0  0  0  0  0  0  0  0  0  0  0  0
   -2.0996   -0.4354   -0.1019 H   0  0  0  0  0  0  0  0  0  0  0  0
   -0.0016   -0.2394    0.1271 C   0  0  1  0  0  0  0  0  0  0  0  0
    0.7164   -0.7963    0.7332 H   0  0  0  0  0  0  0  0  0  0  0  0
    0.5351   -0.1414   -1.3146 C   0  0  0  0  0  0  0  0  0  0  0  0
   -0.3019   -0.1370   -2.0140 H   0  0  0  0  0  0  0  0  0  0  0  0
    1.0816    0.7939   -1.4402 H   0  0  0  0  0  0  0  0  0  0  0  0
    1.4380   -1.3071   -1.7067 C   0  0  0  0  0  0  0  0  0  0  0  0
    2.1502   -1.9450   -0.9424 O   0  0  0  0  0  0  0  0  0  0  0  0
    1.4218   -1.6182   -3.0162 O   0  0  0  0  0  0  0  0  0  0  0  0
    2.0091   -2.3682   -3.1151 H   0  0  0  0  0  0  0  0  0  0  0  0
   -0.1923    1.1526    0.7617 C   0  0  0  0  0  0  0  0  0  0  0  0
   -1.1582    1.8438    0.4410 O   0  0  0  0  0  0  0  0  0  0  0  0
    0.7203    1.5683    1.6472 N   0  0  0  0  0  0  0  0  0  0  0  0
    1.5210    0.9664    1.8100 H   0  0  0  0  0  0  0  0  0  0  0  0
    0.6747    2.8558    2.3368 C   0  0  0  0  0  0  0  0  0  0  0  0
   -0.3018    2.9877    2.8079 H   0  0  0  0  0  0  0  0  0  0  0  0
    1.4516    2.8997    3.1011 H   0  0  0  0  0  0  0  0  0  0  0  0
    0.8279    3.6639    1.6193 H   0  0  0  0  0  0  0  0  0  0  0  0
  5  6  2  0  0  0  0
  5  7  1  0  0  0  0
  2  3  1  0  0  0  0
  2  4  1  0  0  0  0
  2  5  1  0  0  0  0
  1  2  1  0  0  0  0
 18 19  2  0  0  0  0
 18 20  1  0  0  0  0
 16 17  1  0  0  0  0
 14 15  2  0  0  0  0
 14 16  1  0  0  0  0
 11 12  1  0  0  0  0
 11 13  1  0  0  0  0
 11 14  1  0  0  0  0
  9 10  1  0  0  0  0
  9 11  1  0  0  0  0
  9 18  1  0  0  0  0
  7  8  1  0  0  0  0
  7  9  1  0  0  0  0
 22 23  1  0  0  0  0
 22 24  1  0  0  0  0
 22 25  1  0  0  0  0
 20 21  1  0  0  0  0
 20 22  1  0  0  0  0
M  END
$$$$
default_name
  -OEChem-02102213163D

 25 24  0     1  0  0  0  0  0999 V2000
   -2.7826   -3.8464    0.7821 H   0  0  0  0  0  0  0  0  0  0  0  0
   -2.8156   -2.8034    0.4711 C   0  0  0  0  0  0  0  0  0  0  0  0
   -3.4336   -2.2354    1.1641 H   0  0  0  0  0  0  0  0  0  0  0  0
   -3.2256   -2.7344   -0.5349 H   0  0  0  0  0  0  0  0  0  0  0  0
   -1.4126   -2.2444    0.4801 C   0  0  0  0  0  0  0  0  0  0  0  0
   -0.4686   -2.9534    0.8001 O   0  0  0  0  0  0  0  0  0  0  0  0
   -1.2736   -0.9704    0.1241 N   0  0  0  0  0  0  0  0  0  0  0  0
   -2.0996   -0.4354   -0.1019 H   0  0  0  0  0  0  0  0  0  0  0  0
   -0.0016   -0.2394    0.1271 C   0  0  1  0  0  0  0  0  0  0  0  0
    0.7164   -0.7963    0.7332 H   0  0  0  0  0  0  0  0  0  0  0  0
    0.5351   -0.1414   -1.3146 C   0  0  0  0  0  0  0  0  0  0  0  0
   -0.3019   -0.1370   -2.0140 H   0  0  0  0  0  0  0  0  0  0  0  0
    1.0816    0.7939   -1.4402 H   0  0  0  0  0  0  0  0  0  0  0  0
    1.4380   -1.3071   -1.7067 C   0  0  0  0  0  0  0  0  0  0  0  0
    1.9468   -2.1063   -0.9316 O   0  0  0  0  0  0  0  0  0  0  0  0
    1.6720   -1.4206   -3.0274 O   0  0  0  0  0  0  0  0  0  0  0  0
    2.2280   -2.1936   -3.1300 H   0  0  0  0  0  0  0  0  0  0  0  0
   -0.1923    1.1526    0.7617 C   0  0  0  0  0  0  0  0  0  0  0  0
   -1.1582    1.8438    0.4410 O   0  0  0  0  0  0  0  0  0  0  0  0
    0.7203    1.5683    1.6472 N   0  0  0  0  0  0  0  0  0  0  0  0
    1.5210    0.9664    1.8100 H   0  0  0  0  0  0  0  0  0  0  0  0
    0.6747    2.8558    2.3368 C   0  0  0  0  0  0  0  0  0  0  0  0
   -0.3018    2.9877    2.8079 H   0  0  0  0  0  0  0  0  0  0  0  0
    1.4516    2.8997    3.1011 H   0  0  0  0  0  0  0  0  0  0  0  0
    0.8279    3.6639    1.6193 H   0  0  0  0  0  0  0  0  0  0  0  0
  5  6  2  0  0  0  0
  5  7  1  0  0  0  0
  2  3  1  0  0  0  0
  2  4  1  0  0  0  0
  2  5  1  0  0  0  0
  1  2  1  0  0  0  0
 18 19  2  0  0  0  0
 18 20  1  0  0  0  0
 16 17  1  0  0  0  0
 14 15  2  0  0  0  0
 14 16  1  0  0  0  0
 11 12  1  0  0  0  0
 11 13  1  0  0  0  0
 11 14  1  0  0  0  0
  9 10  1  0  0  0  0
  9 11  1  0  0  0  0
  9 18  1  0  0  0  0
  7  8  1  0  0  0  0
  7  9  1  0  0  0  0
 22 23  1  0  0  0  0
 22 24  1  0  0  0  0
 22 25  1  0  0  0  0
 20 21  1  0  0  0  0
 20 22  1  0  0  0  0
M  END
$$$$
default_name
  -OEChem-02102213163D

 25 24  0     1  0  0  0  0  0999 V2000
   -2.7826   -3.8464    0.7821 H   0  0  0  0  0  0  0  0  0  0  0  0
   -2.8156   -2.8034    0.4711 C   0  0  0  0  0  0  0  0  0  0  0  0
   -3.4336   -2.2354    1.1641 H   0  0  0  0  0  0  0  0  0  0  0  0
   -3.2256   -2.7344   -0.5349 H   0  0  0  0  0  0  0  0  0  0  0  0
   -1.4126   -2.2444    0.4801 C   0  0  0  0  0  0  0  0  0  0  0  0
   -0.4686   -2.9534    0.8001 O   0  0  0  0  0  0  0  0  0  0  0  0
   -1.2736   -0.9704    0.1241 N   0  0  0  0  0  0  0  0  0  0  0  0
   -2.0996   -0.4354   -0.1019 H   0  0  0  0  0  0  0  0  0  0  0  0
   -0.0016   -0.2394    0.1271 C   0  0  1  0  0  0  0  0  0  0  0  0
    0.7164   -0.7963    0.7332 H   0  0  0  0  0  0  0  0  0  0  0  0
    0.5351   -0.1414   -1.3146 C   0  0  0  0  0  0  0  0  0  0  0  0
   -0.3019   -0.1370   -2.0140 H   0  0  0  0  0  0  0  0  0  0  0  0
    1.0816    0.7939   -1.4402 H   0  0  0  0  0  0  0  0  0  0  0  0
    1.4380   -1.3071   -1.7067 C   0  0  0  0  0  0  0  0  0  0  0  0
    1.7374   -2.2502   -0.9860 O   0  0  0  0  0  0  0  0  0  0  0  0
    1.9290   -1.2447   -2.9585 O   0  0  0  0  0  0  0  0  0  0  0  0
    2.4541   -2.0372   -3.0743 H   0  0  0  0  0  0  0  0  0  0  0  0
   -0.1923    1.1526    0.7617 C   0  0  0  0  0  0  0  0  0  0  0  0
   -1.1582    1.8438    0.4410 O   0  0  0  0  0  0  0  0  0  0  0  0
    0.7203    1.5683    1.6472 N   0  0  0  0  0  0  0  0  0  0  0  0
    1.5210    0.9664    1.8100 H   0  0  0  0  0  0  0  0  0  0  0  0
    0.6747    2.8558    2.3368 C   0  0  0  0  0  0  0  0  0  0  0  0
   -0.3018    2.9877    2.8079 H   0  0  0  0  0  0  0  0  0  0  0  0
    1.4516    2.8997    3.1011 H   0  0  0  0  0  0  0  0  0  0  0  0
    0.8279    3.6639    1.6193 H   0  0  0  0  0  0  0  0  0  0  0  0
  5  6  2  0  0  0  0
  5  7  1  0  0  0  0
  2  3  1  0  0  0  0
  2  4  1  0  0  0  0
  2  5  1  0  0  0  0
  1  2  1  0  0  0  0
 18 19  2  0  0  0  0
 18 20  1  0  0  0  0
 16 17  1  0  0  0  0
 14 15  2  0  0  0  0
 14 16  1  0  0  0  0
 11 12  1  0  0  0  0
 11 13  1  0  0  0  0
 11 14  1  0  0  0  0
  9 10  1  0  0  0  0
  9 11  1  0  0  0  0
  9 18  1  0  0  0  0
  7  8  1  0  0  0  0
  7  9  1  0  0  0  0
 22 23  1  0  0  0  0
 22 24  1  0  0  0  0
 22 25  1  0  0  0  0
 20 21  1  0  0  0  0
 20 22  1  0  0  0  0
M  END
$$$$
default_name
  -OEChem-02102213163D

 25 24  0     1  0  0  0  0  0999 V2000
   -2.7826   -3.8464    0.7821 H   0  0  0  0  0  0  0  0  0  0  0  0
   -2.8156   -2.8034    0.4711 C   0  0  0  0  0  0  0  0  0  0  0  0
   -3.4336   -2.2354    1.1641 H   0  0  0  0  0  0  0  0  0  0  0  0
   -3.2256   -2.7344   -0.5349 H   0  0  0  0  0  0  0  0  0  0  0  0
   -1.4126   -2.2444    0.4801 C   0  0  0  0  0  0  0  0  0  0  0  0
   -0.4686   -2.9534    0.8001 O   0  0  0  0  0  0  0  0  0  0  0  0
   -1.2736   -0.9704    0.1241 N   0  0  0  0  0  0  0  0  0  0  0  0
   -2.0996   -0.4354   -0.1019 H   0  0  0  0  0  0  0  0  0  0  0  0
   -0.0016   -0.2394    0.1271 C   0  0  1  0  0  0  0  0  0  0  0  0
    0.7164   -0.7963    0.7332 H   0  0  0  0  0  0  0  0  0  0  0  0
    0.5351   -0.1414   -1.3146 C   0  0  0  0  0  0  0  0  0  0  0  0
   -0.3019   -0.1370   -2.0140 H   0  0  0  0  0  0  0  0  0  0  0  0
    1.0816    0.7939   -1.4402 H   0  0  0  0  0  0  0  0  0  0  0  0
    1.4380   -1.3071   -1.7067 C   0  0  0  0  0  0  0  0  0  0  0  0
    1.5364   -2.3669   -1.1021 O   0  0  0  0  0  0  0  0  0  0  0  0
    2.1753   -1.1024   -2.8141 O   0  0  0  0  0  0  0  0  0  0  0  0
    2.6718   -1.9098   -2.9518 H   0  0  0  0  0  0  0  0  0  0  0  0
   -0.1923    1.1526    0.7617 C   0  0  0  0  0  0  0  0  0  0  0  0
   -1.1582    1.8438    0.4410 O   0  0  0  0  0  0  0  0  0  0  0  0
    0.7203    1.5683    1.6472 N   0  0  0  0  0  0  0  0  0  0  0  0
    1.5210    0.9664    1.8100 H   0  0  0  0  0  0  0  0  0  0  0  0
    0.6747    2.8558    2.3368 C   0  0  0  0  0  0  0  0  0  0  0  0
   -0.3018    2.9877    2.8079 H   0  0  0  0  0  0  0  0  0  0  0  0
    1.4516    2.8997    3.1011 H   0  0  0  0  0  0  0  0  0  0  0  0
    0.8279    3.6639    1.6193 H   0  0  0  0  0  0  0  0  0  0  0  0
  5  6  2  0  0  0  0
  5  7  1  0  0  0  0
  2  3  1  0  0  0  0
  2  4  1  0  0  0  0
  2  5  1  0  0  0  0
  1  2  1  0  0  0  0
 18 19  2  0  0  0  0
 18 20  1  0  0  0  0
 16 17  1  0  0  0  0
 14 15  2  0  0  0  0
 14 16  1  0  0  0  0
 11 12  1  0  0  0  0
 11 13  1  0  0  0  0
 11 14  1  0  0  0  0
  9 10  1  0  0  0  0
  9 11  1  0  0  0  0
  9 18  1  0  0  0  0
  7  8  1  0  0  0  0
  7  9  1  0  0  0  0
 22 23  1  0  0  0  0
 22 24  1  0  0  0  0
 22 25  1  0  0  0  0
 20 21  1  0  0  0  0
 20 22  1  0  0  0  0
M  END
$$$$
default_name
  -OEChem-02102213163D

 25 24  0     1  0  0  0  0  0999 V2000
   -2.7826   -3.8464    0.7821 H   0  0  0  0  0  0  0  0  0  0  0  0
   -2.8156   -2.8034    0.4711 C   0  0  0  0  0  0  0  0  0  0  0  0
   -3.4336   -2.2354    1.1641 H   0  0  0  0  0  0  0  0  0  0  0  0
   -3.2256   -2.7344   -0.5349 H   0  0  0  0  0  0  0  0  0  0  0  0
   -1.4126   -2.2444    0.4801 C   0  0  0  0  0  0  0  0  0  0  0  0
   -0.4686   -2.9534    0.8001 O   0  0  0  0  0  0  0  0  0  0  0  0
   -1.2736   -0.9704    0.1241 N   0  0  0  0  0  0  0  0  0  0  0  0
   -2.0996   -0.4354   -0.1019 H   0  0  0  0  0  0  0  0  0  0  0  0
   -0.0016   -0.2394    0.1271 C   0  0  1  0  0  0  0  0  0  0  0  0
    0.7164   -0.7963    0.7332 H   0  0  0  0  0  0  0  0  0  0  0  0
    0.5351   -0.1414   -1.3146 C   0  0  0  0  0  0  0  0  0  0  0  0
   -0.3019   -0.1370   -2.0140 H   0  0  0  0  0  0  0  0  0  0  0  0
    1.0816    0.7939   -1.4402 H   0  0  0  0  0  0  0  0  0  0  0  0
    1.4380   -1.3071   -1.7067 C   0  0  0  0  0  0  0  0  0  0  0  0
    1.3574   -2.4485   -1.2718 O   0  0  0  0  0  0  0  0  0  0  0  0
    2.3942   -1.0035   -2.6041 O   0  0  0  0  0  0  0  0  0  0  0  0
    2.8663   -1.8199   -2.7710 H   0  0  0  0  0  0  0  0  0  0  0  0
   -0.1923    1.1526    0.7617 C   0  0  0  0  0  0  0  0  0  0  0  0
   -1.1582    1.8438    0.4410 O   0  0  0  0  0  0  0  0  0  0  0  0
    0.7203    1.5683    1.6472 N   0  0  0  0  0  0  0  0  0  0  0  0
    1.5210    0.9664    1.8100 H   0  0  0  0  0  0  0  0  0  0  0  0
    0.6747    2.8558    2.3368 C   0  0  0  0  0  0  0  0  0  0  0  0
   -0.3018    2.9877    2.8079 H   0  0  0  0  0  0  0  0  0  0  0  0
    1.4516    2.8997    3.1011 H   0  0  0  0  0  0  0  0  0  0  0  0
    0.8279    3.6639    1.6193 H   0  0  0  0  0  0  0  0  0  0  0  0
  5  6  2  0  0  0  0
  5  7  1  0  0  0  0
  2  3  1  0  0  0  0
  2  4  1  0  0  0  0
  2  5  1  0  0  0  0
  1  2  1  0  0  0  0
 18 19  2  0  0  0  0
 18 20  1  0  0  0  0
 16 17  1  0  0  0  0
 14 15  2  0  0  0  0
 14 16  1  0  0  0  0
 11 12  1  0  0  0  0
 11 13  1  0  0  0  0
 11 14  1  0  0  0  0
  9 10  1  0  0  0  0
  9 11  1  0  0  0  0
  9 18  1  0  0  0  0
  7  8  1  0  0  0  0
  7  9  1  0  0  0  0
 22 23  1  0  0  0  0
 22 24  1  0  0  0  0
 22 25  1  0  0  0  0
 20 21  1  0  0  0  0
 20 22  1  0  0  0  0
M  END
$$$$
default_name
  -OEChem-02102213163D

 25 24  0     1  0  0  0  0  0999 V2000
   -2.7826   -3.8464    0.7821 H   0  0  0  0  0  0  0  0  0  0  0  0
   -2.8156   -2.8034    0.4711 C   0  0  0  0  0  0  0  0  0  0  0  0
   -3.4336   -2.2354    1.1641 H   0  0  0  0  0  0  0  0  0  0  0  0
   -3.2256   -2.7344   -0.5349 H   0  0  0  0  0  0  0  0  0  0  0  0
   -1.4126   -2.2444    0.4801 C   0  0  0  0  0  0  0  0  0  0  0  0
   -0.4686   -2.9534    0.8001 O   0  0  0  0  0  0  0  0  0  0  0  0
   -1.2736   -0.9704    0.1241 N   0  0  0  0  0  0  0  0  0  0  0  0
   -2.0996   -0.4354   -0.1019 H   0  0  0  0  0  0  0  0  0  0  0  0
   -0.0016   -0.2394    0.1271 C   0  0  1  0  0  0  0  0  0  0  0  0
    0.7164   -0.7963    0.7332 H   0  0  0  0  0  0  0  0  0  0  0  0
    0.5351   -0.1414   -1.3146 C   0  0  0  0  0  0  0  0  0  0  0  0
   -0.3019   -0.1370   -2.0140 H   0  0  0  0  0  0  0  0  0  0  0  0
    1.0816    0.7939   -1.4402 H   0  0  0  0  0  0  0  0  0  0  0  0
    1.4380   -1.3071   -1.7067 C   0  0  0  0  0  0  0  0  0  0  0  0
    1.2126   -2.4894   -1.4836 O   0  0  0  0  0  0  0  0  0  0  0  0
    2.5707   -0.9546   -2.3429 O   0  0  0  0  0  0  0  0  0  0  0  0
    3.0245   -1.7737   -2.5440 H   0  0  0  0  0  0  0  0  0  0  0  0
   -0.1923    1.1526    0.7617 C   0  0  0  0  0  0  0  0  0  0  0  0
   -1.1582    1.8438    0.4410 O   0  0  0  0  0  0  0  0  0  0  0  0
    0.7203    1.5683    1.6472 N   0  0  0  0  0  0  0  0  0  0  0  0
    1.5210    0.9664    1.8100 H   0  0  0  0  0  0  0  0  0  0  0  0
    0.6747    2.8558    2.3368 C   0  0  0  0  0  0  0  0  0  0  0  0
   -0.3018    2.9877    2.8079 H   0  0  0  0  0  0  0  0  0  0  0  0
    1.4516    2.8997    3.1011 H   0  0  0  0  0  0  0  0  0  0  0  0
    0.8279    3.6639    1.6193 H   0  0  0  0  0  0  0  0  0  0  0  0
  5  6  2  0  0  0  0
  5  7  1  0  0  0  0
  2  3  1  0  0  0  0
  2  4  1  0  0  0  0
  2  5  1  0  0  0  0
  1  2  1  0  0  0  0
 18 19  2  0  0  0  0
 18 20  1  0  0  0  0
 16 17  1  0  0  0  0
 14 15  2  0  0  0  0
 14 16  1  0  0  0  0
 11 12  1  0  0  0  0
 11 13  1  0  0  0  0
 11 14  1  0  0  0  0
  9 10  1  0  0  0  0
  9 11  1  0  0  0  0
  9 18  1  0  0  0  0
  7  8  1  0  0  0  0
  7  9  1  0  0  0  0
 22 23  1  0  0  0  0
 22 24  1  0  0  0  0
 22 25  1  0  0  0  0
 20 21  1  0  0  0  0
 20 22  1  0  0  0  0
M  END
$$$$
default_name
  -OEChem-02102213163D

 25 24  0     1  0  0  0  0  0999 V2000
   -2.7826   -3.8464    0.7821 H   0  0  0  0  0  0  0  0  0  0  0  0
   -2.8156   -2.8034    0.4711 C   0  0  0  0  0  0  0  0  0  0  0  0
   -3.4336   -2.2354    1.1641 H   0  0  0  0  0  0  0  0  0  0  0  0
   -3.2256   -2.7344   -0.5349 H   0  0  0  0  0  0  0  0  0  0  0  0
   -1.4126   -2.2444    0.4801 C   0  0  0  0  0  0  0  0  0  0  0  0
   -0.4686   -2.9534    0.8001 O   0  0  0  0  0  0  0  0  0  0  0  0
   -1.2736   -0.9704    0.1241 N   0  0  0  0  0  0  0  0  0  0  0  0
   -2.0996   -0.4354   -0.1019 H   0  0  0  0  0  0  0  0  0  0  0  0
   -0.0016   -0.2394    0.1271 C   0  0  1  0  0  0  0  0  0  0  0  0
    0.7164   -0.7963    0.7332 H   0  0  0  0  0  0  0  0  0  0  0  0
    0.5351   -0.1414   -1.3146 C   0  0  0  0  0  0  0  0  0  0  0  0
   -0.3019   -0.1370   -2.0140 H   0  0  0  0  0  0  0  0  0  0  0  0
    1.0816    0.7939   -1.4402 H   0  0  0  0  0  0  0  0  0  0  0  0
    1.4380   -1.3071   -1.7067 C   0  0  0  0  0  0  0  0  0  0  0  0
    1.1119   -2.4868   -1.7231 O   0  0  0  0  0  0  0  0  0  0  0  0
    2.6927   -0.9592   -2.0482 O   0  0  0  0  0  0  0  0  0  0  0  0
    3.1354   -1.7743   -2.2865 H   0  0  0  0  0  0  0  0  0  0  0  0
   -0.1923    1.1526    0.7617 C   0  0  0  0  0  0  0  0  0  0  0  0
   -1.1582    1.8438    0.4410 O   0  0  0  0  0  0  0  0  0  0  0  0
    0.7203    1.5683    1.6472 N   0  0  0  0  0  0  0  0  0  0  0  0
    1.5210    0.9664    1.8100 H   0  0  0  0  0  0  0  0  0  0  0  0
    0.6747    2.8558    2.3368 C   0  0  0  0  0  0  0  0  0  0  0  0
   -0.3018    2.9877    2.8079 H   0  0  0  0  0  0  0  0  0  0  0  0
    1.4516    2.8997    3.1011 H   0  0  0  0  0  0  0  0  0  0  0  0
    0.8279    3.6639    1.6193 H   0  0  0  0  0  0  0  0  0  0  0  0
  5  6  2  0  0  0  0
  5  7  1  0  0  0  0
  2  3  1  0  0  0  0
  2  4  1  0  0  0  0
  2  5  1  0  0  0  0
  1  2  1  0  0  0  0
 18 19  2  0  0  0  0
 18 20  1  0  0  0  0
 16 17  1  0  0  0  0
 14 15  2  0  0  0  0
 14 16  1  0  0  0  0
 11 12  1  0  0  0  0
 11 13  1  0  0  0  0
 11 14  1  0  0  0  0
  9 10  1  0  0  0  0
  9 11  1  0  0  0  0
  9 18  1  0  0  0  0
  7  8  1  0  0  0  0
  7  9  1  0  0  0  0
 22 23  1  0  0  0  0
 22 24  1  0  0  0  0
 22 25  1  0  0  0  0
 20 21  1  0  0  0  0
 20 22  1  0  0  0  0
M  END
$$$$
default_name
  -OEChem-02102213163D

 25 24  0     1  0  0  0  0  0999 V2000
   -2.7826   -3.8464    0.7821 H   0  0  0  0  0  0  0  0  0  0  0  0
   -2.8156   -2.8034    0.4711 C   0  0  0  0  0  0  0  0  0  0  0  0
   -3.4336   -2.2354    1.1641 H   0  0  0  0  0  0  0  0  0  0  0  0
   -3.2256   -2.7344   -0.5349 H   0  0  0  0  0  0  0  0  0  0  0  0
   -1.4126   -2.2444    0.4801 C   0  0  0  0  0  0  0  0  0  0  0  0
   -0.4686   -2.9534    0.8001 O   0  0  0  0  0  0  0  0  0  0  0  0
   -1.2736   -0.9704    0.1241 N   0  0  0  0  0  0  0  0  0  0  0  0
   -2.0996   -0.4354   -0.1019 H   0  0  0  0  0  0  0  0  0  0  0  0
   -0.0016   -0.2394    0.1271 C   0  0  1  0  0  0  0  0  0  0  0  0
    0.7164   -0.7963    0.7332 H   0  0  0  0  0  0  0  0  0  0  0  0
    0.5351   -0.1414   -1.3146 C   0  0  0  0  0  0  0  0  0  0  0  0
   -0.3019   -0.1370   -2.0140 H   0  0  0  0  0  0  0  0  0  0  0  0
    1.0816    0.7939   -1.4402 H   0  0  0  0  0  0  0  0  0  0  0  0
    1.4380   -1.3071   -1.7067 C   0  0  0  0  0  0  0  0  0  0  0  0
    1.0622   -2.4409   -1.9740 O   0  0  0  0  0  0  0  0  0  0  0  0
    2.7520   -1.0169   -1.7401 O   0  0  0  0  0  0  0  0  0  0  0  0
    3.1917   -1.8218   -2.0159 H   0  0  0  0  0  0  0  0  0  0  0  0
   -0.1923    1.1526    0.7617 C   0  0  0  0  0  0  0  0  0  0  0  0
   -1.1582    1.8438    0.4410 O   0  0  0  0  0  0  0  0  0  0  0  0
    0.7203    1.5683    1.6472 N   0  0  0  0  0  0  0  0  0  0  0  0
    1.5210    0.9664    1.8100 H   0  0  0  0  0  0  0  0  0  0  0  0
    0.6747    2.8558    2.3368 C   0  0  0  0  0  0  0  0  0  0  0  0
   -0.3018    2.9877    2.8079 H   0  0  0  0  0  0  0  0  0  0  0  0
    1.4516    2.8997    3.1011 H   0  0  0  0  0  0  0  0  0  0  0  0
    0.8279    3.6639    1.6193 H   0  0  0  0  0  0  0  0  0  0  0  0
  5  6  2  0  0  0  0
  5  7  1  0  0  0  0
  2  3  1  0  0  0  0
  2  4  1  0  0  0  0
  2  5  1  0  0  0  0
  1  2  1  0  0  0  0
 18 19  2  0  0  0  0
 18 20  1  0  0  0  0
 16 17  1  0  0  0  0
 14 15  2  0  0  0  0
 14 16  1  0  0  0  0
 11 12  1  0  0  0  0
 11 13  1  0  0  0  0
 11 14  1  0  0  0  0
  9 10  1  0  0  0  0
  9 11  1  0  0  0  0
  9 18  1  0  0  0  0
  7  8  1  0  0  0  0
  7  9  1  0  0  0  0
 22 23  1  0  0  0  0
 22 24  1  0  0  0  0
 22 25  1  0  0  0  0
 20 21  1  0  0  0  0
 20 22  1  0  0  0  0
M  END
$$$$
default_name
  -OEChem-02102213163D

 25 24  0     1  0  0  0  0  0999 V2000
   -2.7826   -3.8464    0.7821 H   0  0  0  0  0  0  0  0  0  0  0  0
   -2.8156   -2.8034    0.4711 C   0  0  0  0  0  0  0  0  0  0  0  0
   -3.4336   -2.2354    1.1641 H   0  0  0  0  0  0  0  0  0  0  0  0
   -3.2256   -2.7344   -0.5349 H   0  0  0  0  0  0  0  0  0  0  0  0
   -1.4126   -2.2444    0.4801 C   0  0  0  0  0  0  0  0  0  0  0  0
   -0.4686   -2.9534    0.8001 O   0  0  0  0  0  0  0  0  0  0  0  0
   -1.2736   -0.9704    0.1241 N   0  0  0  0  0  0  0  0  0  0  0  0
   -2.0996   -0.4354   -0.1019 H   0  0  0  0  0  0  0  0  0  0  0  0
   -0.0016   -0.2394    0.1271 C   0  0  1  0  0  0  0  0  0  0  0  0
    0.7164   -0.7963    0.7332 H   0  0  0  0  0  0  0  0  0  0  0  0
    0.5351   -0.1414   -1.3146 C   0  0  0  0  0  0  0  0  0  0  0  0
   -0.3019   -0.1370   -2.0140 H   0  0  0  0  0  0  0  0  0  0  0  0
    1.0816    0.7939   -1.4402 H   0  0  0  0  0  0  0  0  0  0  0  0
    1.4380   -1.3071   -1.7067 C   0  0  0  0  0  0  0  0  0  0  0  0
    1.0668   -2.3549   -2.2191 O   0  0  0  0  0  0  0  0  0  0  0  0
    2.7446   -1.1237   -1.4396 O   0  0  0  0  0  0  0  0  0  0  0  0
    3.1893   -1.9129   -1.7506 H   0  0  0  0  0  0  0  0  0  0  0  0
   -0.1923    1.1526    0.7617 C   0  0  0  0  0  0  0  0  0  0  0  0
   -1.1582    1.8438    0.4410 O   0  0  0  0  0  0  0  0  0  0  0  0
    0.7203    1.5683    1.6472 N   0  0  0  0  0  0  0  0  0  0  0  0
    1.5210    0.9664    1.8100 H   0  0  0  0  0  0  0  0  0  0  0  0
    0.6747    2.8558    2.3368 C   0  0  0  0  0  0  0  0  0  0  0  0
   -0.3018    2.9877    2.8079 H   0  0  0  0  0  0  0  0  0  0  0  0
    1.4516    2.8997    3.1011 H   0  0  0  0  0  0  0  0  0  0  0  0
    0.8279    3.6639    1.6193 H   0  0  0  0  0  0  0  0  0  0  0  0
  5  6  2  0  0  0  0
  5  7  1  0  0  0  0
  2  3  1  0  0  0  0
  2  4  1  0  0  0  0
  2  5  1  0  0  0  0
  1  2  1  0  0  0  0
 18 19  2  0  0  0  0
 18 20  1  0  0  0  0
 16 17  1  0  0  0  0
 14 15  2  0  0  0  0
 14 16  1  0  0  0  0
 11 12  1  0  0  0  0
 11 13  1  0  0  0  0
 11 14  1  0  0  0  0
  9 10  1  0  0  0  0
  9 11  1  0  0  0  0
  9 18  1  0  0  0  0
  7  8  1  0  0  0  0
  7  9  1  0  0  0  0
 22 23  1  0  0  0  0
 22 24  1  0  0  0  0
 22 25  1  0  0  0  0
 20 21  1  0  0  0  0
 20 22  1  0  0  0  0
M  END
$$$$
default_name
  -OEChem-02102213163D

 25 24  0     1  0  0  0  0  0999 V2000
   -2.7826   -3.8464    0.7821 H   0  0  0  0  0  0  0  0  0  0  0  0
   -2.8156   -2.8034    0.4711 C   0  0  0  0  0  0  0  0  0  0  0  0
   -3.4336   -2.2354    1.1641 H   0  0  0  0  0  0  0  0  0  0  0  0
   -3.2256   -2.7344   -0.5349 H   0  0  0  0  0  0  0  0  0  0  0  0
   -1.4126   -2.2444    0.4801 C   0  0  0  0  0  0  0  0  0  0  0  0
   -0.4686   -2.9534    0.8001 O   0  0  0  0  0  0  0  0  0  0  0  0
   -1.2736   -0.9704    0.1241 N   0  0  0  0  0  0  0  0  0  0  0  0
   -2.0996   -0.4354   -0.1019 H   0  0  0  0  0  0  0  0  0  0  0  0
   -0.0016   -0.2394    0.1271 C   0  0  1  0  0  0  0  0  0  0  0  0
    0.7164   -0.7963    0.7332 H   0  0  0  0  0  0  0  0  0  0  0  0
    0.5351   -0.1414   -1.3146 C   0  0  0  0  0  0  0  0  0  0  0  0
   -0.3019   -0.1370   -2.0140 H   0  0  0  0  0  0  0  0  0  0  0  0
    1.0816    0.7939   -1.4402 H   0  0  0  0  0  0  0  0  0  0  0  0
    1.4380   -1.3071   -1.7067 C   0  0  0  0  0  0  0  0  0  0  0  0
    1.1255   -2.2346   -2.4418 O   0  0  0  0  0  0  0  0  0  0  0  0
    2.6708   -1.2725   -1.1672 O   0  0  0  0  0  0  0  0  0  0  0  0
    3.1285   -2.0413   -1.5088 H   0  0  0  0  0  0  0  0  0  0  0  0
   -0.1923    1.1526    0.7617 C   0  0  0  0  0  0  0  0  0  0  0  0
   -1.1582    1.8438    0.4410 O   0  0  0  0  0  0  0  0  0  0  0  0
    0.7203    1.5683    1.6472 N   0  0  0  0  0  0  0  0  0  0  0  0
    1.5210    0.9664    1.8100 H   0  0  0  0  0  0  0  0  0  0  0  0
    0.6747    2.8558    2.3368 C   0  0  0  0  0  0  0  0  0  0  0  0
   -0.3018    2.9877    2.8079 H   0  0  0  0  0  0  0  0  0  0  0  0
    1.4516    2.8997    3.1011 H   0  0  0  0  0  0  0  0  0  0  0  0
    0.8279    3.6639    1.6193 H   0  0  0  0  0  0  0  0  0  0  0  0
  5  6  2  0  0  0  0
  5  7  1  0  0  0  0
  2  3  1  0  0  0  0
  2  4  1  0  0  0  0
  2  5  1  0  0  0  0
  1  2  1  0  0  0  0
 18 19  2  0  0  0  0
 18 20  1  0  0  0  0
 16 17  1  0  0  0  0
 14 15  2  0  0  0  0
 14 16  1  0  0  0  0
 11 12  1  0  0  0  0
 11 13  1  0  0  0  0
 11 14  1  0  0  0  0
  9 10  1  0  0  0  0
  9 11  1  0  0  0  0
  9 18  1  0  0  0  0
  7  8  1  0  0  0  0
  7  9  1  0  0  0  0
 22 23  1  0  0  0  0
 22 24  1  0  0  0  0
 22 25  1  0  0  0  0
 20 21  1  0  0  0  0
 20 22  1  0  0  0  0
M  END
$$$$
default_name
  -OEChem-02102213163D

 25 24  0     1  0  0  0  0  0999 V2000
   -2.7826   -3.8464    0.7821 H   0  0  0  0  0  0  0  0  0  0  0  0
   -2.8156   -2.8034    0.4711 C   0  0  0  0  0  0  0  0  0  0  0  0
   -3.4336   -2.2354    1.1641 H   0  0  0  0  0  0  0  0  0  0  0  0
   -3.2256   -2.7344   -0.5349 H   0  0  0  0  0  0  0  0  0  0  0  0
   -1.4126   -2.2444    0.4801 C   0  0  0  0  0  0  0  0  0  0  0  0
   -0.4686   -2.9534    0.8001 O   0  0  0  0  0  0  0  0  0  0  0  0
   -1.2736   -0.9704    0.1241 N   0  0  0  0  0  0  0  0  0  0  0  0
   -2.0996   -0.4354   -0.1019 H   0  0  0  0  0  0  0  0  0  0  0  0
   -0.0016   -0.2394    0.1271 C   0  0  1  0  0  0  0  0  0  0  0  0
    0.7164   -0.7963    0.7332 H   0  0  0  0  0  0  0  0  0  0  0  0
    0.5351   -0.1414   -1.3146 C   0  0  0  0  0  0  0  0  0  0  0  0
   -0.3019   -0.1370   -2.0140 H   0  0  0  0  0  0  0  0  0  0  0  0
    1.0816    0.7939   -1.4402 H   0  0  0  0  0  0  0  0  0  0  0  0
    1.4380   -1.3071   -1.7067 C   0  0  0  0  0  0  0  0  0  0  0  0
    1.2342   -2.0881   -2.6268 O   0  0  0  0  0  0  0  0  0  0  0  0
    2.5358   -1.4529   -0.9415 O   0  0  0  0  0  0  0  0  0  0  0  0
    3.0134   -2.1983   -1.3070 H   0  0  0  0  0  0  0  0  0  0  0  0
   -0.1923    1.1526    0.7617 C   0  0  0  0  0  0  0  0  0  0  0  0
   -1.1582    1.8438    0.4410 O   0  0  0  0  0  0  0  0  0  0  0  0
    0.7203    1.5683    1.6472 N   0  0  0  0  0  0  0  0  0  0  0  0
    1.5210    0.9664    1.8100 H   0  0  0  0  0  0  0  0  0  0  0  0
    0.6747    2.8558    2.3368 C   0  0  0  0  0  0  0  0  0  0  0  0
   -0.3018    2.9877    2.8079 H   0  0  0  0  0  0  0  0  0  0  0  0
    1.4516    2.8997    3.1011 H   0  0  0  0  0  0  0  0  0  0  0  0
    0.8279    3.6639    1.6193 H   0  0  0  0  0  0  0  0  0  0  0  0
  5  6  2  0  0  0  0
  5  7  1  0  0  0  0
  2  3  1  0  0  0  0
  2  4  1  0  0  0  0
  2  5  1  0  0  0  0
  1  2  1  0  0  0  0
 18 19  2  0  0  0  0
 18 20  1  0  0  0  0
 16 17  1  0  0  0  0
 14 15  2  0  0  0  0
 14 16  1  0  0  0  0
 11 12  1  0  0  0  0
 11 13  1  0  0  0  0
 11 14  1  0  0  0  0
  9 10  1  0  0  0  0
  9 11  1  0  0  0  0
  9 18  1  0  0  0  0
  7  8  1  0  0  0  0
  7  9  1  0  0  0  0
 22 23  1  0  0  0  0
 22 24  1  0  0  0  0
 22 25  1  0  0  0  0
 20 21  1  0  0  0  0
 20 22  1  0  0  0  0
M  END
$$$$
default_name
  -OEChem-02102213163D

 25 24  0     1  0  0  0  0  0999 V2000
   -2.7826   -3.8464    0.7821 H   0  0  0  0  0  0  0  0  0  0  0  0
   -2.8156   -2.8034    0.4711 C   0  0  0  0  0  0  0  0  0  0  0  0
   -3.4336   -2.2354    1.1641 H   0  0  0  0  0  0  0  0  0  0  0  0
   -3.2256   -2.7344   -0.5349 H   0  0  0  0  0  0  0  0  0  0  0  0
   -1.4126   -2.2444    0.4801 C   0  0  0  0  0  0  0  0  0  0  0  0
   -0.4686   -2.9534    0.8001 O   0  0  0  0  0  0  0  0  0  0  0  0
   -1.2736   -0.9704    0.1241 N   0  0  0  0  0  0  0  0  0  0  0  0
   -2.0996   -0.4354   -0.1019 H   0  0  0  0  0  0  0  0  0  0  0  0
   -0.0016   -0.2394    0.1271 C   0  0  1  0  0  0  0  0  0  0  0  0
    0.7164   -0.7963    0.7332 H   0  0  0  0  0  0  0  0  0  0  0  0
    0.5351   -0.1414   -1.3146 C   0  0  0  0  0  0  0  0  0  0  0  0
   -0.3019   -0.1370   -2.0140 H   0  0  0  0  0  0  0  0  0  0  0  0
    1.0816    0.7939   -1.4402 H   0  0  0  0  0  0  0  0  0  0  0  0
    1.4380   -1.3071   -1.7067 C   0  0  0  0  0  0  0  0  0  0  0  0
    1.3856   -1.9256   -2.7617 O   0  0  0  0  0  0  0  0  0  0  0  0
    2.3488   -1.6529   -0.7778 O   0  0  0  0  0  0  0  0  0  0  0  0
    2.8519   -2.3732   -1.1588 H   0  0  0  0  0  0  0  0  0  0  0  0
   -0.1923    1.1526    0.7617 C   0  0  0  0  0  0  0  0  0  0  0  0
   -1.1582    1.8438    0.4410 O   0  0  0  0  0  0  0  0  0  0  0  0
    0.7203    1.5683    1.6472 N   0  0  0  0  0  0  0  0  0  0  0  0
    1.5210    0.9664    1.8100 H   0  0  0  0  0  0  0  0  0  0  0  0
    0.6747    2.8558    2.3368 C   0  0  0  0  0  0  0  0  0  0  0  0
   -0.3018    2.9877    2.8079 H   0  0  0  0  0  0  0  0  0  0  0  0
    1.4516    2.8997    3.1011 H   0  0  0  0  0  0  0  0  0  0  0  0
    0.8279    3.6639    1.6193 H   0  0  0  0  0  0  0  0  0  0  0  0
  5  6  2  0  0  0  0
  5  7  1  0  0  0  0
  2  3  1  0  0  0  0
  2  4  1  0  0  0  0
  2  5  1  0  0  0  0
  1  2  1  0  0  0  0
 18 19  2  0  0  0  0
 18 20  1  0  0  0  0
 16 17  1  0  0  0  0
 14 15  2  0  0  0  0
 14 16  1  0  0  0  0
 11 12  1  0  0  0  0
 11 13  1  0  0  0  0
 11 14  1  0  0  0  0
  9 10  1  0  0  0  0
  9 11  1  0  0  0  0
  9 18  1  0  0  0  0
  7  8  1  0  0  0  0
  7  9  1  0  0  0  0
 22 23  1  0  0  0  0
 22 24  1  0  0  0  0
 22 25  1  0  0  0  0
 20 21  1  0  0  0  0
 20 22  1  0  0  0  0
M  END
$$$$
default_name
  -OEChem-02102213163D

 25 24  0     1  0  0  0  0  0999 V2000
   -2.7826   -3.8464    0.7821 H   0  0  0  0  0  0  0  0  0  0  0  0
   -2.8156   -2.8034    0.4711 C   0  0  0  0  0  0  0  0  0  0  0  0
   -3.4336   -2.2354    1.1641 H   0  0  0  0  0  0  0  0  0  0  0  0
   -3.2256   -2.7344   -0.5349 H   0  0  0  0  0  0  0  0  0  0  0  0
   -1.4126   -2.2444    0.4801 C   0  0  0  0  0  0  0  0  0  0  0  0
   -0.4686   -2.9534    0.8001 O   0  0  0  0  0  0  0  0  0  0  0  0
   -1.2736   -0.9704    0.1241 N   0  0  0  0  0  0  0  0  0  0  0  0
   -2.0996   -0.4354   -0.1019 H   0  0  0  0  0  0  0  0  0  0  0  0
   -0.0016   -0.2394    0.1271 C   0  0  1  0  0  0  0  0  0  0  0  0
    0.7164   -0.7963    0.7332 H   0  0  0  0  0  0  0  0  0  0  0  0
    0.5351   -0.1414   -1.3146 C   0  0  0  0  0  0  0  0  0  0  0  0
   -0.3019   -0.1370   -2.0140 H   0  0  0  0  0  0  0  0  0  0  0  0
    1.0816    0.7939   -1.4402 H   0  0  0  0  0  0  0  0  0  0  0  0
    1.4380   -1.3071   -1.7067 C   0  0  0  0  0  0  0  0  0  0  0  0
    1.5692   -1.7580   -2.8371 O   0  0  0  0  0  0  0  0  0  0  0  0
    2.1225   -1.8587   -0.6872 O   0  0  0  0  0  0  0  0  0  0  0  0
    2.6549   -2.5542   -1.0745 H   0  0  0  0  0  0  0  0  0  0  0  0
   -0.1923    1.1526    0.7617 C   0  0  0  0  0  0  0  0  0  0  0  0
   -1.1582    1.8438    0.4410 O   0  0  0  0  0  0  0  0  0  0  0  0
    0.7203    1.5683    1.6472 N   0  0  0  0  0  0  0  0  0  0  0  0
    1.5210    0.9664    1.8100 H   0  0  0  0  0  0  0  0  0  0  0  0
    0.6747    2.8558    2.3368 C   0  0  0  0  0  0  0  0  0  0  0  0
   -0.3018    2.9877    2.8079 H   0  0  0  0  0  0  0  0  0  0  0  0
    1.4516    2.8997    3.1011 H   0  0  0  0  0  0  0  0  0  0  0  0
    0.8279    3.6639    1.6193 H   0  0  0  0  0  0  0  0  0  0  0  0
  5  6  2  0  0  0  0
  5  7  1  0  0  0  0
  2  3  1  0  0  0  0
  2  4  1  0  0  0  0
  2  5  1  0  0  0  0
  1  2  1  0  0  0  0
 18 19  2  0  0  0  0
 18 20  1  0  0  0  0
 16 17  1  0  0  0  0
 14 15  2  0  0  0  0
 14 16  1  0  0  0  0
 11 12  1  0  0  0  0
 11 13  1  0  0  0  0
 11 14  1  0  0  0  0
  9 10  1  0  0  0  0
  9 11  1  0  0  0  0
  9 18  1  0  0  0  0
  7  8  1  0  0  0  0
  7  9  1  0  0  0  0
 22 23  1  0  0  0  0
 22 24  1  0  0  0  0
 22 25  1  0  0  0  0
 20 21  1  0  0  0  0
 20 22  1  0  0  0  0
M  END
$$$$
default_name
  -OEChem-02102213163D

 25 24  0     1  0  0  0  0  0999 V2000
   -2.7826   -3.8464    0.7821 H   0  0  0  0  0  0  0  0  0  0  0  0
   -2.8156   -2.8034    0.4711 C   0  0  0  0  0  0  0  0  0  0  0  0
   -3.4336   -2.2354    1.1641 H   0  0  0  0  0  0  0  0  0  0  0  0
   -3.2256   -2.7344   -0.5349 H   0  0  0  0  0  0  0  0  0  0  0  0
   -1.4126   -2.2444    0.4801 C   0  0  0  0  0  0  0  0  0  0  0  0
   -0.4686   -2.9534    0.8001 O   0  0  0  0  0  0  0  0  0  0  0  0
   -1.2736   -0.9704    0.1241 N   0  0  0  0  0  0  0  0  0  0  0  0
   -2.0996   -0.4354   -0.1019 H   0  0  0  0  0  0  0  0  0  0  0  0
   -0.0016   -0.2394    0.1271 C   0  0  1  0  0  0  0  0  0  0  0  0
    0.7164   -0.7963    0.7332 H   0  0  0  0  0  0  0  0  0  0  0  0
    0.5351   -0.1414   -1.3146 C   0  0  0  0  0  0  0  0  0  0  0  0
   -0.3019   -0.1370   -2.0140 H   0  0  0  0  0  0  0  0  0  0  0  0
    1.0816    0.7939   -1.4402 H   0  0  0  0  0  0  0  0  0  0  0  0
    1.4380   -1.3071   -1.7067 C   0  0  0  0  0  0  0  0  0  0  0  0
    1.7726   -1.5967   -2.8479 O   0  0  0  0  0  0  0  0  0  0  0  0
    1.8723   -2.0562   -0.6760 O   0  0  0  0  0  0  0  0  0  0  0  0
    2.4360   -2.7288   -1.0596 H   0  0  0  0  0  0  0  0  0  0  0  0
   -0.1923    1.1526    0.7617 C   0  0  0  0  0  0  0  0  0  0  0  0
   -1.1582    1.8438    0.4410 O   0  0  0  0  0  0  0  0  0  0  0  0
    0.7203    1.5683    1.6472 N   0  0  0  0  0  0  0  0  0  0  0  0
    1.5210    0.9664    1.8100 H   0  0  0  0  0  0  0  0  0  0  0  0
    0.6747    2.8558    2.3368 C   0  0  0  0  0  0  0  0  0  0  0  0
   -0.3018    2.9877    2.8079 H   0  0  0  0  0  0  0  0  0  0  0  0
    1.4516    2.8997    3.1011 H   0  0  0  0  0  0  0  0  0  0  0  0
    0.8279    3.6639    1.6193 H   0  0  0  0  0  0  0  0  0  0  0  0
  5  6  2  0  0  0  0
  5  7  1  0  0  0  0
  2  3  1  0  0  0  0
  2  4  1  0  0  0  0
  2  5  1  0  0  0  0
  1  2  1  0  0  0  0
 18 19  2  0  0  0  0
 18 20  1  0  0  0  0
 16 17  1  0  0  0  0
 14 15  2  0  0  0  0
 14 16  1  0  0  0  0
 11 12  1  0  0  0  0
 11 13  1  0  0  0  0
 11 14  1  0  0  0  0
  9 10  1  0  0  0  0
  9 11  1  0  0  0  0
  9 18  1  0  0  0  0
  7  8  1  0  0  0  0
  7  9  1  0  0  0  0
 22 23  1  0  0  0  0
 22 24  1  0  0  0  0
 22 25  1  0  0  0  0
 20 21  1  0  0  0  0
 20 22  1  0  0  0  0
M  END
$$$$
default_name
  -OEChem-02102213163D

 25 24  0     1  0  0  0  0  0999 V2000
   -2.7826   -3.8464    0.7821 H   0  0  0  0  0  0  0  0  0  0  0  0
   -2.8156   -2.8034    0.4711 C   0  0  0  0  0  0  0  0  0  0  0  0
   -3.4336   -2.2354    1.1641 H   0  0  0  0  0  0  0  0  0  0  0  0
   -3.2256   -2.7344   -0.5349 H   0  0  0  0  0  0  0  0  0  0  0  0
   -1.4126   -2.2444    0.4801 C   0  0  0  0  0  0  0  0  0  0  0  0
   -0.4686   -2.9534    0.8001 O   0  0  0  0  0  0  0  0  0  0  0  0
   -1.2736   -0.9704    0.1241 N   0  0  0  0  0  0  0  0  0  0  0  0
   -2.0996   -0.4354   -0.1019 H   0  0  0  0  0  0  0  0  0  0  0  0
   -0.0016   -0.2394    0.1271 C   0  0  1  0  0  0  0  0  0  0  0  0
    0.7164   -0.7963    0.7332 H   0  0  0  0  0  0  0  0  0  0  0  0
    0.5351   -0.1414   -1.3146 C   0  0  0  0  0  0  0  0  0  0  0  0
   -0.2795    0.1293   -1.9875 H   0  0  0  0  0  0  0  0  0  0  0  0
    1.2917    0.6418   -1.3724 H   0  0  0  0  0  0  0  0  0  0  0  0
    1.1258   -1.4493   -1.8325 C   0  0  0  0  0  0  0  0  0  0  0  0
    1.6123   -1.6212   -2.9425 O   0  0  0  0  0  0  0  0  0  0  0  0
    1.0783   -2.4744   -0.9613 O   0  0  0  0  0  0  0  0  0  0  0  0
    1.4946   -3.2146   -1.4040 H   0  0  0  0  0  0  0  0  0  0  0  0
   -0.1923    1.1526    0.7617 C   0  0  0  0  0  0  0  0  0  0  0  0
   -1.1582    1.8438    0.4410 O   0  0  0  0  0  0  0  0  0  0  0  0
    0.7203    1.5683    1.6472 N   0  0  0  0  0  0  0  0  0  0  0  0
    1.5210    0.9664    1.8100 H   0  0  0  0  0  0  0  0  0  0  0  0
    0.6747    2.8558    2.3368 C   0  0  0  0  0  0  0  0  0  0  0  0
   -0.3018    2.9877    2.8079 H   0  0  0  0  0  0  0  0  0  0  0  0
    1.4516    2.8997    3.1011 H   0  0  0  0  0  0  0  0  0  0  0  0
    0.8279    3.6639    1.6193 H   0  0  0  0  0  0  0  0  0  0  0  0
  5  6  2  0  0  0  0
  5  7  1  0  0  0  0
  2  3  1  0  0  0  0
  2  4  1  0  0  0  0
  2  5  1  0  0  0  0
  1  2  1  0  0  0  0
 18 19  2  0  0  0  0
 18 20  1  0  0  0  0
 16 17  1  0  0  0  0
 14 15  2  0  0  0  0
 14 16  1  0  0  0  0
 11 12  1  0  0  0  0
 11 13  1  0  0  0  0
 11 14  1  0  0  0  0
  9 10  1  0  0  0  0
  9 11  1  0  0  0  0
  9 18  1  0  0  0  0
  7  8  1  0  0  0  0
  7  9  1  0  0  0  0
 22 23  1  0  0  0  0
 22 24  1  0  0  0  0
 22 25  1  0  0  0  0
 20 21  1  0  0  0  0
 20 22  1  0  0  0  0
M  END
$$$$
default_name
  -OEChem-02102213163D

 25 24  0     1  0  0  0  0  0999 V2000
   -2.7826   -3.8464    0.7821 H   0  0  0  0  0  0  0  0  0  0  0  0
   -2.8156   -2.8034    0.4711 C   0  0  0  0  0  0  0  0  0  0  0  0
   -3.4336   -2.2354    1.1641 H   0  0  0  0  0  0  0  0  0  0  0  0
   -3.2256   -2.7344   -0.5349 H   0  0  0  0  0  0  0  0  0  0  0  0
   -1.4126   -2.2444    0.4801 C   0  0  0  0  0  0  0  0  0  0  0  0
   -0.4686   -2.9534    0.8001 O   0  0  0  0  0  0  0  0  0  0  0  0
   -1.2736   -0.9704    0.1241 N   0  0  0  0  0  0  0  0  0  0  0  0
   -2.0996   -0.4354   -0.1019 H   0  0  0  0  0  0  0  0  0  0  0  0
   -0.0016   -0.2394    0.1271 C   0  0  1  0  0  0  0  0  0  0  0  0
    0.7164   -0.7963    0.7332 H   0  0  0  0  0  0  0  0  0  0  0  0
    0.5351   -0.1414   -1.3146 C   0  0  0  0  0  0  0  0  0  0  0  0
   -0.2795    0.1293   -1.9875 H   0  0  0  0  0  0  0  0  0  0  0  0
    1.2917    0.6418   -1.3724 H   0  0  0  0  0  0  0  0  0  0  0  0
    1.1258   -1.4493   -1.8325 C   0  0  0  0  0  0  0  0  0  0  0  0
    1.8363   -1.5677   -2.8222 O   0  0  0  0  0  0  0  0  0  0  0  0
    0.8040   -2.5391   -1.1108 O   0  0  0  0  0  0  0  0  0  0  0  0
    1.2518   -3.2739   -1.5311 H   0  0  0  0  0  0  0  0  0  0  0  0
   -0.1923    1.1526    0.7617 C   0  0  0  0  0  0  0  0  0  0  0  0
   -1.1582    1.8438    0.4410 O   0  0  0  0  0  0  0  0  0  0  0  0
    0.7203    1.5683    1.6472 N   0  0  0  0  0  0  0  0  0  0  0  0
    1.5210    0.9664    1.8100 H   0  0  0  0  0  0  0  0  0  0  0  0
    0.6747    2.8558    2.3368 C   0  0  0  0  0  0  0  0  0  0  0  0
   -0.3018    2.9877    2.8079 H   0  0  0  0  0  0  0  0  0  0  0  0
    1.4516    2.8997    3.1011 H   0  0  0  0  0  0  0  0  0  0  0  0
    0.8279    3.6639    1.6193 H   0  0  0  0  0  0  0  0  0  0  0  0
  5  6  2  0  0  0  0
  5  7  1  0  0  0  0
  2  3  1  0  0  0  0
  2  4  1  0  0  0  0
  2  5  1  0  0  0  0
  1  2  1  0  0  0  0
 18 19  2  0  0  0  0
 18 20  1  0  0  0  0
 16 17  1  0  0  0  0
 14 15  2  0  0  0  0
 14 16  1  0  0  0  0
 11 12  1  0  0  0  0
 11 13  1  0  0  0  0
 11 14  1  0  0  0  0
  9 10  1  0  0  0  0
  9 11  1  0  0  0  0
  9 18  1  0  0  0  0
  7  8  1  0  0  0  0
  7  9  1  0  0  0  0
 22 23  1  0  0  0  0
 22 24  1  0  0  0  0
 22 25  1  0  0  0  0
 20 21  1  0  0  0  0
 20 22  1  0  0  0  0
M  END
$$$$
default_name
  -OEChem-02102213163D

 25 24  0     1  0  0  0  0  0999 V2000
   -2.7826   -3.8464    0.7821 H   0  0  0  0  0  0  0  0  0  0  0  0
   -2.8156   -2.8034    0.4711 C   0  0  0  0  0  0  0  0  0  0  0  0
   -3.4336   -2.2354    1.1641 H   0  0  0  0  0  0  0  0  0  0  0  0
   -3.2256   -2.7344   -0.5349 H   0  0  0  0  0  0  0  0  0  0  0  0
   -1.4126   -2.2444    0.4801 C   0  0  0  0  0  0  0  0  0  0  0  0
   -0.4686   -2.9534    0.8001 O   0  0  0  0  0  0  0  0  0  0  0  0
   -1.2736   -0.9704    0.1241 N   0  0  0  0  0  0  0  0  0  0  0  0
   -2.0996   -0.4354   -0.1019 H   0  0  0  0  0  0  0  0  0  0  0  0
   -0.0016   -0.2394    0.1271 C   0  0  1  0  0  0  0  0  0  0  0  0
    0.7164   -0.7963    0.7332 H   0  0  0  0  0  0  0  0  0  0  0  0
    0.5351   -0.1414   -1.3146 C   0  0  0  0  0  0  0  0  0  0  0  0
   -0.2795    0.1293   -1.9875 H   0  0  0  0  0  0  0  0  0  0  0  0
    1.2917    0.6418   -1.3724 H   0  0  0  0  0  0  0  0  0  0  0  0
    1.1258   -1.4493   -1.8325 C   0  0  0  0  0  0  0  0  0  0  0  0
    2.0307   -1.5477   -2.6510 O   0  0  0  0  0  0  0  0  0  0  0  0
    0.5665   -2.5625   -1.3226 O   0  0  0  0  0  0  0  0  0  0  0  0
    1.0403   -3.2971   -1.7138 H   0  0  0  0  0  0  0  0  0  0  0  0
   -0.1923    1.1526    0.7617 C   0  0  0  0  0  0  0  0  0  0  0  0
   -1.1582    1.8438    0.4410 O   0  0  0  0  0  0  0  0  0  0  0  0
    0.7203    1.5683    1.6472 N   0  0  0  0  0  0  0  0  0  0  0  0
    1.5210    0.9664    1.8100 H   0  0  0  0  0  0  0  0  0  0  0  0
    0.6747    2.8558    2.3368 C   0  0  0  0  0  0  0  0  0  0  0  0
   -0.3018    2.9877    2.8079 H   0  0  0  0  0  0  0  0  0  0  0  0
    1.4516    2.8997    3.1011 H   0  0  0  0  0  0  0  0  0  0  0  0
    0.8279    3.6639    1.6193 H   0  0  0  0  0  0  0  0  0  0  0  0
  5  6  2  0  0  0  0
  5  7  1  0  0  0  0
  2  3  1  0  0  0  0
  2  4  1  0  0  0  0
  2  5  1  0  0  0  0
  1  2  1  0  0  0  0
 18 19  2  0  0  0  0
 18 20  1  0  0  0  0
 16 17  1  0  0  0  0
 14 15  2  0  0  0  0
 14 16  1  0  0  0  0
 11 12  1  0  0  0  0
 11 13  1  0  0  0  0
 11 14  1  0  0  0  0
  9 10  1  0  0  0  0
  9 11  1  0  0  0  0
  9 18  1  0  0  0  0
  7  8  1  0  0  0  0
  7  9  1  0  0  0  0
 22 23  1  0  0  0  0
 22 24  1  0  0  0  0
 22 25  1  0  0  0  0
 20 21  1  0  0  0  0
 20 22  1  0  0  0  0
M  END
$$$$
default_name
  -OEChem-02102213163D

 25 24  0     1  0  0  0  0  0999 V2000
   -2.7826   -3.8464    0.7821 H   0  0  0  0  0  0  0  0  0  0  0  0
   -2.8156   -2.8034    0.4711 C   0  0  0  0  0  0  0  0  0  0  0  0
   -3.4336   -2.2354    1.1641 H   0  0  0  0  0  0  0  0  0  0  0  0
   -3.2256   -2.7344   -0.5349 H   0  0  0  0  0  0  0  0  0  0  0  0
   -1.4126   -2.2444    0.4801 C   0  0  0  0  0  0  0  0  0  0  0  0
   -0.4686   -2.9534    0.8001 O   0  0  0  0  0  0  0  0  0  0  0  0
   -1.2736   -0.9704    0.1241 N   0  0  0  0  0  0  0  0  0  0  0  0
   -2.0996   -0.4354   -0.1019 H   0  0  0  0  0  0  0  0  0  0  0  0
   -0.0016   -0.2394    0.1271 C   0  0  1  0  0  0  0  0  0  0  0  0
    0.7164   -0.7963    0.7332 H   0  0  0  0  0  0  0  0  0  0  0  0
    0.5351   -0.1414   -1.3146 C   0  0  0  0  0  0  0  0  0  0  0  0
   -0.2795    0.1293   -1.9875 H   0  0  0  0  0  0  0  0  0  0  0  0
    1.2917    0.6418   -1.3724 H   0  0  0  0  0  0  0  0  0  0  0  0
    1.1258   -1.4493   -1.8325 C   0  0  0  0  0  0  0  0  0  0  0  0
    2.1822   -1.5627   -2.4404 O   0  0  0  0  0  0  0  0  0  0  0  0
    0.3821   -2.5430   -1.5821 O   0  0  0  0  0  0  0  0  0  0  0  0
    0.8745   -3.2827   -1.9395 H   0  0  0  0  0  0  0  0  0  0  0  0
   -0.1923    1.1526    0.7617 C   0  0  0  0  0  0  0  0  0  0  0  0
   -1.1582    1.8438    0.4410 O   0  0  0  0  0  0  0  0  0  0  0  0
    0.7203    1.5683    1.6472 N   0  0  0  0  0  0  0  0  0  0  0  0
    1.5210    0.9664    1.8100 H   0  0  0  0  0  0  0  0  0  0  0  0
    0.6747    2.8558    2.3368 C   0  0  0  0  0  0  0  0  0  0  0  0
   -0.3018    2.9877    2.8079 H   0  0  0  0  0  0  0  0  0  0  0  0
    1.4516    2.8997    3.1011 H   0  0  0  0  0  0  0  0  0  0  0  0
    0.8279    3.6639    1.6193 H   0  0  0  0  0  0  0  0  0  0  0  0
  5  6  2  0  0  0  0
  5  7  1  0  0  0  0
  2  3  1  0  0  0  0
  2  4  1  0  0  0  0
  2  5  1  0  0  0  0
  1  2  1  0  0  0  0
 18 19  2  0  0  0  0
 18 20  1  0  0  0  0
 16 17  1  0  0  0  0
 14 15  2  0  0  0  0
 14 16  1  0  0  0  0
 11 12  1  0  0  0  0
 11 13  1  0  0  0  0
 11 14  1  0  0  0  0
  9 10  1  0  0  0  0
  9 11  1  0  0  0  0
  9 18  1  0  0  0  0
  7  8  1  0  0  0  0
  7  9  1  0  0  0  0
 22 23  1  0  0  0  0
 22 24  1  0  0  0  0
 22 25  1  0  0  0  0
 20 21  1  0  0  0  0
 20 22  1  0  0  0  0
M  END
$$$$
default_name
  -OEChem-02102213163D

 25 24  0     1  0  0  0  0  0999 V2000
   -2.7826   -3.8464    0.7821 H   0  0  0  0  0  0  0  0  0  0  0  0
   -2.8156   -2.8034    0.4711 C   0  0  0  0  0  0  0  0  0  0  0  0
   -3.4336   -2.2354    1.1641 H   0  0  0  0  0  0  0  0  0  0  0  0
   -3.2256   -2.7344   -0.5349 H   0  0  0  0  0  0  0  0  0  0  0  0
   -1.4126   -2.2444    0.4801 C   0  0  0  0  0  0  0  0  0  0  0  0
   -0.4686   -2.9534    0.8001 O   0  0  0  0  0  0  0  0  0  0  0  0
   -1.2736   -0.9704    0.1241 N   0  0  0  0  0  0  0  0  0  0  0  0
   -2.0996   -0.4354   -0.1019 H   0  0  0  0  0  0  0  0  0  0  0  0
   -0.0016   -0.2394    0.1271 C   0  0  1  0  0  0  0  0  0  0  0  0
    0.7164   -0.7963    0.7332 H   0  0  0  0  0  0  0  0  0  0  0  0
    0.5351   -0.1414   -1.3146 C   0  0  0  0  0  0  0  0  0  0  0  0
   -0.2795    0.1293   -1.9875 H   0  0  0  0  0  0  0  0  0  0  0  0
    1.2917    0.6418   -1.3724 H   0  0  0  0  0  0  0  0  0  0  0  0
    1.1258   -1.4493   -1.8325 C   0  0  0  0  0  0  0  0  0  0  0  0
    2.2805   -1.6115   -2.2049 O   0  0  0  0  0  0  0  0  0  0  0  0
    0.2632   -2.4820   -1.8718 O   0  0  0  0  0  0  0  0  0  0  0  0
    0.7656   -3.2315   -2.1928 H   0  0  0  0  0  0  0  0  0  0  0  0
   -0.1923    1.1526    0.7617 C   0  0  0  0  0  0  0  0  0  0  0  0
   -1.1582    1.8438    0.4410 O   0  0  0  0  0  0  0  0  0  0  0  0
    0.7203    1.5683    1.6472 N   0  0  0  0  0  0  0  0  0  0  0  0
    1.5210    0.9664    1.8100 H   0  0  0  0  0  0  0  0  0  0  0  0
    0.6747    2.8558    2.3368 C   0  0  0  0  0  0  0  0  0  0  0  0
   -0.3018    2.9877    2.8079 H   0  0  0  0  0  0  0  0  0  0  0  0
    1.4516    2.8997    3.1011 H   0  0  0  0  0  0  0  0  0  0  0  0
    0.8279    3.6639    1.6193 H   0  0  0  0  0  0  0  0  0  0  0  0
  5  6  2  0  0  0  0
  5  7  1  0  0  0  0
  2  3  1  0  0  0  0
  2  4  1  0  0  0  0
  2  5  1  0  0  0  0
  1  2  1  0  0  0  0
 18 19  2  0  0  0  0
 18 20  1  0  0  0  0
 16 17  1  0  0  0  0
 14 15  2  0  0  0  0
 14 16  1  0  0  0  0
 11 12  1  0  0  0  0
 11 13  1  0  0  0  0
 11 14  1  0  0  0  0
  9 10  1  0  0  0  0
  9 11  1  0  0  0  0
  9 18  1  0  0  0  0
  7  8  1  0  0  0  0
  7  9  1  0  0  0  0
 22 23  1  0  0  0  0
 22 24  1  0  0  0  0
 22 25  1  0  0  0  0
 20 21  1  0  0  0  0
 20 22  1  0  0  0  0
M  END
$$$$
default_name
  -OEChem-02102213163D

 25 24  0     1  0  0  0  0  0999 V2000
   -2.7826   -3.8464    0.7821 H   0  0  0  0  0  0  0  0  0  0  0  0
   -2.8156   -2.8034    0.4711 C   0  0  0  0  0  0  0  0  0  0  0  0
   -3.4336   -2.2354    1.1641 H   0  0  0  0  0  0  0  0  0  0  0  0
   -3.2256   -2.7344   -0.5349 H   0  0  0  0  0  0  0  0  0  0  0  0
   -1.4126   -2.2444    0.4801 C   0  0  0  0  0  0  0  0  0  0  0  0
   -0.4686   -2.9534    0.8001 O   0  0  0  0  0  0  0  0  0  0  0  0
   -1.2736   -0.9704    0.1241 N   0  0  0  0  0  0  0  0  0  0  0  0
   -2.0996   -0.4354   -0.1019 H   0  0  0  0  0  0  0  0  0  0  0  0
   -0.0016   -0.2394    0.1271 C   0  0  1  0  0  0  0  0  0  0  0  0
    0.7164   -0.7963    0.7332 H   0  0  0  0  0  0  0  0  0  0  0  0
    0.5351   -0.1414   -1.3146 C   0  0  0  0  0  0  0  0  0  0  0  0
   -0.2795    0.1293   -1.9875 H   0  0  0  0  0  0  0  0  0  0  0  0
    1.2917    0.6418   -1.3724 H   0  0  0  0  0  0  0  0  0  0  0  0
    1.1258   -1.4493   -1.8325 C   0  0  0  0  0  0  0  0  0  0  0  0
    2.3189   -1.6909   -1.9606 O   0  0  0  0  0  0  0  0  0  0  0  0
    0.2181   -2.3836   -2.1718 O   0  0  0  0  0  0  0  0  0  0  0  0
    0.7212   -3.1472   -2.4565 H   0  0  0  0  0  0  0  0  0  0  0  0
   -0.1923    1.1526    0.7617 C   0  0  0  0  0  0  0  0  0  0  0  0
   -1.1582    1.8438    0.4410 O   0  0  0  0  0  0  0  0  0  0  0  0
    0.7203    1.5683    1.6472 N   0  0  0  0  0  0  0  0  0  0  0  0
    1.5210    0.9664    1.8100 H   0  0  0  0  0  0  0  0  0  0  0  0
    0.6747    2.8558    2.3368 C   0  0  0  0  0  0  0  0  0  0  0  0
   -0.3018    2.9877    2.8079 H   0  0  0  0  0  0  0  0  0  0  0  0
    1.4516    2.8997    3.1011 H   0  0  0  0  0  0  0  0  0  0  0  0
    0.8279    3.6639    1.6193 H   0  0  0  0  0  0  0  0  0  0  0  0
  5  6  2  0  0  0  0
  5  7  1  0  0  0  0
  2  3  1  0  0  0  0
  2  4  1  0  0  0  0
  2  5  1  0  0  0  0
  1  2  1  0  0  0  0
 18 19  2  0  0  0  0
 18 20  1  0  0  0  0
 16 17  1  0  0  0  0
 14 15  2  0  0  0  0
 14 16  1  0  0  0  0
 11 12  1  0  0  0  0
 11 13  1  0  0  0  0
 11 14  1  0  0  0  0
  9 10  1  0  0  0  0
  9 11  1  0  0  0  0
  9 18  1  0  0  0  0
  7  8  1  0  0  0  0
  7  9  1  0  0  0  0
 22 23  1  0  0  0  0
 22 24  1  0  0  0  0
 22 25  1  0  0  0  0
 20 21  1  0  0  0  0
 20 22  1  0  0  0  0
M  END
$$$$
default_name
  -OEChem-02102213163D

 25 24  0     1  0  0  0  0  0999 V2000
   -2.7826   -3.8464    0.7821 H   0  0  0  0  0  0  0  0  0  0  0  0
   -2.8156   -2.8034    0.4711 C   0  0  0  0  0  0  0  0  0  0  0  0
   -3.4336   -2.2354    1.1641 H   0  0  0  0  0  0  0  0  0  0  0  0
   -3.2256   -2.7344   -0.5349 H   0  0  0  0  0  0  0  0  0  0  0  0
   -1.4126   -2.2444    0.4801 C   0  0  0  0  0  0  0  0  0  0  0  0
   -0.4686   -2.9534    0.8001 O   0  0  0  0  0  0  0  0  0  0  0  0
   -1.2736   -0.9704    0.1241 N   0  0  0  0  0  0  0  0  0  0  0  0
   -2.0996   -0.4354   -0.1019 H   0  0  0  0  0  0  0  0  0  0  0  0
   -0.0016   -0.2394    0.1271 C   0  0  1  0  0  0  0  0  0  0  0  0
    0.7164   -0.7963    0.7332 H   0  0  0  0  0  0  0  0  0  0  0  0
    0.5351   -0.1414   -1.3146 C   0  0  0  0  0  0  0  0  0  0  0  0
   -0.2795    0.1293   -1.9875 H   0  0  0  0  0  0  0  0  0  0  0  0
    1.2917    0.6418   -1.3724 H   0  0  0  0  0  0  0  0  0  0  0  0
    1.1258   -1.4493   -1.8325 C   0  0  0  0  0  0  0  0  0  0  0  0
    2.2949   -1.7955   -1.7239 O   0  0  0  0  0  0  0  0  0  0  0  0
    0.2496   -2.2545   -2.4618 O   0  0  0  0  0  0  0  0  0  0  0  0
    0.7441   -3.0353   -2.7127 H   0  0  0  0  0  0  0  0  0  0  0  0
   -0.1923    1.1526    0.7617 C   0  0  0  0  0  0  0  0  0  0  0  0
   -1.1582    1.8438    0.4410 O   0  0  0  0  0  0  0  0  0  0  0  0
    0.7203    1.5683    1.6472 N   0  0  0  0  0  0  0  0  0  0  0  0
    1.5210    0.9664    1.8100 H   0  0  0  0  0  0  0  0  0  0  0  0
    0.6747    2.8558    2.3368 C   0  0  0  0  0  0  0  0  0  0  0  0
   -0.3018    2.9877    2.8079 H   0  0  0  0  0  0  0  0  0  0  0  0
    1.4516    2.8997    3.1011 H   0  0  0  0  0  0  0  0  0  0  0  0
    0.8279    3.6639    1.6193 H   0  0  0  0  0  0  0  0  0  0  0  0
  5  6  2  0  0  0  0
  5  7  1  0  0  0  0
  2  3  1  0  0  0  0
  2  4  1  0  0  0  0
  2  5  1  0  0  0  0
  1  2  1  0  0  0  0
 18 19  2  0  0  0  0
 18 20  1  0  0  0  0
 16 17  1  0  0  0  0
 14 15  2  0  0  0  0
 14 16  1  0  0  0  0
 11 12  1  0  0  0  0
 11 13  1  0  0  0  0
 11 14  1  0  0  0  0
  9 10  1  0  0  0  0
  9 11  1  0  0  0  0
  9 18  1  0  0  0  0
  7  8  1  0  0  0  0
  7  9  1  0  0  0  0
 22 23  1  0  0  0  0
 22 24  1  0  0  0  0
 22 25  1  0  0  0  0
 20 21  1  0  0  0  0
 20 22  1  0  0  0  0
M  END
$$$$
default_name
  -OEChem-02102213163D

 25 24  0     1  0  0  0  0  0999 V2000
   -2.7826   -3.8464    0.7821 H   0  0  0  0  0  0  0  0  0  0  0  0
   -2.8156   -2.8034    0.4711 C   0  0  0  0  0  0  0  0  0  0  0  0
   -3.4336   -2.2354    1.1641 H   0  0  0  0  0  0  0  0  0  0  0  0
   -3.2256   -2.7344   -0.5349 H   0  0  0  0  0  0  0  0  0  0  0  0
   -1.4126   -2.2444    0.4801 C   0  0  0  0  0  0  0  0  0  0  0  0
   -0.4686   -2.9534    0.8001 O   0  0  0  0  0  0  0  0  0  0  0  0
   -1.2736   -0.9704    0.1241 N   0  0  0  0  0  0  0  0  0  0  0  0
   -2.0996   -0.4354   -0.1019 H   0  0  0  0  0  0  0  0  0  0  0  0
   -0.0016   -0.2394    0.1271 C   0  0  1  0  0  0  0  0  0  0  0  0
    0.7164   -0.7963    0.7332 H   0  0  0  0  0  0  0  0  0  0  0  0
    0.5351   -0.1414   -1.3146 C   0  0  0  0  0  0  0  0  0  0  0  0
   -0.2795    0.1293   -1.9875 H   0  0  0  0  0  0  0  0  0  0  0  0
    1.2917    0.6418   -1.3724 H   0  0  0  0  0  0  0  0  0  0  0  0
    1.1258   -1.4493   -1.8325 C   0  0  0  0  0  0  0  0  0  0  0  0
    2.2099   -1.9181   -1.5112 O   0  0  0  0  0  0  0  0  0  0  0  0
    0.3558   -2.1035   -2.7220 O   0  0  0  0  0  0  0  0  0  0  0  0
    0.8330   -2.9037   -2.9438 H   0  0  0  0  0  0  0  0  0  0  0  0
   -0.1923    1.1526    0.7617 C   0  0  0  0  0  0  0  0  0  0  0  0
   -1.1582    1.8438    0.4410 O   0  0  0  0  0  0  0  0  0  0  0  0
    0.7203    1.5683    1.6472 N   0  0  0  0  0  0  0  0  0  0  0  0
    1.5210    0.9664    1.8100 H   0  0  0  0  0  0  0  0  0  0  0  0
    0.6747    2.8558    2.3368 C   0  0  0  0  0  0  0  0  0  0  0  0
   -0.3018    2.9877    2.8079 H   0  0  0  0  0  0  0  0  0  0  0  0
    1.4516    2.8997    3.1011 H   0  0  0  0  0  0  0  0  0  0  0  0
    0.8279    3.6639    1.6193 H   0  0  0  0  0  0  0  0  0  0  0  0
  5  6  2  0  0  0  0
  5  7  1  0  0  0  0
  2  3  1  0  0  0  0
  2  4  1  0  0  0  0
  2  5  1  0  0  0  0
  1  2  1  0  0  0  0
 18 19  2  0  0  0  0
 18 20  1  0  0  0  0
 16 17  1  0  0  0  0
 14 15  2  0  0  0  0
 14 16  1  0  0  0  0
 11 12  1  0  0  0  0
 11 13  1  0  0  0  0
 11 14  1  0  0  0  0
  9 10  1  0  0  0  0
  9 11  1  0  0  0  0
  9 18  1  0  0  0  0
  7  8  1  0  0  0  0
  7  9  1  0  0  0  0
 22 23  1  0  0  0  0
 22 24  1  0  0  0  0
 22 25  1  0  0  0  0
 20 21  1  0  0  0  0
 20 22  1  0  0  0  0
M  END
$$$$
default_name
  -OEChem-02102213163D

 25 24  0     1  0  0  0  0  0999 V2000
   -2.7826   -3.8464    0.7821 H   0  0  0  0  0  0  0  0  0  0  0  0
   -2.8156   -2.8034    0.4711 C   0  0  0  0  0  0  0  0  0  0  0  0
   -3.4336   -2.2354    1.1641 H   0  0  0  0  0  0  0  0  0  0  0  0
   -3.2256   -2.7344   -0.5349 H   0  0  0  0  0  0  0  0  0  0  0  0
   -1.4126   -2.2444    0.4801 C   0  0  0  0  0  0  0  0  0  0  0  0
   -0.4686   -2.9534    0.8001 O   0  0  0  0  0  0  0  0  0  0  0  0
   -1.2736   -0.9704    0.1241 N   0  0  0  0  0  0  0  0  0  0  0  0
   -2.0996   -0.4354   -0.1019 H   0  0  0  0  0  0  0  0  0  0  0  0
   -0.0016   -0.2394    0.1271 C   0  0  1  0  0  0  0  0  0  0  0  0
    0.7164   -0.7963    0.7332 H   0  0  0  0  0  0  0  0  0  0  0  0
    0.5351   -0.1414   -1.3146 C   0  0  0  0  0  0  0  0  0  0  0  0
   -0.2795    0.1293   -1.9875 H   0  0  0  0  0  0  0  0  0  0  0  0
    1.2917    0.6418   -1.3724 H   0  0  0  0  0  0  0  0  0  0  0  0
    1.1258   -1.4493   -1.8325 C   0  0  0  0  0  0  0  0  0  0  0  0
    2.0699   -2.0504   -1.3368 O   0  0  0  0  0  0  0  0  0  0  0  0
    0.5294   -1.9409   -2.9346 O   0  0  0  0  0  0  0  0  0  0  0  0
    0.9817   -2.7612   -3.1341 H   0  0  0  0  0  0  0  0  0  0  0  0
   -0.1923    1.1526    0.7617 C   0  0  0  0  0  0  0  0  0  0  0  0
   -1.1582    1.8438    0.4410 O   0  0  0  0  0  0  0  0  0  0  0  0
    0.7203    1.5683    1.6472 N   0  0  0  0  0  0  0  0  0  0  0  0
    1.5210    0.9664    1.8100 H   0  0  0  0  0  0  0  0  0  0  0  0
    0.6747    2.8558    2.3368 C   0  0  0  0  0  0  0  0  0  0  0  0
   -0.3018    2.9877    2.8079 H   0  0  0  0  0  0  0  0  0  0  0  0
    1.4516    2.8997    3.1011 H   0  0  0  0  0  0  0  0  0  0  0  0
    0.8279    3.6639    1.6193 H   0  0  0  0  0  0  0  0  0  0  0  0
  5  6  2  0  0  0  0
  5  7  1  0  0  0  0
  2  3  1  0  0  0  0
  2  4  1  0  0  0  0
  2  5  1  0  0  0  0
  1  2  1  0  0  0  0
 18 19  2  0  0  0  0
 18 20  1  0  0  0  0
 16 17  1  0  0  0  0
 14 15  2  0  0  0  0
 14 16  1  0  0  0  0
 11 12  1  0  0  0  0
 11 13  1  0  0  0  0
 11 14  1  0  0  0  0
  9 10  1  0  0  0  0
  9 11  1  0  0  0  0
  9 18  1  0  0  0  0
  7  8  1  0  0  0  0
  7  9  1  0  0  0  0
 22 23  1  0  0  0  0
 22 24  1  0  0  0  0
 22 25  1  0  0  0  0
 20 21  1  0  0  0  0
 20 22  1  0  0  0  0
M  END
$$$$
default_name
  -OEChem-02102213163D

 25 24  0     1  0  0  0  0  0999 V2000
   -2.7826   -3.8464    0.7821 H   0  0  0  0  0  0  0  0  0  0  0  0
   -2.8156   -2.8034    0.4711 C   0  0  0  0  0  0  0  0  0  0  0  0
   -3.4336   -2.2354    1.1641 H   0  0  0  0  0  0  0  0  0  0  0  0
   -3.2256   -2.7344   -0.5349 H   0  0  0  0  0  0  0  0  0  0  0  0
   -1.4126   -2.2444    0.4801 C   0  0  0  0  0  0  0  0  0  0  0  0
   -0.4686   -2.9534    0.8001 O   0  0  0  0  0  0  0  0  0  0  0  0
   -1.2736   -0.9704    0.1241 N   0  0  0  0  0  0  0  0  0  0  0  0
   -2.0996   -0.4354   -0.1019 H   0  0  0  0  0  0  0  0  0  0  0  0
   -0.0016   -0.2394    0.1271 C   0  0  1  0  0  0  0  0  0  0  0  0
    0.7164   -0.7963    0.7332 H   0  0  0  0  0  0  0  0  0  0  0  0
    0.5351   -0.1414   -1.3146 C   0  0  0  0  0  0  0  0  0  0  0  0
   -0.2795    0.1293   -1.9875 H   0  0  0  0  0  0  0  0  0  0  0  0
    1.2917    0.6418   -1.3724 H   0  0  0  0  0  0  0  0  0  0  0  0
    1.1258   -1.4493   -1.8325 C   0  0  0  0  0  0  0  0  0  0  0  0
    1.8844   -2.1833   -1.2128 O   0  0  0  0  0  0  0  0  0  0  0  0
    0.7585   -1.7778   -3.0852 O   0  0  0  0  0  0  0  0  0  0  0  0
    1.1801   -2.6175   -3.2707 H   0  0  0  0  0  0  0  0  0  0  0  0
   -0.1923    1.1526    0.7617 C   0  0  0  0  0  0  0  0  0  0  0  0
   -1.1582    1.8438    0.4410 O   0  0  0  0  0  0  0  0  0  0  0  0
    0.7203    1.5683    1.6472 N   0  0  0  0  0  0  0  0  0  0  0  0
    1.5210    0.9664    1.8100 H   0  0  0  0  0  0  0  0  0  0  0  0
    0.6747    2.8558    2.3368 C   0  0  0  0  0  0  0  0  0  0  0  0
   -0.3018    2.9877    2.8079 H   0  0  0  0  0  0  0  0  0  0  0  0
    1.4516    2.8997    3.1011 H   0  0  0  0  0  0  0  0  0  0  0  0
    0.8279    3.6639    1.6193 H   0  0  0  0  0  0  0  0  0  0  0  0
  5  6  2  0  0  0  0
  5  7  1  0  0  0  0
  2  3  1  0  0  0  0
  2  4  1  0  0  0  0
  2  5  1  0  0  0  0
  1  2  1  0  0  0  0
 18 19  2  0  0  0  0
 18 20  1  0  0  0  0
 16 17  1  0  0  0  0
 14 15  2  0  0  0  0
 14 16  1  0  0  0  0
 11 12  1  0  0  0  0
 11 13  1  0  0  0  0
 11 14  1  0  0  0  0
  9 10  1  0  0  0  0
  9 11  1  0  0  0  0
  9 18  1  0  0  0  0
  7  8  1  0  0  0  0
  7  9  1  0  0  0  0
 22 23  1  0  0  0  0
 22 24  1  0  0  0  0
 22 25  1  0  0  0  0
 20 21  1  0  0  0  0
 20 22  1  0  0  0  0
M  END
$$$$
default_name
  -OEChem-02102213163D

 25 24  0     1  0  0  0  0  0999 V2000
   -2.7826   -3.8464    0.7821 H   0  0  0  0  0  0  0  0  0  0  0  0
   -2.8156   -2.8034    0.4711 C   0  0  0  0  0  0  0  0  0  0  0  0
   -3.4336   -2.2354    1.1641 H   0  0  0  0  0  0  0  0  0  0  0  0
   -3.2256   -2.7344   -0.5349 H   0  0  0  0  0  0  0  0  0  0  0  0
   -1.4126   -2.2444    0.4801 C   0  0  0  0  0  0  0  0  0  0  0  0
   -0.4686   -2.9534    0.8001 O   0  0  0  0  0  0  0  0  0  0  0  0
   -1.2736   -0.9704    0.1241 N   0  0  0  0  0  0  0  0  0  0  0  0
   -2.0996   -0.4354   -0.1019 H   0  0  0  0  0  0  0  0  0  0  0  0
   -0.0016   -0.2394    0.1271 C   0  0  1  0  0  0  0  0  0  0  0  0
    0.7164   -0.7963    0.7332 H   0  0  0  0  0  0  0  0  0  0  0  0
    0.5351   -0.1414   -1.3146 C   0  0  0  0  0  0  0  0  0  0  0  0
   -0.2795    0.1293   -1.9875 H   0  0  0  0  0  0  0  0  0  0  0  0
    1.2917    0.6418   -1.3724 H   0  0  0  0  0  0  0  0  0  0  0  0
    1.1258   -1.4493   -1.8325 C   0  0  0  0  0  0  0  0  0  0  0  0
    1.6659   -2.3079   -1.1474 O   0  0  0  0  0  0  0  0  0  0  0  0
    1.0275   -1.6253   -3.1635 O   0  0  0  0  0  0  0  0  0  0  0  0
    1.4146   -2.4824   -3.3442 H   0  0  0  0  0  0  0  0  0  0  0  0
   -0.1923    1.1526    0.7617 C   0  0  0  0  0  0  0  0  0  0  0  0
   -1.1582    1.8438    0.4410 O   0  0  0  0  0  0  0  0  0  0  0  0
    0.7203    1.5683    1.6472 N   0  0  0  0  0  0  0  0  0  0  0  0
    1.5210    0.9664    1.8100 H   0  0  0  0  0  0  0  0  0  0  0  0
    0.6747    2.8558    2.3368 C   0  0  0  0  0  0  0  0  0  0  0  0
   -0.3018    2.9877    2.8079 H   0  0  0  0  0  0  0  0  0  0  0  0
    1.4516    2.8997    3.1011 H   0  0  0  0  0  0  0  0  0  0  0  0
    0.8279    3.6639    1.6193 H   0  0  0  0  0  0  0  0  0  0  0  0
  5  6  2  0  0  0  0
  5  7  1  0  0  0  0
  2  3  1  0  0  0  0
  2  4  1  0  0  0  0
  2  5  1  0  0  0  0
  1  2  1  0  0  0  0
 18 19  2  0  0  0  0
 18 20  1  0  0  0  0
 16 17  1  0  0  0  0
 14 15  2  0  0  0  0
 14 16  1  0  0  0  0
 11 12  1  0  0  0  0
 11 13  1  0  0  0  0
 11 14  1  0  0  0  0
  9 10  1  0  0  0  0
  9 11  1  0  0  0  0
  9 18  1  0  0  0  0
  7  8  1  0  0  0  0
  7  9  1  0  0  0  0
 22 23  1  0  0  0  0
 22 24  1  0  0  0  0
 22 25  1  0  0  0  0
 20 21  1  0  0  0  0
 20 22  1  0  0  0  0
M  END
$$$$
default_name
  -OEChem-02102213163D

 25 24  0     1  0  0  0  0  0999 V2000
   -2.7826   -3.8464    0.7821 H   0  0  0  0  0  0  0  0  0  0  0  0
   -2.8156   -2.8034    0.4711 C   0  0  0  0  0  0  0  0  0  0  0  0
   -3.4336   -2.2354    1.1641 H   0  0  0  0  0  0  0  0  0  0  0  0
   -3.2256   -2.7344   -0.5349 H   0  0  0  0  0  0  0  0  0  0  0  0
   -1.4126   -2.2444    0.4801 C   0  0  0  0  0  0  0  0  0  0  0  0
   -0.4686   -2.9534    0.8001 O   0  0  0  0  0  0  0  0  0  0  0  0
   -1.2736   -0.9704    0.1241 N   0  0  0  0  0  0  0  0  0  0  0  0
   -2.0996   -0.4354   -0.1019 H   0  0  0  0  0  0  0  0  0  0  0  0
   -0.0016   -0.2394    0.1271 C   0  0  1  0  0  0  0  0  0  0  0  0
    0.7164   -0.7963    0.7332 H   0  0  0  0  0  0  0  0  0  0  0  0
    0.5351   -0.1414   -1.3146 C   0  0  0  0  0  0  0  0  0  0  0  0
   -0.2795    0.1293   -1.9875 H   0  0  0  0  0  0  0  0  0  0  0  0
    1.2917    0.6418   -1.3724 H   0  0  0  0  0  0  0  0  0  0  0  0
    1.1258   -1.4493   -1.8325 C   0  0  0  0  0  0  0  0  0  0  0  0
    1.4295   -2.4156   -1.1452 O   0  0  0  0  0  0  0  0  0  0  0  0
    1.3182   -1.4937   -3.1641 O   0  0  0  0  0  0  0  0  0  0  0  0
    1.6693   -2.3652   -3.3496 H   0  0  0  0  0  0  0  0  0  0  0  0
   -0.1923    1.1526    0.7617 C   0  0  0  0  0  0  0  0  0  0  0  0
   -1.1582    1.8438    0.4410 O   0  0  0  0  0  0  0  0  0  0  0  0
    0.7203    1.5683    1.6472 N   0  0  0  0  0  0  0  0  0  0  0  0
    1.5210    0.9664    1.8100 H   0  0  0  0  0  0  0  0  0  0  0  0
    0.6747    2.8558    2.3368 C   0  0  0  0  0  0  0  0  0  0  0  0
   -0.3018    2.9877    2.8079 H   0  0  0  0  0  0  0  0  0  0  0  0
    1.4516    2.8997    3.1011 H   0  0  0  0  0  0  0  0  0  0  0  0
    0.8279    3.6639    1.6193 H   0  0  0  0  0  0  0  0  0  0  0  0
  5  6  2  0  0  0  0
  5  7  1  0  0  0  0
  2  3  1  0  0  0  0
  2  4  1  0  0  0  0
  2  5  1  0  0  0  0
  1  2  1  0  0  0  0
 18 19  2  0  0  0  0
 18 20  1  0  0  0  0
 16 17  1  0  0  0  0
 14 15  2  0  0  0  0
 14 16  1  0  0  0  0
 11 12  1  0  0  0  0
 11 13  1  0  0  0  0
 11 14  1  0  0  0  0
  9 10  1  0  0  0  0
  9 11  1  0  0  0  0
  9 18  1  0  0  0  0
  7  8  1  0  0  0  0
  7  9  1  0  0  0  0
 22 23  1  0  0  0  0
 22 24  1  0  0  0  0
 22 25  1  0  0  0  0
 20 21  1  0  0  0  0
 20 22  1  0  0  0  0
M  END
$$$$
default_name
  -OEChem-02102213163D

 25 24  0     1  0  0  0  0  0999 V2000
   -2.7826   -3.8464    0.7821 H   0  0  0  0  0  0  0  0  0  0  0  0
   -2.8156   -2.8034    0.4711 C   0  0  0  0  0  0  0  0  0  0  0  0
   -3.4336   -2.2354    1.1641 H   0  0  0  0  0  0  0  0  0  0  0  0
   -3.2256   -2.7344   -0.5349 H   0  0  0  0  0  0  0  0  0  0  0  0
   -1.4126   -2.2444    0.4801 C   0  0  0  0  0  0  0  0  0  0  0  0
   -0.4686   -2.9534    0.8001 O   0  0  0  0  0  0  0  0  0  0  0  0
   -1.2736   -0.9704    0.1241 N   0  0  0  0  0  0  0  0  0  0  0  0
   -2.0996   -0.4354   -0.1019 H   0  0  0  0  0  0  0  0  0  0  0  0
   -0.0016   -0.2394    0.1271 C   0  0  1  0  0  0  0  0  0  0  0  0
    0.7164   -0.7963    0.7332 H   0  0  0  0  0  0  0  0  0  0  0  0
    0.5351   -0.1414   -1.3146 C   0  0  0  0  0  0  0  0  0  0  0  0
   -0.2795    0.1293   -1.9875 H   0  0  0  0  0  0  0  0  0  0  0  0
    1.2917    0.6418   -1.3724 H   0  0  0  0  0  0  0  0  0  0  0  0
    1.1258   -1.4493   -1.8325 C   0  0  0  0  0  0  0  0  0  0  0  0
    1.1911   -2.4990   -1.2063 O   0  0  0  0  0  0  0  0  0  0  0  0
    1.6106   -1.3922   -3.0870 O   0  0  0  0  0  0  0  0  0  0  0  0
    1.9268   -2.2738   -3.2866 H   0  0  0  0  0  0  0  0  0  0  0  0
   -0.1923    1.1526    0.7617 C   0  0  0  0  0  0  0  0  0  0  0  0
   -1.1582    1.8438    0.4410 O   0  0  0  0  0  0  0  0  0  0  0  0
    0.7203    1.5683    1.6472 N   0  0  0  0  0  0  0  0  0  0  0  0
    1.5210    0.9664    1.8100 H   0  0  0  0  0  0  0  0  0  0  0  0
    0.6747    2.8558    2.3368 C   0  0  0  0  0  0  0  0  0  0  0  0
   -0.3018    2.9877    2.8079 H   0  0  0  0  0  0  0  0  0  0  0  0
    1.4516    2.8997    3.1011 H   0  0  0  0  0  0  0  0  0  0  0  0
    0.8279    3.6639    1.6193 H   0  0  0  0  0  0  0  0  0  0  0  0
  5  6  2  0  0  0  0
  5  7  1  0  0  0  0
  2  3  1  0  0  0  0
  2  4  1  0  0  0  0
  2  5  1  0  0  0  0
  1  2  1  0  0  0  0
 18 19  2  0  0  0  0
 18 20  1  0  0  0  0
 16 17  1  0  0  0  0
 14 15  2  0  0  0  0
 14 16  1  0  0  0  0
 11 12  1  0  0  0  0
 11 13  1  0  0  0  0
 11 14  1  0  0  0  0
  9 10  1  0  0  0  0
  9 11  1  0  0  0  0
  9 18  1  0  0  0  0
  7  8  1  0  0  0  0
  7  9  1  0  0  0  0
 22 23  1  0  0  0  0
 22 24  1  0  0  0  0
 22 25  1  0  0  0  0
 20 21  1  0  0  0  0
 20 22  1  0  0  0  0
M  END
$$$$
default_name
  -OEChem-02102213163D

 25 24  0     1  0  0  0  0  0999 V2000
   -2.7826   -3.8464    0.7821 H   0  0  0  0  0  0  0  0  0  0  0  0
   -2.8156   -2.8034    0.4711 C   0  0  0  0  0  0  0  0  0  0  0  0
   -3.4336   -2.2354    1.1641 H   0  0  0  0  0  0  0  0  0  0  0  0
   -3.2256   -2.7344   -0.5349 H   0  0  0  0  0  0  0  0  0  0  0  0
   -1.4126   -2.2444    0.4801 C   0  0  0  0  0  0  0  0  0  0  0  0
   -0.4686   -2.9534    0.8001 O   0  0  0  0  0  0  0  0  0  0  0  0
   -1.2736   -0.9704    0.1241 N   0  0  0  0  0  0  0  0  0  0  0  0
   -2.0996   -0.4354   -0.1019 H   0  0  0  0  0  0  0  0  0  0  0  0
   -0.0016   -0.2394    0.1271 C   0  0  1  0  0  0  0  0  0  0  0  0
    0.7164   -0.7963    0.7332 H   0  0  0  0  0  0  0  0  0  0  0  0
    0.5351   -0.1414   -1.3146 C   0  0  0  0  0  0  0  0  0  0  0  0
   -0.2795    0.1293   -1.9875 H   0  0  0  0  0  0  0  0  0  0  0  0
    1.2917    0.6418   -1.3724 H   0  0  0  0  0  0  0  0  0  0  0  0
    1.1258   -1.4493   -1.8325 C   0  0  0  0  0  0  0  0  0  0  0  0
    0.9672   -2.5526   -1.3266 O   0  0  0  0  0  0  0  0  0  0  0  0
    1.8849   -1.3275   -2.9375 O   0  0  0  0  0  0  0  0  0  0  0  0
    2.1696   -2.2145   -3.1595 H   0  0  0  0  0  0  0  0  0  0  0  0
   -0.1923    1.1526    0.7617 C   0  0  0  0  0  0  0  0  0  0  0  0
   -1.1582    1.8438    0.4410 O   0  0  0  0  0  0  0  0  0  0  0  0
    0.7203    1.5683    1.6472 N   0  0  0  0  0  0  0  0  0  0  0  0
    1.5210    0.9664    1.8100 H   0  0  0  0  0  0  0  0  0  0  0  0
    0.6747    2.8558    2.3368 C   0  0  0  0  0  0  0  0  0  0  0  0
   -0.3018    2.9877    2.8079 H   0  0  0  0  0  0  0  0  0  0  0  0
    1.4516    2.8997    3.1011 H   0  0  0  0  0  0  0  0  0  0  0  0
    0.8279    3.6639    1.6193 H   0  0  0  0  0  0  0  0  0  0  0  0
  5  6  2  0  0  0  0
  5  7  1  0  0  0  0
  2  3  1  0  0  0  0
  2  4  1  0  0  0  0
  2  5  1  0  0  0  0
  1  2  1  0  0  0  0
 18 19  2  0  0  0  0
 18 20  1  0  0  0  0
 16 17  1  0  0  0  0
 14 15  2  0  0  0  0
 14 16  1  0  0  0  0
 11 12  1  0  0  0  0
 11 13  1  0  0  0  0
 11 14  1  0  0  0  0
  9 10  1  0  0  0  0
  9 11  1  0  0  0  0
  9 18  1  0  0  0  0
  7  8  1  0  0  0  0
  7  9  1  0  0  0  0
 22 23  1  0  0  0  0
 22 24  1  0  0  0  0
 22 25  1  0  0  0  0
 20 21  1  0  0  0  0
 20 22  1  0  0  0  0
M  END
$$$$
default_name
  -OEChem-02102213163D

 25 24  0     1  0  0  0  0  0999 V2000
   -2.7826   -3.8464    0.7821 H   0  0  0  0  0  0  0  0  0  0  0  0
   -2.8156   -2.8034    0.4711 C   0  0  0  0  0  0  0  0  0  0  0  0
   -3.4336   -2.2354    1.1641 H   0  0  0  0  0  0  0  0  0  0  0  0
   -3.2256   -2.7344   -0.5349 H   0  0  0  0  0  0  0  0  0  0  0  0
   -1.4126   -2.2444    0.4801 C   0  0  0  0  0  0  0  0  0  0  0  0
   -0.4686   -2.9534    0.8001 O   0  0  0  0  0  0  0  0  0  0  0  0
   -1.2736   -0.9704    0.1241 N   0  0  0  0  0  0  0  0  0  0  0  0
   -2.0996   -0.4354   -0.1019 H   0  0  0  0  0  0  0  0  0  0  0  0
   -0.0016   -0.2394    0.1271 C   0  0  1  0  0  0  0  0  0  0  0  0
    0.7164   -0.7963    0.7332 H   0  0  0  0  0  0  0  0  0  0  0  0
    0.5351   -0.1414   -1.3146 C   0  0  0  0  0  0  0  0  0  0  0  0
   -0.2795    0.1293   -1.9875 H   0  0  0  0  0  0  0  0  0  0  0  0
    1.2917    0.6418   -1.3724 H   0  0  0  0  0  0  0  0  0  0  0  0
    1.1258   -1.4493   -1.8325 C   0  0  0  0  0  0  0  0  0  0  0  0
    0.7728   -2.5725   -1.4979 O   0  0  0  0  0  0  0  0  0  0  0  0
    2.1223   -1.3041   -2.7258 O   0  0  0  0  0  0  0  0  0  0  0  0
    2.3812   -2.1913   -2.9768 H   0  0  0  0  0  0  0  0  0  0  0  0
   -0.1923    1.1526    0.7617 C   0  0  0  0  0  0  0  0  0  0  0  0
   -1.1582    1.8438    0.4410 O   0  0  0  0  0  0  0  0  0  0  0  0
    0.7203    1.5683    1.6472 N   0  0  0  0  0  0  0  0  0  0  0  0
    1.5210    0.9664    1.8100 H   0  0  0  0  0  0  0  0  0  0  0  0
    0.6747    2.8558    2.3368 C   0  0  0  0  0  0  0  0  0  0  0  0
   -0.3018    2.9877    2.8079 H   0  0  0  0  0  0  0  0  0  0  0  0
    1.4516    2.8997    3.1011 H   0  0  0  0  0  0  0  0  0  0  0  0
    0.8279    3.6639    1.6193 H   0  0  0  0  0  0  0  0  0  0  0  0
  5  6  2  0  0  0  0
  5  7  1  0  0  0  0
  2  3  1  0  0  0  0
  2  4  1  0  0  0  0
  2  5  1  0  0  0  0
  1  2  1  0  0  0  0
 18 19  2  0  0  0  0
 18 20  1  0  0  0  0
 16 17  1  0  0  0  0
 14 15  2  0  0  0  0
 14 16  1  0  0  0  0
 11 12  1  0  0  0  0
 11 13  1  0  0  0  0
 11 14  1  0  0  0  0
  9 10  1  0  0  0  0
  9 11  1  0  0  0  0
  9 18  1  0  0  0  0
  7  8  1  0  0  0  0
  7  9  1  0  0  0  0
 22 23  1  0  0  0  0
 22 24  1  0  0  0  0
 22 25  1  0  0  0  0
 20 21  1  0  0  0  0
 20 22  1  0  0  0  0
M  END
$$$$
default_name
  -OEChem-02102213163D

 25 24  0     1  0  0  0  0  0999 V2000
   -2.7826   -3.8464    0.7821 H   0  0  0  0  0  0  0  0  0  0  0  0
   -2.8156   -2.8034    0.4711 C   0  0  0  0  0  0  0  0  0  0  0  0
   -3.4336   -2.2354    1.1641 H   0  0  0  0  0  0  0  0  0  0  0  0
   -3.2256   -2.7344   -0.5349 H   0  0  0  0  0  0  0  0  0  0  0  0
   -1.4126   -2.2444    0.4801 C   0  0  0  0  0  0  0  0  0  0  0  0
   -0.4686   -2.9534    0.8001 O   0  0  0  0  0  0  0  0  0  0  0  0
   -1.2736   -0.9704    0.1241 N   0  0  0  0  0  0  0  0  0  0  0  0
   -2.0996   -0.4354   -0.1019 H   0  0  0  0  0  0  0  0  0  0  0  0
   -0.0016   -0.2394    0.1271 C   0  0  1  0  0  0  0  0  0  0  0  0
    0.7164   -0.7963    0.7332 H   0  0  0  0  0  0  0  0  0  0  0  0
    0.5351   -0.1414   -1.3146 C   0  0  0  0  0  0  0  0  0  0  0  0
   -0.2795    0.1293   -1.9875 H   0  0  0  0  0  0  0  0  0  0  0  0
    1.2917    0.6418   -1.3724 H   0  0  0  0  0  0  0  0  0  0  0  0
    1.1258   -1.4493   -1.8325 C   0  0  0  0  0  0  0  0  0  0  0  0
    0.6213   -2.5576   -1.7084 O   0  0  0  0  0  0  0  0  0  0  0  0
    2.3067   -1.3235   -2.4662 O   0  0  0  0  0  0  0  0  0  0  0  0
    2.5470   -2.2057   -2.7511 H   0  0  0  0  0  0  0  0  0  0  0  0
   -0.1923    1.1526    0.7617 C   0  0  0  0  0  0  0  0  0  0  0  0
   -1.1582    1.8438    0.4410 O   0  0  0  0  0  0  0  0  0  0  0  0
    0.7203    1.5683    1.6472 N   0  0  0  0  0  0  0  0  0  0  0  0
    1.5210    0.9664    1.8100 H   0  0  0  0  0  0  0  0  0  0  0  0
    0.6747    2.8558    2.3368 C   0  0  0  0  0  0  0  0  0  0  0  0
   -0.3018    2.9877    2.8079 H   0  0  0  0  0  0  0  0  0  0  0  0
    1.4516    2.8997    3.1011 H   0  0  0  0  0  0  0  0  0  0  0  0
    0.8279    3.6639    1.6193 H   0  0  0  0  0  0  0  0  0  0  0  0
  5  6  2  0  0  0  0
  5  7  1  0  0  0  0
  2  3  1  0  0  0  0
  2  4  1  0  0  0  0
  2  5  1  0  0  0  0
  1  2  1  0  0  0  0
 18 19  2  0  0  0  0
 18 20  1  0  0  0  0
 16 17  1  0  0  0  0
 14 15  2  0  0  0  0
 14 16  1  0  0  0  0
 11 12  1  0  0  0  0
 11 13  1  0  0  0  0
 11 14  1  0  0  0  0
  9 10  1  0  0  0  0
  9 11  1  0  0  0  0
  9 18  1  0  0  0  0
  7  8  1  0  0  0  0
  7  9  1  0  0  0  0
 22 23  1  0  0  0  0
 22 24  1  0  0  0  0
 22 25  1  0  0  0  0
 20 21  1  0  0  0  0
 20 22  1  0  0  0  0
M  END
$$$$
default_name
  -OEChem-02102213163D

 25 24  0     1  0  0  0  0  0999 V2000
   -2.7826   -3.8464    0.7821 H   0  0  0  0  0  0  0  0  0  0  0  0
   -2.8156   -2.8034    0.4711 C   0  0  0  0  0  0  0  0  0  0  0  0
   -3.4336   -2.2354    1.1641 H   0  0  0  0  0  0  0  0  0  0  0  0
   -3.2256   -2.7344   -0.5349 H   0  0  0  0  0  0  0  0  0  0  0  0
   -1.4126   -2.2444    0.4801 C   0  0  0  0  0  0  0  0  0  0  0  0
   -0.4686   -2.9534    0.8001 O   0  0  0  0  0  0  0  0  0  0  0  0
   -1.2736   -0.9704    0.1241 N   0  0  0  0  0  0  0  0  0  0  0  0
   -2.0996   -0.4354   -0.1019 H   0  0  0  0  0  0  0  0  0  0  0  0
   -0.0016   -0.2394    0.1271 C   0  0  1  0  0  0  0  0  0  0  0  0
    0.7164   -0.7963    0.7332 H   0  0  0  0  0  0  0  0  0  0  0  0
    0.5351   -0.1414   -1.3146 C   0  0  0  0  0  0  0  0  0  0  0  0
   -0.2795    0.1293   -1.9875 H   0  0  0  0  0  0  0  0  0  0  0  0
    1.2917    0.6418   -1.3724 H   0  0  0  0  0  0  0  0  0  0  0  0
    1.1258   -1.4493   -1.8325 C   0  0  0  0  0  0  0  0  0  0  0  0
    0.5230   -2.5088   -1.9439 O   0  0  0  0  0  0  0  0  0  0  0  0
    2.4256   -1.3845   -2.1766 O   0  0  0  0  0  0  0  0  0  0  0  0
    2.6559   -2.2569   -2.4978 H   0  0  0  0  0  0  0  0  0  0  0  0
   -0.1923    1.1526    0.7617 C   0  0  0  0  0  0  0  0  0  0  0  0
   -1.1582    1.8438    0.4410 O   0  0  0  0  0  0  0  0  0  0  0  0
    0.7203    1.5683    1.6472 N   0  0  0  0  0  0  0  0  0  0  0  0
    1.5210    0.9664    1.8100 H   0  0  0  0  0  0  0  0  0  0  0  0
    0.6747    2.8558    2.3368 C   0  0  0  0  0  0  0  0  0  0  0  0
   -0.3018    2.9877    2.8079 H   0  0  0  0  0  0  0  0  0  0  0  0
    1.4516    2.8997    3.1011 H   0  0  0  0  0  0  0  0  0  0  0  0
    0.8279    3.6639    1.6193 H   0  0  0  0  0  0  0  0  0  0  0  0
  5  6  2  0  0  0  0
  5  7  1  0  0  0  0
  2  3  1  0  0  0  0
  2  4  1  0  0  0  0
  2  5  1  0  0  0  0
  1  2  1  0  0  0  0
 18 19  2  0  0  0  0
 18 20  1  0  0  0  0
 16 17  1  0  0  0  0
 14 15  2  0  0  0  0
 14 16  1  0  0  0  0
 11 12  1  0  0  0  0
 11 13  1  0  0  0  0
 11 14  1  0  0  0  0
  9 10  1  0  0  0  0
  9 11  1  0  0  0  0
  9 18  1  0  0  0  0
  7  8  1  0  0  0  0
  7  9  1  0  0  0  0
 22 23  1  0  0  0  0
 22 24  1  0  0  0  0
 22 25  1  0  0  0  0
 20 21  1  0  0  0  0
 20 22  1  0  0  0  0
M  END
$$$$
default_name
  -OEChem-02102213163D

 25 24  0     1  0  0  0  0  0999 V2000
   -2.7826   -3.8464    0.7821 H   0  0  0  0  0  0  0  0  0  0  0  0
   -2.8156   -2.8034    0.4711 C   0  0  0  0  0  0  0  0  0  0  0  0
   -3.4336   -2.2354    1.1641 H   0  0  0  0  0  0  0  0  0  0  0  0
   -3.2256   -2.7344   -0.5349 H   0  0  0  0  0  0  0  0  0  0  0  0
   -1.4126   -2.2444    0.4801 C   0  0  0  0  0  0  0  0  0  0  0  0
   -0.4686   -2.9534    0.8001 O   0  0  0  0  0  0  0  0  0  0  0  0
   -1.2736   -0.9704    0.1241 N   0  0  0  0  0  0  0  0  0  0  0  0
   -2.0996   -0.4354   -0.1019 H   0  0  0  0  0  0  0  0  0  0  0  0
   -0.0016   -0.2394    0.1271 C   0  0  1  0  0  0  0  0  0  0  0  0
    0.7164   -0.7963    0.7332 H   0  0  0  0  0  0  0  0  0  0  0  0
    0.5351   -0.1414   -1.3146 C   0  0  0  0  0  0  0  0  0  0  0  0
   -0.2795    0.1293   -1.9875 H   0  0  0  0  0  0  0  0  0  0  0  0
    1.2917    0.6418   -1.3724 H   0  0  0  0  0  0  0  0  0  0  0  0
    1.1258   -1.4493   -1.8325 C   0  0  0  0  0  0  0  0  0  0  0  0
    0.4845   -2.4294   -2.1883 O   0  0  0  0  0  0  0  0  0  0  0  0
    2.4708   -1.4830   -1.8765 O   0  0  0  0  0  0  0  0  0  0  0  0
    2.7003   -2.3413   -2.2341 H   0  0  0  0  0  0  0  0  0  0  0  0
   -0.1923    1.1526    0.7617 C   0  0  0  0  0  0  0  0  0  0  0  0
   -1.1582    1.8438    0.4410 O   0  0  0  0  0  0  0  0  0  0  0  0
    0.7203    1.5683    1.6472 N   0  0  0  0  0  0  0  0  0  0  0  0
    1.5210    0.9664    1.8100 H   0  0  0  0  0  0  0  0  0  0  0  0
    0.6747    2.8558    2.3368 C   0  0  0  0  0  0  0  0  0  0  0  0
   -0.3018    2.9877    2.8079 H   0  0  0  0  0  0  0  0  0  0  0  0
    1.4516    2.8997    3.1011 H   0  0  0  0  0  0  0  0  0  0  0  0
    0.8279    3.6639    1.6193 H   0  0  0  0  0  0  0  0  0  0  0  0
  5  6  2  0  0  0  0
  5  7  1  0  0  0  0
  2  3  1  0  0  0  0
  2  4  1  0  0  0  0
  2  5  1  0  0  0  0
  1  2  1  0  0  0  0
 18 19  2  0  0  0  0
 18 20  1  0  0  0  0
 16 17  1  0  0  0  0
 14 15  2  0  0  0  0
 14 16  1  0  0  0  0
 11 12  1  0  0  0  0
 11 13  1  0  0  0  0
 11 14  1  0  0  0  0
  9 10  1  0  0  0  0
  9 11  1  0  0  0  0
  9 18  1  0  0  0  0
  7  8  1  0  0  0  0
  7  9  1  0  0  0  0
 22 23  1  0  0  0  0
 22 24  1  0  0  0  0
 22 25  1  0  0  0  0
 20 21  1  0  0  0  0
 20 22  1  0  0  0  0
M  END
$$$$
default_name
  -OEChem-02102213163D

 25 24  0     1  0  0  0  0  0999 V2000
   -2.7826   -3.8464    0.7821 H   0  0  0  0  0  0  0  0  0  0  0  0
   -2.8156   -2.8034    0.4711 C   0  0  0  0  0  0  0  0  0  0  0  0
   -3.4336   -2.2354    1.1641 H   0  0  0  0  0  0  0  0  0  0  0  0
   -3.2256   -2.7344   -0.5349 H   0  0  0  0  0  0  0  0  0  0  0  0
   -1.4126   -2.2444    0.4801 C   0  0  0  0  0  0  0  0  0  0  0  0
   -0.4686   -2.9534    0.8001 O   0  0  0  0  0  0  0  0  0  0  0  0
   -1.2736   -0.9704    0.1241 N   0  0  0  0  0  0  0  0  0  0  0  0
   -2.0996   -0.4354   -0.1019 H   0  0  0  0  0  0  0  0  0  0  0  0
   -0.0016   -0.2394    0.1271 C   0  0  1  0  0  0  0  0  0  0  0  0
    0.7164   -0.7963    0.7332 H   0  0  0  0  0  0  0  0  0  0  0  0
    0.5351   -0.1414   -1.3146 C   0  0  0  0  0  0  0  0  0  0  0  0
   -0.2795    0.1293   -1.9875 H   0  0  0  0  0  0  0  0  0  0  0  0
    1.2917    0.6418   -1.3724 H   0  0  0  0  0  0  0  0  0  0  0  0
    1.1258   -1.4493   -1.8325 C   0  0  0  0  0  0  0  0  0  0  0  0
    0.5086   -2.3248   -2.4249 O   0  0  0  0  0  0  0  0  0  0  0  0
    2.4392   -1.6121   -1.5865 O   0  0  0  0  0  0  0  0  0  0  0  0
    2.6773   -2.4531   -1.9779 H   0  0  0  0  0  0  0  0  0  0  0  0
   -0.1923    1.1526    0.7617 C   0  0  0  0  0  0  0  0  0  0  0  0
   -1.1582    1.8438    0.4410 O   0  0  0  0  0  0  0  0  0  0  0  0
    0.7203    1.5683    1.6472 N   0  0  0  0  0  0  0  0  0  0  0  0
    1.5210    0.9664    1.8100 H   0  0  0  0  0  0  0  0  0  0  0  0
    0.6747    2.8558    2.3368 C   0  0  0  0  0  0  0  0  0  0  0  0
   -0.3018    2.9877    2.8079 H   0  0  0  0  0  0  0  0  0  0  0  0
    1.4516    2.8997    3.1011 H   0  0  0  0  0  0  0  0  0  0  0  0
    0.8279    3.6639    1.6193 H   0  0  0  0  0  0  0  0  0  0  0  0
  5  6  2  0  0  0  0
  5  7  1  0  0  0  0
  2  3  1  0  0  0  0
  2  4  1  0  0  0  0
  2  5  1  0  0  0  0
  1  2  1  0  0  0  0
 18 19  2  0  0  0  0
 18 20  1  0  0  0  0
 16 17  1  0  0  0  0
 14 15  2  0  0  0  0
 14 16  1  0  0  0  0
 11 12  1  0  0  0  0
 11 13  1  0  0  0  0
 11 14  1  0  0  0  0
  9 10  1  0  0  0  0
  9 11  1  0  0  0  0
  9 18  1  0  0  0  0
  7  8  1  0  0  0  0
  7  9  1  0  0  0  0
 22 23  1  0  0  0  0
 22 24  1  0  0  0  0
 22 25  1  0  0  0  0
 20 21  1  0  0  0  0
 20 22  1  0  0  0  0
M  END
$$$$
default_name
  -OEChem-02102213163D

 25 24  0     1  0  0  0  0  0999 V2000
   -2.7826   -3.8464    0.7821 H   0  0  0  0  0  0  0  0  0  0  0  0
   -2.8156   -2.8034    0.4711 C   0  0  0  0  0  0  0  0  0  0  0  0
   -3.4336   -2.2354    1.1641 H   0  0  0  0  0  0  0  0  0  0  0  0
   -3.2256   -2.7344   -0.5349 H   0  0  0  0  0  0  0  0  0  0  0  0
   -1.4126   -2.2444    0.4801 C   0  0  0  0  0  0  0  0  0  0  0  0
   -0.4686   -2.9534    0.8001 O   0  0  0  0  0  0  0  0  0  0  0  0
   -1.2736   -0.9704    0.1241 N   0  0  0  0  0  0  0  0  0  0  0  0
   -2.0996   -0.4354   -0.1019 H   0  0  0  0  0  0  0  0  0  0  0  0
   -0.0016   -0.2394    0.1271 C   0  0  1  0  0  0  0  0  0  0  0  0
    0.7164   -0.7963    0.7332 H   0  0  0  0  0  0  0  0  0  0  0  0
    0.5351   -0.1414   -1.3146 C   0  0  0  0  0  0  0  0  0  0  0  0
   -0.2795    0.1293   -1.9875 H   0  0  0  0  0  0  0  0  0  0  0  0
    1.2917    0.6418   -1.3724 H   0  0  0  0  0  0  0  0  0  0  0  0
    1.1258   -1.4493   -1.8325 C   0  0  0  0  0  0  0  0  0  0  0  0
    0.5935   -2.2022   -2.6376 O   0  0  0  0  0  0  0  0  0  0  0  0
    2.3330   -1.7630   -1.3263 O   0  0  0  0  0  0  0  0  0  0  0  0
    2.5885   -2.5847   -1.7468 H   0  0  0  0  0  0  0  0  0  0  0  0
   -0.1923    1.1526    0.7617 C   0  0  0  0  0  0  0  0  0  0  0  0
   -1.1582    1.8438    0.4410 O   0  0  0  0  0  0  0  0  0  0  0  0
    0.7203    1.5683    1.6472 N   0  0  0  0  0  0  0  0  0  0  0  0
    1.5210    0.9664    1.8100 H   0  0  0  0  0  0  0  0  0  0  0  0
    0.6747    2.8558    2.3368 C   0  0  0  0  0  0  0  0  0  0  0  0
   -0.3018    2.9877    2.8079 H   0  0  0  0  0  0  0  0  0  0  0  0
    1.4516    2.8997    3.1011 H   0  0  0  0  0  0  0  0  0  0  0  0
    0.8279    3.6639    1.6193 H   0  0  0  0  0  0  0  0  0  0  0  0
  5  6  2  0  0  0  0
  5  7  1  0  0  0  0
  2  3  1  0  0  0  0
  2  4  1  0  0  0  0
  2  5  1  0  0  0  0
  1  2  1  0  0  0  0
 18 19  2  0  0  0  0
 18 20  1  0  0  0  0
 16 17  1  0  0  0  0
 14 15  2  0  0  0  0
 14 16  1  0  0  0  0
 11 12  1  0  0  0  0
 11 13  1  0  0  0  0
 11 14  1  0  0  0  0
  9 10  1  0  0  0  0
  9 11  1  0  0  0  0
  9 18  1  0  0  0  0
  7  8  1  0  0  0  0
  7  9  1  0  0  0  0
 22 23  1  0  0  0  0
 22 24  1  0  0  0  0
 22 25  1  0  0  0  0
 20 21  1  0  0  0  0
 20 22  1  0  0  0  0
M  END
$$$$
default_name
  -OEChem-02102213163D

 25 24  0     1  0  0  0  0  0999 V2000
   -2.7826   -3.8464    0.7821 H   0  0  0  0  0  0  0  0  0  0  0  0
   -2.8156   -2.8034    0.4711 C   0  0  0  0  0  0  0  0  0  0  0  0
   -3.4336   -2.2354    1.1641 H   0  0  0  0  0  0  0  0  0  0  0  0
   -3.2256   -2.7344   -0.5349 H   0  0  0  0  0  0  0  0  0  0  0  0
   -1.4126   -2.2444    0.4801 C   0  0  0  0  0  0  0  0  0  0  0  0
   -0.4686   -2.9534    0.8001 O   0  0  0  0  0  0  0  0  0  0  0  0
   -1.2736   -0.9704    0.1241 N   0  0  0  0  0  0  0  0  0  0  0  0
   -2.0996   -0.4354   -0.1019 H   0  0  0  0  0  0  0  0  0  0  0  0
   -0.0016   -0.2394    0.1271 C   0  0  1  0  0  0  0  0  0  0  0  0
    0.7164   -0.7963    0.7332 H   0  0  0  0  0  0  0  0  0  0  0  0
    0.5351   -0.1414   -1.3146 C   0  0  0  0  0  0  0  0  0  0  0  0
   -0.2795    0.1293   -1.9875 H   0  0  0  0  0  0  0  0  0  0  0  0
    1.2917    0.6418   -1.3724 H   0  0  0  0  0  0  0  0  0  0  0  0
    1.1258   -1.4493   -1.8325 C   0  0  0  0  0  0  0  0  0  0  0  0
    0.7336   -2.0699   -2.8120 O   0  0  0  0  0  0  0  0  0  0  0  0
    2.1595   -1.9256   -1.1137 O   0  0  0  0  0  0  0  0  0  0  0  0
    2.4398   -2.7273   -1.5565 H   0  0  0  0  0  0  0  0  0  0  0  0
   -0.1923    1.1526    0.7617 C   0  0  0  0  0  0  0  0  0  0  0  0
   -1.1582    1.8438    0.4410 O   0  0  0  0  0  0  0  0  0  0  0  0
    0.7203    1.5683    1.6472 N   0  0  0  0  0  0  0  0  0  0  0  0
    1.5210    0.9664    1.8100 H   0  0  0  0  0  0  0  0  0  0  0  0
    0.6747    2.8558    2.3368 C   0  0  0  0  0  0  0  0  0  0  0  0
   -0.3018    2.9877    2.8079 H   0  0  0  0  0  0  0  0  0  0  0  0
    1.4516    2.8997    3.1011 H   0  0  0  0  0  0  0  0  0  0  0  0
    0.8279    3.6639    1.6193 H   0  0  0  0  0  0  0  0  0  0  0  0
  5  6  2  0  0  0  0
  5  7  1  0  0  0  0
  2  3  1  0  0  0  0
  2  4  1  0  0  0  0
  2  5  1  0  0  0  0
  1  2  1  0  0  0  0
 18 19  2  0  0  0  0
 18 20  1  0  0  0  0
 16 17  1  0  0  0  0
 14 15  2  0  0  0  0
 14 16  1  0  0  0  0
 11 12  1  0  0  0  0
 11 13  1  0  0  0  0
 11 14  1  0  0  0  0
  9 10  1  0  0  0  0
  9 11  1  0  0  0  0
  9 18  1  0  0  0  0
  7  8  1  0  0  0  0
  7  9  1  0  0  0  0
 22 23  1  0  0  0  0
 22 24  1  0  0  0  0
 22 25  1  0  0  0  0
 20 21  1  0  0  0  0
 20 22  1  0  0  0  0
M  END
$$$$
default_name
  -OEChem-02102213163D

 25 24  0     1  0  0  0  0  0999 V2000
   -2.7826   -3.8464    0.7821 H   0  0  0  0  0  0  0  0  0  0  0  0
   -2.8156   -2.8034    0.4711 C   0  0  0  0  0  0  0  0  0  0  0  0
   -3.4336   -2.2354    1.1641 H   0  0  0  0  0  0  0  0  0  0  0  0
   -3.2256   -2.7344   -0.5349 H   0  0  0  0  0  0  0  0  0  0  0  0
   -1.4126   -2.2444    0.4801 C   0  0  0  0  0  0  0  0  0  0  0  0
   -0.4686   -2.9534    0.8001 O   0  0  0  0  0  0  0  0  0  0  0  0
   -1.2736   -0.9704    0.1241 N   0  0  0  0  0  0  0  0  0  0  0  0
   -2.0996   -0.4354   -0.1019 H   0  0  0  0  0  0  0  0  0  0  0  0
   -0.0016   -0.2394    0.1271 C   0  0  1  0  0  0  0  0  0  0  0  0
    0.7164   -0.7963    0.7332 H   0  0  0  0  0  0  0  0  0  0  0  0
    0.5351   -0.1414   -1.3146 C   0  0  0  0  0  0  0  0  0  0  0  0
   -0.2795    0.1293   -1.9875 H   0  0  0  0  0  0  0  0  0  0  0  0
    1.2917    0.6418   -1.3724 H   0  0  0  0  0  0  0  0  0  0  0  0
    1.1258   -1.4493   -1.8325 C   0  0  0  0  0  0  0  0  0  0  0  0
    0.9191   -1.9369   -2.9361 O   0  0  0  0  0  0  0  0  0  0  0  0
    1.9304   -2.0887   -0.9631 O   0  0  0  0  0  0  0  0  0  0  0  0
    2.2414   -2.8709   -1.4199 H   0  0  0  0  0  0  0  0  0  0  0  0
   -0.1923    1.1526    0.7617 C   0  0  0  0  0  0  0  0  0  0  0  0
   -1.1582    1.8438    0.4410 O   0  0  0  0  0  0  0  0  0  0  0  0
    0.7203    1.5683    1.6472 N   0  0  0  0  0  0  0  0  0  0  0  0
    1.5210    0.9664    1.8100 H   0  0  0  0  0  0  0  0  0  0  0  0
    0.6747    2.8558    2.3368 C   0  0  0  0  0  0  0  0  0  0  0  0
   -0.3018    2.9877    2.8079 H   0  0  0  0  0  0  0  0  0  0  0  0
    1.4516    2.8997    3.1011 H   0  0  0  0  0  0  0  0  0  0  0  0
    0.8279    3.6639    1.6193 H   0  0  0  0  0  0  0  0  0  0  0  0
  5  6  2  0  0  0  0
  5  7  1  0  0  0  0
  2  3  1  0  0  0  0
  2  4  1  0  0  0  0
  2  5  1  0  0  0  0
  1  2  1  0  0  0  0
 18 19  2  0  0  0  0
 18 20  1  0  0  0  0
 16 17  1  0  0  0  0
 14 15  2  0  0  0  0
 14 16  1  0  0  0  0
 11 12  1  0  0  0  0
 11 13  1  0  0  0  0
 11 14  1  0  0  0  0
  9 10  1  0  0  0  0
  9 11  1  0  0  0  0
  9 18  1  0  0  0  0
  7  8  1  0  0  0  0
  7  9  1  0  0  0  0
 22 23  1  0  0  0  0
 22 24  1  0  0  0  0
 22 25  1  0  0  0  0
 20 21  1  0  0  0  0
 20 22  1  0  0  0  0
M  END
$$$$
default_name
  -OEChem-02102213163D

 25 24  0     1  0  0  0  0  0999 V2000
   -2.7826   -3.8464    0.7821 H   0  0  0  0  0  0  0  0  0  0  0  0
   -2.8156   -2.8034    0.4711 C   0  0  0  0  0  0  0  0  0  0  0  0
   -3.4336   -2.2354    1.1641 H   0  0  0  0  0  0  0  0  0  0  0  0
   -3.2256   -2.7344   -0.5349 H   0  0  0  0  0  0  0  0  0  0  0  0
   -1.4126   -2.2444    0.4801 C   0  0  0  0  0  0  0  0  0  0  0  0
   -0.4686   -2.9534    0.8001 O   0  0  0  0  0  0  0  0  0  0  0  0
   -1.2736   -0.9704    0.1241 N   0  0  0  0  0  0  0  0  0  0  0  0
   -2.0996   -0.4354   -0.1019 H   0  0  0  0  0  0  0  0  0  0  0  0
   -0.0016   -0.2394    0.1271 C   0  0  1  0  0  0  0  0  0  0  0  0
    0.7164   -0.7963    0.7332 H   0  0  0  0  0  0  0  0  0  0  0  0
    0.5351   -0.1414   -1.3146 C   0  0  0  0  0  0  0  0  0  0  0  0
   -0.2795    0.1293   -1.9875 H   0  0  0  0  0  0  0  0  0  0  0  0
    1.2917    0.6418   -1.3724 H   0  0  0  0  0  0  0  0  0  0  0  0
    1.1258   -1.4493   -1.8325 C   0  0  0  0  0  0  0  0  0  0  0  0
    1.1375   -1.8124   -3.0014 O   0  0  0  0  0  0  0  0  0  0  0  0
    1.6613   -2.2413   -0.8849 O   0  0  0  0  0  0  0  0  0  0  0  0
    2.0069   -3.0060   -1.3464 H   0  0  0  0  0  0  0  0  0  0  0  0
   -0.1923    1.1526    0.7617 C   0  0  0  0  0  0  0  0  0  0  0  0
   -1.1582    1.8438    0.4410 O   0  0  0  0  0  0  0  0  0  0  0  0
    0.7203    1.5683    1.6472 N   0  0  0  0  0  0  0  0  0  0  0  0
    1.5210    0.9664    1.8100 H   0  0  0  0  0  0  0  0  0  0  0  0
    0.6747    2.8558    2.3368 C   0  0  0  0  0  0  0  0  0  0  0  0
   -0.3018    2.9877    2.8079 H   0  0  0  0  0  0  0  0  0  0  0  0
    1.4516    2.8997    3.1011 H   0  0  0  0  0  0  0  0  0  0  0  0
    0.8279    3.6639    1.6193 H   0  0  0  0  0  0  0  0  0  0  0  0
  5  6  2  0  0  0  0
  5  7  1  0  0  0  0
  2  3  1  0  0  0  0
  2  4  1  0  0  0  0
  2  5  1  0  0  0  0
  1  2  1  0  0  0  0
 18 19  2  0  0  0  0
 18 20  1  0  0  0  0
 16 17  1  0  0  0  0
 14 15  2  0  0  0  0
 14 16  1  0  0  0  0
 11 12  1  0  0  0  0
 11 13  1  0  0  0  0
 11 14  1  0  0  0  0
  9 10  1  0  0  0  0
  9 11  1  0  0  0  0
  9 18  1  0  0  0  0
  7  8  1  0  0  0  0
  7  9  1  0  0  0  0
 22 23  1  0  0  0  0
 22 24  1  0  0  0  0
 22 25  1  0  0  0  0
 20 21  1  0  0  0  0
 20 22  1  0  0  0  0
M  END
$$$$
default_name
  -OEChem-02102213163D

 25 24  0     1  0  0  0  0  0999 V2000
   -2.7826   -3.8464    0.7821 H   0  0  0  0  0  0  0  0  0  0  0  0
   -2.8156   -2.8034    0.4711 C   0  0  0  0  0  0  0  0  0  0  0  0
   -3.4336   -2.2354    1.1641 H   0  0  0  0  0  0  0  0  0  0  0  0
   -3.2256   -2.7344   -0.5349 H   0  0  0  0  0  0  0  0  0  0  0  0
   -1.4126   -2.2444    0.4801 C   0  0  0  0  0  0  0  0  0  0  0  0
   -0.4686   -2.9534    0.8001 O   0  0  0  0  0  0  0  0  0  0  0  0
   -1.2736   -0.9704    0.1241 N   0  0  0  0  0  0  0  0  0  0  0  0
   -2.0996   -0.4354   -0.1019 H   0  0  0  0  0  0  0  0  0  0  0  0
   -0.0016   -0.2394    0.1271 C   0  0  1  0  0  0  0  0  0  0  0  0
    0.7164   -0.7963    0.7332 H   0  0  0  0  0  0  0  0  0  0  0  0
    0.5351   -0.1414   -1.3146 C   0  0  0  0  0  0  0  0  0  0  0  0
   -0.2795    0.1293   -1.9875 H   0  0  0  0  0  0  0  0  0  0  0  0
    1.2917    0.6418   -1.3724 H   0  0  0  0  0  0  0  0  0  0  0  0
    1.1258   -1.4493   -1.8325 C   0  0  0  0  0  0  0  0  0  0  0  0
    1.3740   -1.7047   -3.0036 O   0  0  0  0  0  0  0  0  0  0  0  0
    1.3707   -2.3728   -0.8843 O   0  0  0  0  0  0  0  0  0  0  0  0
    1.7522   -3.1232   -1.3410 H   0  0  0  0  0  0  0  0  0  0  0  0
   -0.1923    1.1526    0.7617 C   0  0  0  0  0  0  0  0  0  0  0  0
   -1.1582    1.8438    0.4410 O   0  0  0  0  0  0  0  0  0  0  0  0
    0.7203    1.5683    1.6472 N   0  0  0  0  0  0  0  0  0  0  0  0
    1.5210    0.9664    1.8100 H   0  0  0  0  0  0  0  0  0  0  0  0
    0.6747    2.8558    2.3368 C   0  0  0  0  0  0  0  0  0  0  0  0
   -0.3018    2.9877    2.8079 H   0  0  0  0  0  0  0  0  0  0  0  0
    1.4516    2.8997    3.1011 H   0  0  0  0  0  0  0  0  0  0  0  0
    0.8279    3.6639    1.6193 H   0  0  0  0  0  0  0  0  0  0  0  0
  5  6  2  0  0  0  0
  5  7  1  0  0  0  0
  2  3  1  0  0  0  0
  2  4  1  0  0  0  0
  2  5  1  0  0  0  0
  1  2  1  0  0  0  0
 18 19  2  0  0  0  0
 18 20  1  0  0  0  0
 16 17  1  0  0  0  0
 14 15  2  0  0  0  0
 14 16  1  0  0  0  0
 11 12  1  0  0  0  0
 11 13  1  0  0  0  0
 11 14  1  0  0  0  0
  9 10  1  0  0  0  0
  9 11  1  0  0  0  0
  9 18  1  0  0  0  0
  7  8  1  0  0  0  0
  7  9  1  0  0  0  0
 22 23  1  0  0  0  0
 22 24  1  0  0  0  0
 22 25  1  0  0  0  0
 20 21  1  0  0  0  0
 20 22  1  0  0  0  0
M  END
$$$$
default_name
  -OEChem-02102213163D

 25 24  0     1  0  0  0  0  0999 V2000
   -2.7826   -3.8464    0.7821 H   0  0  0  0  0  0  0  0  0  0  0  0
   -2.8156   -2.8034    0.4711 C   0  0  0  0  0  0  0  0  0  0  0  0
   -3.4336   -2.2354    1.1641 H   0  0  0  0  0  0  0  0  0  0  0  0
   -3.2256   -2.7344   -0.5349 H   0  0  0  0  0  0  0  0  0  0  0  0
   -1.4126   -2.2444    0.4801 C   0  0  0  0  0  0  0  0  0  0  0  0
   -0.4686   -2.9534    0.8001 O   0  0  0  0  0  0  0  0  0  0  0  0
   -1.2736   -0.9704    0.1241 N   0  0  0  0  0  0  0  0  0  0  0  0
   -2.0996   -0.4354   -0.1019 H   0  0  0  0  0  0  0  0  0  0  0  0
   -0.0016   -0.2394    0.1271 C   0  0  1  0  0  0  0  0  0  0  0  0
    0.7164   -0.7963    0.7332 H   0  0  0  0  0  0  0  0  0  0  0  0
    0.5351   -0.1414   -1.3146 C   0  0  0  0  0  0  0  0  0  0  0  0
   -0.1930    0.3787   -1.9384 H   0  0  0  0  0  0  0  0  0  0  0  0
    1.4589    0.4380   -1.3240 H   0  0  0  0  0  0  0  0  0  0  0  0
    0.7878   -1.4998   -1.9618 C   0  0  0  0  0  0  0  0  0  0  0  0
    1.2120   -1.6810   -3.0956 O   0  0  0  0  0  0  0  0  0  0  0  0
    0.4974   -2.5588   -1.1833 O   0  0  0  0  0  0  0  0  0  0  0  0
    0.7192   -3.3336   -1.7007 H   0  0  0  0  0  0  0  0  0  0  0  0
   -0.1923    1.1526    0.7617 C   0  0  0  0  0  0  0  0  0  0  0  0
   -1.1582    1.8438    0.4410 O   0  0  0  0  0  0  0  0  0  0  0  0
    0.7203    1.5683    1.6472 N   0  0  0  0  0  0  0  0  0  0  0  0
    1.5210    0.9664    1.8100 H   0  0  0  0  0  0  0  0  0  0  0  0
    0.6747    2.8558    2.3368 C   0  0  0  0  0  0  0  0  0  0  0  0
   -0.3018    2.9877    2.8079 H   0  0  0  0  0  0  0  0  0  0  0  0
    1.4516    2.8997    3.1011 H   0  0  0  0  0  0  0  0  0  0  0  0
    0.8279    3.6639    1.6193 H   0  0  0  0  0  0  0  0  0  0  0  0
  5  6  2  0  0  0  0
  5  7  1  0  0  0  0
  2  3  1  0  0  0  0
  2  4  1  0  0  0  0
  2  5  1  0  0  0  0
  1  2  1  0  0  0  0
 18 19  2  0  0  0  0
 18 20  1  0  0  0  0
 16 17  1  0  0  0  0
 14 15  2  0  0  0  0
 14 16  1  0  0  0  0
 11 12  1  0  0  0  0
 11 13  1  0  0  0  0
 11 14  1  0  0  0  0
  9 10  1  0  0  0  0
  9 11  1  0  0  0  0
  9 18  1  0  0  0  0
  7  8  1  0  0  0  0
  7  9  1  0  0  0  0
 22 23  1  0  0  0  0
 22 24  1  0  0  0  0
 22 25  1  0  0  0  0
 20 21  1  0  0  0  0
 20 22  1  0  0  0  0
M  END
$$$$
default_name
  -OEChem-02102213163D

 25 24  0     1  0  0  0  0  0999 V2000
   -2.7826   -3.8464    0.7821 H   0  0  0  0  0  0  0  0  0  0  0  0
   -2.8156   -2.8034    0.4711 C   0  0  0  0  0  0  0  0  0  0  0  0
   -3.4336   -2.2354    1.1641 H   0  0  0  0  0  0  0  0  0  0  0  0
   -3.2256   -2.7344   -0.5349 H   0  0  0  0  0  0  0  0  0  0  0  0
   -1.4126   -2.2444    0.4801 C   0  0  0  0  0  0  0  0  0  0  0  0
   -0.4686   -2.9534    0.8001 O   0  0  0  0  0  0  0  0  0  0  0  0
   -1.2736   -0.9704    0.1241 N   0  0  0  0  0  0  0  0  0  0  0  0
   -2.0996   -0.4354   -0.1019 H   0  0  0  0  0  0  0  0  0  0  0  0
   -0.0016   -0.2394    0.1271 C   0  0  1  0  0  0  0  0  0  0  0  0
    0.7164   -0.7963    0.7332 H   0  0  0  0  0  0  0  0  0  0  0  0
    0.5351   -0.1414   -1.3146 C   0  0  0  0  0  0  0  0  0  0  0  0
   -0.1930    0.3787   -1.9384 H   0  0  0  0  0  0  0  0  0  0  0  0
    1.4589    0.4380   -1.3240 H   0  0  0  0  0  0  0  0  0  0  0  0
    0.7878   -1.4998   -1.9618 C   0  0  0  0  0  0  0  0  0  0  0  0
    1.4429   -1.6944   -2.9773 O   0  0  0  0  0  0  0  0  0  0  0  0
    0.2148   -2.5414   -1.3303 O   0  0  0  0  0  0  0  0  0  0  0  0
    0.4686   -3.3206   -1.8259 H   0  0  0  0  0  0  0  0  0  0  0  0
   -0.1923    1.1526    0.7617 C   0  0  0  0  0  0  0  0  0  0  0  0
   -1.1582    1.8438    0.4410 O   0  0  0  0  0  0  0  0  0  0  0  0
    0.7203    1.5683    1.6472 N   0  0  0  0  0  0  0  0  0  0  0  0
    1.5210    0.9664    1.8100 H   0  0  0  0  0  0  0  0  0  0  0  0
    0.6747    2.8558    2.3368 C   0  0  0  0  0  0  0  0  0  0  0  0
   -0.3018    2.9877    2.8079 H   0  0  0  0  0  0  0  0  0  0  0  0
    1.4516    2.8997    3.1011 H   0  0  0  0  0  0  0  0  0  0  0  0
    0.8279    3.6639    1.6193 H   0  0  0  0  0  0  0  0  0  0  0  0
  5  6  2  0  0  0  0
  5  7  1  0  0  0  0
  2  3  1  0  0  0  0
  2  4  1  0  0  0  0
  2  5  1  0  0  0  0
  1  2  1  0  0  0  0
 18 19  2  0  0  0  0
 18 20  1  0  0  0  0
 16 17  1  0  0  0  0
 14 15  2  0  0  0  0
 14 16  1  0  0  0  0
 11 12  1  0  0  0  0
 11 13  1  0  0  0  0
 11 14  1  0  0  0  0
  9 10  1  0  0  0  0
  9 11  1  0  0  0  0
  9 18  1  0  0  0  0
  7  8  1  0  0  0  0
  7  9  1  0  0  0  0
 22 23  1  0  0  0  0
 22 24  1  0  0  0  0
 22 25  1  0  0  0  0
 20 21  1  0  0  0  0
 20 22  1  0  0  0  0
M  END
$$$$
default_name
  -OEChem-02102213163D

 25 24  0     1  0  0  0  0  0999 V2000
   -2.7826   -3.8464    0.7821 H   0  0  0  0  0  0  0  0  0  0  0  0
   -2.8156   -2.8034    0.4711 C   0  0  0  0  0  0  0  0  0  0  0  0
   -3.4336   -2.2354    1.1641 H   0  0  0  0  0  0  0  0  0  0  0  0
   -3.2256   -2.7344   -0.5349 H   0  0  0  0  0  0  0  0  0  0  0  0
   -1.4126   -2.2444    0.4801 C   0  0  0  0  0  0  0  0  0  0  0  0
   -0.4686   -2.9534    0.8001 O   0  0  0  0  0  0  0  0  0  0  0  0
   -1.2736   -0.9704    0.1241 N   0  0  0  0  0  0  0  0  0  0  0  0
   -2.0996   -0.4354   -0.1019 H   0  0  0  0  0  0  0  0  0  0  0  0
   -0.0016   -0.2394    0.1271 C   0  0  1  0  0  0  0  0  0  0  0  0
    0.7164   -0.7963    0.7332 H   0  0  0  0  0  0  0  0  0  0  0  0
    0.5351   -0.1414   -1.3146 C   0  0  0  0  0  0  0  0  0  0  0  0
   -0.1930    0.3787   -1.9384 H   0  0  0  0  0  0  0  0  0  0  0  0
    1.4589    0.4380   -1.3240 H   0  0  0  0  0  0  0  0  0  0  0  0
    0.7878   -1.4998   -1.9618 C   0  0  0  0  0  0  0  0  0  0  0  0
    1.6373   -1.7378   -2.8103 O   0  0  0  0  0  0  0  0  0  0  0  0
   -0.0223   -2.4872   -1.5366 O   0  0  0  0  0  0  0  0  0  0  0  0
    0.2568   -3.2752   -2.0040 H   0  0  0  0  0  0  0  0  0  0  0  0
   -0.1923    1.1526    0.7617 C   0  0  0  0  0  0  0  0  0  0  0  0
   -1.1582    1.8438    0.4410 O   0  0  0  0  0  0  0  0  0  0  0  0
    0.7203    1.5683    1.6472 N   0  0  0  0  0  0  0  0  0  0  0  0
    1.5210    0.9664    1.8100 H   0  0  0  0  0  0  0  0  0  0  0  0
    0.6747    2.8558    2.3368 C   0  0  0  0  0  0  0  0  0  0  0  0
   -0.3018    2.9877    2.8079 H   0  0  0  0  0  0  0  0  0  0  0  0
    1.4516    2.8997    3.1011 H   0  0  0  0  0  0  0  0  0  0  0  0
    0.8279    3.6639    1.6193 H   0  0  0  0  0  0  0  0  0  0  0  0
  5  6  2  0  0  0  0
  5  7  1  0  0  0  0
  2  3  1  0  0  0  0
  2  4  1  0  0  0  0
  2  5  1  0  0  0  0
  1  2  1  0  0  0  0
 18 19  2  0  0  0  0
 18 20  1  0  0  0  0
 16 17  1  0  0  0  0
 14 15  2  0  0  0  0
 14 16  1  0  0  0  0
 11 12  1  0  0  0  0
 11 13  1  0  0  0  0
 11 14  1  0  0  0  0
  9 10  1  0  0  0  0
  9 11  1  0  0  0  0
  9 18  1  0  0  0  0
  7  8  1  0  0  0  0
  7  9  1  0  0  0  0
 22 23  1  0  0  0  0
 22 24  1  0  0  0  0
 22 25  1  0  0  0  0
 20 21  1  0  0  0  0
 20 22  1  0  0  0  0
M  END
$$$$
default_name
  -OEChem-02102213163D

 25 24  0     1  0  0  0  0  0999 V2000
   -2.7826   -3.8464    0.7821 H   0  0  0  0  0  0  0  0  0  0  0  0
   -2.8156   -2.8034    0.4711 C   0  0  0  0  0  0  0  0  0  0  0  0
   -3.4336   -2.2354    1.1641 H   0  0  0  0  0  0  0  0  0  0  0  0
   -3.2256   -2.7344   -0.5349 H   0  0  0  0  0  0  0  0  0  0  0  0
   -1.4126   -2.2444    0.4801 C   0  0  0  0  0  0  0  0  0  0  0  0
   -0.4686   -2.9534    0.8001 O   0  0  0  0  0  0  0  0  0  0  0  0
   -1.2736   -0.9704    0.1241 N   0  0  0  0  0  0  0  0  0  0  0  0
   -2.0996   -0.4354   -0.1019 H   0  0  0  0  0  0  0  0  0  0  0  0
   -0.0016   -0.2394    0.1271 C   0  0  1  0  0  0  0  0  0  0  0  0
    0.7164   -0.7963    0.7332 H   0  0  0  0  0  0  0  0  0  0  0  0
    0.5351   -0.1414   -1.3146 C   0  0  0  0  0  0  0  0  0  0  0  0
   -0.1930    0.3787   -1.9384 H   0  0  0  0  0  0  0  0  0  0  0  0
    1.4589    0.4380   -1.3240 H   0  0  0  0  0  0  0  0  0  0  0  0
    0.7878   -1.4998   -1.9618 C   0  0  0  0  0  0  0  0  0  0  0  0
    1.7817   -1.8082   -2.6062 O   0  0  0  0  0  0  0  0  0  0  0  0
   -0.1979   -2.3999   -1.7883 O   0  0  0  0  0  0  0  0  0  0  0  0
    0.0982   -3.2004   -2.2228 H   0  0  0  0  0  0  0  0  0  0  0  0
   -0.1923    1.1526    0.7617 C   0  0  0  0  0  0  0  0  0  0  0  0
   -1.1582    1.8438    0.4410 O   0  0  0  0  0  0  0  0  0  0  0  0
    0.7203    1.5683    1.6472 N   0  0  0  0  0  0  0  0  0  0  0  0
    1.5210    0.9664    1.8100 H   0  0  0  0  0  0  0  0  0  0  0  0
    0.6747    2.8558    2.3368 C   0  0  0  0  0  0  0  0  0  0  0  0
   -0.3018    2.9877    2.8079 H   0  0  0  0  0  0  0  0  0  0  0  0
    1.4516    2.8997    3.1011 H   0  0  0  0  0  0  0  0  0  0  0  0
    0.8279    3.6639    1.6193 H   0  0  0  0  0  0  0  0  0  0  0  0
  5  6  2  0  0  0  0
  5  7  1  0  0  0  0
  2  3  1  0  0  0  0
  2  4  1  0  0  0  0
  2  5  1  0  0  0  0
  1  2  1  0  0  0  0
 18 19  2  0  0  0  0
 18 20  1  0  0  0  0
 16 17  1  0  0  0  0
 14 15  2  0  0  0  0
 14 16  1  0  0  0  0
 11 12  1  0  0  0  0
 11 13  1  0  0  0  0
 11 14  1  0  0  0  0
  9 10  1  0  0  0  0
  9 11  1  0  0  0  0
  9 18  1  0  0  0  0
  7  8  1  0  0  0  0
  7  9  1  0  0  0  0
 22 23  1  0  0  0  0
 22 24  1  0  0  0  0
 22 25  1  0  0  0  0
 20 21  1  0  0  0  0
 20 22  1  0  0  0  0
M  END
$$$$
default_name
  -OEChem-02102213163D

 25 24  0     1  0  0  0  0  0999 V2000
   -2.7826   -3.8464    0.7821 H   0  0  0  0  0  0  0  0  0  0  0  0
   -2.8156   -2.8034    0.4711 C   0  0  0  0  0  0  0  0  0  0  0  0
   -3.4336   -2.2354    1.1641 H   0  0  0  0  0  0  0  0  0  0  0  0
   -3.2256   -2.7344   -0.5349 H   0  0  0  0  0  0  0  0  0  0  0  0
   -1.4126   -2.2444    0.4801 C   0  0  0  0  0  0  0  0  0  0  0  0
   -0.4686   -2.9534    0.8001 O   0  0  0  0  0  0  0  0  0  0  0  0
   -1.2736   -0.9704    0.1241 N   0  0  0  0  0  0  0  0  0  0  0  0
   -2.0996   -0.4354   -0.1019 H   0  0  0  0  0  0  0  0  0  0  0  0
   -0.0016   -0.2394    0.1271 C   0  0  1  0  0  0  0  0  0  0  0  0
    0.7164   -0.7963    0.7332 H   0  0  0  0  0  0  0  0  0  0  0  0
    0.5351   -0.1414   -1.3146 C   0  0  0  0  0  0  0  0  0  0  0  0
   -0.1930    0.3787   -1.9384 H   0  0  0  0  0  0  0  0  0  0  0  0
    1.4589    0.4380   -1.3240 H   0  0  0  0  0  0  0  0  0  0  0  0
    0.7878   -1.4998   -1.9618 C   0  0  0  0  0  0  0  0  0  0  0  0
    1.8665   -1.9008   -2.3787 O   0  0  0  0  0  0  0  0  0  0  0  0
   -0.2999   -2.2856   -2.0681 O   0  0  0  0  0  0  0  0  0  0  0  0
    0.0037   -3.1014   -2.4676 H   0  0  0  0  0  0  0  0  0  0  0  0
   -0.1923    1.1526    0.7617 C   0  0  0  0  0  0  0  0  0  0  0  0
   -1.1582    1.8438    0.4410 O   0  0  0  0  0  0  0  0  0  0  0  0
    0.7203    1.5683    1.6472 N   0  0  0  0  0  0  0  0  0  0  0  0
    1.5210    0.9664    1.8100 H   0  0  0  0  0  0  0  0  0  0  0  0
    0.6747    2.8558    2.3368 C   0  0  0  0  0  0  0  0  0  0  0  0
   -0.3018    2.9877    2.8079 H   0  0  0  0  0  0  0  0  0  0  0  0
    1.4516    2.8997    3.1011 H   0  0  0  0  0  0  0  0  0  0  0  0
    0.8279    3.6639    1.6193 H   0  0  0  0  0  0  0  0  0  0  0  0
  5  6  2  0  0  0  0
  5  7  1  0  0  0  0
  2  3  1  0  0  0  0
  2  4  1  0  0  0  0
  2  5  1  0  0  0  0
  1  2  1  0  0  0  0
 18 19  2  0  0  0  0
 18 20  1  0  0  0  0
 16 17  1  0  0  0  0
 14 15  2  0  0  0  0
 14 16  1  0  0  0  0
 11 12  1  0  0  0  0
 11 13  1  0  0  0  0
 11 14  1  0  0  0  0
  9 10  1  0  0  0  0
  9 11  1  0  0  0  0
  9 18  1  0  0  0  0
  7  8  1  0  0  0  0
  7  9  1  0  0  0  0
 22 23  1  0  0  0  0
 22 24  1  0  0  0  0
 22 25  1  0  0  0  0
 20 21  1  0  0  0  0
 20 22  1  0  0  0  0
M  END
$$$$
default_name
  -OEChem-02102213163D

 25 24  0     1  0  0  0  0  0999 V2000
   -2.7826   -3.8464    0.7821 H   0  0  0  0  0  0  0  0  0  0  0  0
   -2.8156   -2.8034    0.4711 C   0  0  0  0  0  0  0  0  0  0  0  0
   -3.4336   -2.2354    1.1641 H   0  0  0  0  0  0  0  0  0  0  0  0
   -3.2256   -2.7344   -0.5349 H   0  0  0  0  0  0  0  0  0  0  0  0
   -1.4126   -2.2444    0.4801 C   0  0  0  0  0  0  0  0  0  0  0  0
   -0.4686   -2.9534    0.8001 O   0  0  0  0  0  0  0  0  0  0  0  0
   -1.2736   -0.9704    0.1241 N   0  0  0  0  0  0  0  0  0  0  0  0
   -2.0996   -0.4354   -0.1019 H   0  0  0  0  0  0  0  0  0  0  0  0
   -0.0016   -0.2394    0.1271 C   0  0  1  0  0  0  0  0  0  0  0  0
    0.7164   -0.7963    0.7332 H   0  0  0  0  0  0  0  0  0  0  0  0
    0.5351   -0.1414   -1.3146 C   0  0  0  0  0  0  0  0  0  0  0  0
   -0.1930    0.3787   -1.9384 H   0  0  0  0  0  0  0  0  0  0  0  0
    1.4589    0.4380   -1.3240 H   0  0  0  0  0  0  0  0  0  0  0  0
    0.7878   -1.4998   -1.9618 C   0  0  0  0  0  0  0  0  0  0  0  0
    1.8858   -2.0093   -2.1434 O   0  0  0  0  0  0  0  0  0  0  0  0
   -0.3215   -2.1520   -2.3570 O   0  0  0  0  0  0  0  0  0  0  0  0
   -0.0204   -2.9849   -2.7215 H   0  0  0  0  0  0  0  0  0  0  0  0
   -0.1923    1.1526    0.7617 C   0  0  0  0  0  0  0  0  0  0  0  0
   -1.1582    1.8438    0.4410 O   0  0  0  0  0  0  0  0  0  0  0  0
    0.7203    1.5683    1.6472 N   0  0  0  0  0  0  0  0  0  0  0  0
    1.5210    0.9664    1.8100 H   0  0  0  0  0  0  0  0  0  0  0  0
    0.6747    2.8558    2.3368 C   0  0  0  0  0  0  0  0  0  0  0  0
   -0.3018    2.9877    2.8079 H   0  0  0  0  0  0  0  0  0  0  0  0
    1.4516    2.8997    3.1011 H   0  0  0  0  0  0  0  0  0  0  0  0
    0.8279    3.6639    1.6193 H   0  0  0  0  0  0  0  0  0  0  0  0
  5  6  2  0  0  0  0
  5  7  1  0  0  0  0
  2  3  1  0  0  0  0
  2  4  1  0  0  0  0
  2  5  1  0  0  0  0
  1  2  1  0  0  0  0
 18 19  2  0  0  0  0
 18 20  1  0  0  0  0
 16 17  1  0  0  0  0
 14 15  2  0  0  0  0
 14 16  1  0  0  0  0
 11 12  1  0  0  0  0
 11 13  1  0  0  0  0
 11 14  1  0  0  0  0
  9 10  1  0  0  0  0
  9 11  1  0  0  0  0
  9 18  1  0  0  0  0
  7  8  1  0  0  0  0
  7  9  1  0  0  0  0
 22 23  1  0  0  0  0
 22 24  1  0  0  0  0
 22 25  1  0  0  0  0
 20 21  1  0  0  0  0
 20 22  1  0  0  0  0
M  END
$$$$
default_name
  -OEChem-02102213163D

 25 24  0     1  0  0  0  0  0999 V2000
   -2.7826   -3.8464    0.7821 H   0  0  0  0  0  0  0  0  0  0  0  0
   -2.8156   -2.8034    0.4711 C   0  0  0  0  0  0  0  0  0  0  0  0
   -3.4336   -2.2354    1.1641 H   0  0  0  0  0  0  0  0  0  0  0  0
   -3.2256   -2.7344   -0.5349 H   0  0  0  0  0  0  0  0  0  0  0  0
   -1.4126   -2.2444    0.4801 C   0  0  0  0  0  0  0  0  0  0  0  0
   -0.4686   -2.9534    0.8001 O   0  0  0  0  0  0  0  0  0  0  0  0
   -1.2736   -0.9704    0.1241 N   0  0  0  0  0  0  0  0  0  0  0  0
   -2.0996   -0.4354   -0.1019 H   0  0  0  0  0  0  0  0  0  0  0  0
   -0.0016   -0.2394    0.1271 C   0  0  1  0  0  0  0  0  0  0  0  0
    0.7164   -0.7963    0.7332 H   0  0  0  0  0  0  0  0  0  0  0  0
    0.5351   -0.1414   -1.3146 C   0  0  0  0  0  0  0  0  0  0  0  0
   -0.1930    0.3787   -1.9384 H   0  0  0  0  0  0  0  0  0  0  0  0
    1.4589    0.4380   -1.3240 H   0  0  0  0  0  0  0  0  0  0  0  0
    0.7878   -1.4998   -1.9618 C   0  0  0  0  0  0  0  0  0  0  0  0
    1.8383   -2.1263   -1.9164 O   0  0  0  0  0  0  0  0  0  0  0  0
   -0.2610   -2.0082   -2.6352 O   0  0  0  0  0  0  0  0  0  0  0  0
    0.0277   -2.8588   -2.9674 H   0  0  0  0  0  0  0  0  0  0  0  0
   -0.1923    1.1526    0.7617 C   0  0  0  0  0  0  0  0  0  0  0  0
   -1.1582    1.8438    0.4410 O   0  0  0  0  0  0  0  0  0  0  0  0
    0.7203    1.5683    1.6472 N   0  0  0  0  0  0  0  0  0  0  0  0
    1.5210    0.9664    1.8100 H   0  0  0  0  0  0  0  0  0  0  0  0
    0.6747    2.8558    2.3368 C   0  0  0  0  0  0  0  0  0  0  0  0
   -0.3018    2.9877    2.8079 H   0  0  0  0  0  0  0  0  0  0  0  0
    1.4516    2.8997    3.1011 H   0  0  0  0  0  0  0  0  0  0  0  0
    0.8279    3.6639    1.6193 H   0  0  0  0  0  0  0  0  0  0  0  0
  5  6  2  0  0  0  0
  5  7  1  0  0  0  0
  2  3  1  0  0  0  0
  2  4  1  0  0  0  0
  2  5  1  0  0  0  0
  1  2  1  0  0  0  0
 18 19  2  0  0  0  0
 18 20  1  0  0  0  0
 16 17  1  0  0  0  0
 14 15  2  0  0  0  0
 14 16  1  0  0  0  0
 11 12  1  0  0  0  0
 11 13  1  0  0  0  0
 11 14  1  0  0  0  0
  9 10  1  0  0  0  0
  9 11  1  0  0  0  0
  9 18  1  0  0  0  0
  7  8  1  0  0  0  0
  7  9  1  0  0  0  0
 22 23  1  0  0  0  0
 22 24  1  0  0  0  0
 22 25  1  0  0  0  0
 20 21  1  0  0  0  0
 20 22  1  0  0  0  0
M  END
$$$$
default_name
  -OEChem-02102213163D

 25 24  0     1  0  0  0  0  0999 V2000
   -2.7826   -3.8464    0.7821 H   0  0  0  0  0  0  0  0  0  0  0  0
   -2.8156   -2.8034    0.4711 C   0  0  0  0  0  0  0  0  0  0  0  0
   -3.4336   -2.2354    1.1641 H   0  0  0  0  0  0  0  0  0  0  0  0
   -3.2256   -2.7344   -0.5349 H   0  0  0  0  0  0  0  0  0  0  0  0
   -1.4126   -2.2444    0.4801 C   0  0  0  0  0  0  0  0  0  0  0  0
   -0.4686   -2.9534    0.8001 O   0  0  0  0  0  0  0  0  0  0  0  0
   -1.2736   -0.9704    0.1241 N   0  0  0  0  0  0  0  0  0  0  0  0
   -2.0996   -0.4354   -0.1019 H   0  0  0  0  0  0  0  0  0  0  0  0
   -0.0016   -0.2394    0.1271 C   0  0  1  0  0  0  0  0  0  0  0  0
    0.7164   -0.7963    0.7332 H   0  0  0  0  0  0  0  0  0  0  0  0
    0.5351   -0.1414   -1.3146 C   0  0  0  0  0  0  0  0  0  0  0  0
   -0.1930    0.3787   -1.9384 H   0  0  0  0  0  0  0  0  0  0  0  0
    1.4589    0.4380   -1.3240 H   0  0  0  0  0  0  0  0  0  0  0  0
    0.7878   -1.4998   -1.9618 C   0  0  0  0  0  0  0  0  0  0  0  0
    1.7273   -2.2439   -1.7130 O   0  0  0  0  0  0  0  0  0  0  0  0
   -0.1228   -1.8640   -2.8839 O   0  0  0  0  0  0  0  0  0  0  0  0
    0.1446   -2.7317   -3.1884 H   0  0  0  0  0  0  0  0  0  0  0  0
   -0.1923    1.1526    0.7617 C   0  0  0  0  0  0  0  0  0  0  0  0
   -1.1582    1.8438    0.4410 O   0  0  0  0  0  0  0  0  0  0  0  0
    0.7203    1.5683    1.6472 N   0  0  0  0  0  0  0  0  0  0  0  0
    1.5210    0.9664    1.8100 H   0  0  0  0  0  0  0  0  0  0  0  0
    0.6747    2.8558    2.3368 C   0  0  0  0  0  0  0  0  0  0  0  0
   -0.3018    2.9877    2.8079 H   0  0  0  0  0  0  0  0  0  0  0  0
    1.4516    2.8997    3.1011 H   0  0  0  0  0  0  0  0  0  0  0  0
    0.8279    3.6639    1.6193 H   0  0  0  0  0  0  0  0  0  0  0  0
  5  6  2  0  0  0  0
  5  7  1  0  0  0  0
  2  3  1  0  0  0  0
  2  4  1  0  0  0  0
  2  5  1  0  0  0  0
  1  2  1  0  0  0  0
 18 19  2  0  0  0  0
 18 20  1  0  0  0  0
 16 17  1  0  0  0  0
 14 15  2  0  0  0  0
 14 16  1  0  0  0  0
 11 12  1  0  0  0  0
 11 13  1  0  0  0  0
 11 14  1  0  0  0  0
  9 10  1  0  0  0  0
  9 11  1  0  0  0  0
  9 18  1  0  0  0  0
  7  8  1  0  0  0  0
  7  9  1  0  0  0  0
 22 23  1  0  0  0  0
 22 24  1  0  0  0  0
 22 25  1  0  0  0  0
 20 21  1  0  0  0  0
 20 22  1  0  0  0  0
M  END
$$$$
default_name
  -OEChem-02102213163D

 25 24  0     1  0  0  0  0  0999 V2000
   -2.7826   -3.8464    0.7821 H   0  0  0  0  0  0  0  0  0  0  0  0
   -2.8156   -2.8034    0.4711 C   0  0  0  0  0  0  0  0  0  0  0  0
   -3.4336   -2.2354    1.1641 H   0  0  0  0  0  0  0  0  0  0  0  0
   -3.2256   -2.7344   -0.5349 H   0  0  0  0  0  0  0  0  0  0  0  0
   -1.4126   -2.2444    0.4801 C   0  0  0  0  0  0  0  0  0  0  0  0
   -0.4686   -2.9534    0.8001 O   0  0  0  0  0  0  0  0  0  0  0  0
   -1.2736   -0.9704    0.1241 N   0  0  0  0  0  0  0  0  0  0  0  0
   -2.0996   -0.4354   -0.1019 H   0  0  0  0  0  0  0  0  0  0  0  0
   -0.0016   -0.2394    0.1271 C   0  0  1  0  0  0  0  0  0  0  0  0
    0.7164   -0.7963    0.7332 H   0  0  0  0  0  0  0  0  0  0  0  0
    0.5351   -0.1414   -1.3146 C   0  0  0  0  0  0  0  0  0  0  0  0
   -0.1930    0.3787   -1.9384 H   0  0  0  0  0  0  0  0  0  0  0  0
    1.4589    0.4380   -1.3240 H   0  0  0  0  0  0  0  0  0  0  0  0
    0.7878   -1.4998   -1.9618 C   0  0  0  0  0  0  0  0  0  0  0  0
    1.5603   -2.3539   -1.5472 O   0  0  0  0  0  0  0  0  0  0  0  0
    0.0839   -1.7292   -3.0861 O   0  0  0  0  0  0  0  0  0  0  0  0
    0.3225   -2.6124   -3.3694 H   0  0  0  0  0  0  0  0  0  0  0  0
   -0.1923    1.1526    0.7617 C   0  0  0  0  0  0  0  0  0  0  0  0
   -1.1582    1.8438    0.4410 O   0  0  0  0  0  0  0  0  0  0  0  0
    0.7203    1.5683    1.6472 N   0  0  0  0  0  0  0  0  0  0  0  0
    1.5210    0.9664    1.8100 H   0  0  0  0  0  0  0  0  0  0  0  0
    0.6747    2.8558    2.3368 C   0  0  0  0  0  0  0  0  0  0  0  0
   -0.3018    2.9877    2.8079 H   0  0  0  0  0  0  0  0  0  0  0  0
    1.4516    2.8997    3.1011 H   0  0  0  0  0  0  0  0  0  0  0  0
    0.8279    3.6639    1.6193 H   0  0  0  0  0  0  0  0  0  0  0  0
  5  6  2  0  0  0  0
  5  7  1  0  0  0  0
  2  3  1  0  0  0  0
  2  4  1  0  0  0  0
  2  5  1  0  0  0  0
  1  2  1  0  0  0  0
 18 19  2  0  0  0  0
 18 20  1  0  0  0  0
 16 17  1  0  0  0  0
 14 15  2  0  0  0  0
 14 16  1  0  0  0  0
 11 12  1  0  0  0  0
 11 13  1  0  0  0  0
 11 14  1  0  0  0  0
  9 10  1  0  0  0  0
  9 11  1  0  0  0  0
  9 18  1  0  0  0  0
  7  8  1  0  0  0  0
  7  9  1  0  0  0  0
 22 23  1  0  0  0  0
 22 24  1  0  0  0  0
 22 25  1  0  0  0  0
 20 21  1  0  0  0  0
 20 22  1  0  0  0  0
M  END
$$$$
default_name
  -OEChem-02102213163D

 25 24  0     1  0  0  0  0  0999 V2000
   -2.7826   -3.8464    0.7821 H   0  0  0  0  0  0  0  0  0  0  0  0
   -2.8156   -2.8034    0.4711 C   0  0  0  0  0  0  0  0  0  0  0  0
   -3.4336   -2.2354    1.1641 H   0  0  0  0  0  0  0  0  0  0  0  0
   -3.2256   -2.7344   -0.5349 H   0  0  0  0  0  0  0  0  0  0  0  0
   -1.4126   -2.2444    0.4801 C   0  0  0  0  0  0  0  0  0  0  0  0
   -0.4686   -2.9534    0.8001 O   0  0  0  0  0  0  0  0  0  0  0  0
   -1.2736   -0.9704    0.1241 N   0  0  0  0  0  0  0  0  0  0  0  0
   -2.0996   -0.4354   -0.1019 H   0  0  0  0  0  0  0  0  0  0  0  0
   -0.0016   -0.2394    0.1271 C   0  0  1  0  0  0  0  0  0  0  0  0
    0.7164   -0.7963    0.7332 H   0  0  0  0  0  0  0  0  0  0  0  0
    0.5351   -0.1414   -1.3146 C   0  0  0  0  0  0  0  0  0  0  0  0
   -0.1930    0.3787   -1.9384 H   0  0  0  0  0  0  0  0  0  0  0  0
    1.4589    0.4380   -1.3240 H   0  0  0  0  0  0  0  0  0  0  0  0
    0.7878   -1.4998   -1.9618 C   0  0  0  0  0  0  0  0  0  0  0  0
    1.3487   -2.4490   -1.4302 O   0  0  0  0  0  0  0  0  0  0  0  0
    0.3450   -1.6130   -3.2279 O   0  0  0  0  0  0  0  0  0  0  0  0
    0.5490   -2.5089   -3.4982 H   0  0  0  0  0  0  0  0  0  0  0  0
   -0.1923    1.1526    0.7617 C   0  0  0  0  0  0  0  0  0  0  0  0
   -1.1582    1.8438    0.4410 O   0  0  0  0  0  0  0  0  0  0  0  0
    0.7203    1.5683    1.6472 N   0  0  0  0  0  0  0  0  0  0  0  0
    1.5210    0.9664    1.8100 H   0  0  0  0  0  0  0  0  0  0  0  0
    0.6747    2.8558    2.3368 C   0  0  0  0  0  0  0  0  0  0  0  0
   -0.3018    2.9877    2.8079 H   0  0  0  0  0  0  0  0  0  0  0  0
    1.4516    2.8997    3.1011 H   0  0  0  0  0  0  0  0  0  0  0  0
    0.8279    3.6639    1.6193 H   0  0  0  0  0  0  0  0  0  0  0  0
  5  6  2  0  0  0  0
  5  7  1  0  0  0  0
  2  3  1  0  0  0  0
  2  4  1  0  0  0  0
  2  5  1  0  0  0  0
  1  2  1  0  0  0  0
 18 19  2  0  0  0  0
 18 20  1  0  0  0  0
 16 17  1  0  0  0  0
 14 15  2  0  0  0  0
 14 16  1  0  0  0  0
 11 12  1  0  0  0  0
 11 13  1  0  0  0  0
 11 14  1  0  0  0  0
  9 10  1  0  0  0  0
  9 11  1  0  0  0  0
  9 18  1  0  0  0  0
  7  8  1  0  0  0  0
  7  9  1  0  0  0  0
 22 23  1  0  0  0  0
 22 24  1  0  0  0  0
 22 25  1  0  0  0  0
 20 21  1  0  0  0  0
 20 22  1  0  0  0  0
M  END
$$$$
default_name
  -OEChem-02102213163D

 25 24  0     1  0  0  0  0  0999 V2000
   -2.7826   -3.8464    0.7821 H   0  0  0  0  0  0  0  0  0  0  0  0
   -2.8156   -2.8034    0.4711 C   0  0  0  0  0  0  0  0  0  0  0  0
   -3.4336   -2.2354    1.1641 H   0  0  0  0  0  0  0  0  0  0  0  0
   -3.2256   -2.7344   -0.5349 H   0  0  0  0  0  0  0  0  0  0  0  0
   -1.4126   -2.2444    0.4801 C   0  0  0  0  0  0  0  0  0  0  0  0
   -0.4686   -2.9534    0.8001 O   0  0  0  0  0  0  0  0  0  0  0  0
   -1.2736   -0.9704    0.1241 N   0  0  0  0  0  0  0  0  0  0  0  0
   -2.0996   -0.4354   -0.1019 H   0  0  0  0  0  0  0  0  0  0  0  0
   -0.0016   -0.2394    0.1271 C   0  0  1  0  0  0  0  0  0  0  0  0
    0.7164   -0.7963    0.7332 H   0  0  0  0  0  0  0  0  0  0  0  0
    0.5351   -0.1414   -1.3146 C   0  0  0  0  0  0  0  0  0  0  0  0
   -0.1930    0.3787   -1.9384 H   0  0  0  0  0  0  0  0  0  0  0  0
    1.4589    0.4380   -1.3240 H   0  0  0  0  0  0  0  0  0  0  0  0
    0.7878   -1.4998   -1.9618 C   0  0  0  0  0  0  0  0  0  0  0  0
    1.1069   -2.5227   -1.3701 O   0  0  0  0  0  0  0  0  0  0  0  0
    0.6426   -1.5234   -3.2998 O   0  0  0  0  0  0  0  0  0  0  0  0
    0.8089   -2.4282   -3.5660 H   0  0  0  0  0  0  0  0  0  0  0  0
   -0.1923    1.1526    0.7617 C   0  0  0  0  0  0  0  0  0  0  0  0
   -1.1582    1.8438    0.4410 O   0  0  0  0  0  0  0  0  0  0  0  0
    0.7203    1.5683    1.6472 N   0  0  0  0  0  0  0  0  0  0  0  0
    1.5210    0.9664    1.8100 H   0  0  0  0  0  0  0  0  0  0  0  0
    0.6747    2.8558    2.3368 C   0  0  0  0  0  0  0  0  0  0  0  0
   -0.3018    2.9877    2.8079 H   0  0  0  0  0  0  0  0  0  0  0  0
    1.4516    2.8997    3.1011 H   0  0  0  0  0  0  0  0  0  0  0  0
    0.8279    3.6639    1.6193 H   0  0  0  0  0  0  0  0  0  0  0  0
  5  6  2  0  0  0  0
  5  7  1  0  0  0  0
  2  3  1  0  0  0  0
  2  4  1  0  0  0  0
  2  5  1  0  0  0  0
  1  2  1  0  0  0  0
 18 19  2  0  0  0  0
 18 20  1  0  0  0  0
 16 17  1  0  0  0  0
 14 15  2  0  0  0  0
 14 16  1  0  0  0  0
 11 12  1  0  0  0  0
 11 13  1  0  0  0  0
 11 14  1  0  0  0  0
  9 10  1  0  0  0  0
  9 11  1  0  0  0  0
  9 18  1  0  0  0  0
  7  8  1  0  0  0  0
  7  9  1  0  0  0  0
 22 23  1  0  0  0  0
 22 24  1  0  0  0  0
 22 25  1  0  0  0  0
 20 21  1  0  0  0  0
 20 22  1  0  0  0  0
M  END
$$$$
default_name
  -OEChem-02102213163D

 25 24  0     1  0  0  0  0  0999 V2000
   -2.7826   -3.8464    0.7821 H   0  0  0  0  0  0  0  0  0  0  0  0
   -2.8156   -2.8034    0.4711 C   0  0  0  0  0  0  0  0  0  0  0  0
   -3.4336   -2.2354    1.1641 H   0  0  0  0  0  0  0  0  0  0  0  0
   -3.2256   -2.7344   -0.5349 H   0  0  0  0  0  0  0  0  0  0  0  0
   -1.4126   -2.2444    0.4801 C   0  0  0  0  0  0  0  0  0  0  0  0
   -0.4686   -2.9534    0.8001 O   0  0  0  0  0  0  0  0  0  0  0  0
   -1.2736   -0.9704    0.1241 N   0  0  0  0  0  0  0  0  0  0  0  0
   -2.0996   -0.4354   -0.1019 H   0  0  0  0  0  0  0  0  0  0  0  0
   -0.0016   -0.2394    0.1271 C   0  0  1  0  0  0  0  0  0  0  0  0
    0.7164   -0.7963    0.7332 H   0  0  0  0  0  0  0  0  0  0  0  0
    0.5351   -0.1414   -1.3146 C   0  0  0  0  0  0  0  0  0  0  0  0
   -0.1930    0.3787   -1.9384 H   0  0  0  0  0  0  0  0  0  0  0  0
    1.4589    0.4380   -1.3240 H   0  0  0  0  0  0  0  0  0  0  0  0
    0.7878   -1.4998   -1.9618 C   0  0  0  0  0  0  0  0  0  0  0  0
    0.8514   -2.5698   -1.3709 O   0  0  0  0  0  0  0  0  0  0  0  0
    0.9564   -1.4664   -3.2969 O   0  0  0  0  0  0  0  0  0  0  0  0
    1.0845   -2.3760   -3.5681 H   0  0  0  0  0  0  0  0  0  0  0  0
   -0.1923    1.1526    0.7617 C   0  0  0  0  0  0  0  0  0  0  0  0
   -1.1582    1.8438    0.4410 O   0  0  0  0  0  0  0  0  0  0  0  0
    0.7203    1.5683    1.6472 N   0  0  0  0  0  0  0  0  0  0  0  0
    1.5210    0.9664    1.8100 H   0  0  0  0  0  0  0  0  0  0  0  0
    0.6747    2.8558    2.3368 C   0  0  0  0  0  0  0  0  0  0  0  0
   -0.3018    2.9877    2.8079 H   0  0  0  0  0  0  0  0  0  0  0  0
    1.4516    2.8997    3.1011 H   0  0  0  0  0  0  0  0  0  0  0  0
    0.8279    3.6639    1.6193 H   0  0  0  0  0  0  0  0  0  0  0  0
  5  6  2  0  0  0  0
  5  7  1  0  0  0  0
  2  3  1  0  0  0  0
  2  4  1  0  0  0  0
  2  5  1  0  0  0  0
  1  2  1  0  0  0  0
 18 19  2  0  0  0  0
 18 20  1  0  0  0  0
 16 17  1  0  0  0  0
 14 15  2  0  0  0  0
 14 16  1  0  0  0  0
 11 12  1  0  0  0  0
 11 13  1  0  0  0  0
 11 14  1  0  0  0  0
  9 10  1  0  0  0  0
  9 11  1  0  0  0  0
  9 18  1  0  0  0  0
  7  8  1  0  0  0  0
  7  9  1  0  0  0  0
 22 23  1  0  0  0  0
 22 24  1  0  0  0  0
 22 25  1  0  0  0  0
 20 21  1  0  0  0  0
 20 22  1  0  0  0  0
M  END
$$$$
default_name
  -OEChem-02102213163D

 25 24  0     1  0  0  0  0  0999 V2000
   -2.7826   -3.8464    0.7821 H   0  0  0  0  0  0  0  0  0  0  0  0
   -2.8156   -2.8034    0.4711 C   0  0  0  0  0  0  0  0  0  0  0  0
   -3.4336   -2.2354    1.1641 H   0  0  0  0  0  0  0  0  0  0  0  0
   -3.2256   -2.7344   -0.5349 H   0  0  0  0  0  0  0  0  0  0  0  0
   -1.4126   -2.2444    0.4801 C   0  0  0  0  0  0  0  0  0  0  0  0
   -0.4686   -2.9534    0.8001 O   0  0  0  0  0  0  0  0  0  0  0  0
   -1.2736   -0.9704    0.1241 N   0  0  0  0  0  0  0  0  0  0  0  0
   -2.0996   -0.4354   -0.1019 H   0  0  0  0  0  0  0  0  0  0  0  0
   -0.0016   -0.2394    0.1271 C   0  0  1  0  0  0  0  0  0  0  0  0
    0.7164   -0.7963    0.7332 H   0  0  0  0  0  0  0  0  0  0  0  0
    0.5351   -0.1414   -1.3146 C   0  0  0  0  0  0  0  0  0  0  0  0
   -0.1930    0.3787   -1.9384 H   0  0  0  0  0  0  0  0  0  0  0  0
    1.4589    0.4380   -1.3240 H   0  0  0  0  0  0  0  0  0  0  0  0
    0.7878   -1.4998   -1.9618 C   0  0  0  0  0  0  0  0  0  0  0  0
    0.5996   -2.5873   -1.4325 O   0  0  0  0  0  0  0  0  0  0  0  0
    1.2652   -1.4459   -3.2193 O   0  0  0  0  0  0  0  0  0  0  0  0
    1.3568   -2.3556   -3.5044 H   0  0  0  0  0  0  0  0  0  0  0  0
   -0.1923    1.1526    0.7617 C   0  0  0  0  0  0  0  0  0  0  0  0
   -1.1582    1.8438    0.4410 O   0  0  0  0  0  0  0  0  0  0  0  0
    0.7203    1.5683    1.6472 N   0  0  0  0  0  0  0  0  0  0  0  0
    1.5210    0.9664    1.8100 H   0  0  0  0  0  0  0  0  0  0  0  0
    0.6747    2.8558    2.3368 C   0  0  0  0  0  0  0  0  0  0  0  0
   -0.3018    2.9877    2.8079 H   0  0  0  0  0  0  0  0  0  0  0  0
    1.4516    2.8997    3.1011 H   0  0  0  0  0  0  0  0  0  0  0  0
    0.8279    3.6639    1.6193 H   0  0  0  0  0  0  0  0  0  0  0  0
  5  6  2  0  0  0  0
  5  7  1  0  0  0  0
  2  3  1  0  0  0  0
  2  4  1  0  0  0  0
  2  5  1  0  0  0  0
  1  2  1  0  0  0  0
 18 19  2  0  0  0  0
 18 20  1  0  0  0  0
 16 17  1  0  0  0  0
 14 15  2  0  0  0  0
 14 16  1  0  0  0  0
 11 12  1  0  0  0  0
 11 13  1  0  0  0  0
 11 14  1  0  0  0  0
  9 10  1  0  0  0  0
  9 11  1  0  0  0  0
  9 18  1  0  0  0  0
  7  8  1  0  0  0  0
  7  9  1  0  0  0  0
 22 23  1  0  0  0  0
 22 24  1  0  0  0  0
 22 25  1  0  0  0  0
 20 21  1  0  0  0  0
 20 22  1  0  0  0  0
M  END
$$$$
default_name
  -OEChem-02102213163D

 25 24  0     1  0  0  0  0  0999 V2000
   -2.7826   -3.8464    0.7821 H   0  0  0  0  0  0  0  0  0  0  0  0
   -2.8156   -2.8034    0.4711 C   0  0  0  0  0  0  0  0  0  0  0  0
   -3.4336   -2.2354    1.1641 H   0  0  0  0  0  0  0  0  0  0  0  0
   -3.2256   -2.7344   -0.5349 H   0  0  0  0  0  0  0  0  0  0  0  0
   -1.4126   -2.2444    0.4801 C   0  0  0  0  0  0  0  0  0  0  0  0
   -0.4686   -2.9534    0.8001 O   0  0  0  0  0  0  0  0  0  0  0  0
   -1.2736   -0.9704    0.1241 N   0  0  0  0  0  0  0  0  0  0  0  0
   -2.0996   -0.4354   -0.1019 H   0  0  0  0  0  0  0  0  0  0  0  0
   -0.0016   -0.2394    0.1271 C   0  0  1  0  0  0  0  0  0  0  0  0
    0.7164   -0.7963    0.7332 H   0  0  0  0  0  0  0  0  0  0  0  0
    0.5351   -0.1414   -1.3146 C   0  0  0  0  0  0  0  0  0  0  0  0
   -0.1930    0.3787   -1.9384 H   0  0  0  0  0  0  0  0  0  0  0  0
    1.4589    0.4380   -1.3240 H   0  0  0  0  0  0  0  0  0  0  0  0
    0.7878   -1.4998   -1.9618 C   0  0  0  0  0  0  0  0  0  0  0  0
    0.3687   -2.5739   -1.5508 O   0  0  0  0  0  0  0  0  0  0  0  0
    1.5478   -1.4634   -3.0723 O   0  0  0  0  0  0  0  0  0  0  0  0
    1.6074   -2.3686   -3.3792 H   0  0  0  0  0  0  0  0  0  0  0  0
   -0.1923    1.1526    0.7617 C   0  0  0  0  0  0  0  0  0  0  0  0
   -1.1582    1.8438    0.4410 O   0  0  0  0  0  0  0  0  0  0  0  0
    0.7203    1.5683    1.6472 N   0  0  0  0  0  0  0  0  0  0  0  0
    1.5210    0.9664    1.8100 H   0  0  0  0  0  0  0  0  0  0  0  0
    0.6747    2.8558    2.3368 C   0  0  0  0  0  0  0  0  0  0  0  0
   -0.3018    2.9877    2.8079 H   0  0  0  0  0  0  0  0  0  0  0  0
    1.4516    2.8997    3.1011 H   0  0  0  0  0  0  0  0  0  0  0  0
    0.8279    3.6639    1.6193 H   0  0  0  0  0  0  0  0  0  0  0  0
  5  6  2  0  0  0  0
  5  7  1  0  0  0  0
  2  3  1  0  0  0  0
  2  4  1  0  0  0  0
  2  5  1  0  0  0  0
  1  2  1  0  0  0  0
 18 19  2  0  0  0  0
 18 20  1  0  0  0  0
 16 17  1  0  0  0  0
 14 15  2  0  0  0  0
 14 16  1  0  0  0  0
 11 12  1  0  0  0  0
 11 13  1  0  0  0  0
 11 14  1  0  0  0  0
  9 10  1  0  0  0  0
  9 11  1  0  0  0  0
  9 18  1  0  0  0  0
  7  8  1  0  0  0  0
  7  9  1  0  0  0  0
 22 23  1  0  0  0  0
 22 24  1  0  0  0  0
 22 25  1  0  0  0  0
 20 21  1  0  0  0  0
 20 22  1  0  0  0  0
M  END
$$$$
default_name
  -OEChem-02102213163D

 25 24  0     1  0  0  0  0  0999 V2000
   -2.7826   -3.8464    0.7821 H   0  0  0  0  0  0  0  0  0  0  0  0
   -2.8156   -2.8034    0.4711 C   0  0  0  0  0  0  0  0  0  0  0  0
   -3.4336   -2.2354    1.1641 H   0  0  0  0  0  0  0  0  0  0  0  0
   -3.2256   -2.7344   -0.5349 H   0  0  0  0  0  0  0  0  0  0  0  0
   -1.4126   -2.2444    0.4801 C   0  0  0  0  0  0  0  0  0  0  0  0
   -0.4686   -2.9534    0.8001 O   0  0  0  0  0  0  0  0  0  0  0  0
   -1.2736   -0.9704    0.1241 N   0  0  0  0  0  0  0  0  0  0  0  0
   -2.0996   -0.4354   -0.1019 H   0  0  0  0  0  0  0  0  0  0  0  0
   -0.0016   -0.2394    0.1271 C   0  0  1  0  0  0  0  0  0  0  0  0
    0.7164   -0.7963    0.7332 H   0  0  0  0  0  0  0  0  0  0  0  0
    0.5351   -0.1414   -1.3146 C   0  0  0  0  0  0  0  0  0  0  0  0
   -0.1930    0.3787   -1.9384 H   0  0  0  0  0  0  0  0  0  0  0  0
    1.4589    0.4380   -1.3240 H   0  0  0  0  0  0  0  0  0  0  0  0
    0.7878   -1.4998   -1.9618 C   0  0  0  0  0  0  0  0  0  0  0  0
    0.1744   -2.5305   -1.7178 O   0  0  0  0  0  0  0  0  0  0  0  0
    1.7849   -1.5176   -2.8659 O   0  0  0  0  0  0  0  0  0  0  0  0
    1.8192   -2.4141   -3.2011 H   0  0  0  0  0  0  0  0  0  0  0  0
   -0.1923    1.1526    0.7617 C   0  0  0  0  0  0  0  0  0  0  0  0
   -1.1582    1.8438    0.4410 O   0  0  0  0  0  0  0  0  0  0  0  0
    0.7203    1.5683    1.6472 N   0  0  0  0  0  0  0  0  0  0  0  0
    1.5210    0.9664    1.8100 H   0  0  0  0  0  0  0  0  0  0  0  0
    0.6747    2.8558    2.3368 C   0  0  0  0  0  0  0  0  0  0  0  0
   -0.3018    2.9877    2.8079 H   0  0  0  0  0  0  0  0  0  0  0  0
    1.4516    2.8997    3.1011 H   0  0  0  0  0  0  0  0  0  0  0  0
    0.8279    3.6639    1.6193 H   0  0  0  0  0  0  0  0  0  0  0  0
  5  6  2  0  0  0  0
  5  7  1  0  0  0  0
  2  3  1  0  0  0  0
  2  4  1  0  0  0  0
  2  5  1  0  0  0  0
  1  2  1  0  0  0  0
 18 19  2  0  0  0  0
 18 20  1  0  0  0  0
 16 17  1  0  0  0  0
 14 15  2  0  0  0  0
 14 16  1  0  0  0  0
 11 12  1  0  0  0  0
 11 13  1  0  0  0  0
 11 14  1  0  0  0  0
  9 10  1  0  0  0  0
  9 11  1  0  0  0  0
  9 18  1  0  0  0  0
  7  8  1  0  0  0  0
  7  9  1  0  0  0  0
 22 23  1  0  0  0  0
 22 24  1  0  0  0  0
 22 25  1  0  0  0  0
 20 21  1  0  0  0  0
 20 22  1  0  0  0  0
M  END
$$$$
default_name
  -OEChem-02102213163D

 25 24  0     1  0  0  0  0  0999 V2000
   -2.7826   -3.8464    0.7821 H   0  0  0  0  0  0  0  0  0  0  0  0
   -2.8156   -2.8034    0.4711 C   0  0  0  0  0  0  0  0  0  0  0  0
   -3.4336   -2.2354    1.1641 H   0  0  0  0  0  0  0  0  0  0  0  0
   -3.2256   -2.7344   -0.5349 H   0  0  0  0  0  0  0  0  0  0  0  0
   -1.4126   -2.2444    0.4801 C   0  0  0  0  0  0  0  0  0  0  0  0
   -0.4686   -2.9534    0.8001 O   0  0  0  0  0  0  0  0  0  0  0  0
   -1.2736   -0.9704    0.1241 N   0  0  0  0  0  0  0  0  0  0  0  0
   -2.0996   -0.4354   -0.1019 H   0  0  0  0  0  0  0  0  0  0  0  0
   -0.0016   -0.2394    0.1271 C   0  0  1  0  0  0  0  0  0  0  0  0
    0.7164   -0.7963    0.7332 H   0  0  0  0  0  0  0  0  0  0  0  0
    0.5351   -0.1414   -1.3146 C   0  0  0  0  0  0  0  0  0  0  0  0
   -0.1930    0.3787   -1.9384 H   0  0  0  0  0  0  0  0  0  0  0  0
    1.4589    0.4380   -1.3240 H   0  0  0  0  0  0  0  0  0  0  0  0
    0.7878   -1.4998   -1.9618 C   0  0  0  0  0  0  0  0  0  0  0  0
    0.0299   -2.4601   -1.9219 O   0  0  0  0  0  0  0  0  0  0  0  0
    1.9605   -1.6048   -2.6143 O   0  0  0  0  0  0  0  0  0  0  0  0
    1.9778   -2.4888   -2.9823 H   0  0  0  0  0  0  0  0  0  0  0  0
   -0.1923    1.1526    0.7617 C   0  0  0  0  0  0  0  0  0  0  0  0
   -1.1582    1.8438    0.4410 O   0  0  0  0  0  0  0  0  0  0  0  0
    0.7203    1.5683    1.6472 N   0  0  0  0  0  0  0  0  0  0  0  0
    1.5210    0.9664    1.8100 H   0  0  0  0  0  0  0  0  0  0  0  0
    0.6747    2.8558    2.3368 C   0  0  0  0  0  0  0  0  0  0  0  0
   -0.3018    2.9877    2.8079 H   0  0  0  0  0  0  0  0  0  0  0  0
    1.4516    2.8997    3.1011 H   0  0  0  0  0  0  0  0  0  0  0  0
    0.8279    3.6639    1.6193 H   0  0  0  0  0  0  0  0  0  0  0  0
  5  6  2  0  0  0  0
  5  7  1  0  0  0  0
  2  3  1  0  0  0  0
  2  4  1  0  0  0  0
  2  5  1  0  0  0  0
  1  2  1  0  0  0  0
 18 19  2  0  0  0  0
 18 20  1  0  0  0  0
 16 17  1  0  0  0  0
 14 15  2  0  0  0  0
 14 16  1  0  0  0  0
 11 12  1  0  0  0  0
 11 13  1  0  0  0  0
 11 14  1  0  0  0  0
  9 10  1  0  0  0  0
  9 11  1  0  0  0  0
  9 18  1  0  0  0  0
  7  8  1  0  0  0  0
  7  9  1  0  0  0  0
 22 23  1  0  0  0  0
 22 24  1  0  0  0  0
 22 25  1  0  0  0  0
 20 21  1  0  0  0  0
 20 22  1  0  0  0  0
M  END
$$$$
default_name
  -OEChem-02102213163D

 25 24  0     1  0  0  0  0  0999 V2000
   -2.7826   -3.8464    0.7821 H   0  0  0  0  0  0  0  0  0  0  0  0
   -2.8156   -2.8034    0.4711 C   0  0  0  0  0  0  0  0  0  0  0  0
   -3.4336   -2.2354    1.1641 H   0  0  0  0  0  0  0  0  0  0  0  0
   -3.2256   -2.7344   -0.5349 H   0  0  0  0  0  0  0  0  0  0  0  0
   -1.4126   -2.2444    0.4801 C   0  0  0  0  0  0  0  0  0  0  0  0
   -0.4686   -2.9534    0.8001 O   0  0  0  0  0  0  0  0  0  0  0  0
   -1.2736   -0.9704    0.1241 N   0  0  0  0  0  0  0  0  0  0  0  0
   -2.0996   -0.4354   -0.1019 H   0  0  0  0  0  0  0  0  0  0  0  0
   -0.0016   -0.2394    0.1271 C   0  0  1  0  0  0  0  0  0  0  0  0
    0.7164   -0.7963    0.7332 H   0  0  0  0  0  0  0  0  0  0  0  0
    0.5351   -0.1414   -1.3146 C   0  0  0  0  0  0  0  0  0  0  0  0
   -0.1930    0.3787   -1.9384 H   0  0  0  0  0  0  0  0  0  0  0  0
    1.4589    0.4380   -1.3240 H   0  0  0  0  0  0  0  0  0  0  0  0
    0.7878   -1.4998   -1.9618 C   0  0  0  0  0  0  0  0  0  0  0  0
   -0.0549   -2.3675   -2.1494 O   0  0  0  0  0  0  0  0  0  0  0  0
    2.0625   -1.7191   -2.3345 O   0  0  0  0  0  0  0  0  0  0  0  0
    2.0724   -2.5879   -2.7375 H   0  0  0  0  0  0  0  0  0  0  0  0
   -0.1923    1.1526    0.7617 C   0  0  0  0  0  0  0  0  0  0  0  0
   -1.1582    1.8438    0.4410 O   0  0  0  0  0  0  0  0  0  0  0  0
    0.7203    1.5683    1.6472 N   0  0  0  0  0  0  0  0  0  0  0  0
    1.5210    0.9664    1.8100 H   0  0  0  0  0  0  0  0  0  0  0  0
    0.6747    2.8558    2.3368 C   0  0  0  0  0  0  0  0  0  0  0  0
   -0.3018    2.9877    2.8079 H   0  0  0  0  0  0  0  0  0  0  0  0
    1.4516    2.8997    3.1011 H   0  0  0  0  0  0  0  0  0  0  0  0
    0.8279    3.6639    1.6193 H   0  0  0  0  0  0  0  0  0  0  0  0
  5  6  2  0  0  0  0
  5  7  1  0  0  0  0
  2  3  1  0  0  0  0
  2  4  1  0  0  0  0
  2  5  1  0  0  0  0
  1  2  1  0  0  0  0
 18 19  2  0  0  0  0
 18 20  1  0  0  0  0
 16 17  1  0  0  0  0
 14 15  2  0  0  0  0
 14 16  1  0  0  0  0
 11 12  1  0  0  0  0
 11 13  1  0  0  0  0
 11 14  1  0  0  0  0
  9 10  1  0  0  0  0
  9 11  1  0  0  0  0
  9 18  1  0  0  0  0
  7  8  1  0  0  0  0
  7  9  1  0  0  0  0
 22 23  1  0  0  0  0
 22 24  1  0  0  0  0
 22 25  1  0  0  0  0
 20 21  1  0  0  0  0
 20 22  1  0  0  0  0
M  END
$$$$
default_name
  -OEChem-02102213163D

 25 24  0     1  0  0  0  0  0999 V2000
   -2.7826   -3.8464    0.7821 H   0  0  0  0  0  0  0  0  0  0  0  0
   -2.8156   -2.8034    0.4711 C   0  0  0  0  0  0  0  0  0  0  0  0
   -3.4336   -2.2354    1.1641 H   0  0  0  0  0  0  0  0  0  0  0  0
   -3.2256   -2.7344   -0.5349 H   0  0  0  0  0  0  0  0  0  0  0  0
   -1.4126   -2.2444    0.4801 C   0  0  0  0  0  0  0  0  0  0  0  0
   -0.4686   -2.9534    0.8001 O   0  0  0  0  0  0  0  0  0  0  0  0
   -1.2736   -0.9704    0.1241 N   0  0  0  0  0  0  0  0  0  0  0  0
   -2.0996   -0.4354   -0.1019 H   0  0  0  0  0  0  0  0  0  0  0  0
   -0.0016   -0.2394    0.1271 C   0  0  1  0  0  0  0  0  0  0  0  0
    0.7164   -0.7963    0.7332 H   0  0  0  0  0  0  0  0  0  0  0  0
    0.5351   -0.1414   -1.3146 C   0  0  0  0  0  0  0  0  0  0  0  0
   -0.1930    0.3787   -1.9384 H   0  0  0  0  0  0  0  0  0  0  0  0
    1.4589    0.4380   -1.3240 H   0  0  0  0  0  0  0  0  0  0  0  0
    0.7878   -1.4998   -1.9618 C   0  0  0  0  0  0  0  0  0  0  0  0
   -0.0742   -2.2590   -2.3847 O   0  0  0  0  0  0  0  0  0  0  0  0
    2.0841   -1.8528   -2.0456 O   0  0  0  0  0  0  0  0  0  0  0  0
    2.0964   -2.7044   -2.4836 H   0  0  0  0  0  0  0  0  0  0  0  0
   -0.1923    1.1526    0.7617 C   0  0  0  0  0  0  0  0  0  0  0  0
   -1.1582    1.8438    0.4410 O   0  0  0  0  0  0  0  0  0  0  0  0
    0.7203    1.5683    1.6472 N   0  0  0  0  0  0  0  0  0  0  0  0
    1.5210    0.9664    1.8100 H   0  0  0  0  0  0  0  0  0  0  0  0
    0.6747    2.8558    2.3368 C   0  0  0  0  0  0  0  0  0  0  0  0
   -0.3018    2.9877    2.8079 H   0  0  0  0  0  0  0  0  0  0  0  0
    1.4516    2.8997    3.1011 H   0  0  0  0  0  0  0  0  0  0  0  0
    0.8279    3.6639    1.6193 H   0  0  0  0  0  0  0  0  0  0  0  0
  5  6  2  0  0  0  0
  5  7  1  0  0  0  0
  2  3  1  0  0  0  0
  2  4  1  0  0  0  0
  2  5  1  0  0  0  0
  1  2  1  0  0  0  0
 18 19  2  0  0  0  0
 18 20  1  0  0  0  0
 16 17  1  0  0  0  0
 14 15  2  0  0  0  0
 14 16  1  0  0  0  0
 11 12  1  0  0  0  0
 11 13  1  0  0  0  0
 11 14  1  0  0  0  0
  9 10  1  0  0  0  0
  9 11  1  0  0  0  0
  9 18  1  0  0  0  0
  7  8  1  0  0  0  0
  7  9  1  0  0  0  0
 22 23  1  0  0  0  0
 22 24  1  0  0  0  0
 22 25  1  0  0  0  0
 20 21  1  0  0  0  0
 20 22  1  0  0  0  0
M  END
$$$$
default_name
  -OEChem-02102213163D

 25 24  0     1  0  0  0  0  0999 V2000
   -2.7826   -3.8464    0.7821 H   0  0  0  0  0  0  0  0  0  0  0  0
   -2.8156   -2.8034    0.4711 C   0  0  0  0  0  0  0  0  0  0  0  0
   -3.4336   -2.2354    1.1641 H   0  0  0  0  0  0  0  0  0  0  0  0
   -3.2256   -2.7344   -0.5349 H   0  0  0  0  0  0  0  0  0  0  0  0
   -1.4126   -2.2444    0.4801 C   0  0  0  0  0  0  0  0  0  0  0  0
   -0.4686   -2.9534    0.8001 O   0  0  0  0  0  0  0  0  0  0  0  0
   -1.2736   -0.9704    0.1241 N   0  0  0  0  0  0  0  0  0  0  0  0
   -2.0996   -0.4354   -0.1019 H   0  0  0  0  0  0  0  0  0  0  0  0
   -0.0016   -0.2394    0.1271 C   0  0  1  0  0  0  0  0  0  0  0  0
    0.7164   -0.7963    0.7332 H   0  0  0  0  0  0  0  0  0  0  0  0
    0.5351   -0.1414   -1.3146 C   0  0  0  0  0  0  0  0  0  0  0  0
   -0.1930    0.3787   -1.9384 H   0  0  0  0  0  0  0  0  0  0  0  0
    1.4589    0.4380   -1.3240 H   0  0  0  0  0  0  0  0  0  0  0  0
    0.7878   -1.4998   -1.9618 C   0  0  0  0  0  0  0  0  0  0  0  0
   -0.0267   -2.1420   -2.6117 O   0  0  0  0  0  0  0  0  0  0  0  0
    2.0236   -1.9966   -1.7673 O   0  0  0  0  0  0  0  0  0  0  0  0
    2.0483   -2.8305   -2.2377 H   0  0  0  0  0  0  0  0  0  0  0  0
   -0.1923    1.1526    0.7617 C   0  0  0  0  0  0  0  0  0  0  0  0
   -1.1582    1.8438    0.4410 O   0  0  0  0  0  0  0  0  0  0  0  0
    0.7203    1.5683    1.6472 N   0  0  0  0  0  0  0  0  0  0  0  0
    1.5210    0.9664    1.8100 H   0  0  0  0  0  0  0  0  0  0  0  0
    0.6747    2.8558    2.3368 C   0  0  0  0  0  0  0  0  0  0  0  0
   -0.3018    2.9877    2.8079 H   0  0  0  0  0  0  0  0  0  0  0  0
    1.4516    2.8997    3.1011 H   0  0  0  0  0  0  0  0  0  0  0  0
    0.8279    3.6639    1.6193 H   0  0  0  0  0  0  0  0  0  0  0  0
  5  6  2  0  0  0  0
  5  7  1  0  0  0  0
  2  3  1  0  0  0  0
  2  4  1  0  0  0  0
  2  5  1  0  0  0  0
  1  2  1  0  0  0  0
 18 19  2  0  0  0  0
 18 20  1  0  0  0  0
 16 17  1  0  0  0  0
 14 15  2  0  0  0  0
 14 16  1  0  0  0  0
 11 12  1  0  0  0  0
 11 13  1  0  0  0  0
 11 14  1  0  0  0  0
  9 10  1  0  0  0  0
  9 11  1  0  0  0  0
  9 18  1  0  0  0  0
  7  8  1  0  0  0  0
  7  9  1  0  0  0  0
 22 23  1  0  0  0  0
 22 24  1  0  0  0  0
 22 25  1  0  0  0  0
 20 21  1  0  0  0  0
 20 22  1  0  0  0  0
M  END
$$$$
default_name
  -OEChem-02102213163D

 25 24  0     1  0  0  0  0  0999 V2000
   -2.7826   -3.8464    0.7821 H   0  0  0  0  0  0  0  0  0  0  0  0
   -2.8156   -2.8034    0.4711 C   0  0  0  0  0  0  0  0  0  0  0  0
   -3.4336   -2.2354    1.1641 H   0  0  0  0  0  0  0  0  0  0  0  0
   -3.2256   -2.7344   -0.5349 H   0  0  0  0  0  0  0  0  0  0  0  0
   -1.4126   -2.2444    0.4801 C   0  0  0  0  0  0  0  0  0  0  0  0
   -0.4686   -2.9534    0.8001 O   0  0  0  0  0  0  0  0  0  0  0  0
   -1.2736   -0.9704    0.1241 N   0  0  0  0  0  0  0  0  0  0  0  0
   -2.0996   -0.4354   -0.1019 H   0  0  0  0  0  0  0  0  0  0  0  0
   -0.0016   -0.2394    0.1271 C   0  0  1  0  0  0  0  0  0  0  0  0
    0.7164   -0.7963    0.7332 H   0  0  0  0  0  0  0  0  0  0  0  0
    0.5351   -0.1414   -1.3146 C   0  0  0  0  0  0  0  0  0  0  0  0
   -0.1930    0.3787   -1.9384 H   0  0  0  0  0  0  0  0  0  0  0  0
    1.4589    0.4380   -1.3240 H   0  0  0  0  0  0  0  0  0  0  0  0
    0.7878   -1.4998   -1.9618 C   0  0  0  0  0  0  0  0  0  0  0  0
    0.0843   -2.0245   -2.8151 O   0  0  0  0  0  0  0  0  0  0  0  0
    1.8854   -2.1408   -1.5187 O   0  0  0  0  0  0  0  0  0  0  0  0
    1.9314   -2.9575   -2.0168 H   0  0  0  0  0  0  0  0  0  0  0  0
   -0.1923    1.1526    0.7617 C   0  0  0  0  0  0  0  0  0  0  0  0
   -1.1582    1.8438    0.4410 O   0  0  0  0  0  0  0  0  0  0  0  0
    0.7203    1.5683    1.6472 N   0  0  0  0  0  0  0  0  0  0  0  0
    1.5210    0.9664    1.8100 H   0  0  0  0  0  0  0  0  0  0  0  0
    0.6747    2.8558    2.3368 C   0  0  0  0  0  0  0  0  0  0  0  0
   -0.3018    2.9877    2.8079 H   0  0  0  0  0  0  0  0  0  0  0  0
    1.4516    2.8997    3.1011 H   0  0  0  0  0  0  0  0  0  0  0  0
    0.8279    3.6639    1.6193 H   0  0  0  0  0  0  0  0  0  0  0  0
  5  6  2  0  0  0  0
  5  7  1  0  0  0  0
  2  3  1  0  0  0  0
  2  4  1  0  0  0  0
  2  5  1  0  0  0  0
  1  2  1  0  0  0  0
 18 19  2  0  0  0  0
 18 20  1  0  0  0  0
 16 17  1  0  0  0  0
 14 15  2  0  0  0  0
 14 16  1  0  0  0  0
 11 12  1  0  0  0  0
 11 13  1  0  0  0  0
 11 14  1  0  0  0  0
  9 10  1  0  0  0  0
  9 11  1  0  0  0  0
  9 18  1  0  0  0  0
  7  8  1  0  0  0  0
  7  9  1  0  0  0  0
 22 23  1  0  0  0  0
 22 24  1  0  0  0  0
 22 25  1  0  0  0  0
 20 21  1  0  0  0  0
 20 22  1  0  0  0  0
M  END
$$$$
default_name
  -OEChem-02102213163D

 25 24  0     1  0  0  0  0  0999 V2000
   -2.7826   -3.8464    0.7821 H   0  0  0  0  0  0  0  0  0  0  0  0
   -2.8156   -2.8034    0.4711 C   0  0  0  0  0  0  0  0  0  0  0  0
   -3.4336   -2.2354    1.1641 H   0  0  0  0  0  0  0  0  0  0  0  0
   -3.2256   -2.7344   -0.5349 H   0  0  0  0  0  0  0  0  0  0  0  0
   -1.4126   -2.2444    0.4801 C   0  0  0  0  0  0  0  0  0  0  0  0
   -0.4686   -2.9534    0.8001 O   0  0  0  0  0  0  0  0  0  0  0  0
   -1.2736   -0.9704    0.1241 N   0  0  0  0  0  0  0  0  0  0  0  0
   -2.0996   -0.4354   -0.1019 H   0  0  0  0  0  0  0  0  0  0  0  0
   -0.0016   -0.2394    0.1271 C   0  0  1  0  0  0  0  0  0  0  0  0
    0.7164   -0.7963    0.7332 H   0  0  0  0  0  0  0  0  0  0  0  0
    0.5351   -0.1414   -1.3146 C   0  0  0  0  0  0  0  0  0  0  0  0
   -0.1930    0.3787   -1.9384 H   0  0  0  0  0  0  0  0  0  0  0  0
    1.4589    0.4380   -1.3240 H   0  0  0  0  0  0  0  0  0  0  0  0
    0.7878   -1.4998   -1.9618 C   0  0  0  0  0  0  0  0  0  0  0  0
    0.2513   -1.9144   -2.9809 O   0  0  0  0  0  0  0  0  0  0  0  0
    1.6787   -2.2756   -1.3165 O   0  0  0  0  0  0  0  0  0  0  0  0
    1.7536   -3.0769   -1.8357 H   0  0  0  0  0  0  0  0  0  0  0  0
   -0.1923    1.1526    0.7617 C   0  0  0  0  0  0  0  0  0  0  0  0
   -1.1582    1.8438    0.4410 O   0  0  0  0  0  0  0  0  0  0  0  0
    0.7203    1.5683    1.6472 N   0  0  0  0  0  0  0  0  0  0  0  0
    1.5210    0.9664    1.8100 H   0  0  0  0  0  0  0  0  0  0  0  0
    0.6747    2.8558    2.3368 C   0  0  0  0  0  0  0  0  0  0  0  0
   -0.3018    2.9877    2.8079 H   0  0  0  0  0  0  0  0  0  0  0  0
    1.4516    2.8997    3.1011 H   0  0  0  0  0  0  0  0  0  0  0  0
    0.8279    3.6639    1.6193 H   0  0  0  0  0  0  0  0  0  0  0  0
  5  6  2  0  0  0  0
  5  7  1  0  0  0  0
  2  3  1  0  0  0  0
  2  4  1  0  0  0  0
  2  5  1  0  0  0  0
  1  2  1  0  0  0  0
 18 19  2  0  0  0  0
 18 20  1  0  0  0  0
 16 17  1  0  0  0  0
 14 15  2  0  0  0  0
 14 16  1  0  0  0  0
 11 12  1  0  0  0  0
 11 13  1  0  0  0  0
 11 14  1  0  0  0  0
  9 10  1  0  0  0  0
  9 11  1  0  0  0  0
  9 18  1  0  0  0  0
  7  8  1  0  0  0  0
  7  9  1  0  0  0  0
 22 23  1  0  0  0  0
 22 24  1  0  0  0  0
 22 25  1  0  0  0  0
 20 21  1  0  0  0  0
 20 22  1  0  0  0  0
M  END
$$$$
default_name
  -OEChem-02102213163D

 25 24  0     1  0  0  0  0  0999 V2000
   -2.7826   -3.8464    0.7821 H   0  0  0  0  0  0  0  0  0  0  0  0
   -2.8156   -2.8034    0.4711 C   0  0  0  0  0  0  0  0  0  0  0  0
   -3.4336   -2.2354    1.1641 H   0  0  0  0  0  0  0  0  0  0  0  0
   -3.2256   -2.7344   -0.5349 H   0  0  0  0  0  0  0  0  0  0  0  0
   -1.4126   -2.2444    0.4801 C   0  0  0  0  0  0  0  0  0  0  0  0
   -0.4686   -2.9534    0.8001 O   0  0  0  0  0  0  0  0  0  0  0  0
   -1.2736   -0.9704    0.1241 N   0  0  0  0  0  0  0  0  0  0  0  0
   -2.0996   -0.4354   -0.1019 H   0  0  0  0  0  0  0  0  0  0  0  0
   -0.0016   -0.2394    0.1271 C   0  0  1  0  0  0  0  0  0  0  0  0
    0.7164   -0.7963    0.7332 H   0  0  0  0  0  0  0  0  0  0  0  0
    0.5351   -0.1414   -1.3146 C   0  0  0  0  0  0  0  0  0  0  0  0
   -0.1930    0.3787   -1.9384 H   0  0  0  0  0  0  0  0  0  0  0  0
    1.4589    0.4380   -1.3240 H   0  0  0  0  0  0  0  0  0  0  0  0
    0.7878   -1.4998   -1.9618 C   0  0  0  0  0  0  0  0  0  0  0  0
    0.4629   -1.8193   -3.0979 O   0  0  0  0  0  0  0  0  0  0  0  0
    1.4176   -2.3918   -1.1746 O   0  0  0  0  0  0  0  0  0  0  0  0
    1.5270   -3.1804   -1.7069 H   0  0  0  0  0  0  0  0  0  0  0  0
   -0.1923    1.1526    0.7617 C   0  0  0  0  0  0  0  0  0  0  0  0
   -1.1582    1.8438    0.4410 O   0  0  0  0  0  0  0  0  0  0  0  0
    0.7203    1.5683    1.6472 N   0  0  0  0  0  0  0  0  0  0  0  0
    1.5210    0.9664    1.8100 H   0  0  0  0  0  0  0  0  0  0  0  0
    0.6747    2.8558    2.3368 C   0  0  0  0  0  0  0  0  0  0  0  0
   -0.3018    2.9877    2.8079 H   0  0  0  0  0  0  0  0  0  0  0  0
    1.4516    2.8997    3.1011 H   0  0  0  0  0  0  0  0  0  0  0  0
    0.8279    3.6639    1.6193 H   0  0  0  0  0  0  0  0  0  0  0  0
  5  6  2  0  0  0  0
  5  7  1  0  0  0  0
  2  3  1  0  0  0  0
  2  4  1  0  0  0  0
  2  5  1  0  0  0  0
  1  2  1  0  0  0  0
 18 19  2  0  0  0  0
 18 20  1  0  0  0  0
 16 17  1  0  0  0  0
 14 15  2  0  0  0  0
 14 16  1  0  0  0  0
 11 12  1  0  0  0  0
 11 13  1  0  0  0  0
 11 14  1  0  0  0  0
  9 10  1  0  0  0  0
  9 11  1  0  0  0  0
  9 18  1  0  0  0  0
  7  8  1  0  0  0  0
  7  9  1  0  0  0  0
 22 23  1  0  0  0  0
 22 24  1  0  0  0  0
 22 25  1  0  0  0  0
 20 21  1  0  0  0  0
 20 22  1  0  0  0  0
M  END
$$$$
default_name
  -OEChem-02102213163D

 25 24  0     1  0  0  0  0  0999 V2000
   -2.7826   -3.8464    0.7821 H   0  0  0  0  0  0  0  0  0  0  0  0
   -2.8156   -2.8034    0.4711 C   0  0  0  0  0  0  0  0  0  0  0  0
   -3.4336   -2.2354    1.1641 H   0  0  0  0  0  0  0  0  0  0  0  0
   -3.2256   -2.7344   -0.5349 H   0  0  0  0  0  0  0  0  0  0  0  0
   -1.4126   -2.2444    0.4801 C   0  0  0  0  0  0  0  0  0  0  0  0
   -0.4686   -2.9534    0.8001 O   0  0  0  0  0  0  0  0  0  0  0  0
   -1.2736   -0.9704    0.1241 N   0  0  0  0  0  0  0  0  0  0  0  0
   -2.0996   -0.4354   -0.1019 H   0  0  0  0  0  0  0  0  0  0  0  0
   -0.0016   -0.2394    0.1271 C   0  0  1  0  0  0  0  0  0  0  0  0
    0.7164   -0.7963    0.7332 H   0  0  0  0  0  0  0  0  0  0  0  0
    0.5351   -0.1414   -1.3146 C   0  0  0  0  0  0  0  0  0  0  0  0
   -0.1930    0.3787   -1.9384 H   0  0  0  0  0  0  0  0  0  0  0  0
    1.4589    0.4380   -1.3240 H   0  0  0  0  0  0  0  0  0  0  0  0
    0.7878   -1.4998   -1.9618 C   0  0  0  0  0  0  0  0  0  0  0  0
    0.7047   -1.7456   -3.1580 O   0  0  0  0  0  0  0  0  0  0  0  0
    1.1200   -2.4814   -1.1027 O   0  0  0  0  0  0  0  0  0  0  0  0
    1.2671   -3.2610   -1.6391 H   0  0  0  0  0  0  0  0  0  0  0  0
   -0.1923    1.1526    0.7617 C   0  0  0  0  0  0  0  0  0  0  0  0
   -1.1582    1.8438    0.4410 O   0  0  0  0  0  0  0  0  0  0  0  0
    0.7203    1.5683    1.6472 N   0  0  0  0  0  0  0  0  0  0  0  0
    1.5210    0.9664    1.8100 H   0  0  0  0  0  0  0  0  0  0  0  0
    0.6747    2.8558    2.3368 C   0  0  0  0  0  0  0  0  0  0  0  0
   -0.3018    2.9877    2.8079 H   0  0  0  0  0  0  0  0  0  0  0  0
    1.4516    2.8997    3.1011 H   0  0  0  0  0  0  0  0  0  0  0  0
    0.8279    3.6639    1.6193 H   0  0  0  0  0  0  0  0  0  0  0  0
  5  6  2  0  0  0  0
  5  7  1  0  0  0  0
  2  3  1  0  0  0  0
  2  4  1  0  0  0  0
  2  5  1  0  0  0  0
  1  2  1  0  0  0  0
 18 19  2  0  0  0  0
 18 20  1  0  0  0  0
 16 17  1  0  0  0  0
 14 15  2  0  0  0  0
 14 16  1  0  0  0  0
 11 12  1  0  0  0  0
 11 13  1  0  0  0  0
 11 14  1  0  0  0  0
  9 10  1  0  0  0  0
  9 11  1  0  0  0  0
  9 18  1  0  0  0  0
  7  8  1  0  0  0  0
  7  9  1  0  0  0  0
 22 23  1  0  0  0  0
 22 24  1  0  0  0  0
 22 25  1  0  0  0  0
 20 21  1  0  0  0  0
 20 22  1  0  0  0  0
M  END
$$$$
default_name
  -OEChem-02102213163D

 25 24  0     1  0  0  0  0  0999 V2000
   -2.7826   -3.8464    0.7821 H   0  0  0  0  0  0  0  0  0  0  0  0
   -2.8156   -2.8034    0.4711 C   0  0  0  0  0  0  0  0  0  0  0  0
   -3.4336   -2.2354    1.1641 H   0  0  0  0  0  0  0  0  0  0  0  0
   -3.2256   -2.7344   -0.5349 H   0  0  0  0  0  0  0  0  0  0  0  0
   -1.4126   -2.2444    0.4801 C   0  0  0  0  0  0  0  0  0  0  0  0
   -0.4686   -2.9534    0.8001 O   0  0  0  0  0  0  0  0  0  0  0  0
   -1.2736   -0.9704    0.1241 N   0  0  0  0  0  0  0  0  0  0  0  0
   -2.0996   -0.4354   -0.1019 H   0  0  0  0  0  0  0  0  0  0  0  0
   -0.0016   -0.2394    0.1271 C   0  0  1  0  0  0  0  0  0  0  0  0
    0.7164   -0.7963    0.7332 H   0  0  0  0  0  0  0  0  0  0  0  0
    0.5351   -0.1414   -1.3146 C   0  0  0  0  0  0  0  0  0  0  0  0
   -0.1930    0.3787   -1.9384 H   0  0  0  0  0  0  0  0  0  0  0  0
    1.4589    0.4380   -1.3240 H   0  0  0  0  0  0  0  0  0  0  0  0
    0.7878   -1.4998   -1.9618 C   0  0  0  0  0  0  0  0  0  0  0  0
    0.9602   -1.6985   -3.1572 O   0  0  0  0  0  0  0  0  0  0  0  0
    0.8062   -2.5384   -1.1057 O   0  0  0  0  0  0  0  0  0  0  0  0
    0.9916   -3.3133   -1.6370 H   0  0  0  0  0  0  0  0  0  0  0  0
   -0.1923    1.1526    0.7617 C   0  0  0  0  0  0  0  0  0  0  0  0
   -1.1582    1.8438    0.4410 O   0  0  0  0  0  0  0  0  0  0  0  0
    0.7203    1.5683    1.6472 N   0  0  0  0  0  0  0  0  0  0  0  0
    1.5210    0.9664    1.8100 H   0  0  0  0  0  0  0  0  0  0  0  0
    0.6747    2.8558    2.3368 C   0  0  0  0  0  0  0  0  0  0  0  0
   -0.3018    2.9877    2.8079 H   0  0  0  0  0  0  0  0  0  0  0  0
    1.4516    2.8997    3.1011 H   0  0  0  0  0  0  0  0  0  0  0  0
    0.8279    3.6639    1.6193 H   0  0  0  0  0  0  0  0  0  0  0  0
  5  6  2  0  0  0  0
  5  7  1  0  0  0  0
  2  3  1  0  0  0  0
  2  4  1  0  0  0  0
  2  5  1  0  0  0  0
  1  2  1  0  0  0  0
 18 19  2  0  0  0  0
 18 20  1  0  0  0  0
 16 17  1  0  0  0  0
 14 15  2  0  0  0  0
 14 16  1  0  0  0  0
 11 12  1  0  0  0  0
 11 13  1  0  0  0  0
 11 14  1  0  0  0  0
  9 10  1  0  0  0  0
  9 11  1  0  0  0  0
  9 18  1  0  0  0  0
  7  8  1  0  0  0  0
  7  9  1  0  0  0  0
 22 23  1  0  0  0  0
 22 24  1  0  0  0  0
 22 25  1  0  0  0  0
 20 21  1  0  0  0  0
 20 22  1  0  0  0  0
M  END
$$$$
default_name
  -OEChem-02102213163D

 25 24  0     1  0  0  0  0  0999 V2000
   -2.7826   -3.8464    0.7821 H   0  0  0  0  0  0  0  0  0  0  0  0
   -2.8156   -2.8034    0.4711 C   0  0  0  0  0  0  0  0  0  0  0  0
   -3.4336   -2.2354    1.1641 H   0  0  0  0  0  0  0  0  0  0  0  0
   -3.2256   -2.7344   -0.5349 H   0  0  0  0  0  0  0  0  0  0  0  0
   -1.4126   -2.2444    0.4801 C   0  0  0  0  0  0  0  0  0  0  0  0
   -0.4686   -2.9534    0.8001 O   0  0  0  0  0  0  0  0  0  0  0  0
   -1.2736   -0.9704    0.1241 N   0  0  0  0  0  0  0  0  0  0  0  0
   -2.0996   -0.4354   -0.1019 H   0  0  0  0  0  0  0  0  0  0  0  0
   -0.0016   -0.2394    0.1271 C   0  0  1  0  0  0  0  0  0  0  0  0
    0.7164   -0.7963    0.7332 H   0  0  0  0  0  0  0  0  0  0  0  0
    0.5351   -0.1414   -1.3146 C   0  0  0  0  0  0  0  0  0  0  0  0
   -0.0482    0.5942   -1.8698 H   0  0  0  0  0  0  0  0  0  0  0  0
    1.5719    0.1962   -1.2983 H   0  0  0  0  0  0  0  0  0  0  0  0
    0.4469   -1.4551   -2.0857 C   0  0  0  0  0  0  0  0  0  0  0  0
    0.8084   -1.6280   -3.2423 O   0  0  0  0  0  0  0  0  0  0  0  0
   -0.0877   -2.4798   -1.3958 O   0  0  0  0  0  0  0  0  0  0  0  0
   -0.0635   -3.2341   -1.9854 H   0  0  0  0  0  0  0  0  0  0  0  0
   -0.1923    1.1526    0.7617 C   0  0  0  0  0  0  0  0  0  0  0  0
   -1.1582    1.8438    0.4410 O   0  0  0  0  0  0  0  0  0  0  0  0
    0.7203    1.5683    1.6472 N   0  0  0  0  0  0  0  0  0  0  0  0
    1.5210    0.9664    1.8100 H   0  0  0  0  0  0  0  0  0  0  0  0
    0.6747    2.8558    2.3368 C   0  0  0  0  0  0  0  0  0  0  0  0
   -0.3018    2.9877    2.8079 H   0  0  0  0  0  0  0  0  0  0  0  0
    1.4516    2.8997    3.1011 H   0  0  0  0  0  0  0  0  0  0  0  0
    0.8279    3.6639    1.6193 H   0  0  0  0  0  0  0  0  0  0  0  0
  5  6  2  0  0  0  0
  5  7  1  0  0  0  0
  2  3  1  0  0  0  0
  2  4  1  0  0  0  0
  2  5  1  0  0  0  0
  1  2  1  0  0  0  0
 18 19  2  0  0  0  0
 18 20  1  0  0  0  0
 16 17  1  0  0  0  0
 14 15  2  0  0  0  0
 14 16  1  0  0  0  0
 11 12  1  0  0  0  0
 11 13  1  0  0  0  0
 11 14  1  0  0  0  0
  9 10  1  0  0  0  0
  9 11  1  0  0  0  0
  9 18  1  0  0  0  0
  7  8  1  0  0  0  0
  7  9  1  0  0  0  0
 22 23  1  0  0  0  0
 22 24  1  0  0  0  0
 22 25  1  0  0  0  0
 20 21  1  0  0  0  0
 20 22  1  0  0  0  0
M  END
$$$$
default_name
  -OEChem-02102213163D

 25 24  0     1  0  0  0  0  0999 V2000
   -2.7826   -3.8464    0.7821 H   0  0  0  0  0  0  0  0  0  0  0  0
   -2.8156   -2.8034    0.4711 C   0  0  0  0  0  0  0  0  0  0  0  0
   -3.4336   -2.2354    1.1641 H   0  0  0  0  0  0  0  0  0  0  0  0
   -3.2256   -2.7344   -0.5349 H   0  0  0  0  0  0  0  0  0  0  0  0
   -1.4126   -2.2444    0.4801 C   0  0  0  0  0  0  0  0  0  0  0  0
   -0.4686   -2.9534    0.8001 O   0  0  0  0  0  0  0  0  0  0  0  0
   -1.2736   -0.9704    0.1241 N   0  0  0  0  0  0  0  0  0  0  0  0
   -2.0996   -0.4354   -0.1019 H   0  0  0  0  0  0  0  0  0  0  0  0
   -0.0016   -0.2394    0.1271 C   0  0  1  0  0  0  0  0  0  0  0  0
    0.7164   -0.7963    0.7332 H   0  0  0  0  0  0  0  0  0  0  0  0
    0.5351   -0.1414   -1.3146 C   0  0  0  0  0  0  0  0  0  0  0  0
   -0.0482    0.5942   -1.8698 H   0  0  0  0  0  0  0  0  0  0  0  0
    1.5719    0.1962   -1.2983 H   0  0  0  0  0  0  0  0  0  0  0  0
    0.4469   -1.4551   -2.0857 C   0  0  0  0  0  0  0  0  0  0  0  0
    1.0298   -1.7076   -3.1320 O   0  0  0  0  0  0  0  0  0  0  0  0
   -0.3584   -2.3812   -1.5328 O   0  0  0  0  0  0  0  0  0  0  0  0
   -0.3041   -3.1496   -2.1019 H   0  0  0  0  0  0  0  0  0  0  0  0
   -0.1923    1.1526    0.7617 C   0  0  0  0  0  0  0  0  0  0  0  0
   -1.1582    1.8438    0.4410 O   0  0  0  0  0  0  0  0  0  0  0  0
    0.7203    1.5683    1.6472 N   0  0  0  0  0  0  0  0  0  0  0  0
    1.5210    0.9664    1.8100 H   0  0  0  0  0  0  0  0  0  0  0  0
    0.6747    2.8558    2.3368 C   0  0  0  0  0  0  0  0  0  0  0  0
   -0.3018    2.9877    2.8079 H   0  0  0  0  0  0  0  0  0  0  0  0
    1.4516    2.8997    3.1011 H   0  0  0  0  0  0  0  0  0  0  0  0
    0.8279    3.6639    1.6193 H   0  0  0  0  0  0  0  0  0  0  0  0
  5  6  2  0  0  0  0
  5  7  1  0  0  0  0
  2  3  1  0  0  0  0
  2  4  1  0  0  0  0
  2  5  1  0  0  0  0
  1  2  1  0  0  0  0
 18 19  2  0  0  0  0
 18 20  1  0  0  0  0
 16 17  1  0  0  0  0
 14 15  2  0  0  0  0
 14 16  1  0  0  0  0
 11 12  1  0  0  0  0
 11 13  1  0  0  0  0
 11 14  1  0  0  0  0
  9 10  1  0  0  0  0
  9 11  1  0  0  0  0
  9 18  1  0  0  0  0
  7  8  1  0  0  0  0
  7  9  1  0  0  0  0
 22 23  1  0  0  0  0
 22 24  1  0  0  0  0
 22 25  1  0  0  0  0
 20 21  1  0  0  0  0
 20 22  1  0  0  0  0
M  END
$$$$
default_name
  -OEChem-02102213163D

 25 24  0     1  0  0  0  0  0999 V2000
   -2.7826   -3.8464    0.7821 H   0  0  0  0  0  0  0  0  0  0  0  0
   -2.8156   -2.8034    0.4711 C   0  0  0  0  0  0  0  0  0  0  0  0
   -3.4336   -2.2354    1.1641 H   0  0  0  0  0  0  0  0  0  0  0  0
   -3.2256   -2.7344   -0.5349 H   0  0  0  0  0  0  0  0  0  0  0  0
   -1.4126   -2.2444    0.4801 C   0  0  0  0  0  0  0  0  0  0  0  0
   -0.4686   -2.9534    0.8001 O   0  0  0  0  0  0  0  0  0  0  0  0
   -1.2736   -0.9704    0.1241 N   0  0  0  0  0  0  0  0  0  0  0  0
   -2.0996   -0.4354   -0.1019 H   0  0  0  0  0  0  0  0  0  0  0  0
   -0.0016   -0.2394    0.1271 C   0  0  1  0  0  0  0  0  0  0  0  0
    0.7164   -0.7963    0.7332 H   0  0  0  0  0  0  0  0  0  0  0  0
    0.5351   -0.1414   -1.3146 C   0  0  0  0  0  0  0  0  0  0  0  0
   -0.0482    0.5942   -1.8698 H   0  0  0  0  0  0  0  0  0  0  0  0
    1.5719    0.1962   -1.2983 H   0  0  0  0  0  0  0  0  0  0  0  0
    0.4469   -1.4551   -2.0857 C   0  0  0  0  0  0  0  0  0  0  0  0
    1.2086   -1.8118   -2.9749 O   0  0  0  0  0  0  0  0  0  0  0  0
   -0.5764   -2.2526   -1.7270 O   0  0  0  0  0  0  0  0  0  0  0  0
   -0.4995   -3.0382   -2.2694 H   0  0  0  0  0  0  0  0  0  0  0  0
   -0.1923    1.1526    0.7617 C   0  0  0  0  0  0  0  0  0  0  0  0
   -1.1582    1.8438    0.4410 O   0  0  0  0  0  0  0  0  0  0  0  0
    0.7203    1.5683    1.6472 N   0  0  0  0  0  0  0  0  0  0  0  0
    1.5210    0.9664    1.8100 H   0  0  0  0  0  0  0  0  0  0  0  0
    0.6747    2.8558    2.3368 C   0  0  0  0  0  0  0  0  0  0  0  0
   -0.3018    2.9877    2.8079 H   0  0  0  0  0  0  0  0  0  0  0  0
    1.4516    2.8997    3.1011 H   0  0  0  0  0  0  0  0  0  0  0  0
    0.8279    3.6639    1.6193 H   0  0  0  0  0  0  0  0  0  0  0  0
  5  6  2  0  0  0  0
  5  7  1  0  0  0  0
  2  3  1  0  0  0  0
  2  4  1  0  0  0  0
  2  5  1  0  0  0  0
  1  2  1  0  0  0  0
 18 19  2  0  0  0  0
 18 20  1  0  0  0  0
 16 17  1  0  0  0  0
 14 15  2  0  0  0  0
 14 16  1  0  0  0  0
 11 12  1  0  0  0  0
 11 13  1  0  0  0  0
 11 14  1  0  0  0  0
  9 10  1  0  0  0  0
  9 11  1  0  0  0  0
  9 18  1  0  0  0  0
  7  8  1  0  0  0  0
  7  9  1  0  0  0  0
 22 23  1  0  0  0  0
 22 24  1  0  0  0  0
 22 25  1  0  0  0  0
 20 21  1  0  0  0  0
 20 22  1  0  0  0  0
M  END
$$$$
default_name
  -OEChem-02102213163D

 25 24  0     1  0  0  0  0  0999 V2000
   -2.7826   -3.8464    0.7821 H   0  0  0  0  0  0  0  0  0  0  0  0
   -2.8156   -2.8034    0.4711 C   0  0  0  0  0  0  0  0  0  0  0  0
   -3.4336   -2.2354    1.1641 H   0  0  0  0  0  0  0  0  0  0  0  0
   -3.2256   -2.7344   -0.5349 H   0  0  0  0  0  0  0  0  0  0  0  0
   -1.4126   -2.2444    0.4801 C   0  0  0  0  0  0  0  0  0  0  0  0
   -0.4686   -2.9534    0.8001 O   0  0  0  0  0  0  0  0  0  0  0  0
   -1.2736   -0.9704    0.1241 N   0  0  0  0  0  0  0  0  0  0  0  0
   -2.0996   -0.4354   -0.1019 H   0  0  0  0  0  0  0  0  0  0  0  0
   -0.0016   -0.2394    0.1271 C   0  0  1  0  0  0  0  0  0  0  0  0
    0.7164   -0.7963    0.7332 H   0  0  0  0  0  0  0  0  0  0  0  0
    0.5351   -0.1414   -1.3146 C   0  0  0  0  0  0  0  0  0  0  0  0
   -0.0482    0.5942   -1.8698 H   0  0  0  0  0  0  0  0  0  0  0  0
    1.5719    0.1962   -1.2983 H   0  0  0  0  0  0  0  0  0  0  0  0
    0.4469   -1.4551   -2.0857 C   0  0  0  0  0  0  0  0  0  0  0  0
    1.3328   -1.9334   -2.7818 O   0  0  0  0  0  0  0  0  0  0  0  0
   -0.7269   -2.1028   -1.9650 O   0  0  0  0  0  0  0  0  0  0  0  0
   -0.6364   -2.9075   -2.4764 H   0  0  0  0  0  0  0  0  0  0  0  0
   -0.1923    1.1526    0.7617 C   0  0  0  0  0  0  0  0  0  0  0  0
   -1.1582    1.8438    0.4410 O   0  0  0  0  0  0  0  0  0  0  0  0
    0.7203    1.5683    1.6472 N   0  0  0  0  0  0  0  0  0  0  0  0
    1.5210    0.9664    1.8100 H   0  0  0  0  0  0  0  0  0  0  0  0
    0.6747    2.8558    2.3368 C   0  0  0  0  0  0  0  0  0  0  0  0
   -0.3018    2.9877    2.8079 H   0  0  0  0  0  0  0  0  0  0  0  0
    1.4516    2.8997    3.1011 H   0  0  0  0  0  0  0  0  0  0  0  0
    0.8279    3.6639    1.6193 H   0  0  0  0  0  0  0  0  0  0  0  0
  5  6  2  0  0  0  0
  5  7  1  0  0  0  0
  2  3  1  0  0  0  0
  2  4  1  0  0  0  0
  2  5  1  0  0  0  0
  1  2  1  0  0  0  0
 18 19  2  0  0  0  0
 18 20  1  0  0  0  0
 16 17  1  0  0  0  0
 14 15  2  0  0  0  0
 14 16  1  0  0  0  0
 11 12  1  0  0  0  0
 11 13  1  0  0  0  0
 11 14  1  0  0  0  0
  9 10  1  0  0  0  0
  9 11  1  0  0  0  0
  9 18  1  0  0  0  0
  7  8  1  0  0  0  0
  7  9  1  0  0  0  0
 22 23  1  0  0  0  0
 22 24  1  0  0  0  0
 22 25  1  0  0  0  0
 20 21  1  0  0  0  0
 20 22  1  0  0  0  0
M  END
$$$$
default_name
  -OEChem-02102213163D

 25 24  0     1  0  0  0  0  0999 V2000
   -2.7826   -3.8464    0.7821 H   0  0  0  0  0  0  0  0  0  0  0  0
   -2.8156   -2.8034    0.4711 C   0  0  0  0  0  0  0  0  0  0  0  0
   -3.4336   -2.2354    1.1641 H   0  0  0  0  0  0  0  0  0  0  0  0
   -3.2256   -2.7344   -0.5349 H   0  0  0  0  0  0  0  0  0  0  0  0
   -1.4126   -2.2444    0.4801 C   0  0  0  0  0  0  0  0  0  0  0  0
   -0.4686   -2.9534    0.8001 O   0  0  0  0  0  0  0  0  0  0  0  0
   -1.2736   -0.9704    0.1241 N   0  0  0  0  0  0  0  0  0  0  0  0
   -2.0996   -0.4354   -0.1019 H   0  0  0  0  0  0  0  0  0  0  0  0
   -0.0016   -0.2394    0.1271 C   0  0  1  0  0  0  0  0  0  0  0  0
    0.7164   -0.7963    0.7332 H   0  0  0  0  0  0  0  0  0  0  0  0
    0.5351   -0.1414   -1.3146 C   0  0  0  0  0  0  0  0  0  0  0  0
   -0.0482    0.5942   -1.8698 H   0  0  0  0  0  0  0  0  0  0  0  0
    1.5719    0.1962   -1.2983 H   0  0  0  0  0  0  0  0  0  0  0  0
    0.4469   -1.4551   -2.0857 C   0  0  0  0  0  0  0  0  0  0  0  0
    1.3937   -2.0643   -2.5658 O   0  0  0  0  0  0  0  0  0  0  0  0
   -0.7996   -1.9419   -2.2307 O   0  0  0  0  0  0  0  0  0  0  0  0
   -0.7053   -2.7665   -2.7088 H   0  0  0  0  0  0  0  0  0  0  0  0
   -0.1923    1.1526    0.7617 C   0  0  0  0  0  0  0  0  0  0  0  0
   -1.1582    1.8438    0.4410 O   0  0  0  0  0  0  0  0  0  0  0  0
    0.7203    1.5683    1.6472 N   0  0  0  0  0  0  0  0  0  0  0  0
    1.5210    0.9664    1.8100 H   0  0  0  0  0  0  0  0  0  0  0  0
    0.6747    2.8558    2.3368 C   0  0  0  0  0  0  0  0  0  0  0  0
   -0.3018    2.9877    2.8079 H   0  0  0  0  0  0  0  0  0  0  0  0
    1.4516    2.8997    3.1011 H   0  0  0  0  0  0  0  0  0  0  0  0
    0.8279    3.6639    1.6193 H   0  0  0  0  0  0  0  0  0  0  0  0
  5  6  2  0  0  0  0
  5  7  1  0  0  0  0
  2  3  1  0  0  0  0
  2  4  1  0  0  0  0
  2  5  1  0  0  0  0
  1  2  1  0  0  0  0
 18 19  2  0  0  0  0
 18 20  1  0  0  0  0
 16 17  1  0  0  0  0
 14 15  2  0  0  0  0
 14 16  1  0  0  0  0
 11 12  1  0  0  0  0
 11 13  1  0  0  0  0
 11 14  1  0  0  0  0
  9 10  1  0  0  0  0
  9 11  1  0  0  0  0
  9 18  1  0  0  0  0
  7  8  1  0  0  0  0
  7  9  1  0  0  0  0
 22 23  1  0  0  0  0
 22 24  1  0  0  0  0
 22 25  1  0  0  0  0
 20 21  1  0  0  0  0
 20 22  1  0  0  0  0
M  END
$$$$
default_name
  -OEChem-02102213163D

 25 24  0     1  0  0  0  0  0999 V2000
   -2.7826   -3.8464    0.7821 H   0  0  0  0  0  0  0  0  0  0  0  0
   -2.8156   -2.8034    0.4711 C   0  0  0  0  0  0  0  0  0  0  0  0
   -3.4336   -2.2354    1.1641 H   0  0  0  0  0  0  0  0  0  0  0  0
   -3.2256   -2.7344   -0.5349 H   0  0  0  0  0  0  0  0  0  0  0  0
   -1.4126   -2.2444    0.4801 C   0  0  0  0  0  0  0  0  0  0  0  0
   -0.4686   -2.9534    0.8001 O   0  0  0  0  0  0  0  0  0  0  0  0
   -1.2736   -0.9704    0.1241 N   0  0  0  0  0  0  0  0  0  0  0  0
   -2.0996   -0.4354   -0.1019 H   0  0  0  0  0  0  0  0  0  0  0  0
   -0.0016   -0.2394    0.1271 C   0  0  1  0  0  0  0  0  0  0  0  0
    0.7164   -0.7963    0.7332 H   0  0  0  0  0  0  0  0  0  0  0  0
    0.5351   -0.1414   -1.3146 C   0  0  0  0  0  0  0  0  0  0  0  0
   -0.0482    0.5942   -1.8698 H   0  0  0  0  0  0  0  0  0  0  0  0
    1.5719    0.1962   -1.2983 H   0  0  0  0  0  0  0  0  0  0  0  0
    0.4469   -1.4551   -2.0857 C   0  0  0  0  0  0  0  0  0  0  0  0
    1.3874   -2.1955   -2.3416 O   0  0  0  0  0  0  0  0  0  0  0  0
   -0.7896   -1.7810   -2.5060 O   0  0  0  0  0  0  0  0  0  0  0  0
   -0.7017   -2.6247   -2.9507 H   0  0  0  0  0  0  0  0  0  0  0  0
   -0.1923    1.1526    0.7617 C   0  0  0  0  0  0  0  0  0  0  0  0
   -1.1582    1.8438    0.4410 O   0  0  0  0  0  0  0  0  0  0  0  0
    0.7203    1.5683    1.6472 N   0  0  0  0  0  0  0  0  0  0  0  0
    1.5210    0.9664    1.8100 H   0  0  0  0  0  0  0  0  0  0  0  0
    0.6747    2.8558    2.3368 C   0  0  0  0  0  0  0  0  0  0  0  0
   -0.3018    2.9877    2.8079 H   0  0  0  0  0  0  0  0  0  0  0  0
    1.4516    2.8997    3.1011 H   0  0  0  0  0  0  0  0  0  0  0  0
    0.8279    3.6639    1.6193 H   0  0  0  0  0  0  0  0  0  0  0  0
  5  6  2  0  0  0  0
  5  7  1  0  0  0  0
  2  3  1  0  0  0  0
  2  4  1  0  0  0  0
  2  5  1  0  0  0  0
  1  2  1  0  0  0  0
 18 19  2  0  0  0  0
 18 20  1  0  0  0  0
 16 17  1  0  0  0  0
 14 15  2  0  0  0  0
 14 16  1  0  0  0  0
 11 12  1  0  0  0  0
 11 13  1  0  0  0  0
 11 14  1  0  0  0  0
  9 10  1  0  0  0  0
  9 11  1  0  0  0  0
  9 18  1  0  0  0  0
  7  8  1  0  0  0  0
  7  9  1  0  0  0  0
 22 23  1  0  0  0  0
 22 24  1  0  0  0  0
 22 25  1  0  0  0  0
 20 21  1  0  0  0  0
 20 22  1  0  0  0  0
M  END
$$$$
default_name
  -OEChem-02102213163D

 25 24  0     1  0  0  0  0  0999 V2000
   -2.7826   -3.8464    0.7821 H   0  0  0  0  0  0  0  0  0  0  0  0
   -2.8156   -2.8034    0.4711 C   0  0  0  0  0  0  0  0  0  0  0  0
   -3.4336   -2.2354    1.1641 H   0  0  0  0  0  0  0  0  0  0  0  0
   -3.2256   -2.7344   -0.5349 H   0  0  0  0  0  0  0  0  0  0  0  0
   -1.4126   -2.2444    0.4801 C   0  0  0  0  0  0  0  0  0  0  0  0
   -0.4686   -2.9534    0.8001 O   0  0  0  0  0  0  0  0  0  0  0  0
   -1.2736   -0.9704    0.1241 N   0  0  0  0  0  0  0  0  0  0  0  0
   -2.0996   -0.4354   -0.1019 H   0  0  0  0  0  0  0  0  0  0  0  0
   -0.0016   -0.2394    0.1271 C   0  0  1  0  0  0  0  0  0  0  0  0
    0.7164   -0.7963    0.7332 H   0  0  0  0  0  0  0  0  0  0  0  0
    0.5351   -0.1414   -1.3146 C   0  0  0  0  0  0  0  0  0  0  0  0
   -0.0482    0.5942   -1.8698 H   0  0  0  0  0  0  0  0  0  0  0  0
    1.5719    0.1962   -1.2983 H   0  0  0  0  0  0  0  0  0  0  0  0
    0.4469   -1.4551   -2.0857 C   0  0  0  0  0  0  0  0  0  0  0  0
    1.3141   -2.3180   -2.1246 O   0  0  0  0  0  0  0  0  0  0  0  0
   -0.6976   -1.6310   -2.7721 O   0  0  0  0  0  0  0  0  0  0  0  0
   -0.6258   -2.4918   -3.1857 H   0  0  0  0  0  0  0  0  0  0  0  0
   -0.1923    1.1526    0.7617 C   0  0  0  0  0  0  0  0  0  0  0  0
   -1.1582    1.8438    0.4410 O   0  0  0  0  0  0  0  0  0  0  0  0
    0.7203    1.5683    1.6472 N   0  0  0  0  0  0  0  0  0  0  0  0
    1.5210    0.9664    1.8100 H   0  0  0  0  0  0  0  0  0  0  0  0
    0.6747    2.8558    2.3368 C   0  0  0  0  0  0  0  0  0  0  0  0
   -0.3018    2.9877    2.8079 H   0  0  0  0  0  0  0  0  0  0  0  0
    1.4516    2.8997    3.1011 H   0  0  0  0  0  0  0  0  0  0  0  0
    0.8279    3.6639    1.6193 H   0  0  0  0  0  0  0  0  0  0  0  0
  5  6  2  0  0  0  0
  5  7  1  0  0  0  0
  2  3  1  0  0  0  0
  2  4  1  0  0  0  0
  2  5  1  0  0  0  0
  1  2  1  0  0  0  0
 18 19  2  0  0  0  0
 18 20  1  0  0  0  0
 16 17  1  0  0  0  0
 14 15  2  0  0  0  0
 14 16  1  0  0  0  0
 11 12  1  0  0  0  0
 11 13  1  0  0  0  0
 11 14  1  0  0  0  0
  9 10  1  0  0  0  0
  9 11  1  0  0  0  0
  9 18  1  0  0  0  0
  7  8  1  0  0  0  0
  7  9  1  0  0  0  0
 22 23  1  0  0  0  0
 22 24  1  0  0  0  0
 22 25  1  0  0  0  0
 20 21  1  0  0  0  0
 20 22  1  0  0  0  0
M  END
$$$$
default_name
  -OEChem-02102213163D

 25 24  0     1  0  0  0  0  0999 V2000
   -2.7826   -3.8464    0.7821 H   0  0  0  0  0  0  0  0  0  0  0  0
   -2.8156   -2.8034    0.4711 C   0  0  0  0  0  0  0  0  0  0  0  0
   -3.4336   -2.2354    1.1641 H   0  0  0  0  0  0  0  0  0  0  0  0
   -3.2256   -2.7344   -0.5349 H   0  0  0  0  0  0  0  0  0  0  0  0
   -1.4126   -2.2444    0.4801 C   0  0  0  0  0  0  0  0  0  0  0  0
   -0.4686   -2.9534    0.8001 O   0  0  0  0  0  0  0  0  0  0  0  0
   -1.2736   -0.9704    0.1241 N   0  0  0  0  0  0  0  0  0  0  0  0
   -2.0996   -0.4354   -0.1019 H   0  0  0  0  0  0  0  0  0  0  0  0
   -0.0016   -0.2394    0.1271 C   0  0  1  0  0  0  0  0  0  0  0  0
    0.7164   -0.7963    0.7332 H   0  0  0  0  0  0  0  0  0  0  0  0
    0.5351   -0.1414   -1.3146 C   0  0  0  0  0  0  0  0  0  0  0  0
   -0.0482    0.5942   -1.8698 H   0  0  0  0  0  0  0  0  0  0  0  0
    1.5719    0.1962   -1.2983 H   0  0  0  0  0  0  0  0  0  0  0  0
    0.4469   -1.4551   -2.0857 C   0  0  0  0  0  0  0  0  0  0  0  0
    1.1790   -2.4235   -1.9293 O   0  0  0  0  0  0  0  0  0  0  0  0
   -0.5297   -1.5022   -3.0108 O   0  0  0  0  0  0  0  0  0  0  0  0
   -0.4827   -2.3770   -3.3978 H   0  0  0  0  0  0  0  0  0  0  0  0
   -0.1923    1.1526    0.7617 C   0  0  0  0  0  0  0  0  0  0  0  0
   -1.1582    1.8438    0.4410 O   0  0  0  0  0  0  0  0  0  0  0  0
    0.7203    1.5683    1.6472 N   0  0  0  0  0  0  0  0  0  0  0  0
    1.5210    0.9664    1.8100 H   0  0  0  0  0  0  0  0  0  0  0  0
    0.6747    2.8558    2.3368 C   0  0  0  0  0  0  0  0  0  0  0  0
   -0.3018    2.9877    2.8079 H   0  0  0  0  0  0  0  0  0  0  0  0
    1.4516    2.8997    3.1011 H   0  0  0  0  0  0  0  0  0  0  0  0
    0.8279    3.6639    1.6193 H   0  0  0  0  0  0  0  0  0  0  0  0
  5  6  2  0  0  0  0
  5  7  1  0  0  0  0
  2  3  1  0  0  0  0
  2  4  1  0  0  0  0
  2  5  1  0  0  0  0
  1  2  1  0  0  0  0
 18 19  2  0  0  0  0
 18 20  1  0  0  0  0
 16 17  1  0  0  0  0
 14 15  2  0  0  0  0
 14 16  1  0  0  0  0
 11 12  1  0  0  0  0
 11 13  1  0  0  0  0
 11 14  1  0  0  0  0
  9 10  1  0  0  0  0
  9 11  1  0  0  0  0
  9 18  1  0  0  0  0
  7  8  1  0  0  0  0
  7  9  1  0  0  0  0
 22 23  1  0  0  0  0
 22 24  1  0  0  0  0
 22 25  1  0  0  0  0
 20 21  1  0  0  0  0
 20 22  1  0  0  0  0
M  END
$$$$
default_name
  -OEChem-02102213163D

 25 24  0     1  0  0  0  0  0999 V2000
   -2.7826   -3.8464    0.7821 H   0  0  0  0  0  0  0  0  0  0  0  0
   -2.8156   -2.8034    0.4711 C   0  0  0  0  0  0  0  0  0  0  0  0
   -3.4336   -2.2354    1.1641 H   0  0  0  0  0  0  0  0  0  0  0  0
   -3.2256   -2.7344   -0.5349 H   0  0  0  0  0  0  0  0  0  0  0  0
   -1.4126   -2.2444    0.4801 C   0  0  0  0  0  0  0  0  0  0  0  0
   -0.4686   -2.9534    0.8001 O   0  0  0  0  0  0  0  0  0  0  0  0
   -1.2736   -0.9704    0.1241 N   0  0  0  0  0  0  0  0  0  0  0  0
   -2.0996   -0.4354   -0.1019 H   0  0  0  0  0  0  0  0  0  0  0  0
   -0.0016   -0.2394    0.1271 C   0  0  1  0  0  0  0  0  0  0  0  0
    0.7164   -0.7963    0.7332 H   0  0  0  0  0  0  0  0  0  0  0  0
    0.5351   -0.1414   -1.3146 C   0  0  0  0  0  0  0  0  0  0  0  0
   -0.0482    0.5942   -1.8698 H   0  0  0  0  0  0  0  0  0  0  0  0
    1.5719    0.1962   -1.2983 H   0  0  0  0  0  0  0  0  0  0  0  0
    0.4469   -1.4551   -2.0857 C   0  0  0  0  0  0  0  0  0  0  0  0
    0.9911   -2.5048   -1.7693 O   0  0  0  0  0  0  0  0  0  0  0  0
   -0.2976   -1.4032   -3.2059 O   0  0  0  0  0  0  0  0  0  0  0  0
   -0.2822   -2.2879   -3.5724 H   0  0  0  0  0  0  0  0  0  0  0  0
   -0.1923    1.1526    0.7617 C   0  0  0  0  0  0  0  0  0  0  0  0
   -1.1582    1.8438    0.4410 O   0  0  0  0  0  0  0  0  0  0  0  0
    0.7203    1.5683    1.6472 N   0  0  0  0  0  0  0  0  0  0  0  0
    1.5210    0.9664    1.8100 H   0  0  0  0  0  0  0  0  0  0  0  0
    0.6747    2.8558    2.3368 C   0  0  0  0  0  0  0  0  0  0  0  0
   -0.3018    2.9877    2.8079 H   0  0  0  0  0  0  0  0  0  0  0  0
    1.4516    2.8997    3.1011 H   0  0  0  0  0  0  0  0  0  0  0  0
    0.8279    3.6639    1.6193 H   0  0  0  0  0  0  0  0  0  0  0  0
  5  6  2  0  0  0  0
  5  7  1  0  0  0  0
  2  3  1  0  0  0  0
  2  4  1  0  0  0  0
  2  5  1  0  0  0  0
  1  2  1  0  0  0  0
 18 19  2  0  0  0  0
 18 20  1  0  0  0  0
 16 17  1  0  0  0  0
 14 15  2  0  0  0  0
 14 16  1  0  0  0  0
 11 12  1  0  0  0  0
 11 13  1  0  0  0  0
 11 14  1  0  0  0  0
  9 10  1  0  0  0  0
  9 11  1  0  0  0  0
  9 18  1  0  0  0  0
  7  8  1  0  0  0  0
  7  9  1  0  0  0  0
 22 23  1  0  0  0  0
 22 24  1  0  0  0  0
 22 25  1  0  0  0  0
 20 21  1  0  0  0  0
 20 22  1  0  0  0  0
M  END
$$$$
default_name
  -OEChem-02102213163D

 25 24  0     1  0  0  0  0  0999 V2000
   -2.7826   -3.8464    0.7821 H   0  0  0  0  0  0  0  0  0  0  0  0
   -2.8156   -2.8034    0.4711 C   0  0  0  0  0  0  0  0  0  0  0  0
   -3.4336   -2.2354    1.1641 H   0  0  0  0  0  0  0  0  0  0  0  0
   -3.2256   -2.7344   -0.5349 H   0  0  0  0  0  0  0  0  0  0  0  0
   -1.4126   -2.2444    0.4801 C   0  0  0  0  0  0  0  0  0  0  0  0
   -0.4686   -2.9534    0.8001 O   0  0  0  0  0  0  0  0  0  0  0  0
   -1.2736   -0.9704    0.1241 N   0  0  0  0  0  0  0  0  0  0  0  0
   -2.0996   -0.4354   -0.1019 H   0  0  0  0  0  0  0  0  0  0  0  0
   -0.0016   -0.2394    0.1271 C   0  0  1  0  0  0  0  0  0  0  0  0
    0.7164   -0.7963    0.7332 H   0  0  0  0  0  0  0  0  0  0  0  0
    0.5351   -0.1414   -1.3146 C   0  0  0  0  0  0  0  0  0  0  0  0
   -0.0482    0.5942   -1.8698 H   0  0  0  0  0  0  0  0  0  0  0  0
    1.5719    0.1962   -1.2983 H   0  0  0  0  0  0  0  0  0  0  0  0
    0.4469   -1.4551   -2.0857 C   0  0  0  0  0  0  0  0  0  0  0  0
    0.7634   -2.5564   -1.6554 O   0  0  0  0  0  0  0  0  0  0  0  0
   -0.0169   -1.3409   -3.3442 O   0  0  0  0  0  0  0  0  0  0  0  0
   -0.0379   -2.2307   -3.6978 H   0  0  0  0  0  0  0  0  0  0  0  0
   -0.1923    1.1526    0.7617 C   0  0  0  0  0  0  0  0  0  0  0  0
   -1.1582    1.8438    0.4410 O   0  0  0  0  0  0  0  0  0  0  0  0
    0.7203    1.5683    1.6472 N   0  0  0  0  0  0  0  0  0  0  0  0
    1.5210    0.9664    1.8100 H   0  0  0  0  0  0  0  0  0  0  0  0
    0.6747    2.8558    2.3368 C   0  0  0  0  0  0  0  0  0  0  0  0
   -0.3018    2.9877    2.8079 H   0  0  0  0  0  0  0  0  0  0  0  0
    1.4516    2.8997    3.1011 H   0  0  0  0  0  0  0  0  0  0  0  0
    0.8279    3.6639    1.6193 H   0  0  0  0  0  0  0  0  0  0  0  0
  5  6  2  0  0  0  0
  5  7  1  0  0  0  0
  2  3  1  0  0  0  0
  2  4  1  0  0  0  0
  2  5  1  0  0  0  0
  1  2  1  0  0  0  0
 18 19  2  0  0  0  0
 18 20  1  0  0  0  0
 16 17  1  0  0  0  0
 14 15  2  0  0  0  0
 14 16  1  0  0  0  0
 11 12  1  0  0  0  0
 11 13  1  0  0  0  0
 11 14  1  0  0  0  0
  9 10  1  0  0  0  0
  9 11  1  0  0  0  0
  9 18  1  0  0  0  0
  7  8  1  0  0  0  0
  7  9  1  0  0  0  0
 22 23  1  0  0  0  0
 22 24  1  0  0  0  0
 22 25  1  0  0  0  0
 20 21  1  0  0  0  0
 20 22  1  0  0  0  0
M  END
$$$$
default_name
  -OEChem-02102213163D

 25 24  0     1  0  0  0  0  0999 V2000
   -2.7826   -3.8464    0.7821 H   0  0  0  0  0  0  0  0  0  0  0  0
   -2.8156   -2.8034    0.4711 C   0  0  0  0  0  0  0  0  0  0  0  0
   -3.4336   -2.2354    1.1641 H   0  0  0  0  0  0  0  0  0  0  0  0
   -3.2256   -2.7344   -0.5349 H   0  0  0  0  0  0  0  0  0  0  0  0
   -1.4126   -2.2444    0.4801 C   0  0  0  0  0  0  0  0  0  0  0  0
   -0.4686   -2.9534    0.8001 O   0  0  0  0  0  0  0  0  0  0  0  0
   -1.2736   -0.9704    0.1241 N   0  0  0  0  0  0  0  0  0  0  0  0
   -2.0996   -0.4354   -0.1019 H   0  0  0  0  0  0  0  0  0  0  0  0
   -0.0016   -0.2394    0.1271 C   0  0  1  0  0  0  0  0  0  0  0  0
    0.7164   -0.7963    0.7332 H   0  0  0  0  0  0  0  0  0  0  0  0
    0.5351   -0.1414   -1.3146 C   0  0  0  0  0  0  0  0  0  0  0  0
   -0.0482    0.5942   -1.8698 H   0  0  0  0  0  0  0  0  0  0  0  0
    1.5719    0.1962   -1.2983 H   0  0  0  0  0  0  0  0  0  0  0  0
    0.4469   -1.4551   -2.0857 C   0  0  0  0  0  0  0  0  0  0  0  0
    0.5113   -2.5747   -1.5954 O   0  0  0  0  0  0  0  0  0  0  0  0
    0.2932   -1.3195   -3.4161 O   0  0  0  0  0  0  0  0  0  0  0  0
    0.2334   -2.2093   -3.7653 H   0  0  0  0  0  0  0  0  0  0  0  0
   -0.1923    1.1526    0.7617 C   0  0  0  0  0  0  0  0  0  0  0  0
   -1.1582    1.8438    0.4410 O   0  0  0  0  0  0  0  0  0  0  0  0
    0.7203    1.5683    1.6472 N   0  0  0  0  0  0  0  0  0  0  0  0
    1.5210    0.9664    1.8100 H   0  0  0  0  0  0  0  0  0  0  0  0
    0.6747    2.8558    2.3368 C   0  0  0  0  0  0  0  0  0  0  0  0
   -0.3018    2.9877    2.8079 H   0  0  0  0  0  0  0  0  0  0  0  0
    1.4516    2.8997    3.1011 H   0  0  0  0  0  0  0  0  0  0  0  0
    0.8279    3.6639    1.6193 H   0  0  0  0  0  0  0  0  0  0  0  0
  5  6  2  0  0  0  0
  5  7  1  0  0  0  0
  2  3  1  0  0  0  0
  2  4  1  0  0  0  0
  2  5  1  0  0  0  0
  1  2  1  0  0  0  0
 18 19  2  0  0  0  0
 18 20  1  0  0  0  0
 16 17  1  0  0  0  0
 14 15  2  0  0  0  0
 14 16  1  0  0  0  0
 11 12  1  0  0  0  0
 11 13  1  0  0  0  0
 11 14  1  0  0  0  0
  9 10  1  0  0  0  0
  9 11  1  0  0  0  0
  9 18  1  0  0  0  0
  7  8  1  0  0  0  0
  7  9  1  0  0  0  0
 22 23  1  0  0  0  0
 22 24  1  0  0  0  0
 22 25  1  0  0  0  0
 20 21  1  0  0  0  0
 20 22  1  0  0  0  0
M  END
$$$$
default_name
  -OEChem-02102213163D

 25 24  0     1  0  0  0  0  0999 V2000
   -2.7826   -3.8464    0.7821 H   0  0  0  0  0  0  0  0  0  0  0  0
   -2.8156   -2.8034    0.4711 C   0  0  0  0  0  0  0  0  0  0  0  0
   -3.4336   -2.2354    1.1641 H   0  0  0  0  0  0  0  0  0  0  0  0
   -3.2256   -2.7344   -0.5349 H   0  0  0  0  0  0  0  0  0  0  0  0
   -1.4126   -2.2444    0.4801 C   0  0  0  0  0  0  0  0  0  0  0  0
   -0.4686   -2.9534    0.8001 O   0  0  0  0  0  0  0  0  0  0  0  0
   -1.2736   -0.9704    0.1241 N   0  0  0  0  0  0  0  0  0  0  0  0
   -2.0996   -0.4354   -0.1019 H   0  0  0  0  0  0  0  0  0  0  0  0
   -0.0016   -0.2394    0.1271 C   0  0  1  0  0  0  0  0  0  0  0  0
    0.7164   -0.7963    0.7332 H   0  0  0  0  0  0  0  0  0  0  0  0
    0.5351   -0.1414   -1.3146 C   0  0  0  0  0  0  0  0  0  0  0  0
   -0.0482    0.5942   -1.8698 H   0  0  0  0  0  0  0  0  0  0  0  0
    1.5719    0.1962   -1.2983 H   0  0  0  0  0  0  0  0  0  0  0  0
    0.4469   -1.4551   -2.0857 C   0  0  0  0  0  0  0  0  0  0  0  0
    0.2520   -2.5586   -1.5933 O   0  0  0  0  0  0  0  0  0  0  0  0
    0.6115   -1.3405   -3.4167 O   0  0  0  0  0  0  0  0  0  0  0  0
    0.5133   -2.2251   -3.7704 H   0  0  0  0  0  0  0  0  0  0  0  0
   -0.1923    1.1526    0.7617 C   0  0  0  0  0  0  0  0  0  0  0  0
   -1.1582    1.8438    0.4410 O   0  0  0  0  0  0  0  0  0  0  0  0
    0.7203    1.5683    1.6472 N   0  0  0  0  0  0  0  0  0  0  0  0
    1.5210    0.9664    1.8100 H   0  0  0  0  0  0  0  0  0  0  0  0
    0.6747    2.8558    2.3368 C   0  0  0  0  0  0  0  0  0  0  0  0
   -0.3018    2.9877    2.8079 H   0  0  0  0  0  0  0  0  0  0  0  0
    1.4516    2.8997    3.1011 H   0  0  0  0  0  0  0  0  0  0  0  0
    0.8279    3.6639    1.6193 H   0  0  0  0  0  0  0  0  0  0  0  0
  5  6  2  0  0  0  0
  5  7  1  0  0  0  0
  2  3  1  0  0  0  0
  2  4  1  0  0  0  0
  2  5  1  0  0  0  0
  1  2  1  0  0  0  0
 18 19  2  0  0  0  0
 18 20  1  0  0  0  0
 16 17  1  0  0  0  0
 14 15  2  0  0  0  0
 14 16  1  0  0  0  0
 11 12  1  0  0  0  0
 11 13  1  0  0  0  0
 11 14  1  0  0  0  0
  9 10  1  0  0  0  0
  9 11  1  0  0  0  0
  9 18  1  0  0  0  0
  7  8  1  0  0  0  0
  7  9  1  0  0  0  0
 22 23  1  0  0  0  0
 22 24  1  0  0  0  0
 22 25  1  0  0  0  0
 20 21  1  0  0  0  0
 20 22  1  0  0  0  0
M  END
$$$$
default_name
  -OEChem-02102213163D

 25 24  0     1  0  0  0  0  0999 V2000
   -2.7826   -3.8464    0.7821 H   0  0  0  0  0  0  0  0  0  0  0  0
   -2.8156   -2.8034    0.4711 C   0  0  0  0  0  0  0  0  0  0  0  0
   -3.4336   -2.2354    1.1641 H   0  0  0  0  0  0  0  0  0  0  0  0
   -3.2256   -2.7344   -0.5349 H   0  0  0  0  0  0  0  0  0  0  0  0
   -1.4126   -2.2444    0.4801 C   0  0  0  0  0  0  0  0  0  0  0  0
   -0.4686   -2.9534    0.8001 O   0  0  0  0  0  0  0  0  0  0  0  0
   -1.2736   -0.9704    0.1241 N   0  0  0  0  0  0  0  0  0  0  0  0
   -2.0996   -0.4354   -0.1019 H   0  0  0  0  0  0  0  0  0  0  0  0
   -0.0016   -0.2394    0.1271 C   0  0  1  0  0  0  0  0  0  0  0  0
    0.7164   -0.7963    0.7332 H   0  0  0  0  0  0  0  0  0  0  0  0
    0.5351   -0.1414   -1.3146 C   0  0  0  0  0  0  0  0  0  0  0  0
   -0.0482    0.5942   -1.8698 H   0  0  0  0  0  0  0  0  0  0  0  0
    1.5719    0.1962   -1.2983 H   0  0  0  0  0  0  0  0  0  0  0  0
    0.4469   -1.4551   -2.0857 C   0  0  0  0  0  0  0  0  0  0  0  0
    0.0031   -2.5090   -1.6492 O   0  0  0  0  0  0  0  0  0  0  0  0
    0.9163   -1.4024   -3.3462 O   0  0  0  0  0  0  0  0  0  0  0  0
    0.7828   -2.2770   -3.7127 H   0  0  0  0  0  0  0  0  0  0  0  0
   -0.1923    1.1526    0.7617 C   0  0  0  0  0  0  0  0  0  0  0  0
   -1.1582    1.8438    0.4410 O   0  0  0  0  0  0  0  0  0  0  0  0
    0.7203    1.5683    1.6472 N   0  0  0  0  0  0  0  0  0  0  0  0
    1.5210    0.9664    1.8100 H   0  0  0  0  0  0  0  0  0  0  0  0
    0.6747    2.8558    2.3368 C   0  0  0  0  0  0  0  0  0  0  0  0
   -0.3018    2.9877    2.8079 H   0  0  0  0  0  0  0  0  0  0  0  0
    1.4516    2.8997    3.1011 H   0  0  0  0  0  0  0  0  0  0  0  0
    0.8279    3.6639    1.6193 H   0  0  0  0  0  0  0  0  0  0  0  0
  5  6  2  0  0  0  0
  5  7  1  0  0  0  0
  2  3  1  0  0  0  0
  2  4  1  0  0  0  0
  2  5  1  0  0  0  0
  1  2  1  0  0  0  0
 18 19  2  0  0  0  0
 18 20  1  0  0  0  0
 16 17  1  0  0  0  0
 14 15  2  0  0  0  0
 14 16  1  0  0  0  0
 11 12  1  0  0  0  0
 11 13  1  0  0  0  0
 11 14  1  0  0  0  0
  9 10  1  0  0  0  0
  9 11  1  0  0  0  0
  9 18  1  0  0  0  0
  7  8  1  0  0  0  0
  7  9  1  0  0  0  0
 22 23  1  0  0  0  0
 22 24  1  0  0  0  0
 22 25  1  0  0  0  0
 20 21  1  0  0  0  0
 20 22  1  0  0  0  0
M  END
$$$$
default_name
  -OEChem-02102213163D

 25 24  0     1  0  0  0  0  0999 V2000
   -2.7826   -3.8464    0.7821 H   0  0  0  0  0  0  0  0  0  0  0  0
   -2.8156   -2.8034    0.4711 C   0  0  0  0  0  0  0  0  0  0  0  0
   -3.4336   -2.2354    1.1641 H   0  0  0  0  0  0  0  0  0  0  0  0
   -3.2256   -2.7344   -0.5349 H   0  0  0  0  0  0  0  0  0  0  0  0
   -1.4126   -2.2444    0.4801 C   0  0  0  0  0  0  0  0  0  0  0  0
   -0.4686   -2.9534    0.8001 O   0  0  0  0  0  0  0  0  0  0  0  0
   -1.2736   -0.9704    0.1241 N   0  0  0  0  0  0  0  0  0  0  0  0
   -2.0996   -0.4354   -0.1019 H   0  0  0  0  0  0  0  0  0  0  0  0
   -0.0016   -0.2394    0.1271 C   0  0  1  0  0  0  0  0  0  0  0  0
    0.7164   -0.7963    0.7332 H   0  0  0  0  0  0  0  0  0  0  0  0
    0.5351   -0.1414   -1.3146 C   0  0  0  0  0  0  0  0  0  0  0  0
   -0.0482    0.5942   -1.8698 H   0  0  0  0  0  0  0  0  0  0  0  0
    1.5719    0.1962   -1.2983 H   0  0  0  0  0  0  0  0  0  0  0  0
    0.4469   -1.4551   -2.0857 C   0  0  0  0  0  0  0  0  0  0  0  0
   -0.2183   -2.4294   -1.7595 O   0  0  0  0  0  0  0  0  0  0  0  0
    1.1870   -1.5010   -3.2091 O   0  0  0  0  0  0  0  0  0  0  0  0
    1.0234   -2.3616   -3.5961 H   0  0  0  0  0  0  0  0  0  0  0  0
   -0.1923    1.1526    0.7617 C   0  0  0  0  0  0  0  0  0  0  0  0
   -1.1582    1.8438    0.4410 O   0  0  0  0  0  0  0  0  0  0  0  0
    0.7203    1.5683    1.6472 N   0  0  0  0  0  0  0  0  0  0  0  0
    1.5210    0.9664    1.8100 H   0  0  0  0  0  0  0  0  0  0  0  0
    0.6747    2.8558    2.3368 C   0  0  0  0  0  0  0  0  0  0  0  0
   -0.3018    2.9877    2.8079 H   0  0  0  0  0  0  0  0  0  0  0  0
    1.4516    2.8997    3.1011 H   0  0  0  0  0  0  0  0  0  0  0  0
    0.8279    3.6639    1.6193 H   0  0  0  0  0  0  0  0  0  0  0  0
  5  6  2  0  0  0  0
  5  7  1  0  0  0  0
  2  3  1  0  0  0  0
  2  4  1  0  0  0  0
  2  5  1  0  0  0  0
  1  2  1  0  0  0  0
 18 19  2  0  0  0  0
 18 20  1  0  0  0  0
 16 17  1  0  0  0  0
 14 15  2  0  0  0  0
 14 16  1  0  0  0  0
 11 12  1  0  0  0  0
 11 13  1  0  0  0  0
 11 14  1  0  0  0  0
  9 10  1  0  0  0  0
  9 11  1  0  0  0  0
  9 18  1  0  0  0  0
  7  8  1  0  0  0  0
  7  9  1  0  0  0  0
 22 23  1  0  0  0  0
 22 24  1  0  0  0  0
 22 25  1  0  0  0  0
 20 21  1  0  0  0  0
 20 22  1  0  0  0  0
M  END
$$$$
default_name
  -OEChem-02102213163D

 25 24  0     1  0  0  0  0  0999 V2000
   -2.7826   -3.8464    0.7821 H   0  0  0  0  0  0  0  0  0  0  0  0
   -2.8156   -2.8034    0.4711 C   0  0  0  0  0  0  0  0  0  0  0  0
   -3.4336   -2.2354    1.1641 H   0  0  0  0  0  0  0  0  0  0  0  0
   -3.2256   -2.7344   -0.5349 H   0  0  0  0  0  0  0  0  0  0  0  0
   -1.4126   -2.2444    0.4801 C   0  0  0  0  0  0  0  0  0  0  0  0
   -0.4686   -2.9534    0.8001 O   0  0  0  0  0  0  0  0  0  0  0  0
   -1.2736   -0.9704    0.1241 N   0  0  0  0  0  0  0  0  0  0  0  0
   -2.0996   -0.4354   -0.1019 H   0  0  0  0  0  0  0  0  0  0  0  0
   -0.0016   -0.2394    0.1271 C   0  0  1  0  0  0  0  0  0  0  0  0
    0.7164   -0.7963    0.7332 H   0  0  0  0  0  0  0  0  0  0  0  0
    0.5351   -0.1414   -1.3146 C   0  0  0  0  0  0  0  0  0  0  0  0
   -0.0482    0.5942   -1.8698 H   0  0  0  0  0  0  0  0  0  0  0  0
    1.5719    0.1962   -1.2983 H   0  0  0  0  0  0  0  0  0  0  0  0
    0.4469   -1.4551   -2.0857 C   0  0  0  0  0  0  0  0  0  0  0  0
   -0.3971   -2.3253   -1.9166 O   0  0  0  0  0  0  0  0  0  0  0  0
    1.4050   -1.6296   -3.0149 O   0  0  0  0  0  0  0  0  0  0  0  0
    1.2188   -2.4730   -3.4287 H   0  0  0  0  0  0  0  0  0  0  0  0
   -0.1923    1.1526    0.7617 C   0  0  0  0  0  0  0  0  0  0  0  0
   -1.1582    1.8438    0.4410 O   0  0  0  0  0  0  0  0  0  0  0  0
    0.7203    1.5683    1.6472 N   0  0  0  0  0  0  0  0  0  0  0  0
    1.5210    0.9664    1.8100 H   0  0  0  0  0  0  0  0  0  0  0  0
    0.6747    2.8558    2.3368 C   0  0  0  0  0  0  0  0  0  0  0  0
   -0.3018    2.9877    2.8079 H   0  0  0  0  0  0  0  0  0  0  0  0
    1.4516    2.8997    3.1011 H   0  0  0  0  0  0  0  0  0  0  0  0
    0.8279    3.6639    1.6193 H   0  0  0  0  0  0  0  0  0  0  0  0
  5  6  2  0  0  0  0
  5  7  1  0  0  0  0
  2  3  1  0  0  0  0
  2  4  1  0  0  0  0
  2  5  1  0  0  0  0
  1  2  1  0  0  0  0
 18 19  2  0  0  0  0
 18 20  1  0  0  0  0
 16 17  1  0  0  0  0
 14 15  2  0  0  0  0
 14 16  1  0  0  0  0
 11 12  1  0  0  0  0
 11 13  1  0  0  0  0
 11 14  1  0  0  0  0
  9 10  1  0  0  0  0
  9 11  1  0  0  0  0
  9 18  1  0  0  0  0
  7  8  1  0  0  0  0
  7  9  1  0  0  0  0
 22 23  1  0  0  0  0
 22 24  1  0  0  0  0
 22 25  1  0  0  0  0
 20 21  1  0  0  0  0
 20 22  1  0  0  0  0
M  END
$$$$
default_name
  -OEChem-02102213163D

 25 24  0     1  0  0  0  0  0999 V2000
   -2.7826   -3.8464    0.7821 H   0  0  0  0  0  0  0  0  0  0  0  0
   -2.8156   -2.8034    0.4711 C   0  0  0  0  0  0  0  0  0  0  0  0
   -3.4336   -2.2354    1.1641 H   0  0  0  0  0  0  0  0  0  0  0  0
   -3.2256   -2.7344   -0.5349 H   0  0  0  0  0  0  0  0  0  0  0  0
   -1.4126   -2.2444    0.4801 C   0  0  0  0  0  0  0  0  0  0  0  0
   -0.4686   -2.9534    0.8001 O   0  0  0  0  0  0  0  0  0  0  0  0
   -1.2736   -0.9704    0.1241 N   0  0  0  0  0  0  0  0  0  0  0  0
   -2.0996   -0.4354   -0.1019 H   0  0  0  0  0  0  0  0  0  0  0  0
   -0.0016   -0.2394    0.1271 C   0  0  1  0  0  0  0  0  0  0  0  0
    0.7164   -0.7963    0.7332 H   0  0  0  0  0  0  0  0  0  0  0  0
    0.5351   -0.1414   -1.3146 C   0  0  0  0  0  0  0  0  0  0  0  0
   -0.0482    0.5942   -1.8698 H   0  0  0  0  0  0  0  0  0  0  0  0
    1.5719    0.1962   -1.2983 H   0  0  0  0  0  0  0  0  0  0  0  0
    0.4469   -1.4551   -2.0857 C   0  0  0  0  0  0  0  0  0  0  0  0
   -0.5213   -2.2036   -2.1097 O   0  0  0  0  0  0  0  0  0  0  0  0
    1.5555   -1.7794   -2.7769 O   0  0  0  0  0  0  0  0  0  0  0  0
    1.3557   -2.6037   -3.2217 H   0  0  0  0  0  0  0  0  0  0  0  0
   -0.1923    1.1526    0.7617 C   0  0  0  0  0  0  0  0  0  0  0  0
   -1.1582    1.8438    0.4410 O   0  0  0  0  0  0  0  0  0  0  0  0
    0.7203    1.5683    1.6472 N   0  0  0  0  0  0  0  0  0  0  0  0
    1.5210    0.9664    1.8100 H   0  0  0  0  0  0  0  0  0  0  0  0
    0.6747    2.8558    2.3368 C   0  0  0  0  0  0  0  0  0  0  0  0
   -0.3018    2.9877    2.8079 H   0  0  0  0  0  0  0  0  0  0  0  0
    1.4516    2.8997    3.1011 H   0  0  0  0  0  0  0  0  0  0  0  0
    0.8279    3.6639    1.6193 H   0  0  0  0  0  0  0  0  0  0  0  0
  5  6  2  0  0  0  0
  5  7  1  0  0  0  0
  2  3  1  0  0  0  0
  2  4  1  0  0  0  0
  2  5  1  0  0  0  0
  1  2  1  0  0  0  0
 18 19  2  0  0  0  0
 18 20  1  0  0  0  0
 16 17  1  0  0  0  0
 14 15  2  0  0  0  0
 14 16  1  0  0  0  0
 11 12  1  0  0  0  0
 11 13  1  0  0  0  0
 11 14  1  0  0  0  0
  9 10  1  0  0  0  0
  9 11  1  0  0  0  0
  9 18  1  0  0  0  0
  7  8  1  0  0  0  0
  7  9  1  0  0  0  0
 22 23  1  0  0  0  0
 22 24  1  0  0  0  0
 22 25  1  0  0  0  0
 20 21  1  0  0  0  0
 20 22  1  0  0  0  0
M  END
$$$$
default_name
  -OEChem-02102213163D

 25 24  0     1  0  0  0  0  0999 V2000
   -2.7826   -3.8464    0.7821 H   0  0  0  0  0  0  0  0  0  0  0  0
   -2.8156   -2.8034    0.4711 C   0  0  0  0  0  0  0  0  0  0  0  0
   -3.4336   -2.2354    1.1641 H   0  0  0  0  0  0  0  0  0  0  0  0
   -3.2256   -2.7344   -0.5349 H   0  0  0  0  0  0  0  0  0  0  0  0
   -1.4126   -2.2444    0.4801 C   0  0  0  0  0  0  0  0  0  0  0  0
   -0.4686   -2.9534    0.8001 O   0  0  0  0  0  0  0  0  0  0  0  0
   -1.2736   -0.9704    0.1241 N   0  0  0  0  0  0  0  0  0  0  0  0
   -2.0996   -0.4354   -0.1019 H   0  0  0  0  0  0  0  0  0  0  0  0
   -0.0016   -0.2394    0.1271 C   0  0  1  0  0  0  0  0  0  0  0  0
    0.7164   -0.7963    0.7332 H   0  0  0  0  0  0  0  0  0  0  0  0
    0.5351   -0.1414   -1.3146 C   0  0  0  0  0  0  0  0  0  0  0  0
   -0.0482    0.5942   -1.8698 H   0  0  0  0  0  0  0  0  0  0  0  0
    1.5719    0.1962   -1.2983 H   0  0  0  0  0  0  0  0  0  0  0  0
    0.4469   -1.4551   -2.0857 C   0  0  0  0  0  0  0  0  0  0  0  0
   -0.5822   -2.0727   -2.3257 O   0  0  0  0  0  0  0  0  0  0  0  0
    1.6282   -1.9402   -2.5112 O   0  0  0  0  0  0  0  0  0  0  0  0
    1.4247   -2.7447   -2.9893 H   0  0  0  0  0  0  0  0  0  0  0  0
   -0.1923    1.1526    0.7617 C   0  0  0  0  0  0  0  0  0  0  0  0
   -1.1582    1.8438    0.4410 O   0  0  0  0  0  0  0  0  0  0  0  0
    0.7203    1.5683    1.6472 N   0  0  0  0  0  0  0  0  0  0  0  0
    1.5210    0.9664    1.8100 H   0  0  0  0  0  0  0  0  0  0  0  0
    0.6747    2.8558    2.3368 C   0  0  0  0  0  0  0  0  0  0  0  0
   -0.3018    2.9877    2.8079 H   0  0  0  0  0  0  0  0  0  0  0  0
    1.4516    2.8997    3.1011 H   0  0  0  0  0  0  0  0  0  0  0  0
    0.8279    3.6639    1.6193 H   0  0  0  0  0  0  0  0  0  0  0  0
  5  6  2  0  0  0  0
  5  7  1  0  0  0  0
  2  3  1  0  0  0  0
  2  4  1  0  0  0  0
  2  5  1  0  0  0  0
  1  2  1  0  0  0  0
 18 19  2  0  0  0  0
 18 20  1  0  0  0  0
 16 17  1  0  0  0  0
 14 15  2  0  0  0  0
 14 16  1  0  0  0  0
 11 12  1  0  0  0  0
 11 13  1  0  0  0  0
 11 14  1  0  0  0  0
  9 10  1  0  0  0  0
  9 11  1  0  0  0  0
  9 18  1  0  0  0  0
  7  8  1  0  0  0  0
  7  9  1  0  0  0  0
 22 23  1  0  0  0  0
 22 24  1  0  0  0  0
 22 25  1  0  0  0  0
 20 21  1  0  0  0  0
 20 22  1  0  0  0  0
M  END
$$$$
default_name
  -OEChem-02102213163D

 25 24  0     1  0  0  0  0  0999 V2000
   -2.7826   -3.8464    0.7821 H   0  0  0  0  0  0  0  0  0  0  0  0
   -2.8156   -2.8034    0.4711 C   0  0  0  0  0  0  0  0  0  0  0  0
   -3.4336   -2.2354    1.1641 H   0  0  0  0  0  0  0  0  0  0  0  0
   -3.2256   -2.7344   -0.5349 H   0  0  0  0  0  0  0  0  0  0  0  0
   -1.4126   -2.2444    0.4801 C   0  0  0  0  0  0  0  0  0  0  0  0
   -0.4686   -2.9534    0.8001 O   0  0  0  0  0  0  0  0  0  0  0  0
   -1.2736   -0.9704    0.1241 N   0  0  0  0  0  0  0  0  0  0  0  0
   -2.0996   -0.4354   -0.1019 H   0  0  0  0  0  0  0  0  0  0  0  0
   -0.0016   -0.2394    0.1271 C   0  0  1  0  0  0  0  0  0  0  0  0
    0.7164   -0.7963    0.7332 H   0  0  0  0  0  0  0  0  0  0  0  0
    0.5351   -0.1414   -1.3146 C   0  0  0  0  0  0  0  0  0  0  0  0
   -0.0482    0.5942   -1.8698 H   0  0  0  0  0  0  0  0  0  0  0  0
    1.5719    0.1962   -1.2983 H   0  0  0  0  0  0  0  0  0  0  0  0
    0.4469   -1.4551   -2.0857 C   0  0  0  0  0  0  0  0  0  0  0  0
   -0.5759   -1.9415   -2.5499 O   0  0  0  0  0  0  0  0  0  0  0  0
    1.6182   -2.1011   -2.2359 O   0  0  0  0  0  0  0  0  0  0  0  0
    1.4210   -2.8865   -2.7474 H   0  0  0  0  0  0  0  0  0  0  0  0
   -0.1923    1.1526    0.7617 C   0  0  0  0  0  0  0  0  0  0  0  0
   -1.1582    1.8438    0.4410 O   0  0  0  0  0  0  0  0  0  0  0  0
    0.7203    1.5683    1.6472 N   0  0  0  0  0  0  0  0  0  0  0  0
    1.5210    0.9664    1.8100 H   0  0  0  0  0  0  0  0  0  0  0  0
    0.6747    2.8558    2.3368 C   0  0  0  0  0  0  0  0  0  0  0  0
   -0.3018    2.9877    2.8079 H   0  0  0  0  0  0  0  0  0  0  0  0
    1.4516    2.8997    3.1011 H   0  0  0  0  0  0  0  0  0  0  0  0
    0.8279    3.6639    1.6193 H   0  0  0  0  0  0  0  0  0  0  0  0
  5  6  2  0  0  0  0
  5  7  1  0  0  0  0
  2  3  1  0  0  0  0
  2  4  1  0  0  0  0
  2  5  1  0  0  0  0
  1  2  1  0  0  0  0
 18 19  2  0  0  0  0
 18 20  1  0  0  0  0
 16 17  1  0  0  0  0
 14 15  2  0  0  0  0
 14 16  1  0  0  0  0
 11 12  1  0  0  0  0
 11 13  1  0  0  0  0
 11 14  1  0  0  0  0
  9 10  1  0  0  0  0
  9 11  1  0  0  0  0
  9 18  1  0  0  0  0
  7  8  1  0  0  0  0
  7  9  1  0  0  0  0
 22 23  1  0  0  0  0
 22 24  1  0  0  0  0
 22 25  1  0  0  0  0
 20 21  1  0  0  0  0
 20 22  1  0  0  0  0
M  END
$$$$
default_name
  -OEChem-02102213163D

 25 24  0     1  0  0  0  0  0999 V2000
   -2.7826   -3.8464    0.7821 H   0  0  0  0  0  0  0  0  0  0  0  0
   -2.8156   -2.8034    0.4711 C   0  0  0  0  0  0  0  0  0  0  0  0
   -3.4336   -2.2354    1.1641 H   0  0  0  0  0  0  0  0  0  0  0  0
   -3.2256   -2.7344   -0.5349 H   0  0  0  0  0  0  0  0  0  0  0  0
   -1.4126   -2.2444    0.4801 C   0  0  0  0  0  0  0  0  0  0  0  0
   -0.4686   -2.9534    0.8001 O   0  0  0  0  0  0  0  0  0  0  0  0
   -1.2736   -0.9704    0.1241 N   0  0  0  0  0  0  0  0  0  0  0  0
   -2.0996   -0.4354   -0.1019 H   0  0  0  0  0  0  0  0  0  0  0  0
   -0.0016   -0.2394    0.1271 C   0  0  1  0  0  0  0  0  0  0  0  0
    0.7164   -0.7963    0.7332 H   0  0  0  0  0  0  0  0  0  0  0  0
    0.5351   -0.1414   -1.3146 C   0  0  0  0  0  0  0  0  0  0  0  0
   -0.0482    0.5942   -1.8698 H   0  0  0  0  0  0  0  0  0  0  0  0
    1.5719    0.1962   -1.2983 H   0  0  0  0  0  0  0  0  0  0  0  0
    0.4469   -1.4551   -2.0857 C   0  0  0  0  0  0  0  0  0  0  0  0
   -0.5026   -1.8190   -2.7669 O   0  0  0  0  0  0  0  0  0  0  0  0
    1.5262   -2.2511   -1.9698 O   0  0  0  0  0  0  0  0  0  0  0  0
    1.3451   -3.0193   -2.5124 H   0  0  0  0  0  0  0  0  0  0  0  0
   -0.1923    1.1526    0.7617 C   0  0  0  0  0  0  0  0  0  0  0  0
   -1.1582    1.8438    0.4410 O   0  0  0  0  0  0  0  0  0  0  0  0
    0.7203    1.5683    1.6472 N   0  0  0  0  0  0  0  0  0  0  0  0
    1.5210    0.9664    1.8100 H   0  0  0  0  0  0  0  0  0  0  0  0
    0.6747    2.8558    2.3368 C   0  0  0  0  0  0  0  0  0  0  0  0
   -0.3018    2.9877    2.8079 H   0  0  0  0  0  0  0  0  0  0  0  0
    1.4516    2.8997    3.1011 H   0  0  0  0  0  0  0  0  0  0  0  0
    0.8279    3.6639    1.6193 H   0  0  0  0  0  0  0  0  0  0  0  0
  5  6  2  0  0  0  0
  5  7  1  0  0  0  0
  2  3  1  0  0  0  0
  2  4  1  0  0  0  0
  2  5  1  0  0  0  0
  1  2  1  0  0  0  0
 18 19  2  0  0  0  0
 18 20  1  0  0  0  0
 16 17  1  0  0  0  0
 14 15  2  0  0  0  0
 14 16  1  0  0  0  0
 11 12  1  0  0  0  0
 11 13  1  0  0  0  0
 11 14  1  0  0  0  0
  9 10  1  0  0  0  0
  9 11  1  0  0  0  0
  9 18  1  0  0  0  0
  7  8  1  0  0  0  0
  7  9  1  0  0  0  0
 22 23  1  0  0  0  0
 22 24  1  0  0  0  0
 22 25  1  0  0  0  0
 20 21  1  0  0  0  0
 20 22  1  0  0  0  0
M  END
$$$$
default_name
  -OEChem-02102213163D

 25 24  0     1  0  0  0  0  0999 V2000
   -2.7826   -3.8464    0.7821 H   0  0  0  0  0  0  0  0  0  0  0  0
   -2.8156   -2.8034    0.4711 C   0  0  0  0  0  0  0  0  0  0  0  0
   -3.4336   -2.2354    1.1641 H   0  0  0  0  0  0  0  0  0  0  0  0
   -3.2256   -2.7344   -0.5349 H   0  0  0  0  0  0  0  0  0  0  0  0
   -1.4126   -2.2444    0.4801 C   0  0  0  0  0  0  0  0  0  0  0  0
   -0.4686   -2.9534    0.8001 O   0  0  0  0  0  0  0  0  0  0  0  0
   -1.2736   -0.9704    0.1241 N   0  0  0  0  0  0  0  0  0  0  0  0
   -2.0996   -0.4354   -0.1019 H   0  0  0  0  0  0  0  0  0  0  0  0
   -0.0016   -0.2394    0.1271 C   0  0  1  0  0  0  0  0  0  0  0  0
    0.7164   -0.7963    0.7332 H   0  0  0  0  0  0  0  0  0  0  0  0
    0.5351   -0.1414   -1.3146 C   0  0  0  0  0  0  0  0  0  0  0  0
   -0.0482    0.5942   -1.8698 H   0  0  0  0  0  0  0  0  0  0  0  0
    1.5719    0.1962   -1.2983 H   0  0  0  0  0  0  0  0  0  0  0  0
    0.4469   -1.4551   -2.0857 C   0  0  0  0  0  0  0  0  0  0  0  0
   -0.3675   -1.7135   -2.9622 O   0  0  0  0  0  0  0  0  0  0  0  0
    1.3583   -2.3800   -1.7311 O   0  0  0  0  0  0  0  0  0  0  0  0
    1.2020   -3.1342   -2.3003 H   0  0  0  0  0  0  0  0  0  0  0  0
   -0.1923    1.1526    0.7617 C   0  0  0  0  0  0  0  0  0  0  0  0
   -1.1582    1.8438    0.4410 O   0  0  0  0  0  0  0  0  0  0  0  0
    0.7203    1.5683    1.6472 N   0  0  0  0  0  0  0  0  0  0  0  0
    1.5210    0.9664    1.8100 H   0  0  0  0  0  0  0  0  0  0  0  0
    0.6747    2.8558    2.3368 C   0  0  0  0  0  0  0  0  0  0  0  0
   -0.3018    2.9877    2.8079 H   0  0  0  0  0  0  0  0  0  0  0  0
    1.4516    2.8997    3.1011 H   0  0  0  0  0  0  0  0  0  0  0  0
    0.8279    3.6639    1.6193 H   0  0  0  0  0  0  0  0  0  0  0  0
  5  6  2  0  0  0  0
  5  7  1  0  0  0  0
  2  3  1  0  0  0  0
  2  4  1  0  0  0  0
  2  5  1  0  0  0  0
  1  2  1  0  0  0  0
 18 19  2  0  0  0  0
 18 20  1  0  0  0  0
 16 17  1  0  0  0  0
 14 15  2  0  0  0  0
 14 16  1  0  0  0  0
 11 12  1  0  0  0  0
 11 13  1  0  0  0  0
 11 14  1  0  0  0  0
  9 10  1  0  0  0  0
  9 11  1  0  0  0  0
  9 18  1  0  0  0  0
  7  8  1  0  0  0  0
  7  9  1  0  0  0  0
 22 23  1  0  0  0  0
 22 24  1  0  0  0  0
 22 25  1  0  0  0  0
 20 21  1  0  0  0  0
 20 22  1  0  0  0  0
M  END
$$$$
default_name
  -OEChem-02102213163D

 25 24  0     1  0  0  0  0  0999 V2000
   -2.7826   -3.8464    0.7821 H   0  0  0  0  0  0  0  0  0  0  0  0
   -2.8156   -2.8034    0.4711 C   0  0  0  0  0  0  0  0  0  0  0  0
   -3.4336   -2.2354    1.1641 H   0  0  0  0  0  0  0  0  0  0  0  0
   -3.2256   -2.7344   -0.5349 H   0  0  0  0  0  0  0  0  0  0  0  0
   -1.4126   -2.2444    0.4801 C   0  0  0  0  0  0  0  0  0  0  0  0
   -0.4686   -2.9534    0.8001 O   0  0  0  0  0  0  0  0  0  0  0  0
   -1.2736   -0.9704    0.1241 N   0  0  0  0  0  0  0  0  0  0  0  0
   -2.0996   -0.4354   -0.1019 H   0  0  0  0  0  0  0  0  0  0  0  0
   -0.0016   -0.2394    0.1271 C   0  0  1  0  0  0  0  0  0  0  0  0
    0.7164   -0.7963    0.7332 H   0  0  0  0  0  0  0  0  0  0  0  0
    0.5351   -0.1414   -1.3146 C   0  0  0  0  0  0  0  0  0  0  0  0
   -0.0482    0.5942   -1.8698 H   0  0  0  0  0  0  0  0  0  0  0  0
    1.5719    0.1962   -1.2983 H   0  0  0  0  0  0  0  0  0  0  0  0
    0.4469   -1.4551   -2.0857 C   0  0  0  0  0  0  0  0  0  0  0  0
   -0.1796   -1.6322   -3.1222 O   0  0  0  0  0  0  0  0  0  0  0  0
    1.1262   -2.4790   -1.5360 O   0  0  0  0  0  0  0  0  0  0  0  0
    1.0015   -3.2233   -2.1256 H   0  0  0  0  0  0  0  0  0  0  0  0
   -0.1923    1.1526    0.7617 C   0  0  0  0  0  0  0  0  0  0  0  0
   -1.1582    1.8438    0.4410 O   0  0  0  0  0  0  0  0  0  0  0  0
    0.7203    1.5683    1.6472 N   0  0  0  0  0  0  0  0  0  0  0  0
    1.5210    0.9664    1.8100 H   0  0  0  0  0  0  0  0  0  0  0  0
    0.6747    2.8558    2.3368 C   0  0  0  0  0  0  0  0  0  0  0  0
   -0.3018    2.9877    2.8079 H   0  0  0  0  0  0  0  0  0  0  0  0
    1.4516    2.8997    3.1011 H   0  0  0  0  0  0  0  0  0  0  0  0
    0.8279    3.6639    1.6193 H   0  0  0  0  0  0  0  0  0  0  0  0
  5  6  2  0  0  0  0
  5  7  1  0  0  0  0
  2  3  1  0  0  0  0
  2  4  1  0  0  0  0
  2  5  1  0  0  0  0
  1  2  1  0  0  0  0
 18 19  2  0  0  0  0
 18 20  1  0  0  0  0
 16 17  1  0  0  0  0
 14 15  2  0  0  0  0
 14 16  1  0  0  0  0
 11 12  1  0  0  0  0
 11 13  1  0  0  0  0
 11 14  1  0  0  0  0
  9 10  1  0  0  0  0
  9 11  1  0  0  0  0
  9 18  1  0  0  0  0
  7  8  1  0  0  0  0
  7  9  1  0  0  0  0
 22 23  1  0  0  0  0
 22 24  1  0  0  0  0
 22 25  1  0  0  0  0
 20 21  1  0  0  0  0
 20 22  1  0  0  0  0
M  END
$$$$
default_name
  -OEChem-02102213163D

 25 24  0     1  0  0  0  0  0999 V2000
   -2.7826   -3.8464    0.7821 H   0  0  0  0  0  0  0  0  0  0  0  0
   -2.8156   -2.8034    0.4711 C   0  0  0  0  0  0  0  0  0  0  0  0
   -3.4336   -2.2354    1.1641 H   0  0  0  0  0  0  0  0  0  0  0  0
   -3.2256   -2.7344   -0.5349 H   0  0  0  0  0  0  0  0  0  0  0  0
   -1.4126   -2.2444    0.4801 C   0  0  0  0  0  0  0  0  0  0  0  0
   -0.4686   -2.9534    0.8001 O   0  0  0  0  0  0  0  0  0  0  0  0
   -1.2736   -0.9704    0.1241 N   0  0  0  0  0  0  0  0  0  0  0  0
   -2.0996   -0.4354   -0.1019 H   0  0  0  0  0  0  0  0  0  0  0  0
   -0.0016   -0.2394    0.1271 C   0  0  1  0  0  0  0  0  0  0  0  0
    0.7164   -0.7963    0.7332 H   0  0  0  0  0  0  0  0  0  0  0  0
    0.5351   -0.1414   -1.3146 C   0  0  0  0  0  0  0  0  0  0  0  0
   -0.0482    0.5942   -1.8698 H   0  0  0  0  0  0  0  0  0  0  0  0
    1.5719    0.1962   -1.2983 H   0  0  0  0  0  0  0  0  0  0  0  0
    0.4469   -1.4551   -2.0857 C   0  0  0  0  0  0  0  0  0  0  0  0
    0.0481   -1.5806   -3.2361 O   0  0  0  0  0  0  0  0  0  0  0  0
    0.8455   -2.5413   -1.3978 O   0  0  0  0  0  0  0  0  0  0  0  0
    0.7573   -3.2805   -2.0002 H   0  0  0  0  0  0  0  0  0  0  0  0
   -0.1923    1.1526    0.7617 C   0  0  0  0  0  0  0  0  0  0  0  0
   -1.1582    1.8438    0.4410 O   0  0  0  0  0  0  0  0  0  0  0  0
    0.7203    1.5683    1.6472 N   0  0  0  0  0  0  0  0  0  0  0  0
    1.5210    0.9664    1.8100 H   0  0  0  0  0  0  0  0  0  0  0  0
    0.6747    2.8558    2.3368 C   0  0  0  0  0  0  0  0  0  0  0  0
   -0.3018    2.9877    2.8079 H   0  0  0  0  0  0  0  0  0  0  0  0
    1.4516    2.8997    3.1011 H   0  0  0  0  0  0  0  0  0  0  0  0
    0.8279    3.6639    1.6193 H   0  0  0  0  0  0  0  0  0  0  0  0
  5  6  2  0  0  0  0
  5  7  1  0  0  0  0
  2  3  1  0  0  0  0
  2  4  1  0  0  0  0
  2  5  1  0  0  0  0
  1  2  1  0  0  0  0
 18 19  2  0  0  0  0
 18 20  1  0  0  0  0
 16 17  1  0  0  0  0
 14 15  2  0  0  0  0
 14 16  1  0  0  0  0
 11 12  1  0  0  0  0
 11 13  1  0  0  0  0
 11 14  1  0  0  0  0
  9 10  1  0  0  0  0
  9 11  1  0  0  0  0
  9 18  1  0  0  0  0
  7  8  1  0  0  0  0
  7  9  1  0  0  0  0
 22 23  1  0  0  0  0
 22 24  1  0  0  0  0
 22 25  1  0  0  0  0
 20 21  1  0  0  0  0
 20 22  1  0  0  0  0
M  END
$$$$
default_name
  -OEChem-02102213163D

 25 24  0     1  0  0  0  0  0999 V2000
   -2.7826   -3.8464    0.7821 H   0  0  0  0  0  0  0  0  0  0  0  0
   -2.8156   -2.8034    0.4711 C   0  0  0  0  0  0  0  0  0  0  0  0
   -3.4336   -2.2354    1.1641 H   0  0  0  0  0  0  0  0  0  0  0  0
   -3.2256   -2.7344   -0.5349 H   0  0  0  0  0  0  0  0  0  0  0  0
   -1.4126   -2.2444    0.4801 C   0  0  0  0  0  0  0  0  0  0  0  0
   -0.4686   -2.9534    0.8001 O   0  0  0  0  0  0  0  0  0  0  0  0
   -1.2736   -0.9704    0.1241 N   0  0  0  0  0  0  0  0  0  0  0  0
   -2.0996   -0.4354   -0.1019 H   0  0  0  0  0  0  0  0  0  0  0  0
   -0.0016   -0.2394    0.1271 C   0  0  1  0  0  0  0  0  0  0  0  0
    0.7164   -0.7963    0.7332 H   0  0  0  0  0  0  0  0  0  0  0  0
    0.5351   -0.1414   -1.3146 C   0  0  0  0  0  0  0  0  0  0  0  0
   -0.0482    0.5942   -1.8698 H   0  0  0  0  0  0  0  0  0  0  0  0
    1.5719    0.1962   -1.2983 H   0  0  0  0  0  0  0  0  0  0  0  0
    0.4469   -1.4551   -2.0857 C   0  0  0  0  0  0  0  0  0  0  0  0
    0.3002   -1.5623   -3.2961 O   0  0  0  0  0  0  0  0  0  0  0  0
    0.5355   -2.5627   -1.3259 O   0  0  0  0  0  0  0  0  0  0  0  0
    0.4859   -3.3019   -1.9327 H   0  0  0  0  0  0  0  0  0  0  0  0
   -0.1923    1.1526    0.7617 C   0  0  0  0  0  0  0  0  0  0  0  0
   -1.1582    1.8438    0.4410 O   0  0  0  0  0  0  0  0  0  0  0  0
    0.7203    1.5683    1.6472 N   0  0  0  0  0  0  0  0  0  0  0  0
    1.5210    0.9664    1.8100 H   0  0  0  0  0  0  0  0  0  0  0  0
    0.6747    2.8558    2.3368 C   0  0  0  0  0  0  0  0  0  0  0  0
   -0.3018    2.9877    2.8079 H   0  0  0  0  0  0  0  0  0  0  0  0
    1.4516    2.8997    3.1011 H   0  0  0  0  0  0  0  0  0  0  0  0
    0.8279    3.6639    1.6193 H   0  0  0  0  0  0  0  0  0  0  0  0
  5  6  2  0  0  0  0
  5  7  1  0  0  0  0
  2  3  1  0  0  0  0
  2  4  1  0  0  0  0
  2  5  1  0  0  0  0
  1  2  1  0  0  0  0
 18 19  2  0  0  0  0
 18 20  1  0  0  0  0
 16 17  1  0  0  0  0
 14 15  2  0  0  0  0
 14 16  1  0  0  0  0
 11 12  1  0  0  0  0
 11 13  1  0  0  0  0
 11 14  1  0  0  0  0
  9 10  1  0  0  0  0
  9 11  1  0  0  0  0
  9 18  1  0  0  0  0
  7  8  1  0  0  0  0
  7  9  1  0  0  0  0
 22 23  1  0  0  0  0
 22 24  1  0  0  0  0
 22 25  1  0  0  0  0
 20 21  1  0  0  0  0
 20 22  1  0  0  0  0
M  END
$$$$
default_name
  -OEChem-02102213163D

 25 24  0     1  0  0  0  0  0999 V2000
   -2.7826   -3.8464    0.7821 H   0  0  0  0  0  0  0  0  0  0  0  0
   -2.8156   -2.8034    0.4711 C   0  0  0  0  0  0  0  0  0  0  0  0
   -3.4336   -2.2354    1.1641 H   0  0  0  0  0  0  0  0  0  0  0  0
   -3.2256   -2.7344   -0.5349 H   0  0  0  0  0  0  0  0  0  0  0  0
   -1.4126   -2.2444    0.4801 C   0  0  0  0  0  0  0  0  0  0  0  0
   -0.4686   -2.9534    0.8001 O   0  0  0  0  0  0  0  0  0  0  0  0
   -1.2736   -0.9704    0.1241 N   0  0  0  0  0  0  0  0  0  0  0  0
   -2.0996   -0.4354   -0.1019 H   0  0  0  0  0  0  0  0  0  0  0  0
   -0.0016   -0.2394    0.1271 C   0  0  1  0  0  0  0  0  0  0  0  0
    0.7164   -0.7963    0.7332 H   0  0  0  0  0  0  0  0  0  0  0  0
    0.5351   -0.1414   -1.3146 C   0  0  0  0  0  0  0  0  0  0  0  0
   -0.0482    0.5942   -1.8698 H   0  0  0  0  0  0  0  0  0  0  0  0
    1.5719    0.1962   -1.2983 H   0  0  0  0  0  0  0  0  0  0  0  0
    0.4469   -1.4551   -2.0857 C   0  0  0  0  0  0  0  0  0  0  0  0
    0.5596   -1.5785   -3.2982 O   0  0  0  0  0  0  0  0  0  0  0  0
    0.2171   -2.5417   -1.3252 O   0  0  0  0  0  0  0  0  0  0  0  0
    0.2060   -3.2861   -1.9276 H   0  0  0  0  0  0  0  0  0  0  0  0
   -0.1923    1.1526    0.7617 C   0  0  0  0  0  0  0  0  0  0  0  0
   -1.1582    1.8438    0.4410 O   0  0  0  0  0  0  0  0  0  0  0  0
    0.7203    1.5683    1.6472 N   0  0  0  0  0  0  0  0  0  0  0  0
    1.5210    0.9664    1.8100 H   0  0  0  0  0  0  0  0  0  0  0  0
    0.6747    2.8558    2.3368 C   0  0  0  0  0  0  0  0  0  0  0  0
   -0.3018    2.9877    2.8079 H   0  0  0  0  0  0  0  0  0  0  0  0
    1.4516    2.8997    3.1011 H   0  0  0  0  0  0  0  0  0  0  0  0
    0.8279    3.6639    1.6193 H   0  0  0  0  0  0  0  0  0  0  0  0
  5  6  2  0  0  0  0
  5  7  1  0  0  0  0
  2  3  1  0  0  0  0
  2  4  1  0  0  0  0
  2  5  1  0  0  0  0
  1  2  1  0  0  0  0
 18 19  2  0  0  0  0
 18 20  1  0  0  0  0
 16 17  1  0  0  0  0
 14 15  2  0  0  0  0
 14 16  1  0  0  0  0
 11 12  1  0  0  0  0
 11 13  1  0  0  0  0
 11 14  1  0  0  0  0
  9 10  1  0  0  0  0
  9 11  1  0  0  0  0
  9 18  1  0  0  0  0
  7  8  1  0  0  0  0
  7  9  1  0  0  0  0
 22 23  1  0  0  0  0
 22 24  1  0  0  0  0
 22 25  1  0  0  0  0
 20 21  1  0  0  0  0
 20 22  1  0  0  0  0
M  END
$$$$
default_name
  -OEChem-02102213163D

 25 24  0     1  0  0  0  0  0999 V2000
   -2.7826   -3.8464    0.7821 H   0  0  0  0  0  0  0  0  0  0  0  0
   -2.8156   -2.8034    0.4711 C   0  0  0  0  0  0  0  0  0  0  0  0
   -3.4336   -2.2354    1.1641 H   0  0  0  0  0  0  0  0  0  0  0  0
   -3.2256   -2.7344   -0.5349 H   0  0  0  0  0  0  0  0  0  0  0  0
   -1.4126   -2.2444    0.4801 C   0  0  0  0  0  0  0  0  0  0  0  0
   -0.4686   -2.9534    0.8001 O   0  0  0  0  0  0  0  0  0  0  0  0
   -1.2736   -0.9704    0.1241 N   0  0  0  0  0  0  0  0  0  0  0  0
   -2.0996   -0.4354   -0.1019 H   0  0  0  0  0  0  0  0  0  0  0  0
   -0.0016   -0.2394    0.1271 C   0  0  1  0  0  0  0  0  0  0  0  0
    0.7164   -0.7963    0.7332 H   0  0  0  0  0  0  0  0  0  0  0  0
    0.5351   -0.1414   -1.3146 C   0  0  0  0  0  0  0  0  0  0  0  0
    0.1449    0.7611   -1.7866 H   0  0  0  0  0  0  0  0  0  0  0  0
    1.6229   -0.0669   -1.2972 H   0  0  0  0  0  0  0  0  0  0  0  0
    0.1265   -1.3182   -2.1957 C   0  0  0  0  0  0  0  0  0  0  0  0
    0.4289   -1.4659   -3.3725 O   0  0  0  0  0  0  0  0  0  0  0  0
   -0.6373   -2.2427   -1.5842 O   0  0  0  0  0  0  0  0  0  0  0  0
   -0.8001   -2.9229   -2.2384 H   0  0  0  0  0  0  0  0  0  0  0  0
   -0.1923    1.1526    0.7617 C   0  0  0  0  0  0  0  0  0  0  0  0
   -1.1582    1.8438    0.4410 O   0  0  0  0  0  0  0  0  0  0  0  0
    0.7203    1.5683    1.6472 N   0  0  0  0  0  0  0  0  0  0  0  0
    1.5210    0.9664    1.8100 H   0  0  0  0  0  0  0  0  0  0  0  0
    0.6747    2.8558    2.3368 C   0  0  0  0  0  0  0  0  0  0  0  0
   -0.3018    2.9877    2.8079 H   0  0  0  0  0  0  0  0  0  0  0  0
    1.4516    2.8997    3.1011 H   0  0  0  0  0  0  0  0  0  0  0  0
    0.8279    3.6639    1.6193 H   0  0  0  0  0  0  0  0  0  0  0  0
  5  6  2  0  0  0  0
  5  7  1  0  0  0  0
  2  3  1  0  0  0  0
  2  4  1  0  0  0  0
  2  5  1  0  0  0  0
  1  2  1  0  0  0  0
 18 19  2  0  0  0  0
 18 20  1  0  0  0  0
 16 17  1  0  0  0  0
 14 15  2  0  0  0  0
 14 16  1  0  0  0  0
 11 12  1  0  0  0  0
 11 13  1  0  0  0  0
 11 14  1  0  0  0  0
  9 10  1  0  0  0  0
  9 11  1  0  0  0  0
  9 18  1  0  0  0  0
  7  8  1  0  0  0  0
  7  9  1  0  0  0  0
 22 23  1  0  0  0  0
 22 24  1  0  0  0  0
 22 25  1  0  0  0  0
 20 21  1  0  0  0  0
 20 22  1  0  0  0  0
M  END
$$$$
default_name
  -OEChem-02102213163D

 25 24  0     1  0  0  0  0  0999 V2000
   -2.7826   -3.8464    0.7821 H   0  0  0  0  0  0  0  0  0  0  0  0
   -2.8156   -2.8034    0.4711 C   0  0  0  0  0  0  0  0  0  0  0  0
   -3.4336   -2.2354    1.1641 H   0  0  0  0  0  0  0  0  0  0  0  0
   -3.2256   -2.7344   -0.5349 H   0  0  0  0  0  0  0  0  0  0  0  0
   -1.4126   -2.2444    0.4801 C   0  0  0  0  0  0  0  0  0  0  0  0
   -0.4686   -2.9534    0.8001 O   0  0  0  0  0  0  0  0  0  0  0  0
   -1.2736   -0.9704    0.1241 N   0  0  0  0  0  0  0  0  0  0  0  0
   -2.0996   -0.4354   -0.1019 H   0  0  0  0  0  0  0  0  0  0  0  0
   -0.0016   -0.2394    0.1271 C   0  0  1  0  0  0  0  0  0  0  0  0
    0.7164   -0.7963    0.7332 H   0  0  0  0  0  0  0  0  0  0  0  0
    0.5351   -0.1414   -1.3146 C   0  0  0  0  0  0  0  0  0  0  0  0
    0.1449    0.7611   -1.7866 H   0  0  0  0  0  0  0  0  0  0  0  0
    1.6229   -0.0669   -1.2972 H   0  0  0  0  0  0  0  0  0  0  0  0
    0.1265   -1.3182   -2.1957 C   0  0  0  0  0  0  0  0  0  0  0  0
    0.6249   -1.6064   -3.2758 O   0  0  0  0  0  0  0  0  0  0  0  0
   -0.8767   -2.0695   -1.7046 O   0  0  0  0  0  0  0  0  0  0  0  0
   -1.0137   -2.7724   -2.3404 H   0  0  0  0  0  0  0  0  0  0  0  0
   -0.1923    1.1526    0.7617 C   0  0  0  0  0  0  0  0  0  0  0  0
   -1.1582    1.8438    0.4410 O   0  0  0  0  0  0  0  0  0  0  0  0
    0.7203    1.5683    1.6472 N   0  0  0  0  0  0  0  0  0  0  0  0
    1.5210    0.9664    1.8100 H   0  0  0  0  0  0  0  0  0  0  0  0
    0.6747    2.8558    2.3368 C   0  0  0  0  0  0  0  0  0  0  0  0
   -0.3018    2.9877    2.8079 H   0  0  0  0  0  0  0  0  0  0  0  0
    1.4516    2.8997    3.1011 H   0  0  0  0  0  0  0  0  0  0  0  0
    0.8279    3.6639    1.6193 H   0  0  0  0  0  0  0  0  0  0  0  0
  5  6  2  0  0  0  0
  5  7  1  0  0  0  0
  2  3  1  0  0  0  0
  2  4  1  0  0  0  0
  2  5  1  0  0  0  0
  1  2  1  0  0  0  0
 18 19  2  0  0  0  0
 18 20  1  0  0  0  0
 16 17  1  0  0  0  0
 14 15  2  0  0  0  0
 14 16  1  0  0  0  0
 11 12  1  0  0  0  0
 11 13  1  0  0  0  0
 11 14  1  0  0  0  0
  9 10  1  0  0  0  0
  9 11  1  0  0  0  0
  9 18  1  0  0  0  0
  7  8  1  0  0  0  0
  7  9  1  0  0  0  0
 22 23  1  0  0  0  0
 22 24  1  0  0  0  0
 22 25  1  0  0  0  0
 20 21  1  0  0  0  0
 20 22  1  0  0  0  0
M  END
$$$$
default_name
  -OEChem-02102213163D

 25 24  0     1  0  0  0  0  0999 V2000
   -2.7826   -3.8464    0.7821 H   0  0  0  0  0  0  0  0  0  0  0  0
   -2.8156   -2.8034    0.4711 C   0  0  0  0  0  0  0  0  0  0  0  0
   -3.4336   -2.2354    1.1641 H   0  0  0  0  0  0  0  0  0  0  0  0
   -3.2256   -2.7344   -0.5349 H   0  0  0  0  0  0  0  0  0  0  0  0
   -1.4126   -2.2444    0.4801 C   0  0  0  0  0  0  0  0  0  0  0  0
   -0.4686   -2.9534    0.8001 O   0  0  0  0  0  0  0  0  0  0  0  0
   -1.2736   -0.9704    0.1241 N   0  0  0  0  0  0  0  0  0  0  0  0
   -2.0996   -0.4354   -0.1019 H   0  0  0  0  0  0  0  0  0  0  0  0
   -0.0016   -0.2394    0.1271 C   0  0  1  0  0  0  0  0  0  0  0  0
    0.7164   -0.7963    0.7332 H   0  0  0  0  0  0  0  0  0  0  0  0
    0.5351   -0.1414   -1.3146 C   0  0  0  0  0  0  0  0  0  0  0  0
    0.1449    0.7611   -1.7866 H   0  0  0  0  0  0  0  0  0  0  0  0
    1.6229   -0.0669   -1.2972 H   0  0  0  0  0  0  0  0  0  0  0  0
    0.1265   -1.3182   -2.1957 C   0  0  0  0  0  0  0  0  0  0  0  0
    0.7740   -1.7647   -3.1335 O   0  0  0  0  0  0  0  0  0  0  0  0
   -1.0580   -1.8748   -1.8806 O   0  0  0  0  0  0  0  0  0  0  0  0
   -1.1770   -2.6022   -2.4920 H   0  0  0  0  0  0  0  0  0  0  0  0
   -0.1923    1.1526    0.7617 C   0  0  0  0  0  0  0  0  0  0  0  0
   -1.1582    1.8438    0.4410 O   0  0  0  0  0  0  0  0  0  0  0  0
    0.7203    1.5683    1.6472 N   0  0  0  0  0  0  0  0  0  0  0  0
    1.5210    0.9664    1.8100 H   0  0  0  0  0  0  0  0  0  0  0  0
    0.6747    2.8558    2.3368 C   0  0  0  0  0  0  0  0  0  0  0  0
   -0.3018    2.9877    2.8079 H   0  0  0  0  0  0  0  0  0  0  0  0
    1.4516    2.8997    3.1011 H   0  0  0  0  0  0  0  0  0  0  0  0
    0.8279    3.6639    1.6193 H   0  0  0  0  0  0  0  0  0  0  0  0
  5  6  2  0  0  0  0
  5  7  1  0  0  0  0
  2  3  1  0  0  0  0
  2  4  1  0  0  0  0
  2  5  1  0  0  0  0
  1  2  1  0  0  0  0
 18 19  2  0  0  0  0
 18 20  1  0  0  0  0
 16 17  1  0  0  0  0
 14 15  2  0  0  0  0
 14 16  1  0  0  0  0
 11 12  1  0  0  0  0
 11 13  1  0  0  0  0
 11 14  1  0  0  0  0
  9 10  1  0  0  0  0
  9 11  1  0  0  0  0
  9 18  1  0  0  0  0
  7  8  1  0  0  0  0
  7  9  1  0  0  0  0
 22 23  1  0  0  0  0
 22 24  1  0  0  0  0
 22 25  1  0  0  0  0
 20 21  1  0  0  0  0
 20 22  1  0  0  0  0
M  END
$$$$
default_name
  -OEChem-02102213163D

 25 24  0     1  0  0  0  0  0999 V2000
   -2.7826   -3.8464    0.7821 H   0  0  0  0  0  0  0  0  0  0  0  0
   -2.8156   -2.8034    0.4711 C   0  0  0  0  0  0  0  0  0  0  0  0
   -3.4336   -2.2354    1.1641 H   0  0  0  0  0  0  0  0  0  0  0  0
   -3.2256   -2.7344   -0.5349 H   0  0  0  0  0  0  0  0  0  0  0  0
   -1.4126   -2.2444    0.4801 C   0  0  0  0  0  0  0  0  0  0  0  0
   -0.4686   -2.9534    0.8001 O   0  0  0  0  0  0  0  0  0  0  0  0
   -1.2736   -0.9704    0.1241 N   0  0  0  0  0  0  0  0  0  0  0  0
   -2.0996   -0.4354   -0.1019 H   0  0  0  0  0  0  0  0  0  0  0  0
   -0.0016   -0.2394    0.1271 C   0  0  1  0  0  0  0  0  0  0  0  0
    0.7164   -0.7963    0.7332 H   0  0  0  0  0  0  0  0  0  0  0  0
    0.5351   -0.1414   -1.3146 C   0  0  0  0  0  0  0  0  0  0  0  0
    0.1449    0.7611   -1.7866 H   0  0  0  0  0  0  0  0  0  0  0  0
    1.6229   -0.0669   -1.2972 H   0  0  0  0  0  0  0  0  0  0  0  0
    0.1265   -1.3182   -2.1957 C   0  0  0  0  0  0  0  0  0  0  0  0
    0.8659   -1.9299   -2.9554 O   0  0  0  0  0  0  0  0  0  0  0  0
   -1.1688   -1.6718   -2.1002 O   0  0  0  0  0  0  0  0  0  0  0  0
   -1.2792   -2.4239   -2.6828 H   0  0  0  0  0  0  0  0  0  0  0  0
   -0.1923    1.1526    0.7617 C   0  0  0  0  0  0  0  0  0  0  0  0
   -1.1582    1.8438    0.4410 O   0  0  0  0  0  0  0  0  0  0  0  0
    0.7203    1.5683    1.6472 N   0  0  0  0  0  0  0  0  0  0  0  0
    1.5210    0.9664    1.8100 H   0  0  0  0  0  0  0  0  0  0  0  0
    0.6747    2.8558    2.3368 C   0  0  0  0  0  0  0  0  0  0  0  0
   -0.3018    2.9877    2.8079 H   0  0  0  0  0  0  0  0  0  0  0  0
    1.4516    2.8997    3.1011 H   0  0  0  0  0  0  0  0  0  0  0  0
    0.8279    3.6639    1.6193 H   0  0  0  0  0  0  0  0  0  0  0  0
  5  6  2  0  0  0  0
  5  7  1  0  0  0  0
  2  3  1  0  0  0  0
  2  4  1  0  0  0  0
  2  5  1  0  0  0  0
  1  2  1  0  0  0  0
 18 19  2  0  0  0  0
 18 20  1  0  0  0  0
 16 17  1  0  0  0  0
 14 15  2  0  0  0  0
 14 16  1  0  0  0  0
 11 12  1  0  0  0  0
 11 13  1  0  0  0  0
 11 14  1  0  0  0  0
  9 10  1  0  0  0  0
  9 11  1  0  0  0  0
  9 18  1  0  0  0  0
  7  8  1  0  0  0  0
  7  9  1  0  0  0  0
 22 23  1  0  0  0  0
 22 24  1  0  0  0  0
 22 25  1  0  0  0  0
 20 21  1  0  0  0  0
 20 22  1  0  0  0  0
M  END
$$$$
default_name
  -OEChem-02102213163D

 25 24  0     1  0  0  0  0  0999 V2000
   -2.7826   -3.8464    0.7821 H   0  0  0  0  0  0  0  0  0  0  0  0
   -2.8156   -2.8034    0.4711 C   0  0  0  0  0  0  0  0  0  0  0  0
   -3.4336   -2.2354    1.1641 H   0  0  0  0  0  0  0  0  0  0  0  0
   -3.2256   -2.7344   -0.5349 H   0  0  0  0  0  0  0  0  0  0  0  0
   -1.4126   -2.2444    0.4801 C   0  0  0  0  0  0  0  0  0  0  0  0
   -0.4686   -2.9534    0.8001 O   0  0  0  0  0  0  0  0  0  0  0  0
   -1.2736   -0.9704    0.1241 N   0  0  0  0  0  0  0  0  0  0  0  0
   -2.0996   -0.4354   -0.1019 H   0  0  0  0  0  0  0  0  0  0  0  0
   -0.0016   -0.2394    0.1271 C   0  0  1  0  0  0  0  0  0  0  0  0
    0.7164   -0.7963    0.7332 H   0  0  0  0  0  0  0  0  0  0  0  0
    0.5351   -0.1414   -1.3146 C   0  0  0  0  0  0  0  0  0  0  0  0
    0.1449    0.7611   -1.7866 H   0  0  0  0  0  0  0  0  0  0  0  0
    1.6229   -0.0669   -1.2972 H   0  0  0  0  0  0  0  0  0  0  0  0
    0.1265   -1.3182   -2.1957 C   0  0  0  0  0  0  0  0  0  0  0  0
    0.8944   -2.0910   -2.7535 O   0  0  0  0  0  0  0  0  0  0  0  0
   -1.2018   -1.4744   -2.3487 O   0  0  0  0  0  0  0  0  0  0  0  0
   -1.3131   -2.2496   -2.8999 H   0  0  0  0  0  0  0  0  0  0  0  0
   -0.1923    1.1526    0.7617 C   0  0  0  0  0  0  0  0  0  0  0  0
   -1.1582    1.8438    0.4410 O   0  0  0  0  0  0  0  0  0  0  0  0
    0.7203    1.5683    1.6472 N   0  0  0  0  0  0  0  0  0  0  0  0
    1.5210    0.9664    1.8100 H   0  0  0  0  0  0  0  0  0  0  0  0
    0.6747    2.8558    2.3368 C   0  0  0  0  0  0  0  0  0  0  0  0
   -0.3018    2.9877    2.8079 H   0  0  0  0  0  0  0  0  0  0  0  0
    1.4516    2.8997    3.1011 H   0  0  0  0  0  0  0  0  0  0  0  0
    0.8279    3.6639    1.6193 H   0  0  0  0  0  0  0  0  0  0  0  0
  5  6  2  0  0  0  0
  5  7  1  0  0  0  0
  2  3  1  0  0  0  0
  2  4  1  0  0  0  0
  2  5  1  0  0  0  0
  1  2  1  0  0  0  0
 18 19  2  0  0  0  0
 18 20  1  0  0  0  0
 16 17  1  0  0  0  0
 14 15  2  0  0  0  0
 14 16  1  0  0  0  0
 11 12  1  0  0  0  0
 11 13  1  0  0  0  0
 11 14  1  0  0  0  0
  9 10  1  0  0  0  0
  9 11  1  0  0  0  0
  9 18  1  0  0  0  0
  7  8  1  0  0  0  0
  7  9  1  0  0  0  0
 22 23  1  0  0  0  0
 22 24  1  0  0  0  0
 22 25  1  0  0  0  0
 20 21  1  0  0  0  0
 20 22  1  0  0  0  0
M  END
$$$$
default_name
  -OEChem-02102213163D

 25 24  0     1  0  0  0  0  0999 V2000
   -2.7826   -3.8464    0.7821 H   0  0  0  0  0  0  0  0  0  0  0  0
   -2.8156   -2.8034    0.4711 C   0  0  0  0  0  0  0  0  0  0  0  0
   -3.4336   -2.2354    1.1641 H   0  0  0  0  0  0  0  0  0  0  0  0
   -3.2256   -2.7344   -0.5349 H   0  0  0  0  0  0  0  0  0  0  0  0
   -1.4126   -2.2444    0.4801 C   0  0  0  0  0  0  0  0  0  0  0  0
   -0.4686   -2.9534    0.8001 O   0  0  0  0  0  0  0  0  0  0  0  0
   -1.2736   -0.9704    0.1241 N   0  0  0  0  0  0  0  0  0  0  0  0
   -2.0996   -0.4354   -0.1019 H   0  0  0  0  0  0  0  0  0  0  0  0
   -0.0016   -0.2394    0.1271 C   0  0  1  0  0  0  0  0  0  0  0  0
    0.7164   -0.7963    0.7332 H   0  0  0  0  0  0  0  0  0  0  0  0
    0.5351   -0.1414   -1.3146 C   0  0  0  0  0  0  0  0  0  0  0  0
    0.1449    0.7611   -1.7866 H   0  0  0  0  0  0  0  0  0  0  0  0
    1.6229   -0.0669   -1.2972 H   0  0  0  0  0  0  0  0  0  0  0  0
    0.1265   -1.3182   -2.1957 C   0  0  0  0  0  0  0  0  0  0  0  0
    0.8576   -2.2368   -2.5417 O   0  0  0  0  0  0  0  0  0  0  0  0
   -1.1545   -1.2960   -2.6089 O   0  0  0  0  0  0  0  0  0  0  0  0
   -1.2764   -2.0912   -3.1284 H   0  0  0  0  0  0  0  0  0  0  0  0
   -0.1923    1.1526    0.7617 C   0  0  0  0  0  0  0  0  0  0  0  0
   -1.1582    1.8438    0.4410 O   0  0  0  0  0  0  0  0  0  0  0  0
    0.7203    1.5683    1.6472 N   0  0  0  0  0  0  0  0  0  0  0  0
    1.5210    0.9664    1.8100 H   0  0  0  0  0  0  0  0  0  0  0  0
    0.6747    2.8558    2.3368 C   0  0  0  0  0  0  0  0  0  0  0  0
   -0.3018    2.9877    2.8079 H   0  0  0  0  0  0  0  0  0  0  0  0
    1.4516    2.8997    3.1011 H   0  0  0  0  0  0  0  0  0  0  0  0
    0.8279    3.6639    1.6193 H   0  0  0  0  0  0  0  0  0  0  0  0
  5  6  2  0  0  0  0
  5  7  1  0  0  0  0
  2  3  1  0  0  0  0
  2  4  1  0  0  0  0
  2  5  1  0  0  0  0
  1  2  1  0  0  0  0
 18 19  2  0  0  0  0
 18 20  1  0  0  0  0
 16 17  1  0  0  0  0
 14 15  2  0  0  0  0
 14 16  1  0  0  0  0
 11 12  1  0  0  0  0
 11 13  1  0  0  0  0
 11 14  1  0  0  0  0
  9 10  1  0  0  0  0
  9 11  1  0  0  0  0
  9 18  1  0  0  0  0
  7  8  1  0  0  0  0
  7  9  1  0  0  0  0
 22 23  1  0  0  0  0
 22 24  1  0  0  0  0
 22 25  1  0  0  0  0
 20 21  1  0  0  0  0
 20 22  1  0  0  0  0
M  END
$$$$
default_name
  -OEChem-02102213163D

 25 24  0     1  0  0  0  0  0999 V2000
   -2.7826   -3.8464    0.7821 H   0  0  0  0  0  0  0  0  0  0  0  0
   -2.8156   -2.8034    0.4711 C   0  0  0  0  0  0  0  0  0  0  0  0
   -3.4336   -2.2354    1.1641 H   0  0  0  0  0  0  0  0  0  0  0  0
   -3.2256   -2.7344   -0.5349 H   0  0  0  0  0  0  0  0  0  0  0  0
   -1.4126   -2.2444    0.4801 C   0  0  0  0  0  0  0  0  0  0  0  0
   -0.4686   -2.9534    0.8001 O   0  0  0  0  0  0  0  0  0  0  0  0
   -1.2736   -0.9704    0.1241 N   0  0  0  0  0  0  0  0  0  0  0  0
   -2.0996   -0.4354   -0.1019 H   0  0  0  0  0  0  0  0  0  0  0  0
   -0.0016   -0.2394    0.1271 C   0  0  1  0  0  0  0  0  0  0  0  0
    0.7164   -0.7963    0.7332 H   0  0  0  0  0  0  0  0  0  0  0  0
    0.5351   -0.1414   -1.3146 C   0  0  0  0  0  0  0  0  0  0  0  0
    0.1449    0.7611   -1.7866 H   0  0  0  0  0  0  0  0  0  0  0  0
    1.6229   -0.0669   -1.2972 H   0  0  0  0  0  0  0  0  0  0  0  0
    0.1265   -1.3182   -2.1957 C   0  0  0  0  0  0  0  0  0  0  0  0
    0.7580   -2.3575   -2.3343 O   0  0  0  0  0  0  0  0  0  0  0  0
   -1.0302   -1.1488   -2.8631 O   0  0  0  0  0  0  0  0  0  0  0  0
   -1.1718   -1.9596   -3.3528 H   0  0  0  0  0  0  0  0  0  0  0  0
   -0.1923    1.1526    0.7617 C   0  0  0  0  0  0  0  0  0  0  0  0
   -1.1582    1.8438    0.4410 O   0  0  0  0  0  0  0  0  0  0  0  0
    0.7203    1.5683    1.6472 N   0  0  0  0  0  0  0  0  0  0  0  0
    1.5210    0.9664    1.8100 H   0  0  0  0  0  0  0  0  0  0  0  0
    0.6747    2.8558    2.3368 C   0  0  0  0  0  0  0  0  0  0  0  0
   -0.3018    2.9877    2.8079 H   0  0  0  0  0  0  0  0  0  0  0  0
    1.4516    2.8997    3.1011 H   0  0  0  0  0  0  0  0  0  0  0  0
    0.8279    3.6639    1.6193 H   0  0  0  0  0  0  0  0  0  0  0  0
  5  6  2  0  0  0  0
  5  7  1  0  0  0  0
  2  3  1  0  0  0  0
  2  4  1  0  0  0  0
  2  5  1  0  0  0  0
  1  2  1  0  0  0  0
 18 19  2  0  0  0  0
 18 20  1  0  0  0  0
 16 17  1  0  0  0  0
 14 15  2  0  0  0  0
 14 16  1  0  0  0  0
 11 12  1  0  0  0  0
 11 13  1  0  0  0  0
 11 14  1  0  0  0  0
  9 10  1  0  0  0  0
  9 11  1  0  0  0  0
  9 18  1  0  0  0  0
  7  8  1  0  0  0  0
  7  9  1  0  0  0  0
 22 23  1  0  0  0  0
 22 24  1  0  0  0  0
 22 25  1  0  0  0  0
 20 21  1  0  0  0  0
 20 22  1  0  0  0  0
M  END
$$$$
default_name
  -OEChem-02102213163D

 25 24  0     1  0  0  0  0  0999 V2000
   -2.7826   -3.8464    0.7821 H   0  0  0  0  0  0  0  0  0  0  0  0
   -2.8156   -2.8034    0.4711 C   0  0  0  0  0  0  0  0  0  0  0  0
   -3.4336   -2.2354    1.1641 H   0  0  0  0  0  0  0  0  0  0  0  0
   -3.2256   -2.7344   -0.5349 H   0  0  0  0  0  0  0  0  0  0  0  0
   -1.4126   -2.2444    0.4801 C   0  0  0  0  0  0  0  0  0  0  0  0
   -0.4686   -2.9534    0.8001 O   0  0  0  0  0  0  0  0  0  0  0  0
   -1.2736   -0.9704    0.1241 N   0  0  0  0  0  0  0  0  0  0  0  0
   -2.0996   -0.4354   -0.1019 H   0  0  0  0  0  0  0  0  0  0  0  0
   -0.0016   -0.2394    0.1271 C   0  0  1  0  0  0  0  0  0  0  0  0
    0.7164   -0.7963    0.7332 H   0  0  0  0  0  0  0  0  0  0  0  0
    0.5351   -0.1414   -1.3146 C   0  0  0  0  0  0  0  0  0  0  0  0
    0.1449    0.7611   -1.7866 H   0  0  0  0  0  0  0  0  0  0  0  0
    1.6229   -0.0669   -1.2972 H   0  0  0  0  0  0  0  0  0  0  0  0
    0.1265   -1.3182   -2.1957 C   0  0  0  0  0  0  0  0  0  0  0  0
    0.6023   -2.4448   -2.1455 O   0  0  0  0  0  0  0  0  0  0  0  0
   -0.8374   -1.0428   -3.0941 O   0  0  0  0  0  0  0  0  0  0  0  0
   -1.0062   -1.8636   -3.5578 H   0  0  0  0  0  0  0  0  0  0  0  0
   -0.1923    1.1526    0.7617 C   0  0  0  0  0  0  0  0  0  0  0  0
   -1.1582    1.8438    0.4410 O   0  0  0  0  0  0  0  0  0  0  0  0
    0.7203    1.5683    1.6472 N   0  0  0  0  0  0  0  0  0  0  0  0
    1.5210    0.9664    1.8100 H   0  0  0  0  0  0  0  0  0  0  0  0
    0.6747    2.8558    2.3368 C   0  0  0  0  0  0  0  0  0  0  0  0
   -0.3018    2.9877    2.8079 H   0  0  0  0  0  0  0  0  0  0  0  0
    1.4516    2.8997    3.1011 H   0  0  0  0  0  0  0  0  0  0  0  0
    0.8279    3.6639    1.6193 H   0  0  0  0  0  0  0  0  0  0  0  0
  5  6  2  0  0  0  0
  5  7  1  0  0  0  0
  2  3  1  0  0  0  0
  2  4  1  0  0  0  0
  2  5  1  0  0  0  0
  1  2  1  0  0  0  0
 18 19  2  0  0  0  0
 18 20  1  0  0  0  0
 16 17  1  0  0  0  0
 14 15  2  0  0  0  0
 14 16  1  0  0  0  0
 11 12  1  0  0  0  0
 11 13  1  0  0  0  0
 11 14  1  0  0  0  0
  9 10  1  0  0  0  0
  9 11  1  0  0  0  0
  9 18  1  0  0  0  0
  7  8  1  0  0  0  0
  7  9  1  0  0  0  0
 22 23  1  0  0  0  0
 22 24  1  0  0  0  0
 22 25  1  0  0  0  0
 20 21  1  0  0  0  0
 20 22  1  0  0  0  0
M  END
$$$$
default_name
  -OEChem-02102213163D

 25 24  0     1  0  0  0  0  0999 V2000
   -2.7826   -3.8464    0.7821 H   0  0  0  0  0  0  0  0  0  0  0  0
   -2.8156   -2.8034    0.4711 C   0  0  0  0  0  0  0  0  0  0  0  0
   -3.4336   -2.2354    1.1641 H   0  0  0  0  0  0  0  0  0  0  0  0
   -3.2256   -2.7344   -0.5349 H   0  0  0  0  0  0  0  0  0  0  0  0
   -1.4126   -2.2444    0.4801 C   0  0  0  0  0  0  0  0  0  0  0  0
   -0.4686   -2.9534    0.8001 O   0  0  0  0  0  0  0  0  0  0  0  0
   -1.2736   -0.9704    0.1241 N   0  0  0  0  0  0  0  0  0  0  0  0
   -2.0996   -0.4354   -0.1019 H   0  0  0  0  0  0  0  0  0  0  0  0
   -0.0016   -0.2394    0.1271 C   0  0  1  0  0  0  0  0  0  0  0  0
    0.7164   -0.7963    0.7332 H   0  0  0  0  0  0  0  0  0  0  0  0
    0.5351   -0.1414   -1.3146 C   0  0  0  0  0  0  0  0  0  0  0  0
    0.1449    0.7611   -1.7866 H   0  0  0  0  0  0  0  0  0  0  0  0
    1.6229   -0.0669   -1.2972 H   0  0  0  0  0  0  0  0  0  0  0  0
    0.1265   -1.3182   -2.1957 C   0  0  0  0  0  0  0  0  0  0  0  0
    0.4012   -2.4928   -1.9881 O   0  0  0  0  0  0  0  0  0  0  0  0
   -0.5892   -0.9852   -3.2861 O   0  0  0  0  0  0  0  0  0  0  0  0
   -0.7910   -1.8098   -3.7294 H   0  0  0  0  0  0  0  0  0  0  0  0
   -0.1923    1.1526    0.7617 C   0  0  0  0  0  0  0  0  0  0  0  0
   -1.1582    1.8438    0.4410 O   0  0  0  0  0  0  0  0  0  0  0  0
    0.7203    1.5683    1.6472 N   0  0  0  0  0  0  0  0  0  0  0  0
    1.5210    0.9664    1.8100 H   0  0  0  0  0  0  0  0  0  0  0  0
    0.6747    2.8558    2.3368 C   0  0  0  0  0  0  0  0  0  0  0  0
   -0.3018    2.9877    2.8079 H   0  0  0  0  0  0  0  0  0  0  0  0
    1.4516    2.8997    3.1011 H   0  0  0  0  0  0  0  0  0  0  0  0
    0.8279    3.6639    1.6193 H   0  0  0  0  0  0  0  0  0  0  0  0
  5  6  2  0  0  0  0
  5  7  1  0  0  0  0
  2  3  1  0  0  0  0
  2  4  1  0  0  0  0
  2  5  1  0  0  0  0
  1  2  1  0  0  0  0
 18 19  2  0  0  0  0
 18 20  1  0  0  0  0
 16 17  1  0  0  0  0
 14 15  2  0  0  0  0
 14 16  1  0  0  0  0
 11 12  1  0  0  0  0
 11 13  1  0  0  0  0
 11 14  1  0  0  0  0
  9 10  1  0  0  0  0
  9 11  1  0  0  0  0
  9 18  1  0  0  0  0
  7  8  1  0  0  0  0
  7  9  1  0  0  0  0
 22 23  1  0  0  0  0
 22 24  1  0  0  0  0
 22 25  1  0  0  0  0
 20 21  1  0  0  0  0
 20 22  1  0  0  0  0
M  END
$$$$
default_name
  -OEChem-02102213163D

 25 24  0     1  0  0  0  0  0999 V2000
   -2.7826   -3.8464    0.7821 H   0  0  0  0  0  0  0  0  0  0  0  0
   -2.8156   -2.8034    0.4711 C   0  0  0  0  0  0  0  0  0  0  0  0
   -3.4336   -2.2354    1.1641 H   0  0  0  0  0  0  0  0  0  0  0  0
   -3.2256   -2.7344   -0.5349 H   0  0  0  0  0  0  0  0  0  0  0  0
   -1.4126   -2.2444    0.4801 C   0  0  0  0  0  0  0  0  0  0  0  0
   -0.4686   -2.9534    0.8001 O   0  0  0  0  0  0  0  0  0  0  0  0
   -1.2736   -0.9704    0.1241 N   0  0  0  0  0  0  0  0  0  0  0  0
   -2.0996   -0.4354   -0.1019 H   0  0  0  0  0  0  0  0  0  0  0  0
   -0.0016   -0.2394    0.1271 C   0  0  1  0  0  0  0  0  0  0  0  0
    0.7164   -0.7963    0.7332 H   0  0  0  0  0  0  0  0  0  0  0  0
    0.5351   -0.1414   -1.3146 C   0  0  0  0  0  0  0  0  0  0  0  0
    0.1449    0.7611   -1.7866 H   0  0  0  0  0  0  0  0  0  0  0  0
    1.6229   -0.0669   -1.2972 H   0  0  0  0  0  0  0  0  0  0  0  0
    0.1265   -1.3182   -2.1957 C   0  0  0  0  0  0  0  0  0  0  0  0
    0.1683   -2.4982   -1.8730 O   0  0  0  0  0  0  0  0  0  0  0  0
   -0.3025   -0.9800   -3.4260 O   0  0  0  0  0  0  0  0  0  0  0  0
   -0.5409   -1.8019   -3.8559 H   0  0  0  0  0  0  0  0  0  0  0  0
   -0.1923    1.1526    0.7617 C   0  0  0  0  0  0  0  0  0  0  0  0
   -1.1582    1.8438    0.4410 O   0  0  0  0  0  0  0  0  0  0  0  0
    0.7203    1.5683    1.6472 N   0  0  0  0  0  0  0  0  0  0  0  0
    1.5210    0.9664    1.8100 H   0  0  0  0  0  0  0  0  0  0  0  0
    0.6747    2.8558    2.3368 C   0  0  0  0  0  0  0  0  0  0  0  0
   -0.3018    2.9877    2.8079 H   0  0  0  0  0  0  0  0  0  0  0  0
    1.4516    2.8997    3.1011 H   0  0  0  0  0  0  0  0  0  0  0  0
    0.8279    3.6639    1.6193 H   0  0  0  0  0  0  0  0  0  0  0  0
  5  6  2  0  0  0  0
  5  7  1  0  0  0  0
  2  3  1  0  0  0  0
  2  4  1  0  0  0  0
  2  5  1  0  0  0  0
  1  2  1  0  0  0  0
 18 19  2  0  0  0  0
 18 20  1  0  0  0  0
 16 17  1  0  0  0  0
 14 15  2  0  0  0  0
 14 16  1  0  0  0  0
 11 12  1  0  0  0  0
 11 13  1  0  0  0  0
 11 14  1  0  0  0  0
  9 10  1  0  0  0  0
  9 11  1  0  0  0  0
  9 18  1  0  0  0  0
  7  8  1  0  0  0  0
  7  9  1  0  0  0  0
 22 23  1  0  0  0  0
 22 24  1  0  0  0  0
 22 25  1  0  0  0  0
 20 21  1  0  0  0  0
 20 22  1  0  0  0  0
M  END
$$$$
default_name
  -OEChem-02102213163D

 25 24  0     1  0  0  0  0  0999 V2000
   -2.7826   -3.8464    0.7821 H   0  0  0  0  0  0  0  0  0  0  0  0
   -2.8156   -2.8034    0.4711 C   0  0  0  0  0  0  0  0  0  0  0  0
   -3.4336   -2.2354    1.1641 H   0  0  0  0  0  0  0  0  0  0  0  0
   -3.2256   -2.7344   -0.5349 H   0  0  0  0  0  0  0  0  0  0  0  0
   -1.4126   -2.2444    0.4801 C   0  0  0  0  0  0  0  0  0  0  0  0
   -0.4686   -2.9534    0.8001 O   0  0  0  0  0  0  0  0  0  0  0  0
   -1.2736   -0.9704    0.1241 N   0  0  0  0  0  0  0  0  0  0  0  0
   -2.0996   -0.4354   -0.1019 H   0  0  0  0  0  0  0  0  0  0  0  0
   -0.0016   -0.2394    0.1271 C   0  0  1  0  0  0  0  0  0  0  0  0
    0.7164   -0.7963    0.7332 H   0  0  0  0  0  0  0  0  0  0  0  0
    0.5351   -0.1414   -1.3146 C   0  0  0  0  0  0  0  0  0  0  0  0
    0.1449    0.7611   -1.7866 H   0  0  0  0  0  0  0  0  0  0  0  0
    1.6229   -0.0669   -1.2972 H   0  0  0  0  0  0  0  0  0  0  0  0
    0.1265   -1.3182   -2.1957 C   0  0  0  0  0  0  0  0  0  0  0  0
   -0.0804   -2.4606   -1.8078 O   0  0  0  0  0  0  0  0  0  0  0  0
    0.0031   -1.0276   -3.5042 O   0  0  0  0  0  0  0  0  0  0  0  0
   -0.2728   -1.8405   -3.9287 H   0  0  0  0  0  0  0  0  0  0  0  0
   -0.1923    1.1526    0.7617 C   0  0  0  0  0  0  0  0  0  0  0  0
   -1.1582    1.8438    0.4410 O   0  0  0  0  0  0  0  0  0  0  0  0
    0.7203    1.5683    1.6472 N   0  0  0  0  0  0  0  0  0  0  0  0
    1.5210    0.9664    1.8100 H   0  0  0  0  0  0  0  0  0  0  0  0
    0.6747    2.8558    2.3368 C   0  0  0  0  0  0  0  0  0  0  0  0
   -0.3018    2.9877    2.8079 H   0  0  0  0  0  0  0  0  0  0  0  0
    1.4516    2.8997    3.1011 H   0  0  0  0  0  0  0  0  0  0  0  0
    0.8279    3.6639    1.6193 H   0  0  0  0  0  0  0  0  0  0  0  0
  5  6  2  0  0  0  0
  5  7  1  0  0  0  0
  2  3  1  0  0  0  0
  2  4  1  0  0  0  0
  2  5  1  0  0  0  0
  1  2  1  0  0  0  0
 18 19  2  0  0  0  0
 18 20  1  0  0  0  0
 16 17  1  0  0  0  0
 14 15  2  0  0  0  0
 14 16  1  0  0  0  0
 11 12  1  0  0  0  0
 11 13  1  0  0  0  0
 11 14  1  0  0  0  0
  9 10  1  0  0  0  0
  9 11  1  0  0  0  0
  9 18  1  0  0  0  0
  7  8  1  0  0  0  0
  7  9  1  0  0  0  0
 22 23  1  0  0  0  0
 22 24  1  0  0  0  0
 22 25  1  0  0  0  0
 20 21  1  0  0  0  0
 20 22  1  0  0  0  0
M  END
$$$$
default_name
  -OEChem-02102213163D

 25 24  0     1  0  0  0  0  0999 V2000
   -2.7826   -3.8464    0.7821 H   0  0  0  0  0  0  0  0  0  0  0  0
   -2.8156   -2.8034    0.4711 C   0  0  0  0  0  0  0  0  0  0  0  0
   -3.4336   -2.2354    1.1641 H   0  0  0  0  0  0  0  0  0  0  0  0
   -3.2256   -2.7344   -0.5349 H   0  0  0  0  0  0  0  0  0  0  0  0
   -1.4126   -2.2444    0.4801 C   0  0  0  0  0  0  0  0  0  0  0  0
   -0.4686   -2.9534    0.8001 O   0  0  0  0  0  0  0  0  0  0  0  0
   -1.2736   -0.9704    0.1241 N   0  0  0  0  0  0  0  0  0  0  0  0
   -2.0996   -0.4354   -0.1019 H   0  0  0  0  0  0  0  0  0  0  0  0
   -0.0016   -0.2394    0.1271 C   0  0  1  0  0  0  0  0  0  0  0  0
    0.7164   -0.7963    0.7332 H   0  0  0  0  0  0  0  0  0  0  0  0
    0.5351   -0.1414   -1.3146 C   0  0  0  0  0  0  0  0  0  0  0  0
    0.1449    0.7611   -1.7866 H   0  0  0  0  0  0  0  0  0  0  0  0
    1.6229   -0.0669   -1.2972 H   0  0  0  0  0  0  0  0  0  0  0  0
    0.1265   -1.3182   -2.1957 C   0  0  0  0  0  0  0  0  0  0  0  0
   -0.3280   -2.3826   -1.7972 O   0  0  0  0  0  0  0  0  0  0  0  0
    0.3068   -1.1245   -3.5155 O   0  0  0  0  0  0  0  0  0  0  0  0
   -0.0051   -1.9229   -3.9429 H   0  0  0  0  0  0  0  0  0  0  0  0
   -0.1923    1.1526    0.7617 C   0  0  0  0  0  0  0  0  0  0  0  0
   -1.1582    1.8438    0.4410 O   0  0  0  0  0  0  0  0  0  0  0  0
    0.7203    1.5683    1.6472 N   0  0  0  0  0  0  0  0  0  0  0  0
    1.5210    0.9664    1.8100 H   0  0  0  0  0  0  0  0  0  0  0  0
    0.6747    2.8558    2.3368 C   0  0  0  0  0  0  0  0  0  0  0  0
   -0.3018    2.9877    2.8079 H   0  0  0  0  0  0  0  0  0  0  0  0
    1.4516    2.8997    3.1011 H   0  0  0  0  0  0  0  0  0  0  0  0
    0.8279    3.6639    1.6193 H   0  0  0  0  0  0  0  0  0  0  0  0
  5  6  2  0  0  0  0
  5  7  1  0  0  0  0
  2  3  1  0  0  0  0
  2  4  1  0  0  0  0
  2  5  1  0  0  0  0
  1  2  1  0  0  0  0
 18 19  2  0  0  0  0
 18 20  1  0  0  0  0
 16 17  1  0  0  0  0
 14 15  2  0  0  0  0
 14 16  1  0  0  0  0
 11 12  1  0  0  0  0
 11 13  1  0  0  0  0
 11 14  1  0  0  0  0
  9 10  1  0  0  0  0
  9 11  1  0  0  0  0
  9 18  1  0  0  0  0
  7  8  1  0  0  0  0
  7  9  1  0  0  0  0
 22 23  1  0  0  0  0
 22 24  1  0  0  0  0
 22 25  1  0  0  0  0
 20 21  1  0  0  0  0
 20 22  1  0  0  0  0
M  END
$$$$
default_name
  -OEChem-02102213163D

 25 24  0     1  0  0  0  0  0999 V2000
   -2.7826   -3.8464    0.7821 H   0  0  0  0  0  0  0  0  0  0  0  0
   -2.8156   -2.8034    0.4711 C   0  0  0  0  0  0  0  0  0  0  0  0
   -3.4336   -2.2354    1.1641 H   0  0  0  0  0  0  0  0  0  0  0  0
   -3.2256   -2.7344   -0.5349 H   0  0  0  0  0  0  0  0  0  0  0  0
   -1.4126   -2.2444    0.4801 C   0  0  0  0  0  0  0  0  0  0  0  0
   -0.4686   -2.9534    0.8001 O   0  0  0  0  0  0  0  0  0  0  0  0
   -1.2736   -0.9704    0.1241 N   0  0  0  0  0  0  0  0  0  0  0  0
   -2.0996   -0.4354   -0.1019 H   0  0  0  0  0  0  0  0  0  0  0  0
   -0.0016   -0.2394    0.1271 C   0  0  1  0  0  0  0  0  0  0  0  0
    0.7164   -0.7963    0.7332 H   0  0  0  0  0  0  0  0  0  0  0  0
    0.5351   -0.1414   -1.3146 C   0  0  0  0  0  0  0  0  0  0  0  0
    0.1449    0.7611   -1.7866 H   0  0  0  0  0  0  0  0  0  0  0  0
    1.6229   -0.0669   -1.2972 H   0  0  0  0  0  0  0  0  0  0  0  0
    0.1265   -1.3182   -2.1957 C   0  0  0  0  0  0  0  0  0  0  0  0
   -0.5576   -2.2695   -1.8417 O   0  0  0  0  0  0  0  0  0  0  0  0
    0.5879   -1.2644   -3.4591 O   0  0  0  0  0  0  0  0  0  0  0  0
    0.2440   -2.0434   -3.8974 H   0  0  0  0  0  0  0  0  0  0  0  0
   -0.1923    1.1526    0.7617 C   0  0  0  0  0  0  0  0  0  0  0  0
   -1.1582    1.8438    0.4410 O   0  0  0  0  0  0  0  0  0  0  0  0
    0.7203    1.5683    1.6472 N   0  0  0  0  0  0  0  0  0  0  0  0
    1.5210    0.9664    1.8100 H   0  0  0  0  0  0  0  0  0  0  0  0
    0.6747    2.8558    2.3368 C   0  0  0  0  0  0  0  0  0  0  0  0
   -0.3018    2.9877    2.8079 H   0  0  0  0  0  0  0  0  0  0  0  0
    1.4516    2.8997    3.1011 H   0  0  0  0  0  0  0  0  0  0  0  0
    0.8279    3.6639    1.6193 H   0  0  0  0  0  0  0  0  0  0  0  0
  5  6  2  0  0  0  0
  5  7  1  0  0  0  0
  2  3  1  0  0  0  0
  2  4  1  0  0  0  0
  2  5  1  0  0  0  0
  1  2  1  0  0  0  0
 18 19  2  0  0  0  0
 18 20  1  0  0  0  0
 16 17  1  0  0  0  0
 14 15  2  0  0  0  0
 14 16  1  0  0  0  0
 11 12  1  0  0  0  0
 11 13  1  0  0  0  0
 11 14  1  0  0  0  0
  9 10  1  0  0  0  0
  9 11  1  0  0  0  0
  9 18  1  0  0  0  0
  7  8  1  0  0  0  0
  7  9  1  0  0  0  0
 22 23  1  0  0  0  0
 22 24  1  0  0  0  0
 22 25  1  0  0  0  0
 20 21  1  0  0  0  0
 20 22  1  0  0  0  0
M  END
$$$$
default_name
  -OEChem-02102213163D

 25 24  0     1  0  0  0  0  0999 V2000
   -2.7826   -3.8464    0.7821 H   0  0  0  0  0  0  0  0  0  0  0  0
   -2.8156   -2.8034    0.4711 C   0  0  0  0  0  0  0  0  0  0  0  0
   -3.4336   -2.2354    1.1641 H   0  0  0  0  0  0  0  0  0  0  0  0
   -3.2256   -2.7344   -0.5349 H   0  0  0  0  0  0  0  0  0  0  0  0
   -1.4126   -2.2444    0.4801 C   0  0  0  0  0  0  0  0  0  0  0  0
   -0.4686   -2.9534    0.8001 O   0  0  0  0  0  0  0  0  0  0  0  0
   -1.2736   -0.9704    0.1241 N   0  0  0  0  0  0  0  0  0  0  0  0
   -2.0996   -0.4354   -0.1019 H   0  0  0  0  0  0  0  0  0  0  0  0
   -0.0016   -0.2394    0.1271 C   0  0  1  0  0  0  0  0  0  0  0  0
    0.7164   -0.7963    0.7332 H   0  0  0  0  0  0  0  0  0  0  0  0
    0.5351   -0.1414   -1.3146 C   0  0  0  0  0  0  0  0  0  0  0  0
    0.1449    0.7611   -1.7866 H   0  0  0  0  0  0  0  0  0  0  0  0
    1.6229   -0.0669   -1.2972 H   0  0  0  0  0  0  0  0  0  0  0  0
    0.1265   -1.3182   -2.1957 C   0  0  0  0  0  0  0  0  0  0  0  0
   -0.7537   -2.1290   -1.9384 O   0  0  0  0  0  0  0  0  0  0  0  0
    0.8272   -1.4376   -3.3387 O   0  0  0  0  0  0  0  0  0  0  0  0
    0.4575   -2.1939   -3.7954 H   0  0  0  0  0  0  0  0  0  0  0  0
   -0.1923    1.1526    0.7617 C   0  0  0  0  0  0  0  0  0  0  0  0
   -1.1582    1.8438    0.4410 O   0  0  0  0  0  0  0  0  0  0  0  0
    0.7203    1.5683    1.6472 N   0  0  0  0  0  0  0  0  0  0  0  0
    1.5210    0.9664    1.8100 H   0  0  0  0  0  0  0  0  0  0  0  0
    0.6747    2.8558    2.3368 C   0  0  0  0  0  0  0  0  0  0  0  0
   -0.3018    2.9877    2.8079 H   0  0  0  0  0  0  0  0  0  0  0  0
    1.4516    2.8997    3.1011 H   0  0  0  0  0  0  0  0  0  0  0  0
    0.8279    3.6639    1.6193 H   0  0  0  0  0  0  0  0  0  0  0  0
  5  6  2  0  0  0  0
  5  7  1  0  0  0  0
  2  3  1  0  0  0  0
  2  4  1  0  0  0  0
  2  5  1  0  0  0  0
  1  2  1  0  0  0  0
 18 19  2  0  0  0  0
 18 20  1  0  0  0  0
 16 17  1  0  0  0  0
 14 15  2  0  0  0  0
 14 16  1  0  0  0  0
 11 12  1  0  0  0  0
 11 13  1  0  0  0  0
 11 14  1  0  0  0  0
  9 10  1  0  0  0  0
  9 11  1  0  0  0  0
  9 18  1  0  0  0  0
  7  8  1  0  0  0  0
  7  9  1  0  0  0  0
 22 23  1  0  0  0  0
 22 24  1  0  0  0  0
 22 25  1  0  0  0  0
 20 21  1  0  0  0  0
 20 22  1  0  0  0  0
M  END
$$$$
default_name
  -OEChem-02102213163D

 25 24  0     1  0  0  0  0  0999 V2000
   -2.7826   -3.8464    0.7821 H   0  0  0  0  0  0  0  0  0  0  0  0
   -2.8156   -2.8034    0.4711 C   0  0  0  0  0  0  0  0  0  0  0  0
   -3.4336   -2.2354    1.1641 H   0  0  0  0  0  0  0  0  0  0  0  0
   -3.2256   -2.7344   -0.5349 H   0  0  0  0  0  0  0  0  0  0  0  0
   -1.4126   -2.2444    0.4801 C   0  0  0  0  0  0  0  0  0  0  0  0
   -0.4686   -2.9534    0.8001 O   0  0  0  0  0  0  0  0  0  0  0  0
   -1.2736   -0.9704    0.1241 N   0  0  0  0  0  0  0  0  0  0  0  0
   -2.0996   -0.4354   -0.1019 H   0  0  0  0  0  0  0  0  0  0  0  0
   -0.0016   -0.2394    0.1271 C   0  0  1  0  0  0  0  0  0  0  0  0
    0.7164   -0.7963    0.7332 H   0  0  0  0  0  0  0  0  0  0  0  0
    0.5351   -0.1414   -1.3146 C   0  0  0  0  0  0  0  0  0  0  0  0
    0.1449    0.7611   -1.7866 H   0  0  0  0  0  0  0  0  0  0  0  0
    1.6229   -0.0669   -1.2972 H   0  0  0  0  0  0  0  0  0  0  0  0
    0.1265   -1.3182   -2.1957 C   0  0  0  0  0  0  0  0  0  0  0  0
   -0.9027   -1.9707   -2.0807 O   0  0  0  0  0  0  0  0  0  0  0  0
    1.0085   -1.6323   -3.1627 O   0  0  0  0  0  0  0  0  0  0  0  0
    0.6209   -2.3641   -3.6439 H   0  0  0  0  0  0  0  0  0  0  0  0
   -0.1923    1.1526    0.7617 C   0  0  0  0  0  0  0  0  0  0  0  0
   -1.1582    1.8438    0.4410 O   0  0  0  0  0  0  0  0  0  0  0  0
    0.7203    1.5683    1.6472 N   0  0  0  0  0  0  0  0  0  0  0  0
    1.5210    0.9664    1.8100 H   0  0  0  0  0  0  0  0  0  0  0  0
    0.6747    2.8558    2.3368 C   0  0  0  0  0  0  0  0  0  0  0  0
   -0.3018    2.9877    2.8079 H   0  0  0  0  0  0  0  0  0  0  0  0
    1.4516    2.8997    3.1011 H   0  0  0  0  0  0  0  0  0  0  0  0
    0.8279    3.6639    1.6193 H   0  0  0  0  0  0  0  0  0  0  0  0
  5  6  2  0  0  0  0
  5  7  1  0  0  0  0
  2  3  1  0  0  0  0
  2  4  1  0  0  0  0
  2  5  1  0  0  0  0
  1  2  1  0  0  0  0
 18 19  2  0  0  0  0
 18 20  1  0  0  0  0
 16 17  1  0  0  0  0
 14 15  2  0  0  0  0
 14 16  1  0  0  0  0
 11 12  1  0  0  0  0
 11 13  1  0  0  0  0
 11 14  1  0  0  0  0
  9 10  1  0  0  0  0
  9 11  1  0  0  0  0
  9 18  1  0  0  0  0
  7  8  1  0  0  0  0
  7  9  1  0  0  0  0
 22 23  1  0  0  0  0
 22 24  1  0  0  0  0
 22 25  1  0  0  0  0
 20 21  1  0  0  0  0
 20 22  1  0  0  0  0
M  END
$$$$
default_name
  -OEChem-02102213163D

 25 24  0     1  0  0  0  0  0999 V2000
   -2.7826   -3.8464    0.7821 H   0  0  0  0  0  0  0  0  0  0  0  0
   -2.8156   -2.8034    0.4711 C   0  0  0  0  0  0  0  0  0  0  0  0
   -3.4336   -2.2354    1.1641 H   0  0  0  0  0  0  0  0  0  0  0  0
   -3.2256   -2.7344   -0.5349 H   0  0  0  0  0  0  0  0  0  0  0  0
   -1.4126   -2.2444    0.4801 C   0  0  0  0  0  0  0  0  0  0  0  0
   -0.4686   -2.9534    0.8001 O   0  0  0  0  0  0  0  0  0  0  0  0
   -1.2736   -0.9704    0.1241 N   0  0  0  0  0  0  0  0  0  0  0  0
   -2.0996   -0.4354   -0.1019 H   0  0  0  0  0  0  0  0  0  0  0  0
   -0.0016   -0.2394    0.1271 C   0  0  1  0  0  0  0  0  0  0  0  0
    0.7164   -0.7963    0.7332 H   0  0  0  0  0  0  0  0  0  0  0  0
    0.5351   -0.1414   -1.3146 C   0  0  0  0  0  0  0  0  0  0  0  0
    0.1449    0.7611   -1.7866 H   0  0  0  0  0  0  0  0  0  0  0  0
    1.6229   -0.0669   -1.2972 H   0  0  0  0  0  0  0  0  0  0  0  0
    0.1265   -1.3182   -2.1957 C   0  0  0  0  0  0  0  0  0  0  0  0
   -0.9946   -1.8055   -2.2588 O   0  0  0  0  0  0  0  0  0  0  0  0
    1.1194   -1.8353   -2.9430 O   0  0  0  0  0  0  0  0  0  0  0  0
    0.7230   -2.5424   -3.4530 H   0  0  0  0  0  0  0  0  0  0  0  0
   -0.1923    1.1526    0.7617 C   0  0  0  0  0  0  0  0  0  0  0  0
   -1.1582    1.8438    0.4410 O   0  0  0  0  0  0  0  0  0  0  0  0
    0.7203    1.5683    1.6472 N   0  0  0  0  0  0  0  0  0  0  0  0
    1.5210    0.9664    1.8100 H   0  0  0  0  0  0  0  0  0  0  0  0
    0.6747    2.8558    2.3368 C   0  0  0  0  0  0  0  0  0  0  0  0
   -0.3018    2.9877    2.8079 H   0  0  0  0  0  0  0  0  0  0  0  0
    1.4516    2.8997    3.1011 H   0  0  0  0  0  0  0  0  0  0  0  0
    0.8279    3.6639    1.6193 H   0  0  0  0  0  0  0  0  0  0  0  0
  5  6  2  0  0  0  0
  5  7  1  0  0  0  0
  2  3  1  0  0  0  0
  2  4  1  0  0  0  0
  2  5  1  0  0  0  0
  1  2  1  0  0  0  0
 18 19  2  0  0  0  0
 18 20  1  0  0  0  0
 16 17  1  0  0  0  0
 14 15  2  0  0  0  0
 14 16  1  0  0  0  0
 11 12  1  0  0  0  0
 11 13  1  0  0  0  0
 11 14  1  0  0  0  0
  9 10  1  0  0  0  0
  9 11  1  0  0  0  0
  9 18  1  0  0  0  0
  7  8  1  0  0  0  0
  7  9  1  0  0  0  0
 22 23  1  0  0  0  0
 22 24  1  0  0  0  0
 22 25  1  0  0  0  0
 20 21  1  0  0  0  0
 20 22  1  0  0  0  0
M  END
$$$$
default_name
  -OEChem-02102213163D

 25 24  0     1  0  0  0  0  0999 V2000
   -2.7826   -3.8464    0.7821 H   0  0  0  0  0  0  0  0  0  0  0  0
   -2.8156   -2.8034    0.4711 C   0  0  0  0  0  0  0  0  0  0  0  0
   -3.4336   -2.2354    1.1641 H   0  0  0  0  0  0  0  0  0  0  0  0
   -3.2256   -2.7344   -0.5349 H   0  0  0  0  0  0  0  0  0  0  0  0
   -1.4126   -2.2444    0.4801 C   0  0  0  0  0  0  0  0  0  0  0  0
   -0.4686   -2.9534    0.8001 O   0  0  0  0  0  0  0  0  0  0  0  0
   -1.2736   -0.9704    0.1241 N   0  0  0  0  0  0  0  0  0  0  0  0
   -2.0996   -0.4354   -0.1019 H   0  0  0  0  0  0  0  0  0  0  0  0
   -0.0016   -0.2394    0.1271 C   0  0  1  0  0  0  0  0  0  0  0  0
    0.7164   -0.7963    0.7332 H   0  0  0  0  0  0  0  0  0  0  0  0
    0.5351   -0.1414   -1.3146 C   0  0  0  0  0  0  0  0  0  0  0  0
    0.1449    0.7611   -1.7866 H   0  0  0  0  0  0  0  0  0  0  0  0
    1.6229   -0.0669   -1.2972 H   0  0  0  0  0  0  0  0  0  0  0  0
    0.1265   -1.3182   -2.1957 C   0  0  0  0  0  0  0  0  0  0  0  0
   -1.0231   -1.6444   -2.4607 O   0  0  0  0  0  0  0  0  0  0  0  0
    1.1523   -2.0327   -2.6946 O   0  0  0  0  0  0  0  0  0  0  0  0
    0.7569   -2.7167   -3.2360 H   0  0  0  0  0  0  0  0  0  0  0  0
   -0.1923    1.1526    0.7617 C   0  0  0  0  0  0  0  0  0  0  0  0
   -1.1582    1.8438    0.4410 O   0  0  0  0  0  0  0  0  0  0  0  0
    0.7203    1.5683    1.6472 N   0  0  0  0  0  0  0  0  0  0  0  0
    1.5210    0.9664    1.8100 H   0  0  0  0  0  0  0  0  0  0  0  0
    0.6747    2.8558    2.3368 C   0  0  0  0  0  0  0  0  0  0  0  0
   -0.3018    2.9877    2.8079 H   0  0  0  0  0  0  0  0  0  0  0  0
    1.4516    2.8997    3.1011 H   0  0  0  0  0  0  0  0  0  0  0  0
    0.8279    3.6639    1.6193 H   0  0  0  0  0  0  0  0  0  0  0  0
  5  6  2  0  0  0  0
  5  7  1  0  0  0  0
  2  3  1  0  0  0  0
  2  4  1  0  0  0  0
  2  5  1  0  0  0  0
  1  2  1  0  0  0  0
 18 19  2  0  0  0  0
 18 20  1  0  0  0  0
 16 17  1  0  0  0  0
 14 15  2  0  0  0  0
 14 16  1  0  0  0  0
 11 12  1  0  0  0  0
 11 13  1  0  0  0  0
 11 14  1  0  0  0  0
  9 10  1  0  0  0  0
  9 11  1  0  0  0  0
  9 18  1  0  0  0  0
  7  8  1  0  0  0  0
  7  9  1  0  0  0  0
 22 23  1  0  0  0  0
 22 24  1  0  0  0  0
 22 25  1  0  0  0  0
 20 21  1  0  0  0  0
 20 22  1  0  0  0  0
M  END
$$$$
default_name
  -OEChem-02102213163D

 25 24  0     1  0  0  0  0  0999 V2000
   -2.7826   -3.8464    0.7821 H   0  0  0  0  0  0  0  0  0  0  0  0
   -2.8156   -2.8034    0.4711 C   0  0  0  0  0  0  0  0  0  0  0  0
   -3.4336   -2.2354    1.1641 H   0  0  0  0  0  0  0  0  0  0  0  0
   -3.2256   -2.7344   -0.5349 H   0  0  0  0  0  0  0  0  0  0  0  0
   -1.4126   -2.2444    0.4801 C   0  0  0  0  0  0  0  0  0  0  0  0
   -0.4686   -2.9534    0.8001 O   0  0  0  0  0  0  0  0  0  0  0  0
   -1.2736   -0.9704    0.1241 N   0  0  0  0  0  0  0  0  0  0  0  0
   -2.0996   -0.4354   -0.1019 H   0  0  0  0  0  0  0  0  0  0  0  0
   -0.0016   -0.2394    0.1271 C   0  0  1  0  0  0  0  0  0  0  0  0
    0.7164   -0.7963    0.7332 H   0  0  0  0  0  0  0  0  0  0  0  0
    0.5351   -0.1414   -1.3146 C   0  0  0  0  0  0  0  0  0  0  0  0
    0.1449    0.7611   -1.7866 H   0  0  0  0  0  0  0  0  0  0  0  0
    1.6229   -0.0669   -1.2972 H   0  0  0  0  0  0  0  0  0  0  0  0
    0.1265   -1.3182   -2.1957 C   0  0  0  0  0  0  0  0  0  0  0  0
   -0.9863   -1.4986   -2.6725 O   0  0  0  0  0  0  0  0  0  0  0  0
    1.1050   -2.2111   -2.4344 O   0  0  0  0  0  0  0  0  0  0  0  0
    0.7203   -2.8751   -3.0075 H   0  0  0  0  0  0  0  0  0  0  0  0
   -0.1923    1.1526    0.7617 C   0  0  0  0  0  0  0  0  0  0  0  0
   -1.1582    1.8438    0.4410 O   0  0  0  0  0  0  0  0  0  0  0  0
    0.7203    1.5683    1.6472 N   0  0  0  0  0  0  0  0  0  0  0  0
    1.5210    0.9664    1.8100 H   0  0  0  0  0  0  0  0  0  0  0  0
    0.6747    2.8558    2.3368 C   0  0  0  0  0  0  0  0  0  0  0  0
   -0.3018    2.9877    2.8079 H   0  0  0  0  0  0  0  0  0  0  0  0
    1.4516    2.8997    3.1011 H   0  0  0  0  0  0  0  0  0  0  0  0
    0.8279    3.6639    1.6193 H   0  0  0  0  0  0  0  0  0  0  0  0
  5  6  2  0  0  0  0
  5  7  1  0  0  0  0
  2  3  1  0  0  0  0
  2  4  1  0  0  0  0
  2  5  1  0  0  0  0
  1  2  1  0  0  0  0
 18 19  2  0  0  0  0
 18 20  1  0  0  0  0
 16 17  1  0  0  0  0
 14 15  2  0  0  0  0
 14 16  1  0  0  0  0
 11 12  1  0  0  0  0
 11 13  1  0  0  0  0
 11 14  1  0  0  0  0
  9 10  1  0  0  0  0
  9 11  1  0  0  0  0
  9 18  1  0  0  0  0
  7  8  1  0  0  0  0
  7  9  1  0  0  0  0
 22 23  1  0  0  0  0
 22 24  1  0  0  0  0
 22 25  1  0  0  0  0
 20 21  1  0  0  0  0
 20 22  1  0  0  0  0
M  END
$$$$
default_name
  -OEChem-02102213163D

 25 24  0     1  0  0  0  0  0999 V2000
   -2.7826   -3.8464    0.7821 H   0  0  0  0  0  0  0  0  0  0  0  0
   -2.8156   -2.8034    0.4711 C   0  0  0  0  0  0  0  0  0  0  0  0
   -3.4336   -2.2354    1.1641 H   0  0  0  0  0  0  0  0  0  0  0  0
   -3.2256   -2.7344   -0.5349 H   0  0  0  0  0  0  0  0  0  0  0  0
   -1.4126   -2.2444    0.4801 C   0  0  0  0  0  0  0  0  0  0  0  0
   -0.4686   -2.9534    0.8001 O   0  0  0  0  0  0  0  0  0  0  0  0
   -1.2736   -0.9704    0.1241 N   0  0  0  0  0  0  0  0  0  0  0  0
   -2.0996   -0.4354   -0.1019 H   0  0  0  0  0  0  0  0  0  0  0  0
   -0.0016   -0.2394    0.1271 C   0  0  1  0  0  0  0  0  0  0  0  0
    0.7164   -0.7963    0.7332 H   0  0  0  0  0  0  0  0  0  0  0  0
    0.5351   -0.1414   -1.3146 C   0  0  0  0  0  0  0  0  0  0  0  0
    0.1449    0.7611   -1.7866 H   0  0  0  0  0  0  0  0  0  0  0  0
    1.6229   -0.0669   -1.2972 H   0  0  0  0  0  0  0  0  0  0  0  0
    0.1265   -1.3182   -2.1957 C   0  0  0  0  0  0  0  0  0  0  0  0
   -0.8867   -1.3779   -2.8799 O   0  0  0  0  0  0  0  0  0  0  0  0
    0.9807   -2.3583   -2.1802 O   0  0  0  0  0  0  0  0  0  0  0  0
    0.6156   -3.0068   -2.7831 H   0  0  0  0  0  0  0  0  0  0  0  0
   -0.1923    1.1526    0.7617 C   0  0  0  0  0  0  0  0  0  0  0  0
   -1.1582    1.8438    0.4410 O   0  0  0  0  0  0  0  0  0  0  0  0
    0.7203    1.5683    1.6472 N   0  0  0  0  0  0  0  0  0  0  0  0
    1.5210    0.9664    1.8100 H   0  0  0  0  0  0  0  0  0  0  0  0
    0.6747    2.8558    2.3368 C   0  0  0  0  0  0  0  0  0  0  0  0
   -0.3018    2.9877    2.8079 H   0  0  0  0  0  0  0  0  0  0  0  0
    1.4516    2.8997    3.1011 H   0  0  0  0  0  0  0  0  0  0  0  0
    0.8279    3.6639    1.6193 H   0  0  0  0  0  0  0  0  0  0  0  0
  5  6  2  0  0  0  0
  5  7  1  0  0  0  0
  2  3  1  0  0  0  0
  2  4  1  0  0  0  0
  2  5  1  0  0  0  0
  1  2  1  0  0  0  0
 18 19  2  0  0  0  0
 18 20  1  0  0  0  0
 16 17  1  0  0  0  0
 14 15  2  0  0  0  0
 14 16  1  0  0  0  0
 11 12  1  0  0  0  0
 11 13  1  0  0  0  0
 11 14  1  0  0  0  0
  9 10  1  0  0  0  0
  9 11  1  0  0  0  0
  9 18  1  0  0  0  0
  7  8  1  0  0  0  0
  7  9  1  0  0  0  0
 22 23  1  0  0  0  0
 22 24  1  0  0  0  0
 22 25  1  0  0  0  0
 20 21  1  0  0  0  0
 20 22  1  0  0  0  0
M  END
$$$$
default_name
  -OEChem-02102213163D

 25 24  0     1  0  0  0  0  0999 V2000
   -2.7826   -3.8464    0.7821 H   0  0  0  0  0  0  0  0  0  0  0  0
   -2.8156   -2.8034    0.4711 C   0  0  0  0  0  0  0  0  0  0  0  0
   -3.4336   -2.2354    1.1641 H   0  0  0  0  0  0  0  0  0  0  0  0
   -3.2256   -2.7344   -0.5349 H   0  0  0  0  0  0  0  0  0  0  0  0
   -1.4126   -2.2444    0.4801 C   0  0  0  0  0  0  0  0  0  0  0  0
   -0.4686   -2.9534    0.8001 O   0  0  0  0  0  0  0  0  0  0  0  0
   -1.2736   -0.9704    0.1241 N   0  0  0  0  0  0  0  0  0  0  0  0
   -2.0996   -0.4354   -0.1019 H   0  0  0  0  0  0  0  0  0  0  0  0
   -0.0016   -0.2394    0.1271 C   0  0  1  0  0  0  0  0  0  0  0  0
    0.7164   -0.7963    0.7332 H   0  0  0  0  0  0  0  0  0  0  0  0
    0.5351   -0.1414   -1.3146 C   0  0  0  0  0  0  0  0  0  0  0  0
    0.1449    0.7611   -1.7866 H   0  0  0  0  0  0  0  0  0  0  0  0
    1.6229   -0.0669   -1.2972 H   0  0  0  0  0  0  0  0  0  0  0  0
    0.1265   -1.3182   -2.1957 C   0  0  0  0  0  0  0  0  0  0  0  0
   -0.7310   -1.2906   -3.0687 O   0  0  0  0  0  0  0  0  0  0  0  0
    0.7879   -2.4643   -1.9492 O   0  0  0  0  0  0  0  0  0  0  0  0
    0.4500   -3.1028   -2.5781 H   0  0  0  0  0  0  0  0  0  0  0  0
   -0.1923    1.1526    0.7617 C   0  0  0  0  0  0  0  0  0  0  0  0
   -1.1582    1.8438    0.4410 O   0  0  0  0  0  0  0  0  0  0  0  0
    0.7203    1.5683    1.6472 N   0  0  0  0  0  0  0  0  0  0  0  0
    1.5210    0.9664    1.8100 H   0  0  0  0  0  0  0  0  0  0  0  0
    0.6747    2.8558    2.3368 C   0  0  0  0  0  0  0  0  0  0  0  0
   -0.3018    2.9877    2.8079 H   0  0  0  0  0  0  0  0  0  0  0  0
    1.4516    2.8997    3.1011 H   0  0  0  0  0  0  0  0  0  0  0  0
    0.8279    3.6639    1.6193 H   0  0  0  0  0  0  0  0  0  0  0  0
  5  6  2  0  0  0  0
  5  7  1  0  0  0  0
  2  3  1  0  0  0  0
  2  4  1  0  0  0  0
  2  5  1  0  0  0  0
  1  2  1  0  0  0  0
 18 19  2  0  0  0  0
 18 20  1  0  0  0  0
 16 17  1  0  0  0  0
 14 15  2  0  0  0  0
 14 16  1  0  0  0  0
 11 12  1  0  0  0  0
 11 13  1  0  0  0  0
 11 14  1  0  0  0  0
  9 10  1  0  0  0  0
  9 11  1  0  0  0  0
  9 18  1  0  0  0  0
  7  8  1  0  0  0  0
  7  9  1  0  0  0  0
 22 23  1  0  0  0  0
 22 24  1  0  0  0  0
 22 25  1  0  0  0  0
 20 21  1  0  0  0  0
 20 22  1  0  0  0  0
M  END
$$$$
default_name
  -OEChem-02102213163D

 25 24  0     1  0  0  0  0  0999 V2000
   -2.7826   -3.8464    0.7821 H   0  0  0  0  0  0  0  0  0  0  0  0
   -2.8156   -2.8034    0.4711 C   0  0  0  0  0  0  0  0  0  0  0  0
   -3.4336   -2.2354    1.1641 H   0  0  0  0  0  0  0  0  0  0  0  0
   -3.2256   -2.7344   -0.5349 H   0  0  0  0  0  0  0  0  0  0  0  0
   -1.4126   -2.2444    0.4801 C   0  0  0  0  0  0  0  0  0  0  0  0
   -0.4686   -2.9534    0.8001 O   0  0  0  0  0  0  0  0  0  0  0  0
   -1.2736   -0.9704    0.1241 N   0  0  0  0  0  0  0  0  0  0  0  0
   -2.0996   -0.4354   -0.1019 H   0  0  0  0  0  0  0  0  0  0  0  0
   -0.0016   -0.2394    0.1271 C   0  0  1  0  0  0  0  0  0  0  0  0
    0.7164   -0.7963    0.7332 H   0  0  0  0  0  0  0  0  0  0  0  0
    0.5351   -0.1414   -1.3146 C   0  0  0  0  0  0  0  0  0  0  0  0
    0.1449    0.7611   -1.7866 H   0  0  0  0  0  0  0  0  0  0  0  0
    1.6229   -0.0669   -1.2972 H   0  0  0  0  0  0  0  0  0  0  0  0
    0.1265   -1.3182   -2.1957 C   0  0  0  0  0  0  0  0  0  0  0  0
   -0.5299   -1.2426   -3.2261 O   0  0  0  0  0  0  0  0  0  0  0  0
    0.5397   -2.5219   -1.7572 O   0  0  0  0  0  0  0  0  0  0  0  0
    0.2349   -3.1565   -2.4065 H   0  0  0  0  0  0  0  0  0  0  0  0
   -0.1923    1.1526    0.7617 C   0  0  0  0  0  0  0  0  0  0  0  0
   -1.1582    1.8438    0.4410 O   0  0  0  0  0  0  0  0  0  0  0  0
    0.7203    1.5683    1.6472 N   0  0  0  0  0  0  0  0  0  0  0  0
    1.5210    0.9664    1.8100 H   0  0  0  0  0  0  0  0  0  0  0  0
    0.6747    2.8558    2.3368 C   0  0  0  0  0  0  0  0  0  0  0  0
   -0.3018    2.9877    2.8079 H   0  0  0  0  0  0  0  0  0  0  0  0
    1.4516    2.8997    3.1011 H   0  0  0  0  0  0  0  0  0  0  0  0
    0.8279    3.6639    1.6193 H   0  0  0  0  0  0  0  0  0  0  0  0
  5  6  2  0  0  0  0
  5  7  1  0  0  0  0
  2  3  1  0  0  0  0
  2  4  1  0  0  0  0
  2  5  1  0  0  0  0
  1  2  1  0  0  0  0
 18 19  2  0  0  0  0
 18 20  1  0  0  0  0
 16 17  1  0  0  0  0
 14 15  2  0  0  0  0
 14 16  1  0  0  0  0
 11 12  1  0  0  0  0
 11 13  1  0  0  0  0
 11 14  1  0  0  0  0
  9 10  1  0  0  0  0
  9 11  1  0  0  0  0
  9 18  1  0  0  0  0
  7  8  1  0  0  0  0
  7  9  1  0  0  0  0
 22 23  1  0  0  0  0
 22 24  1  0  0  0  0
 22 25  1  0  0  0  0
 20 21  1  0  0  0  0
 20 22  1  0  0  0  0
M  END
$$$$
default_name
  -OEChem-02102213163D

 25 24  0     1  0  0  0  0  0999 V2000
   -2.7826   -3.8464    0.7821 H   0  0  0  0  0  0  0  0  0  0  0  0
   -2.8156   -2.8034    0.4711 C   0  0  0  0  0  0  0  0  0  0  0  0
   -3.4336   -2.2354    1.1641 H   0  0  0  0  0  0  0  0  0  0  0  0
   -3.2256   -2.7344   -0.5349 H   0  0  0  0  0  0  0  0  0  0  0  0
   -1.4126   -2.2444    0.4801 C   0  0  0  0  0  0  0  0  0  0  0  0
   -0.4686   -2.9534    0.8001 O   0  0  0  0  0  0  0  0  0  0  0  0
   -1.2736   -0.9704    0.1241 N   0  0  0  0  0  0  0  0  0  0  0  0
   -2.0996   -0.4354   -0.1019 H   0  0  0  0  0  0  0  0  0  0  0  0
   -0.0016   -0.2394    0.1271 C   0  0  1  0  0  0  0  0  0  0  0  0
    0.7164   -0.7963    0.7332 H   0  0  0  0  0  0  0  0  0  0  0  0
    0.5351   -0.1414   -1.3146 C   0  0  0  0  0  0  0  0  0  0  0  0
    0.1449    0.7611   -1.7866 H   0  0  0  0  0  0  0  0  0  0  0  0
    1.6229   -0.0669   -1.2972 H   0  0  0  0  0  0  0  0  0  0  0  0
    0.1265   -1.3182   -2.1957 C   0  0  0  0  0  0  0  0  0  0  0  0
   -0.2970   -1.2372   -3.3412 O   0  0  0  0  0  0  0  0  0  0  0  0
    0.2531   -2.5271   -1.6173 O   0  0  0  0  0  0  0  0  0  0  0  0
   -0.0153   -3.1644   -2.2799 H   0  0  0  0  0  0  0  0  0  0  0  0
   -0.1923    1.1526    0.7617 C   0  0  0  0  0  0  0  0  0  0  0  0
   -1.1582    1.8438    0.4410 O   0  0  0  0  0  0  0  0  0  0  0  0
    0.7203    1.5683    1.6472 N   0  0  0  0  0  0  0  0  0  0  0  0
    1.5210    0.9664    1.8100 H   0  0  0  0  0  0  0  0  0  0  0  0
    0.6747    2.8558    2.3368 C   0  0  0  0  0  0  0  0  0  0  0  0
   -0.3018    2.9877    2.8079 H   0  0  0  0  0  0  0  0  0  0  0  0
    1.4516    2.8997    3.1011 H   0  0  0  0  0  0  0  0  0  0  0  0
    0.8279    3.6639    1.6193 H   0  0  0  0  0  0  0  0  0  0  0  0
  5  6  2  0  0  0  0
  5  7  1  0  0  0  0
  2  3  1  0  0  0  0
  2  4  1  0  0  0  0
  2  5  1  0  0  0  0
  1  2  1  0  0  0  0
 18 19  2  0  0  0  0
 18 20  1  0  0  0  0
 16 17  1  0  0  0  0
 14 15  2  0  0  0  0
 14 16  1  0  0  0  0
 11 12  1  0  0  0  0
 11 13  1  0  0  0  0
 11 14  1  0  0  0  0
  9 10  1  0  0  0  0
  9 11  1  0  0  0  0
  9 18  1  0  0  0  0
  7  8  1  0  0  0  0
  7  9  1  0  0  0  0
 22 23  1  0  0  0  0
 22 24  1  0  0  0  0
 22 25  1  0  0  0  0
 20 21  1  0  0  0  0
 20 22  1  0  0  0  0
M  END
$$$$
default_name
  -OEChem-02102213163D

 25 24  0     1  0  0  0  0  0999 V2000
   -2.7826   -3.8464    0.7821 H   0  0  0  0  0  0  0  0  0  0  0  0
   -2.8156   -2.8034    0.4711 C   0  0  0  0  0  0  0  0  0  0  0  0
   -3.4336   -2.2354    1.1641 H   0  0  0  0  0  0  0  0  0  0  0  0
   -3.2256   -2.7344   -0.5349 H   0  0  0  0  0  0  0  0  0  0  0  0
   -1.4126   -2.2444    0.4801 C   0  0  0  0  0  0  0  0  0  0  0  0
   -0.4686   -2.9534    0.8001 O   0  0  0  0  0  0  0  0  0  0  0  0
   -1.2736   -0.9704    0.1241 N   0  0  0  0  0  0  0  0  0  0  0  0
   -2.0996   -0.4354   -0.1019 H   0  0  0  0  0  0  0  0  0  0  0  0
   -0.0016   -0.2394    0.1271 C   0  0  1  0  0  0  0  0  0  0  0  0
    0.7164   -0.7963    0.7332 H   0  0  0  0  0  0  0  0  0  0  0  0
    0.5351   -0.1414   -1.3146 C   0  0  0  0  0  0  0  0  0  0  0  0
    0.1449    0.7611   -1.7866 H   0  0  0  0  0  0  0  0  0  0  0  0
    1.6229   -0.0669   -1.2972 H   0  0  0  0  0  0  0  0  0  0  0  0
    0.1265   -1.3182   -2.1957 C   0  0  0  0  0  0  0  0  0  0  0  0
   -0.0484   -1.2748   -3.4064 O   0  0  0  0  0  0  0  0  0  0  0  0
   -0.0525   -2.4796   -1.5391 O   0  0  0  0  0  0  0  0  0  0  0  0
   -0.2833   -3.1258   -2.2071 H   0  0  0  0  0  0  0  0  0  0  0  0
   -0.1923    1.1526    0.7617 C   0  0  0  0  0  0  0  0  0  0  0  0
   -1.1582    1.8438    0.4410 O   0  0  0  0  0  0  0  0  0  0  0  0
    0.7203    1.5683    1.6472 N   0  0  0  0  0  0  0  0  0  0  0  0
    1.5210    0.9664    1.8100 H   0  0  0  0  0  0  0  0  0  0  0  0
    0.6747    2.8558    2.3368 C   0  0  0  0  0  0  0  0  0  0  0  0
   -0.3018    2.9877    2.8079 H   0  0  0  0  0  0  0  0  0  0  0  0
    1.4516    2.8997    3.1011 H   0  0  0  0  0  0  0  0  0  0  0  0
    0.8279    3.6639    1.6193 H   0  0  0  0  0  0  0  0  0  0  0  0
  5  6  2  0  0  0  0
  5  7  1  0  0  0  0
  2  3  1  0  0  0  0
  2  4  1  0  0  0  0
  2  5  1  0  0  0  0
  1  2  1  0  0  0  0
 18 19  2  0  0  0  0
 18 20  1  0  0  0  0
 16 17  1  0  0  0  0
 14 15  2  0  0  0  0
 14 16  1  0  0  0  0
 11 12  1  0  0  0  0
 11 13  1  0  0  0  0
 11 14  1  0  0  0  0
  9 10  1  0  0  0  0
  9 11  1  0  0  0  0
  9 18  1  0  0  0  0
  7  8  1  0  0  0  0
  7  9  1  0  0  0  0
 22 23  1  0  0  0  0
 22 24  1  0  0  0  0
 22 25  1  0  0  0  0
 20 21  1  0  0  0  0
 20 22  1  0  0  0  0
M  END
$$$$
default_name
  -OEChem-02102213163D

 25 24  0     1  0  0  0  0  0999 V2000
   -2.7826   -3.8464    0.7821 H   0  0  0  0  0  0  0  0  0  0  0  0
   -2.8156   -2.8034    0.4711 C   0  0  0  0  0  0  0  0  0  0  0  0
   -3.4336   -2.2354    1.1641 H   0  0  0  0  0  0  0  0  0  0  0  0
   -3.2256   -2.7344   -0.5349 H   0  0  0  0  0  0  0  0  0  0  0  0
   -1.4126   -2.2444    0.4801 C   0  0  0  0  0  0  0  0  0  0  0  0
   -0.4686   -2.9534    0.8001 O   0  0  0  0  0  0  0  0  0  0  0  0
   -1.2736   -0.9704    0.1241 N   0  0  0  0  0  0  0  0  0  0  0  0
   -2.0996   -0.4354   -0.1019 H   0  0  0  0  0  0  0  0  0  0  0  0
   -0.0016   -0.2394    0.1271 C   0  0  1  0  0  0  0  0  0  0  0  0
    0.7164   -0.7963    0.7332 H   0  0  0  0  0  0  0  0  0  0  0  0
    0.5351   -0.1414   -1.3146 C   0  0  0  0  0  0  0  0  0  0  0  0
    0.1449    0.7611   -1.7866 H   0  0  0  0  0  0  0  0  0  0  0  0
    1.6229   -0.0669   -1.2972 H   0  0  0  0  0  0  0  0  0  0  0  0
    0.1265   -1.3182   -2.1957 C   0  0  0  0  0  0  0  0  0  0  0  0
    0.1993   -1.3528   -3.4170 O   0  0  0  0  0  0  0  0  0  0  0  0
   -0.3562   -2.3826   -1.5278 O   0  0  0  0  0  0  0  0  0  0  0  0
   -0.5510   -3.0435   -2.1930 H   0  0  0  0  0  0  0  0  0  0  0  0
   -0.1923    1.1526    0.7617 C   0  0  0  0  0  0  0  0  0  0  0  0
   -1.1582    1.8438    0.4410 O   0  0  0  0  0  0  0  0  0  0  0  0
    0.7203    1.5683    1.6472 N   0  0  0  0  0  0  0  0  0  0  0  0
    1.5210    0.9664    1.8100 H   0  0  0  0  0  0  0  0  0  0  0  0
    0.6747    2.8558    2.3368 C   0  0  0  0  0  0  0  0  0  0  0  0
   -0.3018    2.9877    2.8079 H   0  0  0  0  0  0  0  0  0  0  0  0
    1.4516    2.8997    3.1011 H   0  0  0  0  0  0  0  0  0  0  0  0
    0.8279    3.6639    1.6193 H   0  0  0  0  0  0  0  0  0  0  0  0
  5  6  2  0  0  0  0
  5  7  1  0  0  0  0
  2  3  1  0  0  0  0
  2  4  1  0  0  0  0
  2  5  1  0  0  0  0
  1  2  1  0  0  0  0
 18 19  2  0  0  0  0
 18 20  1  0  0  0  0
 16 17  1  0  0  0  0
 14 15  2  0  0  0  0
 14 16  1  0  0  0  0
 11 12  1  0  0  0  0
 11 13  1  0  0  0  0
 11 14  1  0  0  0  0
  9 10  1  0  0  0  0
  9 11  1  0  0  0  0
  9 18  1  0  0  0  0
  7  8  1  0  0  0  0
  7  9  1  0  0  0  0
 22 23  1  0  0  0  0
 22 24  1  0  0  0  0
 22 25  1  0  0  0  0
 20 21  1  0  0  0  0
 20 22  1  0  0  0  0
M  END
$$$$
default_name
  -OEChem-02102213163D

 25 24  0     1  0  0  0  0  0999 V2000
   -2.7826   -3.8464    0.7821 H   0  0  0  0  0  0  0  0  0  0  0  0
   -2.8156   -2.8034    0.4711 C   0  0  0  0  0  0  0  0  0  0  0  0
   -3.4336   -2.2354    1.1641 H   0  0  0  0  0  0  0  0  0  0  0  0
   -3.2256   -2.7344   -0.5349 H   0  0  0  0  0  0  0  0  0  0  0  0
   -1.4126   -2.2444    0.4801 C   0  0  0  0  0  0  0  0  0  0  0  0
   -0.4686   -2.9534    0.8001 O   0  0  0  0  0  0  0  0  0  0  0  0
   -1.2736   -0.9704    0.1241 N   0  0  0  0  0  0  0  0  0  0  0  0
   -2.0996   -0.4354   -0.1019 H   0  0  0  0  0  0  0  0  0  0  0  0
   -0.0016   -0.2394    0.1271 C   0  0  1  0  0  0  0  0  0  0  0  0
    0.7164   -0.7963    0.7332 H   0  0  0  0  0  0  0  0  0  0  0  0
    0.5351   -0.1414   -1.3146 C   0  0  0  0  0  0  0  0  0  0  0  0
    0.3732    0.8681   -1.6943 H   0  0  0  0  0  0  0  0  0  0  0  0
    1.6086   -0.3336   -1.3207 H   0  0  0  0  0  0  0  0  0  0  0  0
   -0.1518   -1.0985   -2.2843 C   0  0  0  0  0  0  0  0  0  0  0  0
    0.0994   -1.2057   -3.4775 O   0  0  0  0  0  0  0  0  0  0  0  0
   -1.1139   -1.8636   -1.7359 O   0  0  0  0  0  0  0  0  0  0  0  0
   -1.4405   -2.4212   -2.4427 H   0  0  0  0  0  0  0  0  0  0  0  0
   -0.1923    1.1526    0.7617 C   0  0  0  0  0  0  0  0  0  0  0  0
   -1.1582    1.8438    0.4410 O   0  0  0  0  0  0  0  0  0  0  0  0
    0.7203    1.5683    1.6472 N   0  0  0  0  0  0  0  0  0  0  0  0
    1.5210    0.9664    1.8100 H   0  0  0  0  0  0  0  0  0  0  0  0
    0.6747    2.8558    2.3368 C   0  0  0  0  0  0  0  0  0  0  0  0
   -0.3018    2.9877    2.8079 H   0  0  0  0  0  0  0  0  0  0  0  0
    1.4516    2.8997    3.1011 H   0  0  0  0  0  0  0  0  0  0  0  0
    0.8279    3.6639    1.6193 H   0  0  0  0  0  0  0  0  0  0  0  0
  5  6  2  0  0  0  0
  5  7  1  0  0  0  0
  2  3  1  0  0  0  0
  2  4  1  0  0  0  0
  2  5  1  0  0  0  0
  1  2  1  0  0  0  0
 18 19  2  0  0  0  0
 18 20  1  0  0  0  0
 16 17  1  0  0  0  0
 14 15  2  0  0  0  0
 14 16  1  0  0  0  0
 11 12  1  0  0  0  0
 11 13  1  0  0  0  0
 11 14  1  0  0  0  0
  9 10  1  0  0  0  0
  9 11  1  0  0  0  0
  9 18  1  0  0  0  0
  7  8  1  0  0  0  0
  7  9  1  0  0  0  0
 22 23  1  0  0  0  0
 22 24  1  0  0  0  0
 22 25  1  0  0  0  0
 20 21  1  0  0  0  0
 20 22  1  0  0  0  0
M  END
$$$$
default_name
  -OEChem-02102213163D

 25 24  0     1  0  0  0  0  0999 V2000
   -2.7826   -3.8464    0.7821 H   0  0  0  0  0  0  0  0  0  0  0  0
   -2.8156   -2.8034    0.4711 C   0  0  0  0  0  0  0  0  0  0  0  0
   -3.4336   -2.2354    1.1641 H   0  0  0  0  0  0  0  0  0  0  0  0
   -3.2256   -2.7344   -0.5349 H   0  0  0  0  0  0  0  0  0  0  0  0
   -1.4126   -2.2444    0.4801 C   0  0  0  0  0  0  0  0  0  0  0  0
   -0.4686   -2.9534    0.8001 O   0  0  0  0  0  0  0  0  0  0  0  0
   -1.2736   -0.9704    0.1241 N   0  0  0  0  0  0  0  0  0  0  0  0
   -2.0996   -0.4354   -0.1019 H   0  0  0  0  0  0  0  0  0  0  0  0
   -0.0016   -0.2394    0.1271 C   0  0  1  0  0  0  0  0  0  0  0  0
    0.7164   -0.7963    0.7332 H   0  0  0  0  0  0  0  0  0  0  0  0
    0.5351   -0.1414   -1.3146 C   0  0  0  0  0  0  0  0  0  0  0  0
    0.3732    0.8681   -1.6943 H   0  0  0  0  0  0  0  0  0  0  0  0
    1.6086   -0.3336   -1.3207 H   0  0  0  0  0  0  0  0  0  0  0  0
   -0.1518   -1.0985   -2.2843 C   0  0  0  0  0  0  0  0  0  0  0  0
    0.2560   -1.3976   -3.3990 O   0  0  0  0  0  0  0  0  0  0  0  0
   -1.3047   -1.6275   -1.8338 O   0  0  0  0  0  0  0  0  0  0  0  0
   -1.6116   -2.2149   -2.5251 H   0  0  0  0  0  0  0  0  0  0  0  0
   -0.1923    1.1526    0.7617 C   0  0  0  0  0  0  0  0  0  0  0  0
   -1.1582    1.8438    0.4410 O   0  0  0  0  0  0  0  0  0  0  0  0
    0.7203    1.5683    1.6472 N   0  0  0  0  0  0  0  0  0  0  0  0
    1.5210    0.9664    1.8100 H   0  0  0  0  0  0  0  0  0  0  0  0
    0.6747    2.8558    2.3368 C   0  0  0  0  0  0  0  0  0  0  0  0
   -0.3018    2.9877    2.8079 H   0  0  0  0  0  0  0  0  0  0  0  0
    1.4516    2.8997    3.1011 H   0  0  0  0  0  0  0  0  0  0  0  0
    0.8279    3.6639    1.6193 H   0  0  0  0  0  0  0  0  0  0  0  0
  5  6  2  0  0  0  0
  5  7  1  0  0  0  0
  2  3  1  0  0  0  0
  2  4  1  0  0  0  0
  2  5  1  0  0  0  0
  1  2  1  0  0  0  0
 18 19  2  0  0  0  0
 18 20  1  0  0  0  0
 16 17  1  0  0  0  0
 14 15  2  0  0  0  0
 14 16  1  0  0  0  0
 11 12  1  0  0  0  0
 11 13  1  0  0  0  0
 11 14  1  0  0  0  0
  9 10  1  0  0  0  0
  9 11  1  0  0  0  0
  9 18  1  0  0  0  0
  7  8  1  0  0  0  0
  7  9  1  0  0  0  0
 22 23  1  0  0  0  0
 22 24  1  0  0  0  0
 22 25  1  0  0  0  0
 20 21  1  0  0  0  0
 20 22  1  0  0  0  0
M  END
$$$$
default_name
  -OEChem-02102213163D

 25 24  0     1  0  0  0  0  0999 V2000
   -2.7826   -3.8464    0.7821 H   0  0  0  0  0  0  0  0  0  0  0  0
   -2.8156   -2.8034    0.4711 C   0  0  0  0  0  0  0  0  0  0  0  0
   -3.4336   -2.2354    1.1641 H   0  0  0  0  0  0  0  0  0  0  0  0
   -3.2256   -2.7344   -0.5349 H   0  0  0  0  0  0  0  0  0  0  0  0
   -1.4126   -2.2444    0.4801 C   0  0  0  0  0  0  0  0  0  0  0  0
   -0.4686   -2.9534    0.8001 O   0  0  0  0  0  0  0  0  0  0  0  0
   -1.2736   -0.9704    0.1241 N   0  0  0  0  0  0  0  0  0  0  0  0
   -2.0996   -0.4354   -0.1019 H   0  0  0  0  0  0  0  0  0  0  0  0
   -0.0016   -0.2394    0.1271 C   0  0  1  0  0  0  0  0  0  0  0  0
    0.7164   -0.7963    0.7332 H   0  0  0  0  0  0  0  0  0  0  0  0
    0.5351   -0.1414   -1.3146 C   0  0  0  0  0  0  0  0  0  0  0  0
    0.3732    0.8681   -1.6943 H   0  0  0  0  0  0  0  0  0  0  0  0
    1.6086   -0.3336   -1.3207 H   0  0  0  0  0  0  0  0  0  0  0  0
   -0.1518   -1.0985   -2.2843 C   0  0  0  0  0  0  0  0  0  0  0  0
    0.3629   -1.5996   -3.2753 O   0  0  0  0  0  0  0  0  0  0  0  0
   -1.4342   -1.3794   -1.9869 O   0  0  0  0  0  0  0  0  0  0  0  0
   -1.7296   -1.9971   -2.6566 H   0  0  0  0  0  0  0  0  0  0  0  0
   -0.1923    1.1526    0.7617 C   0  0  0  0  0  0  0  0  0  0  0  0
   -1.1582    1.8438    0.4410 O   0  0  0  0  0  0  0  0  0  0  0  0
    0.7203    1.5683    1.6472 N   0  0  0  0  0  0  0  0  0  0  0  0
    1.5210    0.9664    1.8100 H   0  0  0  0  0  0  0  0  0  0  0  0
    0.6747    2.8558    2.3368 C   0  0  0  0  0  0  0  0  0  0  0  0
   -0.3018    2.9877    2.8079 H   0  0  0  0  0  0  0  0  0  0  0  0
    1.4516    2.8997    3.1011 H   0  0  0  0  0  0  0  0  0  0  0  0
    0.8279    3.6639    1.6193 H   0  0  0  0  0  0  0  0  0  0  0  0
  5  6  2  0  0  0  0
  5  7  1  0  0  0  0
  2  3  1  0  0  0  0
  2  4  1  0  0  0  0
  2  5  1  0  0  0  0
  1  2  1  0  0  0  0
 18 19  2  0  0  0  0
 18 20  1  0  0  0  0
 16 17  1  0  0  0  0
 14 15  2  0  0  0  0
 14 16  1  0  0  0  0
 11 12  1  0  0  0  0
 11 13  1  0  0  0  0
 11 14  1  0  0  0  0
  9 10  1  0  0  0  0
  9 11  1  0  0  0  0
  9 18  1  0  0  0  0
  7  8  1  0  0  0  0
  7  9  1  0  0  0  0
 22 23  1  0  0  0  0
 22 24  1  0  0  0  0
 22 25  1  0  0  0  0
 20 21  1  0  0  0  0
 20 22  1  0  0  0  0
M  END
$$$$
default_name
  -OEChem-02102213163D

 25 24  0     1  0  0  0  0  0999 V2000
   -2.7826   -3.8464    0.7821 H   0  0  0  0  0  0  0  0  0  0  0  0
   -2.8156   -2.8034    0.4711 C   0  0  0  0  0  0  0  0  0  0  0  0
   -3.4336   -2.2354    1.1641 H   0  0  0  0  0  0  0  0  0  0  0  0
   -3.2256   -2.7344   -0.5349 H   0  0  0  0  0  0  0  0  0  0  0  0
   -1.4126   -2.2444    0.4801 C   0  0  0  0  0  0  0  0  0  0  0  0
   -0.4686   -2.9534    0.8001 O   0  0  0  0  0  0  0  0  0  0  0  0
   -1.2736   -0.9704    0.1241 N   0  0  0  0  0  0  0  0  0  0  0  0
   -2.0996   -0.4354   -0.1019 H   0  0  0  0  0  0  0  0  0  0  0  0
   -0.0016   -0.2394    0.1271 C   0  0  1  0  0  0  0  0  0  0  0  0
    0.7164   -0.7963    0.7332 H   0  0  0  0  0  0  0  0  0  0  0  0
    0.5351   -0.1414   -1.3146 C   0  0  0  0  0  0  0  0  0  0  0  0
    0.3732    0.8681   -1.6943 H   0  0  0  0  0  0  0  0  0  0  0  0
    1.6086   -0.3336   -1.3207 H   0  0  0  0  0  0  0  0  0  0  0  0
   -0.1518   -1.0985   -2.2843 C   0  0  0  0  0  0  0  0  0  0  0  0
    0.4129   -1.7979   -3.1151 O   0  0  0  0  0  0  0  0  0  0  0  0
   -1.4936   -1.1363   -2.1848 O   0  0  0  0  0  0  0  0  0  0  0  0
   -1.7864   -1.7826   -2.8280 H   0  0  0  0  0  0  0  0  0  0  0  0
   -0.1923    1.1526    0.7617 C   0  0  0  0  0  0  0  0  0  0  0  0
   -1.1582    1.8438    0.4410 O   0  0  0  0  0  0  0  0  0  0  0  0
    0.7203    1.5683    1.6472 N   0  0  0  0  0  0  0  0  0  0  0  0
    1.5210    0.9664    1.8100 H   0  0  0  0  0  0  0  0  0  0  0  0
    0.6747    2.8558    2.3368 C   0  0  0  0  0  0  0  0  0  0  0  0
   -0.3018    2.9877    2.8079 H   0  0  0  0  0  0  0  0  0  0  0  0
    1.4516    2.8997    3.1011 H   0  0  0  0  0  0  0  0  0  0  0  0
    0.8279    3.6639    1.6193 H   0  0  0  0  0  0  0  0  0  0  0  0
  5  6  2  0  0  0  0
  5  7  1  0  0  0  0
  2  3  1  0  0  0  0
  2  4  1  0  0  0  0
  2  5  1  0  0  0  0
  1  2  1  0  0  0  0
 18 19  2  0  0  0  0
 18 20  1  0  0  0  0
 16 17  1  0  0  0  0
 14 15  2  0  0  0  0
 14 16  1  0  0  0  0
 11 12  1  0  0  0  0
 11 13  1  0  0  0  0
 11 14  1  0  0  0  0
  9 10  1  0  0  0  0
  9 11  1  0  0  0  0
  9 18  1  0  0  0  0
  7  8  1  0  0  0  0
  7  9  1  0  0  0  0
 22 23  1  0  0  0  0
 22 24  1  0  0  0  0
 22 25  1  0  0  0  0
 20 21  1  0  0  0  0
 20 22  1  0  0  0  0
M  END
$$$$
default_name
  -OEChem-02102213163D

 25 24  0     1  0  0  0  0  0999 V2000
   -2.7826   -3.8464    0.7821 H   0  0  0  0  0  0  0  0  0  0  0  0
   -2.8156   -2.8034    0.4711 C   0  0  0  0  0  0  0  0  0  0  0  0
   -3.4336   -2.2354    1.1641 H   0  0  0  0  0  0  0  0  0  0  0  0
   -3.2256   -2.7344   -0.5349 H   0  0  0  0  0  0  0  0  0  0  0  0
   -1.4126   -2.2444    0.4801 C   0  0  0  0  0  0  0  0  0  0  0  0
   -0.4686   -2.9534    0.8001 O   0  0  0  0  0  0  0  0  0  0  0  0
   -1.2736   -0.9704    0.1241 N   0  0  0  0  0  0  0  0  0  0  0  0
   -2.0996   -0.4354   -0.1019 H   0  0  0  0  0  0  0  0  0  0  0  0
   -0.0016   -0.2394    0.1271 C   0  0  1  0  0  0  0  0  0  0  0  0
    0.7164   -0.7963    0.7332 H   0  0  0  0  0  0  0  0  0  0  0  0
    0.5351   -0.1414   -1.3146 C   0  0  0  0  0  0  0  0  0  0  0  0
    0.3732    0.8681   -1.6943 H   0  0  0  0  0  0  0  0  0  0  0  0
    1.6086   -0.3336   -1.3207 H   0  0  0  0  0  0  0  0  0  0  0  0
   -0.1518   -1.0985   -2.2843 C   0  0  0  0  0  0  0  0  0  0  0  0
    0.4026   -1.9790   -2.9290 O   0  0  0  0  0  0  0  0  0  0  0  0
   -1.4790   -0.9147   -2.4138 O   0  0  0  0  0  0  0  0  0  0  0  0
   -1.7781   -1.5860   -3.0279 H   0  0  0  0  0  0  0  0  0  0  0  0
   -0.1923    1.1526    0.7617 C   0  0  0  0  0  0  0  0  0  0  0  0
   -1.1582    1.8438    0.4410 O   0  0  0  0  0  0  0  0  0  0  0  0
    0.7203    1.5683    1.6472 N   0  0  0  0  0  0  0  0  0  0  0  0
    1.5210    0.9664    1.8100 H   0  0  0  0  0  0  0  0  0  0  0  0
    0.6747    2.8558    2.3368 C   0  0  0  0  0  0  0  0  0  0  0  0
   -0.3018    2.9877    2.8079 H   0  0  0  0  0  0  0  0  0  0  0  0
    1.4516    2.8997    3.1011 H   0  0  0  0  0  0  0  0  0  0  0  0
    0.8279    3.6639    1.6193 H   0  0  0  0  0  0  0  0  0  0  0  0
  5  6  2  0  0  0  0
  5  7  1  0  0  0  0
  2  3  1  0  0  0  0
  2  4  1  0  0  0  0
  2  5  1  0  0  0  0
  1  2  1  0  0  0  0
 18 19  2  0  0  0  0
 18 20  1  0  0  0  0
 16 17  1  0  0  0  0
 14 15  2  0  0  0  0
 14 16  1  0  0  0  0
 11 12  1  0  0  0  0
 11 13  1  0  0  0  0
 11 14  1  0  0  0  0
  9 10  1  0  0  0  0
  9 11  1  0  0  0  0
  9 18  1  0  0  0  0
  7  8  1  0  0  0  0
  7  9  1  0  0  0  0
 22 23  1  0  0  0  0
 22 24  1  0  0  0  0
 22 25  1  0  0  0  0
 20 21  1  0  0  0  0
 20 22  1  0  0  0  0
M  END
$$$$
default_name
  -OEChem-02102213163D

 25 24  0     1  0  0  0  0  0999 V2000
   -2.7826   -3.8464    0.7821 H   0  0  0  0  0  0  0  0  0  0  0  0
   -2.8156   -2.8034    0.4711 C   0  0  0  0  0  0  0  0  0  0  0  0
   -3.4336   -2.2354    1.1641 H   0  0  0  0  0  0  0  0  0  0  0  0
   -3.2256   -2.7344   -0.5349 H   0  0  0  0  0  0  0  0  0  0  0  0
   -1.4126   -2.2444    0.4801 C   0  0  0  0  0  0  0  0  0  0  0  0
   -0.4686   -2.9534    0.8001 O   0  0  0  0  0  0  0  0  0  0  0  0
   -1.2736   -0.9704    0.1241 N   0  0  0  0  0  0  0  0  0  0  0  0
   -2.0996   -0.4354   -0.1019 H   0  0  0  0  0  0  0  0  0  0  0  0
   -0.0016   -0.2394    0.1271 C   0  0  1  0  0  0  0  0  0  0  0  0
    0.7164   -0.7963    0.7332 H   0  0  0  0  0  0  0  0  0  0  0  0
    0.5351   -0.1414   -1.3146 C   0  0  0  0  0  0  0  0  0  0  0  0
    0.3732    0.8681   -1.6943 H   0  0  0  0  0  0  0  0  0  0  0  0
    1.6086   -0.3336   -1.3207 H   0  0  0  0  0  0  0  0  0  0  0  0
   -0.1518   -1.0985   -2.2843 C   0  0  0  0  0  0  0  0  0  0  0  0
    0.3326   -2.1305   -2.7299 O   0  0  0  0  0  0  0  0  0  0  0  0
   -1.3911   -0.7298   -2.6585 O   0  0  0  0  0  0  0  0  0  0  0  0
   -1.7054   -1.4208   -3.2425 H   0  0  0  0  0  0  0  0  0  0  0  0
   -0.1923    1.1526    0.7617 C   0  0  0  0  0  0  0  0  0  0  0  0
   -1.1582    1.8438    0.4410 O   0  0  0  0  0  0  0  0  0  0  0  0
    0.7203    1.5683    1.6472 N   0  0  0  0  0  0  0  0  0  0  0  0
    1.5210    0.9664    1.8100 H   0  0  0  0  0  0  0  0  0  0  0  0
    0.6747    2.8558    2.3368 C   0  0  0  0  0  0  0  0  0  0  0  0
   -0.3018    2.9877    2.8079 H   0  0  0  0  0  0  0  0  0  0  0  0
    1.4516    2.8997    3.1011 H   0  0  0  0  0  0  0  0  0  0  0  0
    0.8279    3.6639    1.6193 H   0  0  0  0  0  0  0  0  0  0  0  0
  5  6  2  0  0  0  0
  5  7  1  0  0  0  0
  2  3  1  0  0  0  0
  2  4  1  0  0  0  0
  2  5  1  0  0  0  0
  1  2  1  0  0  0  0
 18 19  2  0  0  0  0
 18 20  1  0  0  0  0
 16 17  1  0  0  0  0
 14 15  2  0  0  0  0
 14 16  1  0  0  0  0
 11 12  1  0  0  0  0
 11 13  1  0  0  0  0
 11 14  1  0  0  0  0
  9 10  1  0  0  0  0
  9 11  1  0  0  0  0
  9 18  1  0  0  0  0
  7  8  1  0  0  0  0
  7  9  1  0  0  0  0
 22 23  1  0  0  0  0
 22 24  1  0  0  0  0
 22 25  1  0  0  0  0
 20 21  1  0  0  0  0
 20 22  1  0  0  0  0
M  END
$$$$
default_name
  -OEChem-02102213163D

 25 24  0     1  0  0  0  0  0999 V2000
   -2.7826   -3.8464    0.7821 H   0  0  0  0  0  0  0  0  0  0  0  0
   -2.8156   -2.8034    0.4711 C   0  0  0  0  0  0  0  0  0  0  0  0
   -3.4336   -2.2354    1.1641 H   0  0  0  0  0  0  0  0  0  0  0  0
   -3.2256   -2.7344   -0.5349 H   0  0  0  0  0  0  0  0  0  0  0  0
   -1.4126   -2.2444    0.4801 C   0  0  0  0  0  0  0  0  0  0  0  0
   -0.4686   -2.9534    0.8001 O   0  0  0  0  0  0  0  0  0  0  0  0
   -1.2736   -0.9704    0.1241 N   0  0  0  0  0  0  0  0  0  0  0  0
   -2.0996   -0.4354   -0.1019 H   0  0  0  0  0  0  0  0  0  0  0  0
   -0.0016   -0.2394    0.1271 C   0  0  1  0  0  0  0  0  0  0  0  0
    0.7164   -0.7963    0.7332 H   0  0  0  0  0  0  0  0  0  0  0  0
    0.5351   -0.1414   -1.3146 C   0  0  0  0  0  0  0  0  0  0  0  0
    0.3732    0.8681   -1.6943 H   0  0  0  0  0  0  0  0  0  0  0  0
    1.6086   -0.3336   -1.3207 H   0  0  0  0  0  0  0  0  0  0  0  0
   -0.1518   -1.0985   -2.2843 C   0  0  0  0  0  0  0  0  0  0  0  0
    0.2077   -2.2421   -2.5313 O   0  0  0  0  0  0  0  0  0  0  0  0
   -1.2362   -0.5942   -2.9021 O   0  0  0  0  0  0  0  0  0  0  0  0
   -1.5731   -1.2982   -3.4572 H   0  0  0  0  0  0  0  0  0  0  0  0
   -0.1923    1.1526    0.7617 C   0  0  0  0  0  0  0  0  0  0  0  0
   -1.1582    1.8438    0.4410 O   0  0  0  0  0  0  0  0  0  0  0  0
    0.7203    1.5683    1.6472 N   0  0  0  0  0  0  0  0  0  0  0  0
    1.5210    0.9664    1.8100 H   0  0  0  0  0  0  0  0  0  0  0  0
    0.6747    2.8558    2.3368 C   0  0  0  0  0  0  0  0  0  0  0  0
   -0.3018    2.9877    2.8079 H   0  0  0  0  0  0  0  0  0  0  0  0
    1.4516    2.8997    3.1011 H   0  0  0  0  0  0  0  0  0  0  0  0
    0.8279    3.6639    1.6193 H   0  0  0  0  0  0  0  0  0  0  0  0
  5  6  2  0  0  0  0
  5  7  1  0  0  0  0
  2  3  1  0  0  0  0
  2  4  1  0  0  0  0
  2  5  1  0  0  0  0
  1  2  1  0  0  0  0
 18 19  2  0  0  0  0
 18 20  1  0  0  0  0
 16 17  1  0  0  0  0
 14 15  2  0  0  0  0
 14 16  1  0  0  0  0
 11 12  1  0  0  0  0
 11 13  1  0  0  0  0
 11 14  1  0  0  0  0
  9 10  1  0  0  0  0
  9 11  1  0  0  0  0
  9 18  1  0  0  0  0
  7  8  1  0  0  0  0
  7  9  1  0  0  0  0
 22 23  1  0  0  0  0
 22 24  1  0  0  0  0
 22 25  1  0  0  0  0
 20 21  1  0  0  0  0
 20 22  1  0  0  0  0
M  END
$$$$
default_name
  -OEChem-02102213163D

 25 24  0     1  0  0  0  0  0999 V2000
   -2.7826   -3.8464    0.7821 H   0  0  0  0  0  0  0  0  0  0  0  0
   -2.8156   -2.8034    0.4711 C   0  0  0  0  0  0  0  0  0  0  0  0
   -3.4336   -2.2354    1.1641 H   0  0  0  0  0  0  0  0  0  0  0  0
   -3.2256   -2.7344   -0.5349 H   0  0  0  0  0  0  0  0  0  0  0  0
   -1.4126   -2.2444    0.4801 C   0  0  0  0  0  0  0  0  0  0  0  0
   -0.4686   -2.9534    0.8001 O   0  0  0  0  0  0  0  0  0  0  0  0
   -1.2736   -0.9704    0.1241 N   0  0  0  0  0  0  0  0  0  0  0  0
   -2.0996   -0.4354   -0.1019 H   0  0  0  0  0  0  0  0  0  0  0  0
   -0.0016   -0.2394    0.1271 C   0  0  1  0  0  0  0  0  0  0  0  0
    0.7164   -0.7963    0.7332 H   0  0  0  0  0  0  0  0  0  0  0  0
    0.5351   -0.1414   -1.3146 C   0  0  0  0  0  0  0  0  0  0  0  0
    0.3732    0.8681   -1.6943 H   0  0  0  0  0  0  0  0  0  0  0  0
    1.6086   -0.3336   -1.3207 H   0  0  0  0  0  0  0  0  0  0  0  0
   -0.1518   -1.0985   -2.2843 C   0  0  0  0  0  0  0  0  0  0  0  0
    0.0365   -2.3063   -2.3467 O   0  0  0  0  0  0  0  0  0  0  0  0
   -1.0247   -0.5170   -3.1281 O   0  0  0  0  0  0  0  0  0  0  0  0
   -1.3902   -1.2265   -3.6574 H   0  0  0  0  0  0  0  0  0  0  0  0
   -0.1923    1.1526    0.7617 C   0  0  0  0  0  0  0  0  0  0  0  0
   -1.1582    1.8438    0.4410 O   0  0  0  0  0  0  0  0  0  0  0  0
    0.7203    1.5683    1.6472 N   0  0  0  0  0  0  0  0  0  0  0  0
    1.5210    0.9664    1.8100 H   0  0  0  0  0  0  0  0  0  0  0  0
    0.6747    2.8558    2.3368 C   0  0  0  0  0  0  0  0  0  0  0  0
   -0.3018    2.9877    2.8079 H   0  0  0  0  0  0  0  0  0  0  0  0
    1.4516    2.8997    3.1011 H   0  0  0  0  0  0  0  0  0  0  0  0
    0.8279    3.6639    1.6193 H   0  0  0  0  0  0  0  0  0  0  0  0
  5  6  2  0  0  0  0
  5  7  1  0  0  0  0
  2  3  1  0  0  0  0
  2  4  1  0  0  0  0
  2  5  1  0  0  0  0
  1  2  1  0  0  0  0
 18 19  2  0  0  0  0
 18 20  1  0  0  0  0
 16 17  1  0  0  0  0
 14 15  2  0  0  0  0
 14 16  1  0  0  0  0
 11 12  1  0  0  0  0
 11 13  1  0  0  0  0
 11 14  1  0  0  0  0
  9 10  1  0  0  0  0
  9 11  1  0  0  0  0
  9 18  1  0  0  0  0
  7  8  1  0  0  0  0
  7  9  1  0  0  0  0
 22 23  1  0  0  0  0
 22 24  1  0  0  0  0
 22 25  1  0  0  0  0
 20 21  1  0  0  0  0
 20 22  1  0  0  0  0
M  END
$$$$
default_name
  -OEChem-02102213163D

 25 24  0     1  0  0  0  0  0999 V2000
   -2.7826   -3.8464    0.7821 H   0  0  0  0  0  0  0  0  0  0  0  0
   -2.8156   -2.8034    0.4711 C   0  0  0  0  0  0  0  0  0  0  0  0
   -3.4336   -2.2354    1.1641 H   0  0  0  0  0  0  0  0  0  0  0  0
   -3.2256   -2.7344   -0.5349 H   0  0  0  0  0  0  0  0  0  0  0  0
   -1.4126   -2.2444    0.4801 C   0  0  0  0  0  0  0  0  0  0  0  0
   -0.4686   -2.9534    0.8001 O   0  0  0  0  0  0  0  0  0  0  0  0
   -1.2736   -0.9704    0.1241 N   0  0  0  0  0  0  0  0  0  0  0  0
   -2.0996   -0.4354   -0.1019 H   0  0  0  0  0  0  0  0  0  0  0  0
   -0.0016   -0.2394    0.1271 C   0  0  1  0  0  0  0  0  0  0  0  0
    0.7164   -0.7963    0.7332 H   0  0  0  0  0  0  0  0  0  0  0  0
    0.5351   -0.1414   -1.3146 C   0  0  0  0  0  0  0  0  0  0  0  0
    0.3732    0.8681   -1.6943 H   0  0  0  0  0  0  0  0  0  0  0  0
    1.6086   -0.3336   -1.3207 H   0  0  0  0  0  0  0  0  0  0  0  0
   -0.1518   -1.0985   -2.2843 C   0  0  0  0  0  0  0  0  0  0  0  0
   -0.1694   -2.3186   -2.1887 O   0  0  0  0  0  0  0  0  0  0  0  0
   -0.7710   -0.5037   -3.3210 O   0  0  0  0  0  0  0  0  0  0  0  0
   -1.1694   -1.2107   -3.8295 H   0  0  0  0  0  0  0  0  0  0  0  0
   -0.1923    1.1526    0.7617 C   0  0  0  0  0  0  0  0  0  0  0  0
   -1.1582    1.8438    0.4410 O   0  0  0  0  0  0  0  0  0  0  0  0
    0.7203    1.5683    1.6472 N   0  0  0  0  0  0  0  0  0  0  0  0
    1.5210    0.9664    1.8100 H   0  0  0  0  0  0  0  0  0  0  0  0
    0.6747    2.8558    2.3368 C   0  0  0  0  0  0  0  0  0  0  0  0
   -0.3018    2.9877    2.8079 H   0  0  0  0  0  0  0  0  0  0  0  0
    1.4516    2.8997    3.1011 H   0  0  0  0  0  0  0  0  0  0  0  0
    0.8279    3.6639    1.6193 H   0  0  0  0  0  0  0  0  0  0  0  0
  5  6  2  0  0  0  0
  5  7  1  0  0  0  0
  2  3  1  0  0  0  0
  2  4  1  0  0  0  0
  2  5  1  0  0  0  0
  1  2  1  0  0  0  0
 18 19  2  0  0  0  0
 18 20  1  0  0  0  0
 16 17  1  0  0  0  0
 14 15  2  0  0  0  0
 14 16  1  0  0  0  0
 11 12  1  0  0  0  0
 11 13  1  0  0  0  0
 11 14  1  0  0  0  0
  9 10  1  0  0  0  0
  9 11  1  0  0  0  0
  9 18  1  0  0  0  0
  7  8  1  0  0  0  0
  7  9  1  0  0  0  0
 22 23  1  0  0  0  0
 22 24  1  0  0  0  0
 22 25  1  0  0  0  0
 20 21  1  0  0  0  0
 20 22  1  0  0  0  0
M  END
$$$$
default_name
  -OEChem-02102213163D

 25 24  0     1  0  0  0  0  0999 V2000
   -2.7826   -3.8464    0.7821 H   0  0  0  0  0  0  0  0  0  0  0  0
   -2.8156   -2.8034    0.4711 C   0  0  0  0  0  0  0  0  0  0  0  0
   -3.4336   -2.2354    1.1641 H   0  0  0  0  0  0  0  0  0  0  0  0
   -3.2256   -2.7344   -0.5349 H   0  0  0  0  0  0  0  0  0  0  0  0
   -1.4126   -2.2444    0.4801 C   0  0  0  0  0  0  0  0  0  0  0  0
   -0.4686   -2.9534    0.8001 O   0  0  0  0  0  0  0  0  0  0  0  0
   -1.2736   -0.9704    0.1241 N   0  0  0  0  0  0  0  0  0  0  0  0
   -2.0996   -0.4354   -0.1019 H   0  0  0  0  0  0  0  0  0  0  0  0
   -0.0016   -0.2394    0.1271 C   0  0  1  0  0  0  0  0  0  0  0  0
    0.7164   -0.7963    0.7332 H   0  0  0  0  0  0  0  0  0  0  0  0
    0.5351   -0.1414   -1.3146 C   0  0  0  0  0  0  0  0  0  0  0  0
    0.3732    0.8681   -1.6943 H   0  0  0  0  0  0  0  0  0  0  0  0
    1.6086   -0.3336   -1.3207 H   0  0  0  0  0  0  0  0  0  0  0  0
   -0.1518   -1.0985   -2.2843 C   0  0  0  0  0  0  0  0  0  0  0  0
   -0.3960   -2.2782   -2.0681 O   0  0  0  0  0  0  0  0  0  0  0  0
   -0.4924   -0.5549   -3.4677 O   0  0  0  0  0  0  0  0  0  0  0  0
   -0.9255   -1.2518   -3.9617 H   0  0  0  0  0  0  0  0  0  0  0  0
   -0.1923    1.1526    0.7617 C   0  0  0  0  0  0  0  0  0  0  0  0
   -1.1582    1.8438    0.4410 O   0  0  0  0  0  0  0  0  0  0  0  0
    0.7203    1.5683    1.6472 N   0  0  0  0  0  0  0  0  0  0  0  0
    1.5210    0.9664    1.8100 H   0  0  0  0  0  0  0  0  0  0  0  0
    0.6747    2.8558    2.3368 C   0  0  0  0  0  0  0  0  0  0  0  0
   -0.3018    2.9877    2.8079 H   0  0  0  0  0  0  0  0  0  0  0  0
    1.4516    2.8997    3.1011 H   0  0  0  0  0  0  0  0  0  0  0  0
    0.8279    3.6639    1.6193 H   0  0  0  0  0  0  0  0  0  0  0  0
  5  6  2  0  0  0  0
  5  7  1  0  0  0  0
  2  3  1  0  0  0  0
  2  4  1  0  0  0  0
  2  5  1  0  0  0  0
  1  2  1  0  0  0  0
 18 19  2  0  0  0  0
 18 20  1  0  0  0  0
 16 17  1  0  0  0  0
 14 15  2  0  0  0  0
 14 16  1  0  0  0  0
 11 12  1  0  0  0  0
 11 13  1  0  0  0  0
 11 14  1  0  0  0  0
  9 10  1  0  0  0  0
  9 11  1  0  0  0  0
  9 18  1  0  0  0  0
  7  8  1  0  0  0  0
  7  9  1  0  0  0  0
 22 23  1  0  0  0  0
 22 24  1  0  0  0  0
 22 25  1  0  0  0  0
 20 21  1  0  0  0  0
 20 22  1  0  0  0  0
M  END
$$$$
default_name
  -OEChem-02102213163D

 25 24  0     1  0  0  0  0  0999 V2000
   -2.7826   -3.8464    0.7821 H   0  0  0  0  0  0  0  0  0  0  0  0
   -2.8156   -2.8034    0.4711 C   0  0  0  0  0  0  0  0  0  0  0  0
   -3.4336   -2.2354    1.1641 H   0  0  0  0  0  0  0  0  0  0  0  0
   -3.2256   -2.7344   -0.5349 H   0  0  0  0  0  0  0  0  0  0  0  0
   -1.4126   -2.2444    0.4801 C   0  0  0  0  0  0  0  0  0  0  0  0
   -0.4686   -2.9534    0.8001 O   0  0  0  0  0  0  0  0  0  0  0  0
   -1.2736   -0.9704    0.1241 N   0  0  0  0  0  0  0  0  0  0  0  0
   -2.0996   -0.4354   -0.1019 H   0  0  0  0  0  0  0  0  0  0  0  0
   -0.0016   -0.2394    0.1271 C   0  0  1  0  0  0  0  0  0  0  0  0
    0.7164   -0.7963    0.7332 H   0  0  0  0  0  0  0  0  0  0  0  0
    0.5351   -0.1414   -1.3146 C   0  0  0  0  0  0  0  0  0  0  0  0
    0.3732    0.8681   -1.6943 H   0  0  0  0  0  0  0  0  0  0  0  0
    1.6086   -0.3336   -1.3207 H   0  0  0  0  0  0  0  0  0  0  0  0
   -0.1518   -1.0985   -2.2843 C   0  0  0  0  0  0  0  0  0  0  0  0
   -0.6277   -2.1879   -1.9931 O   0  0  0  0  0  0  0  0  0  0  0  0
   -0.2079   -0.6674   -3.5583 O   0  0  0  0  0  0  0  0  0  0  0  0
   -0.6752   -1.3470   -4.0450 H   0  0  0  0  0  0  0  0  0  0  0  0
   -0.1923    1.1526    0.7617 C   0  0  0  0  0  0  0  0  0  0  0  0
   -1.1582    1.8438    0.4410 O   0  0  0  0  0  0  0  0  0  0  0  0
    0.7203    1.5683    1.6472 N   0  0  0  0  0  0  0  0  0  0  0  0
    1.5210    0.9664    1.8100 H   0  0  0  0  0  0  0  0  0  0  0  0
    0.6747    2.8558    2.3368 C   0  0  0  0  0  0  0  0  0  0  0  0
   -0.3018    2.9877    2.8079 H   0  0  0  0  0  0  0  0  0  0  0  0
    1.4516    2.8997    3.1011 H   0  0  0  0  0  0  0  0  0  0  0  0
    0.8279    3.6639    1.6193 H   0  0  0  0  0  0  0  0  0  0  0  0
  5  6  2  0  0  0  0
  5  7  1  0  0  0  0
  2  3  1  0  0  0  0
  2  4  1  0  0  0  0
  2  5  1  0  0  0  0
  1  2  1  0  0  0  0
 18 19  2  0  0  0  0
 18 20  1  0  0  0  0
 16 17  1  0  0  0  0
 14 15  2  0  0  0  0
 14 16  1  0  0  0  0
 11 12  1  0  0  0  0
 11 13  1  0  0  0  0
 11 14  1  0  0  0  0
  9 10  1  0  0  0  0
  9 11  1  0  0  0  0
  9 18  1  0  0  0  0
  7  8  1  0  0  0  0
  7  9  1  0  0  0  0
 22 23  1  0  0  0  0
 22 24  1  0  0  0  0
 22 25  1  0  0  0  0
 20 21  1  0  0  0  0
 20 22  1  0  0  0  0
M  END
$$$$
default_name
  -OEChem-02102213163D

 25 24  0     1  0  0  0  0  0999 V2000
   -2.7826   -3.8464    0.7821 H   0  0  0  0  0  0  0  0  0  0  0  0
   -2.8156   -2.8034    0.4711 C   0  0  0  0  0  0  0  0  0  0  0  0
   -3.4336   -2.2354    1.1641 H   0  0  0  0  0  0  0  0  0  0  0  0
   -3.2256   -2.7344   -0.5349 H   0  0  0  0  0  0  0  0  0  0  0  0
   -1.4126   -2.2444    0.4801 C   0  0  0  0  0  0  0  0  0  0  0  0
   -0.4686   -2.9534    0.8001 O   0  0  0  0  0  0  0  0  0  0  0  0
   -1.2736   -0.9704    0.1241 N   0  0  0  0  0  0  0  0  0  0  0  0
   -2.0996   -0.4354   -0.1019 H   0  0  0  0  0  0  0  0  0  0  0  0
   -0.0016   -0.2394    0.1271 C   0  0  1  0  0  0  0  0  0  0  0  0
    0.7164   -0.7963    0.7332 H   0  0  0  0  0  0  0  0  0  0  0  0
    0.5351   -0.1414   -1.3146 C   0  0  0  0  0  0  0  0  0  0  0  0
    0.3732    0.8681   -1.6943 H   0  0  0  0  0  0  0  0  0  0  0  0
    1.6086   -0.3336   -1.3207 H   0  0  0  0  0  0  0  0  0  0  0  0
   -0.1518   -1.0985   -2.2843 C   0  0  0  0  0  0  0  0  0  0  0  0
   -0.8489   -2.0538   -1.9688 O   0  0  0  0  0  0  0  0  0  0  0  0
    0.0631   -0.8333   -3.5864 O   0  0  0  0  0  0  0  0  0  0  0  0
   -0.4356   -1.4899   -4.0737 H   0  0  0  0  0  0  0  0  0  0  0  0
   -0.1923    1.1526    0.7617 C   0  0  0  0  0  0  0  0  0  0  0  0
   -1.1582    1.8438    0.4410 O   0  0  0  0  0  0  0  0  0  0  0  0
    0.7203    1.5683    1.6472 N   0  0  0  0  0  0  0  0  0  0  0  0
    1.5210    0.9664    1.8100 H   0  0  0  0  0  0  0  0  0  0  0  0
    0.6747    2.8558    2.3368 C   0  0  0  0  0  0  0  0  0  0  0  0
   -0.3018    2.9877    2.8079 H   0  0  0  0  0  0  0  0  0  0  0  0
    1.4516    2.8997    3.1011 H   0  0  0  0  0  0  0  0  0  0  0  0
    0.8279    3.6639    1.6193 H   0  0  0  0  0  0  0  0  0  0  0  0
  5  6  2  0  0  0  0
  5  7  1  0  0  0  0
  2  3  1  0  0  0  0
  2  4  1  0  0  0  0
  2  5  1  0  0  0  0
  1  2  1  0  0  0  0
 18 19  2  0  0  0  0
 18 20  1  0  0  0  0
 16 17  1  0  0  0  0
 14 15  2  0  0  0  0
 14 16  1  0  0  0  0
 11 12  1  0  0  0  0
 11 13  1  0  0  0  0
 11 14  1  0  0  0  0
  9 10  1  0  0  0  0
  9 11  1  0  0  0  0
  9 18  1  0  0  0  0
  7  8  1  0  0  0  0
  7  9  1  0  0  0  0
 22 23  1  0  0  0  0
 22 24  1  0  0  0  0
 22 25  1  0  0  0  0
 20 21  1  0  0  0  0
 20 22  1  0  0  0  0
M  END
$$$$
default_name
  -OEChem-02102213163D

 25 24  0     1  0  0  0  0  0999 V2000
   -2.7826   -3.8464    0.7821 H   0  0  0  0  0  0  0  0  0  0  0  0
   -2.8156   -2.8034    0.4711 C   0  0  0  0  0  0  0  0  0  0  0  0
   -3.4336   -2.2354    1.1641 H   0  0  0  0  0  0  0  0  0  0  0  0
   -3.2256   -2.7344   -0.5349 H   0  0  0  0  0  0  0  0  0  0  0  0
   -1.4126   -2.2444    0.4801 C   0  0  0  0  0  0  0  0  0  0  0  0
   -0.4686   -2.9534    0.8001 O   0  0  0  0  0  0  0  0  0  0  0  0
   -1.2736   -0.9704    0.1241 N   0  0  0  0  0  0  0  0  0  0  0  0
   -2.0996   -0.4354   -0.1019 H   0  0  0  0  0  0  0  0  0  0  0  0
   -0.0016   -0.2394    0.1271 C   0  0  1  0  0  0  0  0  0  0  0  0
    0.7164   -0.7963    0.7332 H   0  0  0  0  0  0  0  0  0  0  0  0
    0.5351   -0.1414   -1.3146 C   0  0  0  0  0  0  0  0  0  0  0  0
    0.3732    0.8681   -1.6943 H   0  0  0  0  0  0  0  0  0  0  0  0
    1.6086   -0.3336   -1.3207 H   0  0  0  0  0  0  0  0  0  0  0  0
   -0.1518   -1.0985   -2.2843 C   0  0  0  0  0  0  0  0  0  0  0  0
   -1.0445   -1.8850   -1.9968 O   0  0  0  0  0  0  0  0  0  0  0  0
    0.3021   -1.0415   -3.5503 O   0  0  0  0  0  0  0  0  0  0  0  0
   -0.2230   -1.6706   -4.0459 H   0  0  0  0  0  0  0  0  0  0  0  0
   -0.1923    1.1526    0.7617 C   0  0  0  0  0  0  0  0  0  0  0  0
   -1.1582    1.8438    0.4410 O   0  0  0  0  0  0  0  0  0  0  0  0
    0.7203    1.5683    1.6472 N   0  0  0  0  0  0  0  0  0  0  0  0
    1.5210    0.9664    1.8100 H   0  0  0  0  0  0  0  0  0  0  0  0
    0.6747    2.8558    2.3368 C   0  0  0  0  0  0  0  0  0  0  0  0
   -0.3018    2.9877    2.8079 H   0  0  0  0  0  0  0  0  0  0  0  0
    1.4516    2.8997    3.1011 H   0  0  0  0  0  0  0  0  0  0  0  0
    0.8279    3.6639    1.6193 H   0  0  0  0  0  0  0  0  0  0  0  0
  5  6  2  0  0  0  0
  5  7  1  0  0  0  0
  2  3  1  0  0  0  0
  2  4  1  0  0  0  0
  2  5  1  0  0  0  0
  1  2  1  0  0  0  0
 18 19  2  0  0  0  0
 18 20  1  0  0  0  0
 16 17  1  0  0  0  0
 14 15  2  0  0  0  0
 14 16  1  0  0  0  0
 11 12  1  0  0  0  0
 11 13  1  0  0  0  0
 11 14  1  0  0  0  0
  9 10  1  0  0  0  0
  9 11  1  0  0  0  0
  9 18  1  0  0  0  0
  7  8  1  0  0  0  0
  7  9  1  0  0  0  0
 22 23  1  0  0  0  0
 22 24  1  0  0  0  0
 22 25  1  0  0  0  0
 20 21  1  0  0  0  0
 20 22  1  0  0  0  0
M  END
$$$$
default_name
  -OEChem-02102213163D

 25 24  0     1  0  0  0  0  0999 V2000
   -2.7826   -3.8464    0.7821 H   0  0  0  0  0  0  0  0  0  0  0  0
   -2.8156   -2.8034    0.4711 C   0  0  0  0  0  0  0  0  0  0  0  0
   -3.4336   -2.2354    1.1641 H   0  0  0  0  0  0  0  0  0  0  0  0
   -3.2256   -2.7344   -0.5349 H   0  0  0  0  0  0  0  0  0  0  0  0
   -1.4126   -2.2444    0.4801 C   0  0  0  0  0  0  0  0  0  0  0  0
   -0.4686   -2.9534    0.8001 O   0  0  0  0  0  0  0  0  0  0  0  0
   -1.2736   -0.9704    0.1241 N   0  0  0  0  0  0  0  0  0  0  0  0
   -2.0996   -0.4354   -0.1019 H   0  0  0  0  0  0  0  0  0  0  0  0
   -0.0016   -0.2394    0.1271 C   0  0  1  0  0  0  0  0  0  0  0  0
    0.7164   -0.7963    0.7332 H   0  0  0  0  0  0  0  0  0  0  0  0
    0.5351   -0.1414   -1.3146 C   0  0  0  0  0  0  0  0  0  0  0  0
    0.3732    0.8681   -1.6943 H   0  0  0  0  0  0  0  0  0  0  0  0
    1.6086   -0.3336   -1.3207 H   0  0  0  0  0  0  0  0  0  0  0  0
   -0.1518   -1.0985   -2.2843 C   0  0  0  0  0  0  0  0  0  0  0  0
   -1.2010   -1.6931   -2.0753 O   0  0  0  0  0  0  0  0  0  0  0  0
    0.4929   -1.2776   -3.4523 O   0  0  0  0  0  0  0  0  0  0  0  0
   -0.0519   -1.8769   -3.9635 H   0  0  0  0  0  0  0  0  0  0  0  0
   -0.1923    1.1526    0.7617 C   0  0  0  0  0  0  0  0  0  0  0  0
   -1.1582    1.8438    0.4410 O   0  0  0  0  0  0  0  0  0  0  0  0
    0.7203    1.5683    1.6472 N   0  0  0  0  0  0  0  0  0  0  0  0
    1.5210    0.9664    1.8100 H   0  0  0  0  0  0  0  0  0  0  0  0
    0.6747    2.8558    2.3368 C   0  0  0  0  0  0  0  0  0  0  0  0
   -0.3018    2.9877    2.8079 H   0  0  0  0  0  0  0  0  0  0  0  0
    1.4516    2.8997    3.1011 H   0  0  0  0  0  0  0  0  0  0  0  0
    0.8279    3.6639    1.6193 H   0  0  0  0  0  0  0  0  0  0  0  0
  5  6  2  0  0  0  0
  5  7  1  0  0  0  0
  2  3  1  0  0  0  0
  2  4  1  0  0  0  0
  2  5  1  0  0  0  0
  1  2  1  0  0  0  0
 18 19  2  0  0  0  0
 18 20  1  0  0  0  0
 16 17  1  0  0  0  0
 14 15  2  0  0  0  0
 14 16  1  0  0  0  0
 11 12  1  0  0  0  0
 11 13  1  0  0  0  0
 11 14  1  0  0  0  0
  9 10  1  0  0  0  0
  9 11  1  0  0  0  0
  9 18  1  0  0  0  0
  7  8  1  0  0  0  0
  7  9  1  0  0  0  0
 22 23  1  0  0  0  0
 22 24  1  0  0  0  0
 22 25  1  0  0  0  0
 20 21  1  0  0  0  0
 20 22  1  0  0  0  0
M  END
$$$$
default_name
  -OEChem-02102213163D

 25 24  0     1  0  0  0  0  0999 V2000
   -2.7826   -3.8464    0.7821 H   0  0  0  0  0  0  0  0  0  0  0  0
   -2.8156   -2.8034    0.4711 C   0  0  0  0  0  0  0  0  0  0  0  0
   -3.4336   -2.2354    1.1641 H   0  0  0  0  0  0  0  0  0  0  0  0
   -3.2256   -2.7344   -0.5349 H   0  0  0  0  0  0  0  0  0  0  0  0
   -1.4126   -2.2444    0.4801 C   0  0  0  0  0  0  0  0  0  0  0  0
   -0.4686   -2.9534    0.8001 O   0  0  0  0  0  0  0  0  0  0  0  0
   -1.2736   -0.9704    0.1241 N   0  0  0  0  0  0  0  0  0  0  0  0
   -2.0996   -0.4354   -0.1019 H   0  0  0  0  0  0  0  0  0  0  0  0
   -0.0016   -0.2394    0.1271 C   0  0  1  0  0  0  0  0  0  0  0  0
    0.7164   -0.7963    0.7332 H   0  0  0  0  0  0  0  0  0  0  0  0
    0.5351   -0.1414   -1.3146 C   0  0  0  0  0  0  0  0  0  0  0  0
    0.3732    0.8681   -1.6943 H   0  0  0  0  0  0  0  0  0  0  0  0
    1.6086   -0.3336   -1.3207 H   0  0  0  0  0  0  0  0  0  0  0  0
   -0.1518   -1.0985   -2.2843 C   0  0  0  0  0  0  0  0  0  0  0  0
   -1.3079   -1.4911   -2.1989 O   0  0  0  0  0  0  0  0  0  0  0  0
    0.6224   -1.5257   -3.2992 O   0  0  0  0  0  0  0  0  0  0  0  0
    0.0661   -2.0948   -3.8321 H   0  0  0  0  0  0  0  0  0  0  0  0
   -0.1923    1.1526    0.7617 C   0  0  0  0  0  0  0  0  0  0  0  0
   -1.1582    1.8438    0.4410 O   0  0  0  0  0  0  0  0  0  0  0  0
    0.7203    1.5683    1.6472 N   0  0  0  0  0  0  0  0  0  0  0  0
    1.5210    0.9664    1.8100 H   0  0  0  0  0  0  0  0  0  0  0  0
    0.6747    2.8558    2.3368 C   0  0  0  0  0  0  0  0  0  0  0  0
   -0.3018    2.9877    2.8079 H   0  0  0  0  0  0  0  0  0  0  0  0
    1.4516    2.8997    3.1011 H   0  0  0  0  0  0  0  0  0  0  0  0
    0.8279    3.6639    1.6193 H   0  0  0  0  0  0  0  0  0  0  0  0
  5  6  2  0  0  0  0
  5  7  1  0  0  0  0
  2  3  1  0  0  0  0
  2  4  1  0  0  0  0
  2  5  1  0  0  0  0
  1  2  1  0  0  0  0
 18 19  2  0  0  0  0
 18 20  1  0  0  0  0
 16 17  1  0  0  0  0
 14 15  2  0  0  0  0
 14 16  1  0  0  0  0
 11 12  1  0  0  0  0
 11 13  1  0  0  0  0
 11 14  1  0  0  0  0
  9 10  1  0  0  0  0
  9 11  1  0  0  0  0
  9 18  1  0  0  0  0
  7  8  1  0  0  0  0
  7  9  1  0  0  0  0
 22 23  1  0  0  0  0
 22 24  1  0  0  0  0
 22 25  1  0  0  0  0
 20 21  1  0  0  0  0
 20 22  1  0  0  0  0
M  END
$$$$
default_name
  -OEChem-02102213163D

 25 24  0     1  0  0  0  0  0999 V2000
   -2.7826   -3.8464    0.7821 H   0  0  0  0  0  0  0  0  0  0  0  0
   -2.8156   -2.8034    0.4711 C   0  0  0  0  0  0  0  0  0  0  0  0
   -3.4336   -2.2354    1.1641 H   0  0  0  0  0  0  0  0  0  0  0  0
   -3.2256   -2.7344   -0.5349 H   0  0  0  0  0  0  0  0  0  0  0  0
   -1.4126   -2.2444    0.4801 C   0  0  0  0  0  0  0  0  0  0  0  0
   -0.4686   -2.9534    0.8001 O   0  0  0  0  0  0  0  0  0  0  0  0
   -1.2736   -0.9704    0.1241 N   0  0  0  0  0  0  0  0  0  0  0  0
   -2.0996   -0.4354   -0.1019 H   0  0  0  0  0  0  0  0  0  0  0  0
   -0.0016   -0.2394    0.1271 C   0  0  1  0  0  0  0  0  0  0  0  0
    0.7164   -0.7963    0.7332 H   0  0  0  0  0  0  0  0  0  0  0  0
    0.5351   -0.1414   -1.3146 C   0  0  0  0  0  0  0  0  0  0  0  0
    0.3732    0.8681   -1.6943 H   0  0  0  0  0  0  0  0  0  0  0  0
    1.6086   -0.3336   -1.3207 H   0  0  0  0  0  0  0  0  0  0  0  0
   -0.1518   -1.0985   -2.2843 C   0  0  0  0  0  0  0  0  0  0  0  0
   -1.3579   -1.2929   -2.3592 O   0  0  0  0  0  0  0  0  0  0  0  0
    0.6819   -1.7688   -3.1014 O   0  0  0  0  0  0  0  0  0  0  0  0
    0.1229   -2.3093   -3.6606 H   0  0  0  0  0  0  0  0  0  0  0  0
   -0.1923    1.1526    0.7617 C   0  0  0  0  0  0  0  0  0  0  0  0
   -1.1582    1.8438    0.4410 O   0  0  0  0  0  0  0  0  0  0  0  0
    0.7203    1.5683    1.6472 N   0  0  0  0  0  0  0  0  0  0  0  0
    1.5210    0.9664    1.8100 H   0  0  0  0  0  0  0  0  0  0  0  0
    0.6747    2.8558    2.3368 C   0  0  0  0  0  0  0  0  0  0  0  0
   -0.3018    2.9877    2.8079 H   0  0  0  0  0  0  0  0  0  0  0  0
    1.4516    2.8997    3.1011 H   0  0  0  0  0  0  0  0  0  0  0  0
    0.8279    3.6639    1.6193 H   0  0  0  0  0  0  0  0  0  0  0  0
  5  6  2  0  0  0  0
  5  7  1  0  0  0  0
  2  3  1  0  0  0  0
  2  4  1  0  0  0  0
  2  5  1  0  0  0  0
  1  2  1  0  0  0  0
 18 19  2  0  0  0  0
 18 20  1  0  0  0  0
 16 17  1  0  0  0  0
 14 15  2  0  0  0  0
 14 16  1  0  0  0  0
 11 12  1  0  0  0  0
 11 13  1  0  0  0  0
 11 14  1  0  0  0  0
  9 10  1  0  0  0  0
  9 11  1  0  0  0  0
  9 18  1  0  0  0  0
  7  8  1  0  0  0  0
  7  9  1  0  0  0  0
 22 23  1  0  0  0  0
 22 24  1  0  0  0  0
 22 25  1  0  0  0  0
 20 21  1  0  0  0  0
 20 22  1  0  0  0  0
M  END
$$$$
default_name
  -OEChem-02102213163D

 25 24  0     1  0  0  0  0  0999 V2000
   -2.7826   -3.8464    0.7821 H   0  0  0  0  0  0  0  0  0  0  0  0
   -2.8156   -2.8034    0.4711 C   0  0  0  0  0  0  0  0  0  0  0  0
   -3.4336   -2.2354    1.1641 H   0  0  0  0  0  0  0  0  0  0  0  0
   -3.2256   -2.7344   -0.5349 H   0  0  0  0  0  0  0  0  0  0  0  0
   -1.4126   -2.2444    0.4801 C   0  0  0  0  0  0  0  0  0  0  0  0
   -0.4686   -2.9534    0.8001 O   0  0  0  0  0  0  0  0  0  0  0  0
   -1.2736   -0.9704    0.1241 N   0  0  0  0  0  0  0  0  0  0  0  0
   -2.0996   -0.4354   -0.1019 H   0  0  0  0  0  0  0  0  0  0  0  0
   -0.0016   -0.2394    0.1271 C   0  0  1  0  0  0  0  0  0  0  0  0
    0.7164   -0.7963    0.7332 H   0  0  0  0  0  0  0  0  0  0  0  0
    0.5351   -0.1414   -1.3146 C   0  0  0  0  0  0  0  0  0  0  0  0
    0.3732    0.8681   -1.6943 H   0  0  0  0  0  0  0  0  0  0  0  0
    1.6086   -0.3336   -1.3207 H   0  0  0  0  0  0  0  0  0  0  0  0
   -0.1518   -1.0985   -2.2843 C   0  0  0  0  0  0  0  0  0  0  0  0
   -1.3476   -1.1118   -2.5453 O   0  0  0  0  0  0  0  0  0  0  0  0
    0.6672   -1.9904   -2.8723 O   0  0  0  0  0  0  0  0  0  0  0  0
    0.1146   -2.5058   -3.4607 H   0  0  0  0  0  0  0  0  0  0  0  0
   -0.1923    1.1526    0.7617 C   0  0  0  0  0  0  0  0  0  0  0  0
   -1.1582    1.8438    0.4410 O   0  0  0  0  0  0  0  0  0  0  0  0
    0.7203    1.5683    1.6472 N   0  0  0  0  0  0  0  0  0  0  0  0
    1.5210    0.9664    1.8100 H   0  0  0  0  0  0  0  0  0  0  0  0
    0.6747    2.8558    2.3368 C   0  0  0  0  0  0  0  0  0  0  0  0
   -0.3018    2.9877    2.8079 H   0  0  0  0  0  0  0  0  0  0  0  0
    1.4516    2.8997    3.1011 H   0  0  0  0  0  0  0  0  0  0  0  0
    0.8279    3.6639    1.6193 H   0  0  0  0  0  0  0  0  0  0  0  0
  5  6  2  0  0  0  0
  5  7  1  0  0  0  0
  2  3  1  0  0  0  0
  2  4  1  0  0  0  0
  2  5  1  0  0  0  0
  1  2  1  0  0  0  0
 18 19  2  0  0  0  0
 18 20  1  0  0  0  0
 16 17  1  0  0  0  0
 14 15  2  0  0  0  0
 14 16  1  0  0  0  0
 11 12  1  0  0  0  0
 11 13  1  0  0  0  0
 11 14  1  0  0  0  0
  9 10  1  0  0  0  0
  9 11  1  0  0  0  0
  9 18  1  0  0  0  0
  7  8  1  0  0  0  0
  7  9  1  0  0  0  0
 22 23  1  0  0  0  0
 22 24  1  0  0  0  0
 22 25  1  0  0  0  0
 20 21  1  0  0  0  0
 20 22  1  0  0  0  0
M  END
$$$$
default_name
  -OEChem-02102213163D

 25 24  0     1  0  0  0  0  0999 V2000
   -2.7826   -3.8464    0.7821 H   0  0  0  0  0  0  0  0  0  0  0  0
   -2.8156   -2.8034    0.4711 C   0  0  0  0  0  0  0  0  0  0  0  0
   -3.4336   -2.2354    1.1641 H   0  0  0  0  0  0  0  0  0  0  0  0
   -3.2256   -2.7344   -0.5349 H   0  0  0  0  0  0  0  0  0  0  0  0
   -1.4126   -2.2444    0.4801 C   0  0  0  0  0  0  0  0  0  0  0  0
   -0.4686   -2.9534    0.8001 O   0  0  0  0  0  0  0  0  0  0  0  0
   -1.2736   -0.9704    0.1241 N   0  0  0  0  0  0  0  0  0  0  0  0
   -2.0996   -0.4354   -0.1019 H   0  0  0  0  0  0  0  0  0  0  0  0
   -0.0016   -0.2394    0.1271 C   0  0  1  0  0  0  0  0  0  0  0  0
    0.7164   -0.7963    0.7332 H   0  0  0  0  0  0  0  0  0  0  0  0
    0.5351   -0.1414   -1.3146 C   0  0  0  0  0  0  0  0  0  0  0  0
    0.3732    0.8681   -1.6943 H   0  0  0  0  0  0  0  0  0  0  0  0
    1.6086   -0.3336   -1.3207 H   0  0  0  0  0  0  0  0  0  0  0  0
   -0.1518   -1.0985   -2.2843 C   0  0  0  0  0  0  0  0  0  0  0  0
   -1.2776   -0.9603   -2.7444 O   0  0  0  0  0  0  0  0  0  0  0  0
    0.5794   -2.1753   -2.6277 O   0  0  0  0  0  0  0  0  0  0  0  0
    0.0419   -2.6711   -3.2461 H   0  0  0  0  0  0  0  0  0  0  0  0
   -0.1923    1.1526    0.7617 C   0  0  0  0  0  0  0  0  0  0  0  0
   -1.1582    1.8438    0.4410 O   0  0  0  0  0  0  0  0  0  0  0  0
    0.7203    1.5683    1.6472 N   0  0  0  0  0  0  0  0  0  0  0  0
    1.5210    0.9664    1.8100 H   0  0  0  0  0  0  0  0  0  0  0  0
    0.6747    2.8558    2.3368 C   0  0  0  0  0  0  0  0  0  0  0  0
   -0.3018    2.9877    2.8079 H   0  0  0  0  0  0  0  0  0  0  0  0
    1.4516    2.8997    3.1011 H   0  0  0  0  0  0  0  0  0  0  0  0
    0.8279    3.6639    1.6193 H   0  0  0  0  0  0  0  0  0  0  0  0
  5  6  2  0  0  0  0
  5  7  1  0  0  0  0
  2  3  1  0  0  0  0
  2  4  1  0  0  0  0
  2  5  1  0  0  0  0
  1  2  1  0  0  0  0
 18 19  2  0  0  0  0
 18 20  1  0  0  0  0
 16 17  1  0  0  0  0
 14 15  2  0  0  0  0
 14 16  1  0  0  0  0
 11 12  1  0  0  0  0
 11 13  1  0  0  0  0
 11 14  1  0  0  0  0
  9 10  1  0  0  0  0
  9 11  1  0  0  0  0
  9 18  1  0  0  0  0
  7  8  1  0  0  0  0
  7  9  1  0  0  0  0
 22 23  1  0  0  0  0
 22 24  1  0  0  0  0
 22 25  1  0  0  0  0
 20 21  1  0  0  0  0
 20 22  1  0  0  0  0
M  END
$$$$
default_name
  -OEChem-02102213163D

 25 24  0     1  0  0  0  0  0999 V2000
   -2.7826   -3.8464    0.7821 H   0  0  0  0  0  0  0  0  0  0  0  0
   -2.8156   -2.8034    0.4711 C   0  0  0  0  0  0  0  0  0  0  0  0
   -3.4336   -2.2354    1.1641 H   0  0  0  0  0  0  0  0  0  0  0  0
   -3.2256   -2.7344   -0.5349 H   0  0  0  0  0  0  0  0  0  0  0  0
   -1.4126   -2.2444    0.4801 C   0  0  0  0  0  0  0  0  0  0  0  0
   -0.4686   -2.9534    0.8001 O   0  0  0  0  0  0  0  0  0  0  0  0
   -1.2736   -0.9704    0.1241 N   0  0  0  0  0  0  0  0  0  0  0  0
   -2.0996   -0.4354   -0.1019 H   0  0  0  0  0  0  0  0  0  0  0  0
   -0.0016   -0.2394    0.1271 C   0  0  1  0  0  0  0  0  0  0  0  0
    0.7164   -0.7963    0.7332 H   0  0  0  0  0  0  0  0  0  0  0  0
    0.5351   -0.1414   -1.3146 C   0  0  0  0  0  0  0  0  0  0  0  0
    0.3732    0.8681   -1.6943 H   0  0  0  0  0  0  0  0  0  0  0  0
    1.6086   -0.3336   -1.3207 H   0  0  0  0  0  0  0  0  0  0  0  0
   -0.1518   -1.0985   -2.2843 C   0  0  0  0  0  0  0  0  0  0  0  0
   -1.1527   -0.8486   -2.9430 O   0  0  0  0  0  0  0  0  0  0  0  0
    0.4244   -2.3109   -2.3840 O   0  0  0  0  0  0  0  0  0  0  0  0
   -0.0904   -2.7937   -3.0314 H   0  0  0  0  0  0  0  0  0  0  0  0
   -0.1923    1.1526    0.7617 C   0  0  0  0  0  0  0  0  0  0  0  0
   -1.1582    1.8438    0.4410 O   0  0  0  0  0  0  0  0  0  0  0  0
    0.7203    1.5683    1.6472 N   0  0  0  0  0  0  0  0  0  0  0  0
    1.5210    0.9664    1.8100 H   0  0  0  0  0  0  0  0  0  0  0  0
    0.6747    2.8558    2.3368 C   0  0  0  0  0  0  0  0  0  0  0  0
   -0.3018    2.9877    2.8079 H   0  0  0  0  0  0  0  0  0  0  0  0
    1.4516    2.8997    3.1011 H   0  0  0  0  0  0  0  0  0  0  0  0
    0.8279    3.6639    1.6193 H   0  0  0  0  0  0  0  0  0  0  0  0
  5  6  2  0  0  0  0
  5  7  1  0  0  0  0
  2  3  1  0  0  0  0
  2  4  1  0  0  0  0
  2  5  1  0  0  0  0
  1  2  1  0  0  0  0
 18 19  2  0  0  0  0
 18 20  1  0  0  0  0
 16 17  1  0  0  0  0
 14 15  2  0  0  0  0
 14 16  1  0  0  0  0
 11 12  1  0  0  0  0
 11 13  1  0  0  0  0
 11 14  1  0  0  0  0
  9 10  1  0  0  0  0
  9 11  1  0  0  0  0
  9 18  1  0  0  0  0
  7  8  1  0  0  0  0
  7  9  1  0  0  0  0
 22 23  1  0  0  0  0
 22 24  1  0  0  0  0
 22 25  1  0  0  0  0
 20 21  1  0  0  0  0
 20 22  1  0  0  0  0
M  END
$$$$
default_name
  -OEChem-02102213163D

 25 24  0     1  0  0  0  0  0999 V2000
   -2.7826   -3.8464    0.7821 H   0  0  0  0  0  0  0  0  0  0  0  0
   -2.8156   -2.8034    0.4711 C   0  0  0  0  0  0  0  0  0  0  0  0
   -3.4336   -2.2354    1.1641 H   0  0  0  0  0  0  0  0  0  0  0  0
   -3.2256   -2.7344   -0.5349 H   0  0  0  0  0  0  0  0  0  0  0  0
   -1.4126   -2.2444    0.4801 C   0  0  0  0  0  0  0  0  0  0  0  0
   -0.4686   -2.9534    0.8001 O   0  0  0  0  0  0  0  0  0  0  0  0
   -1.2736   -0.9704    0.1241 N   0  0  0  0  0  0  0  0  0  0  0  0
   -2.0996   -0.4354   -0.1019 H   0  0  0  0  0  0  0  0  0  0  0  0
   -0.0016   -0.2394    0.1271 C   0  0  1  0  0  0  0  0  0  0  0  0
    0.7164   -0.7963    0.7332 H   0  0  0  0  0  0  0  0  0  0  0  0
    0.5351   -0.1414   -1.3146 C   0  0  0  0  0  0  0  0  0  0  0  0
    0.3732    0.8681   -1.6943 H   0  0  0  0  0  0  0  0  0  0  0  0
    1.6086   -0.3336   -1.3207 H   0  0  0  0  0  0  0  0  0  0  0  0
   -0.1518   -1.0985   -2.2843 C   0  0  0  0  0  0  0  0  0  0  0  0
   -0.9815   -0.7845   -3.1276 O   0  0  0  0  0  0  0  0  0  0  0  0
    0.2129   -2.3880   -2.1581 O   0  0  0  0  0  0  0  0  0  0  0  0
   -0.2732   -2.8653   -2.8312 H   0  0  0  0  0  0  0  0  0  0  0  0
   -0.1923    1.1526    0.7617 C   0  0  0  0  0  0  0  0  0  0  0  0
   -1.1582    1.8438    0.4410 O   0  0  0  0  0  0  0  0  0  0  0  0
    0.7203    1.5683    1.6472 N   0  0  0  0  0  0  0  0  0  0  0  0
    1.5210    0.9664    1.8100 H   0  0  0  0  0  0  0  0  0  0  0  0
    0.6747    2.8558    2.3368 C   0  0  0  0  0  0  0  0  0  0  0  0
   -0.3018    2.9877    2.8079 H   0  0  0  0  0  0  0  0  0  0  0  0
    1.4516    2.8997    3.1011 H   0  0  0  0  0  0  0  0  0  0  0  0
    0.8279    3.6639    1.6193 H   0  0  0  0  0  0  0  0  0  0  0  0
  5  6  2  0  0  0  0
  5  7  1  0  0  0  0
  2  3  1  0  0  0  0
  2  4  1  0  0  0  0
  2  5  1  0  0  0  0
  1  2  1  0  0  0  0
 18 19  2  0  0  0  0
 18 20  1  0  0  0  0
 16 17  1  0  0  0  0
 14 15  2  0  0  0  0
 14 16  1  0  0  0  0
 11 12  1  0  0  0  0
 11 13  1  0  0  0  0
 11 14  1  0  0  0  0
  9 10  1  0  0  0  0
  9 11  1  0  0  0  0
  9 18  1  0  0  0  0
  7  8  1  0  0  0  0
  7  9  1  0  0  0  0
 22 23  1  0  0  0  0
 22 24  1  0  0  0  0
 22 25  1  0  0  0  0
 20 21  1  0  0  0  0
 20 22  1  0  0  0  0
M  END
$$$$
default_name
  -OEChem-02102213163D

 25 24  0     1  0  0  0  0  0999 V2000
   -2.7826   -3.8464    0.7821 H   0  0  0  0  0  0  0  0  0  0  0  0
   -2.8156   -2.8034    0.4711 C   0  0  0  0  0  0  0  0  0  0  0  0
   -3.4336   -2.2354    1.1641 H   0  0  0  0  0  0  0  0  0  0  0  0
   -3.2256   -2.7344   -0.5349 H   0  0  0  0  0  0  0  0  0  0  0  0
   -1.4126   -2.2444    0.4801 C   0  0  0  0  0  0  0  0  0  0  0  0
   -0.4686   -2.9534    0.8001 O   0  0  0  0  0  0  0  0  0  0  0  0
   -1.2736   -0.9704    0.1241 N   0  0  0  0  0  0  0  0  0  0  0  0
   -2.0996   -0.4354   -0.1019 H   0  0  0  0  0  0  0  0  0  0  0  0
   -0.0016   -0.2394    0.1271 C   0  0  1  0  0  0  0  0  0  0  0  0
    0.7164   -0.7963    0.7332 H   0  0  0  0  0  0  0  0  0  0  0  0
    0.5351   -0.1414   -1.3146 C   0  0  0  0  0  0  0  0  0  0  0  0
    0.3732    0.8681   -1.6943 H   0  0  0  0  0  0  0  0  0  0  0  0
    1.6086   -0.3336   -1.3207 H   0  0  0  0  0  0  0  0  0  0  0  0
   -0.1518   -1.0985   -2.2843 C   0  0  0  0  0  0  0  0  0  0  0  0
   -0.7756   -0.7721   -3.2856 O   0  0  0  0  0  0  0  0  0  0  0  0
   -0.0408   -2.4014   -1.9651 O   0  0  0  0  0  0  0  0  0  0  0  0
   -0.4941   -2.8812   -2.6591 H   0  0  0  0  0  0  0  0  0  0  0  0
   -0.1923    1.1526    0.7617 C   0  0  0  0  0  0  0  0  0  0  0  0
   -1.1582    1.8438    0.4410 O   0  0  0  0  0  0  0  0  0  0  0  0
    0.7203    1.5683    1.6472 N   0  0  0  0  0  0  0  0  0  0  0  0
    1.5210    0.9664    1.8100 H   0  0  0  0  0  0  0  0  0  0  0  0
    0.6747    2.8558    2.3368 C   0  0  0  0  0  0  0  0  0  0  0  0
   -0.3018    2.9877    2.8079 H   0  0  0  0  0  0  0  0  0  0  0  0
    1.4516    2.8997    3.1011 H   0  0  0  0  0  0  0  0  0  0  0  0
    0.8279    3.6639    1.6193 H   0  0  0  0  0  0  0  0  0  0  0  0
  5  6  2  0  0  0  0
  5  7  1  0  0  0  0
  2  3  1  0  0  0  0
  2  4  1  0  0  0  0
  2  5  1  0  0  0  0
  1  2  1  0  0  0  0
 18 19  2  0  0  0  0
 18 20  1  0  0  0  0
 16 17  1  0  0  0  0
 14 15  2  0  0  0  0
 14 16  1  0  0  0  0
 11 12  1  0  0  0  0
 11 13  1  0  0  0  0
 11 14  1  0  0  0  0
  9 10  1  0  0  0  0
  9 11  1  0  0  0  0
  9 18  1  0  0  0  0
  7  8  1  0  0  0  0
  7  9  1  0  0  0  0
 22 23  1  0  0  0  0
 22 24  1  0  0  0  0
 22 25  1  0  0  0  0
 20 21  1  0  0  0  0
 20 22  1  0  0  0  0
M  END
$$$$
default_name
  -OEChem-02102213163D

 25 24  0     1  0  0  0  0  0999 V2000
   -2.7826   -3.8464    0.7821 H   0  0  0  0  0  0  0  0  0  0  0  0
   -2.8156   -2.8034    0.4711 C   0  0  0  0  0  0  0  0  0  0  0  0
   -3.4336   -2.2354    1.1641 H   0  0  0  0  0  0  0  0  0  0  0  0
   -3.2256   -2.7344   -0.5349 H   0  0  0  0  0  0  0  0  0  0  0  0
   -1.4126   -2.2444    0.4801 C   0  0  0  0  0  0  0  0  0  0  0  0
   -0.4686   -2.9534    0.8001 O   0  0  0  0  0  0  0  0  0  0  0  0
   -1.2736   -0.9704    0.1241 N   0  0  0  0  0  0  0  0  0  0  0  0
   -2.0996   -0.4354   -0.1019 H   0  0  0  0  0  0  0  0  0  0  0  0
   -0.0016   -0.2394    0.1271 C   0  0  1  0  0  0  0  0  0  0  0  0
    0.7164   -0.7963    0.7332 H   0  0  0  0  0  0  0  0  0  0  0  0
    0.5351   -0.1414   -1.3146 C   0  0  0  0  0  0  0  0  0  0  0  0
    0.3732    0.8681   -1.6943 H   0  0  0  0  0  0  0  0  0  0  0  0
    1.6086   -0.3336   -1.3207 H   0  0  0  0  0  0  0  0  0  0  0  0
   -0.1518   -1.0985   -2.2843 C   0  0  0  0  0  0  0  0  0  0  0  0
   -0.5491   -0.8125   -3.4062 O   0  0  0  0  0  0  0  0  0  0  0  0
   -0.3194   -2.3502   -1.8184 O   0  0  0  0  0  0  0  0  0  0  0  0
   -0.7380   -2.8400   -2.5269 H   0  0  0  0  0  0  0  0  0  0  0  0
   -0.1923    1.1526    0.7617 C   0  0  0  0  0  0  0  0  0  0  0  0
   -1.1582    1.8438    0.4410 O   0  0  0  0  0  0  0  0  0  0  0  0
    0.7203    1.5683    1.6472 N   0  0  0  0  0  0  0  0  0  0  0  0
    1.5210    0.9664    1.8100 H   0  0  0  0  0  0  0  0  0  0  0  0
    0.6747    2.8558    2.3368 C   0  0  0  0  0  0  0  0  0  0  0  0
   -0.3018    2.9877    2.8079 H   0  0  0  0  0  0  0  0  0  0  0  0
    1.4516    2.8997    3.1011 H   0  0  0  0  0  0  0  0  0  0  0  0
    0.8279    3.6639    1.6193 H   0  0  0  0  0  0  0  0  0  0  0  0
  5  6  2  0  0  0  0
  5  7  1  0  0  0  0
  2  3  1  0  0  0  0
  2  4  1  0  0  0  0
  2  5  1  0  0  0  0
  1  2  1  0  0  0  0
 18 19  2  0  0  0  0
 18 20  1  0  0  0  0
 16 17  1  0  0  0  0
 14 15  2  0  0  0  0
 14 16  1  0  0  0  0
 11 12  1  0  0  0  0
 11 13  1  0  0  0  0
 11 14  1  0  0  0  0
  9 10  1  0  0  0  0
  9 11  1  0  0  0  0
  9 18  1  0  0  0  0
  7  8  1  0  0  0  0
  7  9  1  0  0  0  0
 22 23  1  0  0  0  0
 22 24  1  0  0  0  0
 22 25  1  0  0  0  0
 20 21  1  0  0  0  0
 20 22  1  0  0  0  0
M  END
$$$$
default_name
  -OEChem-02102213163D

 25 24  0     1  0  0  0  0  0999 V2000
   -2.7826   -3.8464    0.7821 H   0  0  0  0  0  0  0  0  0  0  0  0
   -2.8156   -2.8034    0.4711 C   0  0  0  0  0  0  0  0  0  0  0  0
   -3.4336   -2.2354    1.1641 H   0  0  0  0  0  0  0  0  0  0  0  0
   -3.2256   -2.7344   -0.5349 H   0  0  0  0  0  0  0  0  0  0  0  0
   -1.4126   -2.2444    0.4801 C   0  0  0  0  0  0  0  0  0  0  0  0
   -0.4686   -2.9534    0.8001 O   0  0  0  0  0  0  0  0  0  0  0  0
   -1.2736   -0.9704    0.1241 N   0  0  0  0  0  0  0  0  0  0  0  0
   -2.0996   -0.4354   -0.1019 H   0  0  0  0  0  0  0  0  0  0  0  0
   -0.0016   -0.2394    0.1271 C   0  0  1  0  0  0  0  0  0  0  0  0
    0.7164   -0.7963    0.7332 H   0  0  0  0  0  0  0  0  0  0  0  0
    0.5351   -0.1414   -1.3146 C   0  0  0  0  0  0  0  0  0  0  0  0
    0.3732    0.8681   -1.6943 H   0  0  0  0  0  0  0  0  0  0  0  0
    1.6086   -0.3336   -1.3207 H   0  0  0  0  0  0  0  0  0  0  0  0
   -0.1518   -1.0985   -2.2843 C   0  0  0  0  0  0  0  0  0  0  0  0
   -0.3173   -0.9029   -3.4812 O   0  0  0  0  0  0  0  0  0  0  0  0
   -0.6039   -2.2377   -1.7279 O   0  0  0  0  0  0  0  0  0  0  0  0
   -0.9883   -2.7448   -2.4437 H   0  0  0  0  0  0  0  0  0  0  0  0
   -0.1923    1.1526    0.7617 C   0  0  0  0  0  0  0  0  0  0  0  0
   -1.1582    1.8438    0.4410 O   0  0  0  0  0  0  0  0  0  0  0  0
    0.7203    1.5683    1.6472 N   0  0  0  0  0  0  0  0  0  0  0  0
    1.5210    0.9664    1.8100 H   0  0  0  0  0  0  0  0  0  0  0  0
    0.6747    2.8558    2.3368 C   0  0  0  0  0  0  0  0  0  0  0  0
   -0.3018    2.9877    2.8079 H   0  0  0  0  0  0  0  0  0  0  0  0
    1.4516    2.8997    3.1011 H   0  0  0  0  0  0  0  0  0  0  0  0
    0.8279    3.6639    1.6193 H   0  0  0  0  0  0  0  0  0  0  0  0
  5  6  2  0  0  0  0
  5  7  1  0  0  0  0
  2  3  1  0  0  0  0
  2  4  1  0  0  0  0
  2  5  1  0  0  0  0
  1  2  1  0  0  0  0
 18 19  2  0  0  0  0
 18 20  1  0  0  0  0
 16 17  1  0  0  0  0
 14 15  2  0  0  0  0
 14 16  1  0  0  0  0
 11 12  1  0  0  0  0
 11 13  1  0  0  0  0
 11 14  1  0  0  0  0
  9 10  1  0  0  0  0
  9 11  1  0  0  0  0
  9 18  1  0  0  0  0
  7  8  1  0  0  0  0
  7  9  1  0  0  0  0
 22 23  1  0  0  0  0
 22 24  1  0  0  0  0
 22 25  1  0  0  0  0
 20 21  1  0  0  0  0
 20 22  1  0  0  0  0
M  END
$$$$
default_name
  -OEChem-02102213163D

 25 24  0     1  0  0  0  0  0999 V2000
   -2.7826   -3.8464    0.7821 H   0  0  0  0  0  0  0  0  0  0  0  0
   -2.8156   -2.8034    0.4711 C   0  0  0  0  0  0  0  0  0  0  0  0
   -3.4336   -2.2354    1.1641 H   0  0  0  0  0  0  0  0  0  0  0  0
   -3.2256   -2.7344   -0.5349 H   0  0  0  0  0  0  0  0  0  0  0  0
   -1.4126   -2.2444    0.4801 C   0  0  0  0  0  0  0  0  0  0  0  0
   -0.4686   -2.9534    0.8001 O   0  0  0  0  0  0  0  0  0  0  0  0
   -1.2736   -0.9704    0.1241 N   0  0  0  0  0  0  0  0  0  0  0  0
   -2.0996   -0.4354   -0.1019 H   0  0  0  0  0  0  0  0  0  0  0  0
   -0.0016   -0.2394    0.1271 C   0  0  1  0  0  0  0  0  0  0  0  0
    0.7164   -0.7963    0.7332 H   0  0  0  0  0  0  0  0  0  0  0  0
    0.5351   -0.1414   -1.3146 C   0  0  0  0  0  0  0  0  0  0  0  0
    0.3732    0.8681   -1.6943 H   0  0  0  0  0  0  0  0  0  0  0  0
    1.6086   -0.3336   -1.3207 H   0  0  0  0  0  0  0  0  0  0  0  0
   -0.1518   -1.0985   -2.2843 C   0  0  0  0  0  0  0  0  0  0  0  0
   -0.0961   -1.0370   -3.5055 O   0  0  0  0  0  0  0  0  0  0  0  0
   -0.8749   -2.0718   -1.6997 O   0  0  0  0  0  0  0  0  0  0  0  0
   -1.2279   -2.6020   -2.4149 H   0  0  0  0  0  0  0  0  0  0  0  0
   -0.1923    1.1526    0.7617 C   0  0  0  0  0  0  0  0  0  0  0  0
   -1.1582    1.8438    0.4410 O   0  0  0  0  0  0  0  0  0  0  0  0
    0.7203    1.5683    1.6472 N   0  0  0  0  0  0  0  0  0  0  0  0
    1.5210    0.9664    1.8100 H   0  0  0  0  0  0  0  0  0  0  0  0
    0.6747    2.8558    2.3368 C   0  0  0  0  0  0  0  0  0  0  0  0
   -0.3018    2.9877    2.8079 H   0  0  0  0  0  0  0  0  0  0  0  0
    1.4516    2.8997    3.1011 H   0  0  0  0  0  0  0  0  0  0  0  0
    0.8279    3.6639    1.6193 H   0  0  0  0  0  0  0  0  0  0  0  0
  5  6  2  0  0  0  0
  5  7  1  0  0  0  0
  2  3  1  0  0  0  0
  2  4  1  0  0  0  0
  2  5  1  0  0  0  0
  1  2  1  0  0  0  0
 18 19  2  0  0  0  0
 18 20  1  0  0  0  0
 16 17  1  0  0  0  0
 14 15  2  0  0  0  0
 14 16  1  0  0  0  0
 11 12  1  0  0  0  0
 11 13  1  0  0  0  0
 11 14  1  0  0  0  0
  9 10  1  0  0  0  0
  9 11  1  0  0  0  0
  9 18  1  0  0  0  0
  7  8  1  0  0  0  0
  7  9  1  0  0  0  0
 22 23  1  0  0  0  0
 22 24  1  0  0  0  0
 22 25  1  0  0  0  0
 20 21  1  0  0  0  0
 20 22  1  0  0  0  0
M  END
$$$$
default_name
  -OEChem-02102213163D

 25 24  0     1  0  0  0  0  0999 V2000
   -2.7826   -3.8464    0.7821 H   0  0  0  0  0  0  0  0  0  0  0  0
   -2.8156   -2.8034    0.4711 C   0  0  0  0  0  0  0  0  0  0  0  0
   -3.4336   -2.2354    1.1641 H   0  0  0  0  0  0  0  0  0  0  0  0
   -3.2256   -2.7344   -0.5349 H   0  0  0  0  0  0  0  0  0  0  0  0
   -1.4126   -2.2444    0.4801 C   0  0  0  0  0  0  0  0  0  0  0  0
   -0.4686   -2.9534    0.8001 O   0  0  0  0  0  0  0  0  0  0  0  0
   -1.2736   -0.9704    0.1241 N   0  0  0  0  0  0  0  0  0  0  0  0
   -2.0996   -0.4354   -0.1019 H   0  0  0  0  0  0  0  0  0  0  0  0
   -0.0016   -0.2394    0.1271 C   0  0  1  0  0  0  0  0  0  0  0  0
    0.7164   -0.7963    0.7332 H   0  0  0  0  0  0  0  0  0  0  0  0
    0.5351   -0.1414   -1.3146 C   0  0  0  0  0  0  0  0  0  0  0  0
    0.6212    0.9079   -1.5993 H   0  0  0  0  0  0  0  0  0  0  0  0
    1.5297   -0.5856   -1.3672 H   0  0  0  0  0  0  0  0  0  0  0  0
   -0.3688   -0.8109   -2.3455 C   0  0  0  0  0  0  0  0  0  0  0  0
   -0.1575   -0.8652   -3.5500 O   0  0  0  0  0  0  0  0  0  0  0  0
   -1.4850   -1.3685   -1.8404 O   0  0  0  0  0  0  0  0  0  0  0  0
   -1.9410   -1.7632   -2.5843 H   0  0  0  0  0  0  0  0  0  0  0  0
   -0.1923    1.1526    0.7617 C   0  0  0  0  0  0  0  0  0  0  0  0
   -1.1582    1.8438    0.4410 O   0  0  0  0  0  0  0  0  0  0  0  0
    0.7203    1.5683    1.6472 N   0  0  0  0  0  0  0  0  0  0  0  0
    1.5210    0.9664    1.8100 H   0  0  0  0  0  0  0  0  0  0  0  0
    0.6747    2.8558    2.3368 C   0  0  0  0  0  0  0  0  0  0  0  0
   -0.3018    2.9877    2.8079 H   0  0  0  0  0  0  0  0  0  0  0  0
    1.4516    2.8997    3.1011 H   0  0  0  0  0  0  0  0  0  0  0  0
    0.8279    3.6639    1.6193 H   0  0  0  0  0  0  0  0  0  0  0  0
  5  6  2  0  0  0  0
  5  7  1  0  0  0  0
  2  3  1  0  0  0  0
  2  4  1  0  0  0  0
  2  5  1  0  0  0  0
  1  2  1  0  0  0  0
 18 19  2  0  0  0  0
 18 20  1  0  0  0  0
 16 17  1  0  0  0  0
 14 15  2  0  0  0  0
 14 16  1  0  0  0  0
 11 12  1  0  0  0  0
 11 13  1  0  0  0  0
 11 14  1  0  0  0  0
  9 10  1  0  0  0  0
  9 11  1  0  0  0  0
  9 18  1  0  0  0  0
  7  8  1  0  0  0  0
  7  9  1  0  0  0  0
 22 23  1  0  0  0  0
 22 24  1  0  0  0  0
 22 25  1  0  0  0  0
 20 21  1  0  0  0  0
 20 22  1  0  0  0  0
M  END
$$$$
default_name
  -OEChem-02102213163D

 25 24  0     1  0  0  0  0  0999 V2000
   -2.7826   -3.8464    0.7821 H   0  0  0  0  0  0  0  0  0  0  0  0
   -2.8156   -2.8034    0.4711 C   0  0  0  0  0  0  0  0  0  0  0  0
   -3.4336   -2.2354    1.1641 H   0  0  0  0  0  0  0  0  0  0  0  0
   -3.2256   -2.7344   -0.5349 H   0  0  0  0  0  0  0  0  0  0  0  0
   -1.4126   -2.2444    0.4801 C   0  0  0  0  0  0  0  0  0  0  0  0
   -0.4686   -2.9534    0.8001 O   0  0  0  0  0  0  0  0  0  0  0  0
   -1.2736   -0.9704    0.1241 N   0  0  0  0  0  0  0  0  0  0  0  0
   -2.0996   -0.4354   -0.1019 H   0  0  0  0  0  0  0  0  0  0  0  0
   -0.0016   -0.2394    0.1271 C   0  0  1  0  0  0  0  0  0  0  0  0
    0.7164   -0.7963    0.7332 H   0  0  0  0  0  0  0  0  0  0  0  0
    0.5351   -0.1414   -1.3146 C   0  0  0  0  0  0  0  0  0  0  0  0
    0.6212    0.9079   -1.5993 H   0  0  0  0  0  0  0  0  0  0  0  0
    1.5297   -0.5856   -1.3672 H   0  0  0  0  0  0  0  0  0  0  0  0
   -0.3688   -0.8109   -2.3455 C   0  0  0  0  0  0  0  0  0  0  0  0
   -0.0518   -1.0956   -3.4930 O   0  0  0  0  0  0  0  0  0  0  0  0
   -1.6132   -1.0853   -1.9118 O   0  0  0  0  0  0  0  0  0  0  0  0
   -2.0573   -1.5150   -2.6435 H   0  0  0  0  0  0  0  0  0  0  0  0
   -0.1923    1.1526    0.7617 C   0  0  0  0  0  0  0  0  0  0  0  0
   -1.1582    1.8438    0.4410 O   0  0  0  0  0  0  0  0  0  0  0  0
    0.7203    1.5683    1.6472 N   0  0  0  0  0  0  0  0  0  0  0  0
    1.5210    0.9664    1.8100 H   0  0  0  0  0  0  0  0  0  0  0  0
    0.6747    2.8558    2.3368 C   0  0  0  0  0  0  0  0  0  0  0  0
   -0.3018    2.9877    2.8079 H   0  0  0  0  0  0  0  0  0  0  0  0
    1.4516    2.8997    3.1011 H   0  0  0  0  0  0  0  0  0  0  0  0
    0.8279    3.6639    1.6193 H   0  0  0  0  0  0  0  0  0  0  0  0
  5  6  2  0  0  0  0
  5  7  1  0  0  0  0
  2  3  1  0  0  0  0
  2  4  1  0  0  0  0
  2  5  1  0  0  0  0
  1  2  1  0  0  0  0
 18 19  2  0  0  0  0
 18 20  1  0  0  0  0
 16 17  1  0  0  0  0
 14 15  2  0  0  0  0
 14 16  1  0  0  0  0
 11 12  1  0  0  0  0
 11 13  1  0  0  0  0
 11 14  1  0  0  0  0
  9 10  1  0  0  0  0
  9 11  1  0  0  0  0
  9 18  1  0  0  0  0
  7  8  1  0  0  0  0
  7  9  1  0  0  0  0
 22 23  1  0  0  0  0
 22 24  1  0  0  0  0
 22 25  1  0  0  0  0
 20 21  1  0  0  0  0
 20 22  1  0  0  0  0
M  END
$$$$
default_name
  -OEChem-02102213163D

 25 24  0     1  0  0  0  0  0999 V2000
   -2.7826   -3.8464    0.7821 H   0  0  0  0  0  0  0  0  0  0  0  0
   -2.8156   -2.8034    0.4711 C   0  0  0  0  0  0  0  0  0  0  0  0
   -3.4336   -2.2354    1.1641 H   0  0  0  0  0  0  0  0  0  0  0  0
   -3.2256   -2.7344   -0.5349 H   0  0  0  0  0  0  0  0  0  0  0  0
   -1.4126   -2.2444    0.4801 C   0  0  0  0  0  0  0  0  0  0  0  0
   -0.4686   -2.9534    0.8001 O   0  0  0  0  0  0  0  0  0  0  0  0
   -1.2736   -0.9704    0.1241 N   0  0  0  0  0  0  0  0  0  0  0  0
   -2.0996   -0.4354   -0.1019 H   0  0  0  0  0  0  0  0  0  0  0  0
   -0.0016   -0.2394    0.1271 C   0  0  1  0  0  0  0  0  0  0  0  0
    0.7164   -0.7963    0.7332 H   0  0  0  0  0  0  0  0  0  0  0  0
    0.5351   -0.1414   -1.3146 C   0  0  0  0  0  0  0  0  0  0  0  0
    0.6212    0.9079   -1.5993 H   0  0  0  0  0  0  0  0  0  0  0  0
    1.5297   -0.5856   -1.3672 H   0  0  0  0  0  0  0  0  0  0  0  0
   -0.3688   -0.8109   -2.3455 C   0  0  0  0  0  0  0  0  0  0  0  0
    0.0035   -1.3279   -3.3907 O   0  0  0  0  0  0  0  0  0  0  0  0
   -1.6794   -0.8002   -2.0389 O   0  0  0  0  0  0  0  0  0  0  0  0
   -2.1196   -1.2640   -2.7519 H   0  0  0  0  0  0  0  0  0  0  0  0
   -0.1923    1.1526    0.7617 C   0  0  0  0  0  0  0  0  0  0  0  0
   -1.1582    1.8438    0.4410 O   0  0  0  0  0  0  0  0  0  0  0  0
    0.7203    1.5683    1.6472 N   0  0  0  0  0  0  0  0  0  0  0  0
    1.5210    0.9664    1.8100 H   0  0  0  0  0  0  0  0  0  0  0  0
    0.6747    2.8558    2.3368 C   0  0  0  0  0  0  0  0  0  0  0  0
   -0.3018    2.9877    2.8079 H   0  0  0  0  0  0  0  0  0  0  0  0
    1.4516    2.8997    3.1011 H   0  0  0  0  0  0  0  0  0  0  0  0
    0.8279    3.6639    1.6193 H   0  0  0  0  0  0  0  0  0  0  0  0
  5  6  2  0  0  0  0
  5  7  1  0  0  0  0
  2  3  1  0  0  0  0
  2  4  1  0  0  0  0
  2  5  1  0  0  0  0
  1  2  1  0  0  0  0
 18 19  2  0  0  0  0
 18 20  1  0  0  0  0
 16 17  1  0  0  0  0
 14 15  2  0  0  0  0
 14 16  1  0  0  0  0
 11 12  1  0  0  0  0
 11 13  1  0  0  0  0
 11 14  1  0  0  0  0
  9 10  1  0  0  0  0
  9 11  1  0  0  0  0
  9 18  1  0  0  0  0
  7  8  1  0  0  0  0
  7  9  1  0  0  0  0
 22 23  1  0  0  0  0
 22 24  1  0  0  0  0
 22 25  1  0  0  0  0
 20 21  1  0  0  0  0
 20 22  1  0  0  0  0
M  END
$$$$
default_name
  -OEChem-02102213163D

 25 24  0     1  0  0  0  0  0999 V2000
   -2.7826   -3.8464    0.7821 H   0  0  0  0  0  0  0  0  0  0  0  0
   -2.8156   -2.8034    0.4711 C   0  0  0  0  0  0  0  0  0  0  0  0
   -3.4336   -2.2354    1.1641 H   0  0  0  0  0  0  0  0  0  0  0  0
   -3.2256   -2.7344   -0.5349 H   0  0  0  0  0  0  0  0  0  0  0  0
   -1.4126   -2.2444    0.4801 C   0  0  0  0  0  0  0  0  0  0  0  0
   -0.4686   -2.9534    0.8001 O   0  0  0  0  0  0  0  0  0  0  0  0
   -1.2736   -0.9704    0.1241 N   0  0  0  0  0  0  0  0  0  0  0  0
   -2.0996   -0.4354   -0.1019 H   0  0  0  0  0  0  0  0  0  0  0  0
   -0.0016   -0.2394    0.1271 C   0  0  1  0  0  0  0  0  0  0  0  0
    0.7164   -0.7963    0.7332 H   0  0  0  0  0  0  0  0  0  0  0  0
    0.5351   -0.1414   -1.3146 C   0  0  0  0  0  0  0  0  0  0  0  0
    0.6212    0.9079   -1.5993 H   0  0  0  0  0  0  0  0  0  0  0  0
    1.5297   -0.5856   -1.3672 H   0  0  0  0  0  0  0  0  0  0  0  0
   -0.3688   -0.8109   -2.3455 C   0  0  0  0  0  0  0  0  0  0  0  0
    0.0047   -1.5463   -3.2499 O   0  0  0  0  0  0  0  0  0  0  0  0
   -1.6791   -0.5328   -2.2128 O   0  0  0  0  0  0  0  0  0  0  0  0
   -2.1235   -1.0272   -2.9022 H   0  0  0  0  0  0  0  0  0  0  0  0
   -0.1923    1.1526    0.7617 C   0  0  0  0  0  0  0  0  0  0  0  0
   -1.1582    1.8438    0.4410 O   0  0  0  0  0  0  0  0  0  0  0  0
    0.7203    1.5683    1.6472 N   0  0  0  0  0  0  0  0  0  0  0  0
    1.5210    0.9664    1.8100 H   0  0  0  0  0  0  0  0  0  0  0  0
    0.6747    2.8558    2.3368 C   0  0  0  0  0  0  0  0  0  0  0  0
   -0.3018    2.9877    2.8079 H   0  0  0  0  0  0  0  0  0  0  0  0
    1.4516    2.8997    3.1011 H   0  0  0  0  0  0  0  0  0  0  0  0
    0.8279    3.6639    1.6193 H   0  0  0  0  0  0  0  0  0  0  0  0
  5  6  2  0  0  0  0
  5  7  1  0  0  0  0
  2  3  1  0  0  0  0
  2  4  1  0  0  0  0
  2  5  1  0  0  0  0
  1  2  1  0  0  0  0
 18 19  2  0  0  0  0
 18 20  1  0  0  0  0
 16 17  1  0  0  0  0
 14 15  2  0  0  0  0
 14 16  1  0  0  0  0
 11 12  1  0  0  0  0
 11 13  1  0  0  0  0
 11 14  1  0  0  0  0
  9 10  1  0  0  0  0
  9 11  1  0  0  0  0
  9 18  1  0  0  0  0
  7  8  1  0  0  0  0
  7  9  1  0  0  0  0
 22 23  1  0  0  0  0
 22 24  1  0  0  0  0
 22 25  1  0  0  0  0
 20 21  1  0  0  0  0
 20 22  1  0  0  0  0
M  END
$$$$
default_name
  -OEChem-02102213163D

 25 24  0     1  0  0  0  0  0999 V2000
   -2.7826   -3.8464    0.7821 H   0  0  0  0  0  0  0  0  0  0  0  0
   -2.8156   -2.8034    0.4711 C   0  0  0  0  0  0  0  0  0  0  0  0
   -3.4336   -2.2354    1.1641 H   0  0  0  0  0  0  0  0  0  0  0  0
   -3.2256   -2.7344   -0.5349 H   0  0  0  0  0  0  0  0  0  0  0  0
   -1.4126   -2.2444    0.4801 C   0  0  0  0  0  0  0  0  0  0  0  0
   -0.4686   -2.9534    0.8001 O   0  0  0  0  0  0  0  0  0  0  0  0
   -1.2736   -0.9704    0.1241 N   0  0  0  0  0  0  0  0  0  0  0  0
   -2.0996   -0.4354   -0.1019 H   0  0  0  0  0  0  0  0  0  0  0  0
   -0.0016   -0.2394    0.1271 C   0  0  1  0  0  0  0  0  0  0  0  0
    0.7164   -0.7963    0.7332 H   0  0  0  0  0  0  0  0  0  0  0  0
    0.5351   -0.1414   -1.3146 C   0  0  0  0  0  0  0  0  0  0  0  0
    0.6212    0.9079   -1.5993 H   0  0  0  0  0  0  0  0  0  0  0  0
    1.5297   -0.5856   -1.3672 H   0  0  0  0  0  0  0  0  0  0  0  0
   -0.3688   -0.8109   -2.3455 C   0  0  0  0  0  0  0  0  0  0  0  0
   -0.0483   -1.7359   -3.0803 O   0  0  0  0  0  0  0  0  0  0  0  0
   -1.6123   -0.3012   -2.4217 O   0  0  0  0  0  0  0  0  0  0  0  0
   -2.0688   -0.8209   -3.0841 H   0  0  0  0  0  0  0  0  0  0  0  0
   -0.1923    1.1526    0.7617 C   0  0  0  0  0  0  0  0  0  0  0  0
   -1.1582    1.8438    0.4410 O   0  0  0  0  0  0  0  0  0  0  0  0
    0.7203    1.5683    1.6472 N   0  0  0  0  0  0  0  0  0  0  0  0
    1.5210    0.9664    1.8100 H   0  0  0  0  0  0  0  0  0  0  0  0
    0.6747    2.8558    2.3368 C   0  0  0  0  0  0  0  0  0  0  0  0
   -0.3018    2.9877    2.8079 H   0  0  0  0  0  0  0  0  0  0  0  0
    1.4516    2.8997    3.1011 H   0  0  0  0  0  0  0  0  0  0  0  0
    0.8279    3.6639    1.6193 H   0  0  0  0  0  0  0  0  0  0  0  0
  5  6  2  0  0  0  0
  5  7  1  0  0  0  0
  2  3  1  0  0  0  0
  2  4  1  0  0  0  0
  2  5  1  0  0  0  0
  1  2  1  0  0  0  0
 18 19  2  0  0  0  0
 18 20  1  0  0  0  0
 16 17  1  0  0  0  0
 14 15  2  0  0  0  0
 14 16  1  0  0  0  0
 11 12  1  0  0  0  0
 11 13  1  0  0  0  0
 11 14  1  0  0  0  0
  9 10  1  0  0  0  0
  9 11  1  0  0  0  0
  9 18  1  0  0  0  0
  7  8  1  0  0  0  0
  7  9  1  0  0  0  0
 22 23  1  0  0  0  0
 22 24  1  0  0  0  0
 22 25  1  0  0  0  0
 20 21  1  0  0  0  0
 20 22  1  0  0  0  0
M  END
$$$$
default_name
  -OEChem-02102213163D

 25 24  0     1  0  0  0  0  0999 V2000
   -2.7826   -3.8464    0.7821 H   0  0  0  0  0  0  0  0  0  0  0  0
   -2.8156   -2.8034    0.4711 C   0  0  0  0  0  0  0  0  0  0  0  0
   -3.4336   -2.2354    1.1641 H   0  0  0  0  0  0  0  0  0  0  0  0
   -3.2256   -2.7344   -0.5349 H   0  0  0  0  0  0  0  0  0  0  0  0
   -1.4126   -2.2444    0.4801 C   0  0  0  0  0  0  0  0  0  0  0  0
   -0.4686   -2.9534    0.8001 O   0  0  0  0  0  0  0  0  0  0  0  0
   -1.2736   -0.9704    0.1241 N   0  0  0  0  0  0  0  0  0  0  0  0
   -2.0996   -0.4354   -0.1019 H   0  0  0  0  0  0  0  0  0  0  0  0
   -0.0016   -0.2394    0.1271 C   0  0  1  0  0  0  0  0  0  0  0  0
    0.7164   -0.7963    0.7332 H   0  0  0  0  0  0  0  0  0  0  0  0
    0.5351   -0.1414   -1.3146 C   0  0  0  0  0  0  0  0  0  0  0  0
    0.6212    0.9079   -1.5993 H   0  0  0  0  0  0  0  0  0  0  0  0
    1.5297   -0.5856   -1.3672 H   0  0  0  0  0  0  0  0  0  0  0  0
   -0.3688   -0.8109   -2.3455 C   0  0  0  0  0  0  0  0  0  0  0  0
   -0.1519   -1.8837   -2.8935 O   0  0  0  0  0  0  0  0  0  0  0  0
   -1.4835   -0.1212   -2.6515 O   0  0  0  0  0  0  0  0  0  0  0  0
   -1.9593   -0.6591   -3.2852 H   0  0  0  0  0  0  0  0  0  0  0  0
   -0.1923    1.1526    0.7617 C   0  0  0  0  0  0  0  0  0  0  0  0
   -1.1582    1.8438    0.4410 O   0  0  0  0  0  0  0  0  0  0  0  0
    0.7203    1.5683    1.6472 N   0  0  0  0  0  0  0  0  0  0  0  0
    1.5210    0.9664    1.8100 H   0  0  0  0  0  0  0  0  0  0  0  0
    0.6747    2.8558    2.3368 C   0  0  0  0  0  0  0  0  0  0  0  0
   -0.3018    2.9877    2.8079 H   0  0  0  0  0  0  0  0  0  0  0  0
    1.4516    2.8997    3.1011 H   0  0  0  0  0  0  0  0  0  0  0  0
    0.8279    3.6639    1.6193 H   0  0  0  0  0  0  0  0  0  0  0  0
  5  6  2  0  0  0  0
  5  7  1  0  0  0  0
  2  3  1  0  0  0  0
  2  4  1  0  0  0  0
  2  5  1  0  0  0  0
  1  2  1  0  0  0  0
 18 19  2  0  0  0  0
 18 20  1  0  0  0  0
 16 17  1  0  0  0  0
 14 15  2  0  0  0  0
 14 16  1  0  0  0  0
 11 12  1  0  0  0  0
 11 13  1  0  0  0  0
 11 14  1  0  0  0  0
  9 10  1  0  0  0  0
  9 11  1  0  0  0  0
  9 18  1  0  0  0  0
  7  8  1  0  0  0  0
  7  9  1  0  0  0  0
 22 23  1  0  0  0  0
 22 24  1  0  0  0  0
 22 25  1  0  0  0  0
 20 21  1  0  0  0  0
 20 22  1  0  0  0  0
M  END
$$$$
default_name
  -OEChem-02102213163D

 25 24  0     1  0  0  0  0  0999 V2000
   -2.7826   -3.8464    0.7821 H   0  0  0  0  0  0  0  0  0  0  0  0
   -2.8156   -2.8034    0.4711 C   0  0  0  0  0  0  0  0  0  0  0  0
   -3.4336   -2.2354    1.1641 H   0  0  0  0  0  0  0  0  0  0  0  0
   -3.2256   -2.7344   -0.5349 H   0  0  0  0  0  0  0  0  0  0  0  0
   -1.4126   -2.2444    0.4801 C   0  0  0  0  0  0  0  0  0  0  0  0
   -0.4686   -2.9534    0.8001 O   0  0  0  0  0  0  0  0  0  0  0  0
   -1.2736   -0.9704    0.1241 N   0  0  0  0  0  0  0  0  0  0  0  0
   -2.0996   -0.4354   -0.1019 H   0  0  0  0  0  0  0  0  0  0  0  0
   -0.0016   -0.2394    0.1271 C   0  0  1  0  0  0  0  0  0  0  0  0
    0.7164   -0.7963    0.7332 H   0  0  0  0  0  0  0  0  0  0  0  0
    0.5351   -0.1414   -1.3146 C   0  0  0  0  0  0  0  0  0  0  0  0
    0.6212    0.9079   -1.5993 H   0  0  0  0  0  0  0  0  0  0  0  0
    1.5297   -0.5856   -1.3672 H   0  0  0  0  0  0  0  0  0  0  0  0
   -0.3688   -0.8109   -2.3455 C   0  0  0  0  0  0  0  0  0  0  0  0
   -0.2991   -1.9798   -2.7021 O   0  0  0  0  0  0  0  0  0  0  0  0
   -1.3016   -0.0051   -2.8864 O   0  0  0  0  0  0  0  0  0  0  0  0
   -1.8023   -0.5528   -3.4919 H   0  0  0  0  0  0  0  0  0  0  0  0
   -0.1923    1.1526    0.7617 C   0  0  0  0  0  0  0  0  0  0  0  0
   -1.1582    1.8438    0.4410 O   0  0  0  0  0  0  0  0  0  0  0  0
    0.7203    1.5683    1.6472 N   0  0  0  0  0  0  0  0  0  0  0  0
    1.5210    0.9664    1.8100 H   0  0  0  0  0  0  0  0  0  0  0  0
    0.6747    2.8558    2.3368 C   0  0  0  0  0  0  0  0  0  0  0  0
   -0.3018    2.9877    2.8079 H   0  0  0  0  0  0  0  0  0  0  0  0
    1.4516    2.8997    3.1011 H   0  0  0  0  0  0  0  0  0  0  0  0
    0.8279    3.6639    1.6193 H   0  0  0  0  0  0  0  0  0  0  0  0
  5  6  2  0  0  0  0
  5  7  1  0  0  0  0
  2  3  1  0  0  0  0
  2  4  1  0  0  0  0
  2  5  1  0  0  0  0
  1  2  1  0  0  0  0
 18 19  2  0  0  0  0
 18 20  1  0  0  0  0
 16 17  1  0  0  0  0
 14 15  2  0  0  0  0
 14 16  1  0  0  0  0
 11 12  1  0  0  0  0
 11 13  1  0  0  0  0
 11 14  1  0  0  0  0
  9 10  1  0  0  0  0
  9 11  1  0  0  0  0
  9 18  1  0  0  0  0
  7  8  1  0  0  0  0
  7  9  1  0  0  0  0
 22 23  1  0  0  0  0
 22 24  1  0  0  0  0
 22 25  1  0  0  0  0
 20 21  1  0  0  0  0
 20 22  1  0  0  0  0
M  END
$$$$
default_name
  -OEChem-02102213163D

 25 24  0     1  0  0  0  0  0999 V2000
   -2.7826   -3.8464    0.7821 H   0  0  0  0  0  0  0  0  0  0  0  0
   -2.8156   -2.8034    0.4711 C   0  0  0  0  0  0  0  0  0  0  0  0
   -3.4336   -2.2354    1.1641 H   0  0  0  0  0  0  0  0  0  0  0  0
   -3.2256   -2.7344   -0.5349 H   0  0  0  0  0  0  0  0  0  0  0  0
   -1.4126   -2.2444    0.4801 C   0  0  0  0  0  0  0  0  0  0  0  0
   -0.4686   -2.9534    0.8001 O   0  0  0  0  0  0  0  0  0  0  0  0
   -1.2736   -0.9704    0.1241 N   0  0  0  0  0  0  0  0  0  0  0  0
   -2.0996   -0.4354   -0.1019 H   0  0  0  0  0  0  0  0  0  0  0  0
   -0.0016   -0.2394    0.1271 C   0  0  1  0  0  0  0  0  0  0  0  0
    0.7164   -0.7963    0.7332 H   0  0  0  0  0  0  0  0  0  0  0  0
    0.5351   -0.1414   -1.3146 C   0  0  0  0  0  0  0  0  0  0  0  0
    0.6212    0.9079   -1.5993 H   0  0  0  0  0  0  0  0  0  0  0  0
    1.5297   -0.5856   -1.3672 H   0  0  0  0  0  0  0  0  0  0  0  0
   -0.3688   -0.8109   -2.3455 C   0  0  0  0  0  0  0  0  0  0  0  0
   -0.4798   -2.0174   -2.5192 O   0  0  0  0  0  0  0  0  0  0  0  0
   -1.0789    0.0392   -3.1105 O   0  0  0  0  0  0  0  0  0  0  0  0
   -1.6086   -0.5092   -3.6900 H   0  0  0  0  0  0  0  0  0  0  0  0
   -0.1923    1.1526    0.7617 C   0  0  0  0  0  0  0  0  0  0  0  0
   -1.1582    1.8438    0.4410 O   0  0  0  0  0  0  0  0  0  0  0  0
    0.7203    1.5683    1.6472 N   0  0  0  0  0  0  0  0  0  0  0  0
    1.5210    0.9664    1.8100 H   0  0  0  0  0  0  0  0  0  0  0  0
    0.6747    2.8558    2.3368 C   0  0  0  0  0  0  0  0  0  0  0  0
   -0.3018    2.9877    2.8079 H   0  0  0  0  0  0  0  0  0  0  0  0
    1.4516    2.8997    3.1011 H   0  0  0  0  0  0  0  0  0  0  0  0
    0.8279    3.6639    1.6193 H   0  0  0  0  0  0  0  0  0  0  0  0
  5  6  2  0  0  0  0
  5  7  1  0  0  0  0
  2  3  1  0  0  0  0
  2  4  1  0  0  0  0
  2  5  1  0  0  0  0
  1  2  1  0  0  0  0
 18 19  2  0  0  0  0
 18 20  1  0  0  0  0
 16 17  1  0  0  0  0
 14 15  2  0  0  0  0
 14 16  1  0  0  0  0
 11 12  1  0  0  0  0
 11 13  1  0  0  0  0
 11 14  1  0  0  0  0
  9 10  1  0  0  0  0
  9 11  1  0  0  0  0
  9 18  1  0  0  0  0
  7  8  1  0  0  0  0
  7  9  1  0  0  0  0
 22 23  1  0  0  0  0
 22 24  1  0  0  0  0
 22 25  1  0  0  0  0
 20 21  1  0  0  0  0
 20 22  1  0  0  0  0
M  END
$$$$
default_name
  -OEChem-02102213163D

 25 24  0     1  0  0  0  0  0999 V2000
   -2.7826   -3.8464    0.7821 H   0  0  0  0  0  0  0  0  0  0  0  0
   -2.8156   -2.8034    0.4711 C   0  0  0  0  0  0  0  0  0  0  0  0
   -3.4336   -2.2354    1.1641 H   0  0  0  0  0  0  0  0  0  0  0  0
   -3.2256   -2.7344   -0.5349 H   0  0  0  0  0  0  0  0  0  0  0  0
   -1.4126   -2.2444    0.4801 C   0  0  0  0  0  0  0  0  0  0  0  0
   -0.4686   -2.9534    0.8001 O   0  0  0  0  0  0  0  0  0  0  0  0
   -1.2736   -0.9704    0.1241 N   0  0  0  0  0  0  0  0  0  0  0  0
   -2.0996   -0.4354   -0.1019 H   0  0  0  0  0  0  0  0  0  0  0  0
   -0.0016   -0.2394    0.1271 C   0  0  1  0  0  0  0  0  0  0  0  0
    0.7164   -0.7963    0.7332 H   0  0  0  0  0  0  0  0  0  0  0  0
    0.5351   -0.1414   -1.3146 C   0  0  0  0  0  0  0  0  0  0  0  0
    0.6212    0.9079   -1.5993 H   0  0  0  0  0  0  0  0  0  0  0  0
    1.5297   -0.5856   -1.3672 H   0  0  0  0  0  0  0  0  0  0  0  0
   -0.3688   -0.8109   -2.3455 C   0  0  0  0  0  0  0  0  0  0  0  0
   -0.6817   -1.9942   -2.3573 O   0  0  0  0  0  0  0  0  0  0  0  0
   -0.8305    0.0087   -3.3084 O   0  0  0  0  0  0  0  0  0  0  0  0
   -1.3914   -0.5314   -3.8660 H   0  0  0  0  0  0  0  0  0  0  0  0
   -0.1923    1.1526    0.7617 C   0  0  0  0  0  0  0  0  0  0  0  0
   -1.1582    1.8438    0.4410 O   0  0  0  0  0  0  0  0  0  0  0  0
    0.7203    1.5683    1.6472 N   0  0  0  0  0  0  0  0  0  0  0  0
    1.5210    0.9664    1.8100 H   0  0  0  0  0  0  0  0  0  0  0  0
    0.6747    2.8558    2.3368 C   0  0  0  0  0  0  0  0  0  0  0  0
   -0.3018    2.9877    2.8079 H   0  0  0  0  0  0  0  0  0  0  0  0
    1.4516    2.8997    3.1011 H   0  0  0  0  0  0  0  0  0  0  0  0
    0.8279    3.6639    1.6193 H   0  0  0  0  0  0  0  0  0  0  0  0
  5  6  2  0  0  0  0
  5  7  1  0  0  0  0
  2  3  1  0  0  0  0
  2  4  1  0  0  0  0
  2  5  1  0  0  0  0
  1  2  1  0  0  0  0
 18 19  2  0  0  0  0
 18 20  1  0  0  0  0
 16 17  1  0  0  0  0
 14 15  2  0  0  0  0
 14 16  1  0  0  0  0
 11 12  1  0  0  0  0
 11 13  1  0  0  0  0
 11 14  1  0  0  0  0
  9 10  1  0  0  0  0
  9 11  1  0  0  0  0
  9 18  1  0  0  0  0
  7  8  1  0  0  0  0
  7  9  1  0  0  0  0
 22 23  1  0  0  0  0
 22 24  1  0  0  0  0
 22 25  1  0  0  0  0
 20 21  1  0  0  0  0
 20 22  1  0  0  0  0
M  END
$$$$
default_name
  -OEChem-02102213163D

 25 24  0     1  0  0  0  0  0999 V2000
   -2.7826   -3.8464    0.7821 H   0  0  0  0  0  0  0  0  0  0  0  0
   -2.8156   -2.8034    0.4711 C   0  0  0  0  0  0  0  0  0  0  0  0
   -3.4336   -2.2354    1.1641 H   0  0  0  0  0  0  0  0  0  0  0  0
   -3.2256   -2.7344   -0.5349 H   0  0  0  0  0  0  0  0  0  0  0  0
   -1.4126   -2.2444    0.4801 C   0  0  0  0  0  0  0  0  0  0  0  0
   -0.4686   -2.9534    0.8001 O   0  0  0  0  0  0  0  0  0  0  0  0
   -1.2736   -0.9704    0.1241 N   0  0  0  0  0  0  0  0  0  0  0  0
   -2.0996   -0.4354   -0.1019 H   0  0  0  0  0  0  0  0  0  0  0  0
   -0.0016   -0.2394    0.1271 C   0  0  1  0  0  0  0  0  0  0  0  0
    0.7164   -0.7963    0.7332 H   0  0  0  0  0  0  0  0  0  0  0  0
    0.5351   -0.1414   -1.3146 C   0  0  0  0  0  0  0  0  0  0  0  0
    0.6212    0.9079   -1.5993 H   0  0  0  0  0  0  0  0  0  0  0  0
    1.5297   -0.5856   -1.3672 H   0  0  0  0  0  0  0  0  0  0  0  0
   -0.3688   -0.8109   -2.3455 C   0  0  0  0  0  0  0  0  0  0  0  0
   -0.8910   -1.9116   -2.2274 O   0  0  0  0  0  0  0  0  0  0  0  0
   -0.5735   -0.0946   -3.4667 O   0  0  0  0  0  0  0  0  0  0  0  0
   -1.1655   -0.6178   -4.0079 H   0  0  0  0  0  0  0  0  0  0  0  0
   -0.1923    1.1526    0.7617 C   0  0  0  0  0  0  0  0  0  0  0  0
   -1.1582    1.8438    0.4410 O   0  0  0  0  0  0  0  0  0  0  0  0
    0.7203    1.5683    1.6472 N   0  0  0  0  0  0  0  0  0  0  0  0
    1.5210    0.9664    1.8100 H   0  0  0  0  0  0  0  0  0  0  0  0
    0.6747    2.8558    2.3368 C   0  0  0  0  0  0  0  0  0  0  0  0
   -0.3018    2.9877    2.8079 H   0  0  0  0  0  0  0  0  0  0  0  0
    1.4516    2.8997    3.1011 H   0  0  0  0  0  0  0  0  0  0  0  0
    0.8279    3.6639    1.6193 H   0  0  0  0  0  0  0  0  0  0  0  0
  5  6  2  0  0  0  0
  5  7  1  0  0  0  0
  2  3  1  0  0  0  0
  2  4  1  0  0  0  0
  2  5  1  0  0  0  0
  1  2  1  0  0  0  0
 18 19  2  0  0  0  0
 18 20  1  0  0  0  0
 16 17  1  0  0  0  0
 14 15  2  0  0  0  0
 14 16  1  0  0  0  0
 11 12  1  0  0  0  0
 11 13  1  0  0  0  0
 11 14  1  0  0  0  0
  9 10  1  0  0  0  0
  9 11  1  0  0  0  0
  9 18  1  0  0  0  0
  7  8  1  0  0  0  0
  7  9  1  0  0  0  0
 22 23  1  0  0  0  0
 22 24  1  0  0  0  0
 22 25  1  0  0  0  0
 20 21  1  0  0  0  0
 20 22  1  0  0  0  0
M  END
$$$$
default_name
  -OEChem-02102213163D

 25 24  0     1  0  0  0  0  0999 V2000
   -2.7826   -3.8464    0.7821 H   0  0  0  0  0  0  0  0  0  0  0  0
   -2.8156   -2.8034    0.4711 C   0  0  0  0  0  0  0  0  0  0  0  0
   -3.4336   -2.2354    1.1641 H   0  0  0  0  0  0  0  0  0  0  0  0
   -3.2256   -2.7344   -0.5349 H   0  0  0  0  0  0  0  0  0  0  0  0
   -1.4126   -2.2444    0.4801 C   0  0  0  0  0  0  0  0  0  0  0  0
   -0.4686   -2.9534    0.8001 O   0  0  0  0  0  0  0  0  0  0  0  0
   -1.2736   -0.9704    0.1241 N   0  0  0  0  0  0  0  0  0  0  0  0
   -2.0996   -0.4354   -0.1019 H   0  0  0  0  0  0  0  0  0  0  0  0
   -0.0016   -0.2394    0.1271 C   0  0  1  0  0  0  0  0  0  0  0  0
    0.7164   -0.7963    0.7332 H   0  0  0  0  0  0  0  0  0  0  0  0
    0.5351   -0.1414   -1.3146 C   0  0  0  0  0  0  0  0  0  0  0  0
    0.6212    0.9079   -1.5993 H   0  0  0  0  0  0  0  0  0  0  0  0
    1.5297   -0.5856   -1.3672 H   0  0  0  0  0  0  0  0  0  0  0  0
   -0.3688   -0.8109   -2.3455 C   0  0  0  0  0  0  0  0  0  0  0  0
   -1.0935   -1.7753   -2.1384 O   0  0  0  0  0  0  0  0  0  0  0  0
   -0.3254   -0.2635   -3.5745 O   0  0  0  0  0  0  0  0  0  0  0  0
   -0.9463   -0.7625   -4.1062 H   0  0  0  0  0  0  0  0  0  0  0  0
   -0.1923    1.1526    0.7617 C   0  0  0  0  0  0  0  0  0  0  0  0
   -1.1582    1.8438    0.4410 O   0  0  0  0  0  0  0  0  0  0  0  0
    0.7203    1.5683    1.6472 N   0  0  0  0  0  0  0  0  0  0  0  0
    1.5210    0.9664    1.8100 H   0  0  0  0  0  0  0  0  0  0  0  0
    0.6747    2.8558    2.3368 C   0  0  0  0  0  0  0  0  0  0  0  0
   -0.3018    2.9877    2.8079 H   0  0  0  0  0  0  0  0  0  0  0  0
    1.4516    2.8997    3.1011 H   0  0  0  0  0  0  0  0  0  0  0  0
    0.8279    3.6639    1.6193 H   0  0  0  0  0  0  0  0  0  0  0  0
  5  6  2  0  0  0  0
  5  7  1  0  0  0  0
  2  3  1  0  0  0  0
  2  4  1  0  0  0  0
  2  5  1  0  0  0  0
  1  2  1  0  0  0  0
 18 19  2  0  0  0  0
 18 20  1  0  0  0  0
 16 17  1  0  0  0  0
 14 15  2  0  0  0  0
 14 16  1  0  0  0  0
 11 12  1  0  0  0  0
 11 13  1  0  0  0  0
 11 14  1  0  0  0  0
  9 10  1  0  0  0  0
  9 11  1  0  0  0  0
  9 18  1  0  0  0  0
  7  8  1  0  0  0  0
  7  9  1  0  0  0  0
 22 23  1  0  0  0  0
 22 24  1  0  0  0  0
 22 25  1  0  0  0  0
 20 21  1  0  0  0  0
 20 22  1  0  0  0  0
M  END
$$$$
default_name
  -OEChem-02102213163D

 25 24  0     1  0  0  0  0  0999 V2000
   -2.7826   -3.8464    0.7821 H   0  0  0  0  0  0  0  0  0  0  0  0
   -2.8156   -2.8034    0.4711 C   0  0  0  0  0  0  0  0  0  0  0  0
   -3.4336   -2.2354    1.1641 H   0  0  0  0  0  0  0  0  0  0  0  0
   -3.2256   -2.7344   -0.5349 H   0  0  0  0  0  0  0  0  0  0  0  0
   -1.4126   -2.2444    0.4801 C   0  0  0  0  0  0  0  0  0  0  0  0
   -0.4686   -2.9534    0.8001 O   0  0  0  0  0  0  0  0  0  0  0  0
   -1.2736   -0.9704    0.1241 N   0  0  0  0  0  0  0  0  0  0  0  0
   -2.0996   -0.4354   -0.1019 H   0  0  0  0  0  0  0  0  0  0  0  0
   -0.0016   -0.2394    0.1271 C   0  0  1  0  0  0  0  0  0  0  0  0
    0.7164   -0.7963    0.7332 H   0  0  0  0  0  0  0  0  0  0  0  0
    0.5351   -0.1414   -1.3146 C   0  0  0  0  0  0  0  0  0  0  0  0
    0.6212    0.9079   -1.5993 H   0  0  0  0  0  0  0  0  0  0  0  0
    1.5297   -0.5856   -1.3672 H   0  0  0  0  0  0  0  0  0  0  0  0
   -0.3688   -0.8109   -2.3455 C   0  0  0  0  0  0  0  0  0  0  0  0
   -1.2753   -1.5946   -2.0963 O   0  0  0  0  0  0  0  0  0  0  0  0
   -0.1030   -0.4866   -3.6247 O   0  0  0  0  0  0  0  0  0  0  0  0
   -0.7487   -0.9557   -4.1540 H   0  0  0  0  0  0  0  0  0  0  0  0
   -0.1923    1.1526    0.7617 C   0  0  0  0  0  0  0  0  0  0  0  0
   -1.1582    1.8438    0.4410 O   0  0  0  0  0  0  0  0  0  0  0  0
    0.7203    1.5683    1.6472 N   0  0  0  0  0  0  0  0  0  0  0  0
    1.5210    0.9664    1.8100 H   0  0  0  0  0  0  0  0  0  0  0  0
    0.6747    2.8558    2.3368 C   0  0  0  0  0  0  0  0  0  0  0  0
   -0.3018    2.9877    2.8079 H   0  0  0  0  0  0  0  0  0  0  0  0
    1.4516    2.8997    3.1011 H   0  0  0  0  0  0  0  0  0  0  0  0
    0.8279    3.6639    1.6193 H   0  0  0  0  0  0  0  0  0  0  0  0
  5  6  2  0  0  0  0
  5  7  1  0  0  0  0
  2  3  1  0  0  0  0
  2  4  1  0  0  0  0
  2  5  1  0  0  0  0
  1  2  1  0  0  0  0
 18 19  2  0  0  0  0
 18 20  1  0  0  0  0
 16 17  1  0  0  0  0
 14 15  2  0  0  0  0
 14 16  1  0  0  0  0
 11 12  1  0  0  0  0
 11 13  1  0  0  0  0
 11 14  1  0  0  0  0
  9 10  1  0  0  0  0
  9 11  1  0  0  0  0
  9 18  1  0  0  0  0
  7  8  1  0  0  0  0
  7  9  1  0  0  0  0
 22 23  1  0  0  0  0
 22 24  1  0  0  0  0
 22 25  1  0  0  0  0
 20 21  1  0  0  0  0
 20 22  1  0  0  0  0
M  END
$$$$
default_name
  -OEChem-02102213163D

 25 24  0     1  0  0  0  0  0999 V2000
   -2.7826   -3.8464    0.7821 H   0  0  0  0  0  0  0  0  0  0  0  0
   -2.8156   -2.8034    0.4711 C   0  0  0  0  0  0  0  0  0  0  0  0
   -3.4336   -2.2354    1.1641 H   0  0  0  0  0  0  0  0  0  0  0  0
   -3.2256   -2.7344   -0.5349 H   0  0  0  0  0  0  0  0  0  0  0  0
   -1.4126   -2.2444    0.4801 C   0  0  0  0  0  0  0  0  0  0  0  0
   -0.4686   -2.9534    0.8001 O   0  0  0  0  0  0  0  0  0  0  0  0
   -1.2736   -0.9704    0.1241 N   0  0  0  0  0  0  0  0  0  0  0  0
   -2.0996   -0.4354   -0.1019 H   0  0  0  0  0  0  0  0  0  0  0  0
   -0.0016   -0.2394    0.1271 C   0  0  1  0  0  0  0  0  0  0  0  0
    0.7164   -0.7963    0.7332 H   0  0  0  0  0  0  0  0  0  0  0  0
    0.5351   -0.1414   -1.3146 C   0  0  0  0  0  0  0  0  0  0  0  0
    0.6212    0.9079   -1.5993 H   0  0  0  0  0  0  0  0  0  0  0  0
    1.5297   -0.5856   -1.3672 H   0  0  0  0  0  0  0  0  0  0  0  0
   -0.3688   -0.8109   -2.3455 C   0  0  0  0  0  0  0  0  0  0  0  0
   -1.4242   -1.3818   -2.1040 O   0  0  0  0  0  0  0  0  0  0  0  0
    0.0786   -0.7487   -3.6136 O   0  0  0  0  0  0  0  0  0  0  0  0
   -0.5862   -1.1842   -4.1481 H   0  0  0  0  0  0  0  0  0  0  0  0
   -0.1923    1.1526    0.7617 C   0  0  0  0  0  0  0  0  0  0  0  0
   -1.1582    1.8438    0.4410 O   0  0  0  0  0  0  0  0  0  0  0  0
    0.7203    1.5683    1.6472 N   0  0  0  0  0  0  0  0  0  0  0  0
    1.5210    0.9664    1.8100 H   0  0  0  0  0  0  0  0  0  0  0  0
    0.6747    2.8558    2.3368 C   0  0  0  0  0  0  0  0  0  0  0  0
   -0.3018    2.9877    2.8079 H   0  0  0  0  0  0  0  0  0  0  0  0
    1.4516    2.8997    3.1011 H   0  0  0  0  0  0  0  0  0  0  0  0
    0.8279    3.6639    1.6193 H   0  0  0  0  0  0  0  0  0  0  0  0
  5  6  2  0  0  0  0
  5  7  1  0  0  0  0
  2  3  1  0  0  0  0
  2  4  1  0  0  0  0
  2  5  1  0  0  0  0
  1  2  1  0  0  0  0
 18 19  2  0  0  0  0
 18 20  1  0  0  0  0
 16 17  1  0  0  0  0
 14 15  2  0  0  0  0
 14 16  1  0  0  0  0
 11 12  1  0  0  0  0
 11 13  1  0  0  0  0
 11 14  1  0  0  0  0
  9 10  1  0  0  0  0
  9 11  1  0  0  0  0
  9 18  1  0  0  0  0
  7  8  1  0  0  0  0
  7  9  1  0  0  0  0
 22 23  1  0  0  0  0
 22 24  1  0  0  0  0
 22 25  1  0  0  0  0
 20 21  1  0  0  0  0
 20 22  1  0  0  0  0
M  END
$$$$
default_name
  -OEChem-02102213163D

 25 24  0     1  0  0  0  0  0999 V2000
   -2.7826   -3.8464    0.7821 H   0  0  0  0  0  0  0  0  0  0  0  0
   -2.8156   -2.8034    0.4711 C   0  0  0  0  0  0  0  0  0  0  0  0
   -3.4336   -2.2354    1.1641 H   0  0  0  0  0  0  0  0  0  0  0  0
   -3.2256   -2.7344   -0.5349 H   0  0  0  0  0  0  0  0  0  0  0  0
   -1.4126   -2.2444    0.4801 C   0  0  0  0  0  0  0  0  0  0  0  0
   -0.4686   -2.9534    0.8001 O   0  0  0  0  0  0  0  0  0  0  0  0
   -1.2736   -0.9704    0.1241 N   0  0  0  0  0  0  0  0  0  0  0  0
   -2.0996   -0.4354   -0.1019 H   0  0  0  0  0  0  0  0  0  0  0  0
   -0.0016   -0.2394    0.1271 C   0  0  1  0  0  0  0  0  0  0  0  0
    0.7164   -0.7963    0.7332 H   0  0  0  0  0  0  0  0  0  0  0  0
    0.5351   -0.1414   -1.3146 C   0  0  0  0  0  0  0  0  0  0  0  0
    0.6212    0.9079   -1.5993 H   0  0  0  0  0  0  0  0  0  0  0  0
    1.5297   -0.5856   -1.3672 H   0  0  0  0  0  0  0  0  0  0  0  0
   -0.3688   -0.8109   -2.3455 C   0  0  0  0  0  0  0  0  0  0  0  0
   -1.5299   -1.1514   -2.1609 O   0  0  0  0  0  0  0  0  0  0  0  0
    0.2068   -1.0319   -3.5421 O   0  0  0  0  0  0  0  0  0  0  0  0
   -0.4699   -1.4324   -4.0889 H   0  0  0  0  0  0  0  0  0  0  0  0
   -0.1923    1.1526    0.7617 C   0  0  0  0  0  0  0  0  0  0  0  0
   -1.1582    1.8438    0.4410 O   0  0  0  0  0  0  0  0  0  0  0  0
    0.7203    1.5683    1.6472 N   0  0  0  0  0  0  0  0  0  0  0  0
    1.5210    0.9664    1.8100 H   0  0  0  0  0  0  0  0  0  0  0  0
    0.6747    2.8558    2.3368 C   0  0  0  0  0  0  0  0  0  0  0  0
   -0.3018    2.9877    2.8079 H   0  0  0  0  0  0  0  0  0  0  0  0
    1.4516    2.8997    3.1011 H   0  0  0  0  0  0  0  0  0  0  0  0
    0.8279    3.6639    1.6193 H   0  0  0  0  0  0  0  0  0  0  0  0
  5  6  2  0  0  0  0
  5  7  1  0  0  0  0
  2  3  1  0  0  0  0
  2  4  1  0  0  0  0
  2  5  1  0  0  0  0
  1  2  1  0  0  0  0
 18 19  2  0  0  0  0
 18 20  1  0  0  0  0
 16 17  1  0  0  0  0
 14 15  2  0  0  0  0
 14 16  1  0  0  0  0
 11 12  1  0  0  0  0
 11 13  1  0  0  0  0
 11 14  1  0  0  0  0
  9 10  1  0  0  0  0
  9 11  1  0  0  0  0
  9 18  1  0  0  0  0
  7  8  1  0  0  0  0
  7  9  1  0  0  0  0
 22 23  1  0  0  0  0
 22 24  1  0  0  0  0
 22 25  1  0  0  0  0
 20 21  1  0  0  0  0
 20 22  1  0  0  0  0
M  END
$$$$
default_name
  -OEChem-02102213163D

 25 24  0     1  0  0  0  0  0999 V2000
   -2.7826   -3.8464    0.7821 H   0  0  0  0  0  0  0  0  0  0  0  0
   -2.8156   -2.8034    0.4711 C   0  0  0  0  0  0  0  0  0  0  0  0
   -3.4336   -2.2354    1.1641 H   0  0  0  0  0  0  0  0  0  0  0  0
   -3.2256   -2.7344   -0.5349 H   0  0  0  0  0  0  0  0  0  0  0  0
   -1.4126   -2.2444    0.4801 C   0  0  0  0  0  0  0  0  0  0  0  0
   -0.4686   -2.9534    0.8001 O   0  0  0  0  0  0  0  0  0  0  0  0
   -1.2736   -0.9704    0.1241 N   0  0  0  0  0  0  0  0  0  0  0  0
   -2.0996   -0.4354   -0.1019 H   0  0  0  0  0  0  0  0  0  0  0  0
   -0.0016   -0.2394    0.1271 C   0  0  1  0  0  0  0  0  0  0  0  0
    0.7164   -0.7963    0.7332 H   0  0  0  0  0  0  0  0  0  0  0  0
    0.5351   -0.1414   -1.3146 C   0  0  0  0  0  0  0  0  0  0  0  0
    0.6212    0.9079   -1.5993 H   0  0  0  0  0  0  0  0  0  0  0  0
    1.5297   -0.5856   -1.3672 H   0  0  0  0  0  0  0  0  0  0  0  0
   -0.3688   -0.8109   -2.3455 C   0  0  0  0  0  0  0  0  0  0  0  0
   -1.5852   -0.9191   -2.2633 O   0  0  0  0  0  0  0  0  0  0  0  0
    0.2730   -1.3170   -3.4151 O   0  0  0  0  0  0  0  0  0  0  0  0
   -0.4076   -1.6834   -3.9805 H   0  0  0  0  0  0  0  0  0  0  0  0
   -0.1923    1.1526    0.7617 C   0  0  0  0  0  0  0  0  0  0  0  0
   -1.1582    1.8438    0.4410 O   0  0  0  0  0  0  0  0  0  0  0  0
    0.7203    1.5683    1.6472 N   0  0  0  0  0  0  0  0  0  0  0  0
    1.5210    0.9664    1.8100 H   0  0  0  0  0  0  0  0  0  0  0  0
    0.6747    2.8558    2.3368 C   0  0  0  0  0  0  0  0  0  0  0  0
   -0.3018    2.9877    2.8079 H   0  0  0  0  0  0  0  0  0  0  0  0
    1.4516    2.8997    3.1011 H   0  0  0  0  0  0  0  0  0  0  0  0
    0.8279    3.6639    1.6193 H   0  0  0  0  0  0  0  0  0  0  0  0
  5  6  2  0  0  0  0
  5  7  1  0  0  0  0
  2  3  1  0  0  0  0
  2  4  1  0  0  0  0
  2  5  1  0  0  0  0
  1  2  1  0  0  0  0
 18 19  2  0  0  0  0
 18 20  1  0  0  0  0
 16 17  1  0  0  0  0
 14 15  2  0  0  0  0
 14 16  1  0  0  0  0
 11 12  1  0  0  0  0
 11 13  1  0  0  0  0
 11 14  1  0  0  0  0
  9 10  1  0  0  0  0
  9 11  1  0  0  0  0
  9 18  1  0  0  0  0
  7  8  1  0  0  0  0
  7  9  1  0  0  0  0
 22 23  1  0  0  0  0
 22 24  1  0  0  0  0
 22 25  1  0  0  0  0
 20 21  1  0  0  0  0
 20 22  1  0  0  0  0
M  END
$$$$
default_name
  -OEChem-02102213163D

 25 24  0     1  0  0  0  0  0999 V2000
   -2.7826   -3.8464    0.7821 H   0  0  0  0  0  0  0  0  0  0  0  0
   -2.8156   -2.8034    0.4711 C   0  0  0  0  0  0  0  0  0  0  0  0
   -3.4336   -2.2354    1.1641 H   0  0  0  0  0  0  0  0  0  0  0  0
   -3.2256   -2.7344   -0.5349 H   0  0  0  0  0  0  0  0  0  0  0  0
   -1.4126   -2.2444    0.4801 C   0  0  0  0  0  0  0  0  0  0  0  0
   -0.4686   -2.9534    0.8001 O   0  0  0  0  0  0  0  0  0  0  0  0
   -1.2736   -0.9704    0.1241 N   0  0  0  0  0  0  0  0  0  0  0  0
   -2.0996   -0.4354   -0.1019 H   0  0  0  0  0  0  0  0  0  0  0  0
   -0.0016   -0.2394    0.1271 C   0  0  1  0  0  0  0  0  0  0  0  0
    0.7164   -0.7963    0.7332 H   0  0  0  0  0  0  0  0  0  0  0  0
    0.5351   -0.1414   -1.3146 C   0  0  0  0  0  0  0  0  0  0  0  0
    0.6212    0.9079   -1.5993 H   0  0  0  0  0  0  0  0  0  0  0  0
    1.5297   -0.5856   -1.3672 H   0  0  0  0  0  0  0  0  0  0  0  0
   -0.3688   -0.8109   -2.3455 C   0  0  0  0  0  0  0  0  0  0  0  0
   -1.5864   -0.7007   -2.4040 O   0  0  0  0  0  0  0  0  0  0  0  0
    0.2727   -1.5844   -3.2412 O   0  0  0  0  0  0  0  0  0  0  0  0
   -0.4037   -1.9201   -3.8302 H   0  0  0  0  0  0  0  0  0  0  0  0
   -0.1923    1.1526    0.7617 C   0  0  0  0  0  0  0  0  0  0  0  0
   -1.1582    1.8438    0.4410 O   0  0  0  0  0  0  0  0  0  0  0  0
    0.7203    1.5683    1.6472 N   0  0  0  0  0  0  0  0  0  0  0  0
    1.5210    0.9664    1.8100 H   0  0  0  0  0  0  0  0  0  0  0  0
    0.6747    2.8558    2.3368 C   0  0  0  0  0  0  0  0  0  0  0  0
   -0.3018    2.9877    2.8079 H   0  0  0  0  0  0  0  0  0  0  0  0
    1.4516    2.8997    3.1011 H   0  0  0  0  0  0  0  0  0  0  0  0
    0.8279    3.6639    1.6193 H   0  0  0  0  0  0  0  0  0  0  0  0
  5  6  2  0  0  0  0
  5  7  1  0  0  0  0
  2  3  1  0  0  0  0
  2  4  1  0  0  0  0
  2  5  1  0  0  0  0
  1  2  1  0  0  0  0
 18 19  2  0  0  0  0
 18 20  1  0  0  0  0
 16 17  1  0  0  0  0
 14 15  2  0  0  0  0
 14 16  1  0  0  0  0
 11 12  1  0  0  0  0
 11 13  1  0  0  0  0
 11 14  1  0  0  0  0
  9 10  1  0  0  0  0
  9 11  1  0  0  0  0
  9 18  1  0  0  0  0
  7  8  1  0  0  0  0
  7  9  1  0  0  0  0
 22 23  1  0  0  0  0
 22 24  1  0  0  0  0
 22 25  1  0  0  0  0
 20 21  1  0  0  0  0
 20 22  1  0  0  0  0
M  END
$$$$
default_name
  -OEChem-02102213163D

 25 24  0     1  0  0  0  0  0999 V2000
   -2.7826   -3.8464    0.7821 H   0  0  0  0  0  0  0  0  0  0  0  0
   -2.8156   -2.8034    0.4711 C   0  0  0  0  0  0  0  0  0  0  0  0
   -3.4336   -2.2354    1.1641 H   0  0  0  0  0  0  0  0  0  0  0  0
   -3.2256   -2.7344   -0.5349 H   0  0  0  0  0  0  0  0  0  0  0  0
   -1.4126   -2.2444    0.4801 C   0  0  0  0  0  0  0  0  0  0  0  0
   -0.4686   -2.9534    0.8001 O   0  0  0  0  0  0  0  0  0  0  0  0
   -1.2736   -0.9704    0.1241 N   0  0  0  0  0  0  0  0  0  0  0  0
   -2.0996   -0.4354   -0.1019 H   0  0  0  0  0  0  0  0  0  0  0  0
   -0.0016   -0.2394    0.1271 C   0  0  1  0  0  0  0  0  0  0  0  0
    0.7164   -0.7963    0.7332 H   0  0  0  0  0  0  0  0  0  0  0  0
    0.5351   -0.1414   -1.3146 C   0  0  0  0  0  0  0  0  0  0  0  0
    0.6212    0.9079   -1.5993 H   0  0  0  0  0  0  0  0  0  0  0  0
    1.5297   -0.5856   -1.3672 H   0  0  0  0  0  0  0  0  0  0  0  0
   -0.3688   -0.8109   -2.3455 C   0  0  0  0  0  0  0  0  0  0  0  0
   -1.5334   -0.5112   -2.5736 O   0  0  0  0  0  0  0  0  0  0  0  0
    0.2059   -1.8160   -3.0322 O   0  0  0  0  0  0  0  0  0  0  0  0
   -0.4584   -2.1264   -3.6483 H   0  0  0  0  0  0  0  0  0  0  0  0
   -0.1923    1.1526    0.7617 C   0  0  0  0  0  0  0  0  0  0  0  0
   -1.1582    1.8438    0.4410 O   0  0  0  0  0  0  0  0  0  0  0  0
    0.7203    1.5683    1.6472 N   0  0  0  0  0  0  0  0  0  0  0  0
    1.5210    0.9664    1.8100 H   0  0  0  0  0  0  0  0  0  0  0  0
    0.6747    2.8558    2.3368 C   0  0  0  0  0  0  0  0  0  0  0  0
   -0.3018    2.9877    2.8079 H   0  0  0  0  0  0  0  0  0  0  0  0
    1.4516    2.8997    3.1011 H   0  0  0  0  0  0  0  0  0  0  0  0
    0.8279    3.6639    1.6193 H   0  0  0  0  0  0  0  0  0  0  0  0
  5  6  2  0  0  0  0
  5  7  1  0  0  0  0
  2  3  1  0  0  0  0
  2  4  1  0  0  0  0
  2  5  1  0  0  0  0
  1  2  1  0  0  0  0
 18 19  2  0  0  0  0
 18 20  1  0  0  0  0
 16 17  1  0  0  0  0
 14 15  2  0  0  0  0
 14 16  1  0  0  0  0
 11 12  1  0  0  0  0
 11 13  1  0  0  0  0
 11 14  1  0  0  0  0
  9 10  1  0  0  0  0
  9 11  1  0  0  0  0
  9 18  1  0  0  0  0
  7  8  1  0  0  0  0
  7  9  1  0  0  0  0
 22 23  1  0  0  0  0
 22 24  1  0  0  0  0
 22 25  1  0  0  0  0
 20 21  1  0  0  0  0
 20 22  1  0  0  0  0
M  END
$$$$
default_name
  -OEChem-02102213163D

 25 24  0     1  0  0  0  0  0999 V2000
   -2.7826   -3.8464    0.7821 H   0  0  0  0  0  0  0  0  0  0  0  0
   -2.8156   -2.8034    0.4711 C   0  0  0  0  0  0  0  0  0  0  0  0
   -3.4336   -2.2354    1.1641 H   0  0  0  0  0  0  0  0  0  0  0  0
   -3.2256   -2.7344   -0.5349 H   0  0  0  0  0  0  0  0  0  0  0  0
   -1.4126   -2.2444    0.4801 C   0  0  0  0  0  0  0  0  0  0  0  0
   -0.4686   -2.9534    0.8001 O   0  0  0  0  0  0  0  0  0  0  0  0
   -1.2736   -0.9704    0.1241 N   0  0  0  0  0  0  0  0  0  0  0  0
   -2.0996   -0.4354   -0.1019 H   0  0  0  0  0  0  0  0  0  0  0  0
   -0.0016   -0.2394    0.1271 C   0  0  1  0  0  0  0  0  0  0  0  0
    0.7164   -0.7963    0.7332 H   0  0  0  0  0  0  0  0  0  0  0  0
    0.5351   -0.1414   -1.3146 C   0  0  0  0  0  0  0  0  0  0  0  0
    0.6212    0.9079   -1.5993 H   0  0  0  0  0  0  0  0  0  0  0  0
    1.5297   -0.5856   -1.3672 H   0  0  0  0  0  0  0  0  0  0  0  0
   -0.3688   -0.8109   -2.3455 C   0  0  0  0  0  0  0  0  0  0  0  0
   -1.4298   -0.3633   -2.7605 O   0  0  0  0  0  0  0  0  0  0  0  0
    0.0772   -1.9959   -2.8024 O   0  0  0  0  0  0  0  0  0  0  0  0
   -0.5679   -2.2882   -3.4471 H   0  0  0  0  0  0  0  0  0  0  0  0
   -0.1923    1.1526    0.7617 C   0  0  0  0  0  0  0  0  0  0  0  0
   -1.1582    1.8438    0.4410 O   0  0  0  0  0  0  0  0  0  0  0  0
    0.7203    1.5683    1.6472 N   0  0  0  0  0  0  0  0  0  0  0  0
    1.5210    0.9664    1.8100 H   0  0  0  0  0  0  0  0  0  0  0  0
    0.6747    2.8558    2.3368 C   0  0  0  0  0  0  0  0  0  0  0  0
   -0.3018    2.9877    2.8079 H   0  0  0  0  0  0  0  0  0  0  0  0
    1.4516    2.8997    3.1011 H   0  0  0  0  0  0  0  0  0  0  0  0
    0.8279    3.6639    1.6193 H   0  0  0  0  0  0  0  0  0  0  0  0
  5  6  2  0  0  0  0
  5  7  1  0  0  0  0
  2  3  1  0  0  0  0
  2  4  1  0  0  0  0
  2  5  1  0  0  0  0
  1  2  1  0  0  0  0
 18 19  2  0  0  0  0
 18 20  1  0  0  0  0
 16 17  1  0  0  0  0
 14 15  2  0  0  0  0
 14 16  1  0  0  0  0
 11 12  1  0  0  0  0
 11 13  1  0  0  0  0
 11 14  1  0  0  0  0
  9 10  1  0  0  0  0
  9 11  1  0  0  0  0
  9 18  1  0  0  0  0
  7  8  1  0  0  0  0
  7  9  1  0  0  0  0
 22 23  1  0  0  0  0
 22 24  1  0  0  0  0
 22 25  1  0  0  0  0
 20 21  1  0  0  0  0
 20 22  1  0  0  0  0
M  END
$$$$
default_name
  -OEChem-02102213163D

 25 24  0     1  0  0  0  0  0999 V2000
   -2.7826   -3.8464    0.7821 H   0  0  0  0  0  0  0  0  0  0  0  0
   -2.8156   -2.8034    0.4711 C   0  0  0  0  0  0  0  0  0  0  0  0
   -3.4336   -2.2354    1.1641 H   0  0  0  0  0  0  0  0  0  0  0  0
   -3.2256   -2.7344   -0.5349 H   0  0  0  0  0  0  0  0  0  0  0  0
   -1.4126   -2.2444    0.4801 C   0  0  0  0  0  0  0  0  0  0  0  0
   -0.4686   -2.9534    0.8001 O   0  0  0  0  0  0  0  0  0  0  0  0
   -1.2736   -0.9704    0.1241 N   0  0  0  0  0  0  0  0  0  0  0  0
   -2.0996   -0.4354   -0.1019 H   0  0  0  0  0  0  0  0  0  0  0  0
   -0.0016   -0.2394    0.1271 C   0  0  1  0  0  0  0  0  0  0  0  0
    0.7164   -0.7963    0.7332 H   0  0  0  0  0  0  0  0  0  0  0  0
    0.5351   -0.1414   -1.3146 C   0  0  0  0  0  0  0  0  0  0  0  0
    0.6212    0.9079   -1.5993 H   0  0  0  0  0  0  0  0  0  0  0  0
    1.5297   -0.5856   -1.3672 H   0  0  0  0  0  0  0  0  0  0  0  0
   -0.3688   -0.8109   -2.3455 C   0  0  0  0  0  0  0  0  0  0  0  0
   -1.2826   -0.2673   -2.9518 O   0  0  0  0  0  0  0  0  0  0  0  0
   -0.1048   -2.1120   -2.5675 O   0  0  0  0  0  0  0  0  0  0  0  0
   -0.7249   -2.3946   -3.2405 H   0  0  0  0  0  0  0  0  0  0  0  0
   -0.1923    1.1526    0.7617 C   0  0  0  0  0  0  0  0  0  0  0  0
   -1.1582    1.8438    0.4410 O   0  0  0  0  0  0  0  0  0  0  0  0
    0.7203    1.5683    1.6472 N   0  0  0  0  0  0  0  0  0  0  0  0
    1.5210    0.9664    1.8100 H   0  0  0  0  0  0  0  0  0  0  0  0
    0.6747    2.8558    2.3368 C   0  0  0  0  0  0  0  0  0  0  0  0
   -0.3018    2.9877    2.8079 H   0  0  0  0  0  0  0  0  0  0  0  0
    1.4516    2.8997    3.1011 H   0  0  0  0  0  0  0  0  0  0  0  0
    0.8279    3.6639    1.6193 H   0  0  0  0  0  0  0  0  0  0  0  0
  5  6  2  0  0  0  0
  5  7  1  0  0  0  0
  2  3  1  0  0  0  0
  2  4  1  0  0  0  0
  2  5  1  0  0  0  0
  1  2  1  0  0  0  0
 18 19  2  0  0  0  0
 18 20  1  0  0  0  0
 16 17  1  0  0  0  0
 14 15  2  0  0  0  0
 14 16  1  0  0  0  0
 11 12  1  0  0  0  0
 11 13  1  0  0  0  0
 11 14  1  0  0  0  0
  9 10  1  0  0  0  0
  9 11  1  0  0  0  0
  9 18  1  0  0  0  0
  7  8  1  0  0  0  0
  7  9  1  0  0  0  0
 22 23  1  0  0  0  0
 22 24  1  0  0  0  0
 22 25  1  0  0  0  0
 20 21  1  0  0  0  0
 20 22  1  0  0  0  0
M  END
$$$$
default_name
  -OEChem-02102213163D

 25 24  0     1  0  0  0  0  0999 V2000
   -2.7826   -3.8464    0.7821 H   0  0  0  0  0  0  0  0  0  0  0  0
   -2.8156   -2.8034    0.4711 C   0  0  0  0  0  0  0  0  0  0  0  0
   -3.4336   -2.2354    1.1641 H   0  0  0  0  0  0  0  0  0  0  0  0
   -3.2256   -2.7344   -0.5349 H   0  0  0  0  0  0  0  0  0  0  0  0
   -1.4126   -2.2444    0.4801 C   0  0  0  0  0  0  0  0  0  0  0  0
   -0.4686   -2.9534    0.8001 O   0  0  0  0  0  0  0  0  0  0  0  0
   -1.2736   -0.9704    0.1241 N   0  0  0  0  0  0  0  0  0  0  0  0
   -2.0996   -0.4354   -0.1019 H   0  0  0  0  0  0  0  0  0  0  0  0
   -0.0016   -0.2394    0.1271 C   0  0  1  0  0  0  0  0  0  0  0  0
    0.7164   -0.7963    0.7332 H   0  0  0  0  0  0  0  0  0  0  0  0
    0.5351   -0.1414   -1.3146 C   0  0  0  0  0  0  0  0  0  0  0  0
    0.6212    0.9079   -1.5993 H   0  0  0  0  0  0  0  0  0  0  0  0
    1.5297   -0.5856   -1.3672 H   0  0  0  0  0  0  0  0  0  0  0  0
   -0.3688   -0.8109   -2.3455 C   0  0  0  0  0  0  0  0  0  0  0  0
   -1.1020   -0.2296   -3.1347 O   0  0  0  0  0  0  0  0  0  0  0  0
   -0.3275   -2.1563   -2.3435 O   0  0  0  0  0  0  0  0  0  0  0  0
   -0.9186   -2.4381   -3.0424 H   0  0  0  0  0  0  0  0  0  0  0  0
   -0.1923    1.1526    0.7617 C   0  0  0  0  0  0  0  0  0  0  0  0
   -1.1582    1.8438    0.4410 O   0  0  0  0  0  0  0  0  0  0  0  0
    0.7203    1.5683    1.6472 N   0  0  0  0  0  0  0  0  0  0  0  0
    1.5210    0.9664    1.8100 H   0  0  0  0  0  0  0  0  0  0  0  0
    0.6747    2.8558    2.3368 C   0  0  0  0  0  0  0  0  0  0  0  0
   -0.3018    2.9877    2.8079 H   0  0  0  0  0  0  0  0  0  0  0  0
    1.4516    2.8997    3.1011 H   0  0  0  0  0  0  0  0  0  0  0  0
    0.8279    3.6639    1.6193 H   0  0  0  0  0  0  0  0  0  0  0  0
  5  6  2  0  0  0  0
  5  7  1  0  0  0  0
  2  3  1  0  0  0  0
  2  4  1  0  0  0  0
  2  5  1  0  0  0  0
  1  2  1  0  0  0  0
 18 19  2  0  0  0  0
 18 20  1  0  0  0  0
 16 17  1  0  0  0  0
 14 15  2  0  0  0  0
 14 16  1  0  0  0  0
 11 12  1  0  0  0  0
 11 13  1  0  0  0  0
 11 14  1  0  0  0  0
  9 10  1  0  0  0  0
  9 11  1  0  0  0  0
  9 18  1  0  0  0  0
  7  8  1  0  0  0  0
  7  9  1  0  0  0  0
 22 23  1  0  0  0  0
 22 24  1  0  0  0  0
 22 25  1  0  0  0  0
 20 21  1  0  0  0  0
 20 22  1  0  0  0  0
M  END
$$$$
default_name
  -OEChem-02102213163D

 25 24  0     1  0  0  0  0  0999 V2000
   -2.7826   -3.8464    0.7821 H   0  0  0  0  0  0  0  0  0  0  0  0
   -2.8156   -2.8034    0.4711 C   0  0  0  0  0  0  0  0  0  0  0  0
   -3.4336   -2.2354    1.1641 H   0  0  0  0  0  0  0  0  0  0  0  0
   -3.2256   -2.7344   -0.5349 H   0  0  0  0  0  0  0  0  0  0  0  0
   -1.4126   -2.2444    0.4801 C   0  0  0  0  0  0  0  0  0  0  0  0
   -0.4686   -2.9534    0.8001 O   0  0  0  0  0  0  0  0  0  0  0  0
   -1.2736   -0.9704    0.1241 N   0  0  0  0  0  0  0  0  0  0  0  0
   -2.0996   -0.4354   -0.1019 H   0  0  0  0  0  0  0  0  0  0  0  0
   -0.0016   -0.2394    0.1271 C   0  0  1  0  0  0  0  0  0  0  0  0
    0.7164   -0.7963    0.7332 H   0  0  0  0  0  0  0  0  0  0  0  0
    0.5351   -0.1414   -1.3146 C   0  0  0  0  0  0  0  0  0  0  0  0
    0.6212    0.9079   -1.5993 H   0  0  0  0  0  0  0  0  0  0  0  0
    1.5297   -0.5856   -1.3672 H   0  0  0  0  0  0  0  0  0  0  0  0
   -0.3688   -0.8109   -2.3455 C   0  0  0  0  0  0  0  0  0  0  0  0
   -0.9001   -0.2529   -3.2966 O   0  0  0  0  0  0  0  0  0  0  0  0
   -0.5758   -2.1258   -2.1456 O   0  0  0  0  0  0  0  0  0  0  0  0
   -1.1358   -2.4159   -2.8664 H   0  0  0  0  0  0  0  0  0  0  0  0
   -0.1923    1.1526    0.7617 C   0  0  0  0  0  0  0  0  0  0  0  0
   -1.1582    1.8438    0.4410 O   0  0  0  0  0  0  0  0  0  0  0  0
    0.7203    1.5683    1.6472 N   0  0  0  0  0  0  0  0  0  0  0  0
    1.5210    0.9664    1.8100 H   0  0  0  0  0  0  0  0  0  0  0  0
    0.6747    2.8558    2.3368 C   0  0  0  0  0  0  0  0  0  0  0  0
   -0.3018    2.9877    2.8079 H   0  0  0  0  0  0  0  0  0  0  0  0
    1.4516    2.8997    3.1011 H   0  0  0  0  0  0  0  0  0  0  0  0
    0.8279    3.6639    1.6193 H   0  0  0  0  0  0  0  0  0  0  0  0
  5  6  2  0  0  0  0
  5  7  1  0  0  0  0
  2  3  1  0  0  0  0
  2  4  1  0  0  0  0
  2  5  1  0  0  0  0
  1  2  1  0  0  0  0
 18 19  2  0  0  0  0
 18 20  1  0  0  0  0
 16 17  1  0  0  0  0
 14 15  2  0  0  0  0
 14 16  1  0  0  0  0
 11 12  1  0  0  0  0
 11 13  1  0  0  0  0
 11 14  1  0  0  0  0
  9 10  1  0  0  0  0
  9 11  1  0  0  0  0
  9 18  1  0  0  0  0
  7  8  1  0  0  0  0
  7  9  1  0  0  0  0
 22 23  1  0  0  0  0
 22 24  1  0  0  0  0
 22 25  1  0  0  0  0
 20 21  1  0  0  0  0
 20 22  1  0  0  0  0
M  END
$$$$
default_name
  -OEChem-02102213163D

 25 24  0     1  0  0  0  0  0999 V2000
   -2.7826   -3.8464    0.7821 H   0  0  0  0  0  0  0  0  0  0  0  0
   -2.8156   -2.8034    0.4711 C   0  0  0  0  0  0  0  0  0  0  0  0
   -3.4336   -2.2354    1.1641 H   0  0  0  0  0  0  0  0  0  0  0  0
   -3.2256   -2.7344   -0.5349 H   0  0  0  0  0  0  0  0  0  0  0  0
   -1.4126   -2.2444    0.4801 C   0  0  0  0  0  0  0  0  0  0  0  0
   -0.4686   -2.9534    0.8001 O   0  0  0  0  0  0  0  0  0  0  0  0
   -1.2736   -0.9704    0.1241 N   0  0  0  0  0  0  0  0  0  0  0  0
   -2.0996   -0.4354   -0.1019 H   0  0  0  0  0  0  0  0  0  0  0  0
   -0.0016   -0.2394    0.1271 C   0  0  1  0  0  0  0  0  0  0  0  0
    0.7164   -0.7963    0.7332 H   0  0  0  0  0  0  0  0  0  0  0  0
    0.5351   -0.1414   -1.3146 C   0  0  0  0  0  0  0  0  0  0  0  0
    0.6212    0.9079   -1.5993 H   0  0  0  0  0  0  0  0  0  0  0  0
    1.5297   -0.5856   -1.3672 H   0  0  0  0  0  0  0  0  0  0  0  0
   -0.3688   -0.8109   -2.3455 C   0  0  0  0  0  0  0  0  0  0  0  0
   -0.6908   -0.3354   -3.4265 O   0  0  0  0  0  0  0  0  0  0  0  0
   -0.8328   -2.0226   -1.9873 O   0  0  0  0  0  0  0  0  0  0  0  0
   -1.3617   -2.3296   -2.7244 H   0  0  0  0  0  0  0  0  0  0  0  0
   -0.1923    1.1526    0.7617 C   0  0  0  0  0  0  0  0  0  0  0  0
   -1.1582    1.8438    0.4410 O   0  0  0  0  0  0  0  0  0  0  0  0
    0.7203    1.5683    1.6472 N   0  0  0  0  0  0  0  0  0  0  0  0
    1.5210    0.9664    1.8100 H   0  0  0  0  0  0  0  0  0  0  0  0
    0.6747    2.8558    2.3368 C   0  0  0  0  0  0  0  0  0  0  0  0
   -0.3018    2.9877    2.8079 H   0  0  0  0  0  0  0  0  0  0  0  0
    1.4516    2.8997    3.1011 H   0  0  0  0  0  0  0  0  0  0  0  0
    0.8279    3.6639    1.6193 H   0  0  0  0  0  0  0  0  0  0  0  0
  5  6  2  0  0  0  0
  5  7  1  0  0  0  0
  2  3  1  0  0  0  0
  2  4  1  0  0  0  0
  2  5  1  0  0  0  0
  1  2  1  0  0  0  0
 18 19  2  0  0  0  0
 18 20  1  0  0  0  0
 16 17  1  0  0  0  0
 14 15  2  0  0  0  0
 14 16  1  0  0  0  0
 11 12  1  0  0  0  0
 11 13  1  0  0  0  0
 11 14  1  0  0  0  0
  9 10  1  0  0  0  0
  9 11  1  0  0  0  0
  9 18  1  0  0  0  0
  7  8  1  0  0  0  0
  7  9  1  0  0  0  0
 22 23  1  0  0  0  0
 22 24  1  0  0  0  0
 22 25  1  0  0  0  0
 20 21  1  0  0  0  0
 20 22  1  0  0  0  0
M  END
$$$$
default_name
  -OEChem-02102213163D

 25 24  0     1  0  0  0  0  0999 V2000
   -2.7826   -3.8464    0.7821 H   0  0  0  0  0  0  0  0  0  0  0  0
   -2.8156   -2.8034    0.4711 C   0  0  0  0  0  0  0  0  0  0  0  0
   -3.4336   -2.2354    1.1641 H   0  0  0  0  0  0  0  0  0  0  0  0
   -3.2256   -2.7344   -0.5349 H   0  0  0  0  0  0  0  0  0  0  0  0
   -1.4126   -2.2444    0.4801 C   0  0  0  0  0  0  0  0  0  0  0  0
   -0.4686   -2.9534    0.8001 O   0  0  0  0  0  0  0  0  0  0  0  0
   -1.2736   -0.9704    0.1241 N   0  0  0  0  0  0  0  0  0  0  0  0
   -2.0996   -0.4354   -0.1019 H   0  0  0  0  0  0  0  0  0  0  0  0
   -0.0016   -0.2394    0.1271 C   0  0  1  0  0  0  0  0  0  0  0  0
    0.7164   -0.7963    0.7332 H   0  0  0  0  0  0  0  0  0  0  0  0
    0.5351   -0.1414   -1.3146 C   0  0  0  0  0  0  0  0  0  0  0  0
    0.6212    0.9079   -1.5993 H   0  0  0  0  0  0  0  0  0  0  0  0
    1.5297   -0.5856   -1.3672 H   0  0  0  0  0  0  0  0  0  0  0  0
   -0.3688   -0.8109   -2.3455 C   0  0  0  0  0  0  0  0  0  0  0  0
   -0.4883   -0.4717   -3.5156 O   0  0  0  0  0  0  0  0  0  0  0  0
   -1.0810   -1.8537   -1.8794 O   0  0  0  0  0  0  0  0  0  0  0  0
   -1.5809   -2.1848   -2.6262 H   0  0  0  0  0  0  0  0  0  0  0  0
   -0.1923    1.1526    0.7617 C   0  0  0  0  0  0  0  0  0  0  0  0
   -1.1582    1.8438    0.4410 O   0  0  0  0  0  0  0  0  0  0  0  0
    0.7203    1.5683    1.6472 N   0  0  0  0  0  0  0  0  0  0  0  0
    1.5210    0.9664    1.8100 H   0  0  0  0  0  0  0  0  0  0  0  0
    0.6747    2.8558    2.3368 C   0  0  0  0  0  0  0  0  0  0  0  0
   -0.3018    2.9877    2.8079 H   0  0  0  0  0  0  0  0  0  0  0  0
    1.4516    2.8997    3.1011 H   0  0  0  0  0  0  0  0  0  0  0  0
    0.8279    3.6639    1.6193 H   0  0  0  0  0  0  0  0  0  0  0  0
  5  6  2  0  0  0  0
  5  7  1  0  0  0  0
  2  3  1  0  0  0  0
  2  4  1  0  0  0  0
  2  5  1  0  0  0  0
  1  2  1  0  0  0  0
 18 19  2  0  0  0  0
 18 20  1  0  0  0  0
 16 17  1  0  0  0  0
 14 15  2  0  0  0  0
 14 16  1  0  0  0  0
 11 12  1  0  0  0  0
 11 13  1  0  0  0  0
 11 14  1  0  0  0  0
  9 10  1  0  0  0  0
  9 11  1  0  0  0  0
  9 18  1  0  0  0  0
  7  8  1  0  0  0  0
  7  9  1  0  0  0  0
 22 23  1  0  0  0  0
 22 24  1  0  0  0  0
 22 25  1  0  0  0  0
 20 21  1  0  0  0  0
 20 22  1  0  0  0  0
M  END
$$$$
default_name
  -OEChem-02102213163D

 25 24  0     1  0  0  0  0  0999 V2000
   -2.7826   -3.8464    0.7821 H   0  0  0  0  0  0  0  0  0  0  0  0
   -2.8156   -2.8034    0.4711 C   0  0  0  0  0  0  0  0  0  0  0  0
   -3.4336   -2.2354    1.1641 H   0  0  0  0  0  0  0  0  0  0  0  0
   -3.2256   -2.7344   -0.5349 H   0  0  0  0  0  0  0  0  0  0  0  0
   -1.4126   -2.2444    0.4801 C   0  0  0  0  0  0  0  0  0  0  0  0
   -0.4686   -2.9534    0.8001 O   0  0  0  0  0  0  0  0  0  0  0  0
   -1.2736   -0.9704    0.1241 N   0  0  0  0  0  0  0  0  0  0  0  0
   -2.0996   -0.4354   -0.1019 H   0  0  0  0  0  0  0  0  0  0  0  0
   -0.0016   -0.2394    0.1271 C   0  0  1  0  0  0  0  0  0  0  0  0
    0.7164   -0.7963    0.7332 H   0  0  0  0  0  0  0  0  0  0  0  0
    0.5351   -0.1414   -1.3146 C   0  0  0  0  0  0  0  0  0  0  0  0
    0.6212    0.9079   -1.5993 H   0  0  0  0  0  0  0  0  0  0  0  0
    1.5297   -0.5856   -1.3672 H   0  0  0  0  0  0  0  0  0  0  0  0
   -0.3688   -0.8109   -2.3455 C   0  0  0  0  0  0  0  0  0  0  0  0
   -0.3064   -0.6524   -3.5577 O   0  0  0  0  0  0  0  0  0  0  0  0
   -1.3034   -1.6306   -1.8293 O   0  0  0  0  0  0  0  0  0  0  0  0
   -1.7785   -1.9917   -2.5784 H   0  0  0  0  0  0  0  0  0  0  0  0
   -0.1923    1.1526    0.7617 C   0  0  0  0  0  0  0  0  0  0  0  0
   -1.1582    1.8438    0.4410 O   0  0  0  0  0  0  0  0  0  0  0  0
    0.7203    1.5683    1.6472 N   0  0  0  0  0  0  0  0  0  0  0  0
    1.5210    0.9664    1.8100 H   0  0  0  0  0  0  0  0  0  0  0  0
    0.6747    2.8558    2.3368 C   0  0  0  0  0  0  0  0  0  0  0  0
   -0.3018    2.9877    2.8079 H   0  0  0  0  0  0  0  0  0  0  0  0
    1.4516    2.8997    3.1011 H   0  0  0  0  0  0  0  0  0  0  0  0
    0.8279    3.6639    1.6193 H   0  0  0  0  0  0  0  0  0  0  0  0
  5  6  2  0  0  0  0
  5  7  1  0  0  0  0
  2  3  1  0  0  0  0
  2  4  1  0  0  0  0
  2  5  1  0  0  0  0
  1  2  1  0  0  0  0
 18 19  2  0  0  0  0
 18 20  1  0  0  0  0
 16 17  1  0  0  0  0
 14 15  2  0  0  0  0
 14 16  1  0  0  0  0
 11 12  1  0  0  0  0
 11 13  1  0  0  0  0
 11 14  1  0  0  0  0
  9 10  1  0  0  0  0
  9 11  1  0  0  0  0
  9 18  1  0  0  0  0
  7  8  1  0  0  0  0
  7  9  1  0  0  0  0
 22 23  1  0  0  0  0
 22 24  1  0  0  0  0
 22 25  1  0  0  0  0
 20 21  1  0  0  0  0
 20 22  1  0  0  0  0
M  END
$$$$
default_name
  -OEChem-02102213163D

 25 24  0     1  0  0  0  0  0999 V2000
   -2.7826   -3.8464    0.7821 H   0  0  0  0  0  0  0  0  0  0  0  0
   -2.8156   -2.8034    0.4711 C   0  0  0  0  0  0  0  0  0  0  0  0
   -3.4336   -2.2354    1.1641 H   0  0  0  0  0  0  0  0  0  0  0  0
   -3.2256   -2.7344   -0.5349 H   0  0  0  0  0  0  0  0  0  0  0  0
   -1.4126   -2.2444    0.4801 C   0  0  0  0  0  0  0  0  0  0  0  0
   -0.4686   -2.9534    0.8001 O   0  0  0  0  0  0  0  0  0  0  0  0
   -1.2736   -0.9704    0.1241 N   0  0  0  0  0  0  0  0  0  0  0  0
   -2.0996   -0.4354   -0.1019 H   0  0  0  0  0  0  0  0  0  0  0  0
   -0.0016   -0.2394    0.1271 C   0  0  1  0  0  0  0  0  0  0  0  0
    0.7164   -0.7963    0.7332 H   0  0  0  0  0  0  0  0  0  0  0  0
    0.5351   -0.1414   -1.3146 C   0  0  0  0  0  0  0  0  0  0  0  0
    0.8719    0.8778   -1.5080 H   0  0  0  0  0  0  0  0  0  0  0  0
    1.3918   -0.8057   -1.4335 H   0  0  0  0  0  0  0  0  0  0  0  0
   -0.5098   -0.4751   -2.3752 C   0  0  0  0  0  0  0  0  0  0  0  0
   -0.3245   -0.4676   -3.5851 O   0  0  0  0  0  0  0  0  0  0  0  0
   -1.7252   -0.7909   -1.8905 O   0  0  0  0  0  0  0  0  0  0  0  0
   -2.2674   -0.9937   -2.6535 H   0  0  0  0  0  0  0  0  0  0  0  0
   -0.1923    1.1526    0.7617 C   0  0  0  0  0  0  0  0  0  0  0  0
   -1.1582    1.8438    0.4410 O   0  0  0  0  0  0  0  0  0  0  0  0
    0.7203    1.5683    1.6472 N   0  0  0  0  0  0  0  0  0  0  0  0
    1.5210    0.9664    1.8100 H   0  0  0  0  0  0  0  0  0  0  0  0
    0.6747    2.8558    2.3368 C   0  0  0  0  0  0  0  0  0  0  0  0
   -0.3018    2.9877    2.8079 H   0  0  0  0  0  0  0  0  0  0  0  0
    1.4516    2.8997    3.1011 H   0  0  0  0  0  0  0  0  0  0  0  0
    0.8279    3.6639    1.6193 H   0  0  0  0  0  0  0  0  0  0  0  0
  5  6  2  0  0  0  0
  5  7  1  0  0  0  0
  2  3  1  0  0  0  0
  2  4  1  0  0  0  0
  2  5  1  0  0  0  0
  1  2  1  0  0  0  0
 18 19  2  0  0  0  0
 18 20  1  0  0  0  0
 16 17  1  0  0  0  0
 14 15  2  0  0  0  0
 14 16  1  0  0  0  0
 11 12  1  0  0  0  0
 11 13  1  0  0  0  0
 11 14  1  0  0  0  0
  9 10  1  0  0  0  0
  9 11  1  0  0  0  0
  9 18  1  0  0  0  0
  7  8  1  0  0  0  0
  7  9  1  0  0  0  0
 22 23  1  0  0  0  0
 22 24  1  0  0  0  0
 22 25  1  0  0  0  0
 20 21  1  0  0  0  0
 20 22  1  0  0  0  0
M  END
$$$$
default_name
  -OEChem-02102213163D

 25 24  0     1  0  0  0  0  0999 V2000
   -2.7826   -3.8464    0.7821 H   0  0  0  0  0  0  0  0  0  0  0  0
   -2.8156   -2.8034    0.4711 C   0  0  0  0  0  0  0  0  0  0  0  0
   -3.4336   -2.2354    1.1641 H   0  0  0  0  0  0  0  0  0  0  0  0
   -3.2256   -2.7344   -0.5349 H   0  0  0  0  0  0  0  0  0  0  0  0
   -1.4126   -2.2444    0.4801 C   0  0  0  0  0  0  0  0  0  0  0  0
   -0.4686   -2.9534    0.8001 O   0  0  0  0  0  0  0  0  0  0  0  0
   -1.2736   -0.9704    0.1241 N   0  0  0  0  0  0  0  0  0  0  0  0
   -2.0996   -0.4354   -0.1019 H   0  0  0  0  0  0  0  0  0  0  0  0
   -0.0016   -0.2394    0.1271 C   0  0  1  0  0  0  0  0  0  0  0  0
    0.7164   -0.7963    0.7332 H   0  0  0  0  0  0  0  0  0  0  0  0
    0.5351   -0.1414   -1.3146 C   0  0  0  0  0  0  0  0  0  0  0  0
    0.8719    0.8778   -1.5080 H   0  0  0  0  0  0  0  0  0  0  0  0
    1.3918   -0.8057   -1.4335 H   0  0  0  0  0  0  0  0  0  0  0  0
   -0.5098   -0.4751   -2.3752 C   0  0  0  0  0  0  0  0  0  0  0  0
   -0.2776   -0.7209   -3.5516 O   0  0  0  0  0  0  0  0  0  0  0  0
   -1.7812   -0.4798   -1.9332 O   0  0  0  0  0  0  0  0  0  0  0  0
   -2.3203   -0.7204   -2.6874 H   0  0  0  0  0  0  0  0  0  0  0  0
   -0.1923    1.1526    0.7617 C   0  0  0  0  0  0  0  0  0  0  0  0
   -1.1582    1.8438    0.4410 O   0  0  0  0  0  0  0  0  0  0  0  0
    0.7203    1.5683    1.6472 N   0  0  0  0  0  0  0  0  0  0  0  0
    1.5210    0.9664    1.8100 H   0  0  0  0  0  0  0  0  0  0  0  0
    0.6747    2.8558    2.3368 C   0  0  0  0  0  0  0  0  0  0  0  0
   -0.3018    2.9877    2.8079 H   0  0  0  0  0  0  0  0  0  0  0  0
    1.4516    2.8997    3.1011 H   0  0  0  0  0  0  0  0  0  0  0  0
    0.8279    3.6639    1.6193 H   0  0  0  0  0  0  0  0  0  0  0  0
  5  6  2  0  0  0  0
  5  7  1  0  0  0  0
  2  3  1  0  0  0  0
  2  4  1  0  0  0  0
  2  5  1  0  0  0  0
  1  2  1  0  0  0  0
 18 19  2  0  0  0  0
 18 20  1  0  0  0  0
 16 17  1  0  0  0  0
 14 15  2  0  0  0  0
 14 16  1  0  0  0  0
 11 12  1  0  0  0  0
 11 13  1  0  0  0  0
 11 14  1  0  0  0  0
  9 10  1  0  0  0  0
  9 11  1  0  0  0  0
  9 18  1  0  0  0  0
  7  8  1  0  0  0  0
  7  9  1  0  0  0  0
 22 23  1  0  0  0  0
 22 24  1  0  0  0  0
 22 25  1  0  0  0  0
 20 21  1  0  0  0  0
 20 22  1  0  0  0  0
M  END
$$$$
default_name
  -OEChem-02102213163D

 25 24  0     1  0  0  0  0  0999 V2000
   -2.7826   -3.8464    0.7821 H   0  0  0  0  0  0  0  0  0  0  0  0
   -2.8156   -2.8034    0.4711 C   0  0  0  0  0  0  0  0  0  0  0  0
   -3.4336   -2.2354    1.1641 H   0  0  0  0  0  0  0  0  0  0  0  0
   -3.2256   -2.7344   -0.5349 H   0  0  0  0  0  0  0  0  0  0  0  0
   -1.4126   -2.2444    0.4801 C   0  0  0  0  0  0  0  0  0  0  0  0
   -0.4686   -2.9534    0.8001 O   0  0  0  0  0  0  0  0  0  0  0  0
   -1.2736   -0.9704    0.1241 N   0  0  0  0  0  0  0  0  0  0  0  0
   -2.0996   -0.4354   -0.1019 H   0  0  0  0  0  0  0  0  0  0  0  0
   -0.0016   -0.2394    0.1271 C   0  0  1  0  0  0  0  0  0  0  0  0
    0.7164   -0.7963    0.7332 H   0  0  0  0  0  0  0  0  0  0  0  0
    0.5351   -0.1414   -1.3146 C   0  0  0  0  0  0  0  0  0  0  0  0
    0.8719    0.8778   -1.5080 H   0  0  0  0  0  0  0  0  0  0  0  0
    1.3918   -0.8057   -1.4335 H   0  0  0  0  0  0  0  0  0  0  0  0
   -0.5098   -0.4751   -2.3752 C   0  0  0  0  0  0  0  0  0  0  0  0
   -0.2798   -0.9681   -3.4717 O   0  0  0  0  0  0  0  0  0  0  0  0
   -1.7770   -0.1768   -2.0328 O   0  0  0  0  0  0  0  0  0  0  0  0
   -2.3204   -0.4528   -2.7715 H   0  0  0  0  0  0  0  0  0  0  0  0
   -0.1923    1.1526    0.7617 C   0  0  0  0  0  0  0  0  0  0  0  0
   -1.1582    1.8438    0.4410 O   0  0  0  0  0  0  0  0  0  0  0  0
    0.7203    1.5683    1.6472 N   0  0  0  0  0  0  0  0  0  0  0  0
    1.5210    0.9664    1.8100 H   0  0  0  0  0  0  0  0  0  0  0  0
    0.6747    2.8558    2.3368 C   0  0  0  0  0  0  0  0  0  0  0  0
   -0.3018    2.9877    2.8079 H   0  0  0  0  0  0  0  0  0  0  0  0
    1.4516    2.8997    3.1011 H   0  0  0  0  0  0  0  0  0  0  0  0
    0.8279    3.6639    1.6193 H   0  0  0  0  0  0  0  0  0  0  0  0
  5  6  2  0  0  0  0
  5  7  1  0  0  0  0
  2  3  1  0  0  0  0
  2  4  1  0  0  0  0
  2  5  1  0  0  0  0
  1  2  1  0  0  0  0
 18 19  2  0  0  0  0
 18 20  1  0  0  0  0
 16 17  1  0  0  0  0
 14 15  2  0  0  0  0
 14 16  1  0  0  0  0
 11 12  1  0  0  0  0
 11 13  1  0  0  0  0
 11 14  1  0  0  0  0
  9 10  1  0  0  0  0
  9 11  1  0  0  0  0
  9 18  1  0  0  0  0
  7  8  1  0  0  0  0
  7  9  1  0  0  0  0
 22 23  1  0  0  0  0
 22 24  1  0  0  0  0
 22 25  1  0  0  0  0
 20 21  1  0  0  0  0
 20 22  1  0  0  0  0
M  END
$$$$
default_name
  -OEChem-02102213163D

 25 24  0     1  0  0  0  0  0999 V2000
   -2.7826   -3.8464    0.7821 H   0  0  0  0  0  0  0  0  0  0  0  0
   -2.8156   -2.8034    0.4711 C   0  0  0  0  0  0  0  0  0  0  0  0
   -3.4336   -2.2354    1.1641 H   0  0  0  0  0  0  0  0  0  0  0  0
   -3.2256   -2.7344   -0.5349 H   0  0  0  0  0  0  0  0  0  0  0  0
   -1.4126   -2.2444    0.4801 C   0  0  0  0  0  0  0  0  0  0  0  0
   -0.4686   -2.9534    0.8001 O   0  0  0  0  0  0  0  0  0  0  0  0
   -1.2736   -0.9704    0.1241 N   0  0  0  0  0  0  0  0  0  0  0  0
   -2.0996   -0.4354   -0.1019 H   0  0  0  0  0  0  0  0  0  0  0  0
   -0.0016   -0.2394    0.1271 C   0  0  1  0  0  0  0  0  0  0  0  0
    0.7164   -0.7963    0.7332 H   0  0  0  0  0  0  0  0  0  0  0  0
    0.5351   -0.1414   -1.3146 C   0  0  0  0  0  0  0  0  0  0  0  0
    0.8719    0.8778   -1.5080 H   0  0  0  0  0  0  0  0  0  0  0  0
    1.3918   -0.8057   -1.4335 H   0  0  0  0  0  0  0  0  0  0  0  0
   -0.5098   -0.4751   -2.3752 C   0  0  0  0  0  0  0  0  0  0  0  0
   -0.3309   -1.1924   -3.3508 O   0  0  0  0  0  0  0  0  0  0  0  0
   -1.7127    0.0975   -2.1824 O   0  0  0  0  0  0  0  0  0  0  0  0
   -2.2675   -0.2094   -2.9002 H   0  0  0  0  0  0  0  0  0  0  0  0
   -0.1923    1.1526    0.7617 C   0  0  0  0  0  0  0  0  0  0  0  0
   -1.1582    1.8438    0.4410 O   0  0  0  0  0  0  0  0  0  0  0  0
    0.7203    1.5683    1.6472 N   0  0  0  0  0  0  0  0  0  0  0  0
    1.5210    0.9664    1.8100 H   0  0  0  0  0  0  0  0  0  0  0  0
    0.6747    2.8558    2.3368 C   0  0  0  0  0  0  0  0  0  0  0  0
   -0.3018    2.9877    2.8079 H   0  0  0  0  0  0  0  0  0  0  0  0
    1.4516    2.8997    3.1011 H   0  0  0  0  0  0  0  0  0  0  0  0
    0.8279    3.6639    1.6193 H   0  0  0  0  0  0  0  0  0  0  0  0
  5  6  2  0  0  0  0
  5  7  1  0  0  0  0
  2  3  1  0  0  0  0
  2  4  1  0  0  0  0
  2  5  1  0  0  0  0
  1  2  1  0  0  0  0
 18 19  2  0  0  0  0
 18 20  1  0  0  0  0
 16 17  1  0  0  0  0
 14 15  2  0  0  0  0
 14 16  1  0  0  0  0
 11 12  1  0  0  0  0
 11 13  1  0  0  0  0
 11 14  1  0  0  0  0
  9 10  1  0  0  0  0
  9 11  1  0  0  0  0
  9 18  1  0  0  0  0
  7  8  1  0  0  0  0
  7  9  1  0  0  0  0
 22 23  1  0  0  0  0
 22 24  1  0  0  0  0
 22 25  1  0  0  0  0
 20 21  1  0  0  0  0
 20 22  1  0  0  0  0
M  END
$$$$
default_name
  -OEChem-02102213163D

 25 24  0     1  0  0  0  0  0999 V2000
   -2.7826   -3.8464    0.7821 H   0  0  0  0  0  0  0  0  0  0  0  0
   -2.8156   -2.8034    0.4711 C   0  0  0  0  0  0  0  0  0  0  0  0
   -3.4336   -2.2354    1.1641 H   0  0  0  0  0  0  0  0  0  0  0  0
   -3.2256   -2.7344   -0.5349 H   0  0  0  0  0  0  0  0  0  0  0  0
   -1.4126   -2.2444    0.4801 C   0  0  0  0  0  0  0  0  0  0  0  0
   -0.4686   -2.9534    0.8001 O   0  0  0  0  0  0  0  0  0  0  0  0
   -1.2736   -0.9704    0.1241 N   0  0  0  0  0  0  0  0  0  0  0  0
   -2.0996   -0.4354   -0.1019 H   0  0  0  0  0  0  0  0  0  0  0  0
   -0.0016   -0.2394    0.1271 C   0  0  1  0  0  0  0  0  0  0  0  0
    0.7164   -0.7963    0.7332 H   0  0  0  0  0  0  0  0  0  0  0  0
    0.5351   -0.1414   -1.3146 C   0  0  0  0  0  0  0  0  0  0  0  0
    0.8719    0.8778   -1.5080 H   0  0  0  0  0  0  0  0  0  0  0  0
    1.3918   -0.8057   -1.4335 H   0  0  0  0  0  0  0  0  0  0  0  0
   -0.5098   -0.4751   -2.3752 C   0  0  0  0  0  0  0  0  0  0  0  0
   -0.4275   -1.3783   -3.1972 O   0  0  0  0  0  0  0  0  0  0  0  0
   -1.5927    0.3244   -2.3719 O   0  0  0  0  0  0  0  0  0  0  0  0
   -2.1653   -0.0065   -3.0647 H   0  0  0  0  0  0  0  0  0  0  0  0
   -0.1923    1.1526    0.7617 C   0  0  0  0  0  0  0  0  0  0  0  0
   -1.1582    1.8438    0.4410 O   0  0  0  0  0  0  0  0  0  0  0  0
    0.7203    1.5683    1.6472 N   0  0  0  0  0  0  0  0  0  0  0  0
    1.5210    0.9664    1.8100 H   0  0  0  0  0  0  0  0  0  0  0  0
    0.6747    2.8558    2.3368 C   0  0  0  0  0  0  0  0  0  0  0  0
   -0.3018    2.9877    2.8079 H   0  0  0  0  0  0  0  0  0  0  0  0
    1.4516    2.8997    3.1011 H   0  0  0  0  0  0  0  0  0  0  0  0
    0.8279    3.6639    1.6193 H   0  0  0  0  0  0  0  0  0  0  0  0
  5  6  2  0  0  0  0
  5  7  1  0  0  0  0
  2  3  1  0  0  0  0
  2  4  1  0  0  0  0
  2  5  1  0  0  0  0
  1  2  1  0  0  0  0
 18 19  2  0  0  0  0
 18 20  1  0  0  0  0
 16 17  1  0  0  0  0
 14 15  2  0  0  0  0
 14 16  1  0  0  0  0
 11 12  1  0  0  0  0
 11 13  1  0  0  0  0
 11 14  1  0  0  0  0
  9 10  1  0  0  0  0
  9 11  1  0  0  0  0
  9 18  1  0  0  0  0
  7  8  1  0  0  0  0
  7  9  1  0  0  0  0
 22 23  1  0  0  0  0
 22 24  1  0  0  0  0
 22 25  1  0  0  0  0
 20 21  1  0  0  0  0
 20 22  1  0  0  0  0
M  END
$$$$
default_name
  -OEChem-02102213163D

 25 24  0     1  0  0  0  0  0999 V2000
   -2.7826   -3.8464    0.7821 H   0  0  0  0  0  0  0  0  0  0  0  0
   -2.8156   -2.8034    0.4711 C   0  0  0  0  0  0  0  0  0  0  0  0
   -3.4336   -2.2354    1.1641 H   0  0  0  0  0  0  0  0  0  0  0  0
   -3.2256   -2.7344   -0.5349 H   0  0  0  0  0  0  0  0  0  0  0  0
   -1.4126   -2.2444    0.4801 C   0  0  0  0  0  0  0  0  0  0  0  0
   -0.4686   -2.9534    0.8001 O   0  0  0  0  0  0  0  0  0  0  0  0
   -1.2736   -0.9704    0.1241 N   0  0  0  0  0  0  0  0  0  0  0  0
   -2.0996   -0.4354   -0.1019 H   0  0  0  0  0  0  0  0  0  0  0  0
   -0.0016   -0.2394    0.1271 C   0  0  1  0  0  0  0  0  0  0  0  0
    0.7164   -0.7963    0.7332 H   0  0  0  0  0  0  0  0  0  0  0  0
    0.5351   -0.1414   -1.3146 C   0  0  0  0  0  0  0  0  0  0  0  0
    0.8719    0.8778   -1.5080 H   0  0  0  0  0  0  0  0  0  0  0  0
    1.3918   -0.8057   -1.4335 H   0  0  0  0  0  0  0  0  0  0  0  0
   -0.5098   -0.4751   -2.3752 C   0  0  0  0  0  0  0  0  0  0  0  0
   -0.5629   -1.5134   -3.0213 O   0  0  0  0  0  0  0  0  0  0  0  0
   -1.4254    0.4884   -2.5884 O   0  0  0  0  0  0  0  0  0  0  0  0
   -2.0208    0.1419   -3.2537 H   0  0  0  0  0  0  0  0  0  0  0  0
   -0.1923    1.1526    0.7617 C   0  0  0  0  0  0  0  0  0  0  0  0
   -1.1582    1.8438    0.4410 O   0  0  0  0  0  0  0  0  0  0  0  0
    0.7203    1.5683    1.6472 N   0  0  0  0  0  0  0  0  0  0  0  0
    1.5210    0.9664    1.8100 H   0  0  0  0  0  0  0  0  0  0  0  0
    0.6747    2.8558    2.3368 C   0  0  0  0  0  0  0  0  0  0  0  0
   -0.3018    2.9877    2.8079 H   0  0  0  0  0  0  0  0  0  0  0  0
    1.4516    2.8997    3.1011 H   0  0  0  0  0  0  0  0  0  0  0  0
    0.8279    3.6639    1.6193 H   0  0  0  0  0  0  0  0  0  0  0  0
  5  6  2  0  0  0  0
  5  7  1  0  0  0  0
  2  3  1  0  0  0  0
  2  4  1  0  0  0  0
  2  5  1  0  0  0  0
  1  2  1  0  0  0  0
 18 19  2  0  0  0  0
 18 20  1  0  0  0  0
 16 17  1  0  0  0  0
 14 15  2  0  0  0  0
 14 16  1  0  0  0  0
 11 12  1  0  0  0  0
 11 13  1  0  0  0  0
 11 14  1  0  0  0  0
  9 10  1  0  0  0  0
  9 11  1  0  0  0  0
  9 18  1  0  0  0  0
  7  8  1  0  0  0  0
  7  9  1  0  0  0  0
 22 23  1  0  0  0  0
 22 24  1  0  0  0  0
 22 25  1  0  0  0  0
 20 21  1  0  0  0  0
 20 22  1  0  0  0  0
M  END
$$$$
default_name
  -OEChem-02102213163D

 25 24  0     1  0  0  0  0  0999 V2000
   -2.7826   -3.8464    0.7821 H   0  0  0  0  0  0  0  0  0  0  0  0
   -2.8156   -2.8034    0.4711 C   0  0  0  0  0  0  0  0  0  0  0  0
   -3.4336   -2.2354    1.1641 H   0  0  0  0  0  0  0  0  0  0  0  0
   -3.2256   -2.7344   -0.5349 H   0  0  0  0  0  0  0  0  0  0  0  0
   -1.4126   -2.2444    0.4801 C   0  0  0  0  0  0  0  0  0  0  0  0
   -0.4686   -2.9534    0.8001 O   0  0  0  0  0  0  0  0  0  0  0  0
   -1.2736   -0.9704    0.1241 N   0  0  0  0  0  0  0  0  0  0  0  0
   -2.0996   -0.4354   -0.1019 H   0  0  0  0  0  0  0  0  0  0  0  0
   -0.0016   -0.2394    0.1271 C   0  0  1  0  0  0  0  0  0  0  0  0
    0.7164   -0.7963    0.7332 H   0  0  0  0  0  0  0  0  0  0  0  0
    0.5351   -0.1414   -1.3146 C   0  0  0  0  0  0  0  0  0  0  0  0
    0.8719    0.8778   -1.5080 H   0  0  0  0  0  0  0  0  0  0  0  0
    1.3918   -0.8057   -1.4335 H   0  0  0  0  0  0  0  0  0  0  0  0
   -0.5098   -0.4751   -2.3752 C   0  0  0  0  0  0  0  0  0  0  0  0
   -0.7279   -1.5882   -2.8351 O   0  0  0  0  0  0  0  0  0  0  0  0
   -1.2219    0.5783   -2.8171 O   0  0  0  0  0  0  0  0  0  0  0  0
   -1.8439    0.2258   -3.4544 H   0  0  0  0  0  0  0  0  0  0  0  0
   -0.1923    1.1526    0.7617 C   0  0  0  0  0  0  0  0  0  0  0  0
   -1.1582    1.8438    0.4410 O   0  0  0  0  0  0  0  0  0  0  0  0
    0.7203    1.5683    1.6472 N   0  0  0  0  0  0  0  0  0  0  0  0
    1.5210    0.9664    1.8100 H   0  0  0  0  0  0  0  0  0  0  0  0
    0.6747    2.8558    2.3368 C   0  0  0  0  0  0  0  0  0  0  0  0
   -0.3018    2.9877    2.8079 H   0  0  0  0  0  0  0  0  0  0  0  0
    1.4516    2.8997    3.1011 H   0  0  0  0  0  0  0  0  0  0  0  0
    0.8279    3.6639    1.6193 H   0  0  0  0  0  0  0  0  0  0  0  0
  5  6  2  0  0  0  0
  5  7  1  0  0  0  0
  2  3  1  0  0  0  0
  2  4  1  0  0  0  0
  2  5  1  0  0  0  0
  1  2  1  0  0  0  0
 18 19  2  0  0  0  0
 18 20  1  0  0  0  0
 16 17  1  0  0  0  0
 14 15  2  0  0  0  0
 14 16  1  0  0  0  0
 11 12  1  0  0  0  0
 11 13  1  0  0  0  0
 11 14  1  0  0  0  0
  9 10  1  0  0  0  0
  9 11  1  0  0  0  0
  9 18  1  0  0  0  0
  7  8  1  0  0  0  0
  7  9  1  0  0  0  0
 22 23  1  0  0  0  0
 22 24  1  0  0  0  0
 22 25  1  0  0  0  0
 20 21  1  0  0  0  0
 20 22  1  0  0  0  0
M  END
$$$$
default_name
  -OEChem-02102213163D

 25 24  0     1  0  0  0  0  0999 V2000
   -2.7826   -3.8464    0.7821 H   0  0  0  0  0  0  0  0  0  0  0  0
   -2.8156   -2.8034    0.4711 C   0  0  0  0  0  0  0  0  0  0  0  0
   -3.4336   -2.2354    1.1641 H   0  0  0  0  0  0  0  0  0  0  0  0
   -3.2256   -2.7344   -0.5349 H   0  0  0  0  0  0  0  0  0  0  0  0
   -1.4126   -2.2444    0.4801 C   0  0  0  0  0  0  0  0  0  0  0  0
   -0.4686   -2.9534    0.8001 O   0  0  0  0  0  0  0  0  0  0  0  0
   -1.2736   -0.9704    0.1241 N   0  0  0  0  0  0  0  0  0  0  0  0
   -2.0996   -0.4354   -0.1019 H   0  0  0  0  0  0  0  0  0  0  0  0
   -0.0016   -0.2394    0.1271 C   0  0  1  0  0  0  0  0  0  0  0  0
    0.7164   -0.7963    0.7332 H   0  0  0  0  0  0  0  0  0  0  0  0
    0.5351   -0.1414   -1.3146 C   0  0  0  0  0  0  0  0  0  0  0  0
    0.8719    0.8778   -1.5080 H   0  0  0  0  0  0  0  0  0  0  0  0
    1.3918   -0.8057   -1.4335 H   0  0  0  0  0  0  0  0  0  0  0  0
   -0.5098   -0.4751   -2.3752 C   0  0  0  0  0  0  0  0  0  0  0  0
   -0.9114   -1.5979   -2.6514 O   0  0  0  0  0  0  0  0  0  0  0  0
   -0.9963    0.5880   -3.0424 O   0  0  0  0  0  0  0  0  0  0  0  0
   -1.6465    0.2394   -3.6532 H   0  0  0  0  0  0  0  0  0  0  0  0
   -0.1923    1.1526    0.7617 C   0  0  0  0  0  0  0  0  0  0  0  0
   -1.1582    1.8438    0.4410 O   0  0  0  0  0  0  0  0  0  0  0  0
    0.7203    1.5683    1.6472 N   0  0  0  0  0  0  0  0  0  0  0  0
    1.5210    0.9664    1.8100 H   0  0  0  0  0  0  0  0  0  0  0  0
    0.6747    2.8558    2.3368 C   0  0  0  0  0  0  0  0  0  0  0  0
   -0.3018    2.9877    2.8079 H   0  0  0  0  0  0  0  0  0  0  0  0
    1.4516    2.8997    3.1011 H   0  0  0  0  0  0  0  0  0  0  0  0
    0.8279    3.6639    1.6193 H   0  0  0  0  0  0  0  0  0  0  0  0
  5  6  2  0  0  0  0
  5  7  1  0  0  0  0
  2  3  1  0  0  0  0
  2  4  1  0  0  0  0
  2  5  1  0  0  0  0
  1  2  1  0  0  0  0
 18 19  2  0  0  0  0
 18 20  1  0  0  0  0
 16 17  1  0  0  0  0
 14 15  2  0  0  0  0
 14 16  1  0  0  0  0
 11 12  1  0  0  0  0
 11 13  1  0  0  0  0
 11 14  1  0  0  0  0
  9 10  1  0  0  0  0
  9 11  1  0  0  0  0
  9 18  1  0  0  0  0
  7  8  1  0  0  0  0
  7  9  1  0  0  0  0
 22 23  1  0  0  0  0
 22 24  1  0  0  0  0
 22 25  1  0  0  0  0
 20 21  1  0  0  0  0
 20 22  1  0  0  0  0
M  END
$$$$
default_name
  -OEChem-02102213163D

 25 24  0     1  0  0  0  0  0999 V2000
   -2.7826   -3.8464    0.7821 H   0  0  0  0  0  0  0  0  0  0  0  0
   -2.8156   -2.8034    0.4711 C   0  0  0  0  0  0  0  0  0  0  0  0
   -3.4336   -2.2354    1.1641 H   0  0  0  0  0  0  0  0  0  0  0  0
   -3.2256   -2.7344   -0.5349 H   0  0  0  0  0  0  0  0  0  0  0  0
   -1.4126   -2.2444    0.4801 C   0  0  0  0  0  0  0  0  0  0  0  0
   -0.4686   -2.9534    0.8001 O   0  0  0  0  0  0  0  0  0  0  0  0
   -1.2736   -0.9704    0.1241 N   0  0  0  0  0  0  0  0  0  0  0  0
   -2.0996   -0.4354   -0.1019 H   0  0  0  0  0  0  0  0  0  0  0  0
   -0.0016   -0.2394    0.1271 C   0  0  1  0  0  0  0  0  0  0  0  0
    0.7164   -0.7963    0.7332 H   0  0  0  0  0  0  0  0  0  0  0  0
    0.5351   -0.1414   -1.3146 C   0  0  0  0  0  0  0  0  0  0  0  0
    0.8719    0.8778   -1.5080 H   0  0  0  0  0  0  0  0  0  0  0  0
    1.3918   -0.8057   -1.4335 H   0  0  0  0  0  0  0  0  0  0  0  0
   -0.5098   -0.4751   -2.3752 C   0  0  0  0  0  0  0  0  0  0  0  0
   -1.1007   -1.5416   -2.4826 O   0  0  0  0  0  0  0  0  0  0  0  0
   -0.7639    0.5168   -3.2490 O   0  0  0  0  0  0  0  0  0  0  0  0
   -1.4421    0.1818   -3.8364 H   0  0  0  0  0  0  0  0  0  0  0  0
   -0.1923    1.1526    0.7617 C   0  0  0  0  0  0  0  0  0  0  0  0
   -1.1582    1.8438    0.4410 O   0  0  0  0  0  0  0  0  0  0  0  0
    0.7203    1.5683    1.6472 N   0  0  0  0  0  0  0  0  0  0  0  0
    1.5210    0.9664    1.8100 H   0  0  0  0  0  0  0  0  0  0  0  0
    0.6747    2.8558    2.3368 C   0  0  0  0  0  0  0  0  0  0  0  0
   -0.3018    2.9877    2.8079 H   0  0  0  0  0  0  0  0  0  0  0  0
    1.4516    2.8997    3.1011 H   0  0  0  0  0  0  0  0  0  0  0  0
    0.8279    3.6639    1.6193 H   0  0  0  0  0  0  0  0  0  0  0  0
  5  6  2  0  0  0  0
  5  7  1  0  0  0  0
  2  3  1  0  0  0  0
  2  4  1  0  0  0  0
  2  5  1  0  0  0  0
  1  2  1  0  0  0  0
 18 19  2  0  0  0  0
 18 20  1  0  0  0  0
 16 17  1  0  0  0  0
 14 15  2  0  0  0  0
 14 16  1  0  0  0  0
 11 12  1  0  0  0  0
 11 13  1  0  0  0  0
 11 14  1  0  0  0  0
  9 10  1  0  0  0  0
  9 11  1  0  0  0  0
  9 18  1  0  0  0  0
  7  8  1  0  0  0  0
  7  9  1  0  0  0  0
 22 23  1  0  0  0  0
 22 24  1  0  0  0  0
 22 25  1  0  0  0  0
 20 21  1  0  0  0  0
 20 22  1  0  0  0  0
M  END
$$$$
default_name
  -OEChem-02102213163D

 25 24  0     1  0  0  0  0  0999 V2000
   -2.7826   -3.8464    0.7821 H   0  0  0  0  0  0  0  0  0  0  0  0
   -2.8156   -2.8034    0.4711 C   0  0  0  0  0  0  0  0  0  0  0  0
   -3.4336   -2.2354    1.1641 H   0  0  0  0  0  0  0  0  0  0  0  0
   -3.2256   -2.7344   -0.5349 H   0  0  0  0  0  0  0  0  0  0  0  0
   -1.4126   -2.2444    0.4801 C   0  0  0  0  0  0  0  0  0  0  0  0
   -0.4686   -2.9534    0.8001 O   0  0  0  0  0  0  0  0  0  0  0  0
   -1.2736   -0.9704    0.1241 N   0  0  0  0  0  0  0  0  0  0  0  0
   -2.0996   -0.4354   -0.1019 H   0  0  0  0  0  0  0  0  0  0  0  0
   -0.0016   -0.2394    0.1271 C   0  0  1  0  0  0  0  0  0  0  0  0
    0.7164   -0.7963    0.7332 H   0  0  0  0  0  0  0  0  0  0  0  0
    0.5351   -0.1414   -1.3146 C   0  0  0  0  0  0  0  0  0  0  0  0
    0.8719    0.8778   -1.5080 H   0  0  0  0  0  0  0  0  0  0  0  0
    1.3918   -0.8057   -1.4335 H   0  0  0  0  0  0  0  0  0  0  0  0
   -0.5098   -0.4751   -2.3752 C   0  0  0  0  0  0  0  0  0  0  0  0
   -1.2830   -1.4233   -2.3402 O   0  0  0  0  0  0  0  0  0  0  0  0
   -0.5405    0.3696   -3.4228 O   0  0  0  0  0  0  0  0  0  0  0  0
   -1.2447    0.0569   -3.9916 H   0  0  0  0  0  0  0  0  0  0  0  0
   -0.1923    1.1526    0.7617 C   0  0  0  0  0  0  0  0  0  0  0  0
   -1.1582    1.8438    0.4410 O   0  0  0  0  0  0  0  0  0  0  0  0
    0.7203    1.5683    1.6472 N   0  0  0  0  0  0  0  0  0  0  0  0
    1.5210    0.9664    1.8100 H   0  0  0  0  0  0  0  0  0  0  0  0
    0.6747    2.8558    2.3368 C   0  0  0  0  0  0  0  0  0  0  0  0
   -0.3018    2.9877    2.8079 H   0  0  0  0  0  0  0  0  0  0  0  0
    1.4516    2.8997    3.1011 H   0  0  0  0  0  0  0  0  0  0  0  0
    0.8279    3.6639    1.6193 H   0  0  0  0  0  0  0  0  0  0  0  0
  5  6  2  0  0  0  0
  5  7  1  0  0  0  0
  2  3  1  0  0  0  0
  2  4  1  0  0  0  0
  2  5  1  0  0  0  0
  1  2  1  0  0  0  0
 18 19  2  0  0  0  0
 18 20  1  0  0  0  0
 16 17  1  0  0  0  0
 14 15  2  0  0  0  0
 14 16  1  0  0  0  0
 11 12  1  0  0  0  0
 11 13  1  0  0  0  0
 11 14  1  0  0  0  0
  9 10  1  0  0  0  0
  9 11  1  0  0  0  0
  9 18  1  0  0  0  0
  7  8  1  0  0  0  0
  7  9  1  0  0  0  0
 22 23  1  0  0  0  0
 22 24  1  0  0  0  0
 22 25  1  0  0  0  0
 20 21  1  0  0  0  0
 20 22  1  0  0  0  0
M  END
$$$$
default_name
  -OEChem-02102213163D

 25 24  0     1  0  0  0  0  0999 V2000
   -2.7826   -3.8464    0.7821 H   0  0  0  0  0  0  0  0  0  0  0  0
   -2.8156   -2.8034    0.4711 C   0  0  0  0  0  0  0  0  0  0  0  0
   -3.4336   -2.2354    1.1641 H   0  0  0  0  0  0  0  0  0  0  0  0
   -3.2256   -2.7344   -0.5349 H   0  0  0  0  0  0  0  0  0  0  0  0
   -1.4126   -2.2444    0.4801 C   0  0  0  0  0  0  0  0  0  0  0  0
   -0.4686   -2.9534    0.8001 O   0  0  0  0  0  0  0  0  0  0  0  0
   -1.2736   -0.9704    0.1241 N   0  0  0  0  0  0  0  0  0  0  0  0
   -2.0996   -0.4354   -0.1019 H   0  0  0  0  0  0  0  0  0  0  0  0
   -0.0016   -0.2394    0.1271 C   0  0  1  0  0  0  0  0  0  0  0  0
    0.7164   -0.7963    0.7332 H   0  0  0  0  0  0  0  0  0  0  0  0
    0.5351   -0.1414   -1.3146 C   0  0  0  0  0  0  0  0  0  0  0  0
    0.8719    0.8778   -1.5080 H   0  0  0  0  0  0  0  0  0  0  0  0
    1.3918   -0.8057   -1.4335 H   0  0  0  0  0  0  0  0  0  0  0  0
   -0.5098   -0.4751   -2.3752 C   0  0  0  0  0  0  0  0  0  0  0  0
   -1.4459   -1.2510   -2.2339 O   0  0  0  0  0  0  0  0  0  0  0  0
   -0.3414    0.1565   -3.5519 O   0  0  0  0  0  0  0  0  0  0  0  0
   -1.0677   -0.1267   -4.1081 H   0  0  0  0  0  0  0  0  0  0  0  0
   -0.1923    1.1526    0.7617 C   0  0  0  0  0  0  0  0  0  0  0  0
   -1.1582    1.8438    0.4410 O   0  0  0  0  0  0  0  0  0  0  0  0
    0.7203    1.5683    1.6472 N   0  0  0  0  0  0  0  0  0  0  0  0
    1.5210    0.9664    1.8100 H   0  0  0  0  0  0  0  0  0  0  0  0
    0.6747    2.8558    2.3368 C   0  0  0  0  0  0  0  0  0  0  0  0
   -0.3018    2.9877    2.8079 H   0  0  0  0  0  0  0  0  0  0  0  0
    1.4516    2.8997    3.1011 H   0  0  0  0  0  0  0  0  0  0  0  0
    0.8279    3.6639    1.6193 H   0  0  0  0  0  0  0  0  0  0  0  0
  5  6  2  0  0  0  0
  5  7  1  0  0  0  0
  2  3  1  0  0  0  0
  2  4  1  0  0  0  0
  2  5  1  0  0  0  0
  1  2  1  0  0  0  0
 18 19  2  0  0  0  0
 18 20  1  0  0  0  0
 16 17  1  0  0  0  0
 14 15  2  0  0  0  0
 14 16  1  0  0  0  0
 11 12  1  0  0  0  0
 11 13  1  0  0  0  0
 11 14  1  0  0  0  0
  9 10  1  0  0  0  0
  9 11  1  0  0  0  0
  9 18  1  0  0  0  0
  7  8  1  0  0  0  0
  7  9  1  0  0  0  0
 22 23  1  0  0  0  0
 22 24  1  0  0  0  0
 22 25  1  0  0  0  0
 20 21  1  0  0  0  0
 20 22  1  0  0  0  0
M  END
$$$$
default_name
  -OEChem-02102213163D

 25 24  0     1  0  0  0  0  0999 V2000
   -2.7826   -3.8464    0.7821 H   0  0  0  0  0  0  0  0  0  0  0  0
   -2.8156   -2.8034    0.4711 C   0  0  0  0  0  0  0  0  0  0  0  0
   -3.4336   -2.2354    1.1641 H   0  0  0  0  0  0  0  0  0  0  0  0
   -3.2256   -2.7344   -0.5349 H   0  0  0  0  0  0  0  0  0  0  0  0
   -1.4126   -2.2444    0.4801 C   0  0  0  0  0  0  0  0  0  0  0  0
   -0.4686   -2.9534    0.8001 O   0  0  0  0  0  0  0  0  0  0  0  0
   -1.2736   -0.9704    0.1241 N   0  0  0  0  0  0  0  0  0  0  0  0
   -2.0996   -0.4354   -0.1019 H   0  0  0  0  0  0  0  0  0  0  0  0
   -0.0016   -0.2394    0.1271 C   0  0  1  0  0  0  0  0  0  0  0  0
    0.7164   -0.7963    0.7332 H   0  0  0  0  0  0  0  0  0  0  0  0
    0.5351   -0.1414   -1.3146 C   0  0  0  0  0  0  0  0  0  0  0  0
    0.8719    0.8778   -1.5080 H   0  0  0  0  0  0  0  0  0  0  0  0
    1.3918   -0.8057   -1.4335 H   0  0  0  0  0  0  0  0  0  0  0  0
   -0.5098   -0.4751   -2.3752 C   0  0  0  0  0  0  0  0  0  0  0  0
   -1.5782   -1.0364   -2.1711 O   0  0  0  0  0  0  0  0  0  0  0  0
   -0.1800   -0.1081   -3.6276 O   0  0  0  0  0  0  0  0  0  0  0  0
   -0.9232   -0.3566   -4.1782 H   0  0  0  0  0  0  0  0  0  0  0  0
   -0.1923    1.1526    0.7617 C   0  0  0  0  0  0  0  0  0  0  0  0
   -1.1582    1.8438    0.4410 O   0  0  0  0  0  0  0  0  0  0  0  0
    0.7203    1.5683    1.6472 N   0  0  0  0  0  0  0  0  0  0  0  0
    1.5210    0.9664    1.8100 H   0  0  0  0  0  0  0  0  0  0  0  0
    0.6747    2.8558    2.3368 C   0  0  0  0  0  0  0  0  0  0  0  0
   -0.3018    2.9877    2.8079 H   0  0  0  0  0  0  0  0  0  0  0  0
    1.4516    2.8997    3.1011 H   0  0  0  0  0  0  0  0  0  0  0  0
    0.8279    3.6639    1.6193 H   0  0  0  0  0  0  0  0  0  0  0  0
  5  6  2  0  0  0  0
  5  7  1  0  0  0  0
  2  3  1  0  0  0  0
  2  4  1  0  0  0  0
  2  5  1  0  0  0  0
  1  2  1  0  0  0  0
 18 19  2  0  0  0  0
 18 20  1  0  0  0  0
 16 17  1  0  0  0  0
 14 15  2  0  0  0  0
 14 16  1  0  0  0  0
 11 12  1  0  0  0  0
 11 13  1  0  0  0  0
 11 14  1  0  0  0  0
  9 10  1  0  0  0  0
  9 11  1  0  0  0  0
  9 18  1  0  0  0  0
  7  8  1  0  0  0  0
  7  9  1  0  0  0  0
 22 23  1  0  0  0  0
 22 24  1  0  0  0  0
 22 25  1  0  0  0  0
 20 21  1  0  0  0  0
 20 22  1  0  0  0  0
M  END
$$$$
default_name
  -OEChem-02102213163D

 25 24  0     1  0  0  0  0  0999 V2000
   -2.7826   -3.8464    0.7821 H   0  0  0  0  0  0  0  0  0  0  0  0
   -2.8156   -2.8034    0.4711 C   0  0  0  0  0  0  0  0  0  0  0  0
   -3.4336   -2.2354    1.1641 H   0  0  0  0  0  0  0  0  0  0  0  0
   -3.2256   -2.7344   -0.5349 H   0  0  0  0  0  0  0  0  0  0  0  0
   -1.4126   -2.2444    0.4801 C   0  0  0  0  0  0  0  0  0  0  0  0
   -0.4686   -2.9534    0.8001 O   0  0  0  0  0  0  0  0  0  0  0  0
   -1.2736   -0.9704    0.1241 N   0  0  0  0  0  0  0  0  0  0  0  0
   -2.0996   -0.4354   -0.1019 H   0  0  0  0  0  0  0  0  0  0  0  0
   -0.0016   -0.2394    0.1271 C   0  0  1  0  0  0  0  0  0  0  0  0
    0.7164   -0.7963    0.7332 H   0  0  0  0  0  0  0  0  0  0  0  0
    0.5351   -0.1414   -1.3146 C   0  0  0  0  0  0  0  0  0  0  0  0
    0.8719    0.8778   -1.5080 H   0  0  0  0  0  0  0  0  0  0  0  0
    1.3918   -0.8057   -1.4335 H   0  0  0  0  0  0  0  0  0  0  0  0
   -0.5098   -0.4751   -2.3752 C   0  0  0  0  0  0  0  0  0  0  0  0
   -1.6710   -0.7942   -2.1559 O   0  0  0  0  0  0  0  0  0  0  0  0
   -0.0675   -0.4061   -3.6447 O   0  0  0  0  0  0  0  0  0  0  0  0
   -0.8210   -0.6171   -4.1969 H   0  0  0  0  0  0  0  0  0  0  0  0
   -0.1923    1.1526    0.7617 C   0  0  0  0  0  0  0  0  0  0  0  0
   -1.1582    1.8438    0.4410 O   0  0  0  0  0  0  0  0  0  0  0  0
    0.7203    1.5683    1.6472 N   0  0  0  0  0  0  0  0  0  0  0  0
    1.5210    0.9664    1.8100 H   0  0  0  0  0  0  0  0  0  0  0  0
    0.6747    2.8558    2.3368 C   0  0  0  0  0  0  0  0  0  0  0  0
   -0.3018    2.9877    2.8079 H   0  0  0  0  0  0  0  0  0  0  0  0
    1.4516    2.8997    3.1011 H   0  0  0  0  0  0  0  0  0  0  0  0
    0.8279    3.6639    1.6193 H   0  0  0  0  0  0  0  0  0  0  0  0
  5  6  2  0  0  0  0
  5  7  1  0  0  0  0
  2  3  1  0  0  0  0
  2  4  1  0  0  0  0
  2  5  1  0  0  0  0
  1  2  1  0  0  0  0
 18 19  2  0  0  0  0
 18 20  1  0  0  0  0
 16 17  1  0  0  0  0
 14 15  2  0  0  0  0
 14 16  1  0  0  0  0
 11 12  1  0  0  0  0
 11 13  1  0  0  0  0
 11 14  1  0  0  0  0
  9 10  1  0  0  0  0
  9 11  1  0  0  0  0
  9 18  1  0  0  0  0
  7  8  1  0  0  0  0
  7  9  1  0  0  0  0
 22 23  1  0  0  0  0
 22 24  1  0  0  0  0
 22 25  1  0  0  0  0
 20 21  1  0  0  0  0
 20 22  1  0  0  0  0
M  END
$$$$
default_name
  -OEChem-02102213163D

 25 24  0     1  0  0  0  0  0999 V2000
   -2.7826   -3.8464    0.7821 H   0  0  0  0  0  0  0  0  0  0  0  0
   -2.8156   -2.8034    0.4711 C   0  0  0  0  0  0  0  0  0  0  0  0
   -3.4336   -2.2354    1.1641 H   0  0  0  0  0  0  0  0  0  0  0  0
   -3.2256   -2.7344   -0.5349 H   0  0  0  0  0  0  0  0  0  0  0  0
   -1.4126   -2.2444    0.4801 C   0  0  0  0  0  0  0  0  0  0  0  0
   -0.4686   -2.9534    0.8001 O   0  0  0  0  0  0  0  0  0  0  0  0
   -1.2736   -0.9704    0.1241 N   0  0  0  0  0  0  0  0  0  0  0  0
   -2.0996   -0.4354   -0.1019 H   0  0  0  0  0  0  0  0  0  0  0  0
   -0.0016   -0.2394    0.1271 C   0  0  1  0  0  0  0  0  0  0  0  0
    0.7164   -0.7963    0.7332 H   0  0  0  0  0  0  0  0  0  0  0  0
    0.5351   -0.1414   -1.3146 C   0  0  0  0  0  0  0  0  0  0  0  0
    0.8719    0.8778   -1.5080 H   0  0  0  0  0  0  0  0  0  0  0  0
    1.3918   -0.8057   -1.4335 H   0  0  0  0  0  0  0  0  0  0  0  0
   -0.5098   -0.4751   -2.3752 C   0  0  0  0  0  0  0  0  0  0  0  0
   -1.7178   -0.5409   -2.1894 O   0  0  0  0  0  0  0  0  0  0  0  0
   -0.0115   -0.7173   -3.6020 O   0  0  0  0  0  0  0  0  0  0  0  0
   -0.7681   -0.8904   -4.1631 H   0  0  0  0  0  0  0  0  0  0  0  0
   -0.1923    1.1526    0.7617 C   0  0  0  0  0  0  0  0  0  0  0  0
   -1.1582    1.8438    0.4410 O   0  0  0  0  0  0  0  0  0  0  0  0
    0.7203    1.5683    1.6472 N   0  0  0  0  0  0  0  0  0  0  0  0
    1.5210    0.9664    1.8100 H   0  0  0  0  0  0  0  0  0  0  0  0
    0.6747    2.8558    2.3368 C   0  0  0  0  0  0  0  0  0  0  0  0
   -0.3018    2.9877    2.8079 H   0  0  0  0  0  0  0  0  0  0  0  0
    1.4516    2.8997    3.1011 H   0  0  0  0  0  0  0  0  0  0  0  0
    0.8279    3.6639    1.6193 H   0  0  0  0  0  0  0  0  0  0  0  0
  5  6  2  0  0  0  0
  5  7  1  0  0  0  0
  2  3  1  0  0  0  0
  2  4  1  0  0  0  0
  2  5  1  0  0  0  0
  1  2  1  0  0  0  0
 18 19  2  0  0  0  0
 18 20  1  0  0  0  0
 16 17  1  0  0  0  0
 14 15  2  0  0  0  0
 14 16  1  0  0  0  0
 11 12  1  0  0  0  0
 11 13  1  0  0  0  0
 11 14  1  0  0  0  0
  9 10  1  0  0  0  0
  9 11  1  0  0  0  0
  9 18  1  0  0  0  0
  7  8  1  0  0  0  0
  7  9  1  0  0  0  0
 22 23  1  0  0  0  0
 22 24  1  0  0  0  0
 22 25  1  0  0  0  0
 20 21  1  0  0  0  0
 20 22  1  0  0  0  0
M  END
$$$$
default_name
  -OEChem-02102213163D

 25 24  0     1  0  0  0  0  0999 V2000
   -2.7826   -3.8464    0.7821 H   0  0  0  0  0  0  0  0  0  0  0  0
   -2.8156   -2.8034    0.4711 C   0  0  0  0  0  0  0  0  0  0  0  0
   -3.4336   -2.2354    1.1641 H   0  0  0  0  0  0  0  0  0  0  0  0
   -3.2256   -2.7344   -0.5349 H   0  0  0  0  0  0  0  0  0  0  0  0
   -1.4126   -2.2444    0.4801 C   0  0  0  0  0  0  0  0  0  0  0  0
   -0.4686   -2.9534    0.8001 O   0  0  0  0  0  0  0  0  0  0  0  0
   -1.2736   -0.9704    0.1241 N   0  0  0  0  0  0  0  0  0  0  0  0
   -2.0996   -0.4354   -0.1019 H   0  0  0  0  0  0  0  0  0  0  0  0
   -0.0016   -0.2394    0.1271 C   0  0  1  0  0  0  0  0  0  0  0  0
    0.7164   -0.7963    0.7332 H   0  0  0  0  0  0  0  0  0  0  0  0
    0.5351   -0.1414   -1.3146 C   0  0  0  0  0  0  0  0  0  0  0  0
    0.8719    0.8778   -1.5080 H   0  0  0  0  0  0  0  0  0  0  0  0
    1.3918   -0.8057   -1.4335 H   0  0  0  0  0  0  0  0  0  0  0  0
   -0.5098   -0.4751   -2.3752 C   0  0  0  0  0  0  0  0  0  0  0  0
   -1.7157   -0.2937   -2.2693 O   0  0  0  0  0  0  0  0  0  0  0  0
   -0.0158   -1.0203   -3.5025 O   0  0  0  0  0  0  0  0  0  0  0  0
   -0.7681   -1.1579   -4.0789 H   0  0  0  0  0  0  0  0  0  0  0  0
   -0.1923    1.1526    0.7617 C   0  0  0  0  0  0  0  0  0  0  0  0
   -1.1582    1.8438    0.4410 O   0  0  0  0  0  0  0  0  0  0  0  0
    0.7203    1.5683    1.6472 N   0  0  0  0  0  0  0  0  0  0  0  0
    1.5210    0.9664    1.8100 H   0  0  0  0  0  0  0  0  0  0  0  0
    0.6747    2.8558    2.3368 C   0  0  0  0  0  0  0  0  0  0  0  0
   -0.3018    2.9877    2.8079 H   0  0  0  0  0  0  0  0  0  0  0  0
    1.4516    2.8997    3.1011 H   0  0  0  0  0  0  0  0  0  0  0  0
    0.8279    3.6639    1.6193 H   0  0  0  0  0  0  0  0  0  0  0  0
  5  6  2  0  0  0  0
  5  7  1  0  0  0  0
  2  3  1  0  0  0  0
  2  4  1  0  0  0  0
  2  5  1  0  0  0  0
  1  2  1  0  0  0  0
 18 19  2  0  0  0  0
 18 20  1  0  0  0  0
 16 17  1  0  0  0  0
 14 15  2  0  0  0  0
 14 16  1  0  0  0  0
 11 12  1  0  0  0  0
 11 13  1  0  0  0  0
 11 14  1  0  0  0  0
  9 10  1  0  0  0  0
  9 11  1  0  0  0  0
  9 18  1  0  0  0  0
  7  8  1  0  0  0  0
  7  9  1  0  0  0  0
 22 23  1  0  0  0  0
 22 24  1  0  0  0  0
 22 25  1  0  0  0  0
 20 21  1  0  0  0  0
 20 22  1  0  0  0  0
M  END
$$$$
default_name
  -OEChem-02102213163D

 25 24  0     1  0  0  0  0  0999 V2000
   -2.7826   -3.8464    0.7821 H   0  0  0  0  0  0  0  0  0  0  0  0
   -2.8156   -2.8034    0.4711 C   0  0  0  0  0  0  0  0  0  0  0  0
   -3.4336   -2.2354    1.1641 H   0  0  0  0  0  0  0  0  0  0  0  0
   -3.2256   -2.7344   -0.5349 H   0  0  0  0  0  0  0  0  0  0  0  0
   -1.4126   -2.2444    0.4801 C   0  0  0  0  0  0  0  0  0  0  0  0
   -0.4686   -2.9534    0.8001 O   0  0  0  0  0  0  0  0  0  0  0  0
   -1.2736   -0.9704    0.1241 N   0  0  0  0  0  0  0  0  0  0  0  0
   -2.0996   -0.4354   -0.1019 H   0  0  0  0  0  0  0  0  0  0  0  0
   -0.0016   -0.2394    0.1271 C   0  0  1  0  0  0  0  0  0  0  0  0
    0.7164   -0.7963    0.7332 H   0  0  0  0  0  0  0  0  0  0  0  0
    0.5351   -0.1414   -1.3146 C   0  0  0  0  0  0  0  0  0  0  0  0
    0.8719    0.8778   -1.5080 H   0  0  0  0  0  0  0  0  0  0  0  0
    1.3918   -0.8057   -1.4335 H   0  0  0  0  0  0  0  0  0  0  0  0
   -0.5098   -0.4751   -2.3752 C   0  0  0  0  0  0  0  0  0  0  0  0
   -1.6646   -0.0694   -2.3902 O   0  0  0  0  0  0  0  0  0  0  0  0
   -0.0801   -1.2946   -3.3528 O   0  0  0  0  0  0  0  0  0  0  0  0
   -0.8210   -1.4014   -3.9502 H   0  0  0  0  0  0  0  0  0  0  0  0
   -0.1923    1.1526    0.7617 C   0  0  0  0  0  0  0  0  0  0  0  0
   -1.1582    1.8438    0.4410 O   0  0  0  0  0  0  0  0  0  0  0  0
    0.7203    1.5683    1.6472 N   0  0  0  0  0  0  0  0  0  0  0  0
    1.5210    0.9664    1.8100 H   0  0  0  0  0  0  0  0  0  0  0  0
    0.6747    2.8558    2.3368 C   0  0  0  0  0  0  0  0  0  0  0  0
   -0.3018    2.9877    2.8079 H   0  0  0  0  0  0  0  0  0  0  0  0
    1.4516    2.8997    3.1011 H   0  0  0  0  0  0  0  0  0  0  0  0
    0.8279    3.6639    1.6193 H   0  0  0  0  0  0  0  0  0  0  0  0
  5  6  2  0  0  0  0
  5  7  1  0  0  0  0
  2  3  1  0  0  0  0
  2  4  1  0  0  0  0
  2  5  1  0  0  0  0
  1  2  1  0  0  0  0
 18 19  2  0  0  0  0
 18 20  1  0  0  0  0
 16 17  1  0  0  0  0
 14 15  2  0  0  0  0
 14 16  1  0  0  0  0
 11 12  1  0  0  0  0
 11 13  1  0  0  0  0
 11 14  1  0  0  0  0
  9 10  1  0  0  0  0
  9 11  1  0  0  0  0
  9 18  1  0  0  0  0
  7  8  1  0  0  0  0
  7  9  1  0  0  0  0
 22 23  1  0  0  0  0
 22 24  1  0  0  0  0
 22 25  1  0  0  0  0
 20 21  1  0  0  0  0
 20 22  1  0  0  0  0
M  END
$$$$
default_name
  -OEChem-02102213163D

 25 24  0     1  0  0  0  0  0999 V2000
   -2.7826   -3.8464    0.7821 H   0  0  0  0  0  0  0  0  0  0  0  0
   -2.8156   -2.8034    0.4711 C   0  0  0  0  0  0  0  0  0  0  0  0
   -3.4336   -2.2354    1.1641 H   0  0  0  0  0  0  0  0  0  0  0  0
   -3.2256   -2.7344   -0.5349 H   0  0  0  0  0  0  0  0  0  0  0  0
   -1.4126   -2.2444    0.4801 C   0  0  0  0  0  0  0  0  0  0  0  0
   -0.4686   -2.9534    0.8001 O   0  0  0  0  0  0  0  0  0  0  0  0
   -1.2736   -0.9704    0.1241 N   0  0  0  0  0  0  0  0  0  0  0  0
   -2.0996   -0.4354   -0.1019 H   0  0  0  0  0  0  0  0  0  0  0  0
   -0.0016   -0.2394    0.1271 C   0  0  1  0  0  0  0  0  0  0  0  0
    0.7164   -0.7963    0.7332 H   0  0  0  0  0  0  0  0  0  0  0  0
    0.5351   -0.1414   -1.3146 C   0  0  0  0  0  0  0  0  0  0  0  0
    0.8719    0.8778   -1.5080 H   0  0  0  0  0  0  0  0  0  0  0  0
    1.3918   -0.8057   -1.4335 H   0  0  0  0  0  0  0  0  0  0  0  0
   -0.5098   -0.4751   -2.3752 C   0  0  0  0  0  0  0  0  0  0  0  0
   -1.5680    0.1165   -2.5438 O   0  0  0  0  0  0  0  0  0  0  0  0
   -0.2000   -1.5215   -3.1633 O   0  0  0  0  0  0  0  0  0  0  0  0
   -0.9231   -1.6043   -3.7858 H   0  0  0  0  0  0  0  0  0  0  0  0
   -0.1923    1.1526    0.7617 C   0  0  0  0  0  0  0  0  0  0  0  0
   -1.1582    1.8438    0.4410 O   0  0  0  0  0  0  0  0  0  0  0  0
    0.7203    1.5683    1.6472 N   0  0  0  0  0  0  0  0  0  0  0  0
    1.5210    0.9664    1.8100 H   0  0  0  0  0  0  0  0  0  0  0  0
    0.6747    2.8558    2.3368 C   0  0  0  0  0  0  0  0  0  0  0  0
   -0.3018    2.9877    2.8079 H   0  0  0  0  0  0  0  0  0  0  0  0
    1.4516    2.8997    3.1011 H   0  0  0  0  0  0  0  0  0  0  0  0
    0.8279    3.6639    1.6193 H   0  0  0  0  0  0  0  0  0  0  0  0
  5  6  2  0  0  0  0
  5  7  1  0  0  0  0
  2  3  1  0  0  0  0
  2  4  1  0  0  0  0
  2  5  1  0  0  0  0
  1  2  1  0  0  0  0
 18 19  2  0  0  0  0
 18 20  1  0  0  0  0
 16 17  1  0  0  0  0
 14 15  2  0  0  0  0
 14 16  1  0  0  0  0
 11 12  1  0  0  0  0
 11 13  1  0  0  0  0
 11 14  1  0  0  0  0
  9 10  1  0  0  0  0
  9 11  1  0  0  0  0
  9 18  1  0  0  0  0
  7  8  1  0  0  0  0
  7  9  1  0  0  0  0
 22 23  1  0  0  0  0
 22 24  1  0  0  0  0
 22 25  1  0  0  0  0
 20 21  1  0  0  0  0
 20 22  1  0  0  0  0
M  END
$$$$
default_name
  -OEChem-02102213163D

 25 24  0     1  0  0  0  0  0999 V2000
   -2.7826   -3.8464    0.7821 H   0  0  0  0  0  0  0  0  0  0  0  0
   -2.8156   -2.8034    0.4711 C   0  0  0  0  0  0  0  0  0  0  0  0
   -3.4336   -2.2354    1.1641 H   0  0  0  0  0  0  0  0  0  0  0  0
   -3.2256   -2.7344   -0.5349 H   0  0  0  0  0  0  0  0  0  0  0  0
   -1.4126   -2.2444    0.4801 C   0  0  0  0  0  0  0  0  0  0  0  0
   -0.4686   -2.9534    0.8001 O   0  0  0  0  0  0  0  0  0  0  0  0
   -1.2736   -0.9704    0.1241 N   0  0  0  0  0  0  0  0  0  0  0  0
   -2.0996   -0.4354   -0.1019 H   0  0  0  0  0  0  0  0  0  0  0  0
   -0.0016   -0.2394    0.1271 C   0  0  1  0  0  0  0  0  0  0  0  0
    0.7164   -0.7963    0.7332 H   0  0  0  0  0  0  0  0  0  0  0  0
    0.5351   -0.1414   -1.3146 C   0  0  0  0  0  0  0  0  0  0  0  0
    0.8719    0.8778   -1.5080 H   0  0  0  0  0  0  0  0  0  0  0  0
    1.3918   -0.8057   -1.4335 H   0  0  0  0  0  0  0  0  0  0  0  0
   -0.5098   -0.4751   -2.3752 C   0  0  0  0  0  0  0  0  0  0  0  0
   -1.4326    0.2516   -2.7197 O   0  0  0  0  0  0  0  0  0  0  0  0
   -0.3674   -1.6854   -2.9468 O   0  0  0  0  0  0  0  0  0  0  0  0
   -1.0676   -1.7527   -3.5967 H   0  0  0  0  0  0  0  0  0  0  0  0
   -0.1923    1.1526    0.7617 C   0  0  0  0  0  0  0  0  0  0  0  0
   -1.1582    1.8438    0.4410 O   0  0  0  0  0  0  0  0  0  0  0  0
    0.7203    1.5683    1.6472 N   0  0  0  0  0  0  0  0  0  0  0  0
    1.5210    0.9664    1.8100 H   0  0  0  0  0  0  0  0  0  0  0  0
    0.6747    2.8558    2.3368 C   0  0  0  0  0  0  0  0  0  0  0  0
   -0.3018    2.9877    2.8079 H   0  0  0  0  0  0  0  0  0  0  0  0
    1.4516    2.8997    3.1011 H   0  0  0  0  0  0  0  0  0  0  0  0
    0.8279    3.6639    1.6193 H   0  0  0  0  0  0  0  0  0  0  0  0
  5  6  2  0  0  0  0
  5  7  1  0  0  0  0
  2  3  1  0  0  0  0
  2  4  1  0  0  0  0
  2  5  1  0  0  0  0
  1  2  1  0  0  0  0
 18 19  2  0  0  0  0
 18 20  1  0  0  0  0
 16 17  1  0  0  0  0
 14 15  2  0  0  0  0
 14 16  1  0  0  0  0
 11 12  1  0  0  0  0
 11 13  1  0  0  0  0
 11 14  1  0  0  0  0
  9 10  1  0  0  0  0
  9 11  1  0  0  0  0
  9 18  1  0  0  0  0
  7  8  1  0  0  0  0
  7  9  1  0  0  0  0
 22 23  1  0  0  0  0
 22 24  1  0  0  0  0
 22 25  1  0  0  0  0
 20 21  1  0  0  0  0
 20 22  1  0  0  0  0
M  END
$$$$
default_name
  -OEChem-02102213163D

 25 24  0     1  0  0  0  0  0999 V2000
   -2.7826   -3.8464    0.7821 H   0  0  0  0  0  0  0  0  0  0  0  0
   -2.8156   -2.8034    0.4711 C   0  0  0  0  0  0  0  0  0  0  0  0
   -3.4336   -2.2354    1.1641 H   0  0  0  0  0  0  0  0  0  0  0  0
   -3.2256   -2.7344   -0.5349 H   0  0  0  0  0  0  0  0  0  0  0  0
   -1.4126   -2.2444    0.4801 C   0  0  0  0  0  0  0  0  0  0  0  0
   -0.4686   -2.9534    0.8001 O   0  0  0  0  0  0  0  0  0  0  0  0
   -1.2736   -0.9704    0.1241 N   0  0  0  0  0  0  0  0  0  0  0  0
   -2.0996   -0.4354   -0.1019 H   0  0  0  0  0  0  0  0  0  0  0  0
   -0.0016   -0.2394    0.1271 C   0  0  1  0  0  0  0  0  0  0  0  0
    0.7164   -0.7963    0.7332 H   0  0  0  0  0  0  0  0  0  0  0  0
    0.5351   -0.1414   -1.3146 C   0  0  0  0  0  0  0  0  0  0  0  0
    0.8719    0.8778   -1.5080 H   0  0  0  0  0  0  0  0  0  0  0  0
    1.3918   -0.8057   -1.4335 H   0  0  0  0  0  0  0  0  0  0  0  0
   -0.5098   -0.4751   -2.3752 C   0  0  0  0  0  0  0  0  0  0  0  0
   -1.2675    0.3265   -2.9059 O   0  0  0  0  0  0  0  0  0  0  0  0
   -0.5708   -1.7753   -2.7181 O   0  0  0  0  0  0  0  0  0  0  0  0
   -1.2446   -1.8366   -3.3960 H   0  0  0  0  0  0  0  0  0  0  0  0
   -0.1923    1.1526    0.7617 C   0  0  0  0  0  0  0  0  0  0  0  0
   -1.1582    1.8438    0.4410 O   0  0  0  0  0  0  0  0  0  0  0  0
    0.7203    1.5683    1.6472 N   0  0  0  0  0  0  0  0  0  0  0  0
    1.5210    0.9664    1.8100 H   0  0  0  0  0  0  0  0  0  0  0  0
    0.6747    2.8558    2.3368 C   0  0  0  0  0  0  0  0  0  0  0  0
   -0.3018    2.9877    2.8079 H   0  0  0  0  0  0  0  0  0  0  0  0
    1.4516    2.8997    3.1011 H   0  0  0  0  0  0  0  0  0  0  0  0
    0.8279    3.6639    1.6193 H   0  0  0  0  0  0  0  0  0  0  0  0
  5  6  2  0  0  0  0
  5  7  1  0  0  0  0
  2  3  1  0  0  0  0
  2  4  1  0  0  0  0
  2  5  1  0  0  0  0
  1  2  1  0  0  0  0
 18 19  2  0  0  0  0
 18 20  1  0  0  0  0
 16 17  1  0  0  0  0
 14 15  2  0  0  0  0
 14 16  1  0  0  0  0
 11 12  1  0  0  0  0
 11 13  1  0  0  0  0
 11 14  1  0  0  0  0
  9 10  1  0  0  0  0
  9 11  1  0  0  0  0
  9 18  1  0  0  0  0
  7  8  1  0  0  0  0
  7  9  1  0  0  0  0
 22 23  1  0  0  0  0
 22 24  1  0  0  0  0
 22 25  1  0  0  0  0
 20 21  1  0  0  0  0
 20 22  1  0  0  0  0
M  END
$$$$
default_name
  -OEChem-02102213163D

 25 24  0     1  0  0  0  0  0999 V2000
   -2.7826   -3.8464    0.7821 H   0  0  0  0  0  0  0  0  0  0  0  0
   -2.8156   -2.8034    0.4711 C   0  0  0  0  0  0  0  0  0  0  0  0
   -3.4336   -2.2354    1.1641 H   0  0  0  0  0  0  0  0  0  0  0  0
   -3.2256   -2.7344   -0.5349 H   0  0  0  0  0  0  0  0  0  0  0  0
   -1.4126   -2.2444    0.4801 C   0  0  0  0  0  0  0  0  0  0  0  0
   -0.4686   -2.9534    0.8001 O   0  0  0  0  0  0  0  0  0  0  0  0
   -1.2736   -0.9704    0.1241 N   0  0  0  0  0  0  0  0  0  0  0  0
   -2.0996   -0.4354   -0.1019 H   0  0  0  0  0  0  0  0  0  0  0  0
   -0.0016   -0.2394    0.1271 C   0  0  1  0  0  0  0  0  0  0  0  0
    0.7164   -0.7963    0.7332 H   0  0  0  0  0  0  0  0  0  0  0  0
    0.5351   -0.1414   -1.3146 C   0  0  0  0  0  0  0  0  0  0  0  0
    0.8719    0.8778   -1.5080 H   0  0  0  0  0  0  0  0  0  0  0  0
    1.3918   -0.8057   -1.4335 H   0  0  0  0  0  0  0  0  0  0  0  0
   -0.5098   -0.4751   -2.3752 C   0  0  0  0  0  0  0  0  0  0  0  0
   -1.0841    0.3361   -3.0896 O   0  0  0  0  0  0  0  0  0  0  0  0
   -0.7965   -1.7850   -2.4928 O   0  0  0  0  0  0  0  0  0  0  0  0
   -1.4420   -1.8502   -3.1973 H   0  0  0  0  0  0  0  0  0  0  0  0
   -0.1923    1.1526    0.7617 C   0  0  0  0  0  0  0  0  0  0  0  0
   -1.1582    1.8438    0.4410 O   0  0  0  0  0  0  0  0  0  0  0  0
    0.7203    1.5683    1.6472 N   0  0  0  0  0  0  0  0  0  0  0  0
    1.5210    0.9664    1.8100 H   0  0  0  0  0  0  0  0  0  0  0  0
    0.6747    2.8558    2.3368 C   0  0  0  0  0  0  0  0  0  0  0  0
   -0.3018    2.9877    2.8079 H   0  0  0  0  0  0  0  0  0  0  0  0
    1.4516    2.8997    3.1011 H   0  0  0  0  0  0  0  0  0  0  0  0
    0.8279    3.6639    1.6193 H   0  0  0  0  0  0  0  0  0  0  0  0
  5  6  2  0  0  0  0
  5  7  1  0  0  0  0
  2  3  1  0  0  0  0
  2  4  1  0  0  0  0
  2  5  1  0  0  0  0
  1  2  1  0  0  0  0
 18 19  2  0  0  0  0
 18 20  1  0  0  0  0
 16 17  1  0  0  0  0
 14 15  2  0  0  0  0
 14 16  1  0  0  0  0
 11 12  1  0  0  0  0
 11 13  1  0  0  0  0
 11 14  1  0  0  0  0
  9 10  1  0  0  0  0
  9 11  1  0  0  0  0
  9 18  1  0  0  0  0
  7  8  1  0  0  0  0
  7  9  1  0  0  0  0
 22 23  1  0  0  0  0
 22 24  1  0  0  0  0
 22 25  1  0  0  0  0
 20 21  1  0  0  0  0
 20 22  1  0  0  0  0
M  END
$$$$
default_name
  -OEChem-02102213163D

 25 24  0     1  0  0  0  0  0999 V2000
   -2.7826   -3.8464    0.7821 H   0  0  0  0  0  0  0  0  0  0  0  0
   -2.8156   -2.8034    0.4711 C   0  0  0  0  0  0  0  0  0  0  0  0
   -3.4336   -2.2354    1.1641 H   0  0  0  0  0  0  0  0  0  0  0  0
   -3.2256   -2.7344   -0.5349 H   0  0  0  0  0  0  0  0  0  0  0  0
   -1.4126   -2.2444    0.4801 C   0  0  0  0  0  0  0  0  0  0  0  0
   -0.4686   -2.9534    0.8001 O   0  0  0  0  0  0  0  0  0  0  0  0
   -1.2736   -0.9704    0.1241 N   0  0  0  0  0  0  0  0  0  0  0  0
   -2.0996   -0.4354   -0.1019 H   0  0  0  0  0  0  0  0  0  0  0  0
   -0.0016   -0.2394    0.1271 C   0  0  1  0  0  0  0  0  0  0  0  0
    0.7164   -0.7963    0.7332 H   0  0  0  0  0  0  0  0  0  0  0  0
    0.5351   -0.1414   -1.3146 C   0  0  0  0  0  0  0  0  0  0  0  0
    0.8719    0.8778   -1.5080 H   0  0  0  0  0  0  0  0  0  0  0  0
    1.3918   -0.8057   -1.4335 H   0  0  0  0  0  0  0  0  0  0  0  0
   -0.5098   -0.4751   -2.3752 C   0  0  0  0  0  0  0  0  0  0  0  0
   -0.8948    0.2799   -3.2584 O   0  0  0  0  0  0  0  0  0  0  0  0
   -1.0289   -1.7139   -2.2862 O   0  0  0  0  0  0  0  0  0  0  0  0
   -1.6464   -1.7926   -3.0141 H   0  0  0  0  0  0  0  0  0  0  0  0
   -0.1923    1.1526    0.7617 C   0  0  0  0  0  0  0  0  0  0  0  0
   -1.1582    1.8438    0.4410 O   0  0  0  0  0  0  0  0  0  0  0  0
    0.7203    1.5683    1.6472 N   0  0  0  0  0  0  0  0  0  0  0  0
    1.5210    0.9664    1.8100 H   0  0  0  0  0  0  0  0  0  0  0  0
    0.6747    2.8558    2.3368 C   0  0  0  0  0  0  0  0  0  0  0  0
   -0.3018    2.9877    2.8079 H   0  0  0  0  0  0  0  0  0  0  0  0
    1.4516    2.8997    3.1011 H   0  0  0  0  0  0  0  0  0  0  0  0
    0.8279    3.6639    1.6193 H   0  0  0  0  0  0  0  0  0  0  0  0
  5  6  2  0  0  0  0
  5  7  1  0  0  0  0
  2  3  1  0  0  0  0
  2  4  1  0  0  0  0
  2  5  1  0  0  0  0
  1  2  1  0  0  0  0
 18 19  2  0  0  0  0
 18 20  1  0  0  0  0
 16 17  1  0  0  0  0
 14 15  2  0  0  0  0
 14 16  1  0  0  0  0
 11 12  1  0  0  0  0
 11 13  1  0  0  0  0
 11 14  1  0  0  0  0
  9 10  1  0  0  0  0
  9 11  1  0  0  0  0
  9 18  1  0  0  0  0
  7  8  1  0  0  0  0
  7  9  1  0  0  0  0
 22 23  1  0  0  0  0
 22 24  1  0  0  0  0
 22 25  1  0  0  0  0
 20 21  1  0  0  0  0
 20 22  1  0  0  0  0
M  END
$$$$
default_name
  -OEChem-02102213163D

 25 24  0     1  0  0  0  0  0999 V2000
   -2.7826   -3.8464    0.7821 H   0  0  0  0  0  0  0  0  0  0  0  0
   -2.8156   -2.8034    0.4711 C   0  0  0  0  0  0  0  0  0  0  0  0
   -3.4336   -2.2354    1.1641 H   0  0  0  0  0  0  0  0  0  0  0  0
   -3.2256   -2.7344   -0.5349 H   0  0  0  0  0  0  0  0  0  0  0  0
   -1.4126   -2.2444    0.4801 C   0  0  0  0  0  0  0  0  0  0  0  0
   -0.4686   -2.9534    0.8001 O   0  0  0  0  0  0  0  0  0  0  0  0
   -1.2736   -0.9704    0.1241 N   0  0  0  0  0  0  0  0  0  0  0  0
   -2.0996   -0.4354   -0.1019 H   0  0  0  0  0  0  0  0  0  0  0  0
   -0.0016   -0.2394    0.1271 C   0  0  1  0  0  0  0  0  0  0  0  0
    0.7164   -0.7963    0.7332 H   0  0  0  0  0  0  0  0  0  0  0  0
    0.5351   -0.1414   -1.3146 C   0  0  0  0  0  0  0  0  0  0  0  0
    0.8719    0.8778   -1.5080 H   0  0  0  0  0  0  0  0  0  0  0  0
    1.3918   -0.8057   -1.4335 H   0  0  0  0  0  0  0  0  0  0  0  0
   -0.5098   -0.4751   -2.3752 C   0  0  0  0  0  0  0  0  0  0  0  0
   -0.7125    0.1615   -3.4008 O   0  0  0  0  0  0  0  0  0  0  0  0
   -1.2523   -1.5667   -2.1124 O   0  0  0  0  0  0  0  0  0  0  0  0
   -1.8437   -1.6677   -2.8589 H   0  0  0  0  0  0  0  0  0  0  0  0
   -0.1923    1.1526    0.7617 C   0  0  0  0  0  0  0  0  0  0  0  0
   -1.1582    1.8438    0.4410 O   0  0  0  0  0  0  0  0  0  0  0  0
    0.7203    1.5683    1.6472 N   0  0  0  0  0  0  0  0  0  0  0  0
    1.5210    0.9664    1.8100 H   0  0  0  0  0  0  0  0  0  0  0  0
    0.6747    2.8558    2.3368 C   0  0  0  0  0  0  0  0  0  0  0  0
   -0.3018    2.9877    2.8079 H   0  0  0  0  0  0  0  0  0  0  0  0
    1.4516    2.8997    3.1011 H   0  0  0  0  0  0  0  0  0  0  0  0
    0.8279    3.6639    1.6193 H   0  0  0  0  0  0  0  0  0  0  0  0
  5  6  2  0  0  0  0
  5  7  1  0  0  0  0
  2  3  1  0  0  0  0
  2  4  1  0  0  0  0
  2  5  1  0  0  0  0
  1  2  1  0  0  0  0
 18 19  2  0  0  0  0
 18 20  1  0  0  0  0
 16 17  1  0  0  0  0
 14 15  2  0  0  0  0
 14 16  1  0  0  0  0
 11 12  1  0  0  0  0
 11 13  1  0  0  0  0
 11 14  1  0  0  0  0
  9 10  1  0  0  0  0
  9 11  1  0  0  0  0
  9 18  1  0  0  0  0
  7  8  1  0  0  0  0
  7  9  1  0  0  0  0
 22 23  1  0  0  0  0
 22 24  1  0  0  0  0
 22 25  1  0  0  0  0
 20 21  1  0  0  0  0
 20 22  1  0  0  0  0
M  END
$$$$
default_name
  -OEChem-02102213163D

 25 24  0     1  0  0  0  0  0999 V2000
   -2.7826   -3.8464    0.7821 H   0  0  0  0  0  0  0  0  0  0  0  0
   -2.8156   -2.8034    0.4711 C   0  0  0  0  0  0  0  0  0  0  0  0
   -3.4336   -2.2354    1.1641 H   0  0  0  0  0  0  0  0  0  0  0  0
   -3.2256   -2.7344   -0.5349 H   0  0  0  0  0  0  0  0  0  0  0  0
   -1.4126   -2.2444    0.4801 C   0  0  0  0  0  0  0  0  0  0  0  0
   -0.4686   -2.9534    0.8001 O   0  0  0  0  0  0  0  0  0  0  0  0
   -1.2736   -0.9704    0.1241 N   0  0  0  0  0  0  0  0  0  0  0  0
   -2.0996   -0.4354   -0.1019 H   0  0  0  0  0  0  0  0  0  0  0  0
   -0.0016   -0.2394    0.1271 C   0  0  1  0  0  0  0  0  0  0  0  0
    0.7164   -0.7963    0.7332 H   0  0  0  0  0  0  0  0  0  0  0  0
    0.5351   -0.1414   -1.3146 C   0  0  0  0  0  0  0  0  0  0  0  0
    0.8719    0.8778   -1.5080 H   0  0  0  0  0  0  0  0  0  0  0  0
    1.3918   -0.8057   -1.4335 H   0  0  0  0  0  0  0  0  0  0  0  0
   -0.5098   -0.4751   -2.3752 C   0  0  0  0  0  0  0  0  0  0  0  0
   -0.5496   -0.0108   -3.5071 O   0  0  0  0  0  0  0  0  0  0  0  0
   -1.4514   -1.3536   -1.9833 O   0  0  0  0  0  0  0  0  0  0  0  0
   -2.0207   -1.4841   -2.7423 H   0  0  0  0  0  0  0  0  0  0  0  0
   -0.1923    1.1526    0.7617 C   0  0  0  0  0  0  0  0  0  0  0  0
   -1.1582    1.8438    0.4410 O   0  0  0  0  0  0  0  0  0  0  0  0
    0.7203    1.5683    1.6472 N   0  0  0  0  0  0  0  0  0  0  0  0
    1.5210    0.9664    1.8100 H   0  0  0  0  0  0  0  0  0  0  0  0
    0.6747    2.8558    2.3368 C   0  0  0  0  0  0  0  0  0  0  0  0
   -0.3018    2.9877    2.8079 H   0  0  0  0  0  0  0  0  0  0  0  0
    1.4516    2.8997    3.1011 H   0  0  0  0  0  0  0  0  0  0  0  0
    0.8279    3.6639    1.6193 H   0  0  0  0  0  0  0  0  0  0  0  0
  5  6  2  0  0  0  0
  5  7  1  0  0  0  0
  2  3  1  0  0  0  0
  2  4  1  0  0  0  0
  2  5  1  0  0  0  0
  1  2  1  0  0  0  0
 18 19  2  0  0  0  0
 18 20  1  0  0  0  0
 16 17  1  0  0  0  0
 14 15  2  0  0  0  0
 14 16  1  0  0  0  0
 11 12  1  0  0  0  0
 11 13  1  0  0  0  0
 11 14  1  0  0  0  0
  9 10  1  0  0  0  0
  9 11  1  0  0  0  0
  9 18  1  0  0  0  0
  7  8  1  0  0  0  0
  7  9  1  0  0  0  0
 22 23  1  0  0  0  0
 22 24  1  0  0  0  0
 22 25  1  0  0  0  0
 20 21  1  0  0  0  0
 20 22  1  0  0  0  0
M  END
$$$$
default_name
  -OEChem-02102213163D

 25 24  0     1  0  0  0  0  0999 V2000
   -2.7826   -3.8464    0.7821 H   0  0  0  0  0  0  0  0  0  0  0  0
   -2.8156   -2.8034    0.4711 C   0  0  0  0  0  0  0  0  0  0  0  0
   -3.4336   -2.2354    1.1641 H   0  0  0  0  0  0  0  0  0  0  0  0
   -3.2256   -2.7344   -0.5349 H   0  0  0  0  0  0  0  0  0  0  0  0
   -1.4126   -2.2444    0.4801 C   0  0  0  0  0  0  0  0  0  0  0  0
   -0.4686   -2.9534    0.8001 O   0  0  0  0  0  0  0  0  0  0  0  0
   -1.2736   -0.9704    0.1241 N   0  0  0  0  0  0  0  0  0  0  0  0
   -2.0996   -0.4354   -0.1019 H   0  0  0  0  0  0  0  0  0  0  0  0
   -0.0016   -0.2394    0.1271 C   0  0  1  0  0  0  0  0  0  0  0  0
    0.7164   -0.7963    0.7332 H   0  0  0  0  0  0  0  0  0  0  0  0
    0.5351   -0.1414   -1.3146 C   0  0  0  0  0  0  0  0  0  0  0  0
    0.8719    0.8778   -1.5080 H   0  0  0  0  0  0  0  0  0  0  0  0
    1.3918   -0.8057   -1.4335 H   0  0  0  0  0  0  0  0  0  0  0  0
   -0.5098   -0.4751   -2.3752 C   0  0  0  0  0  0  0  0  0  0  0  0
   -0.4173   -0.2253   -3.5699 O   0  0  0  0  0  0  0  0  0  0  0  0
   -1.6127   -1.0890   -1.9076 O   0  0  0  0  0  0  0  0  0  0  0  0
   -2.1652   -1.2542   -2.6722 H   0  0  0  0  0  0  0  0  0  0  0  0
   -0.1923    1.1526    0.7617 C   0  0  0  0  0  0  0  0  0  0  0  0
   -1.1582    1.8438    0.4410 O   0  0  0  0  0  0  0  0  0  0  0  0
    0.7203    1.5683    1.6472 N   0  0  0  0  0  0  0  0  0  0  0  0
    1.5210    0.9664    1.8100 H   0  0  0  0  0  0  0  0  0  0  0  0
    0.6747    2.8558    2.3368 C   0  0  0  0  0  0  0  0  0  0  0  0
   -0.3018    2.9877    2.8079 H   0  0  0  0  0  0  0  0  0  0  0  0
    1.4516    2.8997    3.1011 H   0  0  0  0  0  0  0  0  0  0  0  0
    0.8279    3.6639    1.6193 H   0  0  0  0  0  0  0  0  0  0  0  0
  5  6  2  0  0  0  0
  5  7  1  0  0  0  0
  2  3  1  0  0  0  0
  2  4  1  0  0  0  0
  2  5  1  0  0  0  0
  1  2  1  0  0  0  0
 18 19  2  0  0  0  0
 18 20  1  0  0  0  0
 16 17  1  0  0  0  0
 14 15  2  0  0  0  0
 14 16  1  0  0  0  0
 11 12  1  0  0  0  0
 11 13  1  0  0  0  0
 11 14  1  0  0  0  0
  9 10  1  0  0  0  0
  9 11  1  0  0  0  0
  9 18  1  0  0  0  0
  7  8  1  0  0  0  0
  7  9  1  0  0  0  0
 22 23  1  0  0  0  0
 22 24  1  0  0  0  0
 22 25  1  0  0  0  0
 20 21  1  0  0  0  0
 20 22  1  0  0  0  0
M  END
$$$$
default_name
  -OEChem-02102213163D

 25 24  0     1  0  0  0  0  0999 V2000
   -2.7826   -3.8464    0.7821 H   0  0  0  0  0  0  0  0  0  0  0  0
   -2.8156   -2.8034    0.4711 C   0  0  0  0  0  0  0  0  0  0  0  0
   -3.4336   -2.2354    1.1641 H   0  0  0  0  0  0  0  0  0  0  0  0
   -3.2256   -2.7344   -0.5349 H   0  0  0  0  0  0  0  0  0  0  0  0
   -1.4126   -2.2444    0.4801 C   0  0  0  0  0  0  0  0  0  0  0  0
   -0.4686   -2.9534    0.8001 O   0  0  0  0  0  0  0  0  0  0  0  0
   -1.2736   -0.9704    0.1241 N   0  0  0  0  0  0  0  0  0  0  0  0
   -2.0996   -0.4354   -0.1019 H   0  0  0  0  0  0  0  0  0  0  0  0
   -0.0016   -0.2394    0.1271 C   0  0  1  0  0  0  0  0  0  0  0  0
    0.7164   -0.7963    0.7332 H   0  0  0  0  0  0  0  0  0  0  0  0
    0.5351   -0.1414   -1.3146 C   0  0  0  0  0  0  0  0  0  0  0  0
    1.1082    0.7797   -1.4267 H   0  0  0  0  0  0  0  0  0  0  0  0
    1.2042   -0.9789   -1.5151 H   0  0  0  0  0  0  0  0  0  0  0  0
   -0.5652   -0.1139   -2.3713 C   0  0  0  0  0  0  0  0  0  0  0  0
   -0.3901   -0.0399   -3.5805 O   0  0  0  0  0  0  0  0  0  0  0  0
   -1.8183   -0.1704   -1.8830 O   0  0  0  0  0  0  0  0  0  0  0  0
   -2.3976   -0.1651   -2.6457 H   0  0  0  0  0  0  0  0  0  0  0  0
   -0.1923    1.1526    0.7617 C   0  0  0  0  0  0  0  0  0  0  0  0
   -1.1582    1.8438    0.4410 O   0  0  0  0  0  0  0  0  0  0  0  0
    0.7203    1.5683    1.6472 N   0  0  0  0  0  0  0  0  0  0  0  0
    1.5210    0.9664    1.8100 H   0  0  0  0  0  0  0  0  0  0  0  0
    0.6747    2.8558    2.3368 C   0  0  0  0  0  0  0  0  0  0  0  0
   -0.3018    2.9877    2.8079 H   0  0  0  0  0  0  0  0  0  0  0  0
    1.4516    2.8997    3.1011 H   0  0  0  0  0  0  0  0  0  0  0  0
    0.8279    3.6639    1.6193 H   0  0  0  0  0  0  0  0  0  0  0  0
  5  6  2  0  0  0  0
  5  7  1  0  0  0  0
  2  3  1  0  0  0  0
  2  4  1  0  0  0  0
  2  5  1  0  0  0  0
  1  2  1  0  0  0  0
 18 19  2  0  0  0  0
 18 20  1  0  0  0  0
 16 17  1  0  0  0  0
 14 15  2  0  0  0  0
 14 16  1  0  0  0  0
 11 12  1  0  0  0  0
 11 13  1  0  0  0  0
 11 14  1  0  0  0  0
  9 10  1  0  0  0  0
  9 11  1  0  0  0  0
  9 18  1  0  0  0  0
  7  8  1  0  0  0  0
  7  9  1  0  0  0  0
 22 23  1  0  0  0  0
 22 24  1  0  0  0  0
 22 25  1  0  0  0  0
 20 21  1  0  0  0  0
 20 22  1  0  0  0  0
M  END
$$$$
default_name
  -OEChem-02102213163D

 25 24  0     1  0  0  0  0  0999 V2000
   -2.7826   -3.8464    0.7821 H   0  0  0  0  0  0  0  0  0  0  0  0
   -2.8156   -2.8034    0.4711 C   0  0  0  0  0  0  0  0  0  0  0  0
   -3.4336   -2.2354    1.1641 H   0  0  0  0  0  0  0  0  0  0  0  0
   -3.2256   -2.7344   -0.5349 H   0  0  0  0  0  0  0  0  0  0  0  0
   -1.4126   -2.2444    0.4801 C   0  0  0  0  0  0  0  0  0  0  0  0
   -0.4686   -2.9534    0.8001 O   0  0  0  0  0  0  0  0  0  0  0  0
   -1.2736   -0.9704    0.1241 N   0  0  0  0  0  0  0  0  0  0  0  0
   -2.0996   -0.4354   -0.1019 H   0  0  0  0  0  0  0  0  0  0  0  0
   -0.0016   -0.2394    0.1271 C   0  0  1  0  0  0  0  0  0  0  0  0
    0.7164   -0.7963    0.7332 H   0  0  0  0  0  0  0  0  0  0  0  0
    0.5351   -0.1414   -1.3146 C   0  0  0  0  0  0  0  0  0  0  0  0
    1.1082    0.7797   -1.4267 H   0  0  0  0  0  0  0  0  0  0  0  0
    1.2042   -0.9789   -1.5151 H   0  0  0  0  0  0  0  0  0  0  0  0
   -0.5652   -0.1139   -2.3713 C   0  0  0  0  0  0  0  0  0  0  0  0
   -0.4060   -0.2990   -3.5707 O   0  0  0  0  0  0  0  0  0  0  0  0
   -1.7974    0.1476   -1.8966 O   0  0  0  0  0  0  0  0  0  0  0  0
   -2.3828    0.1148   -2.6538 H   0  0  0  0  0  0  0  0  0  0  0  0
   -0.1923    1.1526    0.7617 C   0  0  0  0  0  0  0  0  0  0  0  0
   -1.1582    1.8438    0.4410 O   0  0  0  0  0  0  0  0  0  0  0  0
    0.7203    1.5683    1.6472 N   0  0  0  0  0  0  0  0  0  0  0  0
    1.5210    0.9664    1.8100 H   0  0  0  0  0  0  0  0  0  0  0  0
    0.6747    2.8558    2.3368 C   0  0  0  0  0  0  0  0  0  0  0  0
   -0.3018    2.9877    2.8079 H   0  0  0  0  0  0  0  0  0  0  0  0
    1.4516    2.8997    3.1011 H   0  0  0  0  0  0  0  0  0  0  0  0
    0.8279    3.6639    1.6193 H   0  0  0  0  0  0  0  0  0  0  0  0
  5  6  2  0  0  0  0
  5  7  1  0  0  0  0
  2  3  1  0  0  0  0
  2  4  1  0  0  0  0
  2  5  1  0  0  0  0
  1  2  1  0  0  0  0
 18 19  2  0  0  0  0
 18 20  1  0  0  0  0
 16 17  1  0  0  0  0
 14 15  2  0  0  0  0
 14 16  1  0  0  0  0
 11 12  1  0  0  0  0
 11 13  1  0  0  0  0
 11 14  1  0  0  0  0
  9 10  1  0  0  0  0
  9 11  1  0  0  0  0
  9 18  1  0  0  0  0
  7  8  1  0  0  0  0
  7  9  1  0  0  0  0
 22 23  1  0  0  0  0
 22 24  1  0  0  0  0
 22 25  1  0  0  0  0
 20 21  1  0  0  0  0
 20 22  1  0  0  0  0
M  END
$$$$
default_name
  -OEChem-02102213163D

 25 24  0     1  0  0  0  0  0999 V2000
   -2.7826   -3.8464    0.7821 H   0  0  0  0  0  0  0  0  0  0  0  0
   -2.8156   -2.8034    0.4711 C   0  0  0  0  0  0  0  0  0  0  0  0
   -3.4336   -2.2354    1.1641 H   0  0  0  0  0  0  0  0  0  0  0  0
   -3.2256   -2.7344   -0.5349 H   0  0  0  0  0  0  0  0  0  0  0  0
   -1.4126   -2.2444    0.4801 C   0  0  0  0  0  0  0  0  0  0  0  0
   -0.4686   -2.9534    0.8001 O   0  0  0  0  0  0  0  0  0  0  0  0
   -1.2736   -0.9704    0.1241 N   0  0  0  0  0  0  0  0  0  0  0  0
   -2.0996   -0.4354   -0.1019 H   0  0  0  0  0  0  0  0  0  0  0  0
   -0.0016   -0.2394    0.1271 C   0  0  1  0  0  0  0  0  0  0  0  0
    0.7164   -0.7963    0.7332 H   0  0  0  0  0  0  0  0  0  0  0  0
    0.5351   -0.1414   -1.3146 C   0  0  0  0  0  0  0  0  0  0  0  0
    1.1082    0.7797   -1.4267 H   0  0  0  0  0  0  0  0  0  0  0  0
    1.2042   -0.9789   -1.5151 H   0  0  0  0  0  0  0  0  0  0  0  0
   -0.5652   -0.1139   -2.3713 C   0  0  0  0  0  0  0  0  0  0  0  0
   -0.4677   -0.5447   -3.5129 O   0  0  0  0  0  0  0  0  0  0  0  0
   -1.7201    0.4485   -1.9691 O   0  0  0  0  0  0  0  0  0  0  0  0
   -2.3183    0.3810   -2.7141 H   0  0  0  0  0  0  0  0  0  0  0  0
   -0.1923    1.1526    0.7617 C   0  0  0  0  0  0  0  0  0  0  0  0
   -1.1582    1.8438    0.4410 O   0  0  0  0  0  0  0  0  0  0  0  0
    0.7203    1.5683    1.6472 N   0  0  0  0  0  0  0  0  0  0  0  0
    1.5210    0.9664    1.8100 H   0  0  0  0  0  0  0  0  0  0  0  0
    0.6747    2.8558    2.3368 C   0  0  0  0  0  0  0  0  0  0  0  0
   -0.3018    2.9877    2.8079 H   0  0  0  0  0  0  0  0  0  0  0  0
    1.4516    2.8997    3.1011 H   0  0  0  0  0  0  0  0  0  0  0  0
    0.8279    3.6639    1.6193 H   0  0  0  0  0  0  0  0  0  0  0  0
  5  6  2  0  0  0  0
  5  7  1  0  0  0  0
  2  3  1  0  0  0  0
  2  4  1  0  0  0  0
  2  5  1  0  0  0  0
  1  2  1  0  0  0  0
 18 19  2  0  0  0  0
 18 20  1  0  0  0  0
 16 17  1  0  0  0  0
 14 15  2  0  0  0  0
 14 16  1  0  0  0  0
 11 12  1  0  0  0  0
 11 13  1  0  0  0  0
 11 14  1  0  0  0  0
  9 10  1  0  0  0  0
  9 11  1  0  0  0  0
  9 18  1  0  0  0  0
  7  8  1  0  0  0  0
  7  9  1  0  0  0  0
 22 23  1  0  0  0  0
 22 24  1  0  0  0  0
 22 25  1  0  0  0  0
 20 21  1  0  0  0  0
 20 22  1  0  0  0  0
M  END
$$$$
default_name
  -OEChem-02102213163D

 25 24  0     1  0  0  0  0  0999 V2000
   -2.7826   -3.8464    0.7821 H   0  0  0  0  0  0  0  0  0  0  0  0
   -2.8156   -2.8034    0.4711 C   0  0  0  0  0  0  0  0  0  0  0  0
   -3.4336   -2.2354    1.1641 H   0  0  0  0  0  0  0  0  0  0  0  0
   -3.2256   -2.7344   -0.5349 H   0  0  0  0  0  0  0  0  0  0  0  0
   -1.4126   -2.2444    0.4801 C   0  0  0  0  0  0  0  0  0  0  0  0
   -0.4686   -2.9534    0.8001 O   0  0  0  0  0  0  0  0  0  0  0  0
   -1.2736   -0.9704    0.1241 N   0  0  0  0  0  0  0  0  0  0  0  0
   -2.0996   -0.4354   -0.1019 H   0  0  0  0  0  0  0  0  0  0  0  0
   -0.0016   -0.2394    0.1271 C   0  0  1  0  0  0  0  0  0  0  0  0
    0.7164   -0.7963    0.7332 H   0  0  0  0  0  0  0  0  0  0  0  0
    0.5351   -0.1414   -1.3146 C   0  0  0  0  0  0  0  0  0  0  0  0
    1.1082    0.7797   -1.4267 H   0  0  0  0  0  0  0  0  0  0  0  0
    1.2042   -0.9789   -1.5151 H   0  0  0  0  0  0  0  0  0  0  0  0
   -0.5652   -0.1139   -2.3713 C   0  0  0  0  0  0  0  0  0  0  0  0
   -0.5711   -0.7601   -3.4108 O   0  0  0  0  0  0  0  0  0  0  0  0
   -1.5920    0.7118   -2.0957 O   0  0  0  0  0  0  0  0  0  0  0  0
   -2.2086    0.6153   -2.8222 H   0  0  0  0  0  0  0  0  0  0  0  0
   -0.1923    1.1526    0.7617 C   0  0  0  0  0  0  0  0  0  0  0  0
   -1.1582    1.8438    0.4410 O   0  0  0  0  0  0  0  0  0  0  0  0
    0.7203    1.5683    1.6472 N   0  0  0  0  0  0  0  0  0  0  0  0
    1.5210    0.9664    1.8100 H   0  0  0  0  0  0  0  0  0  0  0  0
    0.6747    2.8558    2.3368 C   0  0  0  0  0  0  0  0  0  0  0  0
   -0.3018    2.9877    2.8079 H   0  0  0  0  0  0  0  0  0  0  0  0
    1.4516    2.8997    3.1011 H   0  0  0  0  0  0  0  0  0  0  0  0
    0.8279    3.6639    1.6193 H   0  0  0  0  0  0  0  0  0  0  0  0
  5  6  2  0  0  0  0
  5  7  1  0  0  0  0
  2  3  1  0  0  0  0
  2  4  1  0  0  0  0
  2  5  1  0  0  0  0
  1  2  1  0  0  0  0
 18 19  2  0  0  0  0
 18 20  1  0  0  0  0
 16 17  1  0  0  0  0
 14 15  2  0  0  0  0
 14 16  1  0  0  0  0
 11 12  1  0  0  0  0
 11 13  1  0  0  0  0
 11 14  1  0  0  0  0
  9 10  1  0  0  0  0
  9 11  1  0  0  0  0
  9 18  1  0  0  0  0
  7  8  1  0  0  0  0
  7  9  1  0  0  0  0
 22 23  1  0  0  0  0
 22 24  1  0  0  0  0
 22 25  1  0  0  0  0
 20 21  1  0  0  0  0
 20 22  1  0  0  0  0
M  END
$$$$
default_name
  -OEChem-02102213163D

 25 24  0     1  0  0  0  0  0999 V2000
   -2.7826   -3.8464    0.7821 H   0  0  0  0  0  0  0  0  0  0  0  0
   -2.8156   -2.8034    0.4711 C   0  0  0  0  0  0  0  0  0  0  0  0
   -3.4336   -2.2354    1.1641 H   0  0  0  0  0  0  0  0  0  0  0  0
   -3.2256   -2.7344   -0.5349 H   0  0  0  0  0  0  0  0  0  0  0  0
   -1.4126   -2.2444    0.4801 C   0  0  0  0  0  0  0  0  0  0  0  0
   -0.4686   -2.9534    0.8001 O   0  0  0  0  0  0  0  0  0  0  0  0
   -1.2736   -0.9704    0.1241 N   0  0  0  0  0  0  0  0  0  0  0  0
   -2.0996   -0.4354   -0.1019 H   0  0  0  0  0  0  0  0  0  0  0  0
   -0.0016   -0.2394    0.1271 C   0  0  1  0  0  0  0  0  0  0  0  0
    0.7164   -0.7963    0.7332 H   0  0  0  0  0  0  0  0  0  0  0  0
    0.5351   -0.1414   -1.3146 C   0  0  0  0  0  0  0  0  0  0  0  0
    1.1082    0.7797   -1.4267 H   0  0  0  0  0  0  0  0  0  0  0  0
    1.2042   -0.9789   -1.5151 H   0  0  0  0  0  0  0  0  0  0  0  0
   -0.5652   -0.1139   -2.3713 C   0  0  0  0  0  0  0  0  0  0  0  0
   -0.7091   -0.9306   -3.2716 O   0  0  0  0  0  0  0  0  0  0  0  0
   -1.4216    0.9195   -2.2678 O   0  0  0  0  0  0  0  0  0  0  0  0
   -2.0611    0.8018   -2.9709 H   0  0  0  0  0  0  0  0  0  0  0  0
   -0.1923    1.1526    0.7617 C   0  0  0  0  0  0  0  0  0  0  0  0
   -1.1582    1.8438    0.4410 O   0  0  0  0  0  0  0  0  0  0  0  0
    0.7203    1.5683    1.6472 N   0  0  0  0  0  0  0  0  0  0  0  0
    1.5210    0.9664    1.8100 H   0  0  0  0  0  0  0  0  0  0  0  0
    0.6747    2.8558    2.3368 C   0  0  0  0  0  0  0  0  0  0  0  0
   -0.3018    2.9877    2.8079 H   0  0  0  0  0  0  0  0  0  0  0  0
    1.4516    2.8997    3.1011 H   0  0  0  0  0  0  0  0  0  0  0  0
    0.8279    3.6639    1.6193 H   0  0  0  0  0  0  0  0  0  0  0  0
  5  6  2  0  0  0  0
  5  7  1  0  0  0  0
  2  3  1  0  0  0  0
  2  4  1  0  0  0  0
  2  5  1  0  0  0  0
  1  2  1  0  0  0  0
 18 19  2  0  0  0  0
 18 20  1  0  0  0  0
 16 17  1  0  0  0  0
 14 15  2  0  0  0  0
 14 16  1  0  0  0  0
 11 12  1  0  0  0  0
 11 13  1  0  0  0  0
 11 14  1  0  0  0  0
  9 10  1  0  0  0  0
  9 11  1  0  0  0  0
  9 18  1  0  0  0  0
  7  8  1  0  0  0  0
  7  9  1  0  0  0  0
 22 23  1  0  0  0  0
 22 24  1  0  0  0  0
 22 25  1  0  0  0  0
 20 21  1  0  0  0  0
 20 22  1  0  0  0  0
M  END
$$$$
default_name
  -OEChem-02102213163D

 25 24  0     1  0  0  0  0  0999 V2000
   -2.7826   -3.8464    0.7821 H   0  0  0  0  0  0  0  0  0  0  0  0
   -2.8156   -2.8034    0.4711 C   0  0  0  0  0  0  0  0  0  0  0  0
   -3.4336   -2.2354    1.1641 H   0  0  0  0  0  0  0  0  0  0  0  0
   -3.2256   -2.7344   -0.5349 H   0  0  0  0  0  0  0  0  0  0  0  0
   -1.4126   -2.2444    0.4801 C   0  0  0  0  0  0  0  0  0  0  0  0
   -0.4686   -2.9534    0.8001 O   0  0  0  0  0  0  0  0  0  0  0  0
   -1.2736   -0.9704    0.1241 N   0  0  0  0  0  0  0  0  0  0  0  0
   -2.0996   -0.4354   -0.1019 H   0  0  0  0  0  0  0  0  0  0  0  0
   -0.0016   -0.2394    0.1271 C   0  0  1  0  0  0  0  0  0  0  0  0
    0.7164   -0.7963    0.7332 H   0  0  0  0  0  0  0  0  0  0  0  0
    0.5351   -0.1414   -1.3146 C   0  0  0  0  0  0  0  0  0  0  0  0
    1.1082    0.7797   -1.4267 H   0  0  0  0  0  0  0  0  0  0  0  0
    1.2042   -0.9789   -1.5151 H   0  0  0  0  0  0  0  0  0  0  0  0
   -0.5652   -0.1139   -2.3713 C   0  0  0  0  0  0  0  0  0  0  0  0
   -0.8723   -1.0446   -3.1046 O   0  0  0  0  0  0  0  0  0  0  0  0
   -1.2205    1.0574   -2.4735 O   0  0  0  0  0  0  0  0  0  0  0  0
   -1.8859    0.9278   -3.1501 H   0  0  0  0  0  0  0  0  0  0  0  0
   -0.1923    1.1526    0.7617 C   0  0  0  0  0  0  0  0  0  0  0  0
   -1.1582    1.8438    0.4410 O   0  0  0  0  0  0  0  0  0  0  0  0
    0.7203    1.5683    1.6472 N   0  0  0  0  0  0  0  0  0  0  0  0
    1.5210    0.9664    1.8100 H   0  0  0  0  0  0  0  0  0  0  0  0
    0.6747    2.8558    2.3368 C   0  0  0  0  0  0  0  0  0  0  0  0
   -0.3018    2.9877    2.8079 H   0  0  0  0  0  0  0  0  0  0  0  0
    1.4516    2.8997    3.1011 H   0  0  0  0  0  0  0  0  0  0  0  0
    0.8279    3.6639    1.6193 H   0  0  0  0  0  0  0  0  0  0  0  0
  5  6  2  0  0  0  0
  5  7  1  0  0  0  0
  2  3  1  0  0  0  0
  2  4  1  0  0  0  0
  2  5  1  0  0  0  0
  1  2  1  0  0  0  0
 18 19  2  0  0  0  0
 18 20  1  0  0  0  0
 16 17  1  0  0  0  0
 14 15  2  0  0  0  0
 14 16  1  0  0  0  0
 11 12  1  0  0  0  0
 11 13  1  0  0  0  0
 11 14  1  0  0  0  0
  9 10  1  0  0  0  0
  9 11  1  0  0  0  0
  9 18  1  0  0  0  0
  7  8  1  0  0  0  0
  7  9  1  0  0  0  0
 22 23  1  0  0  0  0
 22 24  1  0  0  0  0
 22 25  1  0  0  0  0
 20 21  1  0  0  0  0
 20 22  1  0  0  0  0
M  END
$$$$
default_name
  -OEChem-02102213163D

 25 24  0     1  0  0  0  0  0999 V2000
   -2.7826   -3.8464    0.7821 H   0  0  0  0  0  0  0  0  0  0  0  0
   -2.8156   -2.8034    0.4711 C   0  0  0  0  0  0  0  0  0  0  0  0
   -3.4336   -2.2354    1.1641 H   0  0  0  0  0  0  0  0  0  0  0  0
   -3.2256   -2.7344   -0.5349 H   0  0  0  0  0  0  0  0  0  0  0  0
   -1.4126   -2.2444    0.4801 C   0  0  0  0  0  0  0  0  0  0  0  0
   -0.4686   -2.9534    0.8001 O   0  0  0  0  0  0  0  0  0  0  0  0
   -1.2736   -0.9704    0.1241 N   0  0  0  0  0  0  0  0  0  0  0  0
   -2.0996   -0.4354   -0.1019 H   0  0  0  0  0  0  0  0  0  0  0  0
   -0.0016   -0.2394    0.1271 C   0  0  1  0  0  0  0  0  0  0  0  0
    0.7164   -0.7963    0.7332 H   0  0  0  0  0  0  0  0  0  0  0  0
    0.5351   -0.1414   -1.3146 C   0  0  0  0  0  0  0  0  0  0  0  0
    1.1082    0.7797   -1.4267 H   0  0  0  0  0  0  0  0  0  0  0  0
    1.2042   -0.9789   -1.5151 H   0  0  0  0  0  0  0  0  0  0  0  0
   -0.5652   -0.1139   -2.3713 C   0  0  0  0  0  0  0  0  0  0  0  0
   -1.0496   -1.0943   -2.9213 O   0  0  0  0  0  0  0  0  0  0  0  0
   -1.0026    1.1163   -2.6989 O   0  0  0  0  0  0  0  0  0  0  0  0
   -1.6949    0.9846   -3.3474 H   0  0  0  0  0  0  0  0  0  0  0  0
   -0.1923    1.1526    0.7617 C   0  0  0  0  0  0  0  0  0  0  0  0
   -1.1582    1.8438    0.4410 O   0  0  0  0  0  0  0  0  0  0  0  0
    0.7203    1.5683    1.6472 N   0  0  0  0  0  0  0  0  0  0  0  0
    1.5210    0.9664    1.8100 H   0  0  0  0  0  0  0  0  0  0  0  0
    0.6747    2.8558    2.3368 C   0  0  0  0  0  0  0  0  0  0  0  0
   -0.3018    2.9877    2.8079 H   0  0  0  0  0  0  0  0  0  0  0  0
    1.4516    2.8997    3.1011 H   0  0  0  0  0  0  0  0  0  0  0  0
    0.8279    3.6639    1.6193 H   0  0  0  0  0  0  0  0  0  0  0  0
  5  6  2  0  0  0  0
  5  7  1  0  0  0  0
  2  3  1  0  0  0  0
  2  4  1  0  0  0  0
  2  5  1  0  0  0  0
  1  2  1  0  0  0  0
 18 19  2  0  0  0  0
 18 20  1  0  0  0  0
 16 17  1  0  0  0  0
 14 15  2  0  0  0  0
 14 16  1  0  0  0  0
 11 12  1  0  0  0  0
 11 13  1  0  0  0  0
 11 14  1  0  0  0  0
  9 10  1  0  0  0  0
  9 11  1  0  0  0  0
  9 18  1  0  0  0  0
  7  8  1  0  0  0  0
  7  9  1  0  0  0  0
 22 23  1  0  0  0  0
 22 24  1  0  0  0  0
 22 25  1  0  0  0  0
 20 21  1  0  0  0  0
 20 22  1  0  0  0  0
M  END
$$$$
default_name
  -OEChem-02102213163D

 25 24  0     1  0  0  0  0  0999 V2000
   -2.7826   -3.8464    0.7821 H   0  0  0  0  0  0  0  0  0  0  0  0
   -2.8156   -2.8034    0.4711 C   0  0  0  0  0  0  0  0  0  0  0  0
   -3.4336   -2.2354    1.1641 H   0  0  0  0  0  0  0  0  0  0  0  0
   -3.2256   -2.7344   -0.5349 H   0  0  0  0  0  0  0  0  0  0  0  0
   -1.4126   -2.2444    0.4801 C   0  0  0  0  0  0  0  0  0  0  0  0
   -0.4686   -2.9534    0.8001 O   0  0  0  0  0  0  0  0  0  0  0  0
   -1.2736   -0.9704    0.1241 N   0  0  0  0  0  0  0  0  0  0  0  0
   -2.0996   -0.4354   -0.1019 H   0  0  0  0  0  0  0  0  0  0  0  0
   -0.0016   -0.2394    0.1271 C   0  0  1  0  0  0  0  0  0  0  0  0
    0.7164   -0.7963    0.7332 H   0  0  0  0  0  0  0  0  0  0  0  0
    0.5351   -0.1414   -1.3146 C   0  0  0  0  0  0  0  0  0  0  0  0
    1.1082    0.7797   -1.4267 H   0  0  0  0  0  0  0  0  0  0  0  0
    1.2042   -0.9789   -1.5151 H   0  0  0  0  0  0  0  0  0  0  0  0
   -0.5652   -0.1139   -2.3713 C   0  0  0  0  0  0  0  0  0  0  0  0
   -1.2289   -1.0763   -2.7341 O   0  0  0  0  0  0  0  0  0  0  0  0
   -0.7826    1.0919   -2.9286 O   0  0  0  0  0  0  0  0  0  0  0  0
   -1.5012    0.9684   -3.5495 H   0  0  0  0  0  0  0  0  0  0  0  0
   -0.1923    1.1526    0.7617 C   0  0  0  0  0  0  0  0  0  0  0  0
   -1.1582    1.8438    0.4410 O   0  0  0  0  0  0  0  0  0  0  0  0
    0.7203    1.5683    1.6472 N   0  0  0  0  0  0  0  0  0  0  0  0
    1.5210    0.9664    1.8100 H   0  0  0  0  0  0  0  0  0  0  0  0
    0.6747    2.8558    2.3368 C   0  0  0  0  0  0  0  0  0  0  0  0
   -0.3018    2.9877    2.8079 H   0  0  0  0  0  0  0  0  0  0  0  0
    1.4516    2.8997    3.1011 H   0  0  0  0  0  0  0  0  0  0  0  0
    0.8279    3.6639    1.6193 H   0  0  0  0  0  0  0  0  0  0  0  0
  5  6  2  0  0  0  0
  5  7  1  0  0  0  0
  2  3  1  0  0  0  0
  2  4  1  0  0  0  0
  2  5  1  0  0  0  0
  1  2  1  0  0  0  0
 18 19  2  0  0  0  0
 18 20  1  0  0  0  0
 16 17  1  0  0  0  0
 14 15  2  0  0  0  0
 14 16  1  0  0  0  0
 11 12  1  0  0  0  0
 11 13  1  0  0  0  0
 11 14  1  0  0  0  0
  9 10  1  0  0  0  0
  9 11  1  0  0  0  0
  9 18  1  0  0  0  0
  7  8  1  0  0  0  0
  7  9  1  0  0  0  0
 22 23  1  0  0  0  0
 22 24  1  0  0  0  0
 22 25  1  0  0  0  0
 20 21  1  0  0  0  0
 20 22  1  0  0  0  0
M  END
$$$$
default_name
  -OEChem-02102213163D

 25 24  0     1  0  0  0  0  0999 V2000
   -2.7826   -3.8464    0.7821 H   0  0  0  0  0  0  0  0  0  0  0  0
   -2.8156   -2.8034    0.4711 C   0  0  0  0  0  0  0  0  0  0  0  0
   -3.4336   -2.2354    1.1641 H   0  0  0  0  0  0  0  0  0  0  0  0
   -3.2256   -2.7344   -0.5349 H   0  0  0  0  0  0  0  0  0  0  0  0
   -1.4126   -2.2444    0.4801 C   0  0  0  0  0  0  0  0  0  0  0  0
   -0.4686   -2.9534    0.8001 O   0  0  0  0  0  0  0  0  0  0  0  0
   -1.2736   -0.9704    0.1241 N   0  0  0  0  0  0  0  0  0  0  0  0
   -2.0996   -0.4354   -0.1019 H   0  0  0  0  0  0  0  0  0  0  0  0
   -0.0016   -0.2394    0.1271 C   0  0  1  0  0  0  0  0  0  0  0  0
    0.7164   -0.7963    0.7332 H   0  0  0  0  0  0  0  0  0  0  0  0
    0.5351   -0.1414   -1.3146 C   0  0  0  0  0  0  0  0  0  0  0  0
    1.1082    0.7797   -1.4267 H   0  0  0  0  0  0  0  0  0  0  0  0
    1.2042   -0.9789   -1.5151 H   0  0  0  0  0  0  0  0  0  0  0  0
   -0.5652   -0.1139   -2.3713 C   0  0  0  0  0  0  0  0  0  0  0  0
   -1.3980   -0.9918   -2.5559 O   0  0  0  0  0  0  0  0  0  0  0  0
   -0.5755    0.9862   -3.1470 O   0  0  0  0  0  0  0  0  0  0  0  0
   -1.3179    0.8803   -3.7427 H   0  0  0  0  0  0  0  0  0  0  0  0
   -0.1923    1.1526    0.7617 C   0  0  0  0  0  0  0  0  0  0  0  0
   -1.1582    1.8438    0.4410 O   0  0  0  0  0  0  0  0  0  0  0  0
    0.7203    1.5683    1.6472 N   0  0  0  0  0  0  0  0  0  0  0  0
    1.5210    0.9664    1.8100 H   0  0  0  0  0  0  0  0  0  0  0  0
    0.6747    2.8558    2.3368 C   0  0  0  0  0  0  0  0  0  0  0  0
   -0.3018    2.9877    2.8079 H   0  0  0  0  0  0  0  0  0  0  0  0
    1.4516    2.8997    3.1011 H   0  0  0  0  0  0  0  0  0  0  0  0
    0.8279    3.6639    1.6193 H   0  0  0  0  0  0  0  0  0  0  0  0
  5  6  2  0  0  0  0
  5  7  1  0  0  0  0
  2  3  1  0  0  0  0
  2  4  1  0  0  0  0
  2  5  1  0  0  0  0
  1  2  1  0  0  0  0
 18 19  2  0  0  0  0
 18 20  1  0  0  0  0
 16 17  1  0  0  0  0
 14 15  2  0  0  0  0
 14 16  1  0  0  0  0
 11 12  1  0  0  0  0
 11 13  1  0  0  0  0
 11 14  1  0  0  0  0
  9 10  1  0  0  0  0
  9 11  1  0  0  0  0
  9 18  1  0  0  0  0
  7  8  1  0  0  0  0
  7  9  1  0  0  0  0
 22 23  1  0  0  0  0
 22 24  1  0  0  0  0
 22 25  1  0  0  0  0
 20 21  1  0  0  0  0
 20 22  1  0  0  0  0
M  END
$$$$
default_name
  -OEChem-02102213163D

 25 24  0     1  0  0  0  0  0999 V2000
   -2.7826   -3.8464    0.7821 H   0  0  0  0  0  0  0  0  0  0  0  0
   -2.8156   -2.8034    0.4711 C   0  0  0  0  0  0  0  0  0  0  0  0
   -3.4336   -2.2354    1.1641 H   0  0  0  0  0  0  0  0  0  0  0  0
   -3.2256   -2.7344   -0.5349 H   0  0  0  0  0  0  0  0  0  0  0  0
   -1.4126   -2.2444    0.4801 C   0  0  0  0  0  0  0  0  0  0  0  0
   -0.4686   -2.9534    0.8001 O   0  0  0  0  0  0  0  0  0  0  0  0
   -1.2736   -0.9704    0.1241 N   0  0  0  0  0  0  0  0  0  0  0  0
   -2.0996   -0.4354   -0.1019 H   0  0  0  0  0  0  0  0  0  0  0  0
   -0.0016   -0.2394    0.1271 C   0  0  1  0  0  0  0  0  0  0  0  0
    0.7164   -0.7963    0.7332 H   0  0  0  0  0  0  0  0  0  0  0  0
    0.5351   -0.1414   -1.3146 C   0  0  0  0  0  0  0  0  0  0  0  0
    1.1082    0.7797   -1.4267 H   0  0  0  0  0  0  0  0  0  0  0  0
    1.2042   -0.9789   -1.5151 H   0  0  0  0  0  0  0  0  0  0  0  0
   -0.5652   -0.1139   -2.3713 C   0  0  0  0  0  0  0  0  0  0  0  0
   -1.5453   -0.8466   -2.3986 O   0  0  0  0  0  0  0  0  0  0  0  0
   -0.3955    0.8061   -3.3392 O   0  0  0  0  0  0  0  0  0  0  0  0
   -1.1576    0.7263   -3.9136 H   0  0  0  0  0  0  0  0  0  0  0  0
   -0.1923    1.1526    0.7617 C   0  0  0  0  0  0  0  0  0  0  0  0
   -1.1582    1.8438    0.4410 O   0  0  0  0  0  0  0  0  0  0  0  0
    0.7203    1.5683    1.6472 N   0  0  0  0  0  0  0  0  0  0  0  0
    1.5210    0.9664    1.8100 H   0  0  0  0  0  0  0  0  0  0  0  0
    0.6747    2.8558    2.3368 C   0  0  0  0  0  0  0  0  0  0  0  0
   -0.3018    2.9877    2.8079 H   0  0  0  0  0  0  0  0  0  0  0  0
    1.4516    2.8997    3.1011 H   0  0  0  0  0  0  0  0  0  0  0  0
    0.8279    3.6639    1.6193 H   0  0  0  0  0  0  0  0  0  0  0  0
  5  6  2  0  0  0  0
  5  7  1  0  0  0  0
  2  3  1  0  0  0  0
  2  4  1  0  0  0  0
  2  5  1  0  0  0  0
  1  2  1  0  0  0  0
 18 19  2  0  0  0  0
 18 20  1  0  0  0  0
 16 17  1  0  0  0  0
 14 15  2  0  0  0  0
 14 16  1  0  0  0  0
 11 12  1  0  0  0  0
 11 13  1  0  0  0  0
 11 14  1  0  0  0  0
  9 10  1  0  0  0  0
  9 11  1  0  0  0  0
  9 18  1  0  0  0  0
  7  8  1  0  0  0  0
  7  9  1  0  0  0  0
 22 23  1  0  0  0  0
 22 24  1  0  0  0  0
 22 25  1  0  0  0  0
 20 21  1  0  0  0  0
 20 22  1  0  0  0  0
M  END
$$$$
default_name
  -OEChem-02102213163D

 25 24  0     1  0  0  0  0  0999 V2000
   -2.7826   -3.8464    0.7821 H   0  0  0  0  0  0  0  0  0  0  0  0
   -2.8156   -2.8034    0.4711 C   0  0  0  0  0  0  0  0  0  0  0  0
   -3.4336   -2.2354    1.1641 H   0  0  0  0  0  0  0  0  0  0  0  0
   -3.2256   -2.7344   -0.5349 H   0  0  0  0  0  0  0  0  0  0  0  0
   -1.4126   -2.2444    0.4801 C   0  0  0  0  0  0  0  0  0  0  0  0
   -0.4686   -2.9534    0.8001 O   0  0  0  0  0  0  0  0  0  0  0  0
   -1.2736   -0.9704    0.1241 N   0  0  0  0  0  0  0  0  0  0  0  0
   -2.0996   -0.4354   -0.1019 H   0  0  0  0  0  0  0  0  0  0  0  0
   -0.0016   -0.2394    0.1271 C   0  0  1  0  0  0  0  0  0  0  0  0
    0.7164   -0.7963    0.7332 H   0  0  0  0  0  0  0  0  0  0  0  0
    0.5351   -0.1414   -1.3146 C   0  0  0  0  0  0  0  0  0  0  0  0
    1.1082    0.7797   -1.4267 H   0  0  0  0  0  0  0  0  0  0  0  0
    1.2042   -0.9789   -1.5151 H   0  0  0  0  0  0  0  0  0  0  0  0
   -0.5652   -0.1139   -2.3713 C   0  0  0  0  0  0  0  0  0  0  0  0
   -1.6609   -0.6506   -2.2732 O   0  0  0  0  0  0  0  0  0  0  0  0
   -0.2548    0.5640   -3.4920 O   0  0  0  0  0  0  0  0  0  0  0  0
   -1.0311    0.5169   -4.0508 H   0  0  0  0  0  0  0  0  0  0  0  0
   -0.1923    1.1526    0.7617 C   0  0  0  0  0  0  0  0  0  0  0  0
   -1.1582    1.8438    0.4410 O   0  0  0  0  0  0  0  0  0  0  0  0
    0.7203    1.5683    1.6472 N   0  0  0  0  0  0  0  0  0  0  0  0
    1.5210    0.9664    1.8100 H   0  0  0  0  0  0  0  0  0  0  0  0
    0.6747    2.8558    2.3368 C   0  0  0  0  0  0  0  0  0  0  0  0
   -0.3018    2.9877    2.8079 H   0  0  0  0  0  0  0  0  0  0  0  0
    1.4516    2.8997    3.1011 H   0  0  0  0  0  0  0  0  0  0  0  0
    0.8279    3.6639    1.6193 H   0  0  0  0  0  0  0  0  0  0  0  0
  5  6  2  0  0  0  0
  5  7  1  0  0  0  0
  2  3  1  0  0  0  0
  2  4  1  0  0  0  0
  2  5  1  0  0  0  0
  1  2  1  0  0  0  0
 18 19  2  0  0  0  0
 18 20  1  0  0  0  0
 16 17  1  0  0  0  0
 14 15  2  0  0  0  0
 14 16  1  0  0  0  0
 11 12  1  0  0  0  0
 11 13  1  0  0  0  0
 11 14  1  0  0  0  0
  9 10  1  0  0  0  0
  9 11  1  0  0  0  0
  9 18  1  0  0  0  0
  7  8  1  0  0  0  0
  7  9  1  0  0  0  0
 22 23  1  0  0  0  0
 22 24  1  0  0  0  0
 22 25  1  0  0  0  0
 20 21  1  0  0  0  0
 20 22  1  0  0  0  0
M  END
$$$$
default_name
  -OEChem-02102213163D

 25 24  0     1  0  0  0  0  0999 V2000
   -2.7826   -3.8464    0.7821 H   0  0  0  0  0  0  0  0  0  0  0  0
   -2.8156   -2.8034    0.4711 C   0  0  0  0  0  0  0  0  0  0  0  0
   -3.4336   -2.2354    1.1641 H   0  0  0  0  0  0  0  0  0  0  0  0
   -3.2256   -2.7344   -0.5349 H   0  0  0  0  0  0  0  0  0  0  0  0
   -1.4126   -2.2444    0.4801 C   0  0  0  0  0  0  0  0  0  0  0  0
   -0.4686   -2.9534    0.8001 O   0  0  0  0  0  0  0  0  0  0  0  0
   -1.2736   -0.9704    0.1241 N   0  0  0  0  0  0  0  0  0  0  0  0
   -2.0996   -0.4354   -0.1019 H   0  0  0  0  0  0  0  0  0  0  0  0
   -0.0016   -0.2394    0.1271 C   0  0  1  0  0  0  0  0  0  0  0  0
    0.7164   -0.7963    0.7332 H   0  0  0  0  0  0  0  0  0  0  0  0
    0.5351   -0.1414   -1.3146 C   0  0  0  0  0  0  0  0  0  0  0  0
    1.1082    0.7797   -1.4267 H   0  0  0  0  0  0  0  0  0  0  0  0
    1.2042   -0.9789   -1.5151 H   0  0  0  0  0  0  0  0  0  0  0  0
   -0.5652   -0.1139   -2.3713 C   0  0  0  0  0  0  0  0  0  0  0  0
   -1.7368   -0.4172   -2.1880 O   0  0  0  0  0  0  0  0  0  0  0  0
   -0.1629    0.2764   -3.5951 O   0  0  0  0  0  0  0  0  0  0  0  0
   -0.9472    0.2664   -4.1448 H   0  0  0  0  0  0  0  0  0  0  0  0
   -0.1923    1.1526    0.7617 C   0  0  0  0  0  0  0  0  0  0  0  0
   -1.1582    1.8438    0.4410 O   0  0  0  0  0  0  0  0  0  0  0  0
    0.7203    1.5683    1.6472 N   0  0  0  0  0  0  0  0  0  0  0  0
    1.5210    0.9664    1.8100 H   0  0  0  0  0  0  0  0  0  0  0  0
    0.6747    2.8558    2.3368 C   0  0  0  0  0  0  0  0  0  0  0  0
   -0.3018    2.9877    2.8079 H   0  0  0  0  0  0  0  0  0  0  0  0
    1.4516    2.8997    3.1011 H   0  0  0  0  0  0  0  0  0  0  0  0
    0.8279    3.6639    1.6193 H   0  0  0  0  0  0  0  0  0  0  0  0
  5  6  2  0  0  0  0
  5  7  1  0  0  0  0
  2  3  1  0  0  0  0
  2  4  1  0  0  0  0
  2  5  1  0  0  0  0
  1  2  1  0  0  0  0
 18 19  2  0  0  0  0
 18 20  1  0  0  0  0
 16 17  1  0  0  0  0
 14 15  2  0  0  0  0
 14 16  1  0  0  0  0
 11 12  1  0  0  0  0
 11 13  1  0  0  0  0
 11 14  1  0  0  0  0
  9 10  1  0  0  0  0
  9 11  1  0  0  0  0
  9 18  1  0  0  0  0
  7  8  1  0  0  0  0
  7  9  1  0  0  0  0
 22 23  1  0  0  0  0
 22 24  1  0  0  0  0
 22 25  1  0  0  0  0
 20 21  1  0  0  0  0
 20 22  1  0  0  0  0
M  END
$$$$
default_name
  -OEChem-02102213163D

 25 24  0     1  0  0  0  0  0999 V2000
   -2.7826   -3.8464    0.7821 H   0  0  0  0  0  0  0  0  0  0  0  0
   -2.8156   -2.8034    0.4711 C   0  0  0  0  0  0  0  0  0  0  0  0
   -3.4336   -2.2354    1.1641 H   0  0  0  0  0  0  0  0  0  0  0  0
   -3.2256   -2.7344   -0.5349 H   0  0  0  0  0  0  0  0  0  0  0  0
   -1.4126   -2.2444    0.4801 C   0  0  0  0  0  0  0  0  0  0  0  0
   -0.4686   -2.9534    0.8001 O   0  0  0  0  0  0  0  0  0  0  0  0
   -1.2736   -0.9704    0.1241 N   0  0  0  0  0  0  0  0  0  0  0  0
   -2.0996   -0.4354   -0.1019 H   0  0  0  0  0  0  0  0  0  0  0  0
   -0.0016   -0.2394    0.1271 C   0  0  1  0  0  0  0  0  0  0  0  0
    0.7164   -0.7963    0.7332 H   0  0  0  0  0  0  0  0  0  0  0  0
    0.5351   -0.1414   -1.3146 C   0  0  0  0  0  0  0  0  0  0  0  0
    1.1082    0.7797   -1.4267 H   0  0  0  0  0  0  0  0  0  0  0  0
    1.2042   -0.9789   -1.5151 H   0  0  0  0  0  0  0  0  0  0  0  0
   -0.5652   -0.1139   -2.3713 C   0  0  0  0  0  0  0  0  0  0  0  0
   -1.7679   -0.1622   -2.1490 O   0  0  0  0  0  0  0  0  0  0  0  0
   -0.1263   -0.0370   -3.6415 O   0  0  0  0  0  0  0  0  0  0  0  0
   -0.9114   -0.0082   -4.1892 H   0  0  0  0  0  0  0  0  0  0  0  0
   -0.1923    1.1526    0.7617 C   0  0  0  0  0  0  0  0  0  0  0  0
   -1.1582    1.8438    0.4410 O   0  0  0  0  0  0  0  0  0  0  0  0
    0.7203    1.5683    1.6472 N   0  0  0  0  0  0  0  0  0  0  0  0
    1.5210    0.9664    1.8100 H   0  0  0  0  0  0  0  0  0  0  0  0
    0.6747    2.8558    2.3368 C   0  0  0  0  0  0  0  0  0  0  0  0
   -0.3018    2.9877    2.8079 H   0  0  0  0  0  0  0  0  0  0  0  0
    1.4516    2.8997    3.1011 H   0  0  0  0  0  0  0  0  0  0  0  0
    0.8279    3.6639    1.6193 H   0  0  0  0  0  0  0  0  0  0  0  0
  5  6  2  0  0  0  0
  5  7  1  0  0  0  0
  2  3  1  0  0  0  0
  2  4  1  0  0  0  0
  2  5  1  0  0  0  0
  1  2  1  0  0  0  0
 18 19  2  0  0  0  0
 18 20  1  0  0  0  0
 16 17  1  0  0  0  0
 14 15  2  0  0  0  0
 14 16  1  0  0  0  0
 11 12  1  0  0  0  0
 11 13  1  0  0  0  0
 11 14  1  0  0  0  0
  9 10  1  0  0  0  0
  9 11  1  0  0  0  0
  9 18  1  0  0  0  0
  7  8  1  0  0  0  0
  7  9  1  0  0  0  0
 22 23  1  0  0  0  0
 22 24  1  0  0  0  0
 22 25  1  0  0  0  0
 20 21  1  0  0  0  0
 20 22  1  0  0  0  0
M  END
$$$$
default_name
  -OEChem-02102213163D

 25 24  0     1  0  0  0  0  0999 V2000
   -2.7826   -3.8464    0.7821 H   0  0  0  0  0  0  0  0  0  0  0  0
   -2.8156   -2.8034    0.4711 C   0  0  0  0  0  0  0  0  0  0  0  0
   -3.4336   -2.2354    1.1641 H   0  0  0  0  0  0  0  0  0  0  0  0
   -3.2256   -2.7344   -0.5349 H   0  0  0  0  0  0  0  0  0  0  0  0
   -1.4126   -2.2444    0.4801 C   0  0  0  0  0  0  0  0  0  0  0  0
   -0.4686   -2.9534    0.8001 O   0  0  0  0  0  0  0  0  0  0  0  0
   -1.2736   -0.9704    0.1241 N   0  0  0  0  0  0  0  0  0  0  0  0
   -2.0996   -0.4354   -0.1019 H   0  0  0  0  0  0  0  0  0  0  0  0
   -0.0016   -0.2394    0.1271 C   0  0  1  0  0  0  0  0  0  0  0  0
    0.7164   -0.7963    0.7332 H   0  0  0  0  0  0  0  0  0  0  0  0
    0.5351   -0.1414   -1.3146 C   0  0  0  0  0  0  0  0  0  0  0  0
    1.1082    0.7797   -1.4267 H   0  0  0  0  0  0  0  0  0  0  0  0
    1.2042   -0.9789   -1.5151 H   0  0  0  0  0  0  0  0  0  0  0  0
   -0.5652   -0.1139   -2.3713 C   0  0  0  0  0  0  0  0  0  0  0  0
   -1.7521    0.0969   -2.1588 O   0  0  0  0  0  0  0  0  0  0  0  0
   -0.1472   -0.3551   -3.6279 O   0  0  0  0  0  0  0  0  0  0  0  0
   -0.9262   -0.2881   -4.1810 H   0  0  0  0  0  0  0  0  0  0  0  0
   -0.1923    1.1526    0.7617 C   0  0  0  0  0  0  0  0  0  0  0  0
   -1.1582    1.8438    0.4410 O   0  0  0  0  0  0  0  0  0  0  0  0
    0.7203    1.5683    1.6472 N   0  0  0  0  0  0  0  0  0  0  0  0
    1.5210    0.9664    1.8100 H   0  0  0  0  0  0  0  0  0  0  0  0
    0.6747    2.8558    2.3368 C   0  0  0  0  0  0  0  0  0  0  0  0
   -0.3018    2.9877    2.8079 H   0  0  0  0  0  0  0  0  0  0  0  0
    1.4516    2.8997    3.1011 H   0  0  0  0  0  0  0  0  0  0  0  0
    0.8279    3.6639    1.6193 H   0  0  0  0  0  0  0  0  0  0  0  0
  5  6  2  0  0  0  0
  5  7  1  0  0  0  0
  2  3  1  0  0  0  0
  2  4  1  0  0  0  0
  2  5  1  0  0  0  0
  1  2  1  0  0  0  0
 18 19  2  0  0  0  0
 18 20  1  0  0  0  0
 16 17  1  0  0  0  0
 14 15  2  0  0  0  0
 14 16  1  0  0  0  0
 11 12  1  0  0  0  0
 11 13  1  0  0  0  0
 11 14  1  0  0  0  0
  9 10  1  0  0  0  0
  9 11  1  0  0  0  0
  9 18  1  0  0  0  0
  7  8  1  0  0  0  0
  7  9  1  0  0  0  0
 22 23  1  0  0  0  0
 22 24  1  0  0  0  0
 22 25  1  0  0  0  0
 20 21  1  0  0  0  0
 20 22  1  0  0  0  0
M  END
$$$$
default_name
  -OEChem-02102213163D

 25 24  0     1  0  0  0  0  0999 V2000
   -2.7826   -3.8464    0.7821 H   0  0  0  0  0  0  0  0  0  0  0  0
   -2.8156   -2.8034    0.4711 C   0  0  0  0  0  0  0  0  0  0  0  0
   -3.4336   -2.2354    1.1641 H   0  0  0  0  0  0  0  0  0  0  0  0
   -3.2256   -2.7344   -0.5349 H   0  0  0  0  0  0  0  0  0  0  0  0
   -1.4126   -2.2444    0.4801 C   0  0  0  0  0  0  0  0  0  0  0  0
   -0.4686   -2.9534    0.8001 O   0  0  0  0  0  0  0  0  0  0  0  0
   -1.2736   -0.9704    0.1241 N   0  0  0  0  0  0  0  0  0  0  0  0
   -2.0996   -0.4354   -0.1019 H   0  0  0  0  0  0  0  0  0  0  0  0
   -0.0016   -0.2394    0.1271 C   0  0  1  0  0  0  0  0  0  0  0  0
    0.7164   -0.7963    0.7332 H   0  0  0  0  0  0  0  0  0  0  0  0
    0.5351   -0.1414   -1.3146 C   0  0  0  0  0  0  0  0  0  0  0  0
    1.1082    0.7797   -1.4267 H   0  0  0  0  0  0  0  0  0  0  0  0
    1.2042   -0.9789   -1.5151 H   0  0  0  0  0  0  0  0  0  0  0  0
   -0.5652   -0.1139   -2.3713 C   0  0  0  0  0  0  0  0  0  0  0  0
   -1.6903    0.3426   -2.2166 O   0  0  0  0  0  0  0  0  0  0  0  0
   -0.2245   -0.6560   -3.5554 O   0  0  0  0  0  0  0  0  0  0  0  0
   -0.9907   -0.5543   -4.1208 H   0  0  0  0  0  0  0  0  0  0  0  0
   -0.1923    1.1526    0.7617 C   0  0  0  0  0  0  0  0  0  0  0  0
   -1.1582    1.8438    0.4410 O   0  0  0  0  0  0  0  0  0  0  0  0
    0.7203    1.5683    1.6472 N   0  0  0  0  0  0  0  0  0  0  0  0
    1.5210    0.9664    1.8100 H   0  0  0  0  0  0  0  0  0  0  0  0
    0.6747    2.8558    2.3368 C   0  0  0  0  0  0  0  0  0  0  0  0
   -0.3018    2.9877    2.8079 H   0  0  0  0  0  0  0  0  0  0  0  0
    1.4516    2.8997    3.1011 H   0  0  0  0  0  0  0  0  0  0  0  0
    0.8279    3.6639    1.6193 H   0  0  0  0  0  0  0  0  0  0  0  0
  5  6  2  0  0  0  0
  5  7  1  0  0  0  0
  2  3  1  0  0  0  0
  2  4  1  0  0  0  0
  2  5  1  0  0  0  0
  1  2  1  0  0  0  0
 18 19  2  0  0  0  0
 18 20  1  0  0  0  0
 16 17  1  0  0  0  0
 14 15  2  0  0  0  0
 14 16  1  0  0  0  0
 11 12  1  0  0  0  0
 11 13  1  0  0  0  0
 11 14  1  0  0  0  0
  9 10  1  0  0  0  0
  9 11  1  0  0  0  0
  9 18  1  0  0  0  0
  7  8  1  0  0  0  0
  7  9  1  0  0  0  0
 22 23  1  0  0  0  0
 22 24  1  0  0  0  0
 22 25  1  0  0  0  0
 20 21  1  0  0  0  0
 20 22  1  0  0  0  0
M  END
$$$$
default_name
  -OEChem-02102213163D

 25 24  0     1  0  0  0  0  0999 V2000
   -2.7826   -3.8464    0.7821 H   0  0  0  0  0  0  0  0  0  0  0  0
   -2.8156   -2.8034    0.4711 C   0  0  0  0  0  0  0  0  0  0  0  0
   -3.4336   -2.2354    1.1641 H   0  0  0  0  0  0  0  0  0  0  0  0
   -3.2256   -2.7344   -0.5349 H   0  0  0  0  0  0  0  0  0  0  0  0
   -1.4126   -2.2444    0.4801 C   0  0  0  0  0  0  0  0  0  0  0  0
   -0.4686   -2.9534    0.8001 O   0  0  0  0  0  0  0  0  0  0  0  0
   -1.2736   -0.9704    0.1241 N   0  0  0  0  0  0  0  0  0  0  0  0
   -2.0996   -0.4354   -0.1019 H   0  0  0  0  0  0  0  0  0  0  0  0
   -0.0016   -0.2394    0.1271 C   0  0  1  0  0  0  0  0  0  0  0  0
    0.7164   -0.7963    0.7332 H   0  0  0  0  0  0  0  0  0  0  0  0
    0.5351   -0.1414   -1.3146 C   0  0  0  0  0  0  0  0  0  0  0  0
    1.1082    0.7797   -1.4267 H   0  0  0  0  0  0  0  0  0  0  0  0
    1.2042   -0.9789   -1.5151 H   0  0  0  0  0  0  0  0  0  0  0  0
   -0.5652   -0.1139   -2.3713 C   0  0  0  0  0  0  0  0  0  0  0  0
   -1.5870    0.5580   -2.3187 O   0  0  0  0  0  0  0  0  0  0  0  0
   -0.3526   -0.9192   -3.4288 O   0  0  0  0  0  0  0  0  0  0  0  0
   -1.1005   -0.7886   -4.0126 H   0  0  0  0  0  0  0  0  0  0  0  0
   -0.1923    1.1526    0.7617 C   0  0  0  0  0  0  0  0  0  0  0  0
   -1.1582    1.8438    0.4410 O   0  0  0  0  0  0  0  0  0  0  0  0
    0.7203    1.5683    1.6472 N   0  0  0  0  0  0  0  0  0  0  0  0
    1.5210    0.9664    1.8100 H   0  0  0  0  0  0  0  0  0  0  0  0
    0.6747    2.8558    2.3368 C   0  0  0  0  0  0  0  0  0  0  0  0
   -0.3018    2.9877    2.8079 H   0  0  0  0  0  0  0  0  0  0  0  0
    1.4516    2.8997    3.1011 H   0  0  0  0  0  0  0  0  0  0  0  0
    0.8279    3.6639    1.6193 H   0  0  0  0  0  0  0  0  0  0  0  0
  5  6  2  0  0  0  0
  5  7  1  0  0  0  0
  2  3  1  0  0  0  0
  2  4  1  0  0  0  0
  2  5  1  0  0  0  0
  1  2  1  0  0  0  0
 18 19  2  0  0  0  0
 18 20  1  0  0  0  0
 16 17  1  0  0  0  0
 14 15  2  0  0  0  0
 14 16  1  0  0  0  0
 11 12  1  0  0  0  0
 11 13  1  0  0  0  0
 11 14  1  0  0  0  0
  9 10  1  0  0  0  0
  9 11  1  0  0  0  0
  9 18  1  0  0  0  0
  7  8  1  0  0  0  0
  7  9  1  0  0  0  0
 22 23  1  0  0  0  0
 22 24  1  0  0  0  0
 22 25  1  0  0  0  0
 20 21  1  0  0  0  0
 20 22  1  0  0  0  0
M  END
$$$$
default_name
  -OEChem-02102213163D

 25 24  0     1  0  0  0  0  0999 V2000
   -2.7826   -3.8464    0.7821 H   0  0  0  0  0  0  0  0  0  0  0  0
   -2.8156   -2.8034    0.4711 C   0  0  0  0  0  0  0  0  0  0  0  0
   -3.4336   -2.2354    1.1641 H   0  0  0  0  0  0  0  0  0  0  0  0
   -3.2256   -2.7344   -0.5349 H   0  0  0  0  0  0  0  0  0  0  0  0
   -1.4126   -2.2444    0.4801 C   0  0  0  0  0  0  0  0  0  0  0  0
   -0.4686   -2.9534    0.8001 O   0  0  0  0  0  0  0  0  0  0  0  0
   -1.2736   -0.9704    0.1241 N   0  0  0  0  0  0  0  0  0  0  0  0
   -2.0996   -0.4354   -0.1019 H   0  0  0  0  0  0  0  0  0  0  0  0
   -0.0016   -0.2394    0.1271 C   0  0  1  0  0  0  0  0  0  0  0  0
    0.7164   -0.7963    0.7332 H   0  0  0  0  0  0  0  0  0  0  0  0
    0.5351   -0.1414   -1.3146 C   0  0  0  0  0  0  0  0  0  0  0  0
    1.1082    0.7797   -1.4267 H   0  0  0  0  0  0  0  0  0  0  0  0
    1.2042   -0.9789   -1.5151 H   0  0  0  0  0  0  0  0  0  0  0  0
   -0.5652   -0.1139   -2.3713 C   0  0  0  0  0  0  0  0  0  0  0  0
   -1.4490    0.7285   -2.4579 O   0  0  0  0  0  0  0  0  0  0  0  0
   -0.5230   -1.1269   -3.2567 O   0  0  0  0  0  0  0  0  0  0  0  0
   -1.2479   -0.9751   -3.8639 H   0  0  0  0  0  0  0  0  0  0  0  0
   -0.1923    1.1526    0.7617 C   0  0  0  0  0  0  0  0  0  0  0  0
   -1.1582    1.8438    0.4410 O   0  0  0  0  0  0  0  0  0  0  0  0
    0.7203    1.5683    1.6472 N   0  0  0  0  0  0  0  0  0  0  0  0
    1.5210    0.9664    1.8100 H   0  0  0  0  0  0  0  0  0  0  0  0
    0.6747    2.8558    2.3368 C   0  0  0  0  0  0  0  0  0  0  0  0
   -0.3018    2.9877    2.8079 H   0  0  0  0  0  0  0  0  0  0  0  0
    1.4516    2.8997    3.1011 H   0  0  0  0  0  0  0  0  0  0  0  0
    0.8279    3.6639    1.6193 H   0  0  0  0  0  0  0  0  0  0  0  0
  5  6  2  0  0  0  0
  5  7  1  0  0  0  0
  2  3  1  0  0  0  0
  2  4  1  0  0  0  0
  2  5  1  0  0  0  0
  1  2  1  0  0  0  0
 18 19  2  0  0  0  0
 18 20  1  0  0  0  0
 16 17  1  0  0  0  0
 14 15  2  0  0  0  0
 14 16  1  0  0  0  0
 11 12  1  0  0  0  0
 11 13  1  0  0  0  0
 11 14  1  0  0  0  0
  9 10  1  0  0  0  0
  9 11  1  0  0  0  0
  9 18  1  0  0  0  0
  7  8  1  0  0  0  0
  7  9  1  0  0  0  0
 22 23  1  0  0  0  0
 22 24  1  0  0  0  0
 22 25  1  0  0  0  0
 20 21  1  0  0  0  0
 20 22  1  0  0  0  0
M  END
$$$$
default_name
  -OEChem-02102213163D

 25 24  0     1  0  0  0  0  0999 V2000
   -2.7826   -3.8464    0.7821 H   0  0  0  0  0  0  0  0  0  0  0  0
   -2.8156   -2.8034    0.4711 C   0  0  0  0  0  0  0  0  0  0  0  0
   -3.4336   -2.2354    1.1641 H   0  0  0  0  0  0  0  0  0  0  0  0
   -3.2256   -2.7344   -0.5349 H   0  0  0  0  0  0  0  0  0  0  0  0
   -1.4126   -2.2444    0.4801 C   0  0  0  0  0  0  0  0  0  0  0  0
   -0.4686   -2.9534    0.8001 O   0  0  0  0  0  0  0  0  0  0  0  0
   -1.2736   -0.9704    0.1241 N   0  0  0  0  0  0  0  0  0  0  0  0
   -2.0996   -0.4354   -0.1019 H   0  0  0  0  0  0  0  0  0  0  0  0
   -0.0016   -0.2394    0.1271 C   0  0  1  0  0  0  0  0  0  0  0  0
    0.7164   -0.7963    0.7332 H   0  0  0  0  0  0  0  0  0  0  0  0
    0.5351   -0.1414   -1.3146 C   0  0  0  0  0  0  0  0  0  0  0  0
    1.1082    0.7797   -1.4267 H   0  0  0  0  0  0  0  0  0  0  0  0
    1.2042   -0.9789   -1.5151 H   0  0  0  0  0  0  0  0  0  0  0  0
   -0.5652   -0.1139   -2.3713 C   0  0  0  0  0  0  0  0  0  0  0  0
   -1.2858    0.8425   -2.6249 O   0  0  0  0  0  0  0  0  0  0  0  0
   -0.7241   -1.2649   -3.0510 O   0  0  0  0  0  0  0  0  0  0  0  0
   -1.4231   -1.1010   -3.6848 H   0  0  0  0  0  0  0  0  0  0  0  0
   -0.1923    1.1526    0.7617 C   0  0  0  0  0  0  0  0  0  0  0  0
   -1.1582    1.8438    0.4410 O   0  0  0  0  0  0  0  0  0  0  0  0
    0.7203    1.5683    1.6472 N   0  0  0  0  0  0  0  0  0  0  0  0
    1.5210    0.9664    1.8100 H   0  0  0  0  0  0  0  0  0  0  0  0
    0.6747    2.8558    2.3368 C   0  0  0  0  0  0  0  0  0  0  0  0
   -0.3018    2.9877    2.8079 H   0  0  0  0  0  0  0  0  0  0  0  0
    1.4516    2.8997    3.1011 H   0  0  0  0  0  0  0  0  0  0  0  0
    0.8279    3.6639    1.6193 H   0  0  0  0  0  0  0  0  0  0  0  0
  5  6  2  0  0  0  0
  5  7  1  0  0  0  0
  2  3  1  0  0  0  0
  2  4  1  0  0  0  0
  2  5  1  0  0  0  0
  1  2  1  0  0  0  0
 18 19  2  0  0  0  0
 18 20  1  0  0  0  0
 16 17  1  0  0  0  0
 14 15  2  0  0  0  0
 14 16  1  0  0  0  0
 11 12  1  0  0  0  0
 11 13  1  0  0  0  0
 11 14  1  0  0  0  0
  9 10  1  0  0  0  0
  9 11  1  0  0  0  0
  9 18  1  0  0  0  0
  7  8  1  0  0  0  0
  7  9  1  0  0  0  0
 22 23  1  0  0  0  0
 22 24  1  0  0  0  0
 22 25  1  0  0  0  0
 20 21  1  0  0  0  0
 20 22  1  0  0  0  0
M  END
$$$$
default_name
  -OEChem-02102213163D

 25 24  0     1  0  0  0  0  0999 V2000
   -2.7826   -3.8464    0.7821 H   0  0  0  0  0  0  0  0  0  0  0  0
   -2.8156   -2.8034    0.4711 C   0  0  0  0  0  0  0  0  0  0  0  0
   -3.4336   -2.2354    1.1641 H   0  0  0  0  0  0  0  0  0  0  0  0
   -3.2256   -2.7344   -0.5349 H   0  0  0  0  0  0  0  0  0  0  0  0
   -1.4126   -2.2444    0.4801 C   0  0  0  0  0  0  0  0  0  0  0  0
   -0.4686   -2.9534    0.8001 O   0  0  0  0  0  0  0  0  0  0  0  0
   -1.2736   -0.9704    0.1241 N   0  0  0  0  0  0  0  0  0  0  0  0
   -2.0996   -0.4354   -0.1019 H   0  0  0  0  0  0  0  0  0  0  0  0
   -0.0016   -0.2394    0.1271 C   0  0  1  0  0  0  0  0  0  0  0  0
    0.7164   -0.7963    0.7332 H   0  0  0  0  0  0  0  0  0  0  0  0
    0.5351   -0.1414   -1.3146 C   0  0  0  0  0  0  0  0  0  0  0  0
    1.1082    0.7797   -1.4267 H   0  0  0  0  0  0  0  0  0  0  0  0
    1.2042   -0.9789   -1.5151 H   0  0  0  0  0  0  0  0  0  0  0  0
   -0.5652   -0.1139   -2.3713 C   0  0  0  0  0  0  0  0  0  0  0  0
   -1.1085    0.8922   -2.8082 O   0  0  0  0  0  0  0  0  0  0  0  0
   -0.9420   -1.3237   -2.8256 O   0  0  0  0  0  0  0  0  0  0  0  0
   -1.6141   -1.1578   -3.4874 H   0  0  0  0  0  0  0  0  0  0  0  0
   -0.1923    1.1526    0.7617 C   0  0  0  0  0  0  0  0  0  0  0  0
   -1.1582    1.8438    0.4410 O   0  0  0  0  0  0  0  0  0  0  0  0
    0.7203    1.5683    1.6472 N   0  0  0  0  0  0  0  0  0  0  0  0
    1.5210    0.9664    1.8100 H   0  0  0  0  0  0  0  0  0  0  0  0
    0.6747    2.8558    2.3368 C   0  0  0  0  0  0  0  0  0  0  0  0
   -0.3018    2.9877    2.8079 H   0  0  0  0  0  0  0  0  0  0  0  0
    1.4516    2.8997    3.1011 H   0  0  0  0  0  0  0  0  0  0  0  0
    0.8279    3.6639    1.6193 H   0  0  0  0  0  0  0  0  0  0  0  0
  5  6  2  0  0  0  0
  5  7  1  0  0  0  0
  2  3  1  0  0  0  0
  2  4  1  0  0  0  0
  2  5  1  0  0  0  0
  1  2  1  0  0  0  0
 18 19  2  0  0  0  0
 18 20  1  0  0  0  0
 16 17  1  0  0  0  0
 14 15  2  0  0  0  0
 14 16  1  0  0  0  0
 11 12  1  0  0  0  0
 11 13  1  0  0  0  0
 11 14  1  0  0  0  0
  9 10  1  0  0  0  0
  9 11  1  0  0  0  0
  9 18  1  0  0  0  0
  7  8  1  0  0  0  0
  7  9  1  0  0  0  0
 22 23  1  0  0  0  0
 22 24  1  0  0  0  0
 22 25  1  0  0  0  0
 20 21  1  0  0  0  0
 20 22  1  0  0  0  0
M  END
$$$$
default_name
  -OEChem-02102213163D

 25 24  0     1  0  0  0  0  0999 V2000
   -2.7826   -3.8464    0.7821 H   0  0  0  0  0  0  0  0  0  0  0  0
   -2.8156   -2.8034    0.4711 C   0  0  0  0  0  0  0  0  0  0  0  0
   -3.4336   -2.2354    1.1641 H   0  0  0  0  0  0  0  0  0  0  0  0
   -3.2256   -2.7344   -0.5349 H   0  0  0  0  0  0  0  0  0  0  0  0
   -1.4126   -2.2444    0.4801 C   0  0  0  0  0  0  0  0  0  0  0  0
   -0.4686   -2.9534    0.8001 O   0  0  0  0  0  0  0  0  0  0  0  0
   -1.2736   -0.9704    0.1241 N   0  0  0  0  0  0  0  0  0  0  0  0
   -2.0996   -0.4354   -0.1019 H   0  0  0  0  0  0  0  0  0  0  0  0
   -0.0016   -0.2394    0.1271 C   0  0  1  0  0  0  0  0  0  0  0  0
    0.7164   -0.7963    0.7332 H   0  0  0  0  0  0  0  0  0  0  0  0
    0.5351   -0.1414   -1.3146 C   0  0  0  0  0  0  0  0  0  0  0  0
    1.1082    0.7797   -1.4267 H   0  0  0  0  0  0  0  0  0  0  0  0
    1.2042   -0.9789   -1.5151 H   0  0  0  0  0  0  0  0  0  0  0  0
   -0.5652   -0.1139   -2.3713 C   0  0  0  0  0  0  0  0  0  0  0  0
   -0.9292    0.8742   -2.9954 O   0  0  0  0  0  0  0  0  0  0  0  0
   -1.1620   -1.2994   -2.5959 O   0  0  0  0  0  0  0  0  0  0  0  0
   -1.8078   -1.1417   -3.2853 H   0  0  0  0  0  0  0  0  0  0  0  0
   -0.1923    1.1526    0.7617 C   0  0  0  0  0  0  0  0  0  0  0  0
   -1.1582    1.8438    0.4410 O   0  0  0  0  0  0  0  0  0  0  0  0
    0.7203    1.5683    1.6472 N   0  0  0  0  0  0  0  0  0  0  0  0
    1.5210    0.9664    1.8100 H   0  0  0  0  0  0  0  0  0  0  0  0
    0.6747    2.8558    2.3368 C   0  0  0  0  0  0  0  0  0  0  0  0
   -0.3018    2.9877    2.8079 H   0  0  0  0  0  0  0  0  0  0  0  0
    1.4516    2.8997    3.1011 H   0  0  0  0  0  0  0  0  0  0  0  0
    0.8279    3.6639    1.6193 H   0  0  0  0  0  0  0  0  0  0  0  0
  5  6  2  0  0  0  0
  5  7  1  0  0  0  0
  2  3  1  0  0  0  0
  2  4  1  0  0  0  0
  2  5  1  0  0  0  0
  1  2  1  0  0  0  0
 18 19  2  0  0  0  0
 18 20  1  0  0  0  0
 16 17  1  0  0  0  0
 14 15  2  0  0  0  0
 14 16  1  0  0  0  0
 11 12  1  0  0  0  0
 11 13  1  0  0  0  0
 11 14  1  0  0  0  0
  9 10  1  0  0  0  0
  9 11  1  0  0  0  0
  9 18  1  0  0  0  0
  7  8  1  0  0  0  0
  7  9  1  0  0  0  0
 22 23  1  0  0  0  0
 22 24  1  0  0  0  0
 22 25  1  0  0  0  0
 20 21  1  0  0  0  0
 20 22  1  0  0  0  0
M  END
$$$$
default_name
  -OEChem-02102213163D

 25 24  0     1  0  0  0  0  0999 V2000
   -2.7826   -3.8464    0.7821 H   0  0  0  0  0  0  0  0  0  0  0  0
   -2.8156   -2.8034    0.4711 C   0  0  0  0  0  0  0  0  0  0  0  0
   -3.4336   -2.2354    1.1641 H   0  0  0  0  0  0  0  0  0  0  0  0
   -3.2256   -2.7344   -0.5349 H   0  0  0  0  0  0  0  0  0  0  0  0
   -1.4126   -2.2444    0.4801 C   0  0  0  0  0  0  0  0  0  0  0  0
   -0.4686   -2.9534    0.8001 O   0  0  0  0  0  0  0  0  0  0  0  0
   -1.2736   -0.9704    0.1241 N   0  0  0  0  0  0  0  0  0  0  0  0
   -2.0996   -0.4354   -0.1019 H   0  0  0  0  0  0  0  0  0  0  0  0
   -0.0016   -0.2394    0.1271 C   0  0  1  0  0  0  0  0  0  0  0  0
    0.7164   -0.7963    0.7332 H   0  0  0  0  0  0  0  0  0  0  0  0
    0.5351   -0.1414   -1.3146 C   0  0  0  0  0  0  0  0  0  0  0  0
    1.1082    0.7797   -1.4267 H   0  0  0  0  0  0  0  0  0  0  0  0
    1.2042   -0.9789   -1.5151 H   0  0  0  0  0  0  0  0  0  0  0  0
   -0.5652   -0.1139   -2.3713 C   0  0  0  0  0  0  0  0  0  0  0  0
   -0.7601    0.7897   -3.1736 O   0  0  0  0  0  0  0  0  0  0  0  0
   -1.3691   -1.1936   -2.3775 O   0  0  0  0  0  0  0  0  0  0  0  0
   -1.9911   -1.0536   -3.0922 H   0  0  0  0  0  0  0  0  0  0  0  0
   -0.1923    1.1526    0.7617 C   0  0  0  0  0  0  0  0  0  0  0  0
   -1.1582    1.8438    0.4410 O   0  0  0  0  0  0  0  0  0  0  0  0
    0.7203    1.5683    1.6472 N   0  0  0  0  0  0  0  0  0  0  0  0
    1.5210    0.9664    1.8100 H   0  0  0  0  0  0  0  0  0  0  0  0
    0.6747    2.8558    2.3368 C   0  0  0  0  0  0  0  0  0  0  0  0
   -0.3018    2.9877    2.8079 H   0  0  0  0  0  0  0  0  0  0  0  0
    1.4516    2.8997    3.1011 H   0  0  0  0  0  0  0  0  0  0  0  0
    0.8279    3.6639    1.6193 H   0  0  0  0  0  0  0  0  0  0  0  0
  5  6  2  0  0  0  0
  5  7  1  0  0  0  0
  2  3  1  0  0  0  0
  2  4  1  0  0  0  0
  2  5  1  0  0  0  0
  1  2  1  0  0  0  0
 18 19  2  0  0  0  0
 18 20  1  0  0  0  0
 16 17  1  0  0  0  0
 14 15  2  0  0  0  0
 14 16  1  0  0  0  0
 11 12  1  0  0  0  0
 11 13  1  0  0  0  0
 11 14  1  0  0  0  0
  9 10  1  0  0  0  0
  9 11  1  0  0  0  0
  9 18  1  0  0  0  0
  7  8  1  0  0  0  0
  7  9  1  0  0  0  0
 22 23  1  0  0  0  0
 22 24  1  0  0  0  0
 22 25  1  0  0  0  0
 20 21  1  0  0  0  0
 20 22  1  0  0  0  0
M  END
$$$$
default_name
  -OEChem-02102213163D

 25 24  0     1  0  0  0  0  0999 V2000
   -2.7826   -3.8464    0.7821 H   0  0  0  0  0  0  0  0  0  0  0  0
   -2.8156   -2.8034    0.4711 C   0  0  0  0  0  0  0  0  0  0  0  0
   -3.4336   -2.2354    1.1641 H   0  0  0  0  0  0  0  0  0  0  0  0
   -3.2256   -2.7344   -0.5349 H   0  0  0  0  0  0  0  0  0  0  0  0
   -1.4126   -2.2444    0.4801 C   0  0  0  0  0  0  0  0  0  0  0  0
   -0.4686   -2.9534    0.8001 O   0  0  0  0  0  0  0  0  0  0  0  0
   -1.2736   -0.9704    0.1241 N   0  0  0  0  0  0  0  0  0  0  0  0
   -2.0996   -0.4354   -0.1019 H   0  0  0  0  0  0  0  0  0  0  0  0
   -0.0016   -0.2394    0.1271 C   0  0  1  0  0  0  0  0  0  0  0  0
    0.7164   -0.7963    0.7332 H   0  0  0  0  0  0  0  0  0  0  0  0
    0.5351   -0.1414   -1.3146 C   0  0  0  0  0  0  0  0  0  0  0  0
    1.1082    0.7797   -1.4267 H   0  0  0  0  0  0  0  0  0  0  0  0
    1.2042   -0.9789   -1.5151 H   0  0  0  0  0  0  0  0  0  0  0  0
   -0.5652   -0.1139   -2.3713 C   0  0  0  0  0  0  0  0  0  0  0  0
   -0.6127    0.6445   -3.3309 O   0  0  0  0  0  0  0  0  0  0  0  0
   -1.5491   -1.0135   -2.1853 O   0  0  0  0  0  0  0  0  0  0  0  0
   -2.1514   -0.8996   -2.9212 H   0  0  0  0  0  0  0  0  0  0  0  0
   -0.1923    1.1526    0.7617 C   0  0  0  0  0  0  0  0  0  0  0  0
   -1.1582    1.8438    0.4410 O   0  0  0  0  0  0  0  0  0  0  0  0
    0.7203    1.5683    1.6472 N   0  0  0  0  0  0  0  0  0  0  0  0
    1.5210    0.9664    1.8100 H   0  0  0  0  0  0  0  0  0  0  0  0
    0.6747    2.8558    2.3368 C   0  0  0  0  0  0  0  0  0  0  0  0
   -0.3018    2.9877    2.8079 H   0  0  0  0  0  0  0  0  0  0  0  0
    1.4516    2.8997    3.1011 H   0  0  0  0  0  0  0  0  0  0  0  0
    0.8279    3.6639    1.6193 H   0  0  0  0  0  0  0  0  0  0  0  0
  5  6  2  0  0  0  0
  5  7  1  0  0  0  0
  2  3  1  0  0  0  0
  2  4  1  0  0  0  0
  2  5  1  0  0  0  0
  1  2  1  0  0  0  0
 18 19  2  0  0  0  0
 18 20  1  0  0  0  0
 16 17  1  0  0  0  0
 14 15  2  0  0  0  0
 14 16  1  0  0  0  0
 11 12  1  0  0  0  0
 11 13  1  0  0  0  0
 11 14  1  0  0  0  0
  9 10  1  0  0  0  0
  9 11  1  0  0  0  0
  9 18  1  0  0  0  0
  7  8  1  0  0  0  0
  7  9  1  0  0  0  0
 22 23  1  0  0  0  0
 22 24  1  0  0  0  0
 22 25  1  0  0  0  0
 20 21  1  0  0  0  0
 20 22  1  0  0  0  0
M  END
$$$$
default_name
  -OEChem-02102213163D

 25 24  0     1  0  0  0  0  0999 V2000
   -2.7826   -3.8464    0.7821 H   0  0  0  0  0  0  0  0  0  0  0  0
   -2.8156   -2.8034    0.4711 C   0  0  0  0  0  0  0  0  0  0  0  0
   -3.4336   -2.2354    1.1641 H   0  0  0  0  0  0  0  0  0  0  0  0
   -3.2256   -2.7344   -0.5349 H   0  0  0  0  0  0  0  0  0  0  0  0
   -1.4126   -2.2444    0.4801 C   0  0  0  0  0  0  0  0  0  0  0  0
   -0.4686   -2.9534    0.8001 O   0  0  0  0  0  0  0  0  0  0  0  0
   -1.2736   -0.9704    0.1241 N   0  0  0  0  0  0  0  0  0  0  0  0
   -2.0996   -0.4354   -0.1019 H   0  0  0  0  0  0  0  0  0  0  0  0
   -0.0016   -0.2394    0.1271 C   0  0  1  0  0  0  0  0  0  0  0  0
    0.7164   -0.7963    0.7332 H   0  0  0  0  0  0  0  0  0  0  0  0
    0.5351   -0.1414   -1.3146 C   0  0  0  0  0  0  0  0  0  0  0  0
    1.1082    0.7797   -1.4267 H   0  0  0  0  0  0  0  0  0  0  0  0
    1.2042   -0.9789   -1.5151 H   0  0  0  0  0  0  0  0  0  0  0  0
   -0.5652   -0.1139   -2.3713 C   0  0  0  0  0  0  0  0  0  0  0  0
   -0.4972    0.4485   -3.4563 O   0  0  0  0  0  0  0  0  0  0  0  0
   -1.6898   -0.7714   -2.0325 O   0  0  0  0  0  0  0  0  0  0  0  0
   -2.2779   -0.6902   -2.7841 H   0  0  0  0  0  0  0  0  0  0  0  0
   -0.1923    1.1526    0.7617 C   0  0  0  0  0  0  0  0  0  0  0  0
   -1.1582    1.8438    0.4410 O   0  0  0  0  0  0  0  0  0  0  0  0
    0.7203    1.5683    1.6472 N   0  0  0  0  0  0  0  0  0  0  0  0
    1.5210    0.9664    1.8100 H   0  0  0  0  0  0  0  0  0  0  0  0
    0.6747    2.8558    2.3368 C   0  0  0  0  0  0  0  0  0  0  0  0
   -0.3018    2.9877    2.8079 H   0  0  0  0  0  0  0  0  0  0  0  0
    1.4516    2.8997    3.1011 H   0  0  0  0  0  0  0  0  0  0  0  0
    0.8279    3.6639    1.6193 H   0  0  0  0  0  0  0  0  0  0  0  0
  5  6  2  0  0  0  0
  5  7  1  0  0  0  0
  2  3  1  0  0  0  0
  2  4  1  0  0  0  0
  2  5  1  0  0  0  0
  1  2  1  0  0  0  0
 18 19  2  0  0  0  0
 18 20  1  0  0  0  0
 16 17  1  0  0  0  0
 14 15  2  0  0  0  0
 14 16  1  0  0  0  0
 11 12  1  0  0  0  0
 11 13  1  0  0  0  0
 11 14  1  0  0  0  0
  9 10  1  0  0  0  0
  9 11  1  0  0  0  0
  9 18  1  0  0  0  0
  7  8  1  0  0  0  0
  7  9  1  0  0  0  0
 22 23  1  0  0  0  0
 22 24  1  0  0  0  0
 22 25  1  0  0  0  0
 20 21  1  0  0  0  0
 20 22  1  0  0  0  0
M  END
$$$$
default_name
  -OEChem-02102213163D

 25 24  0     1  0  0  0  0  0999 V2000
   -2.7826   -3.8464    0.7821 H   0  0  0  0  0  0  0  0  0  0  0  0
   -2.8156   -2.8034    0.4711 C   0  0  0  0  0  0  0  0  0  0  0  0
   -3.4336   -2.2354    1.1641 H   0  0  0  0  0  0  0  0  0  0  0  0
   -3.2256   -2.7344   -0.5349 H   0  0  0  0  0  0  0  0  0  0  0  0
   -1.4126   -2.2444    0.4801 C   0  0  0  0  0  0  0  0  0  0  0  0
   -0.4686   -2.9534    0.8001 O   0  0  0  0  0  0  0  0  0  0  0  0
   -1.2736   -0.9704    0.1241 N   0  0  0  0  0  0  0  0  0  0  0  0
   -2.0996   -0.4354   -0.1019 H   0  0  0  0  0  0  0  0  0  0  0  0
   -0.0016   -0.2394    0.1271 C   0  0  1  0  0  0  0  0  0  0  0  0
    0.7164   -0.7963    0.7332 H   0  0  0  0  0  0  0  0  0  0  0  0
    0.5351   -0.1414   -1.3146 C   0  0  0  0  0  0  0  0  0  0  0  0
    1.1082    0.7797   -1.4267 H   0  0  0  0  0  0  0  0  0  0  0  0
    1.2042   -0.9789   -1.5151 H   0  0  0  0  0  0  0  0  0  0  0  0
   -0.5652   -0.1139   -2.3713 C   0  0  0  0  0  0  0  0  0  0  0  0
   -0.4212    0.2151   -3.5414 O   0  0  0  0  0  0  0  0  0  0  0  0
   -1.7817   -0.4839   -1.9294 O   0  0  0  0  0  0  0  0  0  0  0  0
   -2.3619   -0.4397   -2.6901 H   0  0  0  0  0  0  0  0  0  0  0  0
   -0.1923    1.1526    0.7617 C   0  0  0  0  0  0  0  0  0  0  0  0
   -1.1582    1.8438    0.4410 O   0  0  0  0  0  0  0  0  0  0  0  0
    0.7203    1.5683    1.6472 N   0  0  0  0  0  0  0  0  0  0  0  0
    1.5210    0.9664    1.8100 H   0  0  0  0  0  0  0  0  0  0  0  0
    0.6747    2.8558    2.3368 C   0  0  0  0  0  0  0  0  0  0  0  0
   -0.3018    2.9877    2.8079 H   0  0  0  0  0  0  0  0  0  0  0  0
    1.4516    2.8997    3.1011 H   0  0  0  0  0  0  0  0  0  0  0  0
    0.8279    3.6639    1.6193 H   0  0  0  0  0  0  0  0  0  0  0  0
  5  6  2  0  0  0  0
  5  7  1  0  0  0  0
  2  3  1  0  0  0  0
  2  4  1  0  0  0  0
  2  5  1  0  0  0  0
  1  2  1  0  0  0  0
 18 19  2  0  0  0  0
 18 20  1  0  0  0  0
 16 17  1  0  0  0  0
 14 15  2  0  0  0  0
 14 16  1  0  0  0  0
 11 12  1  0  0  0  0
 11 13  1  0  0  0  0
 11 14  1  0  0  0  0
  9 10  1  0  0  0  0
  9 11  1  0  0  0  0
  9 18  1  0  0  0  0
  7  8  1  0  0  0  0
  7  9  1  0  0  0  0
 22 23  1  0  0  0  0
 22 24  1  0  0  0  0
 22 25  1  0  0  0  0
 20 21  1  0  0  0  0
 20 22  1  0  0  0  0
M  END
$$$$
default_name
  -OEChem-02102213163D

 25 24  0     1  0  0  0  0  0999 V2000
   -2.7826   -3.8464    0.7821 H   0  0  0  0  0  0  0  0  0  0  0  0
   -2.8156   -2.8034    0.4711 C   0  0  0  0  0  0  0  0  0  0  0  0
   -3.4336   -2.2354    1.1641 H   0  0  0  0  0  0  0  0  0  0  0  0
   -3.2256   -2.7344   -0.5349 H   0  0  0  0  0  0  0  0  0  0  0  0
   -1.4126   -2.2444    0.4801 C   0  0  0  0  0  0  0  0  0  0  0  0
   -0.4686   -2.9534    0.8001 O   0  0  0  0  0  0  0  0  0  0  0  0
   -1.2736   -0.9704    0.1241 N   0  0  0  0  0  0  0  0  0  0  0  0
   -2.0996   -0.4354   -0.1019 H   0  0  0  0  0  0  0  0  0  0  0  0
   -0.0016   -0.2394    0.1271 C   0  0  1  0  0  0  0  0  0  0  0  0
    0.7164   -0.7963    0.7332 H   0  0  0  0  0  0  0  0  0  0  0  0
    0.5351   -0.1414   -1.3146 C   0  0  0  0  0  0  0  0  0  0  0  0
    1.3141    0.6205   -1.3609 H   0  0  0  0  0  0  0  0  0  0  0  0
    0.9798   -1.0935   -1.6064 H   0  0  0  0  0  0  0  0  0  0  0  0
   -0.5312    0.2480   -2.3340 C   0  0  0  0  0  0  0  0  0  0  0  0
   -0.3499    0.3887   -3.5364 O   0  0  0  0  0  0  0  0  0  0  0  0
   -1.7579    0.4509   -1.8183 O   0  0  0  0  0  0  0  0  0  0  0  0
   -2.3227    0.6660   -2.5613 H   0  0  0  0  0  0  0  0  0  0  0  0
   -0.1923    1.1526    0.7617 C   0  0  0  0  0  0  0  0  0  0  0  0
   -1.1582    1.8438    0.4410 O   0  0  0  0  0  0  0  0  0  0  0  0
    0.7203    1.5683    1.6472 N   0  0  0  0  0  0  0  0  0  0  0  0
    1.5210    0.9664    1.8100 H   0  0  0  0  0  0  0  0  0  0  0  0
    0.6747    2.8558    2.3368 C   0  0  0  0  0  0  0  0  0  0  0  0
   -0.3018    2.9877    2.8079 H   0  0  0  0  0  0  0  0  0  0  0  0
    1.4516    2.8997    3.1011 H   0  0  0  0  0  0  0  0  0  0  0  0
    0.8279    3.6639    1.6193 H   0  0  0  0  0  0  0  0  0  0  0  0
  5  6  2  0  0  0  0
  5  7  1  0  0  0  0
  2  3  1  0  0  0  0
  2  4  1  0  0  0  0
  2  5  1  0  0  0  0
  1  2  1  0  0  0  0
 18 19  2  0  0  0  0
 18 20  1  0  0  0  0
 16 17  1  0  0  0  0
 14 15  2  0  0  0  0
 14 16  1  0  0  0  0
 11 12  1  0  0  0  0
 11 13  1  0  0  0  0
 11 14  1  0  0  0  0
  9 10  1  0  0  0  0
  9 11  1  0  0  0  0
  9 18  1  0  0  0  0
  7  8  1  0  0  0  0
  7  9  1  0  0  0  0
 22 23  1  0  0  0  0
 22 24  1  0  0  0  0
 22 25  1  0  0  0  0
 20 21  1  0  0  0  0
 20 22  1  0  0  0  0
M  END
$$$$
default_name
  -OEChem-02102213163D

 25 24  0     1  0  0  0  0  0999 V2000
   -2.7826   -3.8464    0.7821 H   0  0  0  0  0  0  0  0  0  0  0  0
   -2.8156   -2.8034    0.4711 C   0  0  0  0  0  0  0  0  0  0  0  0
   -3.4336   -2.2354    1.1641 H   0  0  0  0  0  0  0  0  0  0  0  0
   -3.2256   -2.7344   -0.5349 H   0  0  0  0  0  0  0  0  0  0  0  0
   -1.4126   -2.2444    0.4801 C   0  0  0  0  0  0  0  0  0  0  0  0
   -0.4686   -2.9534    0.8001 O   0  0  0  0  0  0  0  0  0  0  0  0
   -1.2736   -0.9704    0.1241 N   0  0  0  0  0  0  0  0  0  0  0  0
   -2.0996   -0.4354   -0.1019 H   0  0  0  0  0  0  0  0  0  0  0  0
   -0.0016   -0.2394    0.1271 C   0  0  1  0  0  0  0  0  0  0  0  0
    0.7164   -0.7963    0.7332 H   0  0  0  0  0  0  0  0  0  0  0  0
    0.5351   -0.1414   -1.3146 C   0  0  0  0  0  0  0  0  0  0  0  0
    1.3141    0.6205   -1.3609 H   0  0  0  0  0  0  0  0  0  0  0  0
    0.9798   -1.0935   -1.6064 H   0  0  0  0  0  0  0  0  0  0  0  0
   -0.5312    0.2480   -2.3340 C   0  0  0  0  0  0  0  0  0  0  0  0
   -0.4282    0.1413   -3.5490 O   0  0  0  0  0  0  0  0  0  0  0  0
   -1.6604    0.7543   -1.8044 O   0  0  0  0  0  0  0  0  0  0  0  0
   -2.2404    0.9336   -2.5452 H   0  0  0  0  0  0  0  0  0  0  0  0
   -0.1923    1.1526    0.7617 C   0  0  0  0  0  0  0  0  0  0  0  0
   -1.1582    1.8438    0.4410 O   0  0  0  0  0  0  0  0  0  0  0  0
    0.7203    1.5683    1.6472 N   0  0  0  0  0  0  0  0  0  0  0  0
    1.5210    0.9664    1.8100 H   0  0  0  0  0  0  0  0  0  0  0  0
    0.6747    2.8558    2.3368 C   0  0  0  0  0  0  0  0  0  0  0  0
   -0.3018    2.9877    2.8079 H   0  0  0  0  0  0  0  0  0  0  0  0
    1.4516    2.8997    3.1011 H   0  0  0  0  0  0  0  0  0  0  0  0
    0.8279    3.6639    1.6193 H   0  0  0  0  0  0  0  0  0  0  0  0
  5  6  2  0  0  0  0
  5  7  1  0  0  0  0
  2  3  1  0  0  0  0
  2  4  1  0  0  0  0
  2  5  1  0  0  0  0
  1  2  1  0  0  0  0
 18 19  2  0  0  0  0
 18 20  1  0  0  0  0
 16 17  1  0  0  0  0
 14 15  2  0  0  0  0
 14 16  1  0  0  0  0
 11 12  1  0  0  0  0
 11 13  1  0  0  0  0
 11 14  1  0  0  0  0
  9 10  1  0  0  0  0
  9 11  1  0  0  0  0
  9 18  1  0  0  0  0
  7  8  1  0  0  0  0
  7  9  1  0  0  0  0
 22 23  1  0  0  0  0
 22 24  1  0  0  0  0
 22 25  1  0  0  0  0
 20 21  1  0  0  0  0
 20 22  1  0  0  0  0
M  END
$$$$
default_name
  -OEChem-02102213163D

 25 24  0     1  0  0  0  0  0999 V2000
   -2.7826   -3.8464    0.7821 H   0  0  0  0  0  0  0  0  0  0  0  0
   -2.8156   -2.8034    0.4711 C   0  0  0  0  0  0  0  0  0  0  0  0
   -3.4336   -2.2354    1.1641 H   0  0  0  0  0  0  0  0  0  0  0  0
   -3.2256   -2.7344   -0.5349 H   0  0  0  0  0  0  0  0  0  0  0  0
   -1.4126   -2.2444    0.4801 C   0  0  0  0  0  0  0  0  0  0  0  0
   -0.4686   -2.9534    0.8001 O   0  0  0  0  0  0  0  0  0  0  0  0
   -1.2736   -0.9704    0.1241 N   0  0  0  0  0  0  0  0  0  0  0  0
   -2.0996   -0.4354   -0.1019 H   0  0  0  0  0  0  0  0  0  0  0  0
   -0.0016   -0.2394    0.1271 C   0  0  1  0  0  0  0  0  0  0  0  0
    0.7164   -0.7963    0.7332 H   0  0  0  0  0  0  0  0  0  0  0  0
    0.5351   -0.1414   -1.3146 C   0  0  0  0  0  0  0  0  0  0  0  0
    1.3141    0.6205   -1.3609 H   0  0  0  0  0  0  0  0  0  0  0  0
    0.9798   -1.0935   -1.6064 H   0  0  0  0  0  0  0  0  0  0  0  0
   -0.5312    0.2480   -2.3340 C   0  0  0  0  0  0  0  0  0  0  0  0
   -0.5474   -0.0865   -3.5114 O   0  0  0  0  0  0  0  0  0  0  0  0
   -1.5129    1.0330   -1.8523 O   0  0  0  0  0  0  0  0  0  0  0  0
   -2.1135    1.1808   -2.5835 H   0  0  0  0  0  0  0  0  0  0  0  0
   -0.1923    1.1526    0.7617 C   0  0  0  0  0  0  0  0  0  0  0  0
   -1.1582    1.8438    0.4410 O   0  0  0  0  0  0  0  0  0  0  0  0
    0.7203    1.5683    1.6472 N   0  0  0  0  0  0  0  0  0  0  0  0
    1.5210    0.9664    1.8100 H   0  0  0  0  0  0  0  0  0  0  0  0
    0.6747    2.8558    2.3368 C   0  0  0  0  0  0  0  0  0  0  0  0
   -0.3018    2.9877    2.8079 H   0  0  0  0  0  0  0  0  0  0  0  0
    1.4516    2.8997    3.1011 H   0  0  0  0  0  0  0  0  0  0  0  0
    0.8279    3.6639    1.6193 H   0  0  0  0  0  0  0  0  0  0  0  0
  5  6  2  0  0  0  0
  5  7  1  0  0  0  0
  2  3  1  0  0  0  0
  2  4  1  0  0  0  0
  2  5  1  0  0  0  0
  1  2  1  0  0  0  0
 18 19  2  0  0  0  0
 18 20  1  0  0  0  0
 16 17  1  0  0  0  0
 14 15  2  0  0  0  0
 14 16  1  0  0  0  0
 11 12  1  0  0  0  0
 11 13  1  0  0  0  0
 11 14  1  0  0  0  0
  9 10  1  0  0  0  0
  9 11  1  0  0  0  0
  9 18  1  0  0  0  0
  7  8  1  0  0  0  0
  7  9  1  0  0  0  0
 22 23  1  0  0  0  0
 22 24  1  0  0  0  0
 22 25  1  0  0  0  0
 20 21  1  0  0  0  0
 20 22  1  0  0  0  0
M  END
$$$$
default_name
  -OEChem-02102213163D

 25 24  0     1  0  0  0  0  0999 V2000
   -2.7826   -3.8464    0.7821 H   0  0  0  0  0  0  0  0  0  0  0  0
   -2.8156   -2.8034    0.4711 C   0  0  0  0  0  0  0  0  0  0  0  0
   -3.4336   -2.2354    1.1641 H   0  0  0  0  0  0  0  0  0  0  0  0
   -3.2256   -2.7344   -0.5349 H   0  0  0  0  0  0  0  0  0  0  0  0
   -1.4126   -2.2444    0.4801 C   0  0  0  0  0  0  0  0  0  0  0  0
   -0.4686   -2.9534    0.8001 O   0  0  0  0  0  0  0  0  0  0  0  0
   -1.2736   -0.9704    0.1241 N   0  0  0  0  0  0  0  0  0  0  0  0
   -2.0996   -0.4354   -0.1019 H   0  0  0  0  0  0  0  0  0  0  0  0
   -0.0016   -0.2394    0.1271 C   0  0  1  0  0  0  0  0  0  0  0  0
    0.7164   -0.7963    0.7332 H   0  0  0  0  0  0  0  0  0  0  0  0
    0.5351   -0.1414   -1.3146 C   0  0  0  0  0  0  0  0  0  0  0  0
    1.3141    0.6205   -1.3609 H   0  0  0  0  0  0  0  0  0  0  0  0
    0.9798   -1.0935   -1.6064 H   0  0  0  0  0  0  0  0  0  0  0  0
   -0.5312    0.2480   -2.3340 C   0  0  0  0  0  0  0  0  0  0  0  0
   -0.6994   -0.2790   -3.4259 O   0  0  0  0  0  0  0  0  0  0  0  0
   -1.3253    1.2681   -1.9587 O   0  0  0  0  0  0  0  0  0  0  0  0
   -1.9507    1.3906   -2.6735 H   0  0  0  0  0  0  0  0  0  0  0  0
   -0.1923    1.1526    0.7617 C   0  0  0  0  0  0  0  0  0  0  0  0
   -1.1582    1.8438    0.4410 O   0  0  0  0  0  0  0  0  0  0  0  0
    0.7203    1.5683    1.6472 N   0  0  0  0  0  0  0  0  0  0  0  0
    1.5210    0.9664    1.8100 H   0  0  0  0  0  0  0  0  0  0  0  0
    0.6747    2.8558    2.3368 C   0  0  0  0  0  0  0  0  0  0  0  0
   -0.3018    2.9877    2.8079 H   0  0  0  0  0  0  0  0  0  0  0  0
    1.4516    2.8997    3.1011 H   0  0  0  0  0  0  0  0  0  0  0  0
    0.8279    3.6639    1.6193 H   0  0  0  0  0  0  0  0  0  0  0  0
  5  6  2  0  0  0  0
  5  7  1  0  0  0  0
  2  3  1  0  0  0  0
  2  4  1  0  0  0  0
  2  5  1  0  0  0  0
  1  2  1  0  0  0  0
 18 19  2  0  0  0  0
 18 20  1  0  0  0  0
 16 17  1  0  0  0  0
 14 15  2  0  0  0  0
 14 16  1  0  0  0  0
 11 12  1  0  0  0  0
 11 13  1  0  0  0  0
 11 14  1  0  0  0  0
  9 10  1  0  0  0  0
  9 11  1  0  0  0  0
  9 18  1  0  0  0  0
  7  8  1  0  0  0  0
  7  9  1  0  0  0  0
 22 23  1  0  0  0  0
 22 24  1  0  0  0  0
 22 25  1  0  0  0  0
 20 21  1  0  0  0  0
 20 22  1  0  0  0  0
M  END
$$$$
default_name
  -OEChem-02102213163D

 25 24  0     1  0  0  0  0  0999 V2000
   -2.7826   -3.8464    0.7821 H   0  0  0  0  0  0  0  0  0  0  0  0
   -2.8156   -2.8034    0.4711 C   0  0  0  0  0  0  0  0  0  0  0  0
   -3.4336   -2.2354    1.1641 H   0  0  0  0  0  0  0  0  0  0  0  0
   -3.2256   -2.7344   -0.5349 H   0  0  0  0  0  0  0  0  0  0  0  0
   -1.4126   -2.2444    0.4801 C   0  0  0  0  0  0  0  0  0  0  0  0
   -0.4686   -2.9534    0.8001 O   0  0  0  0  0  0  0  0  0  0  0  0
   -1.2736   -0.9704    0.1241 N   0  0  0  0  0  0  0  0  0  0  0  0
   -2.0996   -0.4354   -0.1019 H   0  0  0  0  0  0  0  0  0  0  0  0
   -0.0016   -0.2394    0.1271 C   0  0  1  0  0  0  0  0  0  0  0  0
    0.7164   -0.7963    0.7332 H   0  0  0  0  0  0  0  0  0  0  0  0
    0.5351   -0.1414   -1.3146 C   0  0  0  0  0  0  0  0  0  0  0  0
    1.3141    0.6205   -1.3609 H   0  0  0  0  0  0  0  0  0  0  0  0
    0.9798   -1.0935   -1.6064 H   0  0  0  0  0  0  0  0  0  0  0  0
   -0.5312    0.2480   -2.3340 C   0  0  0  0  0  0  0  0  0  0  0  0
   -0.8739   -0.4233   -3.2985 O   0  0  0  0  0  0  0  0  0  0  0  0
   -1.1105    1.4435   -2.1163 O   0  0  0  0  0  0  0  0  0  0  0  0
   -1.7632    1.5489   -2.8092 H   0  0  0  0  0  0  0  0  0  0  0  0
   -0.1923    1.1526    0.7617 C   0  0  0  0  0  0  0  0  0  0  0  0
   -1.1582    1.8438    0.4410 O   0  0  0  0  0  0  0  0  0  0  0  0
    0.7203    1.5683    1.6472 N   0  0  0  0  0  0  0  0  0  0  0  0
    1.5210    0.9664    1.8100 H   0  0  0  0  0  0  0  0  0  0  0  0
    0.6747    2.8558    2.3368 C   0  0  0  0  0  0  0  0  0  0  0  0
   -0.3018    2.9877    2.8079 H   0  0  0  0  0  0  0  0  0  0  0  0
    1.4516    2.8997    3.1011 H   0  0  0  0  0  0  0  0  0  0  0  0
    0.8279    3.6639    1.6193 H   0  0  0  0  0  0  0  0  0  0  0  0
  5  6  2  0  0  0  0
  5  7  1  0  0  0  0
  2  3  1  0  0  0  0
  2  4  1  0  0  0  0
  2  5  1  0  0  0  0
  1  2  1  0  0  0  0
 18 19  2  0  0  0  0
 18 20  1  0  0  0  0
 16 17  1  0  0  0  0
 14 15  2  0  0  0  0
 14 16  1  0  0  0  0
 11 12  1  0  0  0  0
 11 13  1  0  0  0  0
 11 14  1  0  0  0  0
  9 10  1  0  0  0  0
  9 11  1  0  0  0  0
  9 18  1  0  0  0  0
  7  8  1  0  0  0  0
  7  9  1  0  0  0  0
 22 23  1  0  0  0  0
 22 24  1  0  0  0  0
 22 25  1  0  0  0  0
 20 21  1  0  0  0  0
 20 22  1  0  0  0  0
M  END
$$$$
default_name
  -OEChem-02102213163D

 25 24  0     1  0  0  0  0  0999 V2000
   -2.7826   -3.8464    0.7821 H   0  0  0  0  0  0  0  0  0  0  0  0
   -2.8156   -2.8034    0.4711 C   0  0  0  0  0  0  0  0  0  0  0  0
   -3.4336   -2.2354    1.1641 H   0  0  0  0  0  0  0  0  0  0  0  0
   -3.2256   -2.7344   -0.5349 H   0  0  0  0  0  0  0  0  0  0  0  0
   -1.4126   -2.2444    0.4801 C   0  0  0  0  0  0  0  0  0  0  0  0
   -0.4686   -2.9534    0.8001 O   0  0  0  0  0  0  0  0  0  0  0  0
   -1.2736   -0.9704    0.1241 N   0  0  0  0  0  0  0  0  0  0  0  0
   -2.0996   -0.4354   -0.1019 H   0  0  0  0  0  0  0  0  0  0  0  0
   -0.0016   -0.2394    0.1271 C   0  0  1  0  0  0  0  0  0  0  0  0
    0.7164   -0.7963    0.7332 H   0  0  0  0  0  0  0  0  0  0  0  0
    0.5351   -0.1414   -1.3146 C   0  0  0  0  0  0  0  0  0  0  0  0
    1.3141    0.6205   -1.3609 H   0  0  0  0  0  0  0  0  0  0  0  0
    0.9798   -1.0935   -1.6064 H   0  0  0  0  0  0  0  0  0  0  0  0
   -0.5312    0.2480   -2.3340 C   0  0  0  0  0  0  0  0  0  0  0  0
   -1.0590   -0.5094   -3.1378 O   0  0  0  0  0  0  0  0  0  0  0  0
   -0.8831    1.5472   -2.3146 O   0  0  0  0  0  0  0  0  0  0  0  0
   -1.5636    1.6448   -2.9813 H   0  0  0  0  0  0  0  0  0  0  0  0
   -0.1923    1.1526    0.7617 C   0  0  0  0  0  0  0  0  0  0  0  0
   -1.1582    1.8438    0.4410 O   0  0  0  0  0  0  0  0  0  0  0  0
    0.7203    1.5683    1.6472 N   0  0  0  0  0  0  0  0  0  0  0  0
    1.5210    0.9664    1.8100 H   0  0  0  0  0  0  0  0  0  0  0  0
    0.6747    2.8558    2.3368 C   0  0  0  0  0  0  0  0  0  0  0  0
   -0.3018    2.9877    2.8079 H   0  0  0  0  0  0  0  0  0  0  0  0
    1.4516    2.8997    3.1011 H   0  0  0  0  0  0  0  0  0  0  0  0
    0.8279    3.6639    1.6193 H   0  0  0  0  0  0  0  0  0  0  0  0
  5  6  2  0  0  0  0
  5  7  1  0  0  0  0
  2  3  1  0  0  0  0
  2  4  1  0  0  0  0
  2  5  1  0  0  0  0
  1  2  1  0  0  0  0
 18 19  2  0  0  0  0
 18 20  1  0  0  0  0
 16 17  1  0  0  0  0
 14 15  2  0  0  0  0
 14 16  1  0  0  0  0
 11 12  1  0  0  0  0
 11 13  1  0  0  0  0
 11 14  1  0  0  0  0
  9 10  1  0  0  0  0
  9 11  1  0  0  0  0
  9 18  1  0  0  0  0
  7  8  1  0  0  0  0
  7  9  1  0  0  0  0
 22 23  1  0  0  0  0
 22 24  1  0  0  0  0
 22 25  1  0  0  0  0
 20 21  1  0  0  0  0
 20 22  1  0  0  0  0
M  END
$$$$
default_name
  -OEChem-02102213163D

 25 24  0     1  0  0  0  0  0999 V2000
   -2.7826   -3.8464    0.7821 H   0  0  0  0  0  0  0  0  0  0  0  0
   -2.8156   -2.8034    0.4711 C   0  0  0  0  0  0  0  0  0  0  0  0
   -3.4336   -2.2354    1.1641 H   0  0  0  0  0  0  0  0  0  0  0  0
   -3.2256   -2.7344   -0.5349 H   0  0  0  0  0  0  0  0  0  0  0  0
   -1.4126   -2.2444    0.4801 C   0  0  0  0  0  0  0  0  0  0  0  0
   -0.4686   -2.9534    0.8001 O   0  0  0  0  0  0  0  0  0  0  0  0
   -1.2736   -0.9704    0.1241 N   0  0  0  0  0  0  0  0  0  0  0  0
   -2.0996   -0.4354   -0.1019 H   0  0  0  0  0  0  0  0  0  0  0  0
   -0.0016   -0.2394    0.1271 C   0  0  1  0  0  0  0  0  0  0  0  0
    0.7164   -0.7963    0.7332 H   0  0  0  0  0  0  0  0  0  0  0  0
    0.5351   -0.1414   -1.3146 C   0  0  0  0  0  0  0  0  0  0  0  0
    1.3141    0.6205   -1.3609 H   0  0  0  0  0  0  0  0  0  0  0  0
    0.9798   -1.0935   -1.6064 H   0  0  0  0  0  0  0  0  0  0  0  0
   -0.5312    0.2480   -2.3340 C   0  0  0  0  0  0  0  0  0  0  0  0
   -1.2421   -0.5315   -2.9547 O   0  0  0  0  0  0  0  0  0  0  0  0
   -0.6586    1.5722   -2.5398 O   0  0  0  0  0  0  0  0  0  0  0  0
   -1.3656    1.6718   -3.1781 H   0  0  0  0  0  0  0  0  0  0  0  0
   -0.1923    1.1526    0.7617 C   0  0  0  0  0  0  0  0  0  0  0  0
   -1.1582    1.8438    0.4410 O   0  0  0  0  0  0  0  0  0  0  0  0
    0.7203    1.5683    1.6472 N   0  0  0  0  0  0  0  0  0  0  0  0
    1.5210    0.9664    1.8100 H   0  0  0  0  0  0  0  0  0  0  0  0
    0.6747    2.8558    2.3368 C   0  0  0  0  0  0  0  0  0  0  0  0
   -0.3018    2.9877    2.8079 H   0  0  0  0  0  0  0  0  0  0  0  0
    1.4516    2.8997    3.1011 H   0  0  0  0  0  0  0  0  0  0  0  0
    0.8279    3.6639    1.6193 H   0  0  0  0  0  0  0  0  0  0  0  0
  5  6  2  0  0  0  0
  5  7  1  0  0  0  0
  2  3  1  0  0  0  0
  2  4  1  0  0  0  0
  2  5  1  0  0  0  0
  1  2  1  0  0  0  0
 18 19  2  0  0  0  0
 18 20  1  0  0  0  0
 16 17  1  0  0  0  0
 14 15  2  0  0  0  0
 14 16  1  0  0  0  0
 11 12  1  0  0  0  0
 11 13  1  0  0  0  0
 11 14  1  0  0  0  0
  9 10  1  0  0  0  0
  9 11  1  0  0  0  0
  9 18  1  0  0  0  0
  7  8  1  0  0  0  0
  7  9  1  0  0  0  0
 22 23  1  0  0  0  0
 22 24  1  0  0  0  0
 22 25  1  0  0  0  0
 20 21  1  0  0  0  0
 20 22  1  0  0  0  0
M  END
$$$$
default_name
  -OEChem-02102213163D

 25 24  0     1  0  0  0  0  0999 V2000
   -2.7826   -3.8464    0.7821 H   0  0  0  0  0  0  0  0  0  0  0  0
   -2.8156   -2.8034    0.4711 C   0  0  0  0  0  0  0  0  0  0  0  0
   -3.4336   -2.2354    1.1641 H   0  0  0  0  0  0  0  0  0  0  0  0
   -3.2256   -2.7344   -0.5349 H   0  0  0  0  0  0  0  0  0  0  0  0
   -1.4126   -2.2444    0.4801 C   0  0  0  0  0  0  0  0  0  0  0  0
   -0.4686   -2.9534    0.8001 O   0  0  0  0  0  0  0  0  0  0  0  0
   -1.2736   -0.9704    0.1241 N   0  0  0  0  0  0  0  0  0  0  0  0
   -2.0996   -0.4354   -0.1019 H   0  0  0  0  0  0  0  0  0  0  0  0
   -0.0016   -0.2394    0.1271 C   0  0  1  0  0  0  0  0  0  0  0  0
    0.7164   -0.7963    0.7332 H   0  0  0  0  0  0  0  0  0  0  0  0
    0.5351   -0.1414   -1.3146 C   0  0  0  0  0  0  0  0  0  0  0  0
    1.3141    0.6205   -1.3609 H   0  0  0  0  0  0  0  0  0  0  0  0
    0.9798   -1.0935   -1.6064 H   0  0  0  0  0  0  0  0  0  0  0  0
   -0.5312    0.2480   -2.3340 C   0  0  0  0  0  0  0  0  0  0  0  0
   -1.4107   -0.4881   -2.7618 O   0  0  0  0  0  0  0  0  0  0  0  0
   -0.4523    1.5168   -2.7768 O   0  0  0  0  0  0  0  0  0  0  0  0
   -1.1827    1.6280   -3.3861 H   0  0  0  0  0  0  0  0  0  0  0  0
   -0.1923    1.1526    0.7617 C   0  0  0  0  0  0  0  0  0  0  0  0
   -1.1582    1.8438    0.4410 O   0  0  0  0  0  0  0  0  0  0  0  0
    0.7203    1.5683    1.6472 N   0  0  0  0  0  0  0  0  0  0  0  0
    1.5210    0.9664    1.8100 H   0  0  0  0  0  0  0  0  0  0  0  0
    0.6747    2.8558    2.3368 C   0  0  0  0  0  0  0  0  0  0  0  0
   -0.3018    2.9877    2.8079 H   0  0  0  0  0  0  0  0  0  0  0  0
    1.4516    2.8997    3.1011 H   0  0  0  0  0  0  0  0  0  0  0  0
    0.8279    3.6639    1.6193 H   0  0  0  0  0  0  0  0  0  0  0  0
  5  6  2  0  0  0  0
  5  7  1  0  0  0  0
  2  3  1  0  0  0  0
  2  4  1  0  0  0  0
  2  5  1  0  0  0  0
  1  2  1  0  0  0  0
 18 19  2  0  0  0  0
 18 20  1  0  0  0  0
 16 17  1  0  0  0  0
 14 15  2  0  0  0  0
 14 16  1  0  0  0  0
 11 12  1  0  0  0  0
 11 13  1  0  0  0  0
 11 14  1  0  0  0  0
  9 10  1  0  0  0  0
  9 11  1  0  0  0  0
  9 18  1  0  0  0  0
  7  8  1  0  0  0  0
  7  9  1  0  0  0  0
 22 23  1  0  0  0  0
 22 24  1  0  0  0  0
 22 25  1  0  0  0  0
 20 21  1  0  0  0  0
 20 22  1  0  0  0  0
M  END
$$$$
default_name
  -OEChem-02102213163D

 25 24  0     1  0  0  0  0  0999 V2000
   -2.7826   -3.8464    0.7821 H   0  0  0  0  0  0  0  0  0  0  0  0
   -2.8156   -2.8034    0.4711 C   0  0  0  0  0  0  0  0  0  0  0  0
   -3.4336   -2.2354    1.1641 H   0  0  0  0  0  0  0  0  0  0  0  0
   -3.2256   -2.7344   -0.5349 H   0  0  0  0  0  0  0  0  0  0  0  0
   -1.4126   -2.2444    0.4801 C   0  0  0  0  0  0  0  0  0  0  0  0
   -0.4686   -2.9534    0.8001 O   0  0  0  0  0  0  0  0  0  0  0  0
   -1.2736   -0.9704    0.1241 N   0  0  0  0  0  0  0  0  0  0  0  0
   -2.0996   -0.4354   -0.1019 H   0  0  0  0  0  0  0  0  0  0  0  0
   -0.0016   -0.2394    0.1271 C   0  0  1  0  0  0  0  0  0  0  0  0
    0.7164   -0.7963    0.7332 H   0  0  0  0  0  0  0  0  0  0  0  0
    0.5351   -0.1414   -1.3146 C   0  0  0  0  0  0  0  0  0  0  0  0
    1.3141    0.6205   -1.3609 H   0  0  0  0  0  0  0  0  0  0  0  0
    0.9798   -1.0935   -1.6064 H   0  0  0  0  0  0  0  0  0  0  0  0
   -0.5312    0.2480   -2.3340 C   0  0  0  0  0  0  0  0  0  0  0  0
   -1.5532   -0.3821   -2.5722 O   0  0  0  0  0  0  0  0  0  0  0  0
   -0.2783    1.3847   -3.0093 O   0  0  0  0  0  0  0  0  0  0  0  0
   -1.0274    1.5165   -3.5913 H   0  0  0  0  0  0  0  0  0  0  0  0
   -0.1923    1.1526    0.7617 C   0  0  0  0  0  0  0  0  0  0  0  0
   -1.1582    1.8438    0.4410 O   0  0  0  0  0  0  0  0  0  0  0  0
    0.7203    1.5683    1.6472 N   0  0  0  0  0  0  0  0  0  0  0  0
    1.5210    0.9664    1.8100 H   0  0  0  0  0  0  0  0  0  0  0  0
    0.6747    2.8558    2.3368 C   0  0  0  0  0  0  0  0  0  0  0  0
   -0.3018    2.9877    2.8079 H   0  0  0  0  0  0  0  0  0  0  0  0
    1.4516    2.8997    3.1011 H   0  0  0  0  0  0  0  0  0  0  0  0
    0.8279    3.6639    1.6193 H   0  0  0  0  0  0  0  0  0  0  0  0
  5  6  2  0  0  0  0
  5  7  1  0  0  0  0
  2  3  1  0  0  0  0
  2  4  1  0  0  0  0
  2  5  1  0  0  0  0
  1  2  1  0  0  0  0
 18 19  2  0  0  0  0
 18 20  1  0  0  0  0
 16 17  1  0  0  0  0
 14 15  2  0  0  0  0
 14 16  1  0  0  0  0
 11 12  1  0  0  0  0
 11 13  1  0  0  0  0
 11 14  1  0  0  0  0
  9 10  1  0  0  0  0
  9 11  1  0  0  0  0
  9 18  1  0  0  0  0
  7  8  1  0  0  0  0
  7  9  1  0  0  0  0
 22 23  1  0  0  0  0
 22 24  1  0  0  0  0
 22 25  1  0  0  0  0
 20 21  1  0  0  0  0
 20 22  1  0  0  0  0
M  END
$$$$
default_name
  -OEChem-02102213163D

 25 24  0     1  0  0  0  0  0999 V2000
   -2.7826   -3.8464    0.7821 H   0  0  0  0  0  0  0  0  0  0  0  0
   -2.8156   -2.8034    0.4711 C   0  0  0  0  0  0  0  0  0  0  0  0
   -3.4336   -2.2354    1.1641 H   0  0  0  0  0  0  0  0  0  0  0  0
   -3.2256   -2.7344   -0.5349 H   0  0  0  0  0  0  0  0  0  0  0  0
   -1.4126   -2.2444    0.4801 C   0  0  0  0  0  0  0  0  0  0  0  0
   -0.4686   -2.9534    0.8001 O   0  0  0  0  0  0  0  0  0  0  0  0
   -1.2736   -0.9704    0.1241 N   0  0  0  0  0  0  0  0  0  0  0  0
   -2.0996   -0.4354   -0.1019 H   0  0  0  0  0  0  0  0  0  0  0  0
   -0.0016   -0.2394    0.1271 C   0  0  1  0  0  0  0  0  0  0  0  0
    0.7164   -0.7963    0.7332 H   0  0  0  0  0  0  0  0  0  0  0  0
    0.5351   -0.1414   -1.3146 C   0  0  0  0  0  0  0  0  0  0  0  0
    1.3141    0.6205   -1.3609 H   0  0  0  0  0  0  0  0  0  0  0  0
    0.9798   -1.0935   -1.6064 H   0  0  0  0  0  0  0  0  0  0  0  0
   -0.5312    0.2480   -2.3340 C   0  0  0  0  0  0  0  0  0  0  0  0
   -1.6601   -0.2208   -2.3988 O   0  0  0  0  0  0  0  0  0  0  0  0
   -0.1484    1.1850   -3.2214 O   0  0  0  0  0  0  0  0  0  0  0  0
   -0.9101    1.3448   -3.7795 H   0  0  0  0  0  0  0  0  0  0  0  0
   -0.1923    1.1526    0.7617 C   0  0  0  0  0  0  0  0  0  0  0  0
   -1.1582    1.8438    0.4410 O   0  0  0  0  0  0  0  0  0  0  0  0
    0.7203    1.5683    1.6472 N   0  0  0  0  0  0  0  0  0  0  0  0
    1.5210    0.9664    1.8100 H   0  0  0  0  0  0  0  0  0  0  0  0
    0.6747    2.8558    2.3368 C   0  0  0  0  0  0  0  0  0  0  0  0
   -0.3018    2.9877    2.8079 H   0  0  0  0  0  0  0  0  0  0  0  0
    1.4516    2.8997    3.1011 H   0  0  0  0  0  0  0  0  0  0  0  0
    0.8279    3.6639    1.6193 H   0  0  0  0  0  0  0  0  0  0  0  0
  5  6  2  0  0  0  0
  5  7  1  0  0  0  0
  2  3  1  0  0  0  0
  2  4  1  0  0  0  0
  2  5  1  0  0  0  0
  1  2  1  0  0  0  0
 18 19  2  0  0  0  0
 18 20  1  0  0  0  0
 16 17  1  0  0  0  0
 14 15  2  0  0  0  0
 14 16  1  0  0  0  0
 11 12  1  0  0  0  0
 11 13  1  0  0  0  0
 11 14  1  0  0  0  0
  9 10  1  0  0  0  0
  9 11  1  0  0  0  0
  9 18  1  0  0  0  0
  7  8  1  0  0  0  0
  7  9  1  0  0  0  0
 22 23  1  0  0  0  0
 22 24  1  0  0  0  0
 22 25  1  0  0  0  0
 20 21  1  0  0  0  0
 20 22  1  0  0  0  0
M  END
$$$$
default_name
  -OEChem-02102213163D

 25 24  0     1  0  0  0  0  0999 V2000
   -2.7826   -3.8464    0.7821 H   0  0  0  0  0  0  0  0  0  0  0  0
   -2.8156   -2.8034    0.4711 C   0  0  0  0  0  0  0  0  0  0  0  0
   -3.4336   -2.2354    1.1641 H   0  0  0  0  0  0  0  0  0  0  0  0
   -3.2256   -2.7344   -0.5349 H   0  0  0  0  0  0  0  0  0  0  0  0
   -1.4126   -2.2444    0.4801 C   0  0  0  0  0  0  0  0  0  0  0  0
   -0.4686   -2.9534    0.8001 O   0  0  0  0  0  0  0  0  0  0  0  0
   -1.2736   -0.9704    0.1241 N   0  0  0  0  0  0  0  0  0  0  0  0
   -2.0996   -0.4354   -0.1019 H   0  0  0  0  0  0  0  0  0  0  0  0
   -0.0016   -0.2394    0.1271 C   0  0  1  0  0  0  0  0  0  0  0  0
    0.7164   -0.7963    0.7332 H   0  0  0  0  0  0  0  0  0  0  0  0
    0.5351   -0.1414   -1.3146 C   0  0  0  0  0  0  0  0  0  0  0  0
    1.3141    0.6205   -1.3609 H   0  0  0  0  0  0  0  0  0  0  0  0
    0.9798   -1.0935   -1.6064 H   0  0  0  0  0  0  0  0  0  0  0  0
   -0.5312    0.2480   -2.3340 C   0  0  0  0  0  0  0  0  0  0  0  0
   -1.7239   -0.0151   -2.2535 O   0  0  0  0  0  0  0  0  0  0  0  0
   -0.0715    0.9313   -3.3988 O   0  0  0  0  0  0  0  0  0  0  0  0
   -0.8390    1.1246   -3.9380 H   0  0  0  0  0  0  0  0  0  0  0  0
   -0.1923    1.1526    0.7617 C   0  0  0  0  0  0  0  0  0  0  0  0
   -1.1582    1.8438    0.4410 O   0  0  0  0  0  0  0  0  0  0  0  0
    0.7203    1.5683    1.6472 N   0  0  0  0  0  0  0  0  0  0  0  0
    1.5210    0.9664    1.8100 H   0  0  0  0  0  0  0  0  0  0  0  0
    0.6747    2.8558    2.3368 C   0  0  0  0  0  0  0  0  0  0  0  0
   -0.3018    2.9877    2.8079 H   0  0  0  0  0  0  0  0  0  0  0  0
    1.4516    2.8997    3.1011 H   0  0  0  0  0  0  0  0  0  0  0  0
    0.8279    3.6639    1.6193 H   0  0  0  0  0  0  0  0  0  0  0  0
  5  6  2  0  0  0  0
  5  7  1  0  0  0  0
  2  3  1  0  0  0  0
  2  4  1  0  0  0  0
  2  5  1  0  0  0  0
  1  2  1  0  0  0  0
 18 19  2  0  0  0  0
 18 20  1  0  0  0  0
 16 17  1  0  0  0  0
 14 15  2  0  0  0  0
 14 16  1  0  0  0  0
 11 12  1  0  0  0  0
 11 13  1  0  0  0  0
 11 14  1  0  0  0  0
  9 10  1  0  0  0  0
  9 11  1  0  0  0  0
  9 18  1  0  0  0  0
  7  8  1  0  0  0  0
  7  9  1  0  0  0  0
 22 23  1  0  0  0  0
 22 24  1  0  0  0  0
 22 25  1  0  0  0  0
 20 21  1  0  0  0  0
 20 22  1  0  0  0  0
M  END
$$$$
default_name
  -OEChem-02102213163D

 25 24  0     1  0  0  0  0  0999 V2000
   -2.7826   -3.8464    0.7821 H   0  0  0  0  0  0  0  0  0  0  0  0
   -2.8156   -2.8034    0.4711 C   0  0  0  0  0  0  0  0  0  0  0  0
   -3.4336   -2.2354    1.1641 H   0  0  0  0  0  0  0  0  0  0  0  0
   -3.2256   -2.7344   -0.5349 H   0  0  0  0  0  0  0  0  0  0  0  0
   -1.4126   -2.2444    0.4801 C   0  0  0  0  0  0  0  0  0  0  0  0
   -0.4686   -2.9534    0.8001 O   0  0  0  0  0  0  0  0  0  0  0  0
   -1.2736   -0.9704    0.1241 N   0  0  0  0  0  0  0  0  0  0  0  0
   -2.0996   -0.4354   -0.1019 H   0  0  0  0  0  0  0  0  0  0  0  0
   -0.0016   -0.2394    0.1271 C   0  0  1  0  0  0  0  0  0  0  0  0
    0.7164   -0.7963    0.7332 H   0  0  0  0  0  0  0  0  0  0  0  0
    0.5351   -0.1414   -1.3146 C   0  0  0  0  0  0  0  0  0  0  0  0
    1.3141    0.6205   -1.3609 H   0  0  0  0  0  0  0  0  0  0  0  0
    0.9798   -1.0935   -1.6064 H   0  0  0  0  0  0  0  0  0  0  0  0
   -0.5312    0.2480   -2.3340 C   0  0  0  0  0  0  0  0  0  0  0  0
   -1.7404    0.2209   -2.1460 O   0  0  0  0  0  0  0  0  0  0  0  0
   -0.0528    0.6408   -3.5293 O   0  0  0  0  0  0  0  0  0  0  0  0
   -0.8189    0.8710   -4.0559 H   0  0  0  0  0  0  0  0  0  0  0  0
   -0.1923    1.1526    0.7617 C   0  0  0  0  0  0  0  0  0  0  0  0
   -1.1582    1.8438    0.4410 O   0  0  0  0  0  0  0  0  0  0  0  0
    0.7203    1.5683    1.6472 N   0  0  0  0  0  0  0  0  0  0  0  0
    1.5210    0.9664    1.8100 H   0  0  0  0  0  0  0  0  0  0  0  0
    0.6747    2.8558    2.3368 C   0  0  0  0  0  0  0  0  0  0  0  0
   -0.3018    2.9877    2.8079 H   0  0  0  0  0  0  0  0  0  0  0  0
    1.4516    2.8997    3.1011 H   0  0  0  0  0  0  0  0  0  0  0  0
    0.8279    3.6639    1.6193 H   0  0  0  0  0  0  0  0  0  0  0  0
  5  6  2  0  0  0  0
  5  7  1  0  0  0  0
  2  3  1  0  0  0  0
  2  4  1  0  0  0  0
  2  5  1  0  0  0  0
  1  2  1  0  0  0  0
 18 19  2  0  0  0  0
 18 20  1  0  0  0  0
 16 17  1  0  0  0  0
 14 15  2  0  0  0  0
 14 16  1  0  0  0  0
 11 12  1  0  0  0  0
 11 13  1  0  0  0  0
 11 14  1  0  0  0  0
  9 10  1  0  0  0  0
  9 11  1  0  0  0  0
  9 18  1  0  0  0  0
  7  8  1  0  0  0  0
  7  9  1  0  0  0  0
 22 23  1  0  0  0  0
 22 24  1  0  0  0  0
 22 25  1  0  0  0  0
 20 21  1  0  0  0  0
 20 22  1  0  0  0  0
M  END
$$$$
default_name
  -OEChem-02102213163D

 25 24  0     1  0  0  0  0  0999 V2000
   -2.7826   -3.8464    0.7821 H   0  0  0  0  0  0  0  0  0  0  0  0
   -2.8156   -2.8034    0.4711 C   0  0  0  0  0  0  0  0  0  0  0  0
   -3.4336   -2.2354    1.1641 H   0  0  0  0  0  0  0  0  0  0  0  0
   -3.2256   -2.7344   -0.5349 H   0  0  0  0  0  0  0  0  0  0  0  0
   -1.4126   -2.2444    0.4801 C   0  0  0  0  0  0  0  0  0  0  0  0
   -0.4686   -2.9534    0.8001 O   0  0  0  0  0  0  0  0  0  0  0  0
   -1.2736   -0.9704    0.1241 N   0  0  0  0  0  0  0  0  0  0  0  0
   -2.0996   -0.4354   -0.1019 H   0  0  0  0  0  0  0  0  0  0  0  0
   -0.0016   -0.2394    0.1271 C   0  0  1  0  0  0  0  0  0  0  0  0
    0.7164   -0.7963    0.7332 H   0  0  0  0  0  0  0  0  0  0  0  0
    0.5351   -0.1414   -1.3146 C   0  0  0  0  0  0  0  0  0  0  0  0
    1.3141    0.6205   -1.3609 H   0  0  0  0  0  0  0  0  0  0  0  0
    0.9798   -1.0935   -1.6064 H   0  0  0  0  0  0  0  0  0  0  0  0
   -0.5312    0.2480   -2.3340 C   0  0  0  0  0  0  0  0  0  0  0  0
   -1.7085    0.4711   -2.0838 O   0  0  0  0  0  0  0  0  0  0  0  0
   -0.0936    0.3334   -3.6041 O   0  0  0  0  0  0  0  0  0  0  0  0
   -0.8511    0.6012   -4.1253 H   0  0  0  0  0  0  0  0  0  0  0  0
   -0.1923    1.1526    0.7617 C   0  0  0  0  0  0  0  0  0  0  0  0
   -1.1582    1.8438    0.4410 O   0  0  0  0  0  0  0  0  0  0  0  0
    0.7203    1.5683    1.6472 N   0  0  0  0  0  0  0  0  0  0  0  0
    1.5210    0.9664    1.8100 H   0  0  0  0  0  0  0  0  0  0  0  0
    0.6747    2.8558    2.3368 C   0  0  0  0  0  0  0  0  0  0  0  0
   -0.3018    2.9877    2.8079 H   0  0  0  0  0  0  0  0  0  0  0  0
    1.4516    2.8997    3.1011 H   0  0  0  0  0  0  0  0  0  0  0  0
    0.8279    3.6639    1.6193 H   0  0  0  0  0  0  0  0  0  0  0  0
  5  6  2  0  0  0  0
  5  7  1  0  0  0  0
  2  3  1  0  0  0  0
  2  4  1  0  0  0  0
  2  5  1  0  0  0  0
  1  2  1  0  0  0  0
 18 19  2  0  0  0  0
 18 20  1  0  0  0  0
 16 17  1  0  0  0  0
 14 15  2  0  0  0  0
 14 16  1  0  0  0  0
 11 12  1  0  0  0  0
 11 13  1  0  0  0  0
 11 14  1  0  0  0  0
  9 10  1  0  0  0  0
  9 11  1  0  0  0  0
  9 18  1  0  0  0  0
  7  8  1  0  0  0  0
  7  9  1  0  0  0  0
 22 23  1  0  0  0  0
 22 24  1  0  0  0  0
 22 25  1  0  0  0  0
 20 21  1  0  0  0  0
 20 22  1  0  0  0  0
M  END
$$$$
default_name
  -OEChem-02102213163D

 25 24  0     1  0  0  0  0  0999 V2000
   -2.7826   -3.8464    0.7821 H   0  0  0  0  0  0  0  0  0  0  0  0
   -2.8156   -2.8034    0.4711 C   0  0  0  0  0  0  0  0  0  0  0  0
   -3.4336   -2.2354    1.1641 H   0  0  0  0  0  0  0  0  0  0  0  0
   -3.2256   -2.7344   -0.5349 H   0  0  0  0  0  0  0  0  0  0  0  0
   -1.4126   -2.2444    0.4801 C   0  0  0  0  0  0  0  0  0  0  0  0
   -0.4686   -2.9534    0.8001 O   0  0  0  0  0  0  0  0  0  0  0  0
   -1.2736   -0.9704    0.1241 N   0  0  0  0  0  0  0  0  0  0  0  0
   -2.0996   -0.4354   -0.1019 H   0  0  0  0  0  0  0  0  0  0  0  0
   -0.0016   -0.2394    0.1271 C   0  0  1  0  0  0  0  0  0  0  0  0
    0.7164   -0.7963    0.7332 H   0  0  0  0  0  0  0  0  0  0  0  0
    0.5351   -0.1414   -1.3146 C   0  0  0  0  0  0  0  0  0  0  0  0
    1.3141    0.6205   -1.3609 H   0  0  0  0  0  0  0  0  0  0  0  0
    0.9798   -1.0935   -1.6064 H   0  0  0  0  0  0  0  0  0  0  0  0
   -0.5312    0.2480   -2.3340 C   0  0  0  0  0  0  0  0  0  0  0  0
   -1.6302    0.7185   -2.0712 O   0  0  0  0  0  0  0  0  0  0  0  0
   -0.1911    0.0300   -3.6181 O   0  0  0  0  0  0  0  0  0  0  0  0
   -0.9334    0.3336   -4.1414 H   0  0  0  0  0  0  0  0  0  0  0  0
   -0.1923    1.1526    0.7617 C   0  0  0  0  0  0  0  0  0  0  0  0
   -1.1582    1.8438    0.4410 O   0  0  0  0  0  0  0  0  0  0  0  0
    0.7203    1.5683    1.6472 N   0  0  0  0  0  0  0  0  0  0  0  0
    1.5210    0.9664    1.8100 H   0  0  0  0  0  0  0  0  0  0  0  0
    0.6747    2.8558    2.3368 C   0  0  0  0  0  0  0  0  0  0  0  0
   -0.3018    2.9877    2.8079 H   0  0  0  0  0  0  0  0  0  0  0  0
    1.4516    2.8997    3.1011 H   0  0  0  0  0  0  0  0  0  0  0  0
    0.8279    3.6639    1.6193 H   0  0  0  0  0  0  0  0  0  0  0  0
  5  6  2  0  0  0  0
  5  7  1  0  0  0  0
  2  3  1  0  0  0  0
  2  4  1  0  0  0  0
  2  5  1  0  0  0  0
  1  2  1  0  0  0  0
 18 19  2  0  0  0  0
 18 20  1  0  0  0  0
 16 17  1  0  0  0  0
 14 15  2  0  0  0  0
 14 16  1  0  0  0  0
 11 12  1  0  0  0  0
 11 13  1  0  0  0  0
 11 14  1  0  0  0  0
  9 10  1  0  0  0  0
  9 11  1  0  0  0  0
  9 18  1  0  0  0  0
  7  8  1  0  0  0  0
  7  9  1  0  0  0  0
 22 23  1  0  0  0  0
 22 24  1  0  0  0  0
 22 25  1  0  0  0  0
 20 21  1  0  0  0  0
 20 22  1  0  0  0  0
M  END
$$$$
default_name
  -OEChem-02102213163D

 25 24  0     1  0  0  0  0  0999 V2000
   -2.7826   -3.8464    0.7821 H   0  0  0  0  0  0  0  0  0  0  0  0
   -2.8156   -2.8034    0.4711 C   0  0  0  0  0  0  0  0  0  0  0  0
   -3.4336   -2.2354    1.1641 H   0  0  0  0  0  0  0  0  0  0  0  0
   -3.2256   -2.7344   -0.5349 H   0  0  0  0  0  0  0  0  0  0  0  0
   -1.4126   -2.2444    0.4801 C   0  0  0  0  0  0  0  0  0  0  0  0
   -0.4686   -2.9534    0.8001 O   0  0  0  0  0  0  0  0  0  0  0  0
   -1.2736   -0.9704    0.1241 N   0  0  0  0  0  0  0  0  0  0  0  0
   -2.0996   -0.4354   -0.1019 H   0  0  0  0  0  0  0  0  0  0  0  0
   -0.0016   -0.2394    0.1271 C   0  0  1  0  0  0  0  0  0  0  0  0
    0.7164   -0.7963    0.7332 H   0  0  0  0  0  0  0  0  0  0  0  0
    0.5351   -0.1414   -1.3146 C   0  0  0  0  0  0  0  0  0  0  0  0
    1.3141    0.6205   -1.3609 H   0  0  0  0  0  0  0  0  0  0  0  0
    0.9798   -1.0935   -1.6064 H   0  0  0  0  0  0  0  0  0  0  0  0
   -0.5312    0.2480   -2.3340 C   0  0  0  0  0  0  0  0  0  0  0  0
   -1.5110    0.9463   -2.1088 O   0  0  0  0  0  0  0  0  0  0  0  0
   -0.3387   -0.2488   -3.5702 O   0  0  0  0  0  0  0  0  0  0  0  0
   -1.0603    0.0865   -4.1031 H   0  0  0  0  0  0  0  0  0  0  0  0
   -0.1923    1.1526    0.7617 C   0  0  0  0  0  0  0  0  0  0  0  0
   -1.1582    1.8438    0.4410 O   0  0  0  0  0  0  0  0  0  0  0  0
    0.7203    1.5683    1.6472 N   0  0  0  0  0  0  0  0  0  0  0  0
    1.5210    0.9664    1.8100 H   0  0  0  0  0  0  0  0  0  0  0  0
    0.6747    2.8558    2.3368 C   0  0  0  0  0  0  0  0  0  0  0  0
   -0.3018    2.9877    2.8079 H   0  0  0  0  0  0  0  0  0  0  0  0
    1.4516    2.8997    3.1011 H   0  0  0  0  0  0  0  0  0  0  0  0
    0.8279    3.6639    1.6193 H   0  0  0  0  0  0  0  0  0  0  0  0
  5  6  2  0  0  0  0
  5  7  1  0  0  0  0
  2  3  1  0  0  0  0
  2  4  1  0  0  0  0
  2  5  1  0  0  0  0
  1  2  1  0  0  0  0
 18 19  2  0  0  0  0
 18 20  1  0  0  0  0
 16 17  1  0  0  0  0
 14 15  2  0  0  0  0
 14 16  1  0  0  0  0
 11 12  1  0  0  0  0
 11 13  1  0  0  0  0
 11 14  1  0  0  0  0
  9 10  1  0  0  0  0
  9 11  1  0  0  0  0
  9 18  1  0  0  0  0
  7  8  1  0  0  0  0
  7  9  1  0  0  0  0
 22 23  1  0  0  0  0
 22 24  1  0  0  0  0
 22 25  1  0  0  0  0
 20 21  1  0  0  0  0
 20 22  1  0  0  0  0
M  END
$$$$
default_name
  -OEChem-02102213163D

 25 24  0     1  0  0  0  0  0999 V2000
   -2.7826   -3.8464    0.7821 H   0  0  0  0  0  0  0  0  0  0  0  0
   -2.8156   -2.8034    0.4711 C   0  0  0  0  0  0  0  0  0  0  0  0
   -3.4336   -2.2354    1.1641 H   0  0  0  0  0  0  0  0  0  0  0  0
   -3.2256   -2.7344   -0.5349 H   0  0  0  0  0  0  0  0  0  0  0  0
   -1.4126   -2.2444    0.4801 C   0  0  0  0  0  0  0  0  0  0  0  0
   -0.4686   -2.9534    0.8001 O   0  0  0  0  0  0  0  0  0  0  0  0
   -1.2736   -0.9704    0.1241 N   0  0  0  0  0  0  0  0  0  0  0  0
   -2.0996   -0.4354   -0.1019 H   0  0  0  0  0  0  0  0  0  0  0  0
   -0.0016   -0.2394    0.1271 C   0  0  1  0  0  0  0  0  0  0  0  0
    0.7164   -0.7963    0.7332 H   0  0  0  0  0  0  0  0  0  0  0  0
    0.5351   -0.1414   -1.3146 C   0  0  0  0  0  0  0  0  0  0  0  0
    1.3141    0.6205   -1.3609 H   0  0  0  0  0  0  0  0  0  0  0  0
    0.9798   -1.0935   -1.6064 H   0  0  0  0  0  0  0  0  0  0  0  0
   -0.5312    0.2480   -2.3340 C   0  0  0  0  0  0  0  0  0  0  0  0
   -1.3590    1.1389   -2.1943 O   0  0  0  0  0  0  0  0  0  0  0  0
   -0.5262   -0.4838   -3.4638 O   0  0  0  0  0  0  0  0  0  0  0  0
   -1.2231   -0.1234   -4.0131 H   0  0  0  0  0  0  0  0  0  0  0  0
   -0.1923    1.1526    0.7617 C   0  0  0  0  0  0  0  0  0  0  0  0
   -1.1582    1.8438    0.4410 O   0  0  0  0  0  0  0  0  0  0  0  0
    0.7203    1.5683    1.6472 N   0  0  0  0  0  0  0  0  0  0  0  0
    1.5210    0.9664    1.8100 H   0  0  0  0  0  0  0  0  0  0  0  0
    0.6747    2.8558    2.3368 C   0  0  0  0  0  0  0  0  0  0  0  0
   -0.3018    2.9877    2.8079 H   0  0  0  0  0  0  0  0  0  0  0  0
    1.4516    2.8997    3.1011 H   0  0  0  0  0  0  0  0  0  0  0  0
    0.8279    3.6639    1.6193 H   0  0  0  0  0  0  0  0  0  0  0  0
  5  6  2  0  0  0  0
  5  7  1  0  0  0  0
  2  3  1  0  0  0  0
  2  4  1  0  0  0  0
  2  5  1  0  0  0  0
  1  2  1  0  0  0  0
 18 19  2  0  0  0  0
 18 20  1  0  0  0  0
 16 17  1  0  0  0  0
 14 15  2  0  0  0  0
 14 16  1  0  0  0  0
 11 12  1  0  0  0  0
 11 13  1  0  0  0  0
 11 14  1  0  0  0  0
  9 10  1  0  0  0  0
  9 11  1  0  0  0  0
  9 18  1  0  0  0  0
  7  8  1  0  0  0  0
  7  9  1  0  0  0  0
 22 23  1  0  0  0  0
 22 24  1  0  0  0  0
 22 25  1  0  0  0  0
 20 21  1  0  0  0  0
 20 22  1  0  0  0  0
M  END
$$$$
default_name
  -OEChem-02102213163D

 25 24  0     1  0  0  0  0  0999 V2000
   -2.7826   -3.8464    0.7821 H   0  0  0  0  0  0  0  0  0  0  0  0
   -2.8156   -2.8034    0.4711 C   0  0  0  0  0  0  0  0  0  0  0  0
   -3.4336   -2.2354    1.1641 H   0  0  0  0  0  0  0  0  0  0  0  0
   -3.2256   -2.7344   -0.5349 H   0  0  0  0  0  0  0  0  0  0  0  0
   -1.4126   -2.2444    0.4801 C   0  0  0  0  0  0  0  0  0  0  0  0
   -0.4686   -2.9534    0.8001 O   0  0  0  0  0  0  0  0  0  0  0  0
   -1.2736   -0.9704    0.1241 N   0  0  0  0  0  0  0  0  0  0  0  0
   -2.0996   -0.4354   -0.1019 H   0  0  0  0  0  0  0  0  0  0  0  0
   -0.0016   -0.2394    0.1271 C   0  0  1  0  0  0  0  0  0  0  0  0
    0.7164   -0.7963    0.7332 H   0  0  0  0  0  0  0  0  0  0  0  0
    0.5351   -0.1414   -1.3146 C   0  0  0  0  0  0  0  0  0  0  0  0
    1.3141    0.6205   -1.3609 H   0  0  0  0  0  0  0  0  0  0  0  0
    0.9798   -1.0935   -1.6064 H   0  0  0  0  0  0  0  0  0  0  0  0
   -0.5312    0.2480   -2.3340 C   0  0  0  0  0  0  0  0  0  0  0  0
   -1.1844    1.2831   -2.3217 O   0  0  0  0  0  0  0  0  0  0  0  0
   -0.7410   -0.6592   -3.3061 O   0  0  0  0  0  0  0  0  0  0  0  0
   -1.4106   -0.2817   -3.8774 H   0  0  0  0  0  0  0  0  0  0  0  0
   -0.1923    1.1526    0.7617 C   0  0  0  0  0  0  0  0  0  0  0  0
   -1.1582    1.8438    0.4410 O   0  0  0  0  0  0  0  0  0  0  0  0
    0.7203    1.5683    1.6472 N   0  0  0  0  0  0  0  0  0  0  0  0
    1.5210    0.9664    1.8100 H   0  0  0  0  0  0  0  0  0  0  0  0
    0.6747    2.8558    2.3368 C   0  0  0  0  0  0  0  0  0  0  0  0
   -0.3018    2.9877    2.8079 H   0  0  0  0  0  0  0  0  0  0  0  0
    1.4516    2.8997    3.1011 H   0  0  0  0  0  0  0  0  0  0  0  0
    0.8279    3.6639    1.6193 H   0  0  0  0  0  0  0  0  0  0  0  0
  5  6  2  0  0  0  0
  5  7  1  0  0  0  0
  2  3  1  0  0  0  0
  2  4  1  0  0  0  0
  2  5  1  0  0  0  0
  1  2  1  0  0  0  0
 18 19  2  0  0  0  0
 18 20  1  0  0  0  0
 16 17  1  0  0  0  0
 14 15  2  0  0  0  0
 14 16  1  0  0  0  0
 11 12  1  0  0  0  0
 11 13  1  0  0  0  0
 11 14  1  0  0  0  0
  9 10  1  0  0  0  0
  9 11  1  0  0  0  0
  9 18  1  0  0  0  0
  7  8  1  0  0  0  0
  7  9  1  0  0  0  0
 22 23  1  0  0  0  0
 22 24  1  0  0  0  0
 22 25  1  0  0  0  0
 20 21  1  0  0  0  0
 20 22  1  0  0  0  0
M  END
$$$$
default_name
  -OEChem-02102213163D

 25 24  0     1  0  0  0  0  0999 V2000
   -2.7826   -3.8464    0.7821 H   0  0  0  0  0  0  0  0  0  0  0  0
   -2.8156   -2.8034    0.4711 C   0  0  0  0  0  0  0  0  0  0  0  0
   -3.4336   -2.2354    1.1641 H   0  0  0  0  0  0  0  0  0  0  0  0
   -3.2256   -2.7344   -0.5349 H   0  0  0  0  0  0  0  0  0  0  0  0
   -1.4126   -2.2444    0.4801 C   0  0  0  0  0  0  0  0  0  0  0  0
   -0.4686   -2.9534    0.8001 O   0  0  0  0  0  0  0  0  0  0  0  0
   -1.2736   -0.9704    0.1241 N   0  0  0  0  0  0  0  0  0  0  0  0
   -2.0996   -0.4354   -0.1019 H   0  0  0  0  0  0  0  0  0  0  0  0
   -0.0016   -0.2394    0.1271 C   0  0  1  0  0  0  0  0  0  0  0  0
    0.7164   -0.7963    0.7332 H   0  0  0  0  0  0  0  0  0  0  0  0
    0.5351   -0.1414   -1.3146 C   0  0  0  0  0  0  0  0  0  0  0  0
    1.3141    0.6205   -1.3609 H   0  0  0  0  0  0  0  0  0  0  0  0
    0.9798   -1.0935   -1.6064 H   0  0  0  0  0  0  0  0  0  0  0  0
   -0.5312    0.2480   -2.3340 C   0  0  0  0  0  0  0  0  0  0  0  0
   -0.9993    1.3692   -2.4825 O   0  0  0  0  0  0  0  0  0  0  0  0
   -0.9684   -0.7629   -3.1079 O   0  0  0  0  0  0  0  0  0  0  0  0
   -1.6102   -0.3776   -3.7052 H   0  0  0  0  0  0  0  0  0  0  0  0
   -0.1923    1.1526    0.7617 C   0  0  0  0  0  0  0  0  0  0  0  0
   -1.1582    1.8438    0.4410 O   0  0  0  0  0  0  0  0  0  0  0  0
    0.7203    1.5683    1.6472 N   0  0  0  0  0  0  0  0  0  0  0  0
    1.5210    0.9664    1.8100 H   0  0  0  0  0  0  0  0  0  0  0  0
    0.6747    2.8558    2.3368 C   0  0  0  0  0  0  0  0  0  0  0  0
   -0.3018    2.9877    2.8079 H   0  0  0  0  0  0  0  0  0  0  0  0
    1.4516    2.8997    3.1011 H   0  0  0  0  0  0  0  0  0  0  0  0
    0.8279    3.6639    1.6193 H   0  0  0  0  0  0  0  0  0  0  0  0
  5  6  2  0  0  0  0
  5  7  1  0  0  0  0
  2  3  1  0  0  0  0
  2  4  1  0  0  0  0
  2  5  1  0  0  0  0
  1  2  1  0  0  0  0
 18 19  2  0  0  0  0
 18 20  1  0  0  0  0
 16 17  1  0  0  0  0
 14 15  2  0  0  0  0
 14 16  1  0  0  0  0
 11 12  1  0  0  0  0
 11 13  1  0  0  0  0
 11 14  1  0  0  0  0
  9 10  1  0  0  0  0
  9 11  1  0  0  0  0
  9 18  1  0  0  0  0
  7  8  1  0  0  0  0
  7  9  1  0  0  0  0
 22 23  1  0  0  0  0
 22 24  1  0  0  0  0
 22 25  1  0  0  0  0
 20 21  1  0  0  0  0
 20 22  1  0  0  0  0
M  END
$$$$
default_name
  -OEChem-02102213163D

 25 24  0     1  0  0  0  0  0999 V2000
   -2.7826   -3.8464    0.7821 H   0  0  0  0  0  0  0  0  0  0  0  0
   -2.8156   -2.8034    0.4711 C   0  0  0  0  0  0  0  0  0  0  0  0
   -3.4336   -2.2354    1.1641 H   0  0  0  0  0  0  0  0  0  0  0  0
   -3.2256   -2.7344   -0.5349 H   0  0  0  0  0  0  0  0  0  0  0  0
   -1.4126   -2.2444    0.4801 C   0  0  0  0  0  0  0  0  0  0  0  0
   -0.4686   -2.9534    0.8001 O   0  0  0  0  0  0  0  0  0  0  0  0
   -1.2736   -0.9704    0.1241 N   0  0  0  0  0  0  0  0  0  0  0  0
   -2.0996   -0.4354   -0.1019 H   0  0  0  0  0  0  0  0  0  0  0  0
   -0.0016   -0.2394    0.1271 C   0  0  1  0  0  0  0  0  0  0  0  0
    0.7164   -0.7963    0.7332 H   0  0  0  0  0  0  0  0  0  0  0  0
    0.5351   -0.1414   -1.3146 C   0  0  0  0  0  0  0  0  0  0  0  0
    1.3141    0.6205   -1.3609 H   0  0  0  0  0  0  0  0  0  0  0  0
    0.9798   -1.0935   -1.6064 H   0  0  0  0  0  0  0  0  0  0  0  0
   -0.5312    0.2480   -2.3340 C   0  0  0  0  0  0  0  0  0  0  0  0
   -0.8163    1.3913   -2.6655 O   0  0  0  0  0  0  0  0  0  0  0  0
   -1.1929   -0.7879   -2.8826 O   0  0  0  0  0  0  0  0  0  0  0  0
   -1.8082   -0.4045   -3.5085 H   0  0  0  0  0  0  0  0  0  0  0  0
   -0.1923    1.1526    0.7617 C   0  0  0  0  0  0  0  0  0  0  0  0
   -1.1582    1.8438    0.4410 O   0  0  0  0  0  0  0  0  0  0  0  0
    0.7203    1.5683    1.6472 N   0  0  0  0  0  0  0  0  0  0  0  0
    1.5210    0.9664    1.8100 H   0  0  0  0  0  0  0  0  0  0  0  0
    0.6747    2.8558    2.3368 C   0  0  0  0  0  0  0  0  0  0  0  0
   -0.3018    2.9877    2.8079 H   0  0  0  0  0  0  0  0  0  0  0  0
    1.4516    2.8997    3.1011 H   0  0  0  0  0  0  0  0  0  0  0  0
    0.8279    3.6639    1.6193 H   0  0  0  0  0  0  0  0  0  0  0  0
  5  6  2  0  0  0  0
  5  7  1  0  0  0  0
  2  3  1  0  0  0  0
  2  4  1  0  0  0  0
  2  5  1  0  0  0  0
  1  2  1  0  0  0  0
 18 19  2  0  0  0  0
 18 20  1  0  0  0  0
 16 17  1  0  0  0  0
 14 15  2  0  0  0  0
 14 16  1  0  0  0  0
 11 12  1  0  0  0  0
 11 13  1  0  0  0  0
 11 14  1  0  0  0  0
  9 10  1  0  0  0  0
  9 11  1  0  0  0  0
  9 18  1  0  0  0  0
  7  8  1  0  0  0  0
  7  9  1  0  0  0  0
 22 23  1  0  0  0  0
 22 24  1  0  0  0  0
 22 25  1  0  0  0  0
 20 21  1  0  0  0  0
 20 22  1  0  0  0  0
M  END
$$$$
default_name
  -OEChem-02102213163D

 25 24  0     1  0  0  0  0  0999 V2000
   -2.7826   -3.8464    0.7821 H   0  0  0  0  0  0  0  0  0  0  0  0
   -2.8156   -2.8034    0.4711 C   0  0  0  0  0  0  0  0  0  0  0  0
   -3.4336   -2.2354    1.1641 H   0  0  0  0  0  0  0  0  0  0  0  0
   -3.2256   -2.7344   -0.5349 H   0  0  0  0  0  0  0  0  0  0  0  0
   -1.4126   -2.2444    0.4801 C   0  0  0  0  0  0  0  0  0  0  0  0
   -0.4686   -2.9534    0.8001 O   0  0  0  0  0  0  0  0  0  0  0  0
   -1.2736   -0.9704    0.1241 N   0  0  0  0  0  0  0  0  0  0  0  0
   -2.0996   -0.4354   -0.1019 H   0  0  0  0  0  0  0  0  0  0  0  0
   -0.0016   -0.2394    0.1271 C   0  0  1  0  0  0  0  0  0  0  0  0
    0.7164   -0.7963    0.7332 H   0  0  0  0  0  0  0  0  0  0  0  0
    0.5351   -0.1414   -1.3146 C   0  0  0  0  0  0  0  0  0  0  0  0
    1.3141    0.6205   -1.3609 H   0  0  0  0  0  0  0  0  0  0  0  0
    0.9798   -1.0935   -1.6064 H   0  0  0  0  0  0  0  0  0  0  0  0
   -0.5312    0.2480   -2.3340 C   0  0  0  0  0  0  0  0  0  0  0  0
   -0.6477    1.3479   -2.8584 O   0  0  0  0  0  0  0  0  0  0  0  0
   -1.3992   -0.7325   -2.6457 O   0  0  0  0  0  0  0  0  0  0  0  0
   -1.9911   -0.3608   -3.3004 H   0  0  0  0  0  0  0  0  0  0  0  0
   -0.1923    1.1526    0.7617 C   0  0  0  0  0  0  0  0  0  0  0  0
   -1.1582    1.8438    0.4410 O   0  0  0  0  0  0  0  0  0  0  0  0
    0.7203    1.5683    1.6472 N   0  0  0  0  0  0  0  0  0  0  0  0
    1.5210    0.9664    1.8100 H   0  0  0  0  0  0  0  0  0  0  0  0
    0.6747    2.8558    2.3368 C   0  0  0  0  0  0  0  0  0  0  0  0
   -0.3018    2.9877    2.8079 H   0  0  0  0  0  0  0  0  0  0  0  0
    1.4516    2.8997    3.1011 H   0  0  0  0  0  0  0  0  0  0  0  0
    0.8279    3.6639    1.6193 H   0  0  0  0  0  0  0  0  0  0  0  0
  5  6  2  0  0  0  0
  5  7  1  0  0  0  0
  2  3  1  0  0  0  0
  2  4  1  0  0  0  0
  2  5  1  0  0  0  0
  1  2  1  0  0  0  0
 18 19  2  0  0  0  0
 18 20  1  0  0  0  0
 16 17  1  0  0  0  0
 14 15  2  0  0  0  0
 14 16  1  0  0  0  0
 11 12  1  0  0  0  0
 11 13  1  0  0  0  0
 11 14  1  0  0  0  0
  9 10  1  0  0  0  0
  9 11  1  0  0  0  0
  9 18  1  0  0  0  0
  7  8  1  0  0  0  0
  7  9  1  0  0  0  0
 22 23  1  0  0  0  0
 22 24  1  0  0  0  0
 22 25  1  0  0  0  0
 20 21  1  0  0  0  0
 20 22  1  0  0  0  0
M  END
$$$$
default_name
  -OEChem-02102213163D

 25 24  0     1  0  0  0  0  0999 V2000
   -2.7826   -3.8464    0.7821 H   0  0  0  0  0  0  0  0  0  0  0  0
   -2.8156   -2.8034    0.4711 C   0  0  0  0  0  0  0  0  0  0  0  0
   -3.4336   -2.2354    1.1641 H   0  0  0  0  0  0  0  0  0  0  0  0
   -3.2256   -2.7344   -0.5349 H   0  0  0  0  0  0  0  0  0  0  0  0
   -1.4126   -2.2444    0.4801 C   0  0  0  0  0  0  0  0  0  0  0  0
   -0.4686   -2.9534    0.8001 O   0  0  0  0  0  0  0  0  0  0  0  0
   -1.2736   -0.9704    0.1241 N   0  0  0  0  0  0  0  0  0  0  0  0
   -2.0996   -0.4354   -0.1019 H   0  0  0  0  0  0  0  0  0  0  0  0
   -0.0016   -0.2394    0.1271 C   0  0  1  0  0  0  0  0  0  0  0  0
    0.7164   -0.7963    0.7332 H   0  0  0  0  0  0  0  0  0  0  0  0
    0.5351   -0.1414   -1.3146 C   0  0  0  0  0  0  0  0  0  0  0  0
    1.3141    0.6205   -1.3609 H   0  0  0  0  0  0  0  0  0  0  0  0
    0.9798   -1.0935   -1.6064 H   0  0  0  0  0  0  0  0  0  0  0  0
   -0.5312    0.2480   -2.3340 C   0  0  0  0  0  0  0  0  0  0  0  0
   -0.5052    1.2419   -3.0480 O   0  0  0  0  0  0  0  0  0  0  0  0
   -1.5732   -0.6005   -2.4132 O   0  0  0  0  0  0  0  0  0  0  0  0
   -2.1464   -0.2492   -3.0953 H   0  0  0  0  0  0  0  0  0  0  0  0
   -0.1923    1.1526    0.7617 C   0  0  0  0  0  0  0  0  0  0  0  0
   -1.1582    1.8438    0.4410 O   0  0  0  0  0  0  0  0  0  0  0  0
    0.7203    1.5683    1.6472 N   0  0  0  0  0  0  0  0  0  0  0  0
    1.5210    0.9664    1.8100 H   0  0  0  0  0  0  0  0  0  0  0  0
    0.6747    2.8558    2.3368 C   0  0  0  0  0  0  0  0  0  0  0  0
   -0.3018    2.9877    2.8079 H   0  0  0  0  0  0  0  0  0  0  0  0
    1.4516    2.8997    3.1011 H   0  0  0  0  0  0  0  0  0  0  0  0
    0.8279    3.6639    1.6193 H   0  0  0  0  0  0  0  0  0  0  0  0
  5  6  2  0  0  0  0
  5  7  1  0  0  0  0
  2  3  1  0  0  0  0
  2  4  1  0  0  0  0
  2  5  1  0  0  0  0
  1  2  1  0  0  0  0
 18 19  2  0  0  0  0
 18 20  1  0  0  0  0
 16 17  1  0  0  0  0
 14 15  2  0  0  0  0
 14 16  1  0  0  0  0
 11 12  1  0  0  0  0
 11 13  1  0  0  0  0
 11 14  1  0  0  0  0
  9 10  1  0  0  0  0
  9 11  1  0  0  0  0
  9 18  1  0  0  0  0
  7  8  1  0  0  0  0
  7  9  1  0  0  0  0
 22 23  1  0  0  0  0
 22 24  1  0  0  0  0
 22 25  1  0  0  0  0
 20 21  1  0  0  0  0
 20 22  1  0  0  0  0
M  END
$$$$
default_name
  -OEChem-02102213163D

 25 24  0     1  0  0  0  0  0999 V2000
   -2.7826   -3.8464    0.7821 H   0  0  0  0  0  0  0  0  0  0  0  0
   -2.8156   -2.8034    0.4711 C   0  0  0  0  0  0  0  0  0  0  0  0
   -3.4336   -2.2354    1.1641 H   0  0  0  0  0  0  0  0  0  0  0  0
   -3.2256   -2.7344   -0.5349 H   0  0  0  0  0  0  0  0  0  0  0  0
   -1.4126   -2.2444    0.4801 C   0  0  0  0  0  0  0  0  0  0  0  0
   -0.4686   -2.9534    0.8001 O   0  0  0  0  0  0  0  0  0  0  0  0
   -1.2736   -0.9704    0.1241 N   0  0  0  0  0  0  0  0  0  0  0  0
   -2.0996   -0.4354   -0.1019 H   0  0  0  0  0  0  0  0  0  0  0  0
   -0.0016   -0.2394    0.1271 C   0  0  1  0  0  0  0  0  0  0  0  0
    0.7164   -0.7963    0.7332 H   0  0  0  0  0  0  0  0  0  0  0  0
    0.5351   -0.1414   -1.3146 C   0  0  0  0  0  0  0  0  0  0  0  0
    1.3141    0.6205   -1.3609 H   0  0  0  0  0  0  0  0  0  0  0  0
    0.9798   -1.0935   -1.6064 H   0  0  0  0  0  0  0  0  0  0  0  0
   -0.5312    0.2480   -2.3340 C   0  0  0  0  0  0  0  0  0  0  0  0
   -0.3983    1.0806   -3.2214 O   0  0  0  0  0  0  0  0  0  0  0  0
   -1.7031   -0.4008   -2.2010 O   0  0  0  0  0  0  0  0  0  0  0  0
   -2.2637   -0.0776   -2.9071 H   0  0  0  0  0  0  0  0  0  0  0  0
   -0.1923    1.1526    0.7617 C   0  0  0  0  0  0  0  0  0  0  0  0
   -1.1582    1.8438    0.4410 O   0  0  0  0  0  0  0  0  0  0  0  0
    0.7203    1.5683    1.6472 N   0  0  0  0  0  0  0  0  0  0  0  0
    1.5210    0.9664    1.8100 H   0  0  0  0  0  0  0  0  0  0  0  0
    0.6747    2.8558    2.3368 C   0  0  0  0  0  0  0  0  0  0  0  0
   -0.3018    2.9877    2.8079 H   0  0  0  0  0  0  0  0  0  0  0  0
    1.4516    2.8997    3.1011 H   0  0  0  0  0  0  0  0  0  0  0  0
    0.8279    3.6639    1.6193 H   0  0  0  0  0  0  0  0  0  0  0  0
  5  6  2  0  0  0  0
  5  7  1  0  0  0  0
  2  3  1  0  0  0  0
  2  4  1  0  0  0  0
  2  5  1  0  0  0  0
  1  2  1  0  0  0  0
 18 19  2  0  0  0  0
 18 20  1  0  0  0  0
 16 17  1  0  0  0  0
 14 15  2  0  0  0  0
 14 16  1  0  0  0  0
 11 12  1  0  0  0  0
 11 13  1  0  0  0  0
 11 14  1  0  0  0  0
  9 10  1  0  0  0  0
  9 11  1  0  0  0  0
  9 18  1  0  0  0  0
  7  8  1  0  0  0  0
  7  9  1  0  0  0  0
 22 23  1  0  0  0  0
 22 24  1  0  0  0  0
 22 25  1  0  0  0  0
 20 21  1  0  0  0  0
 20 22  1  0  0  0  0
M  END
$$$$
default_name
  -OEChem-02102213163D

 25 24  0     1  0  0  0  0  0999 V2000
   -2.7826   -3.8464    0.7821 H   0  0  0  0  0  0  0  0  0  0  0  0
   -2.8156   -2.8034    0.4711 C   0  0  0  0  0  0  0  0  0  0  0  0
   -3.4336   -2.2354    1.1641 H   0  0  0  0  0  0  0  0  0  0  0  0
   -3.2256   -2.7344   -0.5349 H   0  0  0  0  0  0  0  0  0  0  0  0
   -1.4126   -2.2444    0.4801 C   0  0  0  0  0  0  0  0  0  0  0  0
   -0.4686   -2.9534    0.8001 O   0  0  0  0  0  0  0  0  0  0  0  0
   -1.2736   -0.9704    0.1241 N   0  0  0  0  0  0  0  0  0  0  0  0
   -2.0996   -0.4354   -0.1019 H   0  0  0  0  0  0  0  0  0  0  0  0
   -0.0016   -0.2394    0.1271 C   0  0  1  0  0  0  0  0  0  0  0  0
    0.7164   -0.7963    0.7332 H   0  0  0  0  0  0  0  0  0  0  0  0
    0.5351   -0.1414   -1.3146 C   0  0  0  0  0  0  0  0  0  0  0  0
    1.3141    0.6205   -1.3609 H   0  0  0  0  0  0  0  0  0  0  0  0
    0.9798   -1.0935   -1.6064 H   0  0  0  0  0  0  0  0  0  0  0  0
   -0.5312    0.2480   -2.3340 C   0  0  0  0  0  0  0  0  0  0  0  0
   -0.3345    0.8749   -3.3668 O   0  0  0  0  0  0  0  0  0  0  0  0
   -1.7800   -0.1470   -2.0236 O   0  0  0  0  0  0  0  0  0  0  0  0
   -2.3348    0.1426   -2.7486 H   0  0  0  0  0  0  0  0  0  0  0  0
   -0.1923    1.1526    0.7617 C   0  0  0  0  0  0  0  0  0  0  0  0
   -1.1582    1.8438    0.4410 O   0  0  0  0  0  0  0  0  0  0  0  0
    0.7203    1.5683    1.6472 N   0  0  0  0  0  0  0  0  0  0  0  0
    1.5210    0.9664    1.8100 H   0  0  0  0  0  0  0  0  0  0  0  0
    0.6747    2.8558    2.3368 C   0  0  0  0  0  0  0  0  0  0  0  0
   -0.3018    2.9877    2.8079 H   0  0  0  0  0  0  0  0  0  0  0  0
    1.4516    2.8997    3.1011 H   0  0  0  0  0  0  0  0  0  0  0  0
    0.8279    3.6639    1.6193 H   0  0  0  0  0  0  0  0  0  0  0  0
  5  6  2  0  0  0  0
  5  7  1  0  0  0  0
  2  3  1  0  0  0  0
  2  4  1  0  0  0  0
  2  5  1  0  0  0  0
  1  2  1  0  0  0  0
 18 19  2  0  0  0  0
 18 20  1  0  0  0  0
 16 17  1  0  0  0  0
 14 15  2  0  0  0  0
 14 16  1  0  0  0  0
 11 12  1  0  0  0  0
 11 13  1  0  0  0  0
 11 14  1  0  0  0  0
  9 10  1  0  0  0  0
  9 11  1  0  0  0  0
  9 18  1  0  0  0  0
  7  8  1  0  0  0  0
  7  9  1  0  0  0  0
 22 23  1  0  0  0  0
 22 24  1  0  0  0  0
 22 25  1  0  0  0  0
 20 21  1  0  0  0  0
 20 22  1  0  0  0  0
M  END
$$$$
default_name
  -OEChem-02102213163D

 25 24  0     1  0  0  0  0  0999 V2000
   -2.7826   -3.8464    0.7821 H   0  0  0  0  0  0  0  0  0  0  0  0
   -2.8156   -2.8034    0.4711 C   0  0  0  0  0  0  0  0  0  0  0  0
   -3.4336   -2.2354    1.1641 H   0  0  0  0  0  0  0  0  0  0  0  0
   -3.2256   -2.7344   -0.5349 H   0  0  0  0  0  0  0  0  0  0  0  0
   -1.4126   -2.2444    0.4801 C   0  0  0  0  0  0  0  0  0  0  0  0
   -0.4686   -2.9534    0.8001 O   0  0  0  0  0  0  0  0  0  0  0  0
   -1.2736   -0.9704    0.1241 N   0  0  0  0  0  0  0  0  0  0  0  0
   -2.0996   -0.4354   -0.1019 H   0  0  0  0  0  0  0  0  0  0  0  0
   -0.0016   -0.2394    0.1271 C   0  0  1  0  0  0  0  0  0  0  0  0
    0.7164   -0.7963    0.7332 H   0  0  0  0  0  0  0  0  0  0  0  0
    0.5351   -0.1414   -1.3146 C   0  0  0  0  0  0  0  0  0  0  0  0
    1.3141    0.6205   -1.3609 H   0  0  0  0  0  0  0  0  0  0  0  0
    0.9798   -1.0935   -1.6064 H   0  0  0  0  0  0  0  0  0  0  0  0
   -0.5312    0.2480   -2.3340 C   0  0  0  0  0  0  0  0  0  0  0  0
   -0.3180    0.6390   -3.4742 O   0  0  0  0  0  0  0  0  0  0  0  0
   -1.7987    0.1434   -1.8931 O   0  0  0  0  0  0  0  0  0  0  0  0
   -2.3549    0.3962   -2.6307 H   0  0  0  0  0  0  0  0  0  0  0  0
   -0.1923    1.1526    0.7617 C   0  0  0  0  0  0  0  0  0  0  0  0
   -1.1582    1.8438    0.4410 O   0  0  0  0  0  0  0  0  0  0  0  0
    0.7203    1.5683    1.6472 N   0  0  0  0  0  0  0  0  0  0  0  0
    1.5210    0.9664    1.8100 H   0  0  0  0  0  0  0  0  0  0  0  0
    0.6747    2.8558    2.3368 C   0  0  0  0  0  0  0  0  0  0  0  0
   -0.3018    2.9877    2.8079 H   0  0  0  0  0  0  0  0  0  0  0  0
    1.4516    2.8997    3.1011 H   0  0  0  0  0  0  0  0  0  0  0  0
    0.8279    3.6639    1.6193 H   0  0  0  0  0  0  0  0  0  0  0  0
  5  6  2  0  0  0  0
  5  7  1  0  0  0  0
  2  3  1  0  0  0  0
  2  4  1  0  0  0  0
  2  5  1  0  0  0  0
  1  2  1  0  0  0  0
 18 19  2  0  0  0  0
 18 20  1  0  0  0  0
 16 17  1  0  0  0  0
 14 15  2  0  0  0  0
 14 16  1  0  0  0  0
 11 12  1  0  0  0  0
 11 13  1  0  0  0  0
 11 14  1  0  0  0  0
  9 10  1  0  0  0  0
  9 11  1  0  0  0  0
  9 18  1  0  0  0  0
  7  8  1  0  0  0  0
  7  9  1  0  0  0  0
 22 23  1  0  0  0  0
 22 24  1  0  0  0  0
 22 25  1  0  0  0  0
 20 21  1  0  0  0  0
 20 22  1  0  0  0  0
M  END
$$$$
default_name
  -OEChem-02102213163D

 25 24  0     1  0  0  0  0  0999 V2000
   -2.7826   -3.8464    0.7821 H   0  0  0  0  0  0  0  0  0  0  0  0
   -2.8156   -2.8034    0.4711 C   0  0  0  0  0  0  0  0  0  0  0  0
   -3.4336   -2.2354    1.1641 H   0  0  0  0  0  0  0  0  0  0  0  0
   -3.2256   -2.7344   -0.5349 H   0  0  0  0  0  0  0  0  0  0  0  0
   -1.4126   -2.2444    0.4801 C   0  0  0  0  0  0  0  0  0  0  0  0
   -0.4686   -2.9534    0.8001 O   0  0  0  0  0  0  0  0  0  0  0  0
   -1.2736   -0.9704    0.1241 N   0  0  0  0  0  0  0  0  0  0  0  0
   -2.0996   -0.4354   -0.1019 H   0  0  0  0  0  0  0  0  0  0  0  0
   -0.0016   -0.2394    0.1271 C   0  0  1  0  0  0  0  0  0  0  0  0
    0.7164   -0.7963    0.7332 H   0  0  0  0  0  0  0  0  0  0  0  0
    0.5351   -0.1414   -1.3146 C   0  0  0  0  0  0  0  0  0  0  0  0
    1.4756    0.4109   -1.3150 H   0  0  0  0  0  0  0  0  0  0  0  0
    0.7337   -1.1416   -1.7013 H   0  0  0  0  0  0  0  0  0  0  0  0
   -0.4102    0.5860   -2.2660 C   0  0  0  0  0  0  0  0  0  0  0  0
   -0.2066    0.7890   -3.4558 O   0  0  0  0  0  0  0  0  0  0  0  0
   -1.5482    1.0305   -1.7008 O   0  0  0  0  0  0  0  0  0  0  0  0
   -2.0477    1.4431   -2.4061 H   0  0  0  0  0  0  0  0  0  0  0  0
   -0.1923    1.1526    0.7617 C   0  0  0  0  0  0  0  0  0  0  0  0
   -1.1582    1.8438    0.4410 O   0  0  0  0  0  0  0  0  0  0  0  0
    0.7203    1.5683    1.6472 N   0  0  0  0  0  0  0  0  0  0  0  0
    1.5210    0.9664    1.8100 H   0  0  0  0  0  0  0  0  0  0  0  0
    0.6747    2.8558    2.3368 C   0  0  0  0  0  0  0  0  0  0  0  0
   -0.3018    2.9877    2.8079 H   0  0  0  0  0  0  0  0  0  0  0  0
    1.4516    2.8997    3.1011 H   0  0  0  0  0  0  0  0  0  0  0  0
    0.8279    3.6639    1.6193 H   0  0  0  0  0  0  0  0  0  0  0  0
  5  6  2  0  0  0  0
  5  7  1  0  0  0  0
  2  3  1  0  0  0  0
  2  4  1  0  0  0  0
  2  5  1  0  0  0  0
  1  2  1  0  0  0  0
 18 19  2  0  0  0  0
 18 20  1  0  0  0  0
 16 17  1  0  0  0  0
 14 15  2  0  0  0  0
 14 16  1  0  0  0  0
 11 12  1  0  0  0  0
 11 13  1  0  0  0  0
 11 14  1  0  0  0  0
  9 10  1  0  0  0  0
  9 11  1  0  0  0  0
  9 18  1  0  0  0  0
  7  8  1  0  0  0  0
  7  9  1  0  0  0  0
 22 23  1  0  0  0  0
 22 24  1  0  0  0  0
 22 25  1  0  0  0  0
 20 21  1  0  0  0  0
 20 22  1  0  0  0  0
M  END
$$$$
default_name
  -OEChem-02102213163D

 25 24  0     1  0  0  0  0  0999 V2000
   -2.7826   -3.8464    0.7821 H   0  0  0  0  0  0  0  0  0  0  0  0
   -2.8156   -2.8034    0.4711 C   0  0  0  0  0  0  0  0  0  0  0  0
   -3.4336   -2.2354    1.1641 H   0  0  0  0  0  0  0  0  0  0  0  0
   -3.2256   -2.7344   -0.5349 H   0  0  0  0  0  0  0  0  0  0  0  0
   -1.4126   -2.2444    0.4801 C   0  0  0  0  0  0  0  0  0  0  0  0
   -0.4686   -2.9534    0.8001 O   0  0  0  0  0  0  0  0  0  0  0  0
   -1.2736   -0.9704    0.1241 N   0  0  0  0  0  0  0  0  0  0  0  0
   -2.0996   -0.4354   -0.1019 H   0  0  0  0  0  0  0  0  0  0  0  0
   -0.0016   -0.2394    0.1271 C   0  0  1  0  0  0  0  0  0  0  0  0
    0.7164   -0.7963    0.7332 H   0  0  0  0  0  0  0  0  0  0  0  0
    0.5351   -0.1414   -1.3146 C   0  0  0  0  0  0  0  0  0  0  0  0
    1.4756    0.4109   -1.3150 H   0  0  0  0  0  0  0  0  0  0  0  0
    0.7337   -1.1416   -1.7013 H   0  0  0  0  0  0  0  0  0  0  0  0
   -0.4102    0.5860   -2.2660 C   0  0  0  0  0  0  0  0  0  0  0  0
   -0.3426    0.5700   -3.4881 O   0  0  0  0  0  0  0  0  0  0  0  0
   -1.3798    1.2988   -1.6629 O   0  0  0  0  0  0  0  0  0  0  0  0
   -1.9028    1.6803   -2.3688 H   0  0  0  0  0  0  0  0  0  0  0  0
   -0.1923    1.1526    0.7617 C   0  0  0  0  0  0  0  0  0  0  0  0
   -1.1582    1.8438    0.4410 O   0  0  0  0  0  0  0  0  0  0  0  0
    0.7203    1.5683    1.6472 N   0  0  0  0  0  0  0  0  0  0  0  0
    1.5210    0.9664    1.8100 H   0  0  0  0  0  0  0  0  0  0  0  0
    0.6747    2.8558    2.3368 C   0  0  0  0  0  0  0  0  0  0  0  0
   -0.3018    2.9877    2.8079 H   0  0  0  0  0  0  0  0  0  0  0  0
    1.4516    2.8997    3.1011 H   0  0  0  0  0  0  0  0  0  0  0  0
    0.8279    3.6639    1.6193 H   0  0  0  0  0  0  0  0  0  0  0  0
  5  6  2  0  0  0  0
  5  7  1  0  0  0  0
  2  3  1  0  0  0  0
  2  4  1  0  0  0  0
  2  5  1  0  0  0  0
  1  2  1  0  0  0  0
 18 19  2  0  0  0  0
 18 20  1  0  0  0  0
 16 17  1  0  0  0  0
 14 15  2  0  0  0  0
 14 16  1  0  0  0  0
 11 12  1  0  0  0  0
 11 13  1  0  0  0  0
 11 14  1  0  0  0  0
  9 10  1  0  0  0  0
  9 11  1  0  0  0  0
  9 18  1  0  0  0  0
  7  8  1  0  0  0  0
  7  9  1  0  0  0  0
 22 23  1  0  0  0  0
 22 24  1  0  0  0  0
 22 25  1  0  0  0  0
 20 21  1  0  0  0  0
 20 22  1  0  0  0  0
M  END
$$$$
default_name
  -OEChem-02102213163D

 25 24  0     1  0  0  0  0  0999 V2000
   -2.7826   -3.8464    0.7821 H   0  0  0  0  0  0  0  0  0  0  0  0
   -2.8156   -2.8034    0.4711 C   0  0  0  0  0  0  0  0  0  0  0  0
   -3.4336   -2.2354    1.1641 H   0  0  0  0  0  0  0  0  0  0  0  0
   -3.2256   -2.7344   -0.5349 H   0  0  0  0  0  0  0  0  0  0  0  0
   -1.4126   -2.2444    0.4801 C   0  0  0  0  0  0  0  0  0  0  0  0
   -0.4686   -2.9534    0.8001 O   0  0  0  0  0  0  0  0  0  0  0  0
   -1.2736   -0.9704    0.1241 N   0  0  0  0  0  0  0  0  0  0  0  0
   -2.0996   -0.4354   -0.1019 H   0  0  0  0  0  0  0  0  0  0  0  0
   -0.0016   -0.2394    0.1271 C   0  0  1  0  0  0  0  0  0  0  0  0
    0.7164   -0.7963    0.7332 H   0  0  0  0  0  0  0  0  0  0  0  0
    0.5351   -0.1414   -1.3146 C   0  0  0  0  0  0  0  0  0  0  0  0
    1.4756    0.4109   -1.3150 H   0  0  0  0  0  0  0  0  0  0  0  0
    0.7337   -1.1416   -1.7013 H   0  0  0  0  0  0  0  0  0  0  0  0
   -0.4102    0.5860   -2.2660 C   0  0  0  0  0  0  0  0  0  0  0  0
   -0.5134    0.3753   -3.4673 O   0  0  0  0  0  0  0  0  0  0  0  0
   -1.1692    1.5369   -1.6901 O   0  0  0  0  0  0  0  0  0  0  0  0
   -1.7199    1.8919   -2.3886 H   0  0  0  0  0  0  0  0  0  0  0  0
   -0.1923    1.1526    0.7617 C   0  0  0  0  0  0  0  0  0  0  0  0
   -1.1582    1.8438    0.4410 O   0  0  0  0  0  0  0  0  0  0  0  0
    0.7203    1.5683    1.6472 N   0  0  0  0  0  0  0  0  0  0  0  0
    1.5210    0.9664    1.8100 H   0  0  0  0  0  0  0  0  0  0  0  0
    0.6747    2.8558    2.3368 C   0  0  0  0  0  0  0  0  0  0  0  0
   -0.3018    2.9877    2.8079 H   0  0  0  0  0  0  0  0  0  0  0  0
    1.4516    2.8997    3.1011 H   0  0  0  0  0  0  0  0  0  0  0  0
    0.8279    3.6639    1.6193 H   0  0  0  0  0  0  0  0  0  0  0  0
  5  6  2  0  0  0  0
  5  7  1  0  0  0  0
  2  3  1  0  0  0  0
  2  4  1  0  0  0  0
  2  5  1  0  0  0  0
  1  2  1  0  0  0  0
 18 19  2  0  0  0  0
 18 20  1  0  0  0  0
 16 17  1  0  0  0  0
 14 15  2  0  0  0  0
 14 16  1  0  0  0  0
 11 12  1  0  0  0  0
 11 13  1  0  0  0  0
 11 14  1  0  0  0  0
  9 10  1  0  0  0  0
  9 11  1  0  0  0  0
  9 18  1  0  0  0  0
  7  8  1  0  0  0  0
  7  9  1  0  0  0  0
 22 23  1  0  0  0  0
 22 24  1  0  0  0  0
 22 25  1  0  0  0  0
 20 21  1  0  0  0  0
 20 22  1  0  0  0  0
M  END
$$$$
default_name
  -OEChem-02102213163D

 25 24  0     1  0  0  0  0  0999 V2000
   -2.7826   -3.8464    0.7821 H   0  0  0  0  0  0  0  0  0  0  0  0
   -2.8156   -2.8034    0.4711 C   0  0  0  0  0  0  0  0  0  0  0  0
   -3.4336   -2.2354    1.1641 H   0  0  0  0  0  0  0  0  0  0  0  0
   -3.2256   -2.7344   -0.5349 H   0  0  0  0  0  0  0  0  0  0  0  0
   -1.4126   -2.2444    0.4801 C   0  0  0  0  0  0  0  0  0  0  0  0
   -0.4686   -2.9534    0.8001 O   0  0  0  0  0  0  0  0  0  0  0  0
   -1.2736   -0.9704    0.1241 N   0  0  0  0  0  0  0  0  0  0  0  0
   -2.0996   -0.4354   -0.1019 H   0  0  0  0  0  0  0  0  0  0  0  0
   -0.0016   -0.2394    0.1271 C   0  0  1  0  0  0  0  0  0  0  0  0
    0.7164   -0.7963    0.7332 H   0  0  0  0  0  0  0  0  0  0  0  0
    0.5351   -0.1414   -1.3146 C   0  0  0  0  0  0  0  0  0  0  0  0
    1.4756    0.4109   -1.3150 H   0  0  0  0  0  0  0  0  0  0  0  0
    0.7337   -1.1416   -1.7013 H   0  0  0  0  0  0  0  0  0  0  0  0
   -0.4102    0.5860   -2.2660 C   0  0  0  0  0  0  0  0  0  0  0  0
   -0.7072    0.2181   -3.3950 O   0  0  0  0  0  0  0  0  0  0  0  0
   -0.9308    1.7285   -1.7805 O   0  0  0  0  0  0  0  0  0  0  0  0
   -1.5116    2.0637   -2.4643 H   0  0  0  0  0  0  0  0  0  0  0  0
   -0.1923    1.1526    0.7617 C   0  0  0  0  0  0  0  0  0  0  0  0
   -1.1582    1.8438    0.4410 O   0  0  0  0  0  0  0  0  0  0  0  0
    0.7203    1.5683    1.6472 N   0  0  0  0  0  0  0  0  0  0  0  0
    1.5210    0.9664    1.8100 H   0  0  0  0  0  0  0  0  0  0  0  0
    0.6747    2.8558    2.3368 C   0  0  0  0  0  0  0  0  0  0  0  0
   -0.3018    2.9877    2.8079 H   0  0  0  0  0  0  0  0  0  0  0  0
    1.4516    2.8997    3.1011 H   0  0  0  0  0  0  0  0  0  0  0  0
    0.8279    3.6639    1.6193 H   0  0  0  0  0  0  0  0  0  0  0  0
  5  6  2  0  0  0  0
  5  7  1  0  0  0  0
  2  3  1  0  0  0  0
  2  4  1  0  0  0  0
  2  5  1  0  0  0  0
  1  2  1  0  0  0  0
 18 19  2  0  0  0  0
 18 20  1  0  0  0  0
 16 17  1  0  0  0  0
 14 15  2  0  0  0  0
 14 16  1  0  0  0  0
 11 12  1  0  0  0  0
 11 13  1  0  0  0  0
 11 14  1  0  0  0  0
  9 10  1  0  0  0  0
  9 11  1  0  0  0  0
  9 18  1  0  0  0  0
  7  8  1  0  0  0  0
  7  9  1  0  0  0  0
 22 23  1  0  0  0  0
 22 24  1  0  0  0  0
 22 25  1  0  0  0  0
 20 21  1  0  0  0  0
 20 22  1  0  0  0  0
M  END
$$$$
default_name
  -OEChem-02102213163D

 25 24  0     1  0  0  0  0  0999 V2000
   -2.7826   -3.8464    0.7821 H   0  0  0  0  0  0  0  0  0  0  0  0
   -2.8156   -2.8034    0.4711 C   0  0  0  0  0  0  0  0  0  0  0  0
   -3.4336   -2.2354    1.1641 H   0  0  0  0  0  0  0  0  0  0  0  0
   -3.2256   -2.7344   -0.5349 H   0  0  0  0  0  0  0  0  0  0  0  0
   -1.4126   -2.2444    0.4801 C   0  0  0  0  0  0  0  0  0  0  0  0
   -0.4686   -2.9534    0.8001 O   0  0  0  0  0  0  0  0  0  0  0  0
   -1.2736   -0.9704    0.1241 N   0  0  0  0  0  0  0  0  0  0  0  0
   -2.0996   -0.4354   -0.1019 H   0  0  0  0  0  0  0  0  0  0  0  0
   -0.0016   -0.2394    0.1271 C   0  0  1  0  0  0  0  0  0  0  0  0
    0.7164   -0.7963    0.7332 H   0  0  0  0  0  0  0  0  0  0  0  0
    0.5351   -0.1414   -1.3146 C   0  0  0  0  0  0  0  0  0  0  0  0
    1.4756    0.4109   -1.3150 H   0  0  0  0  0  0  0  0  0  0  0  0
    0.7337   -1.1416   -1.7013 H   0  0  0  0  0  0  0  0  0  0  0  0
   -0.4102    0.5860   -2.2660 C   0  0  0  0  0  0  0  0  0  0  0  0
   -0.9108    0.1091   -3.2760 O   0  0  0  0  0  0  0  0  0  0  0  0
   -0.6806    1.8606   -1.9280 O   0  0  0  0  0  0  0  0  0  0  0  0
   -1.2919    2.1838   -2.5906 H   0  0  0  0  0  0  0  0  0  0  0  0
   -0.1923    1.1526    0.7617 C   0  0  0  0  0  0  0  0  0  0  0  0
   -1.1582    1.8438    0.4410 O   0  0  0  0  0  0  0  0  0  0  0  0
    0.7203    1.5683    1.6472 N   0  0  0  0  0  0  0  0  0  0  0  0
    1.5210    0.9664    1.8100 H   0  0  0  0  0  0  0  0  0  0  0  0
    0.6747    2.8558    2.3368 C   0  0  0  0  0  0  0  0  0  0  0  0
   -0.3018    2.9877    2.8079 H   0  0  0  0  0  0  0  0  0  0  0  0
    1.4516    2.8997    3.1011 H   0  0  0  0  0  0  0  0  0  0  0  0
    0.8279    3.6639    1.6193 H   0  0  0  0  0  0  0  0  0  0  0  0
  5  6  2  0  0  0  0
  5  7  1  0  0  0  0
  2  3  1  0  0  0  0
  2  4  1  0  0  0  0
  2  5  1  0  0  0  0
  1  2  1  0  0  0  0
 18 19  2  0  0  0  0
 18 20  1  0  0  0  0
 16 17  1  0  0  0  0
 14 15  2  0  0  0  0
 14 16  1  0  0  0  0
 11 12  1  0  0  0  0
 11 13  1  0  0  0  0
 11 14  1  0  0  0  0
  9 10  1  0  0  0  0
  9 11  1  0  0  0  0
  9 18  1  0  0  0  0
  7  8  1  0  0  0  0
  7  9  1  0  0  0  0
 22 23  1  0  0  0  0
 22 24  1  0  0  0  0
 22 25  1  0  0  0  0
 20 21  1  0  0  0  0
 20 22  1  0  0  0  0
M  END
$$$$
default_name
  -OEChem-02102213163D

 25 24  0     1  0  0  0  0  0999 V2000
   -2.7826   -3.8464    0.7821 H   0  0  0  0  0  0  0  0  0  0  0  0
   -2.8156   -2.8034    0.4711 C   0  0  0  0  0  0  0  0  0  0  0  0
   -3.4336   -2.2354    1.1641 H   0  0  0  0  0  0  0  0  0  0  0  0
   -3.2256   -2.7344   -0.5349 H   0  0  0  0  0  0  0  0  0  0  0  0
   -1.4126   -2.2444    0.4801 C   0  0  0  0  0  0  0  0  0  0  0  0
   -0.4686   -2.9534    0.8001 O   0  0  0  0  0  0  0  0  0  0  0  0
   -1.2736   -0.9704    0.1241 N   0  0  0  0  0  0  0  0  0  0  0  0
   -2.0996   -0.4354   -0.1019 H   0  0  0  0  0  0  0  0  0  0  0  0
   -0.0016   -0.2394    0.1271 C   0  0  1  0  0  0  0  0  0  0  0  0
    0.7164   -0.7963    0.7332 H   0  0  0  0  0  0  0  0  0  0  0  0
    0.5351   -0.1414   -1.3146 C   0  0  0  0  0  0  0  0  0  0  0  0
    1.4756    0.4109   -1.3150 H   0  0  0  0  0  0  0  0  0  0  0  0
    0.7337   -1.1416   -1.7013 H   0  0  0  0  0  0  0  0  0  0  0  0
   -0.4102    0.5860   -2.2660 C   0  0  0  0  0  0  0  0  0  0  0  0
   -1.1104    0.0557   -3.1185 O   0  0  0  0  0  0  0  0  0  0  0  0
   -0.4359    1.9242   -2.1225 O   0  0  0  0  0  0  0  0  0  0  0  0
   -1.0760    2.2442   -2.7591 H   0  0  0  0  0  0  0  0  0  0  0  0
   -0.1923    1.1526    0.7617 C   0  0  0  0  0  0  0  0  0  0  0  0
   -1.1582    1.8438    0.4410 O   0  0  0  0  0  0  0  0  0  0  0  0
    0.7203    1.5683    1.6472 N   0  0  0  0  0  0  0  0  0  0  0  0
    1.5210    0.9664    1.8100 H   0  0  0  0  0  0  0  0  0  0  0  0
    0.6747    2.8558    2.3368 C   0  0  0  0  0  0  0  0  0  0  0  0
   -0.3018    2.9877    2.8079 H   0  0  0  0  0  0  0  0  0  0  0  0
    1.4516    2.8997    3.1011 H   0  0  0  0  0  0  0  0  0  0  0  0
    0.8279    3.6639    1.6193 H   0  0  0  0  0  0  0  0  0  0  0  0
  5  6  2  0  0  0  0
  5  7  1  0  0  0  0
  2  3  1  0  0  0  0
  2  4  1  0  0  0  0
  2  5  1  0  0  0  0
  1  2  1  0  0  0  0
 18 19  2  0  0  0  0
 18 20  1  0  0  0  0
 16 17  1  0  0  0  0
 14 15  2  0  0  0  0
 14 16  1  0  0  0  0
 11 12  1  0  0  0  0
 11 13  1  0  0  0  0
 11 14  1  0  0  0  0
  9 10  1  0  0  0  0
  9 11  1  0  0  0  0
  9 18  1  0  0  0  0
  7  8  1  0  0  0  0
  7  9  1  0  0  0  0
 22 23  1  0  0  0  0
 22 24  1  0  0  0  0
 22 25  1  0  0  0  0
 20 21  1  0  0  0  0
 20 22  1  0  0  0  0
M  END
$$$$
default_name
  -OEChem-02102213163D

 25 24  0     1  0  0  0  0  0999 V2000
   -2.7826   -3.8464    0.7821 H   0  0  0  0  0  0  0  0  0  0  0  0
   -2.8156   -2.8034    0.4711 C   0  0  0  0  0  0  0  0  0  0  0  0
   -3.4336   -2.2354    1.1641 H   0  0  0  0  0  0  0  0  0  0  0  0
   -3.2256   -2.7344   -0.5349 H   0  0  0  0  0  0  0  0  0  0  0  0
   -1.4126   -2.2444    0.4801 C   0  0  0  0  0  0  0  0  0  0  0  0
   -0.4686   -2.9534    0.8001 O   0  0  0  0  0  0  0  0  0  0  0  0
   -1.2736   -0.9704    0.1241 N   0  0  0  0  0  0  0  0  0  0  0  0
   -2.0996   -0.4354   -0.1019 H   0  0  0  0  0  0  0  0  0  0  0  0
   -0.0016   -0.2394    0.1271 C   0  0  1  0  0  0  0  0  0  0  0  0
    0.7164   -0.7963    0.7332 H   0  0  0  0  0  0  0  0  0  0  0  0
    0.5351   -0.1414   -1.3146 C   0  0  0  0  0  0  0  0  0  0  0  0
    1.4756    0.4109   -1.3150 H   0  0  0  0  0  0  0  0  0  0  0  0
    0.7337   -1.1416   -1.7013 H   0  0  0  0  0  0  0  0  0  0  0  0
   -0.4102    0.5860   -2.2660 C   0  0  0  0  0  0  0  0  0  0  0  0
   -1.2924    0.0617   -2.9331 O   0  0  0  0  0  0  0  0  0  0  0  0
   -0.2133    1.9150   -2.3508 O   0  0  0  0  0  0  0  0  0  0  0  0
   -0.8784    2.2406   -2.9581 H   0  0  0  0  0  0  0  0  0  0  0  0
   -0.1923    1.1526    0.7617 C   0  0  0  0  0  0  0  0  0  0  0  0
   -1.1582    1.8438    0.4410 O   0  0  0  0  0  0  0  0  0  0  0  0
    0.7203    1.5683    1.6472 N   0  0  0  0  0  0  0  0  0  0  0  0
    1.5210    0.9664    1.8100 H   0  0  0  0  0  0  0  0  0  0  0  0
    0.6747    2.8558    2.3368 C   0  0  0  0  0  0  0  0  0  0  0  0
   -0.3018    2.9877    2.8079 H   0  0  0  0  0  0  0  0  0  0  0  0
    1.4516    2.8997    3.1011 H   0  0  0  0  0  0  0  0  0  0  0  0
    0.8279    3.6639    1.6193 H   0  0  0  0  0  0  0  0  0  0  0  0
  5  6  2  0  0  0  0
  5  7  1  0  0  0  0
  2  3  1  0  0  0  0
  2  4  1  0  0  0  0
  2  5  1  0  0  0  0
  1  2  1  0  0  0  0
 18 19  2  0  0  0  0
 18 20  1  0  0  0  0
 16 17  1  0  0  0  0
 14 15  2  0  0  0  0
 14 16  1  0  0  0  0
 11 12  1  0  0  0  0
 11 13  1  0  0  0  0
 11 14  1  0  0  0  0
  9 10  1  0  0  0  0
  9 11  1  0  0  0  0
  9 18  1  0  0  0  0
  7  8  1  0  0  0  0
  7  9  1  0  0  0  0
 22 23  1  0  0  0  0
 22 24  1  0  0  0  0
 22 25  1  0  0  0  0
 20 21  1  0  0  0  0
 20 22  1  0  0  0  0
M  END
$$$$
default_name
  -OEChem-02102213163D

 25 24  0     1  0  0  0  0  0999 V2000
   -2.7826   -3.8464    0.7821 H   0  0  0  0  0  0  0  0  0  0  0  0
   -2.8156   -2.8034    0.4711 C   0  0  0  0  0  0  0  0  0  0  0  0
   -3.4336   -2.2354    1.1641 H   0  0  0  0  0  0  0  0  0  0  0  0
   -3.2256   -2.7344   -0.5349 H   0  0  0  0  0  0  0  0  0  0  0  0
   -1.4126   -2.2444    0.4801 C   0  0  0  0  0  0  0  0  0  0  0  0
   -0.4686   -2.9534    0.8001 O   0  0  0  0  0  0  0  0  0  0  0  0
   -1.2736   -0.9704    0.1241 N   0  0  0  0  0  0  0  0  0  0  0  0
   -2.0996   -0.4354   -0.1019 H   0  0  0  0  0  0  0  0  0  0  0  0
   -0.0016   -0.2394    0.1271 C   0  0  1  0  0  0  0  0  0  0  0  0
    0.7164   -0.7963    0.7332 H   0  0  0  0  0  0  0  0  0  0  0  0
    0.5351   -0.1414   -1.3146 C   0  0  0  0  0  0  0  0  0  0  0  0
    1.4756    0.4109   -1.3150 H   0  0  0  0  0  0  0  0  0  0  0  0
    0.7337   -1.1416   -1.7013 H   0  0  0  0  0  0  0  0  0  0  0  0
   -0.4102    0.5860   -2.2660 C   0  0  0  0  0  0  0  0  0  0  0  0
   -1.4443    0.1265   -2.7326 O   0  0  0  0  0  0  0  0  0  0  0  0
   -0.0279    1.8335   -2.5973 O   0  0  0  0  0  0  0  0  0  0  0  0
   -0.7127    2.1733   -3.1741 H   0  0  0  0  0  0  0  0  0  0  0  0
   -0.1923    1.1526    0.7617 C   0  0  0  0  0  0  0  0  0  0  0  0
   -1.1582    1.8438    0.4410 O   0  0  0  0  0  0  0  0  0  0  0  0
    0.7203    1.5683    1.6472 N   0  0  0  0  0  0  0  0  0  0  0  0
    1.5210    0.9664    1.8100 H   0  0  0  0  0  0  0  0  0  0  0  0
    0.6747    2.8558    2.3368 C   0  0  0  0  0  0  0  0  0  0  0  0
   -0.3018    2.9877    2.8079 H   0  0  0  0  0  0  0  0  0  0  0  0
    1.4516    2.8997    3.1011 H   0  0  0  0  0  0  0  0  0  0  0  0
    0.8279    3.6639    1.6193 H   0  0  0  0  0  0  0  0  0  0  0  0
  5  6  2  0  0  0  0
  5  7  1  0  0  0  0
  2  3  1  0  0  0  0
  2  4  1  0  0  0  0
  2  5  1  0  0  0  0
  1  2  1  0  0  0  0
 18 19  2  0  0  0  0
 18 20  1  0  0  0  0
 16 17  1  0  0  0  0
 14 15  2  0  0  0  0
 14 16  1  0  0  0  0
 11 12  1  0  0  0  0
 11 13  1  0  0  0  0
 11 14  1  0  0  0  0
  9 10  1  0  0  0  0
  9 11  1  0  0  0  0
  9 18  1  0  0  0  0
  7  8  1  0  0  0  0
  7  9  1  0  0  0  0
 22 23  1  0  0  0  0
 22 24  1  0  0  0  0
 22 25  1  0  0  0  0
 20 21  1  0  0  0  0
 20 22  1  0  0  0  0
M  END
$$$$
default_name
  -OEChem-02102213163D

 25 24  0     1  0  0  0  0  0999 V2000
   -2.7826   -3.8464    0.7821 H   0  0  0  0  0  0  0  0  0  0  0  0
   -2.8156   -2.8034    0.4711 C   0  0  0  0  0  0  0  0  0  0  0  0
   -3.4336   -2.2354    1.1641 H   0  0  0  0  0  0  0  0  0  0  0  0
   -3.2256   -2.7344   -0.5349 H   0  0  0  0  0  0  0  0  0  0  0  0
   -1.4126   -2.2444    0.4801 C   0  0  0  0  0  0  0  0  0  0  0  0
   -0.4686   -2.9534    0.8001 O   0  0  0  0  0  0  0  0  0  0  0  0
   -1.2736   -0.9704    0.1241 N   0  0  0  0  0  0  0  0  0  0  0  0
   -2.0996   -0.4354   -0.1019 H   0  0  0  0  0  0  0  0  0  0  0  0
   -0.0016   -0.2394    0.1271 C   0  0  1  0  0  0  0  0  0  0  0  0
    0.7164   -0.7963    0.7332 H   0  0  0  0  0  0  0  0  0  0  0  0
    0.5351   -0.1414   -1.3146 C   0  0  0  0  0  0  0  0  0  0  0  0
    1.4756    0.4109   -1.3150 H   0  0  0  0  0  0  0  0  0  0  0  0
    0.7337   -1.1416   -1.7013 H   0  0  0  0  0  0  0  0  0  0  0  0
   -0.4102    0.5860   -2.2660 C   0  0  0  0  0  0  0  0  0  0  0  0
   -1.5559    0.2459   -2.5305 O   0  0  0  0  0  0  0  0  0  0  0  0
    0.1076    1.6853   -2.8452 O   0  0  0  0  0  0  0  0  0  0  0  0
   -0.5902    2.0470   -3.3925 H   0  0  0  0  0  0  0  0  0  0  0  0
   -0.1923    1.1526    0.7617 C   0  0  0  0  0  0  0  0  0  0  0  0
   -1.1582    1.8438    0.4410 O   0  0  0  0  0  0  0  0  0  0  0  0
    0.7203    1.5683    1.6472 N   0  0  0  0  0  0  0  0  0  0  0  0
    1.5210    0.9664    1.8100 H   0  0  0  0  0  0  0  0  0  0  0  0
    0.6747    2.8558    2.3368 C   0  0  0  0  0  0  0  0  0  0  0  0
   -0.3018    2.9877    2.8079 H   0  0  0  0  0  0  0  0  0  0  0  0
    1.4516    2.8997    3.1011 H   0  0  0  0  0  0  0  0  0  0  0  0
    0.8279    3.6639    1.6193 H   0  0  0  0  0  0  0  0  0  0  0  0
  5  6  2  0  0  0  0
  5  7  1  0  0  0  0
  2  3  1  0  0  0  0
  2  4  1  0  0  0  0
  2  5  1  0  0  0  0
  1  2  1  0  0  0  0
 18 19  2  0  0  0  0
 18 20  1  0  0  0  0
 16 17  1  0  0  0  0
 14 15  2  0  0  0  0
 14 16  1  0  0  0  0
 11 12  1  0  0  0  0
 11 13  1  0  0  0  0
 11 14  1  0  0  0  0
  9 10  1  0  0  0  0
  9 11  1  0  0  0  0
  9 18  1  0  0  0  0
  7  8  1  0  0  0  0
  7  9  1  0  0  0  0
 22 23  1  0  0  0  0
 22 24  1  0  0  0  0
 22 25  1  0  0  0  0
 20 21  1  0  0  0  0
 20 22  1  0  0  0  0
M  END
$$$$
default_name
  -OEChem-02102213163D

 25 24  0     1  0  0  0  0  0999 V2000
   -2.7826   -3.8464    0.7821 H   0  0  0  0  0  0  0  0  0  0  0  0
   -2.8156   -2.8034    0.4711 C   0  0  0  0  0  0  0  0  0  0  0  0
   -3.4336   -2.2354    1.1641 H   0  0  0  0  0  0  0  0  0  0  0  0
   -3.2256   -2.7344   -0.5349 H   0  0  0  0  0  0  0  0  0  0  0  0
   -1.4126   -2.2444    0.4801 C   0  0  0  0  0  0  0  0  0  0  0  0
   -0.4686   -2.9534    0.8001 O   0  0  0  0  0  0  0  0  0  0  0  0
   -1.2736   -0.9704    0.1241 N   0  0  0  0  0  0  0  0  0  0  0  0
   -2.0996   -0.4354   -0.1019 H   0  0  0  0  0  0  0  0  0  0  0  0
   -0.0016   -0.2394    0.1271 C   0  0  1  0  0  0  0  0  0  0  0  0
    0.7164   -0.7963    0.7332 H   0  0  0  0  0  0  0  0  0  0  0  0
    0.5351   -0.1414   -1.3146 C   0  0  0  0  0  0  0  0  0  0  0  0
    1.4756    0.4109   -1.3150 H   0  0  0  0  0  0  0  0  0  0  0  0
    0.7337   -1.1416   -1.7013 H   0  0  0  0  0  0  0  0  0  0  0  0
   -0.4102    0.5860   -2.2660 C   0  0  0  0  0  0  0  0  0  0  0  0
   -1.6194    0.4115   -2.3407 O   0  0  0  0  0  0  0  0  0  0  0  0
    0.1839    1.4806   -3.0776 O   0  0  0  0  0  0  0  0  0  0  0  0
   -0.5192    1.8702   -3.5982 H   0  0  0  0  0  0  0  0  0  0  0  0
   -0.1923    1.1526    0.7617 C   0  0  0  0  0  0  0  0  0  0  0  0
   -1.1582    1.8438    0.4410 O   0  0  0  0  0  0  0  0  0  0  0  0
    0.7203    1.5683    1.6472 N   0  0  0  0  0  0  0  0  0  0  0  0
    1.5210    0.9664    1.8100 H   0  0  0  0  0  0  0  0  0  0  0  0
    0.6747    2.8558    2.3368 C   0  0  0  0  0  0  0  0  0  0  0  0
   -0.3018    2.9877    2.8079 H   0  0  0  0  0  0  0  0  0  0  0  0
    1.4516    2.8997    3.1011 H   0  0  0  0  0  0  0  0  0  0  0  0
    0.8279    3.6639    1.6193 H   0  0  0  0  0  0  0  0  0  0  0  0
  5  6  2  0  0  0  0
  5  7  1  0  0  0  0
  2  3  1  0  0  0  0
  2  4  1  0  0  0  0
  2  5  1  0  0  0  0
  1  2  1  0  0  0  0
 18 19  2  0  0  0  0
 18 20  1  0  0  0  0
 16 17  1  0  0  0  0
 14 15  2  0  0  0  0
 14 16  1  0  0  0  0
 11 12  1  0  0  0  0
 11 13  1  0  0  0  0
 11 14  1  0  0  0  0
  9 10  1  0  0  0  0
  9 11  1  0  0  0  0
  9 18  1  0  0  0  0
  7  8  1  0  0  0  0
  7  9  1  0  0  0  0
 22 23  1  0  0  0  0
 22 24  1  0  0  0  0
 22 25  1  0  0  0  0
 20 21  1  0  0  0  0
 20 22  1  0  0  0  0
M  END
$$$$
default_name
  -OEChem-02102213163D

 25 24  0     1  0  0  0  0  0999 V2000
   -2.7826   -3.8464    0.7821 H   0  0  0  0  0  0  0  0  0  0  0  0
   -2.8156   -2.8034    0.4711 C   0  0  0  0  0  0  0  0  0  0  0  0
   -3.4336   -2.2354    1.1641 H   0  0  0  0  0  0  0  0  0  0  0  0
   -3.2256   -2.7344   -0.5349 H   0  0  0  0  0  0  0  0  0  0  0  0
   -1.4126   -2.2444    0.4801 C   0  0  0  0  0  0  0  0  0  0  0  0
   -0.4686   -2.9534    0.8001 O   0  0  0  0  0  0  0  0  0  0  0  0
   -1.2736   -0.9704    0.1241 N   0  0  0  0  0  0  0  0  0  0  0  0
   -2.0996   -0.4354   -0.1019 H   0  0  0  0  0  0  0  0  0  0  0  0
   -0.0016   -0.2394    0.1271 C   0  0  1  0  0  0  0  0  0  0  0  0
    0.7164   -0.7963    0.7332 H   0  0  0  0  0  0  0  0  0  0  0  0
    0.5351   -0.1414   -1.3146 C   0  0  0  0  0  0  0  0  0  0  0  0
    1.4756    0.4109   -1.3150 H   0  0  0  0  0  0  0  0  0  0  0  0
    0.7337   -1.1416   -1.7013 H   0  0  0  0  0  0  0  0  0  0  0  0
   -0.4102    0.5860   -2.2660 C   0  0  0  0  0  0  0  0  0  0  0  0
   -1.6306    0.6122   -2.1761 O   0  0  0  0  0  0  0  0  0  0  0  0
    0.1960    1.2333   -3.2787 O   0  0  0  0  0  0  0  0  0  0  0  0
   -0.5045    1.6550   -3.7774 H   0  0  0  0  0  0  0  0  0  0  0  0
   -0.1923    1.1526    0.7617 C   0  0  0  0  0  0  0  0  0  0  0  0
   -1.1582    1.8438    0.4410 O   0  0  0  0  0  0  0  0  0  0  0  0
    0.7203    1.5683    1.6472 N   0  0  0  0  0  0  0  0  0  0  0  0
    1.5210    0.9664    1.8100 H   0  0  0  0  0  0  0  0  0  0  0  0
    0.6747    2.8558    2.3368 C   0  0  0  0  0  0  0  0  0  0  0  0
   -0.3018    2.9877    2.8079 H   0  0  0  0  0  0  0  0  0  0  0  0
    1.4516    2.8997    3.1011 H   0  0  0  0  0  0  0  0  0  0  0  0
    0.8279    3.6639    1.6193 H   0  0  0  0  0  0  0  0  0  0  0  0
  5  6  2  0  0  0  0
  5  7  1  0  0  0  0
  2  3  1  0  0  0  0
  2  4  1  0  0  0  0
  2  5  1  0  0  0  0
  1  2  1  0  0  0  0
 18 19  2  0  0  0  0
 18 20  1  0  0  0  0
 16 17  1  0  0  0  0
 14 15  2  0  0  0  0
 14 16  1  0  0  0  0
 11 12  1  0  0  0  0
 11 13  1  0  0  0  0
 11 14  1  0  0  0  0
  9 10  1  0  0  0  0
  9 11  1  0  0  0  0
  9 18  1  0  0  0  0
  7  8  1  0  0  0  0
  7  9  1  0  0  0  0
 22 23  1  0  0  0  0
 22 24  1  0  0  0  0
 22 25  1  0  0  0  0
 20 21  1  0  0  0  0
 20 22  1  0  0  0  0
M  END
$$$$
default_name
  -OEChem-02102213163D

 25 24  0     1  0  0  0  0  0999 V2000
   -2.7826   -3.8464    0.7821 H   0  0  0  0  0  0  0  0  0  0  0  0
   -2.8156   -2.8034    0.4711 C   0  0  0  0  0  0  0  0  0  0  0  0
   -3.4336   -2.2354    1.1641 H   0  0  0  0  0  0  0  0  0  0  0  0
   -3.2256   -2.7344   -0.5349 H   0  0  0  0  0  0  0  0  0  0  0  0
   -1.4126   -2.2444    0.4801 C   0  0  0  0  0  0  0  0  0  0  0  0
   -0.4686   -2.9534    0.8001 O   0  0  0  0  0  0  0  0  0  0  0  0
   -1.2736   -0.9704    0.1241 N   0  0  0  0  0  0  0  0  0  0  0  0
   -2.0996   -0.4354   -0.1019 H   0  0  0  0  0  0  0  0  0  0  0  0
   -0.0016   -0.2394    0.1271 C   0  0  1  0  0  0  0  0  0  0  0  0
    0.7164   -0.7963    0.7332 H   0  0  0  0  0  0  0  0  0  0  0  0
    0.5351   -0.1414   -1.3146 C   0  0  0  0  0  0  0  0  0  0  0  0
    1.4756    0.4109   -1.3150 H   0  0  0  0  0  0  0  0  0  0  0  0
    0.7337   -1.1416   -1.7013 H   0  0  0  0  0  0  0  0  0  0  0  0
   -0.4102    0.5860   -2.2660 C   0  0  0  0  0  0  0  0  0  0  0  0
   -1.5888    0.8343   -2.0479 O   0  0  0  0  0  0  0  0  0  0  0  0
    0.1429    0.9602   -3.4348 O   0  0  0  0  0  0  0  0  0  0  0  0
   -0.5472    1.4160   -3.9177 H   0  0  0  0  0  0  0  0  0  0  0  0
   -0.1923    1.1526    0.7617 C   0  0  0  0  0  0  0  0  0  0  0  0
   -1.1582    1.8438    0.4410 O   0  0  0  0  0  0  0  0  0  0  0  0
    0.7203    1.5683    1.6472 N   0  0  0  0  0  0  0  0  0  0  0  0
    1.5210    0.9664    1.8100 H   0  0  0  0  0  0  0  0  0  0  0  0
    0.6747    2.8558    2.3368 C   0  0  0  0  0  0  0  0  0  0  0  0
   -0.3018    2.9877    2.8079 H   0  0  0  0  0  0  0  0  0  0  0  0
    1.4516    2.8997    3.1011 H   0  0  0  0  0  0  0  0  0  0  0  0
    0.8279    3.6639    1.6193 H   0  0  0  0  0  0  0  0  0  0  0  0
  5  6  2  0  0  0  0
  5  7  1  0  0  0  0
  2  3  1  0  0  0  0
  2  4  1  0  0  0  0
  2  5  1  0  0  0  0
  1  2  1  0  0  0  0
 18 19  2  0  0  0  0
 18 20  1  0  0  0  0
 16 17  1  0  0  0  0
 14 15  2  0  0  0  0
 14 16  1  0  0  0  0
 11 12  1  0  0  0  0
 11 13  1  0  0  0  0
 11 14  1  0  0  0  0
  9 10  1  0  0  0  0
  9 11  1  0  0  0  0
  9 18  1  0  0  0  0
  7  8  1  0  0  0  0
  7  9  1  0  0  0  0
 22 23  1  0  0  0  0
 22 24  1  0  0  0  0
 22 25  1  0  0  0  0
 20 21  1  0  0  0  0
 20 22  1  0  0  0  0
M  END
$$$$
default_name
  -OEChem-02102213163D

 25 24  0     1  0  0  0  0  0999 V2000
   -2.7826   -3.8464    0.7821 H   0  0  0  0  0  0  0  0  0  0  0  0
   -2.8156   -2.8034    0.4711 C   0  0  0  0  0  0  0  0  0  0  0  0
   -3.4336   -2.2354    1.1641 H   0  0  0  0  0  0  0  0  0  0  0  0
   -3.2256   -2.7344   -0.5349 H   0  0  0  0  0  0  0  0  0  0  0  0
   -1.4126   -2.2444    0.4801 C   0  0  0  0  0  0  0  0  0  0  0  0
   -0.4686   -2.9534    0.8001 O   0  0  0  0  0  0  0  0  0  0  0  0
   -1.2736   -0.9704    0.1241 N   0  0  0  0  0  0  0  0  0  0  0  0
   -2.0996   -0.4354   -0.1019 H   0  0  0  0  0  0  0  0  0  0  0  0
   -0.0016   -0.2394    0.1271 C   0  0  1  0  0  0  0  0  0  0  0  0
    0.7164   -0.7963    0.7332 H   0  0  0  0  0  0  0  0  0  0  0  0
    0.5351   -0.1414   -1.3146 C   0  0  0  0  0  0  0  0  0  0  0  0
    1.4756    0.4109   -1.3150 H   0  0  0  0  0  0  0  0  0  0  0  0
    0.7337   -1.1416   -1.7013 H   0  0  0  0  0  0  0  0  0  0  0  0
   -0.4102    0.5860   -2.2660 C   0  0  0  0  0  0  0  0  0  0  0  0
   -1.4967    1.0626   -1.9648 O   0  0  0  0  0  0  0  0  0  0  0  0
    0.0283    0.6799   -3.5352 O   0  0  0  0  0  0  0  0  0  0  0  0
   -0.6443    1.1695   -4.0097 H   0  0  0  0  0  0  0  0  0  0  0  0
   -0.1923    1.1526    0.7617 C   0  0  0  0  0  0  0  0  0  0  0  0
   -1.1582    1.8438    0.4410 O   0  0  0  0  0  0  0  0  0  0  0  0
    0.7203    1.5683    1.6472 N   0  0  0  0  0  0  0  0  0  0  0  0
    1.5210    0.9664    1.8100 H   0  0  0  0  0  0  0  0  0  0  0  0
    0.6747    2.8558    2.3368 C   0  0  0  0  0  0  0  0  0  0  0  0
   -0.3018    2.9877    2.8079 H   0  0  0  0  0  0  0  0  0  0  0  0
    1.4516    2.8997    3.1011 H   0  0  0  0  0  0  0  0  0  0  0  0
    0.8279    3.6639    1.6193 H   0  0  0  0  0  0  0  0  0  0  0  0
  5  6  2  0  0  0  0
  5  7  1  0  0  0  0
  2  3  1  0  0  0  0
  2  4  1  0  0  0  0
  2  5  1  0  0  0  0
  1  2  1  0  0  0  0
 18 19  2  0  0  0  0
 18 20  1  0  0  0  0
 16 17  1  0  0  0  0
 14 15  2  0  0  0  0
 14 16  1  0  0  0  0
 11 12  1  0  0  0  0
 11 13  1  0  0  0  0
 11 14  1  0  0  0  0
  9 10  1  0  0  0  0
  9 11  1  0  0  0  0
  9 18  1  0  0  0  0
  7  8  1  0  0  0  0
  7  9  1  0  0  0  0
 22 23  1  0  0  0  0
 22 24  1  0  0  0  0
 22 25  1  0  0  0  0
 20 21  1  0  0  0  0
 20 22  1  0  0  0  0
M  END
$$$$
default_name
  -OEChem-02102213163D

 25 24  0     1  0  0  0  0  0999 V2000
   -2.7826   -3.8464    0.7821 H   0  0  0  0  0  0  0  0  0  0  0  0
   -2.8156   -2.8034    0.4711 C   0  0  0  0  0  0  0  0  0  0  0  0
   -3.4336   -2.2354    1.1641 H   0  0  0  0  0  0  0  0  0  0  0  0
   -3.2256   -2.7344   -0.5349 H   0  0  0  0  0  0  0  0  0  0  0  0
   -1.4126   -2.2444    0.4801 C   0  0  0  0  0  0  0  0  0  0  0  0
   -0.4686   -2.9534    0.8001 O   0  0  0  0  0  0  0  0  0  0  0  0
   -1.2736   -0.9704    0.1241 N   0  0  0  0  0  0  0  0  0  0  0  0
   -2.0996   -0.4354   -0.1019 H   0  0  0  0  0  0  0  0  0  0  0  0
   -0.0016   -0.2394    0.1271 C   0  0  1  0  0  0  0  0  0  0  0  0
    0.7164   -0.7963    0.7332 H   0  0  0  0  0  0  0  0  0  0  0  0
    0.5351   -0.1414   -1.3146 C   0  0  0  0  0  0  0  0  0  0  0  0
    1.4756    0.4109   -1.3150 H   0  0  0  0  0  0  0  0  0  0  0  0
    0.7337   -1.1416   -1.7013 H   0  0  0  0  0  0  0  0  0  0  0  0
   -0.4102    0.5860   -2.2660 C   0  0  0  0  0  0  0  0  0  0  0  0
   -1.3606    1.2816   -1.9325 O   0  0  0  0  0  0  0  0  0  0  0  0
   -0.1401    0.4116   -3.5731 O   0  0  0  0  0  0  0  0  0  0  0  0
   -0.7893    0.9323   -4.0471 H   0  0  0  0  0  0  0  0  0  0  0  0
   -0.1923    1.1526    0.7617 C   0  0  0  0  0  0  0  0  0  0  0  0
   -1.1582    1.8438    0.4410 O   0  0  0  0  0  0  0  0  0  0  0  0
    0.7203    1.5683    1.6472 N   0  0  0  0  0  0  0  0  0  0  0  0
    1.5210    0.9664    1.8100 H   0  0  0  0  0  0  0  0  0  0  0  0
    0.6747    2.8558    2.3368 C   0  0  0  0  0  0  0  0  0  0  0  0
   -0.3018    2.9877    2.8079 H   0  0  0  0  0  0  0  0  0  0  0  0
    1.4516    2.8997    3.1011 H   0  0  0  0  0  0  0  0  0  0  0  0
    0.8279    3.6639    1.6193 H   0  0  0  0  0  0  0  0  0  0  0  0
  5  6  2  0  0  0  0
  5  7  1  0  0  0  0
  2  3  1  0  0  0  0
  2  4  1  0  0  0  0
  2  5  1  0  0  0  0
  1  2  1  0  0  0  0
 18 19  2  0  0  0  0
 18 20  1  0  0  0  0
 16 17  1  0  0  0  0
 14 15  2  0  0  0  0
 14 16  1  0  0  0  0
 11 12  1  0  0  0  0
 11 13  1  0  0  0  0
 11 14  1  0  0  0  0
  9 10  1  0  0  0  0
  9 11  1  0  0  0  0
  9 18  1  0  0  0  0
  7  8  1  0  0  0  0
  7  9  1  0  0  0  0
 22 23  1  0  0  0  0
 22 24  1  0  0  0  0
 22 25  1  0  0  0  0
 20 21  1  0  0  0  0
 20 22  1  0  0  0  0
M  END
$$$$
default_name
  -OEChem-02102213163D

 25 24  0     1  0  0  0  0  0999 V2000
   -2.7826   -3.8464    0.7821 H   0  0  0  0  0  0  0  0  0  0  0  0
   -2.8156   -2.8034    0.4711 C   0  0  0  0  0  0  0  0  0  0  0  0
   -3.4336   -2.2354    1.1641 H   0  0  0  0  0  0  0  0  0  0  0  0
   -3.2256   -2.7344   -0.5349 H   0  0  0  0  0  0  0  0  0  0  0  0
   -1.4126   -2.2444    0.4801 C   0  0  0  0  0  0  0  0  0  0  0  0
   -0.4686   -2.9534    0.8001 O   0  0  0  0  0  0  0  0  0  0  0  0
   -1.2736   -0.9704    0.1241 N   0  0  0  0  0  0  0  0  0  0  0  0
   -2.0996   -0.4354   -0.1019 H   0  0  0  0  0  0  0  0  0  0  0  0
   -0.0016   -0.2394    0.1271 C   0  0  1  0  0  0  0  0  0  0  0  0
    0.7164   -0.7963    0.7332 H   0  0  0  0  0  0  0  0  0  0  0  0
    0.5351   -0.1414   -1.3146 C   0  0  0  0  0  0  0  0  0  0  0  0
    1.4756    0.4109   -1.3150 H   0  0  0  0  0  0  0  0  0  0  0  0
    0.7337   -1.1416   -1.7013 H   0  0  0  0  0  0  0  0  0  0  0  0
   -0.4102    0.5860   -2.2660 C   0  0  0  0  0  0  0  0  0  0  0  0
   -1.1899    1.4763   -1.9533 O   0  0  0  0  0  0  0  0  0  0  0  0
   -0.3506    0.1735   -3.5459 O   0  0  0  0  0  0  0  0  0  0  0  0
   -0.9721    0.7206   -4.0272 H   0  0  0  0  0  0  0  0  0  0  0  0
   -0.1923    1.1526    0.7617 C   0  0  0  0  0  0  0  0  0  0  0  0
   -1.1582    1.8438    0.4410 O   0  0  0  0  0  0  0  0  0  0  0  0
    0.7203    1.5683    1.6472 N   0  0  0  0  0  0  0  0  0  0  0  0
    1.5210    0.9664    1.8100 H   0  0  0  0  0  0  0  0  0  0  0  0
    0.6747    2.8558    2.3368 C   0  0  0  0  0  0  0  0  0  0  0  0
   -0.3018    2.9877    2.8079 H   0  0  0  0  0  0  0  0  0  0  0  0
    1.4516    2.8997    3.1011 H   0  0  0  0  0  0  0  0  0  0  0  0
    0.8279    3.6639    1.6193 H   0  0  0  0  0  0  0  0  0  0  0  0
  5  6  2  0  0  0  0
  5  7  1  0  0  0  0
  2  3  1  0  0  0  0
  2  4  1  0  0  0  0
  2  5  1  0  0  0  0
  1  2  1  0  0  0  0
 18 19  2  0  0  0  0
 18 20  1  0  0  0  0
 16 17  1  0  0  0  0
 14 15  2  0  0  0  0
 14 16  1  0  0  0  0
 11 12  1  0  0  0  0
 11 13  1  0  0  0  0
 11 14  1  0  0  0  0
  9 10  1  0  0  0  0
  9 11  1  0  0  0  0
  9 18  1  0  0  0  0
  7  8  1  0  0  0  0
  7  9  1  0  0  0  0
 22 23  1  0  0  0  0
 22 24  1  0  0  0  0
 22 25  1  0  0  0  0
 20 21  1  0  0  0  0
 20 22  1  0  0  0  0
M  END
$$$$
default_name
  -OEChem-02102213163D

 25 24  0     1  0  0  0  0  0999 V2000
   -2.7826   -3.8464    0.7821 H   0  0  0  0  0  0  0  0  0  0  0  0
   -2.8156   -2.8034    0.4711 C   0  0  0  0  0  0  0  0  0  0  0  0
   -3.4336   -2.2354    1.1641 H   0  0  0  0  0  0  0  0  0  0  0  0
   -3.2256   -2.7344   -0.5349 H   0  0  0  0  0  0  0  0  0  0  0  0
   -1.4126   -2.2444    0.4801 C   0  0  0  0  0  0  0  0  0  0  0  0
   -0.4686   -2.9534    0.8001 O   0  0  0  0  0  0  0  0  0  0  0  0
   -1.2736   -0.9704    0.1241 N   0  0  0  0  0  0  0  0  0  0  0  0
   -2.0996   -0.4354   -0.1019 H   0  0  0  0  0  0  0  0  0  0  0  0
   -0.0016   -0.2394    0.1271 C   0  0  1  0  0  0  0  0  0  0  0  0
    0.7164   -0.7963    0.7332 H   0  0  0  0  0  0  0  0  0  0  0  0
    0.5351   -0.1414   -1.3146 C   0  0  0  0  0  0  0  0  0  0  0  0
    1.4756    0.4109   -1.3150 H   0  0  0  0  0  0  0  0  0  0  0  0
    0.7337   -1.1416   -1.7013 H   0  0  0  0  0  0  0  0  0  0  0  0
   -0.4102    0.5860   -2.2660 C   0  0  0  0  0  0  0  0  0  0  0  0
   -0.9961    1.6335   -2.0256 O   0  0  0  0  0  0  0  0  0  0  0  0
   -0.5891   -0.0181   -3.4555 O   0  0  0  0  0  0  0  0  0  0  0  0
   -1.1805    0.5489   -3.9515 H   0  0  0  0  0  0  0  0  0  0  0  0
   -0.1923    1.1526    0.7617 C   0  0  0  0  0  0  0  0  0  0  0  0
   -1.1582    1.8438    0.4410 O   0  0  0  0  0  0  0  0  0  0  0  0
    0.7203    1.5683    1.6472 N   0  0  0  0  0  0  0  0  0  0  0  0
    1.5210    0.9664    1.8100 H   0  0  0  0  0  0  0  0  0  0  0  0
    0.6747    2.8558    2.3368 C   0  0  0  0  0  0  0  0  0  0  0  0
   -0.3018    2.9877    2.8079 H   0  0  0  0  0  0  0  0  0  0  0  0
    1.4516    2.8997    3.1011 H   0  0  0  0  0  0  0  0  0  0  0  0
    0.8279    3.6639    1.6193 H   0  0  0  0  0  0  0  0  0  0  0  0
  5  6  2  0  0  0  0
  5  7  1  0  0  0  0
  2  3  1  0  0  0  0
  2  4  1  0  0  0  0
  2  5  1  0  0  0  0
  1  2  1  0  0  0  0
 18 19  2  0  0  0  0
 18 20  1  0  0  0  0
 16 17  1  0  0  0  0
 14 15  2  0  0  0  0
 14 16  1  0  0  0  0
 11 12  1  0  0  0  0
 11 13  1  0  0  0  0
 11 14  1  0  0  0  0
  9 10  1  0  0  0  0
  9 11  1  0  0  0  0
  9 18  1  0  0  0  0
  7  8  1  0  0  0  0
  7  9  1  0  0  0  0
 22 23  1  0  0  0  0
 22 24  1  0  0  0  0
 22 25  1  0  0  0  0
 20 21  1  0  0  0  0
 20 22  1  0  0  0  0
M  END
$$$$
default_name
  -OEChem-02102213163D

 25 24  0     1  0  0  0  0  0999 V2000
   -2.7826   -3.8464    0.7821 H   0  0  0  0  0  0  0  0  0  0  0  0
   -2.8156   -2.8034    0.4711 C   0  0  0  0  0  0  0  0  0  0  0  0
   -3.4336   -2.2354    1.1641 H   0  0  0  0  0  0  0  0  0  0  0  0
   -3.2256   -2.7344   -0.5349 H   0  0  0  0  0  0  0  0  0  0  0  0
   -1.4126   -2.2444    0.4801 C   0  0  0  0  0  0  0  0  0  0  0  0
   -0.4686   -2.9534    0.8001 O   0  0  0  0  0  0  0  0  0  0  0  0
   -1.2736   -0.9704    0.1241 N   0  0  0  0  0  0  0  0  0  0  0  0
   -2.0996   -0.4354   -0.1019 H   0  0  0  0  0  0  0  0  0  0  0  0
   -0.0016   -0.2394    0.1271 C   0  0  1  0  0  0  0  0  0  0  0  0
    0.7164   -0.7963    0.7332 H   0  0  0  0  0  0  0  0  0  0  0  0
    0.5351   -0.1414   -1.3146 C   0  0  0  0  0  0  0  0  0  0  0  0
    1.4756    0.4109   -1.3150 H   0  0  0  0  0  0  0  0  0  0  0  0
    0.7337   -1.1416   -1.7013 H   0  0  0  0  0  0  0  0  0  0  0  0
   -0.4102    0.5860   -2.2660 C   0  0  0  0  0  0  0  0  0  0  0  0
   -0.7924    1.7425   -2.1446 O   0  0  0  0  0  0  0  0  0  0  0  0
   -0.8392   -0.1502   -3.3080 O   0  0  0  0  0  0  0  0  0  0  0  0
   -1.4002    0.4287   -3.8252 H   0  0  0  0  0  0  0  0  0  0  0  0
   -0.1923    1.1526    0.7617 C   0  0  0  0  0  0  0  0  0  0  0  0
   -1.1582    1.8438    0.4410 O   0  0  0  0  0  0  0  0  0  0  0  0
    0.7203    1.5683    1.6472 N   0  0  0  0  0  0  0  0  0  0  0  0
    1.5210    0.9664    1.8100 H   0  0  0  0  0  0  0  0  0  0  0  0
    0.6747    2.8558    2.3368 C   0  0  0  0  0  0  0  0  0  0  0  0
   -0.3018    2.9877    2.8079 H   0  0  0  0  0  0  0  0  0  0  0  0
    1.4516    2.8997    3.1011 H   0  0  0  0  0  0  0  0  0  0  0  0
    0.8279    3.6639    1.6193 H   0  0  0  0  0  0  0  0  0  0  0  0
  5  6  2  0  0  0  0
  5  7  1  0  0  0  0
  2  3  1  0  0  0  0
  2  4  1  0  0  0  0
  2  5  1  0  0  0  0
  1  2  1  0  0  0  0
 18 19  2  0  0  0  0
 18 20  1  0  0  0  0
 16 17  1  0  0  0  0
 14 15  2  0  0  0  0
 14 16  1  0  0  0  0
 11 12  1  0  0  0  0
 11 13  1  0  0  0  0
 11 14  1  0  0  0  0
  9 10  1  0  0  0  0
  9 11  1  0  0  0  0
  9 18  1  0  0  0  0
  7  8  1  0  0  0  0
  7  9  1  0  0  0  0
 22 23  1  0  0  0  0
 22 24  1  0  0  0  0
 22 25  1  0  0  0  0
 20 21  1  0  0  0  0
 20 22  1  0  0  0  0
M  END
$$$$
default_name
  -OEChem-02102213163D

 25 24  0     1  0  0  0  0  0999 V2000
   -2.7826   -3.8464    0.7821 H   0  0  0  0  0  0  0  0  0  0  0  0
   -2.8156   -2.8034    0.4711 C   0  0  0  0  0  0  0  0  0  0  0  0
   -3.4336   -2.2354    1.1641 H   0  0  0  0  0  0  0  0  0  0  0  0
   -3.2256   -2.7344   -0.5349 H   0  0  0  0  0  0  0  0  0  0  0  0
   -1.4126   -2.2444    0.4801 C   0  0  0  0  0  0  0  0  0  0  0  0
   -0.4686   -2.9534    0.8001 O   0  0  0  0  0  0  0  0  0  0  0  0
   -1.2736   -0.9704    0.1241 N   0  0  0  0  0  0  0  0  0  0  0  0
   -2.0996   -0.4354   -0.1019 H   0  0  0  0  0  0  0  0  0  0  0  0
   -0.0016   -0.2394    0.1271 C   0  0  1  0  0  0  0  0  0  0  0  0
    0.7164   -0.7963    0.7332 H   0  0  0  0  0  0  0  0  0  0  0  0
    0.5351   -0.1414   -1.3146 C   0  0  0  0  0  0  0  0  0  0  0  0
    1.4756    0.4109   -1.3150 H   0  0  0  0  0  0  0  0  0  0  0  0
    0.7337   -1.1416   -1.7013 H   0  0  0  0  0  0  0  0  0  0  0  0
   -0.4102    0.5860   -2.2660 C   0  0  0  0  0  0  0  0  0  0  0  0
   -0.5928    1.7958   -2.3021 O   0  0  0  0  0  0  0  0  0  0  0  0
   -1.0839   -0.2138   -3.1135 O   0  0  0  0  0  0  0  0  0  0  0  0
   -1.6161    0.3684   -3.6567 H   0  0  0  0  0  0  0  0  0  0  0  0
   -0.1923    1.1526    0.7617 C   0  0  0  0  0  0  0  0  0  0  0  0
   -1.1582    1.8438    0.4410 O   0  0  0  0  0  0  0  0  0  0  0  0
    0.7203    1.5683    1.6472 N   0  0  0  0  0  0  0  0  0  0  0  0
    1.5210    0.9664    1.8100 H   0  0  0  0  0  0  0  0  0  0  0  0
    0.6747    2.8558    2.3368 C   0  0  0  0  0  0  0  0  0  0  0  0
   -0.3018    2.9877    2.8079 H   0  0  0  0  0  0  0  0  0  0  0  0
    1.4516    2.8997    3.1011 H   0  0  0  0  0  0  0  0  0  0  0  0
    0.8279    3.6639    1.6193 H   0  0  0  0  0  0  0  0  0  0  0  0
  5  6  2  0  0  0  0
  5  7  1  0  0  0  0
  2  3  1  0  0  0  0
  2  4  1  0  0  0  0
  2  5  1  0  0  0  0
  1  2  1  0  0  0  0
 18 19  2  0  0  0  0
 18 20  1  0  0  0  0
 16 17  1  0  0  0  0
 14 15  2  0  0  0  0
 14 16  1  0  0  0  0
 11 12  1  0  0  0  0
 11 13  1  0  0  0  0
 11 14  1  0  0  0  0
  9 10  1  0  0  0  0
  9 11  1  0  0  0  0
  9 18  1  0  0  0  0
  7  8  1  0  0  0  0
  7  9  1  0  0  0  0
 22 23  1  0  0  0  0
 22 24  1  0  0  0  0
 22 25  1  0  0  0  0
 20 21  1  0  0  0  0
 20 22  1  0  0  0  0
M  END
$$$$
default_name
  -OEChem-02102213163D

 25 24  0     1  0  0  0  0  0999 V2000
   -2.7826   -3.8464    0.7821 H   0  0  0  0  0  0  0  0  0  0  0  0
   -2.8156   -2.8034    0.4711 C   0  0  0  0  0  0  0  0  0  0  0  0
   -3.4336   -2.2354    1.1641 H   0  0  0  0  0  0  0  0  0  0  0  0
   -3.2256   -2.7344   -0.5349 H   0  0  0  0  0  0  0  0  0  0  0  0
   -1.4126   -2.2444    0.4801 C   0  0  0  0  0  0  0  0  0  0  0  0
   -0.4686   -2.9534    0.8001 O   0  0  0  0  0  0  0  0  0  0  0  0
   -1.2736   -0.9704    0.1241 N   0  0  0  0  0  0  0  0  0  0  0  0
   -2.0996   -0.4354   -0.1019 H   0  0  0  0  0  0  0  0  0  0  0  0
   -0.0016   -0.2394    0.1271 C   0  0  1  0  0  0  0  0  0  0  0  0
    0.7164   -0.7963    0.7332 H   0  0  0  0  0  0  0  0  0  0  0  0
    0.5351   -0.1414   -1.3146 C   0  0  0  0  0  0  0  0  0  0  0  0
    1.4756    0.4109   -1.3150 H   0  0  0  0  0  0  0  0  0  0  0  0
    0.7337   -1.1416   -1.7013 H   0  0  0  0  0  0  0  0  0  0  0  0
   -0.4102    0.5860   -2.2660 C   0  0  0  0  0  0  0  0  0  0  0  0
   -0.4109    1.7899   -2.4875 O   0  0  0  0  0  0  0  0  0  0  0  0
   -1.3066   -0.2045   -2.8852 O   0  0  0  0  0  0  0  0  0  0  0  0
   -1.8137    0.3720   -3.4577 H   0  0  0  0  0  0  0  0  0  0  0  0
   -0.1923    1.1526    0.7617 C   0  0  0  0  0  0  0  0  0  0  0  0
   -1.1582    1.8438    0.4410 O   0  0  0  0  0  0  0  0  0  0  0  0
    0.7203    1.5683    1.6472 N   0  0  0  0  0  0  0  0  0  0  0  0
    1.5210    0.9664    1.8100 H   0  0  0  0  0  0  0  0  0  0  0  0
    0.6747    2.8558    2.3368 C   0  0  0  0  0  0  0  0  0  0  0  0
   -0.3018    2.9877    2.8079 H   0  0  0  0  0  0  0  0  0  0  0  0
    1.4516    2.8997    3.1011 H   0  0  0  0  0  0  0  0  0  0  0  0
    0.8279    3.6639    1.6193 H   0  0  0  0  0  0  0  0  0  0  0  0
  5  6  2  0  0  0  0
  5  7  1  0  0  0  0
  2  3  1  0  0  0  0
  2  4  1  0  0  0  0
  2  5  1  0  0  0  0
  1  2  1  0  0  0  0
 18 19  2  0  0  0  0
 18 20  1  0  0  0  0
 16 17  1  0  0  0  0
 14 15  2  0  0  0  0
 14 16  1  0  0  0  0
 11 12  1  0  0  0  0
 11 13  1  0  0  0  0
 11 14  1  0  0  0  0
  9 10  1  0  0  0  0
  9 11  1  0  0  0  0
  9 18  1  0  0  0  0
  7  8  1  0  0  0  0
  7  9  1  0  0  0  0
 22 23  1  0  0  0  0
 22 24  1  0  0  0  0
 22 25  1  0  0  0  0
 20 21  1  0  0  0  0
 20 22  1  0  0  0  0
M  END
$$$$
default_name
  -OEChem-02102213163D

 25 24  0     1  0  0  0  0  0999 V2000
   -2.7826   -3.8464    0.7821 H   0  0  0  0  0  0  0  0  0  0  0  0
   -2.8156   -2.8034    0.4711 C   0  0  0  0  0  0  0  0  0  0  0  0
   -3.4336   -2.2354    1.1641 H   0  0  0  0  0  0  0  0  0  0  0  0
   -3.2256   -2.7344   -0.5349 H   0  0  0  0  0  0  0  0  0  0  0  0
   -1.4126   -2.2444    0.4801 C   0  0  0  0  0  0  0  0  0  0  0  0
   -0.4686   -2.9534    0.8001 O   0  0  0  0  0  0  0  0  0  0  0  0
   -1.2736   -0.9704    0.1241 N   0  0  0  0  0  0  0  0  0  0  0  0
   -2.0996   -0.4354   -0.1019 H   0  0  0  0  0  0  0  0  0  0  0  0
   -0.0016   -0.2394    0.1271 C   0  0  1  0  0  0  0  0  0  0  0  0
    0.7164   -0.7963    0.7332 H   0  0  0  0  0  0  0  0  0  0  0  0
    0.5351   -0.1414   -1.3146 C   0  0  0  0  0  0  0  0  0  0  0  0
    1.4756    0.4109   -1.3150 H   0  0  0  0  0  0  0  0  0  0  0  0
    0.7337   -1.1416   -1.7013 H   0  0  0  0  0  0  0  0  0  0  0  0
   -0.4102    0.5860   -2.2660 C   0  0  0  0  0  0  0  0  0  0  0  0
   -0.2589    1.7250   -2.6880 O   0  0  0  0  0  0  0  0  0  0  0  0
   -1.4920   -0.1230   -2.6388 O   0  0  0  0  0  0  0  0  0  0  0  0
   -1.9793    0.4392   -3.2417 H   0  0  0  0  0  0  0  0  0  0  0  0
   -0.1923    1.1526    0.7617 C   0  0  0  0  0  0  0  0  0  0  0  0
   -1.1582    1.8438    0.4410 O   0  0  0  0  0  0  0  0  0  0  0  0
    0.7203    1.5683    1.6472 N   0  0  0  0  0  0  0  0  0  0  0  0
    1.5210    0.9664    1.8100 H   0  0  0  0  0  0  0  0  0  0  0  0
    0.6747    2.8558    2.3368 C   0  0  0  0  0  0  0  0  0  0  0  0
   -0.3018    2.9877    2.8079 H   0  0  0  0  0  0  0  0  0  0  0  0
    1.4516    2.8997    3.1011 H   0  0  0  0  0  0  0  0  0  0  0  0
    0.8279    3.6639    1.6193 H   0  0  0  0  0  0  0  0  0  0  0  0
  5  6  2  0  0  0  0
  5  7  1  0  0  0  0
  2  3  1  0  0  0  0
  2  4  1  0  0  0  0
  2  5  1  0  0  0  0
  1  2  1  0  0  0  0
 18 19  2  0  0  0  0
 18 20  1  0  0  0  0
 16 17  1  0  0  0  0
 14 15  2  0  0  0  0
 14 16  1  0  0  0  0
 11 12  1  0  0  0  0
 11 13  1  0  0  0  0
 11 14  1  0  0  0  0
  9 10  1  0  0  0  0
  9 11  1  0  0  0  0
  9 18  1  0  0  0  0
  7  8  1  0  0  0  0
  7  9  1  0  0  0  0
 22 23  1  0  0  0  0
 22 24  1  0  0  0  0
 22 25  1  0  0  0  0
 20 21  1  0  0  0  0
 20 22  1  0  0  0  0
M  END
$$$$
default_name
  -OEChem-02102213163D

 25 24  0     1  0  0  0  0  0999 V2000
   -2.7826   -3.8464    0.7821 H   0  0  0  0  0  0  0  0  0  0  0  0
   -2.8156   -2.8034    0.4711 C   0  0  0  0  0  0  0  0  0  0  0  0
   -3.4336   -2.2354    1.1641 H   0  0  0  0  0  0  0  0  0  0  0  0
   -3.2256   -2.7344   -0.5349 H   0  0  0  0  0  0  0  0  0  0  0  0
   -1.4126   -2.2444    0.4801 C   0  0  0  0  0  0  0  0  0  0  0  0
   -0.4686   -2.9534    0.8001 O   0  0  0  0  0  0  0  0  0  0  0  0
   -1.2736   -0.9704    0.1241 N   0  0  0  0  0  0  0  0  0  0  0  0
   -2.0996   -0.4354   -0.1019 H   0  0  0  0  0  0  0  0  0  0  0  0
   -0.0016   -0.2394    0.1271 C   0  0  1  0  0  0  0  0  0  0  0  0
    0.7164   -0.7963    0.7332 H   0  0  0  0  0  0  0  0  0  0  0  0
    0.5351   -0.1414   -1.3146 C   0  0  0  0  0  0  0  0  0  0  0  0
    1.4756    0.4109   -1.3150 H   0  0  0  0  0  0  0  0  0  0  0  0
    0.7337   -1.1416   -1.7013 H   0  0  0  0  0  0  0  0  0  0  0  0
   -0.4102    0.5860   -2.2660 C   0  0  0  0  0  0  0  0  0  0  0  0
   -0.1474    1.6057   -2.8901 O   0  0  0  0  0  0  0  0  0  0  0  0
   -1.6274    0.0251   -2.3908 O   0  0  0  0  0  0  0  0  0  0  0  0
   -2.1019    0.5656   -3.0233 H   0  0  0  0  0  0  0  0  0  0  0  0
   -0.1923    1.1526    0.7617 C   0  0  0  0  0  0  0  0  0  0  0  0
   -1.1582    1.8438    0.4410 O   0  0  0  0  0  0  0  0  0  0  0  0
    0.7203    1.5683    1.6472 N   0  0  0  0  0  0  0  0  0  0  0  0
    1.5210    0.9664    1.8100 H   0  0  0  0  0  0  0  0  0  0  0  0
    0.6747    2.8558    2.3368 C   0  0  0  0  0  0  0  0  0  0  0  0
   -0.3018    2.9877    2.8079 H   0  0  0  0  0  0  0  0  0  0  0  0
    1.4516    2.8997    3.1011 H   0  0  0  0  0  0  0  0  0  0  0  0
    0.8279    3.6639    1.6193 H   0  0  0  0  0  0  0  0  0  0  0  0
  5  6  2  0  0  0  0
  5  7  1  0  0  0  0
  2  3  1  0  0  0  0
  2  4  1  0  0  0  0
  2  5  1  0  0  0  0
  1  2  1  0  0  0  0
 18 19  2  0  0  0  0
 18 20  1  0  0  0  0
 16 17  1  0  0  0  0
 14 15  2  0  0  0  0
 14 16  1  0  0  0  0
 11 12  1  0  0  0  0
 11 13  1  0  0  0  0
 11 14  1  0  0  0  0
  9 10  1  0  0  0  0
  9 11  1  0  0  0  0
  9 18  1  0  0  0  0
  7  8  1  0  0  0  0
  7  9  1  0  0  0  0
 22 23  1  0  0  0  0
 22 24  1  0  0  0  0
 22 25  1  0  0  0  0
 20 21  1  0  0  0  0
 20 22  1  0  0  0  0
M  END
$$$$
default_name
  -OEChem-02102213163D

 25 24  0     1  0  0  0  0  0999 V2000
   -2.7826   -3.8464    0.7821 H   0  0  0  0  0  0  0  0  0  0  0  0
   -2.8156   -2.8034    0.4711 C   0  0  0  0  0  0  0  0  0  0  0  0
   -3.4336   -2.2354    1.1641 H   0  0  0  0  0  0  0  0  0  0  0  0
   -3.2256   -2.7344   -0.5349 H   0  0  0  0  0  0  0  0  0  0  0  0
   -1.4126   -2.2444    0.4801 C   0  0  0  0  0  0  0  0  0  0  0  0
   -0.4686   -2.9534    0.8001 O   0  0  0  0  0  0  0  0  0  0  0  0
   -1.2736   -0.9704    0.1241 N   0  0  0  0  0  0  0  0  0  0  0  0
   -2.0996   -0.4354   -0.1019 H   0  0  0  0  0  0  0  0  0  0  0  0
   -0.0016   -0.2394    0.1271 C   0  0  1  0  0  0  0  0  0  0  0  0
    0.7164   -0.7963    0.7332 H   0  0  0  0  0  0  0  0  0  0  0  0
    0.5351   -0.1414   -1.3146 C   0  0  0  0  0  0  0  0  0  0  0  0
    1.4756    0.4109   -1.3150 H   0  0  0  0  0  0  0  0  0  0  0  0
    0.7337   -1.1416   -1.7013 H   0  0  0  0  0  0  0  0  0  0  0  0
   -0.4102    0.5860   -2.2660 C   0  0  0  0  0  0  0  0  0  0  0  0
   -0.0838    1.4401   -3.0799 O   0  0  0  0  0  0  0  0  0  0  0  0
   -1.7038    0.2298   -2.1584 O   0  0  0  0  0  0  0  0  0  0  0  0
   -2.1729    0.7424   -2.8176 H   0  0  0  0  0  0  0  0  0  0  0  0
   -0.1923    1.1526    0.7617 C   0  0  0  0  0  0  0  0  0  0  0  0
   -1.1582    1.8438    0.4410 O   0  0  0  0  0  0  0  0  0  0  0  0
    0.7203    1.5683    1.6472 N   0  0  0  0  0  0  0  0  0  0  0  0
    1.5210    0.9664    1.8100 H   0  0  0  0  0  0  0  0  0  0  0  0
    0.6747    2.8558    2.3368 C   0  0  0  0  0  0  0  0  0  0  0  0
   -0.3018    2.9877    2.8079 H   0  0  0  0  0  0  0  0  0  0  0  0
    1.4516    2.8997    3.1011 H   0  0  0  0  0  0  0  0  0  0  0  0
    0.8279    3.6639    1.6193 H   0  0  0  0  0  0  0  0  0  0  0  0
  5  6  2  0  0  0  0
  5  7  1  0  0  0  0
  2  3  1  0  0  0  0
  2  4  1  0  0  0  0
  2  5  1  0  0  0  0
  1  2  1  0  0  0  0
 18 19  2  0  0  0  0
 18 20  1  0  0  0  0
 16 17  1  0  0  0  0
 14 15  2  0  0  0  0
 14 16  1  0  0  0  0
 11 12  1  0  0  0  0
 11 13  1  0  0  0  0
 11 14  1  0  0  0  0
  9 10  1  0  0  0  0
  9 11  1  0  0  0  0
  9 18  1  0  0  0  0
  7  8  1  0  0  0  0
  7  9  1  0  0  0  0
 22 23  1  0  0  0  0
 22 24  1  0  0  0  0
 22 25  1  0  0  0  0
 20 21  1  0  0  0  0
 20 22  1  0  0  0  0
M  END
$$$$
default_name
  -OEChem-02102213163D

 25 24  0     1  0  0  0  0  0999 V2000
   -2.7826   -3.8464    0.7821 H   0  0  0  0  0  0  0  0  0  0  0  0
   -2.8156   -2.8034    0.4711 C   0  0  0  0  0  0  0  0  0  0  0  0
   -3.4336   -2.2354    1.1641 H   0  0  0  0  0  0  0  0  0  0  0  0
   -3.2256   -2.7344   -0.5349 H   0  0  0  0  0  0  0  0  0  0  0  0
   -1.4126   -2.2444    0.4801 C   0  0  0  0  0  0  0  0  0  0  0  0
   -0.4686   -2.9534    0.8001 O   0  0  0  0  0  0  0  0  0  0  0  0
   -1.2736   -0.9704    0.1241 N   0  0  0  0  0  0  0  0  0  0  0  0
   -2.0996   -0.4354   -0.1019 H   0  0  0  0  0  0  0  0  0  0  0  0
   -0.0016   -0.2394    0.1271 C   0  0  1  0  0  0  0  0  0  0  0  0
    0.7164   -0.7963    0.7332 H   0  0  0  0  0  0  0  0  0  0  0  0
    0.5351   -0.1414   -1.3146 C   0  0  0  0  0  0  0  0  0  0  0  0
    1.4756    0.4109   -1.3150 H   0  0  0  0  0  0  0  0  0  0  0  0
    0.7337   -1.1416   -1.7013 H   0  0  0  0  0  0  0  0  0  0  0  0
   -0.4102    0.5860   -2.2660 C   0  0  0  0  0  0  0  0  0  0  0  0
   -0.0726    1.2394   -3.2445 O   0  0  0  0  0  0  0  0  0  0  0  0
   -1.7159    0.4772   -1.9573 O   0  0  0  0  0  0  0  0  0  0  0  0
   -2.1875    0.9576   -2.6384 H   0  0  0  0  0  0  0  0  0  0  0  0
   -0.1923    1.1526    0.7617 C   0  0  0  0  0  0  0  0  0  0  0  0
   -1.1582    1.8438    0.4410 O   0  0  0  0  0  0  0  0  0  0  0  0
    0.7203    1.5683    1.6472 N   0  0  0  0  0  0  0  0  0  0  0  0
    1.5210    0.9664    1.8100 H   0  0  0  0  0  0  0  0  0  0  0  0
    0.6747    2.8558    2.3368 C   0  0  0  0  0  0  0  0  0  0  0  0
   -0.3018    2.9877    2.8079 H   0  0  0  0  0  0  0  0  0  0  0  0
    1.4516    2.8997    3.1011 H   0  0  0  0  0  0  0  0  0  0  0  0
    0.8279    3.6639    1.6193 H   0  0  0  0  0  0  0  0  0  0  0  0
  5  6  2  0  0  0  0
  5  7  1  0  0  0  0
  2  3  1  0  0  0  0
  2  4  1  0  0  0  0
  2  5  1  0  0  0  0
  1  2  1  0  0  0  0
 18 19  2  0  0  0  0
 18 20  1  0  0  0  0
 16 17  1  0  0  0  0
 14 15  2  0  0  0  0
 14 16  1  0  0  0  0
 11 12  1  0  0  0  0
 11 13  1  0  0  0  0
 11 14  1  0  0  0  0
  9 10  1  0  0  0  0
  9 11  1  0  0  0  0
  9 18  1  0  0  0  0
  7  8  1  0  0  0  0
  7  9  1  0  0  0  0
 22 23  1  0  0  0  0
 22 24  1  0  0  0  0
 22 25  1  0  0  0  0
 20 21  1  0  0  0  0
 20 22  1  0  0  0  0
M  END
$$$$
default_name
  -OEChem-02102213163D

 25 24  0     1  0  0  0  0  0999 V2000
   -2.7826   -3.8464    0.7821 H   0  0  0  0  0  0  0  0  0  0  0  0
   -2.8156   -2.8034    0.4711 C   0  0  0  0  0  0  0  0  0  0  0  0
   -3.4336   -2.2354    1.1641 H   0  0  0  0  0  0  0  0  0  0  0  0
   -3.2256   -2.7344   -0.5349 H   0  0  0  0  0  0  0  0  0  0  0  0
   -1.4126   -2.2444    0.4801 C   0  0  0  0  0  0  0  0  0  0  0  0
   -0.4686   -2.9534    0.8001 O   0  0  0  0  0  0  0  0  0  0  0  0
   -1.2736   -0.9704    0.1241 N   0  0  0  0  0  0  0  0  0  0  0  0
   -2.0996   -0.4354   -0.1019 H   0  0  0  0  0  0  0  0  0  0  0  0
   -0.0016   -0.2394    0.1271 C   0  0  1  0  0  0  0  0  0  0  0  0
    0.7164   -0.7963    0.7332 H   0  0  0  0  0  0  0  0  0  0  0  0
    0.5351   -0.1414   -1.3146 C   0  0  0  0  0  0  0  0  0  0  0  0
    1.4756    0.4109   -1.3150 H   0  0  0  0  0  0  0  0  0  0  0  0
    0.7337   -1.1416   -1.7013 H   0  0  0  0  0  0  0  0  0  0  0  0
   -0.4102    0.5860   -2.2660 C   0  0  0  0  0  0  0  0  0  0  0  0
   -0.1145    1.0173   -3.3727 O   0  0  0  0  0  0  0  0  0  0  0  0
   -1.6628    0.7503   -1.8012 O   0  0  0  0  0  0  0  0  0  0  0  0
   -2.1449    1.1966   -2.4981 H   0  0  0  0  0  0  0  0  0  0  0  0
   -0.1923    1.1526    0.7617 C   0  0  0  0  0  0  0  0  0  0  0  0
   -1.1582    1.8438    0.4410 O   0  0  0  0  0  0  0  0  0  0  0  0
    0.7203    1.5683    1.6472 N   0  0  0  0  0  0  0  0  0  0  0  0
    1.5210    0.9664    1.8100 H   0  0  0  0  0  0  0  0  0  0  0  0
    0.6747    2.8558    2.3368 C   0  0  0  0  0  0  0  0  0  0  0  0
   -0.3018    2.9877    2.8079 H   0  0  0  0  0  0  0  0  0  0  0  0
    1.4516    2.8997    3.1011 H   0  0  0  0  0  0  0  0  0  0  0  0
    0.8279    3.6639    1.6193 H   0  0  0  0  0  0  0  0  0  0  0  0
  5  6  2  0  0  0  0
  5  7  1  0  0  0  0
  2  3  1  0  0  0  0
  2  4  1  0  0  0  0
  2  5  1  0  0  0  0
  1  2  1  0  0  0  0
 18 19  2  0  0  0  0
 18 20  1  0  0  0  0
 16 17  1  0  0  0  0
 14 15  2  0  0  0  0
 14 16  1  0  0  0  0
 11 12  1  0  0  0  0
 11 13  1  0  0  0  0
 11 14  1  0  0  0  0
  9 10  1  0  0  0  0
  9 11  1  0  0  0  0
  9 18  1  0  0  0  0
  7  8  1  0  0  0  0
  7  9  1  0  0  0  0
 22 23  1  0  0  0  0
 22 24  1  0  0  0  0
 22 25  1  0  0  0  0
 20 21  1  0  0  0  0
 20 22  1  0  0  0  0
M  END
$$$$
default_name
  -OEChem-02102213163D

 25 24  0     1  0  0  0  0  0999 V2000
   -2.7826   -3.8464    0.7821 H   0  0  0  0  0  0  0  0  0  0  0  0
   -2.8156   -2.8034    0.4711 C   0  0  0  0  0  0  0  0  0  0  0  0
   -3.4336   -2.2354    1.1641 H   0  0  0  0  0  0  0  0  0  0  0  0
   -3.2256   -2.7344   -0.5349 H   0  0  0  0  0  0  0  0  0  0  0  0
   -1.4126   -2.2444    0.4801 C   0  0  0  0  0  0  0  0  0  0  0  0
   -0.4686   -2.9534    0.8001 O   0  0  0  0  0  0  0  0  0  0  0  0
   -1.2736   -0.9704    0.1241 N   0  0  0  0  0  0  0  0  0  0  0  0
   -2.0996   -0.4354   -0.1019 H   0  0  0  0  0  0  0  0  0  0  0  0
   -0.0016   -0.2394    0.1271 C   0  0  1  0  0  0  0  0  0  0  0  0
    0.7164   -0.7963    0.7332 H   0  0  0  0  0  0  0  0  0  0  0  0
    0.5351   -0.1414   -1.3146 C   0  0  0  0  0  0  0  0  0  0  0  0
    1.5815    0.1652   -1.2923 H   0  0  0  0  0  0  0  0  0  0  0  0
    0.4828   -1.1200   -1.7932 H   0  0  0  0  0  0  0  0  0  0  0  0
   -0.2103    0.8771   -2.1718 C   0  0  0  0  0  0  0  0  0  0  0  0
    0.0301    1.1337   -3.3443 O   0  0  0  0  0  0  0  0  0  0  0  0
   -1.2033    1.5290   -1.5385 O   0  0  0  0  0  0  0  0  0  0  0  0
   -1.5915    2.1132   -2.1907 H   0  0  0  0  0  0  0  0  0  0  0  0
   -0.1923    1.1526    0.7617 C   0  0  0  0  0  0  0  0  0  0  0  0
   -1.1582    1.8438    0.4410 O   0  0  0  0  0  0  0  0  0  0  0  0
    0.7203    1.5683    1.6472 N   0  0  0  0  0  0  0  0  0  0  0  0
    1.5210    0.9664    1.8100 H   0  0  0  0  0  0  0  0  0  0  0  0
    0.6747    2.8558    2.3368 C   0  0  0  0  0  0  0  0  0  0  0  0
   -0.3018    2.9877    2.8079 H   0  0  0  0  0  0  0  0  0  0  0  0
    1.4516    2.8997    3.1011 H   0  0  0  0  0  0  0  0  0  0  0  0
    0.8279    3.6639    1.6193 H   0  0  0  0  0  0  0  0  0  0  0  0
  5  6  2  0  0  0  0
  5  7  1  0  0  0  0
  2  3  1  0  0  0  0
  2  4  1  0  0  0  0
  2  5  1  0  0  0  0
  1  2  1  0  0  0  0
 18 19  2  0  0  0  0
 18 20  1  0  0  0  0
 16 17  1  0  0  0  0
 14 15  2  0  0  0  0
 14 16  1  0  0  0  0
 11 12  1  0  0  0  0
 11 13  1  0  0  0  0
 11 14  1  0  0  0  0
  9 10  1  0  0  0  0
  9 11  1  0  0  0  0
  9 18  1  0  0  0  0
  7  8  1  0  0  0  0
  7  9  1  0  0  0  0
 22 23  1  0  0  0  0
 22 24  1  0  0  0  0
 22 25  1  0  0  0  0
 20 21  1  0  0  0  0
 20 22  1  0  0  0  0
M  END
$$$$
default_name
  -OEChem-02102213163D

 25 24  0     1  0  0  0  0  0999 V2000
   -2.7826   -3.8464    0.7821 H   0  0  0  0  0  0  0  0  0  0  0  0
   -2.8156   -2.8034    0.4711 C   0  0  0  0  0  0  0  0  0  0  0  0
   -3.4336   -2.2354    1.1641 H   0  0  0  0  0  0  0  0  0  0  0  0
   -3.2256   -2.7344   -0.5349 H   0  0  0  0  0  0  0  0  0  0  0  0
   -1.4126   -2.2444    0.4801 C   0  0  0  0  0  0  0  0  0  0  0  0
   -0.4686   -2.9534    0.8001 O   0  0  0  0  0  0  0  0  0  0  0  0
   -1.2736   -0.9704    0.1241 N   0  0  0  0  0  0  0  0  0  0  0  0
   -2.0996   -0.4354   -0.1019 H   0  0  0  0  0  0  0  0  0  0  0  0
   -0.0016   -0.2394    0.1271 C   0  0  1  0  0  0  0  0  0  0  0  0
    0.7164   -0.7963    0.7332 H   0  0  0  0  0  0  0  0  0  0  0  0
    0.5351   -0.1414   -1.3146 C   0  0  0  0  0  0  0  0  0  0  0  0
    1.5815    0.1652   -1.2923 H   0  0  0  0  0  0  0  0  0  0  0  0
    0.4828   -1.1200   -1.7932 H   0  0  0  0  0  0  0  0  0  0  0  0
   -0.2103    0.8771   -2.1718 C   0  0  0  0  0  0  0  0  0  0  0  0
   -0.1553    0.9579   -3.3919 O   0  0  0  0  0  0  0  0  0  0  0  0
   -0.9746    1.7441   -1.4818 O   0  0  0  0  0  0  0  0  0  0  0  0
   -1.3931    2.3038   -2.1366 H   0  0  0  0  0  0  0  0  0  0  0  0
   -0.1923    1.1526    0.7617 C   0  0  0  0  0  0  0  0  0  0  0  0
   -1.1582    1.8438    0.4410 O   0  0  0  0  0  0  0  0  0  0  0  0
    0.7203    1.5683    1.6472 N   0  0  0  0  0  0  0  0  0  0  0  0
    1.5210    0.9664    1.8100 H   0  0  0  0  0  0  0  0  0  0  0  0
    0.6747    2.8558    2.3368 C   0  0  0  0  0  0  0  0  0  0  0  0
   -0.3018    2.9877    2.8079 H   0  0  0  0  0  0  0  0  0  0  0  0
    1.4516    2.8997    3.1011 H   0  0  0  0  0  0  0  0  0  0  0  0
    0.8279    3.6639    1.6193 H   0  0  0  0  0  0  0  0  0  0  0  0
  5  6  2  0  0  0  0
  5  7  1  0  0  0  0
  2  3  1  0  0  0  0
  2  4  1  0  0  0  0
  2  5  1  0  0  0  0
  1  2  1  0  0  0  0
 18 19  2  0  0  0  0
 18 20  1  0  0  0  0
 16 17  1  0  0  0  0
 14 15  2  0  0  0  0
 14 16  1  0  0  0  0
 11 12  1  0  0  0  0
 11 13  1  0  0  0  0
 11 14  1  0  0  0  0
  9 10  1  0  0  0  0
  9 11  1  0  0  0  0
  9 18  1  0  0  0  0
  7  8  1  0  0  0  0
  7  9  1  0  0  0  0
 22 23  1  0  0  0  0
 22 24  1  0  0  0  0
 22 25  1  0  0  0  0
 20 21  1  0  0  0  0
 20 22  1  0  0  0  0
M  END
$$$$
default_name
  -OEChem-02102213163D

 25 24  0     1  0  0  0  0  0999 V2000
   -2.7826   -3.8464    0.7821 H   0  0  0  0  0  0  0  0  0  0  0  0
   -2.8156   -2.8034    0.4711 C   0  0  0  0  0  0  0  0  0  0  0  0
   -3.4336   -2.2354    1.1641 H   0  0  0  0  0  0  0  0  0  0  0  0
   -3.2256   -2.7344   -0.5349 H   0  0  0  0  0  0  0  0  0  0  0  0
   -1.4126   -2.2444    0.4801 C   0  0  0  0  0  0  0  0  0  0  0  0
   -0.4686   -2.9534    0.8001 O   0  0  0  0  0  0  0  0  0  0  0  0
   -1.2736   -0.9704    0.1241 N   0  0  0  0  0  0  0  0  0  0  0  0
   -2.0996   -0.4354   -0.1019 H   0  0  0  0  0  0  0  0  0  0  0  0
   -0.0016   -0.2394    0.1271 C   0  0  1  0  0  0  0  0  0  0  0  0
    0.7164   -0.7963    0.7332 H   0  0  0  0  0  0  0  0  0  0  0  0
    0.5351   -0.1414   -1.3146 C   0  0  0  0  0  0  0  0  0  0  0  0
    1.5815    0.1652   -1.2923 H   0  0  0  0  0  0  0  0  0  0  0  0
    0.4828   -1.1200   -1.7932 H   0  0  0  0  0  0  0  0  0  0  0  0
   -0.2103    0.8771   -2.1718 C   0  0  0  0  0  0  0  0  0  0  0  0
   -0.3681    0.8091   -3.3837 O   0  0  0  0  0  0  0  0  0  0  0  0
   -0.7127    1.9258   -1.4937 O   0  0  0  0  0  0  0  0  0  0  0  0
   -1.1644    2.4660   -2.1428 H   0  0  0  0  0  0  0  0  0  0  0  0
   -0.1923    1.1526    0.7617 C   0  0  0  0  0  0  0  0  0  0  0  0
   -1.1582    1.8438    0.4410 O   0  0  0  0  0  0  0  0  0  0  0  0
    0.7203    1.5683    1.6472 N   0  0  0  0  0  0  0  0  0  0  0  0
    1.5210    0.9664    1.8100 H   0  0  0  0  0  0  0  0  0  0  0  0
    0.6747    2.8558    2.3368 C   0  0  0  0  0  0  0  0  0  0  0  0
   -0.3018    2.9877    2.8079 H   0  0  0  0  0  0  0  0  0  0  0  0
    1.4516    2.8997    3.1011 H   0  0  0  0  0  0  0  0  0  0  0  0
    0.8279    3.6639    1.6193 H   0  0  0  0  0  0  0  0  0  0  0  0
  5  6  2  0  0  0  0
  5  7  1  0  0  0  0
  2  3  1  0  0  0  0
  2  4  1  0  0  0  0
  2  5  1  0  0  0  0
  1  2  1  0  0  0  0
 18 19  2  0  0  0  0
 18 20  1  0  0  0  0
 16 17  1  0  0  0  0
 14 15  2  0  0  0  0
 14 16  1  0  0  0  0
 11 12  1  0  0  0  0
 11 13  1  0  0  0  0
 11 14  1  0  0  0  0
  9 10  1  0  0  0  0
  9 11  1  0  0  0  0
  9 18  1  0  0  0  0
  7  8  1  0  0  0  0
  7  9  1  0  0  0  0
 22 23  1  0  0  0  0
 22 24  1  0  0  0  0
 22 25  1  0  0  0  0
 20 21  1  0  0  0  0
 20 22  1  0  0  0  0
M  END
$$$$
default_name
  -OEChem-02102213163D

 25 24  0     1  0  0  0  0  0999 V2000
   -2.7826   -3.8464    0.7821 H   0  0  0  0  0  0  0  0  0  0  0  0
   -2.8156   -2.8034    0.4711 C   0  0  0  0  0  0  0  0  0  0  0  0
   -3.4336   -2.2354    1.1641 H   0  0  0  0  0  0  0  0  0  0  0  0
   -3.2256   -2.7344   -0.5349 H   0  0  0  0  0  0  0  0  0  0  0  0
   -1.4126   -2.2444    0.4801 C   0  0  0  0  0  0  0  0  0  0  0  0
   -0.4686   -2.9534    0.8001 O   0  0  0  0  0  0  0  0  0  0  0  0
   -1.2736   -0.9704    0.1241 N   0  0  0  0  0  0  0  0  0  0  0  0
   -2.0996   -0.4354   -0.1019 H   0  0  0  0  0  0  0  0  0  0  0  0
   -0.0016   -0.2394    0.1271 C   0  0  1  0  0  0  0  0  0  0  0  0
    0.7164   -0.7963    0.7332 H   0  0  0  0  0  0  0  0  0  0  0  0
    0.5351   -0.1414   -1.3146 C   0  0  0  0  0  0  0  0  0  0  0  0
    1.5815    0.1652   -1.2923 H   0  0  0  0  0  0  0  0  0  0  0  0
    0.4828   -1.1200   -1.7932 H   0  0  0  0  0  0  0  0  0  0  0  0
   -0.2103    0.8771   -2.1718 C   0  0  0  0  0  0  0  0  0  0  0  0
   -0.5938    0.6973   -3.3202 O   0  0  0  0  0  0  0  0  0  0  0  0
   -0.4353    2.0617   -1.5734 O   0  0  0  0  0  0  0  0  0  0  0  0
   -0.9210    2.5886   -2.2088 H   0  0  0  0  0  0  0  0  0  0  0  0
   -0.1923    1.1526    0.7617 C   0  0  0  0  0  0  0  0  0  0  0  0
   -1.1582    1.8438    0.4410 O   0  0  0  0  0  0  0  0  0  0  0  0
    0.7203    1.5683    1.6472 N   0  0  0  0  0  0  0  0  0  0  0  0
    1.5210    0.9664    1.8100 H   0  0  0  0  0  0  0  0  0  0  0  0
    0.6747    2.8558    2.3368 C   0  0  0  0  0  0  0  0  0  0  0  0
   -0.3018    2.9877    2.8079 H   0  0  0  0  0  0  0  0  0  0  0  0
    1.4516    2.8997    3.1011 H   0  0  0  0  0  0  0  0  0  0  0  0
    0.8279    3.6639    1.6193 H   0  0  0  0  0  0  0  0  0  0  0  0
  5  6  2  0  0  0  0
  5  7  1  0  0  0  0
  2  3  1  0  0  0  0
  2  4  1  0  0  0  0
  2  5  1  0  0  0  0
  1  2  1  0  0  0  0
 18 19  2  0  0  0  0
 18 20  1  0  0  0  0
 16 17  1  0  0  0  0
 14 15  2  0  0  0  0
 14 16  1  0  0  0  0
 11 12  1  0  0  0  0
 11 13  1  0  0  0  0
 11 14  1  0  0  0  0
  9 10  1  0  0  0  0
  9 11  1  0  0  0  0
  9 18  1  0  0  0  0
  7  8  1  0  0  0  0
  7  9  1  0  0  0  0
 22 23  1  0  0  0  0
 22 24  1  0  0  0  0
 22 25  1  0  0  0  0
 20 21  1  0  0  0  0
 20 22  1  0  0  0  0
M  END
$$$$
default_name
  -OEChem-02102213163D

 25 24  0     1  0  0  0  0  0999 V2000
   -2.7826   -3.8464    0.7821 H   0  0  0  0  0  0  0  0  0  0  0  0
   -2.8156   -2.8034    0.4711 C   0  0  0  0  0  0  0  0  0  0  0  0
   -3.4336   -2.2354    1.1641 H   0  0  0  0  0  0  0  0  0  0  0  0
   -3.2256   -2.7344   -0.5349 H   0  0  0  0  0  0  0  0  0  0  0  0
   -1.4126   -2.2444    0.4801 C   0  0  0  0  0  0  0  0  0  0  0  0
   -0.4686   -2.9534    0.8001 O   0  0  0  0  0  0  0  0  0  0  0  0
   -1.2736   -0.9704    0.1241 N   0  0  0  0  0  0  0  0  0  0  0  0
   -2.0996   -0.4354   -0.1019 H   0  0  0  0  0  0  0  0  0  0  0  0
   -0.0016   -0.2394    0.1271 C   0  0  1  0  0  0  0  0  0  0  0  0
    0.7164   -0.7963    0.7332 H   0  0  0  0  0  0  0  0  0  0  0  0
    0.5351   -0.1414   -1.3146 C   0  0  0  0  0  0  0  0  0  0  0  0
    1.5815    0.1652   -1.2923 H   0  0  0  0  0  0  0  0  0  0  0  0
    0.4828   -1.1200   -1.7932 H   0  0  0  0  0  0  0  0  0  0  0  0
   -0.2103    0.8771   -2.1718 C   0  0  0  0  0  0  0  0  0  0  0  0
   -0.8172    0.6302   -3.2057 O   0  0  0  0  0  0  0  0  0  0  0  0
   -0.1614    2.1426   -1.7155 O   0  0  0  0  0  0  0  0  0  0  0  0
   -0.6794    2.6634   -2.3300 H   0  0  0  0  0  0  0  0  0  0  0  0
   -0.1923    1.1526    0.7617 C   0  0  0  0  0  0  0  0  0  0  0  0
   -1.1582    1.8438    0.4410 O   0  0  0  0  0  0  0  0  0  0  0  0
    0.7203    1.5683    1.6472 N   0  0  0  0  0  0  0  0  0  0  0  0
    1.5210    0.9664    1.8100 H   0  0  0  0  0  0  0  0  0  0  0  0
    0.6747    2.8558    2.3368 C   0  0  0  0  0  0  0  0  0  0  0  0
   -0.3018    2.9877    2.8079 H   0  0  0  0  0  0  0  0  0  0  0  0
    1.4516    2.8997    3.1011 H   0  0  0  0  0  0  0  0  0  0  0  0
    0.8279    3.6639    1.6193 H   0  0  0  0  0  0  0  0  0  0  0  0
  5  6  2  0  0  0  0
  5  7  1  0  0  0  0
  2  3  1  0  0  0  0
  2  4  1  0  0  0  0
  2  5  1  0  0  0  0
  1  2  1  0  0  0  0
 18 19  2  0  0  0  0
 18 20  1  0  0  0  0
 16 17  1  0  0  0  0
 14 15  2  0  0  0  0
 14 16  1  0  0  0  0
 11 12  1  0  0  0  0
 11 13  1  0  0  0  0
 11 14  1  0  0  0  0
  9 10  1  0  0  0  0
  9 11  1  0  0  0  0
  9 18  1  0  0  0  0
  7  8  1  0  0  0  0
  7  9  1  0  0  0  0
 22 23  1  0  0  0  0
 22 24  1  0  0  0  0
 22 25  1  0  0  0  0
 20 21  1  0  0  0  0
 20 22  1  0  0  0  0
M  END
$$$$
default_name
  -OEChem-02102213163D

 25 24  0     1  0  0  0  0  0999 V2000
   -2.7826   -3.8464    0.7821 H   0  0  0  0  0  0  0  0  0  0  0  0
   -2.8156   -2.8034    0.4711 C   0  0  0  0  0  0  0  0  0  0  0  0
   -3.4336   -2.2354    1.1641 H   0  0  0  0  0  0  0  0  0  0  0  0
   -3.2256   -2.7344   -0.5349 H   0  0  0  0  0  0  0  0  0  0  0  0
   -1.4126   -2.2444    0.4801 C   0  0  0  0  0  0  0  0  0  0  0  0
   -0.4686   -2.9534    0.8001 O   0  0  0  0  0  0  0  0  0  0  0  0
   -1.2736   -0.9704    0.1241 N   0  0  0  0  0  0  0  0  0  0  0  0
   -2.0996   -0.4354   -0.1019 H   0  0  0  0  0  0  0  0  0  0  0  0
   -0.0016   -0.2394    0.1271 C   0  0  1  0  0  0  0  0  0  0  0  0
    0.7164   -0.7963    0.7332 H   0  0  0  0  0  0  0  0  0  0  0  0
    0.5351   -0.1414   -1.3146 C   0  0  0  0  0  0  0  0  0  0  0  0
    1.5815    0.1652   -1.2923 H   0  0  0  0  0  0  0  0  0  0  0  0
    0.4828   -1.1200   -1.7932 H   0  0  0  0  0  0  0  0  0  0  0  0
   -0.2103    0.8771   -2.1718 C   0  0  0  0  0  0  0  0  0  0  0  0
   -1.0229    0.6123   -3.0481 O   0  0  0  0  0  0  0  0  0  0  0  0
    0.0904    2.1629   -1.9103 O   0  0  0  0  0  0  0  0  0  0  0  0
   -0.4562    2.6851   -2.4984 H   0  0  0  0  0  0  0  0  0  0  0  0
   -0.1923    1.1526    0.7617 C   0  0  0  0  0  0  0  0  0  0  0  0
   -1.1582    1.8438    0.4410 O   0  0  0  0  0  0  0  0  0  0  0  0
    0.7203    1.5683    1.6472 N   0  0  0  0  0  0  0  0  0  0  0  0
    1.5210    0.9664    1.8100 H   0  0  0  0  0  0  0  0  0  0  0  0
    0.6747    2.8558    2.3368 C   0  0  0  0  0  0  0  0  0  0  0  0
   -0.3018    2.9877    2.8079 H   0  0  0  0  0  0  0  0  0  0  0  0
    1.4516    2.8997    3.1011 H   0  0  0  0  0  0  0  0  0  0  0  0
    0.8279    3.6639    1.6193 H   0  0  0  0  0  0  0  0  0  0  0  0
  5  6  2  0  0  0  0
  5  7  1  0  0  0  0
  2  3  1  0  0  0  0
  2  4  1  0  0  0  0
  2  5  1  0  0  0  0
  1  2  1  0  0  0  0
 18 19  2  0  0  0  0
 18 20  1  0  0  0  0
 16 17  1  0  0  0  0
 14 15  2  0  0  0  0
 14 16  1  0  0  0  0
 11 12  1  0  0  0  0
 11 13  1  0  0  0  0
 11 14  1  0  0  0  0
  9 10  1  0  0  0  0
  9 11  1  0  0  0  0
  9 18  1  0  0  0  0
  7  8  1  0  0  0  0
  7  9  1  0  0  0  0
 22 23  1  0  0  0  0
 22 24  1  0  0  0  0
 22 25  1  0  0  0  0
 20 21  1  0  0  0  0
 20 22  1  0  0  0  0
M  END
$$$$
default_name
  -OEChem-02102213163D

 25 24  0     1  0  0  0  0  0999 V2000
   -2.7826   -3.8464    0.7821 H   0  0  0  0  0  0  0  0  0  0  0  0
   -2.8156   -2.8034    0.4711 C   0  0  0  0  0  0  0  0  0  0  0  0
   -3.4336   -2.2354    1.1641 H   0  0  0  0  0  0  0  0  0  0  0  0
   -3.2256   -2.7344   -0.5349 H   0  0  0  0  0  0  0  0  0  0  0  0
   -1.4126   -2.2444    0.4801 C   0  0  0  0  0  0  0  0  0  0  0  0
   -0.4686   -2.9534    0.8001 O   0  0  0  0  0  0  0  0  0  0  0  0
   -1.2736   -0.9704    0.1241 N   0  0  0  0  0  0  0  0  0  0  0  0
   -2.0996   -0.4354   -0.1019 H   0  0  0  0  0  0  0  0  0  0  0  0
   -0.0016   -0.2394    0.1271 C   0  0  1  0  0  0  0  0  0  0  0  0
    0.7164   -0.7963    0.7332 H   0  0  0  0  0  0  0  0  0  0  0  0
    0.5351   -0.1414   -1.3146 C   0  0  0  0  0  0  0  0  0  0  0  0
    1.5815    0.1652   -1.2923 H   0  0  0  0  0  0  0  0  0  0  0  0
    0.4828   -1.1200   -1.7932 H   0  0  0  0  0  0  0  0  0  0  0  0
   -0.2103    0.8771   -2.1718 C   0  0  0  0  0  0  0  0  0  0  0  0
   -1.1970    0.6449   -2.8580 O   0  0  0  0  0  0  0  0  0  0  0  0
    0.3029    2.1212   -2.1446 O   0  0  0  0  0  0  0  0  0  0  0  0
   -0.2665    2.6523   -2.7023 H   0  0  0  0  0  0  0  0  0  0  0  0
   -0.1923    1.1526    0.7617 C   0  0  0  0  0  0  0  0  0  0  0  0
   -1.1582    1.8438    0.4410 O   0  0  0  0  0  0  0  0  0  0  0  0
    0.7203    1.5683    1.6472 N   0  0  0  0  0  0  0  0  0  0  0  0
    1.5210    0.9664    1.8100 H   0  0  0  0  0  0  0  0  0  0  0  0
    0.6747    2.8558    2.3368 C   0  0  0  0  0  0  0  0  0  0  0  0
   -0.3018    2.9877    2.8079 H   0  0  0  0  0  0  0  0  0  0  0  0
    1.4516    2.8997    3.1011 H   0  0  0  0  0  0  0  0  0  0  0  0
    0.8279    3.6639    1.6193 H   0  0  0  0  0  0  0  0  0  0  0  0
  5  6  2  0  0  0  0
  5  7  1  0  0  0  0
  2  3  1  0  0  0  0
  2  4  1  0  0  0  0
  2  5  1  0  0  0  0
  1  2  1  0  0  0  0
 18 19  2  0  0  0  0
 18 20  1  0  0  0  0
 16 17  1  0  0  0  0
 14 15  2  0  0  0  0
 14 16  1  0  0  0  0
 11 12  1  0  0  0  0
 11 13  1  0  0  0  0
 11 14  1  0  0  0  0
  9 10  1  0  0  0  0
  9 11  1  0  0  0  0
  9 18  1  0  0  0  0
  7  8  1  0  0  0  0
  7  9  1  0  0  0  0
 22 23  1  0  0  0  0
 22 24  1  0  0  0  0
 22 25  1  0  0  0  0
 20 21  1  0  0  0  0
 20 22  1  0  0  0  0
M  END
$$$$
default_name
  -OEChem-02102213163D

 25 24  0     1  0  0  0  0  0999 V2000
   -2.7826   -3.8464    0.7821 H   0  0  0  0  0  0  0  0  0  0  0  0
   -2.8156   -2.8034    0.4711 C   0  0  0  0  0  0  0  0  0  0  0  0
   -3.4336   -2.2354    1.1641 H   0  0  0  0  0  0  0  0  0  0  0  0
   -3.2256   -2.7344   -0.5349 H   0  0  0  0  0  0  0  0  0  0  0  0
   -1.4126   -2.2444    0.4801 C   0  0  0  0  0  0  0  0  0  0  0  0
   -0.4686   -2.9534    0.8001 O   0  0  0  0  0  0  0  0  0  0  0  0
   -1.2736   -0.9704    0.1241 N   0  0  0  0  0  0  0  0  0  0  0  0
   -2.0996   -0.4354   -0.1019 H   0  0  0  0  0  0  0  0  0  0  0  0
   -0.0016   -0.2394    0.1271 C   0  0  1  0  0  0  0  0  0  0  0  0
    0.7164   -0.7963    0.7332 H   0  0  0  0  0  0  0  0  0  0  0  0
    0.5351   -0.1414   -1.3146 C   0  0  0  0  0  0  0  0  0  0  0  0
    1.5815    0.1652   -1.2923 H   0  0  0  0  0  0  0  0  0  0  0  0
    0.4828   -1.1200   -1.7932 H   0  0  0  0  0  0  0  0  0  0  0  0
   -0.2103    0.8771   -2.1718 C   0  0  0  0  0  0  0  0  0  0  0  0
   -1.3276    0.7257   -2.6484 O   0  0  0  0  0  0  0  0  0  0  0  0
    0.4616    2.0205   -2.4023 O   0  0  0  0  0  0  0  0  0  0  0  0
   -0.1232    2.5672   -2.9279 H   0  0  0  0  0  0  0  0  0  0  0  0
   -0.1923    1.1526    0.7617 C   0  0  0  0  0  0  0  0  0  0  0  0
   -1.1582    1.8438    0.4410 O   0  0  0  0  0  0  0  0  0  0  0  0
    0.7203    1.5683    1.6472 N   0  0  0  0  0  0  0  0  0  0  0  0
    1.5210    0.9664    1.8100 H   0  0  0  0  0  0  0  0  0  0  0  0
    0.6747    2.8558    2.3368 C   0  0  0  0  0  0  0  0  0  0  0  0
   -0.3018    2.9877    2.8079 H   0  0  0  0  0  0  0  0  0  0  0  0
    1.4516    2.8997    3.1011 H   0  0  0  0  0  0  0  0  0  0  0  0
    0.8279    3.6639    1.6193 H   0  0  0  0  0  0  0  0  0  0  0  0
  5  6  2  0  0  0  0
  5  7  1  0  0  0  0
  2  3  1  0  0  0  0
  2  4  1  0  0  0  0
  2  5  1  0  0  0  0
  1  2  1  0  0  0  0
 18 19  2  0  0  0  0
 18 20  1  0  0  0  0
 16 17  1  0  0  0  0
 14 15  2  0  0  0  0
 14 16  1  0  0  0  0
 11 12  1  0  0  0  0
 11 13  1  0  0  0  0
 11 14  1  0  0  0  0
  9 10  1  0  0  0  0
  9 11  1  0  0  0  0
  9 18  1  0  0  0  0
  7  8  1  0  0  0  0
  7  9  1  0  0  0  0
 22 23  1  0  0  0  0
 22 24  1  0  0  0  0
 22 25  1  0  0  0  0
 20 21  1  0  0  0  0
 20 22  1  0  0  0  0
M  END
$$$$
default_name
  -OEChem-02102213163D

 25 24  0     1  0  0  0  0  0999 V2000
   -2.7826   -3.8464    0.7821 H   0  0  0  0  0  0  0  0  0  0  0  0
   -2.8156   -2.8034    0.4711 C   0  0  0  0  0  0  0  0  0  0  0  0
   -3.4336   -2.2354    1.1641 H   0  0  0  0  0  0  0  0  0  0  0  0
   -3.2256   -2.7344   -0.5349 H   0  0  0  0  0  0  0  0  0  0  0  0
   -1.4126   -2.2444    0.4801 C   0  0  0  0  0  0  0  0  0  0  0  0
   -0.4686   -2.9534    0.8001 O   0  0  0  0  0  0  0  0  0  0  0  0
   -1.2736   -0.9704    0.1241 N   0  0  0  0  0  0  0  0  0  0  0  0
   -2.0996   -0.4354   -0.1019 H   0  0  0  0  0  0  0  0  0  0  0  0
   -0.0016   -0.2394    0.1271 C   0  0  1  0  0  0  0  0  0  0  0  0
    0.7164   -0.7963    0.7332 H   0  0  0  0  0  0  0  0  0  0  0  0
    0.5351   -0.1414   -1.3146 C   0  0  0  0  0  0  0  0  0  0  0  0
    1.5815    0.1652   -1.2923 H   0  0  0  0  0  0  0  0  0  0  0  0
    0.4828   -1.1200   -1.7932 H   0  0  0  0  0  0  0  0  0  0  0  0
   -0.2103    0.8771   -2.1718 C   0  0  0  0  0  0  0  0  0  0  0  0
   -1.4057    0.8493   -2.4336 O   0  0  0  0  0  0  0  0  0  0  0  0
    0.5558    1.8675   -2.6660 O   0  0  0  0  0  0  0  0  0  0  0  0
   -0.0362    2.4357   -3.1598 H   0  0  0  0  0  0  0  0  0  0  0  0
   -0.1923    1.1526    0.7617 C   0  0  0  0  0  0  0  0  0  0  0  0
   -1.1582    1.8438    0.4410 O   0  0  0  0  0  0  0  0  0  0  0  0
    0.7203    1.5683    1.6472 N   0  0  0  0  0  0  0  0  0  0  0  0
    1.5210    0.9664    1.8100 H   0  0  0  0  0  0  0  0  0  0  0  0
    0.6747    2.8558    2.3368 C   0  0  0  0  0  0  0  0  0  0  0  0
   -0.3018    2.9877    2.8079 H   0  0  0  0  0  0  0  0  0  0  0  0
    1.4516    2.8997    3.1011 H   0  0  0  0  0  0  0  0  0  0  0  0
    0.8279    3.6639    1.6193 H   0  0  0  0  0  0  0  0  0  0  0  0
  5  6  2  0  0  0  0
  5  7  1  0  0  0  0
  2  3  1  0  0  0  0
  2  4  1  0  0  0  0
  2  5  1  0  0  0  0
  1  2  1  0  0  0  0
 18 19  2  0  0  0  0
 18 20  1  0  0  0  0
 16 17  1  0  0  0  0
 14 15  2  0  0  0  0
 14 16  1  0  0  0  0
 11 12  1  0  0  0  0
 11 13  1  0  0  0  0
 11 14  1  0  0  0  0
  9 10  1  0  0  0  0
  9 11  1  0  0  0  0
  9 18  1  0  0  0  0
  7  8  1  0  0  0  0
  7  9  1  0  0  0  0
 22 23  1  0  0  0  0
 22 24  1  0  0  0  0
 22 25  1  0  0  0  0
 20 21  1  0  0  0  0
 20 22  1  0  0  0  0
M  END
$$$$
default_name
  -OEChem-02102213163D

 25 24  0     1  0  0  0  0  0999 V2000
   -2.7826   -3.8464    0.7821 H   0  0  0  0  0  0  0  0  0  0  0  0
   -2.8156   -2.8034    0.4711 C   0  0  0  0  0  0  0  0  0  0  0  0
   -3.4336   -2.2354    1.1641 H   0  0  0  0  0  0  0  0  0  0  0  0
   -3.2256   -2.7344   -0.5349 H   0  0  0  0  0  0  0  0  0  0  0  0
   -1.4126   -2.2444    0.4801 C   0  0  0  0  0  0  0  0  0  0  0  0
   -0.4686   -2.9534    0.8001 O   0  0  0  0  0  0  0  0  0  0  0  0
   -1.2736   -0.9704    0.1241 N   0  0  0  0  0  0  0  0  0  0  0  0
   -2.0996   -0.4354   -0.1019 H   0  0  0  0  0  0  0  0  0  0  0  0
   -0.0016   -0.2394    0.1271 C   0  0  1  0  0  0  0  0  0  0  0  0
    0.7164   -0.7963    0.7332 H   0  0  0  0  0  0  0  0  0  0  0  0
    0.5351   -0.1414   -1.3146 C   0  0  0  0  0  0  0  0  0  0  0  0
    1.5815    0.1652   -1.2923 H   0  0  0  0  0  0  0  0  0  0  0  0
    0.4828   -1.1200   -1.7932 H   0  0  0  0  0  0  0  0  0  0  0  0
   -0.2103    0.8771   -2.1718 C   0  0  0  0  0  0  0  0  0  0  0  0
   -1.4261    1.0072   -2.2283 O   0  0  0  0  0  0  0  0  0  0  0  0
    0.5789    1.6727   -2.9175 O   0  0  0  0  0  0  0  0  0  0  0  0
   -0.0114    2.2667   -3.3822 H   0  0  0  0  0  0  0  0  0  0  0  0
   -0.1923    1.1526    0.7617 C   0  0  0  0  0  0  0  0  0  0  0  0
   -1.1582    1.8438    0.4410 O   0  0  0  0  0  0  0  0  0  0  0  0
    0.7203    1.5683    1.6472 N   0  0  0  0  0  0  0  0  0  0  0  0
    1.5210    0.9664    1.8100 H   0  0  0  0  0  0  0  0  0  0  0  0
    0.6747    2.8558    2.3368 C   0  0  0  0  0  0  0  0  0  0  0  0
   -0.3018    2.9877    2.8079 H   0  0  0  0  0  0  0  0  0  0  0  0
    1.4516    2.8997    3.1011 H   0  0  0  0  0  0  0  0  0  0  0  0
    0.8279    3.6639    1.6193 H   0  0  0  0  0  0  0  0  0  0  0  0
  5  6  2  0  0  0  0
  5  7  1  0  0  0  0
  2  3  1  0  0  0  0
  2  4  1  0  0  0  0
  2  5  1  0  0  0  0
  1  2  1  0  0  0  0
 18 19  2  0  0  0  0
 18 20  1  0  0  0  0
 16 17  1  0  0  0  0
 14 15  2  0  0  0  0
 14 16  1  0  0  0  0
 11 12  1  0  0  0  0
 11 13  1  0  0  0  0
 11 14  1  0  0  0  0
  9 10  1  0  0  0  0
  9 11  1  0  0  0  0
  9 18  1  0  0  0  0
  7  8  1  0  0  0  0
  7  9  1  0  0  0  0
 22 23  1  0  0  0  0
 22 24  1  0  0  0  0
 22 25  1  0  0  0  0
 20 21  1  0  0  0  0
 20 22  1  0  0  0  0
M  END
$$$$
default_name
  -OEChem-02102213163D

 25 24  0     1  0  0  0  0  0999 V2000
   -2.7826   -3.8464    0.7821 H   0  0  0  0  0  0  0  0  0  0  0  0
   -2.8156   -2.8034    0.4711 C   0  0  0  0  0  0  0  0  0  0  0  0
   -3.4336   -2.2354    1.1641 H   0  0  0  0  0  0  0  0  0  0  0  0
   -3.2256   -2.7344   -0.5349 H   0  0  0  0  0  0  0  0  0  0  0  0
   -1.4126   -2.2444    0.4801 C   0  0  0  0  0  0  0  0  0  0  0  0
   -0.4686   -2.9534    0.8001 O   0  0  0  0  0  0  0  0  0  0  0  0
   -1.2736   -0.9704    0.1241 N   0  0  0  0  0  0  0  0  0  0  0  0
   -2.0996   -0.4354   -0.1019 H   0  0  0  0  0  0  0  0  0  0  0  0
   -0.0016   -0.2394    0.1271 C   0  0  1  0  0  0  0  0  0  0  0  0
    0.7164   -0.7963    0.7332 H   0  0  0  0  0  0  0  0  0  0  0  0
    0.5351   -0.1414   -1.3146 C   0  0  0  0  0  0  0  0  0  0  0  0
    1.5815    0.1652   -1.2923 H   0  0  0  0  0  0  0  0  0  0  0  0
    0.4828   -1.1200   -1.7932 H   0  0  0  0  0  0  0  0  0  0  0  0
   -0.2103    0.8771   -2.1718 C   0  0  0  0  0  0  0  0  0  0  0  0
   -1.3874    1.1886   -2.0464 O   0  0  0  0  0  0  0  0  0  0  0  0
    0.5294    1.4494   -3.1399 O   0  0  0  0  0  0  0  0  0  0  0  0
   -0.0504    2.0718   -3.5800 H   0  0  0  0  0  0  0  0  0  0  0  0
   -0.1923    1.1526    0.7617 C   0  0  0  0  0  0  0  0  0  0  0  0
   -1.1582    1.8438    0.4410 O   0  0  0  0  0  0  0  0  0  0  0  0
    0.7203    1.5683    1.6472 N   0  0  0  0  0  0  0  0  0  0  0  0
    1.5210    0.9664    1.8100 H   0  0  0  0  0  0  0  0  0  0  0  0
    0.6747    2.8558    2.3368 C   0  0  0  0  0  0  0  0  0  0  0  0
   -0.3018    2.9877    2.8079 H   0  0  0  0  0  0  0  0  0  0  0  0
    1.4516    2.8997    3.1011 H   0  0  0  0  0  0  0  0  0  0  0  0
    0.8279    3.6639    1.6193 H   0  0  0  0  0  0  0  0  0  0  0  0
  5  6  2  0  0  0  0
  5  7  1  0  0  0  0
  2  3  1  0  0  0  0
  2  4  1  0  0  0  0
  2  5  1  0  0  0  0
  1  2  1  0  0  0  0
 18 19  2  0  0  0  0
 18 20  1  0  0  0  0
 16 17  1  0  0  0  0
 14 15  2  0  0  0  0
 14 16  1  0  0  0  0
 11 12  1  0  0  0  0
 11 13  1  0  0  0  0
 11 14  1  0  0  0  0
  9 10  1  0  0  0  0
  9 11  1  0  0  0  0
  9 18  1  0  0  0  0
  7  8  1  0  0  0  0
  7  9  1  0  0  0  0
 22 23  1  0  0  0  0
 22 24  1  0  0  0  0
 22 25  1  0  0  0  0
 20 21  1  0  0  0  0
 20 22  1  0  0  0  0
M  END
$$$$
default_name
  -OEChem-02102213163D

 25 24  0     1  0  0  0  0  0999 V2000
   -2.7826   -3.8464    0.7821 H   0  0  0  0  0  0  0  0  0  0  0  0
   -2.8156   -2.8034    0.4711 C   0  0  0  0  0  0  0  0  0  0  0  0
   -3.4336   -2.2354    1.1641 H   0  0  0  0  0  0  0  0  0  0  0  0
   -3.2256   -2.7344   -0.5349 H   0  0  0  0  0  0  0  0  0  0  0  0
   -1.4126   -2.2444    0.4801 C   0  0  0  0  0  0  0  0  0  0  0  0
   -0.4686   -2.9534    0.8001 O   0  0  0  0  0  0  0  0  0  0  0  0
   -1.2736   -0.9704    0.1241 N   0  0  0  0  0  0  0  0  0  0  0  0
   -2.0996   -0.4354   -0.1019 H   0  0  0  0  0  0  0  0  0  0  0  0
   -0.0016   -0.2394    0.1271 C   0  0  1  0  0  0  0  0  0  0  0  0
    0.7164   -0.7963    0.7332 H   0  0  0  0  0  0  0  0  0  0  0  0
    0.5351   -0.1414   -1.3146 C   0  0  0  0  0  0  0  0  0  0  0  0
    1.5815    0.1652   -1.2923 H   0  0  0  0  0  0  0  0  0  0  0  0
    0.4828   -1.1200   -1.7932 H   0  0  0  0  0  0  0  0  0  0  0  0
   -0.2103    0.8771   -2.1718 C   0  0  0  0  0  0  0  0  0  0  0  0
   -1.2922    1.3812   -1.9003 O   0  0  0  0  0  0  0  0  0  0  0  0
    0.4108    1.2128   -3.3179 O   0  0  0  0  0  0  0  0  0  0  0  0
   -0.1506    1.8641   -3.7396 H   0  0  0  0  0  0  0  0  0  0  0  0
   -0.1923    1.1526    0.7617 C   0  0  0  0  0  0  0  0  0  0  0  0
   -1.1582    1.8438    0.4410 O   0  0  0  0  0  0  0  0  0  0  0  0
    0.7203    1.5683    1.6472 N   0  0  0  0  0  0  0  0  0  0  0  0
    1.5210    0.9664    1.8100 H   0  0  0  0  0  0  0  0  0  0  0  0
    0.6747    2.8558    2.3368 C   0  0  0  0  0  0  0  0  0  0  0  0
   -0.3018    2.9877    2.8079 H   0  0  0  0  0  0  0  0  0  0  0  0
    1.4516    2.8997    3.1011 H   0  0  0  0  0  0  0  0  0  0  0  0
    0.8279    3.6639    1.6193 H   0  0  0  0  0  0  0  0  0  0  0  0
  5  6  2  0  0  0  0
  5  7  1  0  0  0  0
  2  3  1  0  0  0  0
  2  4  1  0  0  0  0
  2  5  1  0  0  0  0
  1  2  1  0  0  0  0
 18 19  2  0  0  0  0
 18 20  1  0  0  0  0
 16 17  1  0  0  0  0
 14 15  2  0  0  0  0
 14 16  1  0  0  0  0
 11 12  1  0  0  0  0
 11 13  1  0  0  0  0
 11 14  1  0  0  0  0
  9 10  1  0  0  0  0
  9 11  1  0  0  0  0
  9 18  1  0  0  0  0
  7  8  1  0  0  0  0
  7  9  1  0  0  0  0
 22 23  1  0  0  0  0
 22 24  1  0  0  0  0
 22 25  1  0  0  0  0
 20 21  1  0  0  0  0
 20 22  1  0  0  0  0
M  END
$$$$
default_name
  -OEChem-02102213163D

 25 24  0     1  0  0  0  0  0999 V2000
   -2.7826   -3.8464    0.7821 H   0  0  0  0  0  0  0  0  0  0  0  0
   -2.8156   -2.8034    0.4711 C   0  0  0  0  0  0  0  0  0  0  0  0
   -3.4336   -2.2354    1.1641 H   0  0  0  0  0  0  0  0  0  0  0  0
   -3.2256   -2.7344   -0.5349 H   0  0  0  0  0  0  0  0  0  0  0  0
   -1.4126   -2.2444    0.4801 C   0  0  0  0  0  0  0  0  0  0  0  0
   -0.4686   -2.9534    0.8001 O   0  0  0  0  0  0  0  0  0  0  0  0
   -1.2736   -0.9704    0.1241 N   0  0  0  0  0  0  0  0  0  0  0  0
   -2.0996   -0.4354   -0.1019 H   0  0  0  0  0  0  0  0  0  0  0  0
   -0.0016   -0.2394    0.1271 C   0  0  1  0  0  0  0  0  0  0  0  0
    0.7164   -0.7963    0.7332 H   0  0  0  0  0  0  0  0  0  0  0  0
    0.5351   -0.1414   -1.3146 C   0  0  0  0  0  0  0  0  0  0  0  0
    1.5815    0.1652   -1.2923 H   0  0  0  0  0  0  0  0  0  0  0  0
    0.4828   -1.1200   -1.7932 H   0  0  0  0  0  0  0  0  0  0  0  0
   -0.2103    0.8771   -2.1718 C   0  0  0  0  0  0  0  0  0  0  0  0
   -1.1470    1.5719   -1.8000 O   0  0  0  0  0  0  0  0  0  0  0  0
    0.2310    0.9789   -3.4394 O   0  0  0  0  0  0  0  0  0  0  0  0
   -0.3051    1.6579   -3.8502 H   0  0  0  0  0  0  0  0  0  0  0  0
   -0.1923    1.1526    0.7617 C   0  0  0  0  0  0  0  0  0  0  0  0
   -1.1582    1.8438    0.4410 O   0  0  0  0  0  0  0  0  0  0  0  0
    0.7203    1.5683    1.6472 N   0  0  0  0  0  0  0  0  0  0  0  0
    1.5210    0.9664    1.8100 H   0  0  0  0  0  0  0  0  0  0  0  0
    0.6747    2.8558    2.3368 C   0  0  0  0  0  0  0  0  0  0  0  0
   -0.3018    2.9877    2.8079 H   0  0  0  0  0  0  0  0  0  0  0  0
    1.4516    2.8997    3.1011 H   0  0  0  0  0  0  0  0  0  0  0  0
    0.8279    3.6639    1.6193 H   0  0  0  0  0  0  0  0  0  0  0  0
  5  6  2  0  0  0  0
  5  7  1  0  0  0  0
  2  3  1  0  0  0  0
  2  4  1  0  0  0  0
  2  5  1  0  0  0  0
  1  2  1  0  0  0  0
 18 19  2  0  0  0  0
 18 20  1  0  0  0  0
 16 17  1  0  0  0  0
 14 15  2  0  0  0  0
 14 16  1  0  0  0  0
 11 12  1  0  0  0  0
 11 13  1  0  0  0  0
 11 14  1  0  0  0  0
  9 10  1  0  0  0  0
  9 11  1  0  0  0  0
  9 18  1  0  0  0  0
  7  8  1  0  0  0  0
  7  9  1  0  0  0  0
 22 23  1  0  0  0  0
 22 24  1  0  0  0  0
 22 25  1  0  0  0  0
 20 21  1  0  0  0  0
 20 22  1  0  0  0  0
M  END
$$$$
default_name
  -OEChem-02102213163D

 25 24  0     1  0  0  0  0  0999 V2000
   -2.7826   -3.8464    0.7821 H   0  0  0  0  0  0  0  0  0  0  0  0
   -2.8156   -2.8034    0.4711 C   0  0  0  0  0  0  0  0  0  0  0  0
   -3.4336   -2.2354    1.1641 H   0  0  0  0  0  0  0  0  0  0  0  0
   -3.2256   -2.7344   -0.5349 H   0  0  0  0  0  0  0  0  0  0  0  0
   -1.4126   -2.2444    0.4801 C   0  0  0  0  0  0  0  0  0  0  0  0
   -0.4686   -2.9534    0.8001 O   0  0  0  0  0  0  0  0  0  0  0  0
   -1.2736   -0.9704    0.1241 N   0  0  0  0  0  0  0  0  0  0  0  0
   -2.0996   -0.4354   -0.1019 H   0  0  0  0  0  0  0  0  0  0  0  0
   -0.0016   -0.2394    0.1271 C   0  0  1  0  0  0  0  0  0  0  0  0
    0.7164   -0.7963    0.7332 H   0  0  0  0  0  0  0  0  0  0  0  0
    0.5351   -0.1414   -1.3146 C   0  0  0  0  0  0  0  0  0  0  0  0
    1.5815    0.1652   -1.2923 H   0  0  0  0  0  0  0  0  0  0  0  0
    0.4828   -1.1200   -1.7932 H   0  0  0  0  0  0  0  0  0  0  0  0
   -0.2103    0.8771   -2.1718 C   0  0  0  0  0  0  0  0  0  0  0  0
   -0.9616    1.7477   -1.7523 O   0  0  0  0  0  0  0  0  0  0  0  0
    0.0024    0.7638   -3.4962 O   0  0  0  0  0  0  0  0  0  0  0  0
   -0.5035    1.4672   -3.9043 H   0  0  0  0  0  0  0  0  0  0  0  0
   -0.1923    1.1526    0.7617 C   0  0  0  0  0  0  0  0  0  0  0  0
   -1.1582    1.8438    0.4410 O   0  0  0  0  0  0  0  0  0  0  0  0
    0.7203    1.5683    1.6472 N   0  0  0  0  0  0  0  0  0  0  0  0
    1.5210    0.9664    1.8100 H   0  0  0  0  0  0  0  0  0  0  0  0
    0.6747    2.8558    2.3368 C   0  0  0  0  0  0  0  0  0  0  0  0
   -0.3018    2.9877    2.8079 H   0  0  0  0  0  0  0  0  0  0  0  0
    1.4516    2.8997    3.1011 H   0  0  0  0  0  0  0  0  0  0  0  0
    0.8279    3.6639    1.6193 H   0  0  0  0  0  0  0  0  0  0  0  0
  5  6  2  0  0  0  0
  5  7  1  0  0  0  0
  2  3  1  0  0  0  0
  2  4  1  0  0  0  0
  2  5  1  0  0  0  0
  1  2  1  0  0  0  0
 18 19  2  0  0  0  0
 18 20  1  0  0  0  0
 16 17  1  0  0  0  0
 14 15  2  0  0  0  0
 14 16  1  0  0  0  0
 11 12  1  0  0  0  0
 11 13  1  0  0  0  0
 11 14  1  0  0  0  0
  9 10  1  0  0  0  0
  9 11  1  0  0  0  0
  9 18  1  0  0  0  0
  7  8  1  0  0  0  0
  7  9  1  0  0  0  0
 22 23  1  0  0  0  0
 22 24  1  0  0  0  0
 22 25  1  0  0  0  0
 20 21  1  0  0  0  0
 20 22  1  0  0  0  0
M  END
$$$$
default_name
  -OEChem-02102213163D

 25 24  0     1  0  0  0  0  0999 V2000
   -2.7826   -3.8464    0.7821 H   0  0  0  0  0  0  0  0  0  0  0  0
   -2.8156   -2.8034    0.4711 C   0  0  0  0  0  0  0  0  0  0  0  0
   -3.4336   -2.2354    1.1641 H   0  0  0  0  0  0  0  0  0  0  0  0
   -3.2256   -2.7344   -0.5349 H   0  0  0  0  0  0  0  0  0  0  0  0
   -1.4126   -2.2444    0.4801 C   0  0  0  0  0  0  0  0  0  0  0  0
   -0.4686   -2.9534    0.8001 O   0  0  0  0  0  0  0  0  0  0  0  0
   -1.2736   -0.9704    0.1241 N   0  0  0  0  0  0  0  0  0  0  0  0
   -2.0996   -0.4354   -0.1019 H   0  0  0  0  0  0  0  0  0  0  0  0
   -0.0016   -0.2394    0.1271 C   0  0  1  0  0  0  0  0  0  0  0  0
    0.7164   -0.7963    0.7332 H   0  0  0  0  0  0  0  0  0  0  0  0
    0.5351   -0.1414   -1.3146 C   0  0  0  0  0  0  0  0  0  0  0  0
    1.5815    0.1652   -1.2923 H   0  0  0  0  0  0  0  0  0  0  0  0
    0.4828   -1.1200   -1.7932 H   0  0  0  0  0  0  0  0  0  0  0  0
   -0.2103    0.8771   -2.1718 C   0  0  0  0  0  0  0  0  0  0  0  0
   -0.7488    1.8965   -1.7605 O   0  0  0  0  0  0  0  0  0  0  0  0
   -0.2596    0.5822   -3.4843 O   0  0  0  0  0  0  0  0  0  0  0  0
   -0.7322    1.3050   -3.8982 H   0  0  0  0  0  0  0  0  0  0  0  0
   -0.1923    1.1526    0.7617 C   0  0  0  0  0  0  0  0  0  0  0  0
   -1.1582    1.8438    0.4410 O   0  0  0  0  0  0  0  0  0  0  0  0
    0.7203    1.5683    1.6472 N   0  0  0  0  0  0  0  0  0  0  0  0
    1.5210    0.9664    1.8100 H   0  0  0  0  0  0  0  0  0  0  0  0
    0.6747    2.8558    2.3368 C   0  0  0  0  0  0  0  0  0  0  0  0
   -0.3018    2.9877    2.8079 H   0  0  0  0  0  0  0  0  0  0  0  0
    1.4516    2.8997    3.1011 H   0  0  0  0  0  0  0  0  0  0  0  0
    0.8279    3.6639    1.6193 H   0  0  0  0  0  0  0  0  0  0  0  0
  5  6  2  0  0  0  0
  5  7  1  0  0  0  0
  2  3  1  0  0  0  0
  2  4  1  0  0  0  0
  2  5  1  0  0  0  0
  1  2  1  0  0  0  0
 18 19  2  0  0  0  0
 18 20  1  0  0  0  0
 16 17  1  0  0  0  0
 14 15  2  0  0  0  0
 14 16  1  0  0  0  0
 11 12  1  0  0  0  0
 11 13  1  0  0  0  0
 11 14  1  0  0  0  0
  9 10  1  0  0  0  0
  9 11  1  0  0  0  0
  9 18  1  0  0  0  0
  7  8  1  0  0  0  0
  7  9  1  0  0  0  0
 22 23  1  0  0  0  0
 22 24  1  0  0  0  0
 22 25  1  0  0  0  0
 20 21  1  0  0  0  0
 20 22  1  0  0  0  0
M  END
$$$$
default_name
  -OEChem-02102213163D

 25 24  0     1  0  0  0  0  0999 V2000
   -2.7826   -3.8464    0.7821 H   0  0  0  0  0  0  0  0  0  0  0  0
   -2.8156   -2.8034    0.4711 C   0  0  0  0  0  0  0  0  0  0  0  0
   -3.4336   -2.2354    1.1641 H   0  0  0  0  0  0  0  0  0  0  0  0
   -3.2256   -2.7344   -0.5349 H   0  0  0  0  0  0  0  0  0  0  0  0
   -1.4126   -2.2444    0.4801 C   0  0  0  0  0  0  0  0  0  0  0  0
   -0.4686   -2.9534    0.8001 O   0  0  0  0  0  0  0  0  0  0  0  0
   -1.2736   -0.9704    0.1241 N   0  0  0  0  0  0  0  0  0  0  0  0
   -2.0996   -0.4354   -0.1019 H   0  0  0  0  0  0  0  0  0  0  0  0
   -0.0016   -0.2394    0.1271 C   0  0  1  0  0  0  0  0  0  0  0  0
    0.7164   -0.7963    0.7332 H   0  0  0  0  0  0  0  0  0  0  0  0
    0.5351   -0.1414   -1.3146 C   0  0  0  0  0  0  0  0  0  0  0  0
    1.5815    0.1652   -1.2923 H   0  0  0  0  0  0  0  0  0  0  0  0
    0.4828   -1.1200   -1.7932 H   0  0  0  0  0  0  0  0  0  0  0  0
   -0.2103    0.8771   -2.1718 C   0  0  0  0  0  0  0  0  0  0  0  0
   -0.5230    2.0083   -1.8240 O   0  0  0  0  0  0  0  0  0  0  0  0
   -0.5370    0.4463   -3.4046 O   0  0  0  0  0  0  0  0  0  0  0  0
   -0.9756    1.1824   -3.8322 H   0  0  0  0  0  0  0  0  0  0  0  0
   -0.1923    1.1526    0.7617 C   0  0  0  0  0  0  0  0  0  0  0  0
   -1.1582    1.8438    0.4410 O   0  0  0  0  0  0  0  0  0  0  0  0
    0.7203    1.5683    1.6472 N   0  0  0  0  0  0  0  0  0  0  0  0
    1.5210    0.9664    1.8100 H   0  0  0  0  0  0  0  0  0  0  0  0
    0.6747    2.8558    2.3368 C   0  0  0  0  0  0  0  0  0  0  0  0
   -0.3018    2.9877    2.8079 H   0  0  0  0  0  0  0  0  0  0  0  0
    1.4516    2.8997    3.1011 H   0  0  0  0  0  0  0  0  0  0  0  0
    0.8279    3.6639    1.6193 H   0  0  0  0  0  0  0  0  0  0  0  0
  5  6  2  0  0  0  0
  5  7  1  0  0  0  0
  2  3  1  0  0  0  0
  2  4  1  0  0  0  0
  2  5  1  0  0  0  0
  1  2  1  0  0  0  0
 18 19  2  0  0  0  0
 18 20  1  0  0  0  0
 16 17  1  0  0  0  0
 14 15  2  0  0  0  0
 14 16  1  0  0  0  0
 11 12  1  0  0  0  0
 11 13  1  0  0  0  0
 11 14  1  0  0  0  0
  9 10  1  0  0  0  0
  9 11  1  0  0  0  0
  9 18  1  0  0  0  0
  7  8  1  0  0  0  0
  7  9  1  0  0  0  0
 22 23  1  0  0  0  0
 22 24  1  0  0  0  0
 22 25  1  0  0  0  0
 20 21  1  0  0  0  0
 20 22  1  0  0  0  0
M  END
$$$$
default_name
  -OEChem-02102213163D

 25 24  0     1  0  0  0  0  0999 V2000
   -2.7826   -3.8464    0.7821 H   0  0  0  0  0  0  0  0  0  0  0  0
   -2.8156   -2.8034    0.4711 C   0  0  0  0  0  0  0  0  0  0  0  0
   -3.4336   -2.2354    1.1641 H   0  0  0  0  0  0  0  0  0  0  0  0
   -3.2256   -2.7344   -0.5349 H   0  0  0  0  0  0  0  0  0  0  0  0
   -1.4126   -2.2444    0.4801 C   0  0  0  0  0  0  0  0  0  0  0  0
   -0.4686   -2.9534    0.8001 O   0  0  0  0  0  0  0  0  0  0  0  0
   -1.2736   -0.9704    0.1241 N   0  0  0  0  0  0  0  0  0  0  0  0
   -2.0996   -0.4354   -0.1019 H   0  0  0  0  0  0  0  0  0  0  0  0
   -0.0016   -0.2394    0.1271 C   0  0  1  0  0  0  0  0  0  0  0  0
    0.7164   -0.7963    0.7332 H   0  0  0  0  0  0  0  0  0  0  0  0
    0.5351   -0.1414   -1.3146 C   0  0  0  0  0  0  0  0  0  0  0  0
    1.5815    0.1652   -1.2923 H   0  0  0  0  0  0  0  0  0  0  0  0
    0.4828   -1.1200   -1.7932 H   0  0  0  0  0  0  0  0  0  0  0  0
   -0.2103    0.8771   -2.1718 C   0  0  0  0  0  0  0  0  0  0  0  0
   -0.2997    2.0754   -1.9385 O   0  0  0  0  0  0  0  0  0  0  0  0
   -0.8109    0.3654   -3.2624 O   0  0  0  0  0  0  0  0  0  0  0  0
   -1.2172    1.1077   -3.7109 H   0  0  0  0  0  0  0  0  0  0  0  0
   -0.1923    1.1526    0.7617 C   0  0  0  0  0  0  0  0  0  0  0  0
   -1.1582    1.8438    0.4410 O   0  0  0  0  0  0  0  0  0  0  0  0
    0.7203    1.5683    1.6472 N   0  0  0  0  0  0  0  0  0  0  0  0
    1.5210    0.9664    1.8100 H   0  0  0  0  0  0  0  0  0  0  0  0
    0.6747    2.8558    2.3368 C   0  0  0  0  0  0  0  0  0  0  0  0
   -0.3018    2.9877    2.8079 H   0  0  0  0  0  0  0  0  0  0  0  0
    1.4516    2.8997    3.1011 H   0  0  0  0  0  0  0  0  0  0  0  0
    0.8279    3.6639    1.6193 H   0  0  0  0  0  0  0  0  0  0  0  0
  5  6  2  0  0  0  0
  5  7  1  0  0  0  0
  2  3  1  0  0  0  0
  2  4  1  0  0  0  0
  2  5  1  0  0  0  0
  1  2  1  0  0  0  0
 18 19  2  0  0  0  0
 18 20  1  0  0  0  0
 16 17  1  0  0  0  0
 14 15  2  0  0  0  0
 14 16  1  0  0  0  0
 11 12  1  0  0  0  0
 11 13  1  0  0  0  0
 11 14  1  0  0  0  0
  9 10  1  0  0  0  0
  9 11  1  0  0  0  0
  9 18  1  0  0  0  0
  7  8  1  0  0  0  0
  7  9  1  0  0  0  0
 22 23  1  0  0  0  0
 22 24  1  0  0  0  0
 22 25  1  0  0  0  0
 20 21  1  0  0  0  0
 20 22  1  0  0  0  0
M  END
$$$$
default_name
  -OEChem-02102213163D

 25 24  0     1  0  0  0  0  0999 V2000
   -2.7826   -3.8464    0.7821 H   0  0  0  0  0  0  0  0  0  0  0  0
   -2.8156   -2.8034    0.4711 C   0  0  0  0  0  0  0  0  0  0  0  0
   -3.4336   -2.2354    1.1641 H   0  0  0  0  0  0  0  0  0  0  0  0
   -3.2256   -2.7344   -0.5349 H   0  0  0  0  0  0  0  0  0  0  0  0
   -1.4126   -2.2444    0.4801 C   0  0  0  0  0  0  0  0  0  0  0  0
   -0.4686   -2.9534    0.8001 O   0  0  0  0  0  0  0  0  0  0  0  0
   -1.2736   -0.9704    0.1241 N   0  0  0  0  0  0  0  0  0  0  0  0
   -2.0996   -0.4354   -0.1019 H   0  0  0  0  0  0  0  0  0  0  0  0
   -0.0016   -0.2394    0.1271 C   0  0  1  0  0  0  0  0  0  0  0  0
    0.7164   -0.7963    0.7332 H   0  0  0  0  0  0  0  0  0  0  0  0
    0.5351   -0.1414   -1.3146 C   0  0  0  0  0  0  0  0  0  0  0  0
    1.5815    0.1652   -1.2923 H   0  0  0  0  0  0  0  0  0  0  0  0
    0.4828   -1.1200   -1.7932 H   0  0  0  0  0  0  0  0  0  0  0  0
   -0.2103    0.8771   -2.1718 C   0  0  0  0  0  0  0  0  0  0  0  0
   -0.0939    2.0932   -2.0962 O   0  0  0  0  0  0  0  0  0  0  0  0
   -1.0627    0.3451   -3.0676 O   0  0  0  0  0  0  0  0  0  0  0  0
   -1.4404    1.0860   -3.5426 H   0  0  0  0  0  0  0  0  0  0  0  0
   -0.1923    1.1526    0.7617 C   0  0  0  0  0  0  0  0  0  0  0  0
   -1.1582    1.8438    0.4410 O   0  0  0  0  0  0  0  0  0  0  0  0
    0.7203    1.5683    1.6472 N   0  0  0  0  0  0  0  0  0  0  0  0
    1.5210    0.9664    1.8100 H   0  0  0  0  0  0  0  0  0  0  0  0
    0.6747    2.8558    2.3368 C   0  0  0  0  0  0  0  0  0  0  0  0
   -0.3018    2.9877    2.8079 H   0  0  0  0  0  0  0  0  0  0  0  0
    1.4516    2.8997    3.1011 H   0  0  0  0  0  0  0  0  0  0  0  0
    0.8279    3.6639    1.6193 H   0  0  0  0  0  0  0  0  0  0  0  0
  5  6  2  0  0  0  0
  5  7  1  0  0  0  0
  2  3  1  0  0  0  0
  2  4  1  0  0  0  0
  2  5  1  0  0  0  0
  1  2  1  0  0  0  0
 18 19  2  0  0  0  0
 18 20  1  0  0  0  0
 16 17  1  0  0  0  0
 14 15  2  0  0  0  0
 14 16  1  0  0  0  0
 11 12  1  0  0  0  0
 11 13  1  0  0  0  0
 11 14  1  0  0  0  0
  9 10  1  0  0  0  0
  9 11  1  0  0  0  0
  9 18  1  0  0  0  0
  7  8  1  0  0  0  0
  7  9  1  0  0  0  0
 22 23  1  0  0  0  0
 22 24  1  0  0  0  0
 22 25  1  0  0  0  0
 20 21  1  0  0  0  0
 20 22  1  0  0  0  0
M  END
$$$$
default_name
  -OEChem-02102213163D

 25 24  0     1  0  0  0  0  0999 V2000
   -2.7826   -3.8464    0.7821 H   0  0  0  0  0  0  0  0  0  0  0  0
   -2.8156   -2.8034    0.4711 C   0  0  0  0  0  0  0  0  0  0  0  0
   -3.4336   -2.2354    1.1641 H   0  0  0  0  0  0  0  0  0  0  0  0
   -3.2256   -2.7344   -0.5349 H   0  0  0  0  0  0  0  0  0  0  0  0
   -1.4126   -2.2444    0.4801 C   0  0  0  0  0  0  0  0  0  0  0  0
   -0.4686   -2.9534    0.8001 O   0  0  0  0  0  0  0  0  0  0  0  0
   -1.2736   -0.9704    0.1241 N   0  0  0  0  0  0  0  0  0  0  0  0
   -2.0996   -0.4354   -0.1019 H   0  0  0  0  0  0  0  0  0  0  0  0
   -0.0016   -0.2394    0.1271 C   0  0  1  0  0  0  0  0  0  0  0  0
    0.7164   -0.7963    0.7332 H   0  0  0  0  0  0  0  0  0  0  0  0
    0.5351   -0.1414   -1.3146 C   0  0  0  0  0  0  0  0  0  0  0  0
    1.5815    0.1652   -1.2923 H   0  0  0  0  0  0  0  0  0  0  0  0
    0.4828   -1.1200   -1.7932 H   0  0  0  0  0  0  0  0  0  0  0  0
   -0.2103    0.8771   -2.1718 C   0  0  0  0  0  0  0  0  0  0  0  0
    0.0801    2.0607   -2.2863 O   0  0  0  0  0  0  0  0  0  0  0  0
   -1.2752    0.3867   -2.8334 O   0  0  0  0  0  0  0  0  0  0  0  0
   -1.6301    1.1188   -3.3386 H   0  0  0  0  0  0  0  0  0  0  0  0
   -0.1923    1.1526    0.7617 C   0  0  0  0  0  0  0  0  0  0  0  0
   -1.1582    1.8438    0.4410 O   0  0  0  0  0  0  0  0  0  0  0  0
    0.7203    1.5683    1.6472 N   0  0  0  0  0  0  0  0  0  0  0  0
    1.5210    0.9664    1.8100 H   0  0  0  0  0  0  0  0  0  0  0  0
    0.6747    2.8558    2.3368 C   0  0  0  0  0  0  0  0  0  0  0  0
   -0.3018    2.9877    2.8079 H   0  0  0  0  0  0  0  0  0  0  0  0
    1.4516    2.8997    3.1011 H   0  0  0  0  0  0  0  0  0  0  0  0
    0.8279    3.6639    1.6193 H   0  0  0  0  0  0  0  0  0  0  0  0
  5  6  2  0  0  0  0
  5  7  1  0  0  0  0
  2  3  1  0  0  0  0
  2  4  1  0  0  0  0
  2  5  1  0  0  0  0
  1  2  1  0  0  0  0
 18 19  2  0  0  0  0
 18 20  1  0  0  0  0
 16 17  1  0  0  0  0
 14 15  2  0  0  0  0
 14 16  1  0  0  0  0
 11 12  1  0  0  0  0
 11 13  1  0  0  0  0
 11 14  1  0  0  0  0
  9 10  1  0  0  0  0
  9 11  1  0  0  0  0
  9 18  1  0  0  0  0
  7  8  1  0  0  0  0
  7  9  1  0  0  0  0
 22 23  1  0  0  0  0
 22 24  1  0  0  0  0
 22 25  1  0  0  0  0
 20 21  1  0  0  0  0
 20 22  1  0  0  0  0
M  END
$$$$
default_name
  -OEChem-02102213163D

 25 24  0     1  0  0  0  0  0999 V2000
   -2.7826   -3.8464    0.7821 H   0  0  0  0  0  0  0  0  0  0  0  0
   -2.8156   -2.8034    0.4711 C   0  0  0  0  0  0  0  0  0  0  0  0
   -3.4336   -2.2354    1.1641 H   0  0  0  0  0  0  0  0  0  0  0  0
   -3.2256   -2.7344   -0.5349 H   0  0  0  0  0  0  0  0  0  0  0  0
   -1.4126   -2.2444    0.4801 C   0  0  0  0  0  0  0  0  0  0  0  0
   -0.4686   -2.9534    0.8001 O   0  0  0  0  0  0  0  0  0  0  0  0
   -1.2736   -0.9704    0.1241 N   0  0  0  0  0  0  0  0  0  0  0  0
   -2.0996   -0.4354   -0.1019 H   0  0  0  0  0  0  0  0  0  0  0  0
   -0.0016   -0.2394    0.1271 C   0  0  1  0  0  0  0  0  0  0  0  0
    0.7164   -0.7963    0.7332 H   0  0  0  0  0  0  0  0  0  0  0  0
    0.5351   -0.1414   -1.3146 C   0  0  0  0  0  0  0  0  0  0  0  0
    1.5815    0.1652   -1.2923 H   0  0  0  0  0  0  0  0  0  0  0  0
    0.4828   -1.1200   -1.7932 H   0  0  0  0  0  0  0  0  0  0  0  0
   -0.2103    0.8771   -2.1718 C   0  0  0  0  0  0  0  0  0  0  0  0
    0.2107    1.9798   -2.4959 O   0  0  0  0  0  0  0  0  0  0  0  0
   -1.4339    0.4875   -2.5756 O   0  0  0  0  0  0  0  0  0  0  0  0
   -1.7734    1.2038   -3.1130 H   0  0  0  0  0  0  0  0  0  0  0  0
   -0.1923    1.1526    0.7617 C   0  0  0  0  0  0  0  0  0  0  0  0
   -1.1582    1.8438    0.4410 O   0  0  0  0  0  0  0  0  0  0  0  0
    0.7203    1.5683    1.6472 N   0  0  0  0  0  0  0  0  0  0  0  0
    1.5210    0.9664    1.8100 H   0  0  0  0  0  0  0  0  0  0  0  0
    0.6747    2.8558    2.3368 C   0  0  0  0  0  0  0  0  0  0  0  0
   -0.3018    2.9877    2.8079 H   0  0  0  0  0  0  0  0  0  0  0  0
    1.4516    2.8997    3.1011 H   0  0  0  0  0  0  0  0  0  0  0  0
    0.8279    3.6639    1.6193 H   0  0  0  0  0  0  0  0  0  0  0  0
  5  6  2  0  0  0  0
  5  7  1  0  0  0  0
  2  3  1  0  0  0  0
  2  4  1  0  0  0  0
  2  5  1  0  0  0  0
  1  2  1  0  0  0  0
 18 19  2  0  0  0  0
 18 20  1  0  0  0  0
 16 17  1  0  0  0  0
 14 15  2  0  0  0  0
 14 16  1  0  0  0  0
 11 12  1  0  0  0  0
 11 13  1  0  0  0  0
 11 14  1  0  0  0  0
  9 10  1  0  0  0  0
  9 11  1  0  0  0  0
  9 18  1  0  0  0  0
  7  8  1  0  0  0  0
  7  9  1  0  0  0  0
 22 23  1  0  0  0  0
 22 24  1  0  0  0  0
 22 25  1  0  0  0  0
 20 21  1  0  0  0  0
 20 22  1  0  0  0  0
M  END
$$$$
default_name
  -OEChem-02102213163D

 25 24  0     1  0  0  0  0  0999 V2000
   -2.7826   -3.8464    0.7821 H   0  0  0  0  0  0  0  0  0  0  0  0
   -2.8156   -2.8034    0.4711 C   0  0  0  0  0  0  0  0  0  0  0  0
   -3.4336   -2.2354    1.1641 H   0  0  0  0  0  0  0  0  0  0  0  0
   -3.2256   -2.7344   -0.5349 H   0  0  0  0  0  0  0  0  0  0  0  0
   -1.4126   -2.2444    0.4801 C   0  0  0  0  0  0  0  0  0  0  0  0
   -0.4686   -2.9534    0.8001 O   0  0  0  0  0  0  0  0  0  0  0  0
   -1.2736   -0.9704    0.1241 N   0  0  0  0  0  0  0  0  0  0  0  0
   -2.0996   -0.4354   -0.1019 H   0  0  0  0  0  0  0  0  0  0  0  0
   -0.0016   -0.2394    0.1271 C   0  0  1  0  0  0  0  0  0  0  0  0
    0.7164   -0.7963    0.7332 H   0  0  0  0  0  0  0  0  0  0  0  0
    0.5351   -0.1414   -1.3146 C   0  0  0  0  0  0  0  0  0  0  0  0
    1.5815    0.1652   -1.2923 H   0  0  0  0  0  0  0  0  0  0  0  0
    0.4828   -1.1200   -1.7932 H   0  0  0  0  0  0  0  0  0  0  0  0
   -0.2103    0.8771   -2.1718 C   0  0  0  0  0  0  0  0  0  0  0  0
    0.2888    1.8563   -2.7107 O   0  0  0  0  0  0  0  0  0  0  0  0
   -1.5280    0.6404   -2.3120 O   0  0  0  0  0  0  0  0  0  0  0  0
   -1.8604    1.3353   -2.8811 H   0  0  0  0  0  0  0  0  0  0  0  0
   -0.1923    1.1526    0.7617 C   0  0  0  0  0  0  0  0  0  0  0  0
   -1.1582    1.8438    0.4410 O   0  0  0  0  0  0  0  0  0  0  0  0
    0.7203    1.5683    1.6472 N   0  0  0  0  0  0  0  0  0  0  0  0
    1.5210    0.9664    1.8100 H   0  0  0  0  0  0  0  0  0  0  0  0
    0.6747    2.8558    2.3368 C   0  0  0  0  0  0  0  0  0  0  0  0
   -0.3018    2.9877    2.8079 H   0  0  0  0  0  0  0  0  0  0  0  0
    1.4516    2.8997    3.1011 H   0  0  0  0  0  0  0  0  0  0  0  0
    0.8279    3.6639    1.6193 H   0  0  0  0  0  0  0  0  0  0  0  0
  5  6  2  0  0  0  0
  5  7  1  0  0  0  0
  2  3  1  0  0  0  0
  2  4  1  0  0  0  0
  2  5  1  0  0  0  0
  1  2  1  0  0  0  0
 18 19  2  0  0  0  0
 18 20  1  0  0  0  0
 16 17  1  0  0  0  0
 14 15  2  0  0  0  0
 14 16  1  0  0  0  0
 11 12  1  0  0  0  0
 11 13  1  0  0  0  0
 11 14  1  0  0  0  0
  9 10  1  0  0  0  0
  9 11  1  0  0  0  0
  9 18  1  0  0  0  0
  7  8  1  0  0  0  0
  7  9  1  0  0  0  0
 22 23  1  0  0  0  0
 22 24  1  0  0  0  0
 22 25  1  0  0  0  0
 20 21  1  0  0  0  0
 20 22  1  0  0  0  0
M  END
$$$$
default_name
  -OEChem-02102213163D

 25 24  0     1  0  0  0  0  0999 V2000
   -2.7826   -3.8464    0.7821 H   0  0  0  0  0  0  0  0  0  0  0  0
   -2.8156   -2.8034    0.4711 C   0  0  0  0  0  0  0  0  0  0  0  0
   -3.4336   -2.2354    1.1641 H   0  0  0  0  0  0  0  0  0  0  0  0
   -3.2256   -2.7344   -0.5349 H   0  0  0  0  0  0  0  0  0  0  0  0
   -1.4126   -2.2444    0.4801 C   0  0  0  0  0  0  0  0  0  0  0  0
   -0.4686   -2.9534    0.8001 O   0  0  0  0  0  0  0  0  0  0  0  0
   -1.2736   -0.9704    0.1241 N   0  0  0  0  0  0  0  0  0  0  0  0
   -2.0996   -0.4354   -0.1019 H   0  0  0  0  0  0  0  0  0  0  0  0
   -0.0016   -0.2394    0.1271 C   0  0  1  0  0  0  0  0  0  0  0  0
    0.7164   -0.7963    0.7332 H   0  0  0  0  0  0  0  0  0  0  0  0
    0.5351   -0.1414   -1.3146 C   0  0  0  0  0  0  0  0  0  0  0  0
    1.5815    0.1652   -1.2923 H   0  0  0  0  0  0  0  0  0  0  0  0
    0.4828   -1.1200   -1.7932 H   0  0  0  0  0  0  0  0  0  0  0  0
   -0.2103    0.8771   -2.1718 C   0  0  0  0  0  0  0  0  0  0  0  0
    0.3092    1.6984   -2.9160 O   0  0  0  0  0  0  0  0  0  0  0  0
   -1.5512    0.8352   -2.0604 O   0  0  0  0  0  0  0  0  0  0  0  0
   -1.8852    1.5043   -2.6587 H   0  0  0  0  0  0  0  0  0  0  0  0
   -0.1923    1.1526    0.7617 C   0  0  0  0  0  0  0  0  0  0  0  0
   -1.1582    1.8438    0.4410 O   0  0  0  0  0  0  0  0  0  0  0  0
    0.7203    1.5683    1.6472 N   0  0  0  0  0  0  0  0  0  0  0  0
    1.5210    0.9664    1.8100 H   0  0  0  0  0  0  0  0  0  0  0  0
    0.6747    2.8558    2.3368 C   0  0  0  0  0  0  0  0  0  0  0  0
   -0.3018    2.9877    2.8079 H   0  0  0  0  0  0  0  0  0  0  0  0
    1.4516    2.8997    3.1011 H   0  0  0  0  0  0  0  0  0  0  0  0
    0.8279    3.6639    1.6193 H   0  0  0  0  0  0  0  0  0  0  0  0
  5  6  2  0  0  0  0
  5  7  1  0  0  0  0
  2  3  1  0  0  0  0
  2  4  1  0  0  0  0
  2  5  1  0  0  0  0
  1  2  1  0  0  0  0
 18 19  2  0  0  0  0
 18 20  1  0  0  0  0
 16 17  1  0  0  0  0
 14 15  2  0  0  0  0
 14 16  1  0  0  0  0
 11 12  1  0  0  0  0
 11 13  1  0  0  0  0
 11 14  1  0  0  0  0
  9 10  1  0  0  0  0
  9 11  1  0  0  0  0
  9 18  1  0  0  0  0
  7  8  1  0  0  0  0
  7  9  1  0  0  0  0
 22 23  1  0  0  0  0
 22 24  1  0  0  0  0
 22 25  1  0  0  0  0
 20 21  1  0  0  0  0
 20 22  1  0  0  0  0
M  END
$$$$
default_name
  -OEChem-02102213163D

 25 24  0     1  0  0  0  0  0999 V2000
   -2.7826   -3.8464    0.7821 H   0  0  0  0  0  0  0  0  0  0  0  0
   -2.8156   -2.8034    0.4711 C   0  0  0  0  0  0  0  0  0  0  0  0
   -3.4336   -2.2354    1.1641 H   0  0  0  0  0  0  0  0  0  0  0  0
   -3.2256   -2.7344   -0.5349 H   0  0  0  0  0  0  0  0  0  0  0  0
   -1.4126   -2.2444    0.4801 C   0  0  0  0  0  0  0  0  0  0  0  0
   -0.4686   -2.9534    0.8001 O   0  0  0  0  0  0  0  0  0  0  0  0
   -1.2736   -0.9704    0.1241 N   0  0  0  0  0  0  0  0  0  0  0  0
   -2.0996   -0.4354   -0.1019 H   0  0  0  0  0  0  0  0  0  0  0  0
   -0.0016   -0.2394    0.1271 C   0  0  1  0  0  0  0  0  0  0  0  0
    0.7164   -0.7963    0.7332 H   0  0  0  0  0  0  0  0  0  0  0  0
    0.5351   -0.1414   -1.3146 C   0  0  0  0  0  0  0  0  0  0  0  0
    1.5815    0.1652   -1.2923 H   0  0  0  0  0  0  0  0  0  0  0  0
    0.4828   -1.1200   -1.7932 H   0  0  0  0  0  0  0  0  0  0  0  0
   -0.2103    0.8771   -2.1718 C   0  0  0  0  0  0  0  0  0  0  0  0
    0.2705    1.5170   -3.0979 O   0  0  0  0  0  0  0  0  0  0  0  0
   -1.5017    1.0586   -1.8381 O   0  0  0  0  0  0  0  0  0  0  0  0
   -1.8462    1.6993   -2.4610 H   0  0  0  0  0  0  0  0  0  0  0  0
   -0.1923    1.1526    0.7617 C   0  0  0  0  0  0  0  0  0  0  0  0
   -1.1582    1.8438    0.4410 O   0  0  0  0  0  0  0  0  0  0  0  0
    0.7203    1.5683    1.6472 N   0  0  0  0  0  0  0  0  0  0  0  0
    1.5210    0.9664    1.8100 H   0  0  0  0  0  0  0  0  0  0  0  0
    0.6747    2.8558    2.3368 C   0  0  0  0  0  0  0  0  0  0  0  0
   -0.3018    2.9877    2.8079 H   0  0  0  0  0  0  0  0  0  0  0  0
    1.4516    2.8997    3.1011 H   0  0  0  0  0  0  0  0  0  0  0  0
    0.8279    3.6639    1.6193 H   0  0  0  0  0  0  0  0  0  0  0  0
  5  6  2  0  0  0  0
  5  7  1  0  0  0  0
  2  3  1  0  0  0  0
  2  4  1  0  0  0  0
  2  5  1  0  0  0  0
  1  2  1  0  0  0  0
 18 19  2  0  0  0  0
 18 20  1  0  0  0  0
 16 17  1  0  0  0  0
 14 15  2  0  0  0  0
 14 16  1  0  0  0  0
 11 12  1  0  0  0  0
 11 13  1  0  0  0  0
 11 14  1  0  0  0  0
  9 10  1  0  0  0  0
  9 11  1  0  0  0  0
  9 18  1  0  0  0  0
  7  8  1  0  0  0  0
  7  9  1  0  0  0  0
 22 23  1  0  0  0  0
 22 24  1  0  0  0  0
 22 25  1  0  0  0  0
 20 21  1  0  0  0  0
 20 22  1  0  0  0  0
M  END
$$$$
default_name
  -OEChem-02102213163D

 25 24  0     1  0  0  0  0  0999 V2000
   -2.7826   -3.8464    0.7821 H   0  0  0  0  0  0  0  0  0  0  0  0
   -2.8156   -2.8034    0.4711 C   0  0  0  0  0  0  0  0  0  0  0  0
   -3.4336   -2.2354    1.1641 H   0  0  0  0  0  0  0  0  0  0  0  0
   -3.2256   -2.7344   -0.5349 H   0  0  0  0  0  0  0  0  0  0  0  0
   -1.4126   -2.2444    0.4801 C   0  0  0  0  0  0  0  0  0  0  0  0
   -0.4686   -2.9534    0.8001 O   0  0  0  0  0  0  0  0  0  0  0  0
   -1.2736   -0.9704    0.1241 N   0  0  0  0  0  0  0  0  0  0  0  0
   -2.0996   -0.4354   -0.1019 H   0  0  0  0  0  0  0  0  0  0  0  0
   -0.0016   -0.2394    0.1271 C   0  0  1  0  0  0  0  0  0  0  0  0
    0.7164   -0.7963    0.7332 H   0  0  0  0  0  0  0  0  0  0  0  0
    0.5351   -0.1414   -1.3146 C   0  0  0  0  0  0  0  0  0  0  0  0
    1.5815    0.1652   -1.2923 H   0  0  0  0  0  0  0  0  0  0  0  0
    0.4828   -1.1200   -1.7932 H   0  0  0  0  0  0  0  0  0  0  0  0
   -0.2103    0.8771   -2.1718 C   0  0  0  0  0  0  0  0  0  0  0  0
    0.1753    1.3243   -3.2440 O   0  0  0  0  0  0  0  0  0  0  0  0
   -1.3831    1.2952   -1.6601 O   0  0  0  0  0  0  0  0  0  0  0  0
   -1.7460    1.9069   -2.3013 H   0  0  0  0  0  0  0  0  0  0  0  0
   -0.1923    1.1526    0.7617 C   0  0  0  0  0  0  0  0  0  0  0  0
   -1.1582    1.8438    0.4410 O   0  0  0  0  0  0  0  0  0  0  0  0
    0.7203    1.5683    1.6472 N   0  0  0  0  0  0  0  0  0  0  0  0
    1.5210    0.9664    1.8100 H   0  0  0  0  0  0  0  0  0  0  0  0
    0.6747    2.8558    2.3368 C   0  0  0  0  0  0  0  0  0  0  0  0
   -0.3018    2.9877    2.8079 H   0  0  0  0  0  0  0  0  0  0  0  0
    1.4516    2.8997    3.1011 H   0  0  0  0  0  0  0  0  0  0  0  0
    0.8279    3.6639    1.6193 H   0  0  0  0  0  0  0  0  0  0  0  0
  5  6  2  0  0  0  0
  5  7  1  0  0  0  0
  2  3  1  0  0  0  0
  2  4  1  0  0  0  0
  2  5  1  0  0  0  0
  1  2  1  0  0  0  0
 18 19  2  0  0  0  0
 18 20  1  0  0  0  0
 16 17  1  0  0  0  0
 14 15  2  0  0  0  0
 14 16  1  0  0  0  0
 11 12  1  0  0  0  0
 11 13  1  0  0  0  0
 11 14  1  0  0  0  0
  9 10  1  0  0  0  0
  9 11  1  0  0  0  0
  9 18  1  0  0  0  0
  7  8  1  0  0  0  0
  7  9  1  0  0  0  0
 22 23  1  0  0  0  0
 22 24  1  0  0  0  0
 22 25  1  0  0  0  0
 20 21  1  0  0  0  0
 20 22  1  0  0  0  0
M  END
$$$$
default_name
  -OEChem-02102213163D

 25 24  0     1  0  0  0  0  0999 V2000
   -2.7826   -3.8464    0.7821 H   0  0  0  0  0  0  0  0  0  0  0  0
   -2.8156   -2.8034    0.4711 C   0  0  0  0  0  0  0  0  0  0  0  0
   -3.4336   -2.2354    1.1641 H   0  0  0  0  0  0  0  0  0  0  0  0
   -3.2256   -2.7344   -0.5349 H   0  0  0  0  0  0  0  0  0  0  0  0
   -1.4126   -2.2444    0.4801 C   0  0  0  0  0  0  0  0  0  0  0  0
   -0.4686   -2.9534    0.8001 O   0  0  0  0  0  0  0  0  0  0  0  0
   -1.2736   -0.9704    0.1241 N   0  0  0  0  0  0  0  0  0  0  0  0
   -2.0996   -0.4354   -0.1019 H   0  0  0  0  0  0  0  0  0  0  0  0
   -0.0016   -0.2394    0.1271 C   0  0  1  0  0  0  0  0  0  0  0  0
    0.7164   -0.7963    0.7332 H   0  0  0  0  0  0  0  0  0  0  0  0
    0.5351   -0.1414   -1.3146 C   0  0  0  0  0  0  0  0  0  0  0  0
    1.6248   -0.0998   -1.2942 H   0  0  0  0  0  0  0  0  0  0  0  0
    0.2442   -1.0301   -1.8759 H   0  0  0  0  0  0  0  0  0  0  0  0
    0.0547    1.1014   -2.0579 C   0  0  0  0  0  0  0  0  0  0  0  0
    0.3439    1.3993   -3.2094 O   0  0  0  0  0  0  0  0  0  0  0  0
   -0.7468    1.9124   -1.3426 O   0  0  0  0  0  0  0  0  0  0  0  0
   -0.9850    2.6305   -1.9298 H   0  0  0  0  0  0  0  0  0  0  0  0
   -0.1923    1.1526    0.7617 C   0  0  0  0  0  0  0  0  0  0  0  0
   -1.1582    1.8438    0.4410 O   0  0  0  0  0  0  0  0  0  0  0  0
    0.7203    1.5683    1.6472 N   0  0  0  0  0  0  0  0  0  0  0  0
    1.5210    0.9664    1.8100 H   0  0  0  0  0  0  0  0  0  0  0  0
    0.6747    2.8558    2.3368 C   0  0  0  0  0  0  0  0  0  0  0  0
   -0.3018    2.9877    2.8079 H   0  0  0  0  0  0  0  0  0  0  0  0
    1.4516    2.8997    3.1011 H   0  0  0  0  0  0  0  0  0  0  0  0
    0.8279    3.6639    1.6193 H   0  0  0  0  0  0  0  0  0  0  0  0
  5  6  2  0  0  0  0
  5  7  1  0  0  0  0
  2  3  1  0  0  0  0
  2  4  1  0  0  0  0
  2  5  1  0  0  0  0
  1  2  1  0  0  0  0
 18 19  2  0  0  0  0
 18 20  1  0  0  0  0
 16 17  1  0  0  0  0
 14 15  2  0  0  0  0
 14 16  1  0  0  0  0
 11 12  1  0  0  0  0
 11 13  1  0  0  0  0
 11 14  1  0  0  0  0
  9 10  1  0  0  0  0
  9 11  1  0  0  0  0
  9 18  1  0  0  0  0
  7  8  1  0  0  0  0
  7  9  1  0  0  0  0
 22 23  1  0  0  0  0
 22 24  1  0  0  0  0
 22 25  1  0  0  0  0
 20 21  1  0  0  0  0
 20 22  1  0  0  0  0
M  END
$$$$
default_name
  -OEChem-02102213163D

 25 24  0     1  0  0  0  0  0999 V2000
   -2.7826   -3.8464    0.7821 H   0  0  0  0  0  0  0  0  0  0  0  0
   -2.8156   -2.8034    0.4711 C   0  0  0  0  0  0  0  0  0  0  0  0
   -3.4336   -2.2354    1.1641 H   0  0  0  0  0  0  0  0  0  0  0  0
   -3.2256   -2.7344   -0.5349 H   0  0  0  0  0  0  0  0  0  0  0  0
   -1.4126   -2.2444    0.4801 C   0  0  0  0  0  0  0  0  0  0  0  0
   -0.4686   -2.9534    0.8001 O   0  0  0  0  0  0  0  0  0  0  0  0
   -1.2736   -0.9704    0.1241 N   0  0  0  0  0  0  0  0  0  0  0  0
   -2.0996   -0.4354   -0.1019 H   0  0  0  0  0  0  0  0  0  0  0  0
   -0.0016   -0.2394    0.1271 C   0  0  1  0  0  0  0  0  0  0  0  0
    0.7164   -0.7963    0.7332 H   0  0  0  0  0  0  0  0  0  0  0  0
    0.5351   -0.1414   -1.3146 C   0  0  0  0  0  0  0  0  0  0  0  0
    1.6248   -0.0998   -1.2942 H   0  0  0  0  0  0  0  0  0  0  0  0
    0.2442   -1.0301   -1.8759 H   0  0  0  0  0  0  0  0  0  0  0  0
    0.0547    1.1014   -2.0579 C   0  0  0  0  0  0  0  0  0  0  0  0
    0.1212    1.2786   -3.2672 O   0  0  0  0  0  0  0  0  0  0  0  0
   -0.4725    2.0598   -1.2734 O   0  0  0  0  0  0  0  0  0  0  0  0
   -0.7460    2.7619   -1.8646 H   0  0  0  0  0  0  0  0  0  0  0  0
   -0.1923    1.1526    0.7617 C   0  0  0  0  0  0  0  0  0  0  0  0
   -1.1582    1.8438    0.4410 O   0  0  0  0  0  0  0  0  0  0  0  0
    0.7203    1.5683    1.6472 N   0  0  0  0  0  0  0  0  0  0  0  0
    1.5210    0.9664    1.8100 H   0  0  0  0  0  0  0  0  0  0  0  0
    0.6747    2.8558    2.3368 C   0  0  0  0  0  0  0  0  0  0  0  0
   -0.3018    2.9877    2.8079 H   0  0  0  0  0  0  0  0  0  0  0  0
    1.4516    2.8997    3.1011 H   0  0  0  0  0  0  0  0  0  0  0  0
    0.8279    3.6639    1.6193 H   0  0  0  0  0  0  0  0  0  0  0  0
  5  6  2  0  0  0  0
  5  7  1  0  0  0  0
  2  3  1  0  0  0  0
  2  4  1  0  0  0  0
  2  5  1  0  0  0  0
  1  2  1  0  0  0  0
 18 19  2  0  0  0  0
 18 20  1  0  0  0  0
 16 17  1  0  0  0  0
 14 15  2  0  0  0  0
 14 16  1  0  0  0  0
 11 12  1  0  0  0  0
 11 13  1  0  0  0  0
 11 14  1  0  0  0  0
  9 10  1  0  0  0  0
  9 11  1  0  0  0  0
  9 18  1  0  0  0  0
  7  8  1  0  0  0  0
  7  9  1  0  0  0  0
 22 23  1  0  0  0  0
 22 24  1  0  0  0  0
 22 25  1  0  0  0  0
 20 21  1  0  0  0  0
 20 22  1  0  0  0  0
M  END
$$$$
default_name
  -OEChem-02102213163D

 25 24  0     1  0  0  0  0  0999 V2000
   -2.7826   -3.8464    0.7821 H   0  0  0  0  0  0  0  0  0  0  0  0
   -2.8156   -2.8034    0.4711 C   0  0  0  0  0  0  0  0  0  0  0  0
   -3.4336   -2.2354    1.1641 H   0  0  0  0  0  0  0  0  0  0  0  0
   -3.2256   -2.7344   -0.5349 H   0  0  0  0  0  0  0  0  0  0  0  0
   -1.4126   -2.2444    0.4801 C   0  0  0  0  0  0  0  0  0  0  0  0
   -0.4686   -2.9534    0.8001 O   0  0  0  0  0  0  0  0  0  0  0  0
   -1.2736   -0.9704    0.1241 N   0  0  0  0  0  0  0  0  0  0  0  0
   -2.0996   -0.4354   -0.1019 H   0  0  0  0  0  0  0  0  0  0  0  0
   -0.0016   -0.2394    0.1271 C   0  0  1  0  0  0  0  0  0  0  0  0
    0.7164   -0.7963    0.7332 H   0  0  0  0  0  0  0  0  0  0  0  0
    0.5351   -0.1414   -1.3146 C   0  0  0  0  0  0  0  0  0  0  0  0
    1.6248   -0.0998   -1.2942 H   0  0  0  0  0  0  0  0  0  0  0  0
    0.2442   -1.0301   -1.8759 H   0  0  0  0  0  0  0  0  0  0  0  0
    0.0547    1.1014   -2.0579 C   0  0  0  0  0  0  0  0  0  0  0  0
   -0.1213    1.1854   -3.2663 O   0  0  0  0  0  0  0  0  0  0  0  0
   -0.1743    2.1732   -1.2765 O   0  0  0  0  0  0  0  0  0  0  0  0
   -0.4848    2.8639   -1.8627 H   0  0  0  0  0  0  0  0  0  0  0  0
   -0.1923    1.1526    0.7617 C   0  0  0  0  0  0  0  0  0  0  0  0
   -1.1582    1.8438    0.4410 O   0  0  0  0  0  0  0  0  0  0  0  0
    0.7203    1.5683    1.6472 N   0  0  0  0  0  0  0  0  0  0  0  0
    1.5210    0.9664    1.8100 H   0  0  0  0  0  0  0  0  0  0  0  0
    0.6747    2.8558    2.3368 C   0  0  0  0  0  0  0  0  0  0  0  0
   -0.3018    2.9877    2.8079 H   0  0  0  0  0  0  0  0  0  0  0  0
    1.4516    2.8997    3.1011 H   0  0  0  0  0  0  0  0  0  0  0  0
    0.8279    3.6639    1.6193 H   0  0  0  0  0  0  0  0  0  0  0  0
  5  6  2  0  0  0  0
  5  7  1  0  0  0  0
  2  3  1  0  0  0  0
  2  4  1  0  0  0  0
  2  5  1  0  0  0  0
  1  2  1  0  0  0  0
 18 19  2  0  0  0  0
 18 20  1  0  0  0  0
 16 17  1  0  0  0  0
 14 15  2  0  0  0  0
 14 16  1  0  0  0  0
 11 12  1  0  0  0  0
 11 13  1  0  0  0  0
 11 14  1  0  0  0  0
  9 10  1  0  0  0  0
  9 11  1  0  0  0  0
  9 18  1  0  0  0  0
  7  8  1  0  0  0  0
  7  9  1  0  0  0  0
 22 23  1  0  0  0  0
 22 24  1  0  0  0  0
 22 25  1  0  0  0  0
 20 21  1  0  0  0  0
 20 22  1  0  0  0  0
M  END
$$$$
default_name
  -OEChem-02102213163D

 25 24  0     1  0  0  0  0  0999 V2000
   -2.7826   -3.8464    0.7821 H   0  0  0  0  0  0  0  0  0  0  0  0
   -2.8156   -2.8034    0.4711 C   0  0  0  0  0  0  0  0  0  0  0  0
   -3.4336   -2.2354    1.1641 H   0  0  0  0  0  0  0  0  0  0  0  0
   -3.2256   -2.7344   -0.5349 H   0  0  0  0  0  0  0  0  0  0  0  0
   -1.4126   -2.2444    0.4801 C   0  0  0  0  0  0  0  0  0  0  0  0
   -0.4686   -2.9534    0.8001 O   0  0  0  0  0  0  0  0  0  0  0  0
   -1.2736   -0.9704    0.1241 N   0  0  0  0  0  0  0  0  0  0  0  0
   -2.0996   -0.4354   -0.1019 H   0  0  0  0  0  0  0  0  0  0  0  0
   -0.0016   -0.2394    0.1271 C   0  0  1  0  0  0  0  0  0  0  0  0
    0.7164   -0.7963    0.7332 H   0  0  0  0  0  0  0  0  0  0  0  0
    0.5351   -0.1414   -1.3146 C   0  0  0  0  0  0  0  0  0  0  0  0
    1.6248   -0.0998   -1.2942 H   0  0  0  0  0  0  0  0  0  0  0  0
    0.2442   -1.0301   -1.8759 H   0  0  0  0  0  0  0  0  0  0  0  0
    0.0547    1.1014   -2.0579 C   0  0  0  0  0  0  0  0  0  0  0  0
   -0.3671    1.1260   -3.2067 O   0  0  0  0  0  0  0  0  0  0  0  0
    0.1273    2.2449   -1.3515 O   0  0  0  0  0  0  0  0  0  0  0  0
   -0.2192    2.9297   -1.9243 H   0  0  0  0  0  0  0  0  0  0  0  0
   -0.1923    1.1526    0.7617 C   0  0  0  0  0  0  0  0  0  0  0  0
   -1.1582    1.8438    0.4410 O   0  0  0  0  0  0  0  0  0  0  0  0
    0.7203    1.5683    1.6472 N   0  0  0  0  0  0  0  0  0  0  0  0
    1.5210    0.9664    1.8100 H   0  0  0  0  0  0  0  0  0  0  0  0
    0.6747    2.8558    2.3368 C   0  0  0  0  0  0  0  0  0  0  0  0
   -0.3018    2.9877    2.8079 H   0  0  0  0  0  0  0  0  0  0  0  0
    1.4516    2.8997    3.1011 H   0  0  0  0  0  0  0  0  0  0  0  0
    0.8279    3.6639    1.6193 H   0  0  0  0  0  0  0  0  0  0  0  0
  5  6  2  0  0  0  0
  5  7  1  0  0  0  0
  2  3  1  0  0  0  0
  2  4  1  0  0  0  0
  2  5  1  0  0  0  0
  1  2  1  0  0  0  0
 18 19  2  0  0  0  0
 18 20  1  0  0  0  0
 16 17  1  0  0  0  0
 14 15  2  0  0  0  0
 14 16  1  0  0  0  0
 11 12  1  0  0  0  0
 11 13  1  0  0  0  0
 11 14  1  0  0  0  0
  9 10  1  0  0  0  0
  9 11  1  0  0  0  0
  9 18  1  0  0  0  0
  7  8  1  0  0  0  0
  7  9  1  0  0  0  0
 22 23  1  0  0  0  0
 22 24  1  0  0  0  0
 22 25  1  0  0  0  0
 20 21  1  0  0  0  0
 20 22  1  0  0  0  0
M  END
$$$$
default_name
  -OEChem-02102213163D

 25 24  0     1  0  0  0  0  0999 V2000
   -2.7826   -3.8464    0.7821 H   0  0  0  0  0  0  0  0  0  0  0  0
   -2.8156   -2.8034    0.4711 C   0  0  0  0  0  0  0  0  0  0  0  0
   -3.4336   -2.2354    1.1641 H   0  0  0  0  0  0  0  0  0  0  0  0
   -3.2256   -2.7344   -0.5349 H   0  0  0  0  0  0  0  0  0  0  0  0
   -1.4126   -2.2444    0.4801 C   0  0  0  0  0  0  0  0  0  0  0  0
   -0.4686   -2.9534    0.8001 O   0  0  0  0  0  0  0  0  0  0  0  0
   -1.2736   -0.9704    0.1241 N   0  0  0  0  0  0  0  0  0  0  0  0
   -2.0996   -0.4354   -0.1019 H   0  0  0  0  0  0  0  0  0  0  0  0
   -0.0016   -0.2394    0.1271 C   0  0  1  0  0  0  0  0  0  0  0  0
    0.7164   -0.7963    0.7332 H   0  0  0  0  0  0  0  0  0  0  0  0
    0.5351   -0.1414   -1.3146 C   0  0  0  0  0  0  0  0  0  0  0  0
    1.6248   -0.0998   -1.2942 H   0  0  0  0  0  0  0  0  0  0  0  0
    0.2442   -1.0301   -1.8759 H   0  0  0  0  0  0  0  0  0  0  0  0
    0.0547    1.1014   -2.0579 C   0  0  0  0  0  0  0  0  0  0  0  0
   -0.5995    1.1046   -3.0924 O   0  0  0  0  0  0  0  0  0  0  0  0
    0.4119    2.2700   -1.4934 O   0  0  0  0  0  0  0  0  0  0  0  0
    0.0326    2.9548   -2.0452 H   0  0  0  0  0  0  0  0  0  0  0  0
   -0.1923    1.1526    0.7617 C   0  0  0  0  0  0  0  0  0  0  0  0
   -1.1582    1.8438    0.4410 O   0  0  0  0  0  0  0  0  0  0  0  0
    0.7203    1.5683    1.6472 N   0  0  0  0  0  0  0  0  0  0  0  0
    1.5210    0.9664    1.8100 H   0  0  0  0  0  0  0  0  0  0  0  0
    0.6747    2.8558    2.3368 C   0  0  0  0  0  0  0  0  0  0  0  0
   -0.3018    2.9877    2.8079 H   0  0  0  0  0  0  0  0  0  0  0  0
    1.4516    2.8997    3.1011 H   0  0  0  0  0  0  0  0  0  0  0  0
    0.8279    3.6639    1.6193 H   0  0  0  0  0  0  0  0  0  0  0  0
  5  6  2  0  0  0  0
  5  7  1  0  0  0  0
  2  3  1  0  0  0  0
  2  4  1  0  0  0  0
  2  5  1  0  0  0  0
  1  2  1  0  0  0  0
 18 19  2  0  0  0  0
 18 20  1  0  0  0  0
 16 17  1  0  0  0  0
 14 15  2  0  0  0  0
 14 16  1  0  0  0  0
 11 12  1  0  0  0  0
 11 13  1  0  0  0  0
 11 14  1  0  0  0  0
  9 10  1  0  0  0  0
  9 11  1  0  0  0  0
  9 18  1  0  0  0  0
  7  8  1  0  0  0  0
  7  9  1  0  0  0  0
 22 23  1  0  0  0  0
 22 24  1  0  0  0  0
 22 25  1  0  0  0  0
 20 21  1  0  0  0  0
 20 22  1  0  0  0  0
M  END
$$$$
default_name
  -OEChem-02102213163D

 25 24  0     1  0  0  0  0  0999 V2000
   -2.7826   -3.8464    0.7821 H   0  0  0  0  0  0  0  0  0  0  0  0
   -2.8156   -2.8034    0.4711 C   0  0  0  0  0  0  0  0  0  0  0  0
   -3.4336   -2.2354    1.1641 H   0  0  0  0  0  0  0  0  0  0  0  0
   -3.2256   -2.7344   -0.5349 H   0  0  0  0  0  0  0  0  0  0  0  0
   -1.4126   -2.2444    0.4801 C   0  0  0  0  0  0  0  0  0  0  0  0
   -0.4686   -2.9534    0.8001 O   0  0  0  0  0  0  0  0  0  0  0  0
   -1.2736   -0.9704    0.1241 N   0  0  0  0  0  0  0  0  0  0  0  0
   -2.0996   -0.4354   -0.1019 H   0  0  0  0  0  0  0  0  0  0  0  0
   -0.0016   -0.2394    0.1271 C   0  0  1  0  0  0  0  0  0  0  0  0
    0.7164   -0.7963    0.7332 H   0  0  0  0  0  0  0  0  0  0  0  0
    0.5351   -0.1414   -1.3146 C   0  0  0  0  0  0  0  0  0  0  0  0
    1.6248   -0.0998   -1.2942 H   0  0  0  0  0  0  0  0  0  0  0  0
    0.2442   -1.0301   -1.8759 H   0  0  0  0  0  0  0  0  0  0  0  0
    0.0547    1.1014   -2.0579 C   0  0  0  0  0  0  0  0  0  0  0  0
   -0.8025    1.1224   -2.9314 O   0  0  0  0  0  0  0  0  0  0  0  0
    0.6601    2.2468   -1.6926 O   0  0  0  0  0  0  0  0  0  0  0  0
    0.2535    2.9374   -2.2170 H   0  0  0  0  0  0  0  0  0  0  0  0
   -0.1923    1.1526    0.7617 C   0  0  0  0  0  0  0  0  0  0  0  0
   -1.1582    1.8438    0.4410 O   0  0  0  0  0  0  0  0  0  0  0  0
    0.7203    1.5683    1.6472 N   0  0  0  0  0  0  0  0  0  0  0  0
    1.5210    0.9664    1.8100 H   0  0  0  0  0  0  0  0  0  0  0  0
    0.6747    2.8558    2.3368 C   0  0  0  0  0  0  0  0  0  0  0  0
   -0.3018    2.9877    2.8079 H   0  0  0  0  0  0  0  0  0  0  0  0
    1.4516    2.8997    3.1011 H   0  0  0  0  0  0  0  0  0  0  0  0
    0.8279    3.6639    1.6193 H   0  0  0  0  0  0  0  0  0  0  0  0
  5  6  2  0  0  0  0
  5  7  1  0  0  0  0
  2  3  1  0  0  0  0
  2  4  1  0  0  0  0
  2  5  1  0  0  0  0
  1  2  1  0  0  0  0
 18 19  2  0  0  0  0
 18 20  1  0  0  0  0
 16 17  1  0  0  0  0
 14 15  2  0  0  0  0
 14 16  1  0  0  0  0
 11 12  1  0  0  0  0
 11 13  1  0  0  0  0
 11 14  1  0  0  0  0
  9 10  1  0  0  0  0
  9 11  1  0  0  0  0
  9 18  1  0  0  0  0
  7  8  1  0  0  0  0
  7  9  1  0  0  0  0
 22 23  1  0  0  0  0
 22 24  1  0  0  0  0
 22 25  1  0  0  0  0
 20 21  1  0  0  0  0
 20 22  1  0  0  0  0
M  END
$$$$
default_name
  -OEChem-02102213163D

 25 24  0     1  0  0  0  0  0999 V2000
   -2.7826   -3.8464    0.7821 H   0  0  0  0  0  0  0  0  0  0  0  0
   -2.8156   -2.8034    0.4711 C   0  0  0  0  0  0  0  0  0  0  0  0
   -3.4336   -2.2354    1.1641 H   0  0  0  0  0  0  0  0  0  0  0  0
   -3.2256   -2.7344   -0.5349 H   0  0  0  0  0  0  0  0  0  0  0  0
   -1.4126   -2.2444    0.4801 C   0  0  0  0  0  0  0  0  0  0  0  0
   -0.4686   -2.9534    0.8001 O   0  0  0  0  0  0  0  0  0  0  0  0
   -1.2736   -0.9704    0.1241 N   0  0  0  0  0  0  0  0  0  0  0  0
   -2.0996   -0.4354   -0.1019 H   0  0  0  0  0  0  0  0  0  0  0  0
   -0.0016   -0.2394    0.1271 C   0  0  1  0  0  0  0  0  0  0  0  0
    0.7164   -0.7963    0.7332 H   0  0  0  0  0  0  0  0  0  0  0  0
    0.5351   -0.1414   -1.3146 C   0  0  0  0  0  0  0  0  0  0  0  0
    1.6248   -0.0998   -1.2942 H   0  0  0  0  0  0  0  0  0  0  0  0
    0.2442   -1.0301   -1.8759 H   0  0  0  0  0  0  0  0  0  0  0  0
    0.0547    1.1014   -2.0579 C   0  0  0  0  0  0  0  0  0  0  0  0
   -0.9625    1.1784   -2.7344 O   0  0  0  0  0  0  0  0  0  0  0  0
    0.8548    2.1769   -1.9354 O   0  0  0  0  0  0  0  0  0  0  0  0
    0.4285    2.8787   -2.4282 H   0  0  0  0  0  0  0  0  0  0  0  0
   -0.1923    1.1526    0.7617 C   0  0  0  0  0  0  0  0  0  0  0  0
   -1.1582    1.8438    0.4410 O   0  0  0  0  0  0  0  0  0  0  0  0
    0.7203    1.5683    1.6472 N   0  0  0  0  0  0  0  0  0  0  0  0
    1.5210    0.9664    1.8100 H   0  0  0  0  0  0  0  0  0  0  0  0
    0.6747    2.8558    2.3368 C   0  0  0  0  0  0  0  0  0  0  0  0
   -0.3018    2.9877    2.8079 H   0  0  0  0  0  0  0  0  0  0  0  0
    1.4516    2.8997    3.1011 H   0  0  0  0  0  0  0  0  0  0  0  0
    0.8279    3.6639    1.6193 H   0  0  0  0  0  0  0  0  0  0  0  0
  5  6  2  0  0  0  0
  5  7  1  0  0  0  0
  2  3  1  0  0  0  0
  2  4  1  0  0  0  0
  2  5  1  0  0  0  0
  1  2  1  0  0  0  0
 18 19  2  0  0  0  0
 18 20  1  0  0  0  0
 16 17  1  0  0  0  0
 14 15  2  0  0  0  0
 14 16  1  0  0  0  0
 11 12  1  0  0  0  0
 11 13  1  0  0  0  0
 11 14  1  0  0  0  0
  9 10  1  0  0  0  0
  9 11  1  0  0  0  0
  9 18  1  0  0  0  0
  7  8  1  0  0  0  0
  7  9  1  0  0  0  0
 22 23  1  0  0  0  0
 22 24  1  0  0  0  0
 22 25  1  0  0  0  0
 20 21  1  0  0  0  0
 20 22  1  0  0  0  0
M  END
$$$$
default_name
  -OEChem-02102213163D

 25 24  0     1  0  0  0  0  0999 V2000
   -2.7826   -3.8464    0.7821 H   0  0  0  0  0  0  0  0  0  0  0  0
   -2.8156   -2.8034    0.4711 C   0  0  0  0  0  0  0  0  0  0  0  0
   -3.4336   -2.2354    1.1641 H   0  0  0  0  0  0  0  0  0  0  0  0
   -3.2256   -2.7344   -0.5349 H   0  0  0  0  0  0  0  0  0  0  0  0
   -1.4126   -2.2444    0.4801 C   0  0  0  0  0  0  0  0  0  0  0  0
   -0.4686   -2.9534    0.8001 O   0  0  0  0  0  0  0  0  0  0  0  0
   -1.2736   -0.9704    0.1241 N   0  0  0  0  0  0  0  0  0  0  0  0
   -2.0996   -0.4354   -0.1019 H   0  0  0  0  0  0  0  0  0  0  0  0
   -0.0016   -0.2394    0.1271 C   0  0  1  0  0  0  0  0  0  0  0  0
    0.7164   -0.7963    0.7332 H   0  0  0  0  0  0  0  0  0  0  0  0
    0.5351   -0.1414   -1.3146 C   0  0  0  0  0  0  0  0  0  0  0  0
    1.6248   -0.0998   -1.2942 H   0  0  0  0  0  0  0  0  0  0  0  0
    0.2442   -1.0301   -1.8759 H   0  0  0  0  0  0  0  0  0  0  0  0
    0.0547    1.1014   -2.0579 C   0  0  0  0  0  0  0  0  0  0  0  0
   -1.0684    1.2687   -2.5150 O   0  0  0  0  0  0  0  0  0  0  0  0
    0.9829    2.0651   -2.2052 O   0  0  0  0  0  0  0  0  0  0  0  0
    0.5455    2.7828   -2.6643 H   0  0  0  0  0  0  0  0  0  0  0  0
   -0.1923    1.1526    0.7617 C   0  0  0  0  0  0  0  0  0  0  0  0
   -1.1582    1.8438    0.4410 O   0  0  0  0  0  0  0  0  0  0  0  0
    0.7203    1.5683    1.6472 N   0  0  0  0  0  0  0  0  0  0  0  0
    1.5210    0.9664    1.8100 H   0  0  0  0  0  0  0  0  0  0  0  0
    0.6747    2.8558    2.3368 C   0  0  0  0  0  0  0  0  0  0  0  0
   -0.3018    2.9877    2.8079 H   0  0  0  0  0  0  0  0  0  0  0  0
    1.4516    2.8997    3.1011 H   0  0  0  0  0  0  0  0  0  0  0  0
    0.8279    3.6639    1.6193 H   0  0  0  0  0  0  0  0  0  0  0  0
  5  6  2  0  0  0  0
  5  7  1  0  0  0  0
  2  3  1  0  0  0  0
  2  4  1  0  0  0  0
  2  5  1  0  0  0  0
  1  2  1  0  0  0  0
 18 19  2  0  0  0  0
 18 20  1  0  0  0  0
 16 17  1  0  0  0  0
 14 15  2  0  0  0  0
 14 16  1  0  0  0  0
 11 12  1  0  0  0  0
 11 13  1  0  0  0  0
 11 14  1  0  0  0  0
  9 10  1  0  0  0  0
  9 11  1  0  0  0  0
  9 18  1  0  0  0  0
  7  8  1  0  0  0  0
  7  9  1  0  0  0  0
 22 23  1  0  0  0  0
 22 24  1  0  0  0  0
 22 25  1  0  0  0  0
 20 21  1  0  0  0  0
 20 22  1  0  0  0  0
M  END
$$$$
default_name
  -OEChem-02102213163D

 25 24  0     1  0  0  0  0  0999 V2000
   -2.7826   -3.8464    0.7821 H   0  0  0  0  0  0  0  0  0  0  0  0
   -2.8156   -2.8034    0.4711 C   0  0  0  0  0  0  0  0  0  0  0  0
   -3.4336   -2.2354    1.1641 H   0  0  0  0  0  0  0  0  0  0  0  0
   -3.2256   -2.7344   -0.5349 H   0  0  0  0  0  0  0  0  0  0  0  0
   -1.4126   -2.2444    0.4801 C   0  0  0  0  0  0  0  0  0  0  0  0
   -0.4686   -2.9534    0.8001 O   0  0  0  0  0  0  0  0  0  0  0  0
   -1.2736   -0.9704    0.1241 N   0  0  0  0  0  0  0  0  0  0  0  0
   -2.0996   -0.4354   -0.1019 H   0  0  0  0  0  0  0  0  0  0  0  0
   -0.0016   -0.2394    0.1271 C   0  0  1  0  0  0  0  0  0  0  0  0
    0.7164   -0.7963    0.7332 H   0  0  0  0  0  0  0  0  0  0  0  0
    0.5351   -0.1414   -1.3146 C   0  0  0  0  0  0  0  0  0  0  0  0
    1.6248   -0.0998   -1.2942 H   0  0  0  0  0  0  0  0  0  0  0  0
    0.2442   -1.0301   -1.8759 H   0  0  0  0  0  0  0  0  0  0  0  0
    0.0547    1.1014   -2.0579 C   0  0  0  0  0  0  0  0  0  0  0  0
   -1.1130    1.3871   -2.2881 O   0  0  0  0  0  0  0  0  0  0  0  0
    1.0357    1.9188   -2.4838 O   0  0  0  0  0  0  0  0  0  0  0  0
    0.5968    2.6561   -2.9092 H   0  0  0  0  0  0  0  0  0  0  0  0
   -0.1923    1.1526    0.7617 C   0  0  0  0  0  0  0  0  0  0  0  0
   -1.1582    1.8438    0.4410 O   0  0  0  0  0  0  0  0  0  0  0  0
    0.7203    1.5683    1.6472 N   0  0  0  0  0  0  0  0  0  0  0  0
    1.5210    0.9664    1.8100 H   0  0  0  0  0  0  0  0  0  0  0  0
    0.6747    2.8558    2.3368 C   0  0  0  0  0  0  0  0  0  0  0  0
   -0.3018    2.9877    2.8079 H   0  0  0  0  0  0  0  0  0  0  0  0
    1.4516    2.8997    3.1011 H   0  0  0  0  0  0  0  0  0  0  0  0
    0.8279    3.6639    1.6193 H   0  0  0  0  0  0  0  0  0  0  0  0
  5  6  2  0  0  0  0
  5  7  1  0  0  0  0
  2  3  1  0  0  0  0
  2  4  1  0  0  0  0
  2  5  1  0  0  0  0
  1  2  1  0  0  0  0
 18 19  2  0  0  0  0
 18 20  1  0  0  0  0
 16 17  1  0  0  0  0
 14 15  2  0  0  0  0
 14 16  1  0  0  0  0
 11 12  1  0  0  0  0
 11 13  1  0  0  0  0
 11 14  1  0  0  0  0
  9 10  1  0  0  0  0
  9 11  1  0  0  0  0
  9 18  1  0  0  0  0
  7  8  1  0  0  0  0
  7  9  1  0  0  0  0
 22 23  1  0  0  0  0
 22 24  1  0  0  0  0
 22 25  1  0  0  0  0
 20 21  1  0  0  0  0
 20 22  1  0  0  0  0
M  END
$$$$
default_name
  -OEChem-02102213163D

 25 24  0     1  0  0  0  0  0999 V2000
   -2.7826   -3.8464    0.7821 H   0  0  0  0  0  0  0  0  0  0  0  0
   -2.8156   -2.8034    0.4711 C   0  0  0  0  0  0  0  0  0  0  0  0
   -3.4336   -2.2354    1.1641 H   0  0  0  0  0  0  0  0  0  0  0  0
   -3.2256   -2.7344   -0.5349 H   0  0  0  0  0  0  0  0  0  0  0  0
   -1.4126   -2.2444    0.4801 C   0  0  0  0  0  0  0  0  0  0  0  0
   -0.4686   -2.9534    0.8001 O   0  0  0  0  0  0  0  0  0  0  0  0
   -1.2736   -0.9704    0.1241 N   0  0  0  0  0  0  0  0  0  0  0  0
   -2.0996   -0.4354   -0.1019 H   0  0  0  0  0  0  0  0  0  0  0  0
   -0.0016   -0.2394    0.1271 C   0  0  1  0  0  0  0  0  0  0  0  0
    0.7164   -0.7963    0.7332 H   0  0  0  0  0  0  0  0  0  0  0  0
    0.5351   -0.1414   -1.3146 C   0  0  0  0  0  0  0  0  0  0  0  0
    1.6248   -0.0998   -1.2942 H   0  0  0  0  0  0  0  0  0  0  0  0
    0.2442   -1.0301   -1.8759 H   0  0  0  0  0  0  0  0  0  0  0  0
    0.0547    1.1014   -2.0579 C   0  0  0  0  0  0  0  0  0  0  0  0
   -1.0934    1.5256   -2.0692 O   0  0  0  0  0  0  0  0  0  0  0  0
    1.0095    1.7483   -2.7521 O   0  0  0  0  0  0  0  0  0  0  0  0
    0.5787    2.5074   -3.1462 H   0  0  0  0  0  0  0  0  0  0  0  0
   -0.1923    1.1526    0.7617 C   0  0  0  0  0  0  0  0  0  0  0  0
   -1.1582    1.8438    0.4410 O   0  0  0  0  0  0  0  0  0  0  0  0
    0.7203    1.5683    1.6472 N   0  0  0  0  0  0  0  0  0  0  0  0
    1.5210    0.9664    1.8100 H   0  0  0  0  0  0  0  0  0  0  0  0
    0.6747    2.8558    2.3368 C   0  0  0  0  0  0  0  0  0  0  0  0
   -0.3018    2.9877    2.8079 H   0  0  0  0  0  0  0  0  0  0  0  0
    1.4516    2.8997    3.1011 H   0  0  0  0  0  0  0  0  0  0  0  0
    0.8279    3.6639    1.6193 H   0  0  0  0  0  0  0  0  0  0  0  0
  5  6  2  0  0  0  0
  5  7  1  0  0  0  0
  2  3  1  0  0  0  0
  2  4  1  0  0  0  0
  2  5  1  0  0  0  0
  1  2  1  0  0  0  0
 18 19  2  0  0  0  0
 18 20  1  0  0  0  0
 16 17  1  0  0  0  0
 14 15  2  0  0  0  0
 14 16  1  0  0  0  0
 11 12  1  0  0  0  0
 11 13  1  0  0  0  0
 11 14  1  0  0  0  0
  9 10  1  0  0  0  0
  9 11  1  0  0  0  0
  9 18  1  0  0  0  0
  7  8  1  0  0  0  0
  7  9  1  0  0  0  0
 22 23  1  0  0  0  0
 22 24  1  0  0  0  0
 22 25  1  0  0  0  0
 20 21  1  0  0  0  0
 20 22  1  0  0  0  0
M  END
$$$$
default_name
  -OEChem-02102213163D

 25 24  0     1  0  0  0  0  0999 V2000
   -2.7826   -3.8464    0.7821 H   0  0  0  0  0  0  0  0  0  0  0  0
   -2.8156   -2.8034    0.4711 C   0  0  0  0  0  0  0  0  0  0  0  0
   -3.4336   -2.2354    1.1641 H   0  0  0  0  0  0  0  0  0  0  0  0
   -3.2256   -2.7344   -0.5349 H   0  0  0  0  0  0  0  0  0  0  0  0
   -1.4126   -2.2444    0.4801 C   0  0  0  0  0  0  0  0  0  0  0  0
   -0.4686   -2.9534    0.8001 O   0  0  0  0  0  0  0  0  0  0  0  0
   -1.2736   -0.9704    0.1241 N   0  0  0  0  0  0  0  0  0  0  0  0
   -2.0996   -0.4354   -0.1019 H   0  0  0  0  0  0  0  0  0  0  0  0
   -0.0016   -0.2394    0.1271 C   0  0  1  0  0  0  0  0  0  0  0  0
    0.7164   -0.7963    0.7332 H   0  0  0  0  0  0  0  0  0  0  0  0
    0.5351   -0.1414   -1.3146 C   0  0  0  0  0  0  0  0  0  0  0  0
    1.6248   -0.0998   -1.2942 H   0  0  0  0  0  0  0  0  0  0  0  0
    0.2442   -1.0301   -1.8759 H   0  0  0  0  0  0  0  0  0  0  0  0
    0.0547    1.1014   -2.0579 C   0  0  0  0  0  0  0  0  0  0  0  0
   -1.0108    1.6748   -1.8731 O   0  0  0  0  0  0  0  0  0  0  0  0
    0.9061    1.5650   -2.9918 O   0  0  0  0  0  0  0  0  0  0  0  0
    0.4924    2.3467   -3.3592 H   0  0  0  0  0  0  0  0  0  0  0  0
   -0.1923    1.1526    0.7617 C   0  0  0  0  0  0  0  0  0  0  0  0
   -1.1582    1.8438    0.4410 O   0  0  0  0  0  0  0  0  0  0  0  0
    0.7203    1.5683    1.6472 N   0  0  0  0  0  0  0  0  0  0  0  0
    1.5210    0.9664    1.8100 H   0  0  0  0  0  0  0  0  0  0  0  0
    0.6747    2.8558    2.3368 C   0  0  0  0  0  0  0  0  0  0  0  0
   -0.3018    2.9877    2.8079 H   0  0  0  0  0  0  0  0  0  0  0  0
    1.4516    2.8997    3.1011 H   0  0  0  0  0  0  0  0  0  0  0  0
    0.8279    3.6639    1.6193 H   0  0  0  0  0  0  0  0  0  0  0  0
  5  6  2  0  0  0  0
  5  7  1  0  0  0  0
  2  3  1  0  0  0  0
  2  4  1  0  0  0  0
  2  5  1  0  0  0  0
  1  2  1  0  0  0  0
 18 19  2  0  0  0  0
 18 20  1  0  0  0  0
 16 17  1  0  0  0  0
 14 15  2  0  0  0  0
 14 16  1  0  0  0  0
 11 12  1  0  0  0  0
 11 13  1  0  0  0  0
 11 14  1  0  0  0  0
  9 10  1  0  0  0  0
  9 11  1  0  0  0  0
  9 18  1  0  0  0  0
  7  8  1  0  0  0  0
  7  9  1  0  0  0  0
 22 23  1  0  0  0  0
 22 24  1  0  0  0  0
 22 25  1  0  0  0  0
 20 21  1  0  0  0  0
 20 22  1  0  0  0  0
M  END
$$$$
default_name
  -OEChem-02102213163D

 25 24  0     1  0  0  0  0  0999 V2000
   -2.7826   -3.8464    0.7821 H   0  0  0  0  0  0  0  0  0  0  0  0
   -2.8156   -2.8034    0.4711 C   0  0  0  0  0  0  0  0  0  0  0  0
   -3.4336   -2.2354    1.1641 H   0  0  0  0  0  0  0  0  0  0  0  0
   -3.2256   -2.7344   -0.5349 H   0  0  0  0  0  0  0  0  0  0  0  0
   -1.4126   -2.2444    0.4801 C   0  0  0  0  0  0  0  0  0  0  0  0
   -0.4686   -2.9534    0.8001 O   0  0  0  0  0  0  0  0  0  0  0  0
   -1.2736   -0.9704    0.1241 N   0  0  0  0  0  0  0  0  0  0  0  0
   -2.0996   -0.4354   -0.1019 H   0  0  0  0  0  0  0  0  0  0  0  0
   -0.0016   -0.2394    0.1271 C   0  0  1  0  0  0  0  0  0  0  0  0
    0.7164   -0.7963    0.7332 H   0  0  0  0  0  0  0  0  0  0  0  0
    0.5351   -0.1414   -1.3146 C   0  0  0  0  0  0  0  0  0  0  0  0
    1.6248   -0.0998   -1.2942 H   0  0  0  0  0  0  0  0  0  0  0  0
    0.2442   -1.0301   -1.8759 H   0  0  0  0  0  0  0  0  0  0  0  0
    0.0547    1.1014   -2.0579 C   0  0  0  0  0  0  0  0  0  0  0  0
   -0.8709    1.8245   -1.7133 O   0  0  0  0  0  0  0  0  0  0  0  0
    0.7326    1.3814   -3.1866 O   0  0  0  0  0  0  0  0  0  0  0  0
    0.3440    2.1849   -3.5337 H   0  0  0  0  0  0  0  0  0  0  0  0
   -0.1923    1.1526    0.7617 C   0  0  0  0  0  0  0  0  0  0  0  0
   -1.1582    1.8438    0.4410 O   0  0  0  0  0  0  0  0  0  0  0  0
    0.7203    1.5683    1.6472 N   0  0  0  0  0  0  0  0  0  0  0  0
    1.5210    0.9664    1.8100 H   0  0  0  0  0  0  0  0  0  0  0  0
    0.6747    2.8558    2.3368 C   0  0  0  0  0  0  0  0  0  0  0  0
   -0.3018    2.9877    2.8079 H   0  0  0  0  0  0  0  0  0  0  0  0
    1.4516    2.8997    3.1011 H   0  0  0  0  0  0  0  0  0  0  0  0
    0.8279    3.6639    1.6193 H   0  0  0  0  0  0  0  0  0  0  0  0
  5  6  2  0  0  0  0
  5  7  1  0  0  0  0
  2  3  1  0  0  0  0
  2  4  1  0  0  0  0
  2  5  1  0  0  0  0
  1  2  1  0  0  0  0
 18 19  2  0  0  0  0
 18 20  1  0  0  0  0
 16 17  1  0  0  0  0
 14 15  2  0  0  0  0
 14 16  1  0  0  0  0
 11 12  1  0  0  0  0
 11 13  1  0  0  0  0
 11 14  1  0  0  0  0
  9 10  1  0  0  0  0
  9 11  1  0  0  0  0
  9 18  1  0  0  0  0
  7  8  1  0  0  0  0
  7  9  1  0  0  0  0
 22 23  1  0  0  0  0
 22 24  1  0  0  0  0
 22 25  1  0  0  0  0
 20 21  1  0  0  0  0
 20 22  1  0  0  0  0
M  END
$$$$
default_name
  -OEChem-02102213163D

 25 24  0     1  0  0  0  0  0999 V2000
   -2.7826   -3.8464    0.7821 H   0  0  0  0  0  0  0  0  0  0  0  0
   -2.8156   -2.8034    0.4711 C   0  0  0  0  0  0  0  0  0  0  0  0
   -3.4336   -2.2354    1.1641 H   0  0  0  0  0  0  0  0  0  0  0  0
   -3.2256   -2.7344   -0.5349 H   0  0  0  0  0  0  0  0  0  0  0  0
   -1.4126   -2.2444    0.4801 C   0  0  0  0  0  0  0  0  0  0  0  0
   -0.4686   -2.9534    0.8001 O   0  0  0  0  0  0  0  0  0  0  0  0
   -1.2736   -0.9704    0.1241 N   0  0  0  0  0  0  0  0  0  0  0  0
   -2.0996   -0.4354   -0.1019 H   0  0  0  0  0  0  0  0  0  0  0  0
   -0.0016   -0.2394    0.1271 C   0  0  1  0  0  0  0  0  0  0  0  0
    0.7164   -0.7963    0.7332 H   0  0  0  0  0  0  0  0  0  0  0  0
    0.5351   -0.1414   -1.3146 C   0  0  0  0  0  0  0  0  0  0  0  0
    1.6248   -0.0998   -1.2942 H   0  0  0  0  0  0  0  0  0  0  0  0
    0.2442   -1.0301   -1.8759 H   0  0  0  0  0  0  0  0  0  0  0  0
    0.0547    1.1014   -2.0579 C   0  0  0  0  0  0  0  0  0  0  0  0
   -0.6832    1.9644   -1.6007 O   0  0  0  0  0  0  0  0  0  0  0  0
    0.5008    1.2101   -3.3233 O   0  0  0  0  0  0  0  0  0  0  0  0
    0.1434    2.0332   -3.6578 H   0  0  0  0  0  0  0  0  0  0  0  0
   -0.1923    1.1526    0.7617 C   0  0  0  0  0  0  0  0  0  0  0  0
   -1.1582    1.8438    0.4410 O   0  0  0  0  0  0  0  0  0  0  0  0
    0.7203    1.5683    1.6472 N   0  0  0  0  0  0  0  0  0  0  0  0
    1.5210    0.9664    1.8100 H   0  0  0  0  0  0  0  0  0  0  0  0
    0.6747    2.8558    2.3368 C   0  0  0  0  0  0  0  0  0  0  0  0
   -0.3018    2.9877    2.8079 H   0  0  0  0  0  0  0  0  0  0  0  0
    1.4516    2.8997    3.1011 H   0  0  0  0  0  0  0  0  0  0  0  0
    0.8279    3.6639    1.6193 H   0  0  0  0  0  0  0  0  0  0  0  0
  5  6  2  0  0  0  0
  5  7  1  0  0  0  0
  2  3  1  0  0  0  0
  2  4  1  0  0  0  0
  2  5  1  0  0  0  0
  1  2  1  0  0  0  0
 18 19  2  0  0  0  0
 18 20  1  0  0  0  0
 16 17  1  0  0  0  0
 14 15  2  0  0  0  0
 14 16  1  0  0  0  0
 11 12  1  0  0  0  0
 11 13  1  0  0  0  0
 11 14  1  0  0  0  0
  9 10  1  0  0  0  0
  9 11  1  0  0  0  0
  9 18  1  0  0  0  0
  7  8  1  0  0  0  0
  7  9  1  0  0  0  0
 22 23  1  0  0  0  0
 22 24  1  0  0  0  0
 22 25  1  0  0  0  0
 20 21  1  0  0  0  0
 20 22  1  0  0  0  0
M  END
$$$$
default_name
  -OEChem-02102213163D

 25 24  0     1  0  0  0  0  0999 V2000
   -2.7826   -3.8464    0.7821 H   0  0  0  0  0  0  0  0  0  0  0  0
   -2.8156   -2.8034    0.4711 C   0  0  0  0  0  0  0  0  0  0  0  0
   -3.4336   -2.2354    1.1641 H   0  0  0  0  0  0  0  0  0  0  0  0
   -3.2256   -2.7344   -0.5349 H   0  0  0  0  0  0  0  0  0  0  0  0
   -1.4126   -2.2444    0.4801 C   0  0  0  0  0  0  0  0  0  0  0  0
   -0.4686   -2.9534    0.8001 O   0  0  0  0  0  0  0  0  0  0  0  0
   -1.2736   -0.9704    0.1241 N   0  0  0  0  0  0  0  0  0  0  0  0
   -2.0996   -0.4354   -0.1019 H   0  0  0  0  0  0  0  0  0  0  0  0
   -0.0016   -0.2394    0.1271 C   0  0  1  0  0  0  0  0  0  0  0  0
    0.7164   -0.7963    0.7332 H   0  0  0  0  0  0  0  0  0  0  0  0
    0.5351   -0.1414   -1.3146 C   0  0  0  0  0  0  0  0  0  0  0  0
    1.6248   -0.0998   -1.2942 H   0  0  0  0  0  0  0  0  0  0  0  0
    0.2442   -1.0301   -1.8759 H   0  0  0  0  0  0  0  0  0  0  0  0
    0.0547    1.1014   -2.0579 C   0  0  0  0  0  0  0  0  0  0  0  0
   -0.4604    2.0850   -1.5428 O   0  0  0  0  0  0  0  0  0  0  0  0
    0.2264    1.0627   -3.3924 O   0  0  0  0  0  0  0  0  0  0  0  0
   -0.0957    1.9019   -3.7230 H   0  0  0  0  0  0  0  0  0  0  0  0
   -0.1923    1.1526    0.7617 C   0  0  0  0  0  0  0  0  0  0  0  0
   -1.1582    1.8438    0.4410 O   0  0  0  0  0  0  0  0  0  0  0  0
    0.7203    1.5683    1.6472 N   0  0  0  0  0  0  0  0  0  0  0  0
    1.5210    0.9664    1.8100 H   0  0  0  0  0  0  0  0  0  0  0  0
    0.6747    2.8558    2.3368 C   0  0  0  0  0  0  0  0  0  0  0  0
   -0.3018    2.9877    2.8079 H   0  0  0  0  0  0  0  0  0  0  0  0
    1.4516    2.8997    3.1011 H   0  0  0  0  0  0  0  0  0  0  0  0
    0.8279    3.6639    1.6193 H   0  0  0  0  0  0  0  0  0  0  0  0
  5  6  2  0  0  0  0
  5  7  1  0  0  0  0
  2  3  1  0  0  0  0
  2  4  1  0  0  0  0
  2  5  1  0  0  0  0
  1  2  1  0  0  0  0
 18 19  2  0  0  0  0
 18 20  1  0  0  0  0
 16 17  1  0  0  0  0
 14 15  2  0  0  0  0
 14 16  1  0  0  0  0
 11 12  1  0  0  0  0
 11 13  1  0  0  0  0
 11 14  1  0  0  0  0
  9 10  1  0  0  0  0
  9 11  1  0  0  0  0
  9 18  1  0  0  0  0
  7  8  1  0  0  0  0
  7  9  1  0  0  0  0
 22 23  1  0  0  0  0
 22 24  1  0  0  0  0
 22 25  1  0  0  0  0
 20 21  1  0  0  0  0
 20 22  1  0  0  0  0
M  END
$$$$
default_name
  -OEChem-02102213163D

 25 24  0     1  0  0  0  0  0999 V2000
   -2.7826   -3.8464    0.7821 H   0  0  0  0  0  0  0  0  0  0  0  0
   -2.8156   -2.8034    0.4711 C   0  0  0  0  0  0  0  0  0  0  0  0
   -3.4336   -2.2354    1.1641 H   0  0  0  0  0  0  0  0  0  0  0  0
   -3.2256   -2.7344   -0.5349 H   0  0  0  0  0  0  0  0  0  0  0  0
   -1.4126   -2.2444    0.4801 C   0  0  0  0  0  0  0  0  0  0  0  0
   -0.4686   -2.9534    0.8001 O   0  0  0  0  0  0  0  0  0  0  0  0
   -1.2736   -0.9704    0.1241 N   0  0  0  0  0  0  0  0  0  0  0  0
   -2.0996   -0.4354   -0.1019 H   0  0  0  0  0  0  0  0  0  0  0  0
   -0.0016   -0.2394    0.1271 C   0  0  1  0  0  0  0  0  0  0  0  0
    0.7164   -0.7963    0.7332 H   0  0  0  0  0  0  0  0  0  0  0  0
    0.5351   -0.1414   -1.3146 C   0  0  0  0  0  0  0  0  0  0  0  0
    1.6248   -0.0998   -1.2942 H   0  0  0  0  0  0  0  0  0  0  0  0
    0.2442   -1.0301   -1.8759 H   0  0  0  0  0  0  0  0  0  0  0  0
    0.0547    1.1014   -2.0579 C   0  0  0  0  0  0  0  0  0  0  0  0
   -0.2179    2.1782   -1.5437 O   0  0  0  0  0  0  0  0  0  0  0  0
   -0.0717    0.9493   -3.3894 O   0  0  0  0  0  0  0  0  0  0  0  0
   -0.3569    1.7998   -3.7248 H   0  0  0  0  0  0  0  0  0  0  0  0
   -0.1923    1.1526    0.7617 C   0  0  0  0  0  0  0  0  0  0  0  0
   -1.1582    1.8438    0.4410 O   0  0  0  0  0  0  0  0  0  0  0  0
    0.7203    1.5683    1.6472 N   0  0  0  0  0  0  0  0  0  0  0  0
    1.5210    0.9664    1.8100 H   0  0  0  0  0  0  0  0  0  0  0  0
    0.6747    2.8558    2.3368 C   0  0  0  0  0  0  0  0  0  0  0  0
   -0.3018    2.9877    2.8079 H   0  0  0  0  0  0  0  0  0  0  0  0
    1.4516    2.8997    3.1011 H   0  0  0  0  0  0  0  0  0  0  0  0
    0.8279    3.6639    1.6193 H   0  0  0  0  0  0  0  0  0  0  0  0
  5  6  2  0  0  0  0
  5  7  1  0  0  0  0
  2  3  1  0  0  0  0
  2  4  1  0  0  0  0
  2  5  1  0  0  0  0
  1  2  1  0  0  0  0
 18 19  2  0  0  0  0
 18 20  1  0  0  0  0
 16 17  1  0  0  0  0
 14 15  2  0  0  0  0
 14 16  1  0  0  0  0
 11 12  1  0  0  0  0
 11 13  1  0  0  0  0
 11 14  1  0  0  0  0
  9 10  1  0  0  0  0
  9 11  1  0  0  0  0
  9 18  1  0  0  0  0
  7  8  1  0  0  0  0
  7  9  1  0  0  0  0
 22 23  1  0  0  0  0
 22 24  1  0  0  0  0
 22 25  1  0  0  0  0
 20 21  1  0  0  0  0
 20 22  1  0  0  0  0
M  END
$$$$
default_name
  -OEChem-02102213163D

 25 24  0     1  0  0  0  0  0999 V2000
   -2.7826   -3.8464    0.7821 H   0  0  0  0  0  0  0  0  0  0  0  0
   -2.8156   -2.8034    0.4711 C   0  0  0  0  0  0  0  0  0  0  0  0
   -3.4336   -2.2354    1.1641 H   0  0  0  0  0  0  0  0  0  0  0  0
   -3.2256   -2.7344   -0.5349 H   0  0  0  0  0  0  0  0  0  0  0  0
   -1.4126   -2.2444    0.4801 C   0  0  0  0  0  0  0  0  0  0  0  0
   -0.4686   -2.9534    0.8001 O   0  0  0  0  0  0  0  0  0  0  0  0
   -1.2736   -0.9704    0.1241 N   0  0  0  0  0  0  0  0  0  0  0  0
   -2.0996   -0.4354   -0.1019 H   0  0  0  0  0  0  0  0  0  0  0  0
   -0.0016   -0.2394    0.1271 C   0  0  1  0  0  0  0  0  0  0  0  0
    0.7164   -0.7963    0.7332 H   0  0  0  0  0  0  0  0  0  0  0  0
    0.5351   -0.1414   -1.3146 C   0  0  0  0  0  0  0  0  0  0  0  0
    1.6248   -0.0998   -1.2942 H   0  0  0  0  0  0  0  0  0  0  0  0
    0.2442   -1.0301   -1.8759 H   0  0  0  0  0  0  0  0  0  0  0  0
    0.0547    1.1014   -2.0579 C   0  0  0  0  0  0  0  0  0  0  0  0
    0.0279    2.2376   -1.6033 O   0  0  0  0  0  0  0  0  0  0  0  0
   -0.3734    0.8776   -3.3143 O   0  0  0  0  0  0  0  0  0  0  0  0
   -0.6224    1.7340   -3.6632 H   0  0  0  0  0  0  0  0  0  0  0  0
   -0.1923    1.1526    0.7617 C   0  0  0  0  0  0  0  0  0  0  0  0
   -1.1582    1.8438    0.4410 O   0  0  0  0  0  0  0  0  0  0  0  0
    0.7203    1.5683    1.6472 N   0  0  0  0  0  0  0  0  0  0  0  0
    1.5210    0.9664    1.8100 H   0  0  0  0  0  0  0  0  0  0  0  0
    0.6747    2.8558    2.3368 C   0  0  0  0  0  0  0  0  0  0  0  0
   -0.3018    2.9877    2.8079 H   0  0  0  0  0  0  0  0  0  0  0  0
    1.4516    2.8997    3.1011 H   0  0  0  0  0  0  0  0  0  0  0  0
    0.8279    3.6639    1.6193 H   0  0  0  0  0  0  0  0  0  0  0  0
  5  6  2  0  0  0  0
  5  7  1  0  0  0  0
  2  3  1  0  0  0  0
  2  4  1  0  0  0  0
  2  5  1  0  0  0  0
  1  2  1  0  0  0  0
 18 19  2  0  0  0  0
 18 20  1  0  0  0  0
 16 17  1  0  0  0  0
 14 15  2  0  0  0  0
 14 16  1  0  0  0  0
 11 12  1  0  0  0  0
 11 13  1  0  0  0  0
 11 14  1  0  0  0  0
  9 10  1  0  0  0  0
  9 11  1  0  0  0  0
  9 18  1  0  0  0  0
  7  8  1  0  0  0  0
  7  9  1  0  0  0  0
 22 23  1  0  0  0  0
 22 24  1  0  0  0  0
 22 25  1  0  0  0  0
 20 21  1  0  0  0  0
 20 22  1  0  0  0  0
M  END
$$$$
default_name
  -OEChem-02102213163D

 25 24  0     1  0  0  0  0  0999 V2000
   -2.7826   -3.8464    0.7821 H   0  0  0  0  0  0  0  0  0  0  0  0
   -2.8156   -2.8034    0.4711 C   0  0  0  0  0  0  0  0  0  0  0  0
   -3.4336   -2.2354    1.1641 H   0  0  0  0  0  0  0  0  0  0  0  0
   -3.2256   -2.7344   -0.5349 H   0  0  0  0  0  0  0  0  0  0  0  0
   -1.4126   -2.2444    0.4801 C   0  0  0  0  0  0  0  0  0  0  0  0
   -0.4686   -2.9534    0.8001 O   0  0  0  0  0  0  0  0  0  0  0  0
   -1.2736   -0.9704    0.1241 N   0  0  0  0  0  0  0  0  0  0  0  0
   -2.0996   -0.4354   -0.1019 H   0  0  0  0  0  0  0  0  0  0  0  0
   -0.0016   -0.2394    0.1271 C   0  0  1  0  0  0  0  0  0  0  0  0
    0.7164   -0.7963    0.7332 H   0  0  0  0  0  0  0  0  0  0  0  0
    0.5351   -0.1414   -1.3146 C   0  0  0  0  0  0  0  0  0  0  0  0
    1.6248   -0.0998   -1.2942 H   0  0  0  0  0  0  0  0  0  0  0  0
    0.2442   -1.0301   -1.8759 H   0  0  0  0  0  0  0  0  0  0  0  0
    0.0547    1.1014   -2.0579 C   0  0  0  0  0  0  0  0  0  0  0  0
    0.2603    2.2591   -1.7176 O   0  0  0  0  0  0  0  0  0  0  0  0
   -0.6579    0.8525   -3.1724 O   0  0  0  0  0  0  0  0  0  0  0  0
   -0.8743    1.7089   -3.5424 H   0  0  0  0  0  0  0  0  0  0  0  0
   -0.1923    1.1526    0.7617 C   0  0  0  0  0  0  0  0  0  0  0  0
   -1.1582    1.8438    0.4410 O   0  0  0  0  0  0  0  0  0  0  0  0
    0.7203    1.5683    1.6472 N   0  0  0  0  0  0  0  0  0  0  0  0
    1.5210    0.9664    1.8100 H   0  0  0  0  0  0  0  0  0  0  0  0
    0.6747    2.8558    2.3368 C   0  0  0  0  0  0  0  0  0  0  0  0
   -0.3018    2.9877    2.8079 H   0  0  0  0  0  0  0  0  0  0  0  0
    1.4516    2.8997    3.1011 H   0  0  0  0  0  0  0  0  0  0  0  0
    0.8279    3.6639    1.6193 H   0  0  0  0  0  0  0  0  0  0  0  0
  5  6  2  0  0  0  0
  5  7  1  0  0  0  0
  2  3  1  0  0  0  0
  2  4  1  0  0  0  0
  2  5  1  0  0  0  0
  1  2  1  0  0  0  0
 18 19  2  0  0  0  0
 18 20  1  0  0  0  0
 16 17  1  0  0  0  0
 14 15  2  0  0  0  0
 14 16  1  0  0  0  0
 11 12  1  0  0  0  0
 11 13  1  0  0  0  0
 11 14  1  0  0  0  0
  9 10  1  0  0  0  0
  9 11  1  0  0  0  0
  9 18  1  0  0  0  0
  7  8  1  0  0  0  0
  7  9  1  0  0  0  0
 22 23  1  0  0  0  0
 22 24  1  0  0  0  0
 22 25  1  0  0  0  0
 20 21  1  0  0  0  0
 20 22  1  0  0  0  0
M  END
$$$$
default_name
  -OEChem-02102213163D

 25 24  0     1  0  0  0  0  0999 V2000
   -2.7826   -3.8464    0.7821 H   0  0  0  0  0  0  0  0  0  0  0  0
   -2.8156   -2.8034    0.4711 C   0  0  0  0  0  0  0  0  0  0  0  0
   -3.4336   -2.2354    1.1641 H   0  0  0  0  0  0  0  0  0  0  0  0
   -3.2256   -2.7344   -0.5349 H   0  0  0  0  0  0  0  0  0  0  0  0
   -1.4126   -2.2444    0.4801 C   0  0  0  0  0  0  0  0  0  0  0  0
   -0.4686   -2.9534    0.8001 O   0  0  0  0  0  0  0  0  0  0  0  0
   -1.2736   -0.9704    0.1241 N   0  0  0  0  0  0  0  0  0  0  0  0
   -2.0996   -0.4354   -0.1019 H   0  0  0  0  0  0  0  0  0  0  0  0
   -0.0016   -0.2394    0.1271 C   0  0  1  0  0  0  0  0  0  0  0  0
    0.7164   -0.7963    0.7332 H   0  0  0  0  0  0  0  0  0  0  0  0
    0.5351   -0.1414   -1.3146 C   0  0  0  0  0  0  0  0  0  0  0  0
    1.6248   -0.0998   -1.2942 H   0  0  0  0  0  0  0  0  0  0  0  0
    0.2442   -1.0301   -1.8759 H   0  0  0  0  0  0  0  0  0  0  0  0
    0.0547    1.1014   -2.0579 C   0  0  0  0  0  0  0  0  0  0  0  0
    0.4633    2.2412   -1.8787 O   0  0  0  0  0  0  0  0  0  0  0  0
   -0.9061    0.8757   -2.9733 O   0  0  0  0  0  0  0  0  0  0  0  0
   -1.0952    1.7263   -3.3705 H   0  0  0  0  0  0  0  0  0  0  0  0
   -0.1923    1.1526    0.7617 C   0  0  0  0  0  0  0  0  0  0  0  0
   -1.1582    1.8438    0.4410 O   0  0  0  0  0  0  0  0  0  0  0  0
    0.7203    1.5683    1.6472 N   0  0  0  0  0  0  0  0  0  0  0  0
    1.5210    0.9664    1.8100 H   0  0  0  0  0  0  0  0  0  0  0  0
    0.6747    2.8558    2.3368 C   0  0  0  0  0  0  0  0  0  0  0  0
   -0.3018    2.9877    2.8079 H   0  0  0  0  0  0  0  0  0  0  0  0
    1.4516    2.8997    3.1011 H   0  0  0  0  0  0  0  0  0  0  0  0
    0.8279    3.6639    1.6193 H   0  0  0  0  0  0  0  0  0  0  0  0
  5  6  2  0  0  0  0
  5  7  1  0  0  0  0
  2  3  1  0  0  0  0
  2  4  1  0  0  0  0
  2  5  1  0  0  0  0
  1  2  1  0  0  0  0
 18 19  2  0  0  0  0
 18 20  1  0  0  0  0
 16 17  1  0  0  0  0
 14 15  2  0  0  0  0
 14 16  1  0  0  0  0
 11 12  1  0  0  0  0
 11 13  1  0  0  0  0
 11 14  1  0  0  0  0
  9 10  1  0  0  0  0
  9 11  1  0  0  0  0
  9 18  1  0  0  0  0
  7  8  1  0  0  0  0
  7  9  1  0  0  0  0
 22 23  1  0  0  0  0
 22 24  1  0  0  0  0
 22 25  1  0  0  0  0
 20 21  1  0  0  0  0
 20 22  1  0  0  0  0
M  END
$$$$
default_name
  -OEChem-02102213163D

 25 24  0     1  0  0  0  0  0999 V2000
   -2.7826   -3.8464    0.7821 H   0  0  0  0  0  0  0  0  0  0  0  0
   -2.8156   -2.8034    0.4711 C   0  0  0  0  0  0  0  0  0  0  0  0
   -3.4336   -2.2354    1.1641 H   0  0  0  0  0  0  0  0  0  0  0  0
   -3.2256   -2.7344   -0.5349 H   0  0  0  0  0  0  0  0  0  0  0  0
   -1.4126   -2.2444    0.4801 C   0  0  0  0  0  0  0  0  0  0  0  0
   -0.4686   -2.9534    0.8001 O   0  0  0  0  0  0  0  0  0  0  0  0
   -1.2736   -0.9704    0.1241 N   0  0  0  0  0  0  0  0  0  0  0  0
   -2.0996   -0.4354   -0.1019 H   0  0  0  0  0  0  0  0  0  0  0  0
   -0.0016   -0.2394    0.1271 C   0  0  1  0  0  0  0  0  0  0  0  0
    0.7164   -0.7963    0.7332 H   0  0  0  0  0  0  0  0  0  0  0  0
    0.5351   -0.1414   -1.3146 C   0  0  0  0  0  0  0  0  0  0  0  0
    1.6248   -0.0998   -1.2942 H   0  0  0  0  0  0  0  0  0  0  0  0
    0.2442   -1.0301   -1.8759 H   0  0  0  0  0  0  0  0  0  0  0  0
    0.0547    1.1014   -2.0579 C   0  0  0  0  0  0  0  0  0  0  0  0
    0.6233    2.1852   -2.0756 O   0  0  0  0  0  0  0  0  0  0  0  0
   -1.1008    0.9456   -2.7305 O   0  0  0  0  0  0  0  0  0  0  0  0
   -1.2701    1.7850   -3.1593 H   0  0  0  0  0  0  0  0  0  0  0  0
   -0.1923    1.1526    0.7617 C   0  0  0  0  0  0  0  0  0  0  0  0
   -1.1582    1.8438    0.4410 O   0  0  0  0  0  0  0  0  0  0  0  0
    0.7203    1.5683    1.6472 N   0  0  0  0  0  0  0  0  0  0  0  0
    1.5210    0.9664    1.8100 H   0  0  0  0  0  0  0  0  0  0  0  0
    0.6747    2.8558    2.3368 C   0  0  0  0  0  0  0  0  0  0  0  0
   -0.3018    2.9877    2.8079 H   0  0  0  0  0  0  0  0  0  0  0  0
    1.4516    2.8997    3.1011 H   0  0  0  0  0  0  0  0  0  0  0  0
    0.8279    3.6639    1.6193 H   0  0  0  0  0  0  0  0  0  0  0  0
  5  6  2  0  0  0  0
  5  7  1  0  0  0  0
  2  3  1  0  0  0  0
  2  4  1  0  0  0  0
  2  5  1  0  0  0  0
  1  2  1  0  0  0  0
 18 19  2  0  0  0  0
 18 20  1  0  0  0  0
 16 17  1  0  0  0  0
 14 15  2  0  0  0  0
 14 16  1  0  0  0  0
 11 12  1  0  0  0  0
 11 13  1  0  0  0  0
 11 14  1  0  0  0  0
  9 10  1  0  0  0  0
  9 11  1  0  0  0  0
  9 18  1  0  0  0  0
  7  8  1  0  0  0  0
  7  9  1  0  0  0  0
 22 23  1  0  0  0  0
 22 24  1  0  0  0  0
 22 25  1  0  0  0  0
 20 21  1  0  0  0  0
 20 22  1  0  0  0  0
M  END
$$$$
default_name
  -OEChem-02102213163D

 25 24  0     1  0  0  0  0  0999 V2000
   -2.7826   -3.8464    0.7821 H   0  0  0  0  0  0  0  0  0  0  0  0
   -2.8156   -2.8034    0.4711 C   0  0  0  0  0  0  0  0  0  0  0  0
   -3.4336   -2.2354    1.1641 H   0  0  0  0  0  0  0  0  0  0  0  0
   -3.2256   -2.7344   -0.5349 H   0  0  0  0  0  0  0  0  0  0  0  0
   -1.4126   -2.2444    0.4801 C   0  0  0  0  0  0  0  0  0  0  0  0
   -0.4686   -2.9534    0.8001 O   0  0  0  0  0  0  0  0  0  0  0  0
   -1.2736   -0.9704    0.1241 N   0  0  0  0  0  0  0  0  0  0  0  0
   -2.0996   -0.4354   -0.1019 H   0  0  0  0  0  0  0  0  0  0  0  0
   -0.0016   -0.2394    0.1271 C   0  0  1  0  0  0  0  0  0  0  0  0
    0.7164   -0.7963    0.7332 H   0  0  0  0  0  0  0  0  0  0  0  0
    0.5351   -0.1414   -1.3146 C   0  0  0  0  0  0  0  0  0  0  0  0
    1.6248   -0.0998   -1.2942 H   0  0  0  0  0  0  0  0  0  0  0  0
    0.2442   -1.0301   -1.8759 H   0  0  0  0  0  0  0  0  0  0  0  0
    0.0547    1.1014   -2.0579 C   0  0  0  0  0  0  0  0  0  0  0  0
    0.7292    2.0949   -2.2950 O   0  0  0  0  0  0  0  0  0  0  0  0
   -1.2290    1.0574   -2.4606 O   0  0  0  0  0  0  0  0  0  0  0  0
   -1.3872    1.8809   -2.9233 H   0  0  0  0  0  0  0  0  0  0  0  0
   -0.1923    1.1526    0.7617 C   0  0  0  0  0  0  0  0  0  0  0  0
   -1.1582    1.8438    0.4410 O   0  0  0  0  0  0  0  0  0  0  0  0
    0.7203    1.5683    1.6472 N   0  0  0  0  0  0  0  0  0  0  0  0
    1.5210    0.9664    1.8100 H   0  0  0  0  0  0  0  0  0  0  0  0
    0.6747    2.8558    2.3368 C   0  0  0  0  0  0  0  0  0  0  0  0
   -0.3018    2.9877    2.8079 H   0  0  0  0  0  0  0  0  0  0  0  0
    1.4516    2.8997    3.1011 H   0  0  0  0  0  0  0  0  0  0  0  0
    0.8279    3.6639    1.6193 H   0  0  0  0  0  0  0  0  0  0  0  0
  5  6  2  0  0  0  0
  5  7  1  0  0  0  0
  2  3  1  0  0  0  0
  2  4  1  0  0  0  0
  2  5  1  0  0  0  0
  1  2  1  0  0  0  0
 18 19  2  0  0  0  0
 18 20  1  0  0  0  0
 16 17  1  0  0  0  0
 14 15  2  0  0  0  0
 14 16  1  0  0  0  0
 11 12  1  0  0  0  0
 11 13  1  0  0  0  0
 11 14  1  0  0  0  0
  9 10  1  0  0  0  0
  9 11  1  0  0  0  0
  9 18  1  0  0  0  0
  7  8  1  0  0  0  0
  7  9  1  0  0  0  0
 22 23  1  0  0  0  0
 22 24  1  0  0  0  0
 22 25  1  0  0  0  0
 20 21  1  0  0  0  0
 20 22  1  0  0  0  0
M  END
$$$$
default_name
  -OEChem-02102213163D

 25 24  0     1  0  0  0  0  0999 V2000
   -2.7826   -3.8464    0.7821 H   0  0  0  0  0  0  0  0  0  0  0  0
   -2.8156   -2.8034    0.4711 C   0  0  0  0  0  0  0  0  0  0  0  0
   -3.4336   -2.2354    1.1641 H   0  0  0  0  0  0  0  0  0  0  0  0
   -3.2256   -2.7344   -0.5349 H   0  0  0  0  0  0  0  0  0  0  0  0
   -1.4126   -2.2444    0.4801 C   0  0  0  0  0  0  0  0  0  0  0  0
   -0.4686   -2.9534    0.8001 O   0  0  0  0  0  0  0  0  0  0  0  0
   -1.2736   -0.9704    0.1241 N   0  0  0  0  0  0  0  0  0  0  0  0
   -2.0996   -0.4354   -0.1019 H   0  0  0  0  0  0  0  0  0  0  0  0
   -0.0016   -0.2394    0.1271 C   0  0  1  0  0  0  0  0  0  0  0  0
    0.7164   -0.7963    0.7332 H   0  0  0  0  0  0  0  0  0  0  0  0
    0.5351   -0.1414   -1.3146 C   0  0  0  0  0  0  0  0  0  0  0  0
    1.6248   -0.0998   -1.2942 H   0  0  0  0  0  0  0  0  0  0  0  0
    0.2442   -1.0301   -1.8759 H   0  0  0  0  0  0  0  0  0  0  0  0
    0.0547    1.1014   -2.0579 C   0  0  0  0  0  0  0  0  0  0  0  0
    0.7738    1.9765   -2.5219 O   0  0  0  0  0  0  0  0  0  0  0  0
   -1.2817    1.2037   -2.1820 O   0  0  0  0  0  0  0  0  0  0  0  0
   -1.4385    2.0076   -2.6784 H   0  0  0  0  0  0  0  0  0  0  0  0
   -0.1923    1.1526    0.7617 C   0  0  0  0  0  0  0  0  0  0  0  0
   -1.1582    1.8438    0.4410 O   0  0  0  0  0  0  0  0  0  0  0  0
    0.7203    1.5683    1.6472 N   0  0  0  0  0  0  0  0  0  0  0  0
    1.5210    0.9664    1.8100 H   0  0  0  0  0  0  0  0  0  0  0  0
    0.6747    2.8558    2.3368 C   0  0  0  0  0  0  0  0  0  0  0  0
   -0.3018    2.9877    2.8079 H   0  0  0  0  0  0  0  0  0  0  0  0
    1.4516    2.8997    3.1011 H   0  0  0  0  0  0  0  0  0  0  0  0
    0.8279    3.6639    1.6193 H   0  0  0  0  0  0  0  0  0  0  0  0
  5  6  2  0  0  0  0
  5  7  1  0  0  0  0
  2  3  1  0  0  0  0
  2  4  1  0  0  0  0
  2  5  1  0  0  0  0
  1  2  1  0  0  0  0
 18 19  2  0  0  0  0
 18 20  1  0  0  0  0
 16 17  1  0  0  0  0
 14 15  2  0  0  0  0
 14 16  1  0  0  0  0
 11 12  1  0  0  0  0
 11 13  1  0  0  0  0
 11 14  1  0  0  0  0
  9 10  1  0  0  0  0
  9 11  1  0  0  0  0
  9 18  1  0  0  0  0
  7  8  1  0  0  0  0
  7  9  1  0  0  0  0
 22 23  1  0  0  0  0
 22 24  1  0  0  0  0
 22 25  1  0  0  0  0
 20 21  1  0  0  0  0
 20 22  1  0  0  0  0
M  END
$$$$
default_name
  -OEChem-02102213163D

 25 24  0     1  0  0  0  0  0999 V2000
   -2.7826   -3.8464    0.7821 H   0  0  0  0  0  0  0  0  0  0  0  0
   -2.8156   -2.8034    0.4711 C   0  0  0  0  0  0  0  0  0  0  0  0
   -3.4336   -2.2354    1.1641 H   0  0  0  0  0  0  0  0  0  0  0  0
   -3.2256   -2.7344   -0.5349 H   0  0  0  0  0  0  0  0  0  0  0  0
   -1.4126   -2.2444    0.4801 C   0  0  0  0  0  0  0  0  0  0  0  0
   -0.4686   -2.9534    0.8001 O   0  0  0  0  0  0  0  0  0  0  0  0
   -1.2736   -0.9704    0.1241 N   0  0  0  0  0  0  0  0  0  0  0  0
   -2.0996   -0.4354   -0.1019 H   0  0  0  0  0  0  0  0  0  0  0  0
   -0.0016   -0.2394    0.1271 C   0  0  1  0  0  0  0  0  0  0  0  0
    0.7164   -0.7963    0.7332 H   0  0  0  0  0  0  0  0  0  0  0  0
    0.5351   -0.1414   -1.3146 C   0  0  0  0  0  0  0  0  0  0  0  0
    1.6248   -0.0998   -1.2942 H   0  0  0  0  0  0  0  0  0  0  0  0
    0.2442   -1.0301   -1.8759 H   0  0  0  0  0  0  0  0  0  0  0  0
    0.0547    1.1014   -2.0579 C   0  0  0  0  0  0  0  0  0  0  0  0
    0.7542    1.8380   -2.7409 O   0  0  0  0  0  0  0  0  0  0  0  0
   -1.2555    1.3742   -1.9137 O   0  0  0  0  0  0  0  0  0  0  0  0
   -1.4203    2.1564   -2.4413 H   0  0  0  0  0  0  0  0  0  0  0  0
   -0.1923    1.1526    0.7617 C   0  0  0  0  0  0  0  0  0  0  0  0
   -1.1582    1.8438    0.4410 O   0  0  0  0  0  0  0  0  0  0  0  0
    0.7203    1.5683    1.6472 N   0  0  0  0  0  0  0  0  0  0  0  0
    1.5210    0.9664    1.8100 H   0  0  0  0  0  0  0  0  0  0  0  0
    0.6747    2.8558    2.3368 C   0  0  0  0  0  0  0  0  0  0  0  0
   -0.3018    2.9877    2.8079 H   0  0  0  0  0  0  0  0  0  0  0  0
    1.4516    2.8997    3.1011 H   0  0  0  0  0  0  0  0  0  0  0  0
    0.8279    3.6639    1.6193 H   0  0  0  0  0  0  0  0  0  0  0  0
  5  6  2  0  0  0  0
  5  7  1  0  0  0  0
  2  3  1  0  0  0  0
  2  4  1  0  0  0  0
  2  5  1  0  0  0  0
  1  2  1  0  0  0  0
 18 19  2  0  0  0  0
 18 20  1  0  0  0  0
 16 17  1  0  0  0  0
 14 15  2  0  0  0  0
 14 16  1  0  0  0  0
 11 12  1  0  0  0  0
 11 13  1  0  0  0  0
 11 14  1  0  0  0  0
  9 10  1  0  0  0  0
  9 11  1  0  0  0  0
  9 18  1  0  0  0  0
  7  8  1  0  0  0  0
  7  9  1  0  0  0  0
 22 23  1  0  0  0  0
 22 24  1  0  0  0  0
 22 25  1  0  0  0  0
 20 21  1  0  0  0  0
 20 22  1  0  0  0  0
M  END
$$$$
default_name
  -OEChem-02102213163D

 25 24  0     1  0  0  0  0  0999 V2000
   -2.7826   -3.8464    0.7821 H   0  0  0  0  0  0  0  0  0  0  0  0
   -2.8156   -2.8034    0.4711 C   0  0  0  0  0  0  0  0  0  0  0  0
   -3.4336   -2.2354    1.1641 H   0  0  0  0  0  0  0  0  0  0  0  0
   -3.2256   -2.7344   -0.5349 H   0  0  0  0  0  0  0  0  0  0  0  0
   -1.4126   -2.2444    0.4801 C   0  0  0  0  0  0  0  0  0  0  0  0
   -0.4686   -2.9534    0.8001 O   0  0  0  0  0  0  0  0  0  0  0  0
   -1.2736   -0.9704    0.1241 N   0  0  0  0  0  0  0  0  0  0  0  0
   -2.0996   -0.4354   -0.1019 H   0  0  0  0  0  0  0  0  0  0  0  0
   -0.0016   -0.2394    0.1271 C   0  0  1  0  0  0  0  0  0  0  0  0
    0.7164   -0.7963    0.7332 H   0  0  0  0  0  0  0  0  0  0  0  0
    0.5351   -0.1414   -1.3146 C   0  0  0  0  0  0  0  0  0  0  0  0
    1.6248   -0.0998   -1.2942 H   0  0  0  0  0  0  0  0  0  0  0  0
    0.2442   -1.0301   -1.8759 H   0  0  0  0  0  0  0  0  0  0  0  0
    0.0547    1.1014   -2.0579 C   0  0  0  0  0  0  0  0  0  0  0  0
    0.6716    1.6888   -2.9369 O   0  0  0  0  0  0  0  0  0  0  0  0
   -1.1521    1.5576   -1.6740 O   0  0  0  0  0  0  0  0  0  0  0  0
   -1.3341    2.3171   -2.2283 H   0  0  0  0  0  0  0  0  0  0  0  0
   -0.1923    1.1526    0.7617 C   0  0  0  0  0  0  0  0  0  0  0  0
   -1.1582    1.8438    0.4410 O   0  0  0  0  0  0  0  0  0  0  0  0
    0.7203    1.5683    1.6472 N   0  0  0  0  0  0  0  0  0  0  0  0
    1.5210    0.9664    1.8100 H   0  0  0  0  0  0  0  0  0  0  0  0
    0.6747    2.8558    2.3368 C   0  0  0  0  0  0  0  0  0  0  0  0
   -0.3018    2.9877    2.8079 H   0  0  0  0  0  0  0  0  0  0  0  0
    1.4516    2.8997    3.1011 H   0  0  0  0  0  0  0  0  0  0  0  0
    0.8279    3.6639    1.6193 H   0  0  0  0  0  0  0  0  0  0  0  0
  5  6  2  0  0  0  0
  5  7  1  0  0  0  0
  2  3  1  0  0  0  0
  2  4  1  0  0  0  0
  2  5  1  0  0  0  0
  1  2  1  0  0  0  0
 18 19  2  0  0  0  0
 18 20  1  0  0  0  0
 16 17  1  0  0  0  0
 14 15  2  0  0  0  0
 14 16  1  0  0  0  0
 11 12  1  0  0  0  0
 11 13  1  0  0  0  0
 11 14  1  0  0  0  0
  9 10  1  0  0  0  0
  9 11  1  0  0  0  0
  9 18  1  0  0  0  0
  7  8  1  0  0  0  0
  7  9  1  0  0  0  0
 22 23  1  0  0  0  0
 22 24  1  0  0  0  0
 22 25  1  0  0  0  0
 20 21  1  0  0  0  0
 20 22  1  0  0  0  0
M  END
$$$$
default_name
  -OEChem-02102213163D

 25 24  0     1  0  0  0  0  0999 V2000
   -2.7826   -3.8464    0.7821 H   0  0  0  0  0  0  0  0  0  0  0  0
   -2.8156   -2.8034    0.4711 C   0  0  0  0  0  0  0  0  0  0  0  0
   -3.4336   -2.2354    1.1641 H   0  0  0  0  0  0  0  0  0  0  0  0
   -3.2256   -2.7344   -0.5349 H   0  0  0  0  0  0  0  0  0  0  0  0
   -1.4126   -2.2444    0.4801 C   0  0  0  0  0  0  0  0  0  0  0  0
   -0.4686   -2.9534    0.8001 O   0  0  0  0  0  0  0  0  0  0  0  0
   -1.2736   -0.9704    0.1241 N   0  0  0  0  0  0  0  0  0  0  0  0
   -2.0996   -0.4354   -0.1019 H   0  0  0  0  0  0  0  0  0  0  0  0
   -0.0016   -0.2394    0.1271 C   0  0  1  0  0  0  0  0  0  0  0  0
    0.7164   -0.7963    0.7332 H   0  0  0  0  0  0  0  0  0  0  0  0
    0.5351   -0.1414   -1.3146 C   0  0  0  0  0  0  0  0  0  0  0  0
    1.6248   -0.0998   -1.2942 H   0  0  0  0  0  0  0  0  0  0  0  0
    0.2442   -1.0301   -1.8759 H   0  0  0  0  0  0  0  0  0  0  0  0
    0.0547    1.1014   -2.0579 C   0  0  0  0  0  0  0  0  0  0  0  0
    0.5317    1.5392   -3.0967 O   0  0  0  0  0  0  0  0  0  0  0  0
   -0.9786    1.7411   -1.4792 O   0  0  0  0  0  0  0  0  0  0  0  0
   -1.1856    2.4788   -2.0538 H   0  0  0  0  0  0  0  0  0  0  0  0
   -0.1923    1.1526    0.7617 C   0  0  0  0  0  0  0  0  0  0  0  0
   -1.1582    1.8438    0.4410 O   0  0  0  0  0  0  0  0  0  0  0  0
    0.7203    1.5683    1.6472 N   0  0  0  0  0  0  0  0  0  0  0  0
    1.5210    0.9664    1.8100 H   0  0  0  0  0  0  0  0  0  0  0  0
    0.6747    2.8558    2.3368 C   0  0  0  0  0  0  0  0  0  0  0  0
   -0.3018    2.9877    2.8079 H   0  0  0  0  0  0  0  0  0  0  0  0
    1.4516    2.8997    3.1011 H   0  0  0  0  0  0  0  0  0  0  0  0
    0.8279    3.6639    1.6193 H   0  0  0  0  0  0  0  0  0  0  0  0
  5  6  2  0  0  0  0
  5  7  1  0  0  0  0
  2  3  1  0  0  0  0
  2  4  1  0  0  0  0
  2  5  1  0  0  0  0
  1  2  1  0  0  0  0
 18 19  2  0  0  0  0
 18 20  1  0  0  0  0
 16 17  1  0  0  0  0
 14 15  2  0  0  0  0
 14 16  1  0  0  0  0
 11 12  1  0  0  0  0
 11 13  1  0  0  0  0
 11 14  1  0  0  0  0
  9 10  1  0  0  0  0
  9 11  1  0  0  0  0
  9 18  1  0  0  0  0
  7  8  1  0  0  0  0
  7  9  1  0  0  0  0
 22 23  1  0  0  0  0
 22 24  1  0  0  0  0
 22 25  1  0  0  0  0
 20 21  1  0  0  0  0
 20 22  1  0  0  0  0
M  END
$$$$
default_name
  -OEChem-02102213163D

 25 24  0     1  0  0  0  0  0999 V2000
   -2.7826   -3.8464    0.7821 H   0  0  0  0  0  0  0  0  0  0  0  0
   -2.8156   -2.8034    0.4711 C   0  0  0  0  0  0  0  0  0  0  0  0
   -3.4336   -2.2354    1.1641 H   0  0  0  0  0  0  0  0  0  0  0  0
   -3.2256   -2.7344   -0.5349 H   0  0  0  0  0  0  0  0  0  0  0  0
   -1.4126   -2.2444    0.4801 C   0  0  0  0  0  0  0  0  0  0  0  0
   -0.4686   -2.9534    0.8001 O   0  0  0  0  0  0  0  0  0  0  0  0
   -1.2736   -0.9704    0.1241 N   0  0  0  0  0  0  0  0  0  0  0  0
   -2.0996   -0.4354   -0.1019 H   0  0  0  0  0  0  0  0  0  0  0  0
   -0.0016   -0.2394    0.1271 C   0  0  1  0  0  0  0  0  0  0  0  0
    0.7164   -0.7963    0.7332 H   0  0  0  0  0  0  0  0  0  0  0  0
    0.5351   -0.1414   -1.3146 C   0  0  0  0  0  0  0  0  0  0  0  0
    1.6024   -0.3660   -1.3206 H   0  0  0  0  0  0  0  0  0  0  0  0
    0.0341   -0.8780   -1.9438 H   0  0  0  0  0  0  0  0  0  0  0  0
    0.3669    1.2436   -1.9320 C   0  0  0  0  0  0  0  0  0  0  0  0
    0.7136    1.5677   -3.0603 O   0  0  0  0  0  0  0  0  0  0  0  0
   -0.2098    2.1546   -1.1262 O   0  0  0  0  0  0  0  0  0  0  0  0
   -0.2697    2.9599   -1.6411 H   0  0  0  0  0  0  0  0  0  0  0  0
   -0.1923    1.1526    0.7617 C   0  0  0  0  0  0  0  0  0  0  0  0
   -1.1582    1.8438    0.4410 O   0  0  0  0  0  0  0  0  0  0  0  0
    0.7203    1.5683    1.6472 N   0  0  0  0  0  0  0  0  0  0  0  0
    1.5210    0.9664    1.8100 H   0  0  0  0  0  0  0  0  0  0  0  0
    0.6747    2.8558    2.3368 C   0  0  0  0  0  0  0  0  0  0  0  0
   -0.3018    2.9877    2.8079 H   0  0  0  0  0  0  0  0  0  0  0  0
    1.4516    2.8997    3.1011 H   0  0  0  0  0  0  0  0  0  0  0  0
    0.8279    3.6639    1.6193 H   0  0  0  0  0  0  0  0  0  0  0  0
  5  6  2  0  0  0  0
  5  7  1  0  0  0  0
  2  3  1  0  0  0  0
  2  4  1  0  0  0  0
  2  5  1  0  0  0  0
  1  2  1  0  0  0  0
 18 19  2  0  0  0  0
 18 20  1  0  0  0  0
 16 17  1  0  0  0  0
 14 15  2  0  0  0  0
 14 16  1  0  0  0  0
 11 12  1  0  0  0  0
 11 13  1  0  0  0  0
 11 14  1  0  0  0  0
  9 10  1  0  0  0  0
  9 11  1  0  0  0  0
  9 18  1  0  0  0  0
  7  8  1  0  0  0  0
  7  9  1  0  0  0  0
 22 23  1  0  0  0  0
 22 24  1  0  0  0  0
 22 25  1  0  0  0  0
 20 21  1  0  0  0  0
 20 22  1  0  0  0  0
M  END
$$$$
default_name
  -OEChem-02102213163D

 25 24  0     1  0  0  0  0  0999 V2000
   -2.7826   -3.8464    0.7821 H   0  0  0  0  0  0  0  0  0  0  0  0
   -2.8156   -2.8034    0.4711 C   0  0  0  0  0  0  0  0  0  0  0  0
   -3.4336   -2.2354    1.1641 H   0  0  0  0  0  0  0  0  0  0  0  0
   -3.2256   -2.7344   -0.5349 H   0  0  0  0  0  0  0  0  0  0  0  0
   -1.4126   -2.2444    0.4801 C   0  0  0  0  0  0  0  0  0  0  0  0
   -0.4686   -2.9534    0.8001 O   0  0  0  0  0  0  0  0  0  0  0  0
   -1.2736   -0.9704    0.1241 N   0  0  0  0  0  0  0  0  0  0  0  0
   -2.0996   -0.4354   -0.1019 H   0  0  0  0  0  0  0  0  0  0  0  0
   -0.0016   -0.2394    0.1271 C   0  0  1  0  0  0  0  0  0  0  0  0
    0.7164   -0.7963    0.7332 H   0  0  0  0  0  0  0  0  0  0  0  0
    0.5351   -0.1414   -1.3146 C   0  0  0  0  0  0  0  0  0  0  0  0
    1.6024   -0.3660   -1.3206 H   0  0  0  0  0  0  0  0  0  0  0  0
    0.0341   -0.8780   -1.9438 H   0  0  0  0  0  0  0  0  0  0  0  0
    0.3669    1.2436   -1.9320 C   0  0  0  0  0  0  0  0  0  0  0  0
    0.4680    1.5102   -3.1224 O   0  0  0  0  0  0  0  0  0  0  0  0
    0.0924    2.2245   -1.0519 O   0  0  0  0  0  0  0  0  0  0  0  0
   -0.0056    3.0232   -1.5712 H   0  0  0  0  0  0  0  0  0  0  0  0
   -0.1923    1.1526    0.7617 C   0  0  0  0  0  0  0  0  0  0  0  0
   -1.1582    1.8438    0.4410 O   0  0  0  0  0  0  0  0  0  0  0  0
    0.7203    1.5683    1.6472 N   0  0  0  0  0  0  0  0  0  0  0  0
    1.5210    0.9664    1.8100 H   0  0  0  0  0  0  0  0  0  0  0  0
    0.6747    2.8558    2.3368 C   0  0  0  0  0  0  0  0  0  0  0  0
   -0.3018    2.9877    2.8079 H   0  0  0  0  0  0  0  0  0  0  0  0
    1.4516    2.8997    3.1011 H   0  0  0  0  0  0  0  0  0  0  0  0
    0.8279    3.6639    1.6193 H   0  0  0  0  0  0  0  0  0  0  0  0
  5  6  2  0  0  0  0
  5  7  1  0  0  0  0
  2  3  1  0  0  0  0
  2  4  1  0  0  0  0
  2  5  1  0  0  0  0
  1  2  1  0  0  0  0
 18 19  2  0  0  0  0
 18 20  1  0  0  0  0
 16 17  1  0  0  0  0
 14 15  2  0  0  0  0
 14 16  1  0  0  0  0
 11 12  1  0  0  0  0
 11 13  1  0  0  0  0
 11 14  1  0  0  0  0
  9 10  1  0  0  0  0
  9 11  1  0  0  0  0
  9 18  1  0  0  0  0
  7  8  1  0  0  0  0
  7  9  1  0  0  0  0
 22 23  1  0  0  0  0
 22 24  1  0  0  0  0
 22 25  1  0  0  0  0
 20 21  1  0  0  0  0
 20 22  1  0  0  0  0
M  END
$$$$
default_name
  -OEChem-02102213163D

 25 24  0     1  0  0  0  0  0999 V2000
   -2.7826   -3.8464    0.7821 H   0  0  0  0  0  0  0  0  0  0  0  0
   -2.8156   -2.8034    0.4711 C   0  0  0  0  0  0  0  0  0  0  0  0
   -3.4336   -2.2354    1.1641 H   0  0  0  0  0  0  0  0  0  0  0  0
   -3.2256   -2.7344   -0.5349 H   0  0  0  0  0  0  0  0  0  0  0  0
   -1.4126   -2.2444    0.4801 C   0  0  0  0  0  0  0  0  0  0  0  0
   -0.4686   -2.9534    0.8001 O   0  0  0  0  0  0  0  0  0  0  0  0
   -1.2736   -0.9704    0.1241 N   0  0  0  0  0  0  0  0  0  0  0  0
   -2.0996   -0.4354   -0.1019 H   0  0  0  0  0  0  0  0  0  0  0  0
   -0.0016   -0.2394    0.1271 C   0  0  1  0  0  0  0  0  0  0  0  0
    0.7164   -0.7963    0.7332 H   0  0  0  0  0  0  0  0  0  0  0  0
    0.5351   -0.1414   -1.3146 C   0  0  0  0  0  0  0  0  0  0  0  0
    1.6024   -0.3660   -1.3206 H   0  0  0  0  0  0  0  0  0  0  0  0
    0.0341   -0.8780   -1.9438 H   0  0  0  0  0  0  0  0  0  0  0  0
    0.3669    1.2436   -1.9320 C   0  0  0  0  0  0  0  0  0  0  0  0
    0.2101    1.4786   -3.1230 O   0  0  0  0  0  0  0  0  0  0  0  0
    0.4092    2.2623   -1.0532 O   0  0  0  0  0  0  0  0  0  0  0  0
    0.2726    3.0586   -1.5676 H   0  0  0  0  0  0  0  0  0  0  0  0
   -0.1923    1.1526    0.7617 C   0  0  0  0  0  0  0  0  0  0  0  0
   -1.1582    1.8438    0.4410 O   0  0  0  0  0  0  0  0  0  0  0  0
    0.7203    1.5683    1.6472 N   0  0  0  0  0  0  0  0  0  0  0  0
    1.5210    0.9664    1.8100 H   0  0  0  0  0  0  0  0  0  0  0  0
    0.6747    2.8558    2.3368 C   0  0  0  0  0  0  0  0  0  0  0  0
   -0.3018    2.9877    2.8079 H   0  0  0  0  0  0  0  0  0  0  0  0
    1.4516    2.8997    3.1011 H   0  0  0  0  0  0  0  0  0  0  0  0
    0.8279    3.6639    1.6193 H   0  0  0  0  0  0  0  0  0  0  0  0
  5  6  2  0  0  0  0
  5  7  1  0  0  0  0
  2  3  1  0  0  0  0
  2  4  1  0  0  0  0
  2  5  1  0  0  0  0
  1  2  1  0  0  0  0
 18 19  2  0  0  0  0
 18 20  1  0  0  0  0
 16 17  1  0  0  0  0
 14 15  2  0  0  0  0
 14 16  1  0  0  0  0
 11 12  1  0  0  0  0
 11 13  1  0  0  0  0
 11 14  1  0  0  0  0
  9 10  1  0  0  0  0
  9 11  1  0  0  0  0
  9 18  1  0  0  0  0
  7  8  1  0  0  0  0
  7  9  1  0  0  0  0
 22 23  1  0  0  0  0
 22 24  1  0  0  0  0
 22 25  1  0  0  0  0
 20 21  1  0  0  0  0
 20 22  1  0  0  0  0
M  END
$$$$
default_name
  -OEChem-02102213163D

 25 24  0     1  0  0  0  0  0999 V2000
   -2.7826   -3.8464    0.7821 H   0  0  0  0  0  0  0  0  0  0  0  0
   -2.8156   -2.8034    0.4711 C   0  0  0  0  0  0  0  0  0  0  0  0
   -3.4336   -2.2354    1.1641 H   0  0  0  0  0  0  0  0  0  0  0  0
   -3.2256   -2.7344   -0.5349 H   0  0  0  0  0  0  0  0  0  0  0  0
   -1.4126   -2.2444    0.4801 C   0  0  0  0  0  0  0  0  0  0  0  0
   -0.4686   -2.9534    0.8001 O   0  0  0  0  0  0  0  0  0  0  0  0
   -1.2736   -0.9704    0.1241 N   0  0  0  0  0  0  0  0  0  0  0  0
   -2.0996   -0.4354   -0.1019 H   0  0  0  0  0  0  0  0  0  0  0  0
   -0.0016   -0.2394    0.1271 C   0  0  1  0  0  0  0  0  0  0  0  0
    0.7164   -0.7963    0.7332 H   0  0  0  0  0  0  0  0  0  0  0  0
    0.5351   -0.1414   -1.3146 C   0  0  0  0  0  0  0  0  0  0  0  0
    1.6024   -0.3660   -1.3206 H   0  0  0  0  0  0  0  0  0  0  0  0
    0.0341   -0.8780   -1.9438 H   0  0  0  0  0  0  0  0  0  0  0  0
    0.3669    1.2436   -1.9320 C   0  0  0  0  0  0  0  0  0  0  0  0
   -0.0425    1.4751   -3.0621 O   0  0  0  0  0  0  0  0  0  0  0  0
    0.7188    2.2657   -1.1299 O   0  0  0  0  0  0  0  0  0  0  0  0
    0.5458    3.0637   -1.6304 H   0  0  0  0  0  0  0  0  0  0  0  0
   -0.1923    1.1526    0.7617 C   0  0  0  0  0  0  0  0  0  0  0  0
   -1.1582    1.8438    0.4410 O   0  0  0  0  0  0  0  0  0  0  0  0
    0.7203    1.5683    1.6472 N   0  0  0  0  0  0  0  0  0  0  0  0
    1.5210    0.9664    1.8100 H   0  0  0  0  0  0  0  0  0  0  0  0
    0.6747    2.8558    2.3368 C   0  0  0  0  0  0  0  0  0  0  0  0
   -0.3018    2.9877    2.8079 H   0  0  0  0  0  0  0  0  0  0  0  0
    1.4516    2.8997    3.1011 H   0  0  0  0  0  0  0  0  0  0  0  0
    0.8279    3.6639    1.6193 H   0  0  0  0  0  0  0  0  0  0  0  0
  5  6  2  0  0  0  0
  5  7  1  0  0  0  0
  2  3  1  0  0  0  0
  2  4  1  0  0  0  0
  2  5  1  0  0  0  0
  1  2  1  0  0  0  0
 18 19  2  0  0  0  0
 18 20  1  0  0  0  0
 16 17  1  0  0  0  0
 14 15  2  0  0  0  0
 14 16  1  0  0  0  0
 11 12  1  0  0  0  0
 11 13  1  0  0  0  0
 11 14  1  0  0  0  0
  9 10  1  0  0  0  0
  9 11  1  0  0  0  0
  9 18  1  0  0  0  0
  7  8  1  0  0  0  0
  7  9  1  0  0  0  0
 22 23  1  0  0  0  0
 22 24  1  0  0  0  0
 22 25  1  0  0  0  0
 20 21  1  0  0  0  0
 20 22  1  0  0  0  0
M  END
$$$$
default_name
  -OEChem-02102213163D

 25 24  0     1  0  0  0  0  0999 V2000
   -2.7826   -3.8464    0.7821 H   0  0  0  0  0  0  0  0  0  0  0  0
   -2.8156   -2.8034    0.4711 C   0  0  0  0  0  0  0  0  0  0  0  0
   -3.4336   -2.2354    1.1641 H   0  0  0  0  0  0  0  0  0  0  0  0
   -3.2256   -2.7344   -0.5349 H   0  0  0  0  0  0  0  0  0  0  0  0
   -1.4126   -2.2444    0.4801 C   0  0  0  0  0  0  0  0  0  0  0  0
   -0.4686   -2.9534    0.8001 O   0  0  0  0  0  0  0  0  0  0  0  0
   -1.2736   -0.9704    0.1241 N   0  0  0  0  0  0  0  0  0  0  0  0
   -2.0996   -0.4354   -0.1019 H   0  0  0  0  0  0  0  0  0  0  0  0
   -0.0016   -0.2394    0.1271 C   0  0  1  0  0  0  0  0  0  0  0  0
    0.7164   -0.7963    0.7332 H   0  0  0  0  0  0  0  0  0  0  0  0
    0.5351   -0.1414   -1.3146 C   0  0  0  0  0  0  0  0  0  0  0  0
    1.6024   -0.3660   -1.3206 H   0  0  0  0  0  0  0  0  0  0  0  0
    0.0341   -0.8780   -1.9438 H   0  0  0  0  0  0  0  0  0  0  0  0
    0.3669    1.2436   -1.9320 C   0  0  0  0  0  0  0  0  0  0  0  0
   -0.2725    1.4999   -2.9438 O   0  0  0  0  0  0  0  0  0  0  0  0
    1.0002    2.2344   -1.2769 O   0  0  0  0  0  0  0  0  0  0  0  0
    0.7955    3.0383   -1.7555 H   0  0  0  0  0  0  0  0  0  0  0  0
   -0.1923    1.1526    0.7617 C   0  0  0  0  0  0  0  0  0  0  0  0
   -1.1582    1.8438    0.4410 O   0  0  0  0  0  0  0  0  0  0  0  0
    0.7203    1.5683    1.6472 N   0  0  0  0  0  0  0  0  0  0  0  0
    1.5210    0.9664    1.8100 H   0  0  0  0  0  0  0  0  0  0  0  0
    0.6747    2.8558    2.3368 C   0  0  0  0  0  0  0  0  0  0  0  0
   -0.3018    2.9877    2.8079 H   0  0  0  0  0  0  0  0  0  0  0  0
    1.4516    2.8997    3.1011 H   0  0  0  0  0  0  0  0  0  0  0  0
    0.8279    3.6639    1.6193 H   0  0  0  0  0  0  0  0  0  0  0  0
  5  6  2  0  0  0  0
  5  7  1  0  0  0  0
  2  3  1  0  0  0  0
  2  4  1  0  0  0  0
  2  5  1  0  0  0  0
  1  2  1  0  0  0  0
 18 19  2  0  0  0  0
 18 20  1  0  0  0  0
 16 17  1  0  0  0  0
 14 15  2  0  0  0  0
 14 16  1  0  0  0  0
 11 12  1  0  0  0  0
 11 13  1  0  0  0  0
 11 14  1  0  0  0  0
  9 10  1  0  0  0  0
  9 11  1  0  0  0  0
  9 18  1  0  0  0  0
  7  8  1  0  0  0  0
  7  9  1  0  0  0  0
 22 23  1  0  0  0  0
 22 24  1  0  0  0  0
 22 25  1  0  0  0  0
 20 21  1  0  0  0  0
 20 22  1  0  0  0  0
M  END
$$$$
default_name
  -OEChem-02102213163D

 25 24  0     1  0  0  0  0  0999 V2000
   -2.7826   -3.8464    0.7821 H   0  0  0  0  0  0  0  0  0  0  0  0
   -2.8156   -2.8034    0.4711 C   0  0  0  0  0  0  0  0  0  0  0  0
   -3.4336   -2.2354    1.1641 H   0  0  0  0  0  0  0  0  0  0  0  0
   -3.2256   -2.7344   -0.5349 H   0  0  0  0  0  0  0  0  0  0  0  0
   -1.4126   -2.2444    0.4801 C   0  0  0  0  0  0  0  0  0  0  0  0
   -0.4686   -2.9534    0.8001 O   0  0  0  0  0  0  0  0  0  0  0  0
   -1.2736   -0.9704    0.1241 N   0  0  0  0  0  0  0  0  0  0  0  0
   -2.0996   -0.4354   -0.1019 H   0  0  0  0  0  0  0  0  0  0  0  0
   -0.0016   -0.2394    0.1271 C   0  0  1  0  0  0  0  0  0  0  0  0
    0.7164   -0.7963    0.7332 H   0  0  0  0  0  0  0  0  0  0  0  0
    0.5351   -0.1414   -1.3146 C   0  0  0  0  0  0  0  0  0  0  0  0
    1.6024   -0.3660   -1.3206 H   0  0  0  0  0  0  0  0  0  0  0  0
    0.0341   -0.8780   -1.9438 H   0  0  0  0  0  0  0  0  0  0  0  0
    0.3669    1.2436   -1.9320 C   0  0  0  0  0  0  0  0  0  0  0  0
   -0.4643    1.5513   -2.7763 O   0  0  0  0  0  0  0  0  0  0  0  0
    1.2342    2.1705   -1.4840 O   0  0  0  0  0  0  0  0  0  0  0  0
    1.0047    2.9840   -1.9342 H   0  0  0  0  0  0  0  0  0  0  0  0
   -0.1923    1.1526    0.7617 C   0  0  0  0  0  0  0  0  0  0  0  0
   -1.1582    1.8438    0.4410 O   0  0  0  0  0  0  0  0  0  0  0  0
    0.7203    1.5683    1.6472 N   0  0  0  0  0  0  0  0  0  0  0  0
    1.5210    0.9664    1.8100 H   0  0  0  0  0  0  0  0  0  0  0  0
    0.6747    2.8558    2.3368 C   0  0  0  0  0  0  0  0  0  0  0  0
   -0.3018    2.9877    2.8079 H   0  0  0  0  0  0  0  0  0  0  0  0
    1.4516    2.8997    3.1011 H   0  0  0  0  0  0  0  0  0  0  0  0
    0.8279    3.6639    1.6193 H   0  0  0  0  0  0  0  0  0  0  0  0
  5  6  2  0  0  0  0
  5  7  1  0  0  0  0
  2  3  1  0  0  0  0
  2  4  1  0  0  0  0
  2  5  1  0  0  0  0
  1  2  1  0  0  0  0
 18 19  2  0  0  0  0
 18 20  1  0  0  0  0
 16 17  1  0  0  0  0
 14 15  2  0  0  0  0
 14 16  1  0  0  0  0
 11 12  1  0  0  0  0
 11 13  1  0  0  0  0
 11 14  1  0  0  0  0
  9 10  1  0  0  0  0
  9 11  1  0  0  0  0
  9 18  1  0  0  0  0
  7  8  1  0  0  0  0
  7  9  1  0  0  0  0
 22 23  1  0  0  0  0
 22 24  1  0  0  0  0
 22 25  1  0  0  0  0
 20 21  1  0  0  0  0
 20 22  1  0  0  0  0
M  END
$$$$
default_name
  -OEChem-02102213163D

 25 24  0     1  0  0  0  0  0999 V2000
   -2.7826   -3.8464    0.7821 H   0  0  0  0  0  0  0  0  0  0  0  0
   -2.8156   -2.8034    0.4711 C   0  0  0  0  0  0  0  0  0  0  0  0
   -3.4336   -2.2354    1.1641 H   0  0  0  0  0  0  0  0  0  0  0  0
   -3.2256   -2.7344   -0.5349 H   0  0  0  0  0  0  0  0  0  0  0  0
   -1.4126   -2.2444    0.4801 C   0  0  0  0  0  0  0  0  0  0  0  0
   -0.4686   -2.9534    0.8001 O   0  0  0  0  0  0  0  0  0  0  0  0
   -1.2736   -0.9704    0.1241 N   0  0  0  0  0  0  0  0  0  0  0  0
   -2.0996   -0.4354   -0.1019 H   0  0  0  0  0  0  0  0  0  0  0  0
   -0.0016   -0.2394    0.1271 C   0  0  1  0  0  0  0  0  0  0  0  0
    0.7164   -0.7963    0.7332 H   0  0  0  0  0  0  0  0  0  0  0  0
    0.5351   -0.1414   -1.3146 C   0  0  0  0  0  0  0  0  0  0  0  0
    1.6024   -0.3660   -1.3206 H   0  0  0  0  0  0  0  0  0  0  0  0
    0.0341   -0.8780   -1.9438 H   0  0  0  0  0  0  0  0  0  0  0  0
    0.3669    1.2436   -1.9320 C   0  0  0  0  0  0  0  0  0  0  0  0
   -0.6048    1.6258   -2.5708 O   0  0  0  0  0  0  0  0  0  0  0  0
    1.4049    2.0783   -1.7373 O   0  0  0  0  0  0  0  0  0  0  0  0
    1.1590    2.9046   -2.1545 H   0  0  0  0  0  0  0  0  0  0  0  0
   -0.1923    1.1526    0.7617 C   0  0  0  0  0  0  0  0  0  0  0  0
   -1.1582    1.8438    0.4410 O   0  0  0  0  0  0  0  0  0  0  0  0
    0.7203    1.5683    1.6472 N   0  0  0  0  0  0  0  0  0  0  0  0
    1.5210    0.9664    1.8100 H   0  0  0  0  0  0  0  0  0  0  0  0
    0.6747    2.8558    2.3368 C   0  0  0  0  0  0  0  0  0  0  0  0
   -0.3018    2.9877    2.8079 H   0  0  0  0  0  0  0  0  0  0  0  0
    1.4516    2.8997    3.1011 H   0  0  0  0  0  0  0  0  0  0  0  0
    0.8279    3.6639    1.6193 H   0  0  0  0  0  0  0  0  0  0  0  0
  5  6  2  0  0  0  0
  5  7  1  0  0  0  0
  2  3  1  0  0  0  0
  2  4  1  0  0  0  0
  2  5  1  0  0  0  0
  1  2  1  0  0  0  0
 18 19  2  0  0  0  0
 18 20  1  0  0  0  0
 16 17  1  0  0  0  0
 14 15  2  0  0  0  0
 14 16  1  0  0  0  0
 11 12  1  0  0  0  0
 11 13  1  0  0  0  0
 11 14  1  0  0  0  0
  9 10  1  0  0  0  0
  9 11  1  0  0  0  0
  9 18  1  0  0  0  0
  7  8  1  0  0  0  0
  7  9  1  0  0  0  0
 22 23  1  0  0  0  0
 22 24  1  0  0  0  0
 22 25  1  0  0  0  0
 20 21  1  0  0  0  0
 20 22  1  0  0  0  0
M  END
$$$$
default_name
  -OEChem-02102213163D

 25 24  0     1  0  0  0  0  0999 V2000
   -2.7826   -3.8464    0.7821 H   0  0  0  0  0  0  0  0  0  0  0  0
   -2.8156   -2.8034    0.4711 C   0  0  0  0  0  0  0  0  0  0  0  0
   -3.4336   -2.2354    1.1641 H   0  0  0  0  0  0  0  0  0  0  0  0
   -3.2256   -2.7344   -0.5349 H   0  0  0  0  0  0  0  0  0  0  0  0
   -1.4126   -2.2444    0.4801 C   0  0  0  0  0  0  0  0  0  0  0  0
   -0.4686   -2.9534    0.8001 O   0  0  0  0  0  0  0  0  0  0  0  0
   -1.2736   -0.9704    0.1241 N   0  0  0  0  0  0  0  0  0  0  0  0
   -2.0996   -0.4354   -0.1019 H   0  0  0  0  0  0  0  0  0  0  0  0
   -0.0016   -0.2394    0.1271 C   0  0  1  0  0  0  0  0  0  0  0  0
    0.7164   -0.7963    0.7332 H   0  0  0  0  0  0  0  0  0  0  0  0
    0.5351   -0.1414   -1.3146 C   0  0  0  0  0  0  0  0  0  0  0  0
    1.6024   -0.3660   -1.3206 H   0  0  0  0  0  0  0  0  0  0  0  0
    0.0341   -0.8780   -1.9438 H   0  0  0  0  0  0  0  0  0  0  0  0
    0.3669    1.2436   -1.9320 C   0  0  0  0  0  0  0  0  0  0  0  0
   -0.6844    1.7184   -2.3415 O   0  0  0  0  0  0  0  0  0  0  0  0
    1.5005    1.9642   -2.0194 O   0  0  0  0  0  0  0  0  0  0  0  0
    1.2481    2.8054   -2.4012 H   0  0  0  0  0  0  0  0  0  0  0  0
   -0.1923    1.1526    0.7617 C   0  0  0  0  0  0  0  0  0  0  0  0
   -1.1582    1.8438    0.4410 O   0  0  0  0  0  0  0  0  0  0  0  0
    0.7203    1.5683    1.6472 N   0  0  0  0  0  0  0  0  0  0  0  0
    1.5210    0.9664    1.8100 H   0  0  0  0  0  0  0  0  0  0  0  0
    0.6747    2.8558    2.3368 C   0  0  0  0  0  0  0  0  0  0  0  0
   -0.3018    2.9877    2.8079 H   0  0  0  0  0  0  0  0  0  0  0  0
    1.4516    2.8997    3.1011 H   0  0  0  0  0  0  0  0  0  0  0  0
    0.8279    3.6639    1.6193 H   0  0  0  0  0  0  0  0  0  0  0  0
  5  6  2  0  0  0  0
  5  7  1  0  0  0  0
  2  3  1  0  0  0  0
  2  4  1  0  0  0  0
  2  5  1  0  0  0  0
  1  2  1  0  0  0  0
 18 19  2  0  0  0  0
 18 20  1  0  0  0  0
 16 17  1  0  0  0  0
 14 15  2  0  0  0  0
 14 16  1  0  0  0  0
 11 12  1  0  0  0  0
 11 13  1  0  0  0  0
 11 14  1  0  0  0  0
  9 10  1  0  0  0  0
  9 11  1  0  0  0  0
  9 18  1  0  0  0  0
  7  8  1  0  0  0  0
  7  9  1  0  0  0  0
 22 23  1  0  0  0  0
 22 24  1  0  0  0  0
 22 25  1  0  0  0  0
 20 21  1  0  0  0  0
 20 22  1  0  0  0  0
M  END
$$$$
default_name
  -OEChem-02102213163D

 25 24  0     1  0  0  0  0  0999 V2000
   -2.7826   -3.8464    0.7821 H   0  0  0  0  0  0  0  0  0  0  0  0
   -2.8156   -2.8034    0.4711 C   0  0  0  0  0  0  0  0  0  0  0  0
   -3.4336   -2.2354    1.1641 H   0  0  0  0  0  0  0  0  0  0  0  0
   -3.2256   -2.7344   -0.5349 H   0  0  0  0  0  0  0  0  0  0  0  0
   -1.4126   -2.2444    0.4801 C   0  0  0  0  0  0  0  0  0  0  0  0
   -0.4686   -2.9534    0.8001 O   0  0  0  0  0  0  0  0  0  0  0  0
   -1.2736   -0.9704    0.1241 N   0  0  0  0  0  0  0  0  0  0  0  0
   -2.0996   -0.4354   -0.1019 H   0  0  0  0  0  0  0  0  0  0  0  0
   -0.0016   -0.2394    0.1271 C   0  0  1  0  0  0  0  0  0  0  0  0
    0.7164   -0.7963    0.7332 H   0  0  0  0  0  0  0  0  0  0  0  0
    0.5351   -0.1414   -1.3146 C   0  0  0  0  0  0  0  0  0  0  0  0
    1.6024   -0.3660   -1.3206 H   0  0  0  0  0  0  0  0  0  0  0  0
    0.0341   -0.8780   -1.9438 H   0  0  0  0  0  0  0  0  0  0  0  0
    0.3669    1.2436   -1.9320 C   0  0  0  0  0  0  0  0  0  0  0  0
   -0.6977    1.8226   -2.1039 O   0  0  0  0  0  0  0  0  0  0  0  0
    1.5147    1.8358   -2.3111 O   0  0  0  0  0  0  0  0  0  0  0  0
    1.2657    2.6932   -2.6576 H   0  0  0  0  0  0  0  0  0  0  0  0
   -0.1923    1.1526    0.7617 C   0  0  0  0  0  0  0  0  0  0  0  0
   -1.1582    1.8438    0.4410 O   0  0  0  0  0  0  0  0  0  0  0  0
    0.7203    1.5683    1.6472 N   0  0  0  0  0  0  0  0  0  0  0  0
    1.5210    0.9664    1.8100 H   0  0  0  0  0  0  0  0  0  0  0  0
    0.6747    2.8558    2.3368 C   0  0  0  0  0  0  0  0  0  0  0  0
   -0.3018    2.9877    2.8079 H   0  0  0  0  0  0  0  0  0  0  0  0
    1.4516    2.8997    3.1011 H   0  0  0  0  0  0  0  0  0  0  0  0
    0.8279    3.6639    1.6193 H   0  0  0  0  0  0  0  0  0  0  0  0
  5  6  2  0  0  0  0
  5  7  1  0  0  0  0
  2  3  1  0  0  0  0
  2  4  1  0  0  0  0
  2  5  1  0  0  0  0
  1  2  1  0  0  0  0
 18 19  2  0  0  0  0
 18 20  1  0  0  0  0
 16 17  1  0  0  0  0
 14 15  2  0  0  0  0
 14 16  1  0  0  0  0
 11 12  1  0  0  0  0
 11 13  1  0  0  0  0
 11 14  1  0  0  0  0
  9 10  1  0  0  0  0
  9 11  1  0  0  0  0
  9 18  1  0  0  0  0
  7  8  1  0  0  0  0
  7  9  1  0  0  0  0
 22 23  1  0  0  0  0
 22 24  1  0  0  0  0
 22 25  1  0  0  0  0
 20 21  1  0  0  0  0
 20 22  1  0  0  0  0
M  END
$$$$
default_name
  -OEChem-02102213163D

 25 24  0     1  0  0  0  0  0999 V2000
   -2.7826   -3.8464    0.7821 H   0  0  0  0  0  0  0  0  0  0  0  0
   -2.8156   -2.8034    0.4711 C   0  0  0  0  0  0  0  0  0  0  0  0
   -3.4336   -2.2354    1.1641 H   0  0  0  0  0  0  0  0  0  0  0  0
   -3.2256   -2.7344   -0.5349 H   0  0  0  0  0  0  0  0  0  0  0  0
   -1.4126   -2.2444    0.4801 C   0  0  0  0  0  0  0  0  0  0  0  0
   -0.4686   -2.9534    0.8001 O   0  0  0  0  0  0  0  0  0  0  0  0
   -1.2736   -0.9704    0.1241 N   0  0  0  0  0  0  0  0  0  0  0  0
   -2.0996   -0.4354   -0.1019 H   0  0  0  0  0  0  0  0  0  0  0  0
   -0.0016   -0.2394    0.1271 C   0  0  1  0  0  0  0  0  0  0  0  0
    0.7164   -0.7963    0.7332 H   0  0  0  0  0  0  0  0  0  0  0  0
    0.5351   -0.1414   -1.3146 C   0  0  0  0  0  0  0  0  0  0  0  0
    1.6024   -0.3660   -1.3206 H   0  0  0  0  0  0  0  0  0  0  0  0
    0.0341   -0.8780   -1.9438 H   0  0  0  0  0  0  0  0  0  0  0  0
    0.3669    1.2436   -1.9320 C   0  0  0  0  0  0  0  0  0  0  0  0
   -0.6439    1.9316   -1.8742 O   0  0  0  0  0  0  0  0  0  0  0  0
    1.4465    1.7021   -2.5926 O   0  0  0  0  0  0  0  0  0  0  0  0
    1.2107    2.5757   -2.9063 H   0  0  0  0  0  0  0  0  0  0  0  0
   -0.1923    1.1526    0.7617 C   0  0  0  0  0  0  0  0  0  0  0  0
   -1.1582    1.8438    0.4410 O   0  0  0  0  0  0  0  0  0  0  0  0
    0.7203    1.5683    1.6472 N   0  0  0  0  0  0  0  0  0  0  0  0
    1.5210    0.9664    1.8100 H   0  0  0  0  0  0  0  0  0  0  0  0
    0.6747    2.8558    2.3368 C   0  0  0  0  0  0  0  0  0  0  0  0
   -0.3018    2.9877    2.8079 H   0  0  0  0  0  0  0  0  0  0  0  0
    1.4516    2.8997    3.1011 H   0  0  0  0  0  0  0  0  0  0  0  0
    0.8279    3.6639    1.6193 H   0  0  0  0  0  0  0  0  0  0  0  0
  5  6  2  0  0  0  0
  5  7  1  0  0  0  0
  2  3  1  0  0  0  0
  2  4  1  0  0  0  0
  2  5  1  0  0  0  0
  1  2  1  0  0  0  0
 18 19  2  0  0  0  0
 18 20  1  0  0  0  0
 16 17  1  0  0  0  0
 14 15  2  0  0  0  0
 14 16  1  0  0  0  0
 11 12  1  0  0  0  0
 11 13  1  0  0  0  0
 11 14  1  0  0  0  0
  9 10  1  0  0  0  0
  9 11  1  0  0  0  0
  9 18  1  0  0  0  0
  7  8  1  0  0  0  0
  7  9  1  0  0  0  0
 22 23  1  0  0  0  0
 22 24  1  0  0  0  0
 22 25  1  0  0  0  0
 20 21  1  0  0  0  0
 20 22  1  0  0  0  0
M  END
$$$$
default_name
  -OEChem-02102213163D

 25 24  0     1  0  0  0  0  0999 V2000
   -2.7826   -3.8464    0.7821 H   0  0  0  0  0  0  0  0  0  0  0  0
   -2.8156   -2.8034    0.4711 C   0  0  0  0  0  0  0  0  0  0  0  0
   -3.4336   -2.2354    1.1641 H   0  0  0  0  0  0  0  0  0  0  0  0
   -3.2256   -2.7344   -0.5349 H   0  0  0  0  0  0  0  0  0  0  0  0
   -1.4126   -2.2444    0.4801 C   0  0  0  0  0  0  0  0  0  0  0  0
   -0.4686   -2.9534    0.8001 O   0  0  0  0  0  0  0  0  0  0  0  0
   -1.2736   -0.9704    0.1241 N   0  0  0  0  0  0  0  0  0  0  0  0
   -2.0996   -0.4354   -0.1019 H   0  0  0  0  0  0  0  0  0  0  0  0
   -0.0016   -0.2394    0.1271 C   0  0  1  0  0  0  0  0  0  0  0  0
    0.7164   -0.7963    0.7332 H   0  0  0  0  0  0  0  0  0  0  0  0
    0.5351   -0.1414   -1.3146 C   0  0  0  0  0  0  0  0  0  0  0  0
    1.6024   -0.3660   -1.3206 H   0  0  0  0  0  0  0  0  0  0  0  0
    0.0341   -0.8780   -1.9438 H   0  0  0  0  0  0  0  0  0  0  0  0
    0.3669    1.2436   -1.9320 C   0  0  0  0  0  0  0  0  0  0  0  0
   -0.5265    2.0377   -1.6682 O   0  0  0  0  0  0  0  0  0  0  0  0
    1.3004    1.5720   -2.8446 O   0  0  0  0  0  0  0  0  0  0  0  0
    1.0869    2.4609   -3.1302 H   0  0  0  0  0  0  0  0  0  0  0  0
   -0.1923    1.1526    0.7617 C   0  0  0  0  0  0  0  0  0  0  0  0
   -1.1582    1.8438    0.4410 O   0  0  0  0  0  0  0  0  0  0  0  0
    0.7203    1.5683    1.6472 N   0  0  0  0  0  0  0  0  0  0  0  0
    1.5210    0.9664    1.8100 H   0  0  0  0  0  0  0  0  0  0  0  0
    0.6747    2.8558    2.3368 C   0  0  0  0  0  0  0  0  0  0  0  0
   -0.3018    2.9877    2.8079 H   0  0  0  0  0  0  0  0  0  0  0  0
    1.4516    2.8997    3.1011 H   0  0  0  0  0  0  0  0  0  0  0  0
    0.8279    3.6639    1.6193 H   0  0  0  0  0  0  0  0  0  0  0  0
  5  6  2  0  0  0  0
  5  7  1  0  0  0  0
  2  3  1  0  0  0  0
  2  4  1  0  0  0  0
  2  5  1  0  0  0  0
  1  2  1  0  0  0  0
 18 19  2  0  0  0  0
 18 20  1  0  0  0  0
 16 17  1  0  0  0  0
 14 15  2  0  0  0  0
 14 16  1  0  0  0  0
 11 12  1  0  0  0  0
 11 13  1  0  0  0  0
 11 14  1  0  0  0  0
  9 10  1  0  0  0  0
  9 11  1  0  0  0  0
  9 18  1  0  0  0  0
  7  8  1  0  0  0  0
  7  9  1  0  0  0  0
 22 23  1  0  0  0  0
 22 24  1  0  0  0  0
 22 25  1  0  0  0  0
 20 21  1  0  0  0  0
 20 22  1  0  0  0  0
M  END
$$$$
default_name
  -OEChem-02102213163D

 25 24  0     1  0  0  0  0  0999 V2000
   -2.7826   -3.8464    0.7821 H   0  0  0  0  0  0  0  0  0  0  0  0
   -2.8156   -2.8034    0.4711 C   0  0  0  0  0  0  0  0  0  0  0  0
   -3.4336   -2.2354    1.1641 H   0  0  0  0  0  0  0  0  0  0  0  0
   -3.2256   -2.7344   -0.5349 H   0  0  0  0  0  0  0  0  0  0  0  0
   -1.4126   -2.2444    0.4801 C   0  0  0  0  0  0  0  0  0  0  0  0
   -0.4686   -2.9534    0.8001 O   0  0  0  0  0  0  0  0  0  0  0  0
   -1.2736   -0.9704    0.1241 N   0  0  0  0  0  0  0  0  0  0  0  0
   -2.0996   -0.4354   -0.1019 H   0  0  0  0  0  0  0  0  0  0  0  0
   -0.0016   -0.2394    0.1271 C   0  0  1  0  0  0  0  0  0  0  0  0
    0.7164   -0.7963    0.7332 H   0  0  0  0  0  0  0  0  0  0  0  0
    0.5351   -0.1414   -1.3146 C   0  0  0  0  0  0  0  0  0  0  0  0
    1.6024   -0.3660   -1.3206 H   0  0  0  0  0  0  0  0  0  0  0  0
    0.0341   -0.8780   -1.9438 H   0  0  0  0  0  0  0  0  0  0  0  0
    0.3669    1.2436   -1.9320 C   0  0  0  0  0  0  0  0  0  0  0  0
   -0.3535    2.1337   -1.4997 O   0  0  0  0  0  0  0  0  0  0  0  0
    1.0864    1.4545   -3.0500 O   0  0  0  0  0  0  0  0  0  0  0  0
    0.9027    2.3566   -3.3141 H   0  0  0  0  0  0  0  0  0  0  0  0
   -0.1923    1.1526    0.7617 C   0  0  0  0  0  0  0  0  0  0  0  0
   -1.1582    1.8438    0.4410 O   0  0  0  0  0  0  0  0  0  0  0  0
    0.7203    1.5683    1.6472 N   0  0  0  0  0  0  0  0  0  0  0  0
    1.5210    0.9664    1.8100 H   0  0  0  0  0  0  0  0  0  0  0  0
    0.6747    2.8558    2.3368 C   0  0  0  0  0  0  0  0  0  0  0  0
   -0.3018    2.9877    2.8079 H   0  0  0  0  0  0  0  0  0  0  0  0
    1.4516    2.8997    3.1011 H   0  0  0  0  0  0  0  0  0  0  0  0
    0.8279    3.6639    1.6193 H   0  0  0  0  0  0  0  0  0  0  0  0
  5  6  2  0  0  0  0
  5  7  1  0  0  0  0
  2  3  1  0  0  0  0
  2  4  1  0  0  0  0
  2  5  1  0  0  0  0
  1  2  1  0  0  0  0
 18 19  2  0  0  0  0
 18 20  1  0  0  0  0
 16 17  1  0  0  0  0
 14 15  2  0  0  0  0
 14 16  1  0  0  0  0
 11 12  1  0  0  0  0
 11 13  1  0  0  0  0
 11 14  1  0  0  0  0
  9 10  1  0  0  0  0
  9 11  1  0  0  0  0
  9 18  1  0  0  0  0
  7  8  1  0  0  0  0
  7  9  1  0  0  0  0
 22 23  1  0  0  0  0
 22 24  1  0  0  0  0
 22 25  1  0  0  0  0
 20 21  1  0  0  0  0
 20 22  1  0  0  0  0
M  END
$$$$
default_name
  -OEChem-02102213163D

 25 24  0     1  0  0  0  0  0999 V2000
   -2.7826   -3.8464    0.7821 H   0  0  0  0  0  0  0  0  0  0  0  0
   -2.8156   -2.8034    0.4711 C   0  0  0  0  0  0  0  0  0  0  0  0
   -3.4336   -2.2354    1.1641 H   0  0  0  0  0  0  0  0  0  0  0  0
   -3.2256   -2.7344   -0.5349 H   0  0  0  0  0  0  0  0  0  0  0  0
   -1.4126   -2.2444    0.4801 C   0  0  0  0  0  0  0  0  0  0  0  0
   -0.4686   -2.9534    0.8001 O   0  0  0  0  0  0  0  0  0  0  0  0
   -1.2736   -0.9704    0.1241 N   0  0  0  0  0  0  0  0  0  0  0  0
   -2.0996   -0.4354   -0.1019 H   0  0  0  0  0  0  0  0  0  0  0  0
   -0.0016   -0.2394    0.1271 C   0  0  1  0  0  0  0  0  0  0  0  0
    0.7164   -0.7963    0.7332 H   0  0  0  0  0  0  0  0  0  0  0  0
    0.5351   -0.1414   -1.3146 C   0  0  0  0  0  0  0  0  0  0  0  0
    1.6024   -0.3660   -1.3206 H   0  0  0  0  0  0  0  0  0  0  0  0
    0.0341   -0.8780   -1.9438 H   0  0  0  0  0  0  0  0  0  0  0  0
    0.3669    1.2436   -1.9320 C   0  0  0  0  0  0  0  0  0  0  0  0
   -0.1369    2.2132   -1.3804 O   0  0  0  0  0  0  0  0  0  0  0  0
    0.8192    1.3575   -3.1947 O   0  0  0  0  0  0  0  0  0  0  0  0
    0.6706    2.2698   -3.4454 H   0  0  0  0  0  0  0  0  0  0  0  0
   -0.1923    1.1526    0.7617 C   0  0  0  0  0  0  0  0  0  0  0  0
   -1.1582    1.8438    0.4410 O   0  0  0  0  0  0  0  0  0  0  0  0
    0.7203    1.5683    1.6472 N   0  0  0  0  0  0  0  0  0  0  0  0
    1.5210    0.9664    1.8100 H   0  0  0  0  0  0  0  0  0  0  0  0
    0.6747    2.8558    2.3368 C   0  0  0  0  0  0  0  0  0  0  0  0
   -0.3018    2.9877    2.8079 H   0  0  0  0  0  0  0  0  0  0  0  0
    1.4516    2.8997    3.1011 H   0  0  0  0  0  0  0  0  0  0  0  0
    0.8279    3.6639    1.6193 H   0  0  0  0  0  0  0  0  0  0  0  0
  5  6  2  0  0  0  0
  5  7  1  0  0  0  0
  2  3  1  0  0  0  0
  2  4  1  0  0  0  0
  2  5  1  0  0  0  0
  1  2  1  0  0  0  0
 18 19  2  0  0  0  0
 18 20  1  0  0  0  0
 16 17  1  0  0  0  0
 14 15  2  0  0  0  0
 14 16  1  0  0  0  0
 11 12  1  0  0  0  0
 11 13  1  0  0  0  0
 11 14  1  0  0  0  0
  9 10  1  0  0  0  0
  9 11  1  0  0  0  0
  9 18  1  0  0  0  0
  7  8  1  0  0  0  0
  7  9  1  0  0  0  0
 22 23  1  0  0  0  0
 22 24  1  0  0  0  0
 22 25  1  0  0  0  0
 20 21  1  0  0  0  0
 20 22  1  0  0  0  0
M  END
$$$$
default_name
  -OEChem-02102213163D

 25 24  0     1  0  0  0  0  0999 V2000
   -2.7826   -3.8464    0.7821 H   0  0  0  0  0  0  0  0  0  0  0  0
   -2.8156   -2.8034    0.4711 C   0  0  0  0  0  0  0  0  0  0  0  0
   -3.4336   -2.2354    1.1641 H   0  0  0  0  0  0  0  0  0  0  0  0
   -3.2256   -2.7344   -0.5349 H   0  0  0  0  0  0  0  0  0  0  0  0
   -1.4126   -2.2444    0.4801 C   0  0  0  0  0  0  0  0  0  0  0  0
   -0.4686   -2.9534    0.8001 O   0  0  0  0  0  0  0  0  0  0  0  0
   -1.2736   -0.9704    0.1241 N   0  0  0  0  0  0  0  0  0  0  0  0
   -2.0996   -0.4354   -0.1019 H   0  0  0  0  0  0  0  0  0  0  0  0
   -0.0016   -0.2394    0.1271 C   0  0  1  0  0  0  0  0  0  0  0  0
    0.7164   -0.7963    0.7332 H   0  0  0  0  0  0  0  0  0  0  0  0
    0.5351   -0.1414   -1.3146 C   0  0  0  0  0  0  0  0  0  0  0  0
    1.6024   -0.3660   -1.3206 H   0  0  0  0  0  0  0  0  0  0  0  0
    0.0341   -0.8780   -1.9438 H   0  0  0  0  0  0  0  0  0  0  0  0
    0.3669    1.2436   -1.9320 C   0  0  0  0  0  0  0  0  0  0  0  0
    0.1088    2.2707   -1.3183 O   0  0  0  0  0  0  0  0  0  0  0  0
    0.5169    1.2877   -3.2690 O   0  0  0  0  0  0  0  0  0  0  0  0
    0.4065    2.2066   -3.5153 H   0  0  0  0  0  0  0  0  0  0  0  0
   -0.1923    1.1526    0.7617 C   0  0  0  0  0  0  0  0  0  0  0  0
   -1.1582    1.8438    0.4410 O   0  0  0  0  0  0  0  0  0  0  0  0
    0.7203    1.5683    1.6472 N   0  0  0  0  0  0  0  0  0  0  0  0
    1.5210    0.9664    1.8100 H   0  0  0  0  0  0  0  0  0  0  0  0
    0.6747    2.8558    2.3368 C   0  0  0  0  0  0  0  0  0  0  0  0
   -0.3018    2.9877    2.8079 H   0  0  0  0  0  0  0  0  0  0  0  0
    1.4516    2.8997    3.1011 H   0  0  0  0  0  0  0  0  0  0  0  0
    0.8279    3.6639    1.6193 H   0  0  0  0  0  0  0  0  0  0  0  0
  5  6  2  0  0  0  0
  5  7  1  0  0  0  0
  2  3  1  0  0  0  0
  2  4  1  0  0  0  0
  2  5  1  0  0  0  0
  1  2  1  0  0  0  0
 18 19  2  0  0  0  0
 18 20  1  0  0  0  0
 16 17  1  0  0  0  0
 14 15  2  0  0  0  0
 14 16  1  0  0  0  0
 11 12  1  0  0  0  0
 11 13  1  0  0  0  0
 11 14  1  0  0  0  0
  9 10  1  0  0  0  0
  9 11  1  0  0  0  0
  9 18  1  0  0  0  0
  7  8  1  0  0  0  0
  7  9  1  0  0  0  0
 22 23  1  0  0  0  0
 22 24  1  0  0  0  0
 22 25  1  0  0  0  0
 20 21  1  0  0  0  0
 20 22  1  0  0  0  0
M  END
$$$$
default_name
  -OEChem-02102213163D

 25 24  0     1  0  0  0  0  0999 V2000
   -2.7826   -3.8464    0.7821 H   0  0  0  0  0  0  0  0  0  0  0  0
   -2.8156   -2.8034    0.4711 C   0  0  0  0  0  0  0  0  0  0  0  0
   -3.4336   -2.2354    1.1641 H   0  0  0  0  0  0  0  0  0  0  0  0
   -3.2256   -2.7344   -0.5349 H   0  0  0  0  0  0  0  0  0  0  0  0
   -1.4126   -2.2444    0.4801 C   0  0  0  0  0  0  0  0  0  0  0  0
   -0.4686   -2.9534    0.8001 O   0  0  0  0  0  0  0  0  0  0  0  0
   -1.2736   -0.9704    0.1241 N   0  0  0  0  0  0  0  0  0  0  0  0
   -2.0996   -0.4354   -0.1019 H   0  0  0  0  0  0  0  0  0  0  0  0
   -0.0016   -0.2394    0.1271 C   0  0  1  0  0  0  0  0  0  0  0  0
    0.7164   -0.7963    0.7332 H   0  0  0  0  0  0  0  0  0  0  0  0
    0.5351   -0.1414   -1.3146 C   0  0  0  0  0  0  0  0  0  0  0  0
    1.6024   -0.3660   -1.3206 H   0  0  0  0  0  0  0  0  0  0  0  0
    0.0341   -0.8780   -1.9438 H   0  0  0  0  0  0  0  0  0  0  0  0
    0.3669    1.2436   -1.9320 C   0  0  0  0  0  0  0  0  0  0  0  0
    0.3667    2.3023   -1.3177 O   0  0  0  0  0  0  0  0  0  0  0  0
    0.2002    1.2498   -3.2677 O   0  0  0  0  0  0  0  0  0  0  0  0
    0.1283    2.1712   -3.5190 H   0  0  0  0  0  0  0  0  0  0  0  0
   -0.1923    1.1526    0.7617 C   0  0  0  0  0  0  0  0  0  0  0  0
   -1.1582    1.8438    0.4410 O   0  0  0  0  0  0  0  0  0  0  0  0
    0.7203    1.5683    1.6472 N   0  0  0  0  0  0  0  0  0  0  0  0
    1.5210    0.9664    1.8100 H   0  0  0  0  0  0  0  0  0  0  0  0
    0.6747    2.8558    2.3368 C   0  0  0  0  0  0  0  0  0  0  0  0
   -0.3018    2.9877    2.8079 H   0  0  0  0  0  0  0  0  0  0  0  0
    1.4516    2.8997    3.1011 H   0  0  0  0  0  0  0  0  0  0  0  0
    0.8279    3.6639    1.6193 H   0  0  0  0  0  0  0  0  0  0  0  0
  5  6  2  0  0  0  0
  5  7  1  0  0  0  0
  2  3  1  0  0  0  0
  2  4  1  0  0  0  0
  2  5  1  0  0  0  0
  1  2  1  0  0  0  0
 18 19  2  0  0  0  0
 18 20  1  0  0  0  0
 16 17  1  0  0  0  0
 14 15  2  0  0  0  0
 14 16  1  0  0  0  0
 11 12  1  0  0  0  0
 11 13  1  0  0  0  0
 11 14  1  0  0  0  0
  9 10  1  0  0  0  0
  9 11  1  0  0  0  0
  9 18  1  0  0  0  0
  7  8  1  0  0  0  0
  7  9  1  0  0  0  0
 22 23  1  0  0  0  0
 22 24  1  0  0  0  0
 22 25  1  0  0  0  0
 20 21  1  0  0  0  0
 20 22  1  0  0  0  0
M  END
$$$$
default_name
  -OEChem-02102213163D

 25 24  0     1  0  0  0  0  0999 V2000
   -2.7826   -3.8464    0.7821 H   0  0  0  0  0  0  0  0  0  0  0  0
   -2.8156   -2.8034    0.4711 C   0  0  0  0  0  0  0  0  0  0  0  0
   -3.4336   -2.2354    1.1641 H   0  0  0  0  0  0  0  0  0  0  0  0
   -3.2256   -2.7344   -0.5349 H   0  0  0  0  0  0  0  0  0  0  0  0
   -1.4126   -2.2444    0.4801 C   0  0  0  0  0  0  0  0  0  0  0  0
   -0.4686   -2.9534    0.8001 O   0  0  0  0  0  0  0  0  0  0  0  0
   -1.2736   -0.9704    0.1241 N   0  0  0  0  0  0  0  0  0  0  0  0
   -2.0996   -0.4354   -0.1019 H   0  0  0  0  0  0  0  0  0  0  0  0
   -0.0016   -0.2394    0.1271 C   0  0  1  0  0  0  0  0  0  0  0  0
    0.7164   -0.7963    0.7332 H   0  0  0  0  0  0  0  0  0  0  0  0
    0.5351   -0.1414   -1.3146 C   0  0  0  0  0  0  0  0  0  0  0  0
    1.6024   -0.3660   -1.3206 H   0  0  0  0  0  0  0  0  0  0  0  0
    0.0341   -0.8780   -1.9438 H   0  0  0  0  0  0  0  0  0  0  0  0
    0.3669    1.2436   -1.9320 C   0  0  0  0  0  0  0  0  0  0  0  0
    0.6192    2.3058   -1.3786 O   0  0  0  0  0  0  0  0  0  0  0  0
   -0.1094    1.2464   -3.1910 O   0  0  0  0  0  0  0  0  0  0  0  0
   -0.1450    2.1661   -3.4561 H   0  0  0  0  0  0  0  0  0  0  0  0
   -0.1923    1.1526    0.7617 C   0  0  0  0  0  0  0  0  0  0  0  0
   -1.1582    1.8438    0.4410 O   0  0  0  0  0  0  0  0  0  0  0  0
    0.7203    1.5683    1.6472 N   0  0  0  0  0  0  0  0  0  0  0  0
    1.5210    0.9664    1.8100 H   0  0  0  0  0  0  0  0  0  0  0  0
    0.6747    2.8558    2.3368 C   0  0  0  0  0  0  0  0  0  0  0  0
   -0.3018    2.9877    2.8079 H   0  0  0  0  0  0  0  0  0  0  0  0
    1.4516    2.8997    3.1011 H   0  0  0  0  0  0  0  0  0  0  0  0
    0.8279    3.6639    1.6193 H   0  0  0  0  0  0  0  0  0  0  0  0
  5  6  2  0  0  0  0
  5  7  1  0  0  0  0
  2  3  1  0  0  0  0
  2  4  1  0  0  0  0
  2  5  1  0  0  0  0
  1  2  1  0  0  0  0
 18 19  2  0  0  0  0
 18 20  1  0  0  0  0
 16 17  1  0  0  0  0
 14 15  2  0  0  0  0
 14 16  1  0  0  0  0
 11 12  1  0  0  0  0
 11 13  1  0  0  0  0
 11 14  1  0  0  0  0
  9 10  1  0  0  0  0
  9 11  1  0  0  0  0
  9 18  1  0  0  0  0
  7  8  1  0  0  0  0
  7  9  1  0  0  0  0
 22 23  1  0  0  0  0
 22 24  1  0  0  0  0
 22 25  1  0  0  0  0
 20 21  1  0  0  0  0
 20 22  1  0  0  0  0
M  END
$$$$
default_name
  -OEChem-02102213163D

 25 24  0     1  0  0  0  0  0999 V2000
   -2.7826   -3.8464    0.7821 H   0  0  0  0  0  0  0  0  0  0  0  0
   -2.8156   -2.8034    0.4711 C   0  0  0  0  0  0  0  0  0  0  0  0
   -3.4336   -2.2354    1.1641 H   0  0  0  0  0  0  0  0  0  0  0  0
   -3.2256   -2.7344   -0.5349 H   0  0  0  0  0  0  0  0  0  0  0  0
   -1.4126   -2.2444    0.4801 C   0  0  0  0  0  0  0  0  0  0  0  0
   -0.4686   -2.9534    0.8001 O   0  0  0  0  0  0  0  0  0  0  0  0
   -1.2736   -0.9704    0.1241 N   0  0  0  0  0  0  0  0  0  0  0  0
   -2.0996   -0.4354   -0.1019 H   0  0  0  0  0  0  0  0  0  0  0  0
   -0.0016   -0.2394    0.1271 C   0  0  1  0  0  0  0  0  0  0  0  0
    0.7164   -0.7963    0.7332 H   0  0  0  0  0  0  0  0  0  0  0  0
    0.5351   -0.1414   -1.3146 C   0  0  0  0  0  0  0  0  0  0  0  0
    1.6024   -0.3660   -1.3206 H   0  0  0  0  0  0  0  0  0  0  0  0
    0.0341   -0.8780   -1.9438 H   0  0  0  0  0  0  0  0  0  0  0  0
    0.3669    1.2436   -1.9320 C   0  0  0  0  0  0  0  0  0  0  0  0
    0.8492    2.2810   -1.4968 O   0  0  0  0  0  0  0  0  0  0  0  0
   -0.3908    1.2778   -3.0441 O   0  0  0  0  0  0  0  0  0  0  0  0
   -0.3947    2.1915   -3.3310 H   0  0  0  0  0  0  0  0  0  0  0  0
   -0.1923    1.1526    0.7617 C   0  0  0  0  0  0  0  0  0  0  0  0
   -1.1582    1.8438    0.4410 O   0  0  0  0  0  0  0  0  0  0  0  0
    0.7203    1.5683    1.6472 N   0  0  0  0  0  0  0  0  0  0  0  0
    1.5210    0.9664    1.8100 H   0  0  0  0  0  0  0  0  0  0  0  0
    0.6747    2.8558    2.3368 C   0  0  0  0  0  0  0  0  0  0  0  0
   -0.3018    2.9877    2.8079 H   0  0  0  0  0  0  0  0  0  0  0  0
    1.4516    2.8997    3.1011 H   0  0  0  0  0  0  0  0  0  0  0  0
    0.8279    3.6639    1.6193 H   0  0  0  0  0  0  0  0  0  0  0  0
  5  6  2  0  0  0  0
  5  7  1  0  0  0  0
  2  3  1  0  0  0  0
  2  4  1  0  0  0  0
  2  5  1  0  0  0  0
  1  2  1  0  0  0  0
 18 19  2  0  0  0  0
 18 20  1  0  0  0  0
 16 17  1  0  0  0  0
 14 15  2  0  0  0  0
 14 16  1  0  0  0  0
 11 12  1  0  0  0  0
 11 13  1  0  0  0  0
 11 14  1  0  0  0  0
  9 10  1  0  0  0  0
  9 11  1  0  0  0  0
  9 18  1  0  0  0  0
  7  8  1  0  0  0  0
  7  9  1  0  0  0  0
 22 23  1  0  0  0  0
 22 24  1  0  0  0  0
 22 25  1  0  0  0  0
 20 21  1  0  0  0  0
 20 22  1  0  0  0  0
M  END
$$$$
default_name
  -OEChem-02102213163D

 25 24  0     1  0  0  0  0  0999 V2000
   -2.7826   -3.8464    0.7821 H   0  0  0  0  0  0  0  0  0  0  0  0
   -2.8156   -2.8034    0.4711 C   0  0  0  0  0  0  0  0  0  0  0  0
   -3.4336   -2.2354    1.1641 H   0  0  0  0  0  0  0  0  0  0  0  0
   -3.2256   -2.7344   -0.5349 H   0  0  0  0  0  0  0  0  0  0  0  0
   -1.4126   -2.2444    0.4801 C   0  0  0  0  0  0  0  0  0  0  0  0
   -0.4686   -2.9534    0.8001 O   0  0  0  0  0  0  0  0  0  0  0  0
   -1.2736   -0.9704    0.1241 N   0  0  0  0  0  0  0  0  0  0  0  0
   -2.0996   -0.4354   -0.1019 H   0  0  0  0  0  0  0  0  0  0  0  0
   -0.0016   -0.2394    0.1271 C   0  0  1  0  0  0  0  0  0  0  0  0
    0.7164   -0.7963    0.7332 H   0  0  0  0  0  0  0  0  0  0  0  0
    0.5351   -0.1414   -1.3146 C   0  0  0  0  0  0  0  0  0  0  0  0
    1.6024   -0.3660   -1.3206 H   0  0  0  0  0  0  0  0  0  0  0  0
    0.0341   -0.8780   -1.9438 H   0  0  0  0  0  0  0  0  0  0  0  0
    0.3669    1.2436   -1.9320 C   0  0  0  0  0  0  0  0  0  0  0  0
    1.0410    2.2296   -1.6644 O   0  0  0  0  0  0  0  0  0  0  0  0
   -0.6248    1.3417   -2.8369 O   0  0  0  0  0  0  0  0  0  0  0  0
   -0.6038    2.2458   -3.1523 H   0  0  0  0  0  0  0  0  0  0  0  0
   -0.1923    1.1526    0.7617 C   0  0  0  0  0  0  0  0  0  0  0  0
   -1.1582    1.8438    0.4410 O   0  0  0  0  0  0  0  0  0  0  0  0
    0.7203    1.5683    1.6472 N   0  0  0  0  0  0  0  0  0  0  0  0
    1.5210    0.9664    1.8100 H   0  0  0  0  0  0  0  0  0  0  0  0
    0.6747    2.8558    2.3368 C   0  0  0  0  0  0  0  0  0  0  0  0
   -0.3018    2.9877    2.8079 H   0  0  0  0  0  0  0  0  0  0  0  0
    1.4516    2.8997    3.1011 H   0  0  0  0  0  0  0  0  0  0  0  0
    0.8279    3.6639    1.6193 H   0  0  0  0  0  0  0  0  0  0  0  0
  5  6  2  0  0  0  0
  5  7  1  0  0  0  0
  2  3  1  0  0  0  0
  2  4  1  0  0  0  0
  2  5  1  0  0  0  0
  1  2  1  0  0  0  0
 18 19  2  0  0  0  0
 18 20  1  0  0  0  0
 16 17  1  0  0  0  0
 14 15  2  0  0  0  0
 14 16  1  0  0  0  0
 11 12  1  0  0  0  0
 11 13  1  0  0  0  0
 11 14  1  0  0  0  0
  9 10  1  0  0  0  0
  9 11  1  0  0  0  0
  9 18  1  0  0  0  0
  7  8  1  0  0  0  0
  7  9  1  0  0  0  0
 22 23  1  0  0  0  0
 22 24  1  0  0  0  0
 22 25  1  0  0  0  0
 20 21  1  0  0  0  0
 20 22  1  0  0  0  0
M  END
$$$$
default_name
  -OEChem-02102213163D

 25 24  0     1  0  0  0  0  0999 V2000
   -2.7826   -3.8464    0.7821 H   0  0  0  0  0  0  0  0  0  0  0  0
   -2.8156   -2.8034    0.4711 C   0  0  0  0  0  0  0  0  0  0  0  0
   -3.4336   -2.2354    1.1641 H   0  0  0  0  0  0  0  0  0  0  0  0
   -3.2256   -2.7344   -0.5349 H   0  0  0  0  0  0  0  0  0  0  0  0
   -1.4126   -2.2444    0.4801 C   0  0  0  0  0  0  0  0  0  0  0  0
   -0.4686   -2.9534    0.8001 O   0  0  0  0  0  0  0  0  0  0  0  0
   -1.2736   -0.9704    0.1241 N   0  0  0  0  0  0  0  0  0  0  0  0
   -2.0996   -0.4354   -0.1019 H   0  0  0  0  0  0  0  0  0  0  0  0
   -0.0016   -0.2394    0.1271 C   0  0  1  0  0  0  0  0  0  0  0  0
    0.7164   -0.7963    0.7332 H   0  0  0  0  0  0  0  0  0  0  0  0
    0.5351   -0.1414   -1.3146 C   0  0  0  0  0  0  0  0  0  0  0  0
    1.6024   -0.3660   -1.3206 H   0  0  0  0  0  0  0  0  0  0  0  0
    0.0341   -0.8780   -1.9438 H   0  0  0  0  0  0  0  0  0  0  0  0
    0.3669    1.2436   -1.9320 C   0  0  0  0  0  0  0  0  0  0  0  0
    1.1815    2.1551   -1.8699 O   0  0  0  0  0  0  0  0  0  0  0  0
   -0.7955    1.4339   -2.5836 O   0  0  0  0  0  0  0  0  0  0  0  0
   -0.7582    2.3252   -2.9320 H   0  0  0  0  0  0  0  0  0  0  0  0
   -0.1923    1.1526    0.7617 C   0  0  0  0  0  0  0  0  0  0  0  0
   -1.1582    1.8438    0.4410 O   0  0  0  0  0  0  0  0  0  0  0  0
    0.7203    1.5683    1.6472 N   0  0  0  0  0  0  0  0  0  0  0  0
    1.5210    0.9664    1.8100 H   0  0  0  0  0  0  0  0  0  0  0  0
    0.6747    2.8558    2.3368 C   0  0  0  0  0  0  0  0  0  0  0  0
   -0.3018    2.9877    2.8079 H   0  0  0  0  0  0  0  0  0  0  0  0
    1.4516    2.8997    3.1011 H   0  0  0  0  0  0  0  0  0  0  0  0
    0.8279    3.6639    1.6193 H   0  0  0  0  0  0  0  0  0  0  0  0
  5  6  2  0  0  0  0
  5  7  1  0  0  0  0
  2  3  1  0  0  0  0
  2  4  1  0  0  0  0
  2  5  1  0  0  0  0
  1  2  1  0  0  0  0
 18 19  2  0  0  0  0
 18 20  1  0  0  0  0
 16 17  1  0  0  0  0
 14 15  2  0  0  0  0
 14 16  1  0  0  0  0
 11 12  1  0  0  0  0
 11 13  1  0  0  0  0
 11 14  1  0  0  0  0
  9 10  1  0  0  0  0
  9 11  1  0  0  0  0
  9 18  1  0  0  0  0
  7  8  1  0  0  0  0
  7  9  1  0  0  0  0
 22 23  1  0  0  0  0
 22 24  1  0  0  0  0
 22 25  1  0  0  0  0
 20 21  1  0  0  0  0
 20 22  1  0  0  0  0
M  END
$$$$
default_name
  -OEChem-02102213163D

 25 24  0     1  0  0  0  0  0999 V2000
   -2.7826   -3.8464    0.7821 H   0  0  0  0  0  0  0  0  0  0  0  0
   -2.8156   -2.8034    0.4711 C   0  0  0  0  0  0  0  0  0  0  0  0
   -3.4336   -2.2354    1.1641 H   0  0  0  0  0  0  0  0  0  0  0  0
   -3.2256   -2.7344   -0.5349 H   0  0  0  0  0  0  0  0  0  0  0  0
   -1.4126   -2.2444    0.4801 C   0  0  0  0  0  0  0  0  0  0  0  0
   -0.4686   -2.9534    0.8001 O   0  0  0  0  0  0  0  0  0  0  0  0
   -1.2736   -0.9704    0.1241 N   0  0  0  0  0  0  0  0  0  0  0  0
   -2.0996   -0.4354   -0.1019 H   0  0  0  0  0  0  0  0  0  0  0  0
   -0.0016   -0.2394    0.1271 C   0  0  1  0  0  0  0  0  0  0  0  0
    0.7164   -0.7963    0.7332 H   0  0  0  0  0  0  0  0  0  0  0  0
    0.5351   -0.1414   -1.3146 C   0  0  0  0  0  0  0  0  0  0  0  0
    1.6024   -0.3660   -1.3206 H   0  0  0  0  0  0  0  0  0  0  0  0
    0.0341   -0.8780   -1.9438 H   0  0  0  0  0  0  0  0  0  0  0  0
    0.3669    1.2436   -1.9320 C   0  0  0  0  0  0  0  0  0  0  0  0
    1.2611    2.0625   -2.0992 O   0  0  0  0  0  0  0  0  0  0  0  0
   -0.8912    1.5480   -2.3015 O   0  0  0  0  0  0  0  0  0  0  0  0
   -0.8472    2.4244   -2.6853 H   0  0  0  0  0  0  0  0  0  0  0  0
   -0.1923    1.1526    0.7617 C   0  0  0  0  0  0  0  0  0  0  0  0
   -1.1582    1.8438    0.4410 O   0  0  0  0  0  0  0  0  0  0  0  0
    0.7203    1.5683    1.6472 N   0  0  0  0  0  0  0  0  0  0  0  0
    1.5210    0.9664    1.8100 H   0  0  0  0  0  0  0  0  0  0  0  0
    0.6747    2.8558    2.3368 C   0  0  0  0  0  0  0  0  0  0  0  0
   -0.3018    2.9877    2.8079 H   0  0  0  0  0  0  0  0  0  0  0  0
    1.4516    2.8997    3.1011 H   0  0  0  0  0  0  0  0  0  0  0  0
    0.8279    3.6639    1.6193 H   0  0  0  0  0  0  0  0  0  0  0  0
  5  6  2  0  0  0  0
  5  7  1  0  0  0  0
  2  3  1  0  0  0  0
  2  4  1  0  0  0  0
  2  5  1  0  0  0  0
  1  2  1  0  0  0  0
 18 19  2  0  0  0  0
 18 20  1  0  0  0  0
 16 17  1  0  0  0  0
 14 15  2  0  0  0  0
 14 16  1  0  0  0  0
 11 12  1  0  0  0  0
 11 13  1  0  0  0  0
 11 14  1  0  0  0  0
  9 10  1  0  0  0  0
  9 11  1  0  0  0  0
  9 18  1  0  0  0  0
  7  8  1  0  0  0  0
  7  9  1  0  0  0  0
 22 23  1  0  0  0  0
 22 24  1  0  0  0  0
 22 25  1  0  0  0  0
 20 21  1  0  0  0  0
 20 22  1  0  0  0  0
M  END
$$$$
default_name
  -OEChem-02102213163D

 25 24  0     1  0  0  0  0  0999 V2000
   -2.7826   -3.8464    0.7821 H   0  0  0  0  0  0  0  0  0  0  0  0
   -2.8156   -2.8034    0.4711 C   0  0  0  0  0  0  0  0  0  0  0  0
   -3.4336   -2.2354    1.1641 H   0  0  0  0  0  0  0  0  0  0  0  0
   -3.2256   -2.7344   -0.5349 H   0  0  0  0  0  0  0  0  0  0  0  0
   -1.4126   -2.2444    0.4801 C   0  0  0  0  0  0  0  0  0  0  0  0
   -0.4686   -2.9534    0.8001 O   0  0  0  0  0  0  0  0  0  0  0  0
   -1.2736   -0.9704    0.1241 N   0  0  0  0  0  0  0  0  0  0  0  0
   -2.0996   -0.4354   -0.1019 H   0  0  0  0  0  0  0  0  0  0  0  0
   -0.0016   -0.2394    0.1271 C   0  0  1  0  0  0  0  0  0  0  0  0
    0.7164   -0.7963    0.7332 H   0  0  0  0  0  0  0  0  0  0  0  0
    0.5351   -0.1414   -1.3146 C   0  0  0  0  0  0  0  0  0  0  0  0
    1.6024   -0.3660   -1.3206 H   0  0  0  0  0  0  0  0  0  0  0  0
    0.0341   -0.8780   -1.9438 H   0  0  0  0  0  0  0  0  0  0  0  0
    0.3669    1.2436   -1.9320 C   0  0  0  0  0  0  0  0  0  0  0  0
    1.2745    1.9583   -2.3368 O   0  0  0  0  0  0  0  0  0  0  0  0
   -0.9054    1.6763   -2.0098 O   0  0  0  0  0  0  0  0  0  0  0  0
   -0.8648    2.5365   -2.4289 H   0  0  0  0  0  0  0  0  0  0  0  0
   -0.1923    1.1526    0.7617 C   0  0  0  0  0  0  0  0  0  0  0  0
   -1.1582    1.8438    0.4410 O   0  0  0  0  0  0  0  0  0  0  0  0
    0.7203    1.5683    1.6472 N   0  0  0  0  0  0  0  0  0  0  0  0
    1.5210    0.9664    1.8100 H   0  0  0  0  0  0  0  0  0  0  0  0
    0.6747    2.8558    2.3368 C   0  0  0  0  0  0  0  0  0  0  0  0
   -0.3018    2.9877    2.8079 H   0  0  0  0  0  0  0  0  0  0  0  0
    1.4516    2.8997    3.1011 H   0  0  0  0  0  0  0  0  0  0  0  0
    0.8279    3.6639    1.6193 H   0  0  0  0  0  0  0  0  0  0  0  0
  5  6  2  0  0  0  0
  5  7  1  0  0  0  0
  2  3  1  0  0  0  0
  2  4  1  0  0  0  0
  2  5  1  0  0  0  0
  1  2  1  0  0  0  0
 18 19  2  0  0  0  0
 18 20  1  0  0  0  0
 16 17  1  0  0  0  0
 14 15  2  0  0  0  0
 14 16  1  0  0  0  0
 11 12  1  0  0  0  0
 11 13  1  0  0  0  0
 11 14  1  0  0  0  0
  9 10  1  0  0  0  0
  9 11  1  0  0  0  0
  9 18  1  0  0  0  0
  7  8  1  0  0  0  0
  7  9  1  0  0  0  0
 22 23  1  0  0  0  0
 22 24  1  0  0  0  0
 22 25  1  0  0  0  0
 20 21  1  0  0  0  0
 20 22  1  0  0  0  0
M  END
$$$$
default_name
  -OEChem-02102213163D

 25 24  0     1  0  0  0  0  0999 V2000
   -2.7826   -3.8464    0.7821 H   0  0  0  0  0  0  0  0  0  0  0  0
   -2.8156   -2.8034    0.4711 C   0  0  0  0  0  0  0  0  0  0  0  0
   -3.4336   -2.2354    1.1641 H   0  0  0  0  0  0  0  0  0  0  0  0
   -3.2256   -2.7344   -0.5349 H   0  0  0  0  0  0  0  0  0  0  0  0
   -1.4126   -2.2444    0.4801 C   0  0  0  0  0  0  0  0  0  0  0  0
   -0.4686   -2.9534    0.8001 O   0  0  0  0  0  0  0  0  0  0  0  0
   -1.2736   -0.9704    0.1241 N   0  0  0  0  0  0  0  0  0  0  0  0
   -2.0996   -0.4354   -0.1019 H   0  0  0  0  0  0  0  0  0  0  0  0
   -0.0016   -0.2394    0.1271 C   0  0  1  0  0  0  0  0  0  0  0  0
    0.7164   -0.7963    0.7332 H   0  0  0  0  0  0  0  0  0  0  0  0
    0.5351   -0.1414   -1.3146 C   0  0  0  0  0  0  0  0  0  0  0  0
    1.6024   -0.3660   -1.3206 H   0  0  0  0  0  0  0  0  0  0  0  0
    0.0341   -0.8780   -1.9438 H   0  0  0  0  0  0  0  0  0  0  0  0
    0.3669    1.2436   -1.9320 C   0  0  0  0  0  0  0  0  0  0  0  0
    1.2206    1.8493   -2.5665 O   0  0  0  0  0  0  0  0  0  0  0  0
   -0.8371    1.8101   -1.7284 O   0  0  0  0  0  0  0  0  0  0  0  0
   -0.8099    2.6540   -2.1803 H   0  0  0  0  0  0  0  0  0  0  0  0
   -0.1923    1.1526    0.7617 C   0  0  0  0  0  0  0  0  0  0  0  0
   -1.1582    1.8438    0.4410 O   0  0  0  0  0  0  0  0  0  0  0  0
    0.7203    1.5683    1.6472 N   0  0  0  0  0  0  0  0  0  0  0  0
    1.5210    0.9664    1.8100 H   0  0  0  0  0  0  0  0  0  0  0  0
    0.6747    2.8558    2.3368 C   0  0  0  0  0  0  0  0  0  0  0  0
   -0.3018    2.9877    2.8079 H   0  0  0  0  0  0  0  0  0  0  0  0
    1.4516    2.8997    3.1011 H   0  0  0  0  0  0  0  0  0  0  0  0
    0.8279    3.6639    1.6193 H   0  0  0  0  0  0  0  0  0  0  0  0
  5  6  2  0  0  0  0
  5  7  1  0  0  0  0
  2  3  1  0  0  0  0
  2  4  1  0  0  0  0
  2  5  1  0  0  0  0
  1  2  1  0  0  0  0
 18 19  2  0  0  0  0
 18 20  1  0  0  0  0
 16 17  1  0  0  0  0
 14 15  2  0  0  0  0
 14 16  1  0  0  0  0
 11 12  1  0  0  0  0
 11 13  1  0  0  0  0
 11 14  1  0  0  0  0
  9 10  1  0  0  0  0
  9 11  1  0  0  0  0
  9 18  1  0  0  0  0
  7  8  1  0  0  0  0
  7  9  1  0  0  0  0
 22 23  1  0  0  0  0
 22 24  1  0  0  0  0
 22 25  1  0  0  0  0
 20 21  1  0  0  0  0
 20 22  1  0  0  0  0
M  END
$$$$
default_name
  -OEChem-02102213163D

 25 24  0     1  0  0  0  0  0999 V2000
   -2.7826   -3.8464    0.7821 H   0  0  0  0  0  0  0  0  0  0  0  0
   -2.8156   -2.8034    0.4711 C   0  0  0  0  0  0  0  0  0  0  0  0
   -3.4336   -2.2354    1.1641 H   0  0  0  0  0  0  0  0  0  0  0  0
   -3.2256   -2.7344   -0.5349 H   0  0  0  0  0  0  0  0  0  0  0  0
   -1.4126   -2.2444    0.4801 C   0  0  0  0  0  0  0  0  0  0  0  0
   -0.4686   -2.9534    0.8001 O   0  0  0  0  0  0  0  0  0  0  0  0
   -1.2736   -0.9704    0.1241 N   0  0  0  0  0  0  0  0  0  0  0  0
   -2.0996   -0.4354   -0.1019 H   0  0  0  0  0  0  0  0  0  0  0  0
   -0.0016   -0.2394    0.1271 C   0  0  1  0  0  0  0  0  0  0  0  0
    0.7164   -0.7963    0.7332 H   0  0  0  0  0  0  0  0  0  0  0  0
    0.5351   -0.1414   -1.3146 C   0  0  0  0  0  0  0  0  0  0  0  0
    1.6024   -0.3660   -1.3206 H   0  0  0  0  0  0  0  0  0  0  0  0
    0.0341   -0.8780   -1.9438 H   0  0  0  0  0  0  0  0  0  0  0  0
    0.3669    1.2436   -1.9320 C   0  0  0  0  0  0  0  0  0  0  0  0
    1.1032    1.7432   -2.7725 O   0  0  0  0  0  0  0  0  0  0  0  0
   -0.6910    1.9402   -1.4763 O   0  0  0  0  0  0  0  0  0  0  0  0
   -0.6861    2.7689   -1.9564 H   0  0  0  0  0  0  0  0  0  0  0  0
   -0.1923    1.1526    0.7617 C   0  0  0  0  0  0  0  0  0  0  0  0
   -1.1582    1.8438    0.4410 O   0  0  0  0  0  0  0  0  0  0  0  0
    0.7203    1.5683    1.6472 N   0  0  0  0  0  0  0  0  0  0  0  0
    1.5210    0.9664    1.8100 H   0  0  0  0  0  0  0  0  0  0  0  0
    0.6747    2.8558    2.3368 C   0  0  0  0  0  0  0  0  0  0  0  0
   -0.3018    2.9877    2.8079 H   0  0  0  0  0  0  0  0  0  0  0  0
    1.4516    2.8997    3.1011 H   0  0  0  0  0  0  0  0  0  0  0  0
    0.8279    3.6639    1.6193 H   0  0  0  0  0  0  0  0  0  0  0  0
  5  6  2  0  0  0  0
  5  7  1  0  0  0  0
  2  3  1  0  0  0  0
  2  4  1  0  0  0  0
  2  5  1  0  0  0  0
  1  2  1  0  0  0  0
 18 19  2  0  0  0  0
 18 20  1  0  0  0  0
 16 17  1  0  0  0  0
 14 15  2  0  0  0  0
 14 16  1  0  0  0  0
 11 12  1  0  0  0  0
 11 13  1  0  0  0  0
 11 14  1  0  0  0  0
  9 10  1  0  0  0  0
  9 11  1  0  0  0  0
  9 18  1  0  0  0  0
  7  8  1  0  0  0  0
  7  9  1  0  0  0  0
 22 23  1  0  0  0  0
 22 24  1  0  0  0  0
 22 25  1  0  0  0  0
 20 21  1  0  0  0  0
 20 22  1  0  0  0  0
M  END
$$$$
default_name
  -OEChem-02102213163D

 25 24  0     1  0  0  0  0  0999 V2000
   -2.7826   -3.8464    0.7821 H   0  0  0  0  0  0  0  0  0  0  0  0
   -2.8156   -2.8034    0.4711 C   0  0  0  0  0  0  0  0  0  0  0  0
   -3.4336   -2.2354    1.1641 H   0  0  0  0  0  0  0  0  0  0  0  0
   -3.2256   -2.7344   -0.5349 H   0  0  0  0  0  0  0  0  0  0  0  0
   -1.4126   -2.2444    0.4801 C   0  0  0  0  0  0  0  0  0  0  0  0
   -0.4686   -2.9534    0.8001 O   0  0  0  0  0  0  0  0  0  0  0  0
   -1.2736   -0.9704    0.1241 N   0  0  0  0  0  0  0  0  0  0  0  0
   -2.0996   -0.4354   -0.1019 H   0  0  0  0  0  0  0  0  0  0  0  0
   -0.0016   -0.2394    0.1271 C   0  0  1  0  0  0  0  0  0  0  0  0
    0.7164   -0.7963    0.7332 H   0  0  0  0  0  0  0  0  0  0  0  0
    0.5351   -0.1414   -1.3146 C   0  0  0  0  0  0  0  0  0  0  0  0
    1.6024   -0.3660   -1.3206 H   0  0  0  0  0  0  0  0  0  0  0  0
    0.0341   -0.8780   -1.9438 H   0  0  0  0  0  0  0  0  0  0  0  0
    0.3669    1.2436   -1.9320 C   0  0  0  0  0  0  0  0  0  0  0  0
    0.9303    1.6472   -2.9410 O   0  0  0  0  0  0  0  0  0  0  0  0
   -0.4771    2.0577   -1.2710 O   0  0  0  0  0  0  0  0  0  0  0  0
   -0.5018    2.8732   -1.7725 H   0  0  0  0  0  0  0  0  0  0  0  0
   -0.1923    1.1526    0.7617 C   0  0  0  0  0  0  0  0  0  0  0  0
   -1.1582    1.8438    0.4410 O   0  0  0  0  0  0  0  0  0  0  0  0
    0.7203    1.5683    1.6472 N   0  0  0  0  0  0  0  0  0  0  0  0
    1.5210    0.9664    1.8100 H   0  0  0  0  0  0  0  0  0  0  0  0
    0.6747    2.8558    2.3368 C   0  0  0  0  0  0  0  0  0  0  0  0
   -0.3018    2.9877    2.8079 H   0  0  0  0  0  0  0  0  0  0  0  0
    1.4516    2.8997    3.1011 H   0  0  0  0  0  0  0  0  0  0  0  0
    0.8279    3.6639    1.6193 H   0  0  0  0  0  0  0  0  0  0  0  0
  5  6  2  0  0  0  0
  5  7  1  0  0  0  0
  2  3  1  0  0  0  0
  2  4  1  0  0  0  0
  2  5  1  0  0  0  0
  1  2  1  0  0  0  0
 18 19  2  0  0  0  0
 18 20  1  0  0  0  0
 16 17  1  0  0  0  0
 14 15  2  0  0  0  0
 14 16  1  0  0  0  0
 11 12  1  0  0  0  0
 11 13  1  0  0  0  0
 11 14  1  0  0  0  0
  9 10  1  0  0  0  0
  9 11  1  0  0  0  0
  9 18  1  0  0  0  0
  7  8  1  0  0  0  0
  7  9  1  0  0  0  0
 22 23  1  0  0  0  0
 22 24  1  0  0  0  0
 22 25  1  0  0  0  0
 20 21  1  0  0  0  0
 20 22  1  0  0  0  0
M  END
$$$$
default_name
  -OEChem-02102213163D

 25 24  0     1  0  0  0  0  0999 V2000
   -2.7826   -3.8464    0.7821 H   0  0  0  0  0  0  0  0  0  0  0  0
   -2.8156   -2.8034    0.4711 C   0  0  0  0  0  0  0  0  0  0  0  0
   -3.4336   -2.2354    1.1641 H   0  0  0  0  0  0  0  0  0  0  0  0
   -3.2256   -2.7344   -0.5349 H   0  0  0  0  0  0  0  0  0  0  0  0
   -1.4126   -2.2444    0.4801 C   0  0  0  0  0  0  0  0  0  0  0  0
   -0.4686   -2.9534    0.8001 O   0  0  0  0  0  0  0  0  0  0  0  0
   -1.2736   -0.9704    0.1241 N   0  0  0  0  0  0  0  0  0  0  0  0
   -2.0996   -0.4354   -0.1019 H   0  0  0  0  0  0  0  0  0  0  0  0
   -0.0016   -0.2394    0.1271 C   0  0  1  0  0  0  0  0  0  0  0  0
    0.7164   -0.7963    0.7332 H   0  0  0  0  0  0  0  0  0  0  0  0
    0.5351   -0.1414   -1.3146 C   0  0  0  0  0  0  0  0  0  0  0  0
    1.5158   -0.6154   -1.3698 H   0  0  0  0  0  0  0  0  0  0  0  0
   -0.1331   -0.6742   -1.9922 H   0  0  0  0  0  0  0  0  0  0  0  0
    0.7050    1.2941   -1.8028 C   0  0  0  0  0  0  0  0  0  0  0  0
    1.1139    1.6274   -2.9072 O   0  0  0  0  0  0  0  0  0  0  0  0
    0.3710    2.2391   -0.9042 O   0  0  0  0  0  0  0  0  0  0  0  0
    0.5057    3.0790   -1.3443 H   0  0  0  0  0  0  0  0  0  0  0  0
   -0.1923    1.1526    0.7617 C   0  0  0  0  0  0  0  0  0  0  0  0
   -1.1582    1.8438    0.4410 O   0  0  0  0  0  0  0  0  0  0  0  0
    0.7203    1.5683    1.6472 N   0  0  0  0  0  0  0  0  0  0  0  0
    1.5210    0.9664    1.8100 H   0  0  0  0  0  0  0  0  0  0  0  0
    0.6747    2.8558    2.3368 C   0  0  0  0  0  0  0  0  0  0  0  0
   -0.3018    2.9877    2.8079 H   0  0  0  0  0  0  0  0  0  0  0  0
    1.4516    2.8997    3.1011 H   0  0  0  0  0  0  0  0  0  0  0  0
    0.8279    3.6639    1.6193 H   0  0  0  0  0  0  0  0  0  0  0  0
  5  6  2  0  0  0  0
  5  7  1  0  0  0  0
  2  3  1  0  0  0  0
  2  4  1  0  0  0  0
  2  5  1  0  0  0  0
  1  2  1  0  0  0  0
 18 19  2  0  0  0  0
 18 20  1  0  0  0  0
 16 17  1  0  0  0  0
 14 15  2  0  0  0  0
 14 16  1  0  0  0  0
 11 12  1  0  0  0  0
 11 13  1  0  0  0  0
 11 14  1  0  0  0  0
  9 10  1  0  0  0  0
  9 11  1  0  0  0  0
  9 18  1  0  0  0  0
  7  8  1  0  0  0  0
  7  9  1  0  0  0  0
 22 23  1  0  0  0  0
 22 24  1  0  0  0  0
 22 25  1  0  0  0  0
 20 21  1  0  0  0  0
 20 22  1  0  0  0  0
M  END
$$$$
default_name
  -OEChem-02102213163D

 25 24  0     1  0  0  0  0  0999 V2000
   -2.7826   -3.8464    0.7821 H   0  0  0  0  0  0  0  0  0  0  0  0
   -2.8156   -2.8034    0.4711 C   0  0  0  0  0  0  0  0  0  0  0  0
   -3.4336   -2.2354    1.1641 H   0  0  0  0  0  0  0  0  0  0  0  0
   -3.2256   -2.7344   -0.5349 H   0  0  0  0  0  0  0  0  0  0  0  0
   -1.4126   -2.2444    0.4801 C   0  0  0  0  0  0  0  0  0  0  0  0
   -0.4686   -2.9534    0.8001 O   0  0  0  0  0  0  0  0  0  0  0  0
   -1.2736   -0.9704    0.1241 N   0  0  0  0  0  0  0  0  0  0  0  0
   -2.0996   -0.4354   -0.1019 H   0  0  0  0  0  0  0  0  0  0  0  0
   -0.0016   -0.2394    0.1271 C   0  0  1  0  0  0  0  0  0  0  0  0
    0.7164   -0.7963    0.7332 H   0  0  0  0  0  0  0  0  0  0  0  0
    0.5351   -0.1414   -1.3146 C   0  0  0  0  0  0  0  0  0  0  0  0
    1.5158   -0.6154   -1.3698 H   0  0  0  0  0  0  0  0  0  0  0  0
   -0.1331   -0.6742   -1.9922 H   0  0  0  0  0  0  0  0  0  0  0  0
    0.7050    1.2941   -1.8028 C   0  0  0  0  0  0  0  0  0  0  0  0
    0.8613    1.6369   -2.9673 O   0  0  0  0  0  0  0  0  0  0  0  0
    0.6816    2.2268   -0.8324 O   0  0  0  0  0  0  0  0  0  0  0  0
    0.7776    3.0699   -1.2765 H   0  0  0  0  0  0  0  0  0  0  0  0
   -0.1923    1.1526    0.7617 C   0  0  0  0  0  0  0  0  0  0  0  0
   -1.1582    1.8438    0.4410 O   0  0  0  0  0  0  0  0  0  0  0  0
    0.7203    1.5683    1.6472 N   0  0  0  0  0  0  0  0  0  0  0  0
    1.5210    0.9664    1.8100 H   0  0  0  0  0  0  0  0  0  0  0  0
    0.6747    2.8558    2.3368 C   0  0  0  0  0  0  0  0  0  0  0  0
   -0.3018    2.9877    2.8079 H   0  0  0  0  0  0  0  0  0  0  0  0
    1.4516    2.8997    3.1011 H   0  0  0  0  0  0  0  0  0  0  0  0
    0.8279    3.6639    1.6193 H   0  0  0  0  0  0  0  0  0  0  0  0
  5  6  2  0  0  0  0
  5  7  1  0  0  0  0
  2  3  1  0  0  0  0
  2  4  1  0  0  0  0
  2  5  1  0  0  0  0
  1  2  1  0  0  0  0
 18 19  2  0  0  0  0
 18 20  1  0  0  0  0
 16 17  1  0  0  0  0
 14 15  2  0  0  0  0
 14 16  1  0  0  0  0
 11 12  1  0  0  0  0
 11 13  1  0  0  0  0
 11 14  1  0  0  0  0
  9 10  1  0  0  0  0
  9 11  1  0  0  0  0
  9 18  1  0  0  0  0
  7  8  1  0  0  0  0
  7  9  1  0  0  0  0
 22 23  1  0  0  0  0
 22 24  1  0  0  0  0
 22 25  1  0  0  0  0
 20 21  1  0  0  0  0
 20 22  1  0  0  0  0
M  END
$$$$
default_name
  -OEChem-02102213163D

 25 24  0     1  0  0  0  0  0999 V2000
   -2.7826   -3.8464    0.7821 H   0  0  0  0  0  0  0  0  0  0  0  0
   -2.8156   -2.8034    0.4711 C   0  0  0  0  0  0  0  0  0  0  0  0
   -3.4336   -2.2354    1.1641 H   0  0  0  0  0  0  0  0  0  0  0  0
   -3.2256   -2.7344   -0.5349 H   0  0  0  0  0  0  0  0  0  0  0  0
   -1.4126   -2.2444    0.4801 C   0  0  0  0  0  0  0  0  0  0  0  0
   -0.4686   -2.9534    0.8001 O   0  0  0  0  0  0  0  0  0  0  0  0
   -1.2736   -0.9704    0.1241 N   0  0  0  0  0  0  0  0  0  0  0  0
   -2.0996   -0.4354   -0.1019 H   0  0  0  0  0  0  0  0  0  0  0  0
   -0.0016   -0.2394    0.1271 C   0  0  1  0  0  0  0  0  0  0  0  0
    0.7164   -0.7963    0.7332 H   0  0  0  0  0  0  0  0  0  0  0  0
    0.5351   -0.1414   -1.3146 C   0  0  0  0  0  0  0  0  0  0  0  0
    1.5158   -0.6154   -1.3698 H   0  0  0  0  0  0  0  0  0  0  0  0
   -0.1331   -0.6742   -1.9922 H   0  0  0  0  0  0  0  0  0  0  0  0
    0.7050    1.2941   -1.8028 C   0  0  0  0  0  0  0  0  0  0  0  0
    0.6035    1.6686   -2.9636 O   0  0  0  0  0  0  0  0  0  0  0  0
    0.9980    2.1871   -0.8391 O   0  0  0  0  0  0  0  0  0  0  0  0
    1.0561    3.0366   -1.2774 H   0  0  0  0  0  0  0  0  0  0  0  0
   -0.1923    1.1526    0.7617 C   0  0  0  0  0  0  0  0  0  0  0  0
   -1.1582    1.8438    0.4410 O   0  0  0  0  0  0  0  0  0  0  0  0
    0.7203    1.5683    1.6472 N   0  0  0  0  0  0  0  0  0  0  0  0
    1.5210    0.9664    1.8100 H   0  0  0  0  0  0  0  0  0  0  0  0
    0.6747    2.8558    2.3368 C   0  0  0  0  0  0  0  0  0  0  0  0
   -0.3018    2.9877    2.8079 H   0  0  0  0  0  0  0  0  0  0  0  0
    1.4516    2.8997    3.1011 H   0  0  0  0  0  0  0  0  0  0  0  0
    0.8279    3.6639    1.6193 H   0  0  0  0  0  0  0  0  0  0  0  0
  5  6  2  0  0  0  0
  5  7  1  0  0  0  0
  2  3  1  0  0  0  0
  2  4  1  0  0  0  0
  2  5  1  0  0  0  0
  1  2  1  0  0  0  0
 18 19  2  0  0  0  0
 18 20  1  0  0  0  0
 16 17  1  0  0  0  0
 14 15  2  0  0  0  0
 14 16  1  0  0  0  0
 11 12  1  0  0  0  0
 11 13  1  0  0  0  0
 11 14  1  0  0  0  0
  9 10  1  0  0  0  0
  9 11  1  0  0  0  0
  9 18  1  0  0  0  0
  7  8  1  0  0  0  0
  7  9  1  0  0  0  0
 22 23  1  0  0  0  0
 22 24  1  0  0  0  0
 22 25  1  0  0  0  0
 20 21  1  0  0  0  0
 20 22  1  0  0  0  0
M  END
$$$$
default_name
  -OEChem-02102213163D

 25 24  0     1  0  0  0  0  0999 V2000
   -2.7826   -3.8464    0.7821 H   0  0  0  0  0  0  0  0  0  0  0  0
   -2.8156   -2.8034    0.4711 C   0  0  0  0  0  0  0  0  0  0  0  0
   -3.4336   -2.2354    1.1641 H   0  0  0  0  0  0  0  0  0  0  0  0
   -3.2256   -2.7344   -0.5349 H   0  0  0  0  0  0  0  0  0  0  0  0
   -1.4126   -2.2444    0.4801 C   0  0  0  0  0  0  0  0  0  0  0  0
   -0.4686   -2.9534    0.8001 O   0  0  0  0  0  0  0  0  0  0  0  0
   -1.2736   -0.9704    0.1241 N   0  0  0  0  0  0  0  0  0  0  0  0
   -2.0996   -0.4354   -0.1019 H   0  0  0  0  0  0  0  0  0  0  0  0
   -0.0016   -0.2394    0.1271 C   0  0  1  0  0  0  0  0  0  0  0  0
    0.7164   -0.7963    0.7332 H   0  0  0  0  0  0  0  0  0  0  0  0
    0.5351   -0.1414   -1.3146 C   0  0  0  0  0  0  0  0  0  0  0  0
    1.5158   -0.6154   -1.3698 H   0  0  0  0  0  0  0  0  0  0  0  0
   -0.1331   -0.6742   -1.9922 H   0  0  0  0  0  0  0  0  0  0  0  0
    0.7050    1.2941   -1.8028 C   0  0  0  0  0  0  0  0  0  0  0  0
    0.3580    1.7206   -2.8963 O   0  0  0  0  0  0  0  0  0  0  0  0
    1.2988    2.1227   -0.9237 O   0  0  0  0  0  0  0  0  0  0  0  0
    1.3221    2.9814   -1.3470 H   0  0  0  0  0  0  0  0  0  0  0  0
   -0.1923    1.1526    0.7617 C   0  0  0  0  0  0  0  0  0  0  0  0
   -1.1582    1.8438    0.4410 O   0  0  0  0  0  0  0  0  0  0  0  0
    0.7203    1.5683    1.6472 N   0  0  0  0  0  0  0  0  0  0  0  0
    1.5210    0.9664    1.8100 H   0  0  0  0  0  0  0  0  0  0  0  0
    0.6747    2.8558    2.3368 C   0  0  0  0  0  0  0  0  0  0  0  0
   -0.3018    2.9877    2.8079 H   0  0  0  0  0  0  0  0  0  0  0  0
    1.4516    2.8997    3.1011 H   0  0  0  0  0  0  0  0  0  0  0  0
    0.8279    3.6639    1.6193 H   0  0  0  0  0  0  0  0  0  0  0  0
  5  6  2  0  0  0  0
  5  7  1  0  0  0  0
  2  3  1  0  0  0  0
  2  4  1  0  0  0  0
  2  5  1  0  0  0  0
  1  2  1  0  0  0  0
 18 19  2  0  0  0  0
 18 20  1  0  0  0  0
 16 17  1  0  0  0  0
 14 15  2  0  0  0  0
 14 16  1  0  0  0  0
 11 12  1  0  0  0  0
 11 13  1  0  0  0  0
 11 14  1  0  0  0  0
  9 10  1  0  0  0  0
  9 11  1  0  0  0  0
  9 18  1  0  0  0  0
  7  8  1  0  0  0  0
  7  9  1  0  0  0  0
 22 23  1  0  0  0  0
 22 24  1  0  0  0  0
 22 25  1  0  0  0  0
 20 21  1  0  0  0  0
 20 22  1  0  0  0  0
M  END
$$$$
default_name
  -OEChem-02102213163D

 25 24  0     1  0  0  0  0  0999 V2000
   -2.7826   -3.8464    0.7821 H   0  0  0  0  0  0  0  0  0  0  0  0
   -2.8156   -2.8034    0.4711 C   0  0  0  0  0  0  0  0  0  0  0  0
   -3.4336   -2.2354    1.1641 H   0  0  0  0  0  0  0  0  0  0  0  0
   -3.2256   -2.7344   -0.5349 H   0  0  0  0  0  0  0  0  0  0  0  0
   -1.4126   -2.2444    0.4801 C   0  0  0  0  0  0  0  0  0  0  0  0
   -0.4686   -2.9534    0.8001 O   0  0  0  0  0  0  0  0  0  0  0  0
   -1.2736   -0.9704    0.1241 N   0  0  0  0  0  0  0  0  0  0  0  0
   -2.0996   -0.4354   -0.1019 H   0  0  0  0  0  0  0  0  0  0  0  0
   -0.0016   -0.2394    0.1271 C   0  0  1  0  0  0  0  0  0  0  0  0
    0.7164   -0.7963    0.7332 H   0  0  0  0  0  0  0  0  0  0  0  0
    0.5351   -0.1414   -1.3146 C   0  0  0  0  0  0  0  0  0  0  0  0
    1.5158   -0.6154   -1.3698 H   0  0  0  0  0  0  0  0  0  0  0  0
   -0.1331   -0.6742   -1.9922 H   0  0  0  0  0  0  0  0  0  0  0  0
    0.7050    1.2941   -1.8028 C   0  0  0  0  0  0  0  0  0  0  0  0
    0.1415    1.7891   -2.7701 O   0  0  0  0  0  0  0  0  0  0  0  0
    1.5634    2.0380   -1.0806 O   0  0  0  0  0  0  0  0  0  0  0  0
    1.5575    2.9081   -1.4807 H   0  0  0  0  0  0  0  0  0  0  0  0
   -0.1923    1.1526    0.7617 C   0  0  0  0  0  0  0  0  0  0  0  0
   -1.1582    1.8438    0.4410 O   0  0  0  0  0  0  0  0  0  0  0  0
    0.7203    1.5683    1.6472 N   0  0  0  0  0  0  0  0  0  0  0  0
    1.5210    0.9664    1.8100 H   0  0  0  0  0  0  0  0  0  0  0  0
    0.6747    2.8558    2.3368 C   0  0  0  0  0  0  0  0  0  0  0  0
   -0.3018    2.9877    2.8079 H   0  0  0  0  0  0  0  0  0  0  0  0
    1.4516    2.8997    3.1011 H   0  0  0  0  0  0  0  0  0  0  0  0
    0.8279    3.6639    1.6193 H   0  0  0  0  0  0  0  0  0  0  0  0
  5  6  2  0  0  0  0
  5  7  1  0  0  0  0
  2  3  1  0  0  0  0
  2  4  1  0  0  0  0
  2  5  1  0  0  0  0
  1  2  1  0  0  0  0
 18 19  2  0  0  0  0
 18 20  1  0  0  0  0
 16 17  1  0  0  0  0
 14 15  2  0  0  0  0
 14 16  1  0  0  0  0
 11 12  1  0  0  0  0
 11 13  1  0  0  0  0
 11 14  1  0  0  0  0
  9 10  1  0  0  0  0
  9 11  1  0  0  0  0
  9 18  1  0  0  0  0
  7  8  1  0  0  0  0
  7  9  1  0  0  0  0
 22 23  1  0  0  0  0
 22 24  1  0  0  0  0
 22 25  1  0  0  0  0
 20 21  1  0  0  0  0
 20 22  1  0  0  0  0
M  END
$$$$
default_name
  -OEChem-02102213163D

 25 24  0     1  0  0  0  0  0999 V2000
   -2.7826   -3.8464    0.7821 H   0  0  0  0  0  0  0  0  0  0  0  0
   -2.8156   -2.8034    0.4711 C   0  0  0  0  0  0  0  0  0  0  0  0
   -3.4336   -2.2354    1.1641 H   0  0  0  0  0  0  0  0  0  0  0  0
   -3.2256   -2.7344   -0.5349 H   0  0  0  0  0  0  0  0  0  0  0  0
   -1.4126   -2.2444    0.4801 C   0  0  0  0  0  0  0  0  0  0  0  0
   -0.4686   -2.9534    0.8001 O   0  0  0  0  0  0  0  0  0  0  0  0
   -1.2736   -0.9704    0.1241 N   0  0  0  0  0  0  0  0  0  0  0  0
   -2.0996   -0.4354   -0.1019 H   0  0  0  0  0  0  0  0  0  0  0  0
   -0.0016   -0.2394    0.1271 C   0  0  1  0  0  0  0  0  0  0  0  0
    0.7164   -0.7963    0.7332 H   0  0  0  0  0  0  0  0  0  0  0  0
    0.5351   -0.1414   -1.3146 C   0  0  0  0  0  0  0  0  0  0  0  0
    1.5158   -0.6154   -1.3698 H   0  0  0  0  0  0  0  0  0  0  0  0
   -0.1331   -0.6742   -1.9922 H   0  0  0  0  0  0  0  0  0  0  0  0
    0.7050    1.2941   -1.8028 C   0  0  0  0  0  0  0  0  0  0  0  0
   -0.0311    1.8696   -2.5934 O   0  0  0  0  0  0  0  0  0  0  0  0
    1.7737    1.9389   -1.2989 O   0  0  0  0  0  0  0  0  0  0  0  0
    1.7462    2.8217   -1.6692 H   0  0  0  0  0  0  0  0  0  0  0  0
   -0.1923    1.1526    0.7617 C   0  0  0  0  0  0  0  0  0  0  0  0
   -1.1582    1.8438    0.4410 O   0  0  0  0  0  0  0  0  0  0  0  0
    0.7203    1.5683    1.6472 N   0  0  0  0  0  0  0  0  0  0  0  0
    1.5210    0.9664    1.8100 H   0  0  0  0  0  0  0  0  0  0  0  0
    0.6747    2.8558    2.3368 C   0  0  0  0  0  0  0  0  0  0  0  0
   -0.3018    2.9877    2.8079 H   0  0  0  0  0  0  0  0  0  0  0  0
    1.4516    2.8997    3.1011 H   0  0  0  0  0  0  0  0  0  0  0  0
    0.8279    3.6639    1.6193 H   0  0  0  0  0  0  0  0  0  0  0  0
  5  6  2  0  0  0  0
  5  7  1  0  0  0  0
  2  3  1  0  0  0  0
  2  4  1  0  0  0  0
  2  5  1  0  0  0  0
  1  2  1  0  0  0  0
 18 19  2  0  0  0  0
 18 20  1  0  0  0  0
 16 17  1  0  0  0  0
 14 15  2  0  0  0  0
 14 16  1  0  0  0  0
 11 12  1  0  0  0  0
 11 13  1  0  0  0  0
 11 14  1  0  0  0  0
  9 10  1  0  0  0  0
  9 11  1  0  0  0  0
  9 18  1  0  0  0  0
  7  8  1  0  0  0  0
  7  9  1  0  0  0  0
 22 23  1  0  0  0  0
 22 24  1  0  0  0  0
 22 25  1  0  0  0  0
 20 21  1  0  0  0  0
 20 22  1  0  0  0  0
M  END
$$$$
default_name
  -OEChem-02102213163D

 25 24  0     1  0  0  0  0  0999 V2000
   -2.7826   -3.8464    0.7821 H   0  0  0  0  0  0  0  0  0  0  0  0
   -2.8156   -2.8034    0.4711 C   0  0  0  0  0  0  0  0  0  0  0  0
   -3.4336   -2.2354    1.1641 H   0  0  0  0  0  0  0  0  0  0  0  0
   -3.2256   -2.7344   -0.5349 H   0  0  0  0  0  0  0  0  0  0  0  0
   -1.4126   -2.2444    0.4801 C   0  0  0  0  0  0  0  0  0  0  0  0
   -0.4686   -2.9534    0.8001 O   0  0  0  0  0  0  0  0  0  0  0  0
   -1.2736   -0.9704    0.1241 N   0  0  0  0  0  0  0  0  0  0  0  0
   -2.0996   -0.4354   -0.1019 H   0  0  0  0  0  0  0  0  0  0  0  0
   -0.0016   -0.2394    0.1271 C   0  0  1  0  0  0  0  0  0  0  0  0
    0.7164   -0.7963    0.7332 H   0  0  0  0  0  0  0  0  0  0  0  0
    0.5351   -0.1414   -1.3146 C   0  0  0  0  0  0  0  0  0  0  0  0
    1.5158   -0.6154   -1.3698 H   0  0  0  0  0  0  0  0  0  0  0  0
   -0.1331   -0.6742   -1.9922 H   0  0  0  0  0  0  0  0  0  0  0  0
    0.7050    1.2941   -1.8028 C   0  0  0  0  0  0  0  0  0  0  0  0
   -0.1482    1.9566   -2.3784 O   0  0  0  0  0  0  0  0  0  0  0  0
    1.9156    1.8320   -1.5639 O   0  0  0  0  0  0  0  0  0  0  0  0
    1.8755    2.7280   -1.8998 H   0  0  0  0  0  0  0  0  0  0  0  0
   -0.1923    1.1526    0.7617 C   0  0  0  0  0  0  0  0  0  0  0  0
   -1.1582    1.8438    0.4410 O   0  0  0  0  0  0  0  0  0  0  0  0
    0.7203    1.5683    1.6472 N   0  0  0  0  0  0  0  0  0  0  0  0
    1.5210    0.9664    1.8100 H   0  0  0  0  0  0  0  0  0  0  0  0
    0.6747    2.8558    2.3368 C   0  0  0  0  0  0  0  0  0  0  0  0
   -0.3018    2.9877    2.8079 H   0  0  0  0  0  0  0  0  0  0  0  0
    1.4516    2.8997    3.1011 H   0  0  0  0  0  0  0  0  0  0  0  0
    0.8279    3.6639    1.6193 H   0  0  0  0  0  0  0  0  0  0  0  0
  5  6  2  0  0  0  0
  5  7  1  0  0  0  0
  2  3  1  0  0  0  0
  2  4  1  0  0  0  0
  2  5  1  0  0  0  0
  1  2  1  0  0  0  0
 18 19  2  0  0  0  0
 18 20  1  0  0  0  0
 16 17  1  0  0  0  0
 14 15  2  0  0  0  0
 14 16  1  0  0  0  0
 11 12  1  0  0  0  0
 11 13  1  0  0  0  0
 11 14  1  0  0  0  0
  9 10  1  0  0  0  0
  9 11  1  0  0  0  0
  9 18  1  0  0  0  0
  7  8  1  0  0  0  0
  7  9  1  0  0  0  0
 22 23  1  0  0  0  0
 22 24  1  0  0  0  0
 22 25  1  0  0  0  0
 20 21  1  0  0  0  0
 20 22  1  0  0  0  0
M  END
$$$$
default_name
  -OEChem-02102213163D

 25 24  0     1  0  0  0  0  0999 V2000
   -2.7826   -3.8464    0.7821 H   0  0  0  0  0  0  0  0  0  0  0  0
   -2.8156   -2.8034    0.4711 C   0  0  0  0  0  0  0  0  0  0  0  0
   -3.4336   -2.2354    1.1641 H   0  0  0  0  0  0  0  0  0  0  0  0
   -3.2256   -2.7344   -0.5349 H   0  0  0  0  0  0  0  0  0  0  0  0
   -1.4126   -2.2444    0.4801 C   0  0  0  0  0  0  0  0  0  0  0  0
   -0.4686   -2.9534    0.8001 O   0  0  0  0  0  0  0  0  0  0  0  0
   -1.2736   -0.9704    0.1241 N   0  0  0  0  0  0  0  0  0  0  0  0
   -2.0996   -0.4354   -0.1019 H   0  0  0  0  0  0  0  0  0  0  0  0
   -0.0016   -0.2394    0.1271 C   0  0  1  0  0  0  0  0  0  0  0  0
    0.7164   -0.7963    0.7332 H   0  0  0  0  0  0  0  0  0  0  0  0
    0.5351   -0.1414   -1.3146 C   0  0  0  0  0  0  0  0  0  0  0  0
    1.5158   -0.6154   -1.3698 H   0  0  0  0  0  0  0  0  0  0  0  0
   -0.1331   -0.6742   -1.9922 H   0  0  0  0  0  0  0  0  0  0  0  0
    0.7050    1.2941   -1.8028 C   0  0  0  0  0  0  0  0  0  0  0  0
   -0.2018    2.0441   -2.1397 O   0  0  0  0  0  0  0  0  0  0  0  0
    1.9791    1.7246   -1.8575 O   0  0  0  0  0  0  0  0  0  0  0  0
    1.9364    2.6334   -2.1567 H   0  0  0  0  0  0  0  0  0  0  0  0
   -0.1923    1.1526    0.7617 C   0  0  0  0  0  0  0  0  0  0  0  0
   -1.1582    1.8438    0.4410 O   0  0  0  0  0  0  0  0  0  0  0  0
    0.7203    1.5683    1.6472 N   0  0  0  0  0  0  0  0  0  0  0  0
    1.5210    0.9664    1.8100 H   0  0  0  0  0  0  0  0  0  0  0  0
    0.6747    2.8558    2.3368 C   0  0  0  0  0  0  0  0  0  0  0  0
   -0.3018    2.9877    2.8079 H   0  0  0  0  0  0  0  0  0  0  0  0
    1.4516    2.8997    3.1011 H   0  0  0  0  0  0  0  0  0  0  0  0
    0.8279    3.6639    1.6193 H   0  0  0  0  0  0  0  0  0  0  0  0
  5  6  2  0  0  0  0
  5  7  1  0  0  0  0
  2  3  1  0  0  0  0
  2  4  1  0  0  0  0
  2  5  1  0  0  0  0
  1  2  1  0  0  0  0
 18 19  2  0  0  0  0
 18 20  1  0  0  0  0
 16 17  1  0  0  0  0
 14 15  2  0  0  0  0
 14 16  1  0  0  0  0
 11 12  1  0  0  0  0
 11 13  1  0  0  0  0
 11 14  1  0  0  0  0
  9 10  1  0  0  0  0
  9 11  1  0  0  0  0
  9 18  1  0  0  0  0
  7  8  1  0  0  0  0
  7  9  1  0  0  0  0
 22 23  1  0  0  0  0
 22 24  1  0  0  0  0
 22 25  1  0  0  0  0
 20 21  1  0  0  0  0
 20 22  1  0  0  0  0
M  END
$$$$
default_name
  -OEChem-02102213163D

 25 24  0     1  0  0  0  0  0999 V2000
   -2.7826   -3.8464    0.7821 H   0  0  0  0  0  0  0  0  0  0  0  0
   -2.8156   -2.8034    0.4711 C   0  0  0  0  0  0  0  0  0  0  0  0
   -3.4336   -2.2354    1.1641 H   0  0  0  0  0  0  0  0  0  0  0  0
   -3.2256   -2.7344   -0.5349 H   0  0  0  0  0  0  0  0  0  0  0  0
   -1.4126   -2.2444    0.4801 C   0  0  0  0  0  0  0  0  0  0  0  0
   -0.4686   -2.9534    0.8001 O   0  0  0  0  0  0  0  0  0  0  0  0
   -1.2736   -0.9704    0.1241 N   0  0  0  0  0  0  0  0  0  0  0  0
   -2.0996   -0.4354   -0.1019 H   0  0  0  0  0  0  0  0  0  0  0  0
   -0.0016   -0.2394    0.1271 C   0  0  1  0  0  0  0  0  0  0  0  0
    0.7164   -0.7963    0.7332 H   0  0  0  0  0  0  0  0  0  0  0  0
    0.5351   -0.1414   -1.3146 C   0  0  0  0  0  0  0  0  0  0  0  0
    1.5158   -0.6154   -1.3698 H   0  0  0  0  0  0  0  0  0  0  0  0
   -0.1331   -0.6742   -1.9922 H   0  0  0  0  0  0  0  0  0  0  0  0
    0.7050    1.2941   -1.8028 C   0  0  0  0  0  0  0  0  0  0  0  0
   -0.1881    2.1262   -1.8935 O   0  0  0  0  0  0  0  0  0  0  0  0
    1.9602    1.6241   -2.1597 O   0  0  0  0  0  0  0  0  0  0  0  0
    1.9249    2.5445   -2.4223 H   0  0  0  0  0  0  0  0  0  0  0  0
   -0.1923    1.1526    0.7617 C   0  0  0  0  0  0  0  0  0  0  0  0
   -1.1582    1.8438    0.4410 O   0  0  0  0  0  0  0  0  0  0  0  0
    0.7203    1.5683    1.6472 N   0  0  0  0  0  0  0  0  0  0  0  0
    1.5210    0.9664    1.8100 H   0  0  0  0  0  0  0  0  0  0  0  0
    0.6747    2.8558    2.3368 C   0  0  0  0  0  0  0  0  0  0  0  0
   -0.3018    2.9877    2.8079 H   0  0  0  0  0  0  0  0  0  0  0  0
    1.4516    2.8997    3.1011 H   0  0  0  0  0  0  0  0  0  0  0  0
    0.8279    3.6639    1.6193 H   0  0  0  0  0  0  0  0  0  0  0  0
  5  6  2  0  0  0  0
  5  7  1  0  0  0  0
  2  3  1  0  0  0  0
  2  4  1  0  0  0  0
  2  5  1  0  0  0  0
  1  2  1  0  0  0  0
 18 19  2  0  0  0  0
 18 20  1  0  0  0  0
 16 17  1  0  0  0  0
 14 15  2  0  0  0  0
 14 16  1  0  0  0  0
 11 12  1  0  0  0  0
 11 13  1  0  0  0  0
 11 14  1  0  0  0  0
  9 10  1  0  0  0  0
  9 11  1  0  0  0  0
  9 18  1  0  0  0  0
  7  8  1  0  0  0  0
  7  9  1  0  0  0  0
 22 23  1  0  0  0  0
 22 24  1  0  0  0  0
 22 25  1  0  0  0  0
 20 21  1  0  0  0  0
 20 22  1  0  0  0  0
M  END
$$$$
default_name
  -OEChem-02102213163D

 25 24  0     1  0  0  0  0  0999 V2000
   -2.7826   -3.8464    0.7821 H   0  0  0  0  0  0  0  0  0  0  0  0
   -2.8156   -2.8034    0.4711 C   0  0  0  0  0  0  0  0  0  0  0  0
   -3.4336   -2.2354    1.1641 H   0  0  0  0  0  0  0  0  0  0  0  0
   -3.2256   -2.7344   -0.5349 H   0  0  0  0  0  0  0  0  0  0  0  0
   -1.4126   -2.2444    0.4801 C   0  0  0  0  0  0  0  0  0  0  0  0
   -0.4686   -2.9534    0.8001 O   0  0  0  0  0  0  0  0  0  0  0  0
   -1.2736   -0.9704    0.1241 N   0  0  0  0  0  0  0  0  0  0  0  0
   -2.0996   -0.4354   -0.1019 H   0  0  0  0  0  0  0  0  0  0  0  0
   -0.0016   -0.2394    0.1271 C   0  0  1  0  0  0  0  0  0  0  0  0
    0.7164   -0.7963    0.7332 H   0  0  0  0  0  0  0  0  0  0  0  0
    0.5351   -0.1414   -1.3146 C   0  0  0  0  0  0  0  0  0  0  0  0
    1.5158   -0.6154   -1.3698 H   0  0  0  0  0  0  0  0  0  0  0  0
   -0.1331   -0.6742   -1.9922 H   0  0  0  0  0  0  0  0  0  0  0  0
    0.7050    1.2941   -1.8028 C   0  0  0  0  0  0  0  0  0  0  0  0
   -0.1082    2.1973   -1.6568 O   0  0  0  0  0  0  0  0  0  0  0  0
    1.8600    1.5373   -2.4498 O   0  0  0  0  0  0  0  0  0  0  0  0
    1.8418    2.4671   -2.6788 H   0  0  0  0  0  0  0  0  0  0  0  0
   -0.1923    1.1526    0.7617 C   0  0  0  0  0  0  0  0  0  0  0  0
   -1.1582    1.8438    0.4410 O   0  0  0  0  0  0  0  0  0  0  0  0
    0.7203    1.5683    1.6472 N   0  0  0  0  0  0  0  0  0  0  0  0
    1.5210    0.9664    1.8100 H   0  0  0  0  0  0  0  0  0  0  0  0
    0.6747    2.8558    2.3368 C   0  0  0  0  0  0  0  0  0  0  0  0
   -0.3018    2.9877    2.8079 H   0  0  0  0  0  0  0  0  0  0  0  0
    1.4516    2.8997    3.1011 H   0  0  0  0  0  0  0  0  0  0  0  0
    0.8279    3.6639    1.6193 H   0  0  0  0  0  0  0  0  0  0  0  0
  5  6  2  0  0  0  0
  5  7  1  0  0  0  0
  2  3  1  0  0  0  0
  2  4  1  0  0  0  0
  2  5  1  0  0  0  0
  1  2  1  0  0  0  0
 18 19  2  0  0  0  0
 18 20  1  0  0  0  0
 16 17  1  0  0  0  0
 14 15  2  0  0  0  0
 14 16  1  0  0  0  0
 11 12  1  0  0  0  0
 11 13  1  0  0  0  0
 11 14  1  0  0  0  0
  9 10  1  0  0  0  0
  9 11  1  0  0  0  0
  9 18  1  0  0  0  0
  7  8  1  0  0  0  0
  7  9  1  0  0  0  0
 22 23  1  0  0  0  0
 22 24  1  0  0  0  0
 22 25  1  0  0  0  0
 20 21  1  0  0  0  0
 20 22  1  0  0  0  0
M  END
$$$$
default_name
  -OEChem-02102213163D

 25 24  0     1  0  0  0  0  0999 V2000
   -2.7826   -3.8464    0.7821 H   0  0  0  0  0  0  0  0  0  0  0  0
   -2.8156   -2.8034    0.4711 C   0  0  0  0  0  0  0  0  0  0  0  0
   -3.4336   -2.2354    1.1641 H   0  0  0  0  0  0  0  0  0  0  0  0
   -3.2256   -2.7344   -0.5349 H   0  0  0  0  0  0  0  0  0  0  0  0
   -1.4126   -2.2444    0.4801 C   0  0  0  0  0  0  0  0  0  0  0  0
   -0.4686   -2.9534    0.8001 O   0  0  0  0  0  0  0  0  0  0  0  0
   -1.2736   -0.9704    0.1241 N   0  0  0  0  0  0  0  0  0  0  0  0
   -2.0996   -0.4354   -0.1019 H   0  0  0  0  0  0  0  0  0  0  0  0
   -0.0016   -0.2394    0.1271 C   0  0  1  0  0  0  0  0  0  0  0  0
    0.7164   -0.7963    0.7332 H   0  0  0  0  0  0  0  0  0  0  0  0
    0.5351   -0.1414   -1.3146 C   0  0  0  0  0  0  0  0  0  0  0  0
    1.5158   -0.6154   -1.3698 H   0  0  0  0  0  0  0  0  0  0  0  0
   -0.1331   -0.6742   -1.9922 H   0  0  0  0  0  0  0  0  0  0  0  0
    0.7050    1.2941   -1.8028 C   0  0  0  0  0  0  0  0  0  0  0  0
    0.0326    2.2524   -1.4455 O   0  0  0  0  0  0  0  0  0  0  0  0
    1.6853    1.4702   -2.7082 O   0  0  0  0  0  0  0  0  0  0  0  0
    1.6926    2.4067   -2.9084 H   0  0  0  0  0  0  0  0  0  0  0  0
   -0.1923    1.1526    0.7617 C   0  0  0  0  0  0  0  0  0  0  0  0
   -1.1582    1.8438    0.4410 O   0  0  0  0  0  0  0  0  0  0  0  0
    0.7203    1.5683    1.6472 N   0  0  0  0  0  0  0  0  0  0  0  0
    1.5210    0.9664    1.8100 H   0  0  0  0  0  0  0  0  0  0  0  0
    0.6747    2.8558    2.3368 C   0  0  0  0  0  0  0  0  0  0  0  0
   -0.3018    2.9877    2.8079 H   0  0  0  0  0  0  0  0  0  0  0  0
    1.4516    2.8997    3.1011 H   0  0  0  0  0  0  0  0  0  0  0  0
    0.8279    3.6639    1.6193 H   0  0  0  0  0  0  0  0  0  0  0  0
  5  6  2  0  0  0  0
  5  7  1  0  0  0  0
  2  3  1  0  0  0  0
  2  4  1  0  0  0  0
  2  5  1  0  0  0  0
  1  2  1  0  0  0  0
 18 19  2  0  0  0  0
 18 20  1  0  0  0  0
 16 17  1  0  0  0  0
 14 15  2  0  0  0  0
 14 16  1  0  0  0  0
 11 12  1  0  0  0  0
 11 13  1  0  0  0  0
 11 14  1  0  0  0  0
  9 10  1  0  0  0  0
  9 11  1  0  0  0  0
  9 18  1  0  0  0  0
  7  8  1  0  0  0  0
  7  9  1  0  0  0  0
 22 23  1  0  0  0  0
 22 24  1  0  0  0  0
 22 25  1  0  0  0  0
 20 21  1  0  0  0  0
 20 22  1  0  0  0  0
M  END
$$$$
default_name
  -OEChem-02102213163D

 25 24  0     1  0  0  0  0  0999 V2000
   -2.7826   -3.8464    0.7821 H   0  0  0  0  0  0  0  0  0  0  0  0
   -2.8156   -2.8034    0.4711 C   0  0  0  0  0  0  0  0  0  0  0  0
   -3.4336   -2.2354    1.1641 H   0  0  0  0  0  0  0  0  0  0  0  0
   -3.2256   -2.7344   -0.5349 H   0  0  0  0  0  0  0  0  0  0  0  0
   -1.4126   -2.2444    0.4801 C   0  0  0  0  0  0  0  0  0  0  0  0
   -0.4686   -2.9534    0.8001 O   0  0  0  0  0  0  0  0  0  0  0  0
   -1.2736   -0.9704    0.1241 N   0  0  0  0  0  0  0  0  0  0  0  0
   -2.0996   -0.4354   -0.1019 H   0  0  0  0  0  0  0  0  0  0  0  0
   -0.0016   -0.2394    0.1271 C   0  0  1  0  0  0  0  0  0  0  0  0
    0.7164   -0.7963    0.7332 H   0  0  0  0  0  0  0  0  0  0  0  0
    0.5351   -0.1414   -1.3146 C   0  0  0  0  0  0  0  0  0  0  0  0
    1.5158   -0.6154   -1.3698 H   0  0  0  0  0  0  0  0  0  0  0  0
   -0.1331   -0.6742   -1.9922 H   0  0  0  0  0  0  0  0  0  0  0  0
    0.7050    1.2941   -1.8028 C   0  0  0  0  0  0  0  0  0  0  0  0
    0.2245    2.2880   -1.2740 O   0  0  0  0  0  0  0  0  0  0  0  0
    1.4482    1.4272   -2.9172 O   0  0  0  0  0  0  0  0  0  0  0  0
    1.4875    2.3673   -3.0956 H   0  0  0  0  0  0  0  0  0  0  0  0
   -0.1923    1.1526    0.7617 C   0  0  0  0  0  0  0  0  0  0  0  0
   -1.1582    1.8438    0.4410 O   0  0  0  0  0  0  0  0  0  0  0  0
    0.7203    1.5683    1.6472 N   0  0  0  0  0  0  0  0  0  0  0  0
    1.5210    0.9664    1.8100 H   0  0  0  0  0  0  0  0  0  0  0  0
    0.6747    2.8558    2.3368 C   0  0  0  0  0  0  0  0  0  0  0  0
   -0.3018    2.9877    2.8079 H   0  0  0  0  0  0  0  0  0  0  0  0
    1.4516    2.8997    3.1011 H   0  0  0  0  0  0  0  0  0  0  0  0
    0.8279    3.6639    1.6193 H   0  0  0  0  0  0  0  0  0  0  0  0
  5  6  2  0  0  0  0
  5  7  1  0  0  0  0
  2  3  1  0  0  0  0
  2  4  1  0  0  0  0
  2  5  1  0  0  0  0
  1  2  1  0  0  0  0
 18 19  2  0  0  0  0
 18 20  1  0  0  0  0
 16 17  1  0  0  0  0
 14 15  2  0  0  0  0
 14 16  1  0  0  0  0
 11 12  1  0  0  0  0
 11 13  1  0  0  0  0
 11 14  1  0  0  0  0
  9 10  1  0  0  0  0
  9 11  1  0  0  0  0
  9 18  1  0  0  0  0
  7  8  1  0  0  0  0
  7  9  1  0  0  0  0
 22 23  1  0  0  0  0
 22 24  1  0  0  0  0
 22 25  1  0  0  0  0
 20 21  1  0  0  0  0
 20 22  1  0  0  0  0
M  END
$$$$
default_name
  -OEChem-02102213163D

 25 24  0     1  0  0  0  0  0999 V2000
   -2.7826   -3.8464    0.7821 H   0  0  0  0  0  0  0  0  0  0  0  0
   -2.8156   -2.8034    0.4711 C   0  0  0  0  0  0  0  0  0  0  0  0
   -3.4336   -2.2354    1.1641 H   0  0  0  0  0  0  0  0  0  0  0  0
   -3.2256   -2.7344   -0.5349 H   0  0  0  0  0  0  0  0  0  0  0  0
   -1.4126   -2.2444    0.4801 C   0  0  0  0  0  0  0  0  0  0  0  0
   -0.4686   -2.9534    0.8001 O   0  0  0  0  0  0  0  0  0  0  0  0
   -1.2736   -0.9704    0.1241 N   0  0  0  0  0  0  0  0  0  0  0  0
   -2.0996   -0.4354   -0.1019 H   0  0  0  0  0  0  0  0  0  0  0  0
   -0.0016   -0.2394    0.1271 C   0  0  1  0  0  0  0  0  0  0  0  0
    0.7164   -0.7963    0.7332 H   0  0  0  0  0  0  0  0  0  0  0  0
    0.5351   -0.1414   -1.3146 C   0  0  0  0  0  0  0  0  0  0  0  0
    1.5158   -0.6154   -1.3698 H   0  0  0  0  0  0  0  0  0  0  0  0
   -0.1331   -0.6742   -1.9922 H   0  0  0  0  0  0  0  0  0  0  0  0
    0.7050    1.2941   -1.8028 C   0  0  0  0  0  0  0  0  0  0  0  0
    0.4547    2.3015   -1.1542 O   0  0  0  0  0  0  0  0  0  0  0  0
    1.1646    1.4113   -3.0625 O   0  0  0  0  0  0  0  0  0  0  0  0
    1.2406    2.3516   -3.2277 H   0  0  0  0  0  0  0  0  0  0  0  0
   -0.1923    1.1526    0.7617 C   0  0  0  0  0  0  0  0  0  0  0  0
   -1.1582    1.8438    0.4410 O   0  0  0  0  0  0  0  0  0  0  0  0
    0.7203    1.5683    1.6472 N   0  0  0  0  0  0  0  0  0  0  0  0
    1.5210    0.9664    1.8100 H   0  0  0  0  0  0  0  0  0  0  0  0
    0.6747    2.8558    2.3368 C   0  0  0  0  0  0  0  0  0  0  0  0
   -0.3018    2.9877    2.8079 H   0  0  0  0  0  0  0  0  0  0  0  0
    1.4516    2.8997    3.1011 H   0  0  0  0  0  0  0  0  0  0  0  0
    0.8279    3.6639    1.6193 H   0  0  0  0  0  0  0  0  0  0  0  0
  5  6  2  0  0  0  0
  5  7  1  0  0  0  0
  2  3  1  0  0  0  0
  2  4  1  0  0  0  0
  2  5  1  0  0  0  0
  1  2  1  0  0  0  0
 18 19  2  0  0  0  0
 18 20  1  0  0  0  0
 16 17  1  0  0  0  0
 14 15  2  0  0  0  0
 14 16  1  0  0  0  0
 11 12  1  0  0  0  0
 11 13  1  0  0  0  0
 11 14  1  0  0  0  0
  9 10  1  0  0  0  0
  9 11  1  0  0  0  0
  9 18  1  0  0  0  0
  7  8  1  0  0  0  0
  7  9  1  0  0  0  0
 22 23  1  0  0  0  0
 22 24  1  0  0  0  0
 22 25  1  0  0  0  0
 20 21  1  0  0  0  0
 20 22  1  0  0  0  0
M  END
$$$$
default_name
  -OEChem-02102213163D

 25 24  0     1  0  0  0  0  0999 V2000
   -2.7826   -3.8464    0.7821 H   0  0  0  0  0  0  0  0  0  0  0  0
   -2.8156   -2.8034    0.4711 C   0  0  0  0  0  0  0  0  0  0  0  0
   -3.4336   -2.2354    1.1641 H   0  0  0  0  0  0  0  0  0  0  0  0
   -3.2256   -2.7344   -0.5349 H   0  0  0  0  0  0  0  0  0  0  0  0
   -1.4126   -2.2444    0.4801 C   0  0  0  0  0  0  0  0  0  0  0  0
   -0.4686   -2.9534    0.8001 O   0  0  0  0  0  0  0  0  0  0  0  0
   -1.2736   -0.9704    0.1241 N   0  0  0  0  0  0  0  0  0  0  0  0
   -2.0996   -0.4354   -0.1019 H   0  0  0  0  0  0  0  0  0  0  0  0
   -0.0016   -0.2394    0.1271 C   0  0  1  0  0  0  0  0  0  0  0  0
    0.7164   -0.7963    0.7332 H   0  0  0  0  0  0  0  0  0  0  0  0
    0.5351   -0.1414   -1.3146 C   0  0  0  0  0  0  0  0  0  0  0  0
    1.5158   -0.6154   -1.3698 H   0  0  0  0  0  0  0  0  0  0  0  0
   -0.1331   -0.6742   -1.9922 H   0  0  0  0  0  0  0  0  0  0  0  0
    0.7050    1.2941   -1.8028 C   0  0  0  0  0  0  0  0  0  0  0  0
    0.7072    2.2921   -1.0941 O   0  0  0  0  0  0  0  0  0  0  0  0
    0.8540    1.4237   -3.1343 O   0  0  0  0  0  0  0  0  0  0  0  0
    0.9687    2.3607   -3.2955 H   0  0  0  0  0  0  0  0  0  0  0  0
   -0.1923    1.1526    0.7617 C   0  0  0  0  0  0  0  0  0  0  0  0
   -1.1582    1.8438    0.4410 O   0  0  0  0  0  0  0  0  0  0  0  0
    0.7203    1.5683    1.6472 N   0  0  0  0  0  0  0  0  0  0  0  0
    1.5210    0.9664    1.8100 H   0  0  0  0  0  0  0  0  0  0  0  0
    0.6747    2.8558    2.3368 C   0  0  0  0  0  0  0  0  0  0  0  0
   -0.3018    2.9877    2.8079 H   0  0  0  0  0  0  0  0  0  0  0  0
    1.4516    2.8997    3.1011 H   0  0  0  0  0  0  0  0  0  0  0  0
    0.8279    3.6639    1.6193 H   0  0  0  0  0  0  0  0  0  0  0  0
  5  6  2  0  0  0  0
  5  7  1  0  0  0  0
  2  3  1  0  0  0  0
  2  4  1  0  0  0  0
  2  5  1  0  0  0  0
  1  2  1  0  0  0  0
 18 19  2  0  0  0  0
 18 20  1  0  0  0  0
 16 17  1  0  0  0  0
 14 15  2  0  0  0  0
 14 16  1  0  0  0  0
 11 12  1  0  0  0  0
 11 13  1  0  0  0  0
 11 14  1  0  0  0  0
  9 10  1  0  0  0  0
  9 11  1  0  0  0  0
  9 18  1  0  0  0  0
  7  8  1  0  0  0  0
  7  9  1  0  0  0  0
 22 23  1  0  0  0  0
 22 24  1  0  0  0  0
 22 25  1  0  0  0  0
 20 21  1  0  0  0  0
 20 22  1  0  0  0  0
M  END
$$$$
default_name
  -OEChem-02102213163D

 25 24  0     1  0  0  0  0  0999 V2000
   -2.7826   -3.8464    0.7821 H   0  0  0  0  0  0  0  0  0  0  0  0
   -2.8156   -2.8034    0.4711 C   0  0  0  0  0  0  0  0  0  0  0  0
   -3.4336   -2.2354    1.1641 H   0  0  0  0  0  0  0  0  0  0  0  0
   -3.2256   -2.7344   -0.5349 H   0  0  0  0  0  0  0  0  0  0  0  0
   -1.4126   -2.2444    0.4801 C   0  0  0  0  0  0  0  0  0  0  0  0
   -0.4686   -2.9534    0.8001 O   0  0  0  0  0  0  0  0  0  0  0  0
   -1.2736   -0.9704    0.1241 N   0  0  0  0  0  0  0  0  0  0  0  0
   -2.0996   -0.4354   -0.1019 H   0  0  0  0  0  0  0  0  0  0  0  0
   -0.0016   -0.2394    0.1271 C   0  0  1  0  0  0  0  0  0  0  0  0
    0.7164   -0.7963    0.7332 H   0  0  0  0  0  0  0  0  0  0  0  0
    0.5351   -0.1414   -1.3146 C   0  0  0  0  0  0  0  0  0  0  0  0
    1.5158   -0.6154   -1.3698 H   0  0  0  0  0  0  0  0  0  0  0  0
   -0.1331   -0.6742   -1.9922 H   0  0  0  0  0  0  0  0  0  0  0  0
    0.7050    1.2941   -1.8028 C   0  0  0  0  0  0  0  0  0  0  0  0
    0.9651    2.2603   -1.0978 O   0  0  0  0  0  0  0  0  0  0  0  0
    0.5376    1.4634   -3.1276 O   0  0  0  0  0  0  0  0  0  0  0  0
    0.6902    2.3940   -3.2946 H   0  0  0  0  0  0  0  0  0  0  0  0
   -0.1923    1.1526    0.7617 C   0  0  0  0  0  0  0  0  0  0  0  0
   -1.1582    1.8438    0.4410 O   0  0  0  0  0  0  0  0  0  0  0  0
    0.7203    1.5683    1.6472 N   0  0  0  0  0  0  0  0  0  0  0  0
    1.5210    0.9664    1.8100 H   0  0  0  0  0  0  0  0  0  0  0  0
    0.6747    2.8558    2.3368 C   0  0  0  0  0  0  0  0  0  0  0  0
   -0.3018    2.9877    2.8079 H   0  0  0  0  0  0  0  0  0  0  0  0
    1.4516    2.8997    3.1011 H   0  0  0  0  0  0  0  0  0  0  0  0
    0.8279    3.6639    1.6193 H   0  0  0  0  0  0  0  0  0  0  0  0
  5  6  2  0  0  0  0
  5  7  1  0  0  0  0
  2  3  1  0  0  0  0
  2  4  1  0  0  0  0
  2  5  1  0  0  0  0
  1  2  1  0  0  0  0
 18 19  2  0  0  0  0
 18 20  1  0  0  0  0
 16 17  1  0  0  0  0
 14 15  2  0  0  0  0
 14 16  1  0  0  0  0
 11 12  1  0  0  0  0
 11 13  1  0  0  0  0
 11 14  1  0  0  0  0
  9 10  1  0  0  0  0
  9 11  1  0  0  0  0
  9 18  1  0  0  0  0
  7  8  1  0  0  0  0
  7  9  1  0  0  0  0
 22 23  1  0  0  0  0
 22 24  1  0  0  0  0
 22 25  1  0  0  0  0
 20 21  1  0  0  0  0
 20 22  1  0  0  0  0
M  END
$$$$
default_name
  -OEChem-02102213163D

 25 24  0     1  0  0  0  0  0999 V2000
   -2.7826   -3.8464    0.7821 H   0  0  0  0  0  0  0  0  0  0  0  0
   -2.8156   -2.8034    0.4711 C   0  0  0  0  0  0  0  0  0  0  0  0
   -3.4336   -2.2354    1.1641 H   0  0  0  0  0  0  0  0  0  0  0  0
   -3.2256   -2.7344   -0.5349 H   0  0  0  0  0  0  0  0  0  0  0  0
   -1.4126   -2.2444    0.4801 C   0  0  0  0  0  0  0  0  0  0  0  0
   -0.4686   -2.9534    0.8001 O   0  0  0  0  0  0  0  0  0  0  0  0
   -1.2736   -0.9704    0.1241 N   0  0  0  0  0  0  0  0  0  0  0  0
   -2.0996   -0.4354   -0.1019 H   0  0  0  0  0  0  0  0  0  0  0  0
   -0.0016   -0.2394    0.1271 C   0  0  1  0  0  0  0  0  0  0  0  0
    0.7164   -0.7963    0.7332 H   0  0  0  0  0  0  0  0  0  0  0  0
    0.5351   -0.1414   -1.3146 C   0  0  0  0  0  0  0  0  0  0  0  0
    1.5158   -0.6154   -1.3698 H   0  0  0  0  0  0  0  0  0  0  0  0
   -0.1331   -0.6742   -1.9922 H   0  0  0  0  0  0  0  0  0  0  0  0
    0.7050    1.2941   -1.8028 C   0  0  0  0  0  0  0  0  0  0  0  0
    1.2106    2.2084   -1.1651 O   0  0  0  0  0  0  0  0  0  0  0  0
    0.2368    1.5278   -3.0430 O   0  0  0  0  0  0  0  0  0  0  0  0
    0.4242    2.4492   -3.2250 H   0  0  0  0  0  0  0  0  0  0  0  0
   -0.1923    1.1526    0.7617 C   0  0  0  0  0  0  0  0  0  0  0  0
   -1.1582    1.8438    0.4410 O   0  0  0  0  0  0  0  0  0  0  0  0
    0.7203    1.5683    1.6472 N   0  0  0  0  0  0  0  0  0  0  0  0
    1.5210    0.9664    1.8100 H   0  0  0  0  0  0  0  0  0  0  0  0
    0.6747    2.8558    2.3368 C   0  0  0  0  0  0  0  0  0  0  0  0
   -0.3018    2.9877    2.8079 H   0  0  0  0  0  0  0  0  0  0  0  0
    1.4516    2.8997    3.1011 H   0  0  0  0  0  0  0  0  0  0  0  0
    0.8279    3.6639    1.6193 H   0  0  0  0  0  0  0  0  0  0  0  0
  5  6  2  0  0  0  0
  5  7  1  0  0  0  0
  2  3  1  0  0  0  0
  2  4  1  0  0  0  0
  2  5  1  0  0  0  0
  1  2  1  0  0  0  0
 18 19  2  0  0  0  0
 18 20  1  0  0  0  0
 16 17  1  0  0  0  0
 14 15  2  0  0  0  0
 14 16  1  0  0  0  0
 11 12  1  0  0  0  0
 11 13  1  0  0  0  0
 11 14  1  0  0  0  0
  9 10  1  0  0  0  0
  9 11  1  0  0  0  0
  9 18  1  0  0  0  0
  7  8  1  0  0  0  0
  7  9  1  0  0  0  0
 22 23  1  0  0  0  0
 22 24  1  0  0  0  0
 22 25  1  0  0  0  0
 20 21  1  0  0  0  0
 20 22  1  0  0  0  0
M  END
$$$$
default_name
  -OEChem-02102213163D

 25 24  0     1  0  0  0  0  0999 V2000
   -2.7826   -3.8464    0.7821 H   0  0  0  0  0  0  0  0  0  0  0  0
   -2.8156   -2.8034    0.4711 C   0  0  0  0  0  0  0  0  0  0  0  0
   -3.4336   -2.2354    1.1641 H   0  0  0  0  0  0  0  0  0  0  0  0
   -3.2256   -2.7344   -0.5349 H   0  0  0  0  0  0  0  0  0  0  0  0
   -1.4126   -2.2444    0.4801 C   0  0  0  0  0  0  0  0  0  0  0  0
   -0.4686   -2.9534    0.8001 O   0  0  0  0  0  0  0  0  0  0  0  0
   -1.2736   -0.9704    0.1241 N   0  0  0  0  0  0  0  0  0  0  0  0
   -2.0996   -0.4354   -0.1019 H   0  0  0  0  0  0  0  0  0  0  0  0
   -0.0016   -0.2394    0.1271 C   0  0  1  0  0  0  0  0  0  0  0  0
    0.7164   -0.7963    0.7332 H   0  0  0  0  0  0  0  0  0  0  0  0
    0.5351   -0.1414   -1.3146 C   0  0  0  0  0  0  0  0  0  0  0  0
    1.5158   -0.6154   -1.3698 H   0  0  0  0  0  0  0  0  0  0  0  0
   -0.1331   -0.6742   -1.9922 H   0  0  0  0  0  0  0  0  0  0  0  0
    0.7050    1.2941   -1.8028 C   0  0  0  0  0  0  0  0  0  0  0  0
    1.4271    2.1398   -1.2913 O   0  0  0  0  0  0  0  0  0  0  0  0
   -0.0278    1.6124   -2.8862 O   0  0  0  0  0  0  0  0  0  0  0  0
    0.1888    2.5225   -3.0913 H   0  0  0  0  0  0  0  0  0  0  0  0
   -0.1923    1.1526    0.7617 C   0  0  0  0  0  0  0  0  0  0  0  0
   -1.1582    1.8438    0.4410 O   0  0  0  0  0  0  0  0  0  0  0  0
    0.7203    1.5683    1.6472 N   0  0  0  0  0  0  0  0  0  0  0  0
    1.5210    0.9664    1.8100 H   0  0  0  0  0  0  0  0  0  0  0  0
    0.6747    2.8558    2.3368 C   0  0  0  0  0  0  0  0  0  0  0  0
   -0.3018    2.9877    2.8079 H   0  0  0  0  0  0  0  0  0  0  0  0
    1.4516    2.8997    3.1011 H   0  0  0  0  0  0  0  0  0  0  0  0
    0.8279    3.6639    1.6193 H   0  0  0  0  0  0  0  0  0  0  0  0
  5  6  2  0  0  0  0
  5  7  1  0  0  0  0
  2  3  1  0  0  0  0
  2  4  1  0  0  0  0
  2  5  1  0  0  0  0
  1  2  1  0  0  0  0
 18 19  2  0  0  0  0
 18 20  1  0  0  0  0
 16 17  1  0  0  0  0
 14 15  2  0  0  0  0
 14 16  1  0  0  0  0
 11 12  1  0  0  0  0
 11 13  1  0  0  0  0
 11 14  1  0  0  0  0
  9 10  1  0  0  0  0
  9 11  1  0  0  0  0
  9 18  1  0  0  0  0
  7  8  1  0  0  0  0
  7  9  1  0  0  0  0
 22 23  1  0  0  0  0
 22 24  1  0  0  0  0
 22 25  1  0  0  0  0
 20 21  1  0  0  0  0
 20 22  1  0  0  0  0
M  END
$$$$
default_name
  -OEChem-02102213163D

 25 24  0     1  0  0  0  0  0999 V2000
   -2.7826   -3.8464    0.7821 H   0  0  0  0  0  0  0  0  0  0  0  0
   -2.8156   -2.8034    0.4711 C   0  0  0  0  0  0  0  0  0  0  0  0
   -3.4336   -2.2354    1.1641 H   0  0  0  0  0  0  0  0  0  0  0  0
   -3.2256   -2.7344   -0.5349 H   0  0  0  0  0  0  0  0  0  0  0  0
   -1.4126   -2.2444    0.4801 C   0  0  0  0  0  0  0  0  0  0  0  0
   -0.4686   -2.9534    0.8001 O   0  0  0  0  0  0  0  0  0  0  0  0
   -1.2736   -0.9704    0.1241 N   0  0  0  0  0  0  0  0  0  0  0  0
   -2.0996   -0.4354   -0.1019 H   0  0  0  0  0  0  0  0  0  0  0  0
   -0.0016   -0.2394    0.1271 C   0  0  1  0  0  0  0  0  0  0  0  0
    0.7164   -0.7963    0.7332 H   0  0  0  0  0  0  0  0  0  0  0  0
    0.5351   -0.1414   -1.3146 C   0  0  0  0  0  0  0  0  0  0  0  0
    1.5158   -0.6154   -1.3698 H   0  0  0  0  0  0  0  0  0  0  0  0
   -0.1331   -0.6742   -1.9922 H   0  0  0  0  0  0  0  0  0  0  0  0
    0.7050    1.2941   -1.8028 C   0  0  0  0  0  0  0  0  0  0  0  0
    1.5997    2.0593   -1.4680 O   0  0  0  0  0  0  0  0  0  0  0  0
   -0.2381    1.7115   -2.6678 O   0  0  0  0  0  0  0  0  0  0  0  0
    0.0001    2.6089   -2.9028 H   0  0  0  0  0  0  0  0  0  0  0  0
   -0.1923    1.1526    0.7617 C   0  0  0  0  0  0  0  0  0  0  0  0
   -1.1582    1.8438    0.4410 O   0  0  0  0  0  0  0  0  0  0  0  0
    0.7203    1.5683    1.6472 N   0  0  0  0  0  0  0  0  0  0  0  0
    1.5210    0.9664    1.8100 H   0  0  0  0  0  0  0  0  0  0  0  0
    0.6747    2.8558    2.3368 C   0  0  0  0  0  0  0  0  0  0  0  0
   -0.3018    2.9877    2.8079 H   0  0  0  0  0  0  0  0  0  0  0  0
    1.4516    2.8997    3.1011 H   0  0  0  0  0  0  0  0  0  0  0  0
    0.8279    3.6639    1.6193 H   0  0  0  0  0  0  0  0  0  0  0  0
  5  6  2  0  0  0  0
  5  7  1  0  0  0  0
  2  3  1  0  0  0  0
  2  4  1  0  0  0  0
  2  5  1  0  0  0  0
  1  2  1  0  0  0  0
 18 19  2  0  0  0  0
 18 20  1  0  0  0  0
 16 17  1  0  0  0  0
 14 15  2  0  0  0  0
 14 16  1  0  0  0  0
 11 12  1  0  0  0  0
 11 13  1  0  0  0  0
 11 14  1  0  0  0  0
  9 10  1  0  0  0  0
  9 11  1  0  0  0  0
  9 18  1  0  0  0  0
  7  8  1  0  0  0  0
  7  9  1  0  0  0  0
 22 23  1  0  0  0  0
 22 24  1  0  0  0  0
 22 25  1  0  0  0  0
 20 21  1  0  0  0  0
 20 22  1  0  0  0  0
M  END
$$$$
default_name
  -OEChem-02102213163D

 25 24  0     1  0  0  0  0  0999 V2000
   -2.7826   -3.8464    0.7821 H   0  0  0  0  0  0  0  0  0  0  0  0
   -2.8156   -2.8034    0.4711 C   0  0  0  0  0  0  0  0  0  0  0  0
   -3.4336   -2.2354    1.1641 H   0  0  0  0  0  0  0  0  0  0  0  0
   -3.2256   -2.7344   -0.5349 H   0  0  0  0  0  0  0  0  0  0  0  0
   -1.4126   -2.2444    0.4801 C   0  0  0  0  0  0  0  0  0  0  0  0
   -0.4686   -2.9534    0.8001 O   0  0  0  0  0  0  0  0  0  0  0  0
   -1.2736   -0.9704    0.1241 N   0  0  0  0  0  0  0  0  0  0  0  0
   -2.0996   -0.4354   -0.1019 H   0  0  0  0  0  0  0  0  0  0  0  0
   -0.0016   -0.2394    0.1271 C   0  0  1  0  0  0  0  0  0  0  0  0
    0.7164   -0.7963    0.7332 H   0  0  0  0  0  0  0  0  0  0  0  0
    0.5351   -0.1414   -1.3146 C   0  0  0  0  0  0  0  0  0  0  0  0
    1.5158   -0.6154   -1.3698 H   0  0  0  0  0  0  0  0  0  0  0  0
   -0.1331   -0.6742   -1.9922 H   0  0  0  0  0  0  0  0  0  0  0  0
    0.7050    1.2941   -1.8028 C   0  0  0  0  0  0  0  0  0  0  0  0
    1.7168    1.9723   -1.6830 O   0  0  0  0  0  0  0  0  0  0  0  0
   -0.3799    1.8184   -2.4028 O   0  0  0  0  0  0  0  0  0  0  0  0
   -0.1292    2.7026   -2.6722 H   0  0  0  0  0  0  0  0  0  0  0  0
   -0.1923    1.1526    0.7617 C   0  0  0  0  0  0  0  0  0  0  0  0
   -1.1582    1.8438    0.4410 O   0  0  0  0  0  0  0  0  0  0  0  0
    0.7203    1.5683    1.6472 N   0  0  0  0  0  0  0  0  0  0  0  0
    1.5210    0.9664    1.8100 H   0  0  0  0  0  0  0  0  0  0  0  0
    0.6747    2.8558    2.3368 C   0  0  0  0  0  0  0  0  0  0  0  0
   -0.3018    2.9877    2.8079 H   0  0  0  0  0  0  0  0  0  0  0  0
    1.4516    2.8997    3.1011 H   0  0  0  0  0  0  0  0  0  0  0  0
    0.8279    3.6639    1.6193 H   0  0  0  0  0  0  0  0  0  0  0  0
  5  6  2  0  0  0  0
  5  7  1  0  0  0  0
  2  3  1  0  0  0  0
  2  4  1  0  0  0  0
  2  5  1  0  0  0  0
  1  2  1  0  0  0  0
 18 19  2  0  0  0  0
 18 20  1  0  0  0  0
 16 17  1  0  0  0  0
 14 15  2  0  0  0  0
 14 16  1  0  0  0  0
 11 12  1  0  0  0  0
 11 13  1  0  0  0  0
 11 14  1  0  0  0  0
  9 10  1  0  0  0  0
  9 11  1  0  0  0  0
  9 18  1  0  0  0  0
  7  8  1  0  0  0  0
  7  9  1  0  0  0  0
 22 23  1  0  0  0  0
 22 24  1  0  0  0  0
 22 25  1  0  0  0  0
 20 21  1  0  0  0  0
 20 22  1  0  0  0  0
M  END
$$$$
default_name
  -OEChem-02102213163D

 25 24  0     1  0  0  0  0  0999 V2000
   -2.7826   -3.8464    0.7821 H   0  0  0  0  0  0  0  0  0  0  0  0
   -2.8156   -2.8034    0.4711 C   0  0  0  0  0  0  0  0  0  0  0  0
   -3.4336   -2.2354    1.1641 H   0  0  0  0  0  0  0  0  0  0  0  0
   -3.2256   -2.7344   -0.5349 H   0  0  0  0  0  0  0  0  0  0  0  0
   -1.4126   -2.2444    0.4801 C   0  0  0  0  0  0  0  0  0  0  0  0
   -0.4686   -2.9534    0.8001 O   0  0  0  0  0  0  0  0  0  0  0  0
   -1.2736   -0.9704    0.1241 N   0  0  0  0  0  0  0  0  0  0  0  0
   -2.0996   -0.4354   -0.1019 H   0  0  0  0  0  0  0  0  0  0  0  0
   -0.0016   -0.2394    0.1271 C   0  0  1  0  0  0  0  0  0  0  0  0
    0.7164   -0.7963    0.7332 H   0  0  0  0  0  0  0  0  0  0  0  0
    0.5351   -0.1414   -1.3146 C   0  0  0  0  0  0  0  0  0  0  0  0
    1.5158   -0.6154   -1.3698 H   0  0  0  0  0  0  0  0  0  0  0  0
   -0.1331   -0.6742   -1.9922 H   0  0  0  0  0  0  0  0  0  0  0  0
    0.7050    1.2941   -1.8028 C   0  0  0  0  0  0  0  0  0  0  0  0
    1.7704    1.8848   -1.9217 O   0  0  0  0  0  0  0  0  0  0  0  0
   -0.4435    1.9258   -2.1092 O   0  0  0  0  0  0  0  0  0  0  0  0
   -0.1901    2.7972   -2.4154 H   0  0  0  0  0  0  0  0  0  0  0  0
   -0.1923    1.1526    0.7617 C   0  0  0  0  0  0  0  0  0  0  0  0
   -1.1582    1.8438    0.4410 O   0  0  0  0  0  0  0  0  0  0  0  0
    0.7203    1.5683    1.6472 N   0  0  0  0  0  0  0  0  0  0  0  0
    1.5210    0.9664    1.8100 H   0  0  0  0  0  0  0  0  0  0  0  0
    0.6747    2.8558    2.3368 C   0  0  0  0  0  0  0  0  0  0  0  0
   -0.3018    2.9877    2.8079 H   0  0  0  0  0  0  0  0  0  0  0  0
    1.4516    2.8997    3.1011 H   0  0  0  0  0  0  0  0  0  0  0  0
    0.8279    3.6639    1.6193 H   0  0  0  0  0  0  0  0  0  0  0  0
  5  6  2  0  0  0  0
  5  7  1  0  0  0  0
  2  3  1  0  0  0  0
  2  4  1  0  0  0  0
  2  5  1  0  0  0  0
  1  2  1  0  0  0  0
 18 19  2  0  0  0  0
 18 20  1  0  0  0  0
 16 17  1  0  0  0  0
 14 15  2  0  0  0  0
 14 16  1  0  0  0  0
 11 12  1  0  0  0  0
 11 13  1  0  0  0  0
 11 14  1  0  0  0  0
  9 10  1  0  0  0  0
  9 11  1  0  0  0  0
  9 18  1  0  0  0  0
  7  8  1  0  0  0  0
  7  9  1  0  0  0  0
 22 23  1  0  0  0  0
 22 24  1  0  0  0  0
 22 25  1  0  0  0  0
 20 21  1  0  0  0  0
 20 22  1  0  0  0  0
M  END
$$$$
default_name
  -OEChem-02102213163D

 25 24  0     1  0  0  0  0  0999 V2000
   -2.7826   -3.8464    0.7821 H   0  0  0  0  0  0  0  0  0  0  0  0
   -2.8156   -2.8034    0.4711 C   0  0  0  0  0  0  0  0  0  0  0  0
   -3.4336   -2.2354    1.1641 H   0  0  0  0  0  0  0  0  0  0  0  0
   -3.2256   -2.7344   -0.5349 H   0  0  0  0  0  0  0  0  0  0  0  0
   -1.4126   -2.2444    0.4801 C   0  0  0  0  0  0  0  0  0  0  0  0
   -0.4686   -2.9534    0.8001 O   0  0  0  0  0  0  0  0  0  0  0  0
   -1.2736   -0.9704    0.1241 N   0  0  0  0  0  0  0  0  0  0  0  0
   -2.0996   -0.4354   -0.1019 H   0  0  0  0  0  0  0  0  0  0  0  0
   -0.0016   -0.2394    0.1271 C   0  0  1  0  0  0  0  0  0  0  0  0
    0.7164   -0.7963    0.7332 H   0  0  0  0  0  0  0  0  0  0  0  0
    0.5351   -0.1414   -1.3146 C   0  0  0  0  0  0  0  0  0  0  0  0
    1.5158   -0.6154   -1.3698 H   0  0  0  0  0  0  0  0  0  0  0  0
   -0.1331   -0.6742   -1.9922 H   0  0  0  0  0  0  0  0  0  0  0  0
    0.7050    1.2941   -1.8028 C   0  0  0  0  0  0  0  0  0  0  0  0
    1.7567    1.8027   -2.1679 O   0  0  0  0  0  0  0  0  0  0  0  0
   -0.4246    2.0263   -1.8070 O   0  0  0  0  0  0  0  0  0  0  0  0
   -0.1786    2.8861   -2.1497 H   0  0  0  0  0  0  0  0  0  0  0  0
   -0.1923    1.1526    0.7617 C   0  0  0  0  0  0  0  0  0  0  0  0
   -1.1582    1.8438    0.4410 O   0  0  0  0  0  0  0  0  0  0  0  0
    0.7203    1.5683    1.6472 N   0  0  0  0  0  0  0  0  0  0  0  0
    1.5210    0.9664    1.8100 H   0  0  0  0  0  0  0  0  0  0  0  0
    0.6747    2.8558    2.3368 C   0  0  0  0  0  0  0  0  0  0  0  0
   -0.3018    2.9877    2.8079 H   0  0  0  0  0  0  0  0  0  0  0  0
    1.4516    2.8997    3.1011 H   0  0  0  0  0  0  0  0  0  0  0  0
    0.8279    3.6639    1.6193 H   0  0  0  0  0  0  0  0  0  0  0  0
  5  6  2  0  0  0  0
  5  7  1  0  0  0  0
  2  3  1  0  0  0  0
  2  4  1  0  0  0  0
  2  5  1  0  0  0  0
  1  2  1  0  0  0  0
 18 19  2  0  0  0  0
 18 20  1  0  0  0  0
 16 17  1  0  0  0  0
 14 15  2  0  0  0  0
 14 16  1  0  0  0  0
 11 12  1  0  0  0  0
 11 13  1  0  0  0  0
 11 14  1  0  0  0  0
  9 10  1  0  0  0  0
  9 11  1  0  0  0  0
  9 18  1  0  0  0  0
  7  8  1  0  0  0  0
  7  9  1  0  0  0  0
 22 23  1  0  0  0  0
 22 24  1  0  0  0  0
 22 25  1  0  0  0  0
 20 21  1  0  0  0  0
 20 22  1  0  0  0  0
M  END
$$$$
default_name
  -OEChem-02102213163D

 25 24  0     1  0  0  0  0  0999 V2000
   -2.7826   -3.8464    0.7821 H   0  0  0  0  0  0  0  0  0  0  0  0
   -2.8156   -2.8034    0.4711 C   0  0  0  0  0  0  0  0  0  0  0  0
   -3.4336   -2.2354    1.1641 H   0  0  0  0  0  0  0  0  0  0  0  0
   -3.2256   -2.7344   -0.5349 H   0  0  0  0  0  0  0  0  0  0  0  0
   -1.4126   -2.2444    0.4801 C   0  0  0  0  0  0  0  0  0  0  0  0
   -0.4686   -2.9534    0.8001 O   0  0  0  0  0  0  0  0  0  0  0  0
   -1.2736   -0.9704    0.1241 N   0  0  0  0  0  0  0  0  0  0  0  0
   -2.0996   -0.4354   -0.1019 H   0  0  0  0  0  0  0  0  0  0  0  0
   -0.0016   -0.2394    0.1271 C   0  0  1  0  0  0  0  0  0  0  0  0
    0.7164   -0.7963    0.7332 H   0  0  0  0  0  0  0  0  0  0  0  0
    0.5351   -0.1414   -1.3146 C   0  0  0  0  0  0  0  0  0  0  0  0
    1.5158   -0.6154   -1.3698 H   0  0  0  0  0  0  0  0  0  0  0  0
   -0.1331   -0.6742   -1.9922 H   0  0  0  0  0  0  0  0  0  0  0  0
    0.7050    1.2941   -1.8028 C   0  0  0  0  0  0  0  0  0  0  0  0
    1.6768    1.7317   -2.4047 O   0  0  0  0  0  0  0  0  0  0  0  0
   -0.3243    2.1131   -1.5169 O   0  0  0  0  0  0  0  0  0  0  0  0
   -0.0954    2.9635   -1.8933 H   0  0  0  0  0  0  0  0  0  0  0  0
   -0.1923    1.1526    0.7617 C   0  0  0  0  0  0  0  0  0  0  0  0
   -1.1582    1.8438    0.4410 O   0  0  0  0  0  0  0  0  0  0  0  0
    0.7203    1.5683    1.6472 N   0  0  0  0  0  0  0  0  0  0  0  0
    1.5210    0.9664    1.8100 H   0  0  0  0  0  0  0  0  0  0  0  0
    0.6747    2.8558    2.3368 C   0  0  0  0  0  0  0  0  0  0  0  0
   -0.3018    2.9877    2.8079 H   0  0  0  0  0  0  0  0  0  0  0  0
    1.4516    2.8997    3.1011 H   0  0  0  0  0  0  0  0  0  0  0  0
    0.8279    3.6639    1.6193 H   0  0  0  0  0  0  0  0  0  0  0  0
  5  6  2  0  0  0  0
  5  7  1  0  0  0  0
  2  3  1  0  0  0  0
  2  4  1  0  0  0  0
  2  5  1  0  0  0  0
  1  2  1  0  0  0  0
 18 19  2  0  0  0  0
 18 20  1  0  0  0  0
 16 17  1  0  0  0  0
 14 15  2  0  0  0  0
 14 16  1  0  0  0  0
 11 12  1  0  0  0  0
 11 13  1  0  0  0  0
 11 14  1  0  0  0  0
  9 10  1  0  0  0  0
  9 11  1  0  0  0  0
  9 18  1  0  0  0  0
  7  8  1  0  0  0  0
  7  9  1  0  0  0  0
 22 23  1  0  0  0  0
 22 24  1  0  0  0  0
 22 25  1  0  0  0  0
 20 21  1  0  0  0  0
 20 22  1  0  0  0  0
M  END
$$$$
default_name
  -OEChem-02102213163D

 25 24  0     1  0  0  0  0  0999 V2000
   -2.7826   -3.8464    0.7821 H   0  0  0  0  0  0  0  0  0  0  0  0
   -2.8156   -2.8034    0.4711 C   0  0  0  0  0  0  0  0  0  0  0  0
   -3.4336   -2.2354    1.1641 H   0  0  0  0  0  0  0  0  0  0  0  0
   -3.2256   -2.7344   -0.5349 H   0  0  0  0  0  0  0  0  0  0  0  0
   -1.4126   -2.2444    0.4801 C   0  0  0  0  0  0  0  0  0  0  0  0
   -0.4686   -2.9534    0.8001 O   0  0  0  0  0  0  0  0  0  0  0  0
   -1.2736   -0.9704    0.1241 N   0  0  0  0  0  0  0  0  0  0  0  0
   -2.0996   -0.4354   -0.1019 H   0  0  0  0  0  0  0  0  0  0  0  0
   -0.0016   -0.2394    0.1271 C   0  0  1  0  0  0  0  0  0  0  0  0
    0.7164   -0.7963    0.7332 H   0  0  0  0  0  0  0  0  0  0  0  0
    0.5351   -0.1414   -1.3146 C   0  0  0  0  0  0  0  0  0  0  0  0
    1.5158   -0.6154   -1.3698 H   0  0  0  0  0  0  0  0  0  0  0  0
   -0.1331   -0.6742   -1.9922 H   0  0  0  0  0  0  0  0  0  0  0  0
    0.7050    1.2941   -1.8028 C   0  0  0  0  0  0  0  0  0  0  0  0
    1.5360    1.6765   -2.6160 O   0  0  0  0  0  0  0  0  0  0  0  0
   -0.1497    2.1803   -1.2585 O   0  0  0  0  0  0  0  0  0  0  0  0
    0.0538    3.0239   -1.6636 H   0  0  0  0  0  0  0  0  0  0  0  0
   -0.1923    1.1526    0.7617 C   0  0  0  0  0  0  0  0  0  0  0  0
   -1.1582    1.8438    0.4410 O   0  0  0  0  0  0  0  0  0  0  0  0
    0.7203    1.5683    1.6472 N   0  0  0  0  0  0  0  0  0  0  0  0
    1.5210    0.9664    1.8100 H   0  0  0  0  0  0  0  0  0  0  0  0
    0.6747    2.8558    2.3368 C   0  0  0  0  0  0  0  0  0  0  0  0
   -0.3018    2.9877    2.8079 H   0  0  0  0  0  0  0  0  0  0  0  0
    1.4516    2.8997    3.1011 H   0  0  0  0  0  0  0  0  0  0  0  0
    0.8279    3.6639    1.6193 H   0  0  0  0  0  0  0  0  0  0  0  0
  5  6  2  0  0  0  0
  5  7  1  0  0  0  0
  2  3  1  0  0  0  0
  2  4  1  0  0  0  0
  2  5  1  0  0  0  0
  1  2  1  0  0  0  0
 18 19  2  0  0  0  0
 18 20  1  0  0  0  0
 16 17  1  0  0  0  0
 14 15  2  0  0  0  0
 14 16  1  0  0  0  0
 11 12  1  0  0  0  0
 11 13  1  0  0  0  0
 11 14  1  0  0  0  0
  9 10  1  0  0  0  0
  9 11  1  0  0  0  0
  9 18  1  0  0  0  0
  7  8  1  0  0  0  0
  7  9  1  0  0  0  0
 22 23  1  0  0  0  0
 22 24  1  0  0  0  0
 22 25  1  0  0  0  0
 20 21  1  0  0  0  0
 20 22  1  0  0  0  0
M  END
$$$$
default_name
  -OEChem-02102213163D

 25 24  0     1  0  0  0  0  0999 V2000
   -2.7826   -3.8464    0.7821 H   0  0  0  0  0  0  0  0  0  0  0  0
   -2.8156   -2.8034    0.4711 C   0  0  0  0  0  0  0  0  0  0  0  0
   -3.4336   -2.2354    1.1641 H   0  0  0  0  0  0  0  0  0  0  0  0
   -3.2256   -2.7344   -0.5349 H   0  0  0  0  0  0  0  0  0  0  0  0
   -1.4126   -2.2444    0.4801 C   0  0  0  0  0  0  0  0  0  0  0  0
   -0.4686   -2.9534    0.8001 O   0  0  0  0  0  0  0  0  0  0  0  0
   -1.2736   -0.9704    0.1241 N   0  0  0  0  0  0  0  0  0  0  0  0
   -2.0996   -0.4354   -0.1019 H   0  0  0  0  0  0  0  0  0  0  0  0
   -0.0016   -0.2394    0.1271 C   0  0  1  0  0  0  0  0  0  0  0  0
    0.7164   -0.7963    0.7332 H   0  0  0  0  0  0  0  0  0  0  0  0
    0.5351   -0.1414   -1.3146 C   0  0  0  0  0  0  0  0  0  0  0  0
    1.5158   -0.6154   -1.3698 H   0  0  0  0  0  0  0  0  0  0  0  0
   -0.1331   -0.6742   -1.9922 H   0  0  0  0  0  0  0  0  0  0  0  0
    0.7050    1.2941   -1.8028 C   0  0  0  0  0  0  0  0  0  0  0  0
    1.3441    1.6409   -2.7874 O   0  0  0  0  0  0  0  0  0  0  0  0
    0.0875    2.2233   -1.0496 O   0  0  0  0  0  0  0  0  0  0  0  0
    0.2588    3.0633   -1.4764 H   0  0  0  0  0  0  0  0  0  0  0  0
   -0.1923    1.1526    0.7617 C   0  0  0  0  0  0  0  0  0  0  0  0
   -1.1582    1.8438    0.4410 O   0  0  0  0  0  0  0  0  0  0  0  0
    0.7203    1.5683    1.6472 N   0  0  0  0  0  0  0  0  0  0  0  0
    1.5210    0.9664    1.8100 H   0  0  0  0  0  0  0  0  0  0  0  0
    0.6747    2.8558    2.3368 C   0  0  0  0  0  0  0  0  0  0  0  0
   -0.3018    2.9877    2.8079 H   0  0  0  0  0  0  0  0  0  0  0  0
    1.4516    2.8997    3.1011 H   0  0  0  0  0  0  0  0  0  0  0  0
    0.8279    3.6639    1.6193 H   0  0  0  0  0  0  0  0  0  0  0  0
  5  6  2  0  0  0  0
  5  7  1  0  0  0  0
  2  3  1  0  0  0  0
  2  4  1  0  0  0  0
  2  5  1  0  0  0  0
  1  2  1  0  0  0  0
 18 19  2  0  0  0  0
 18 20  1  0  0  0  0
 16 17  1  0  0  0  0
 14 15  2  0  0  0  0
 14 16  1  0  0  0  0
 11 12  1  0  0  0  0
 11 13  1  0  0  0  0
 11 14  1  0  0  0  0
  9 10  1  0  0  0  0
  9 11  1  0  0  0  0
  9 18  1  0  0  0  0
  7  8  1  0  0  0  0
  7  9  1  0  0  0  0
 22 23  1  0  0  0  0
 22 24  1  0  0  0  0
 22 25  1  0  0  0  0
 20 21  1  0  0  0  0
 20 22  1  0  0  0  0
M  END
$$$$
default_name
  -OEChem-02102213163D

 25 24  0     1  0  0  0  0  0999 V2000
   -2.7826   -3.8464    0.7821 H   0  0  0  0  0  0  0  0  0  0  0  0
   -2.8156   -2.8034    0.4711 C   0  0  0  0  0  0  0  0  0  0  0  0
   -3.4336   -2.2354    1.1641 H   0  0  0  0  0  0  0  0  0  0  0  0
   -3.2256   -2.7344   -0.5349 H   0  0  0  0  0  0  0  0  0  0  0  0
   -1.4126   -2.2444    0.4801 C   0  0  0  0  0  0  0  0  0  0  0  0
   -0.4686   -2.9534    0.8001 O   0  0  0  0  0  0  0  0  0  0  0  0
   -1.2736   -0.9704    0.1241 N   0  0  0  0  0  0  0  0  0  0  0  0
   -2.0996   -0.4354   -0.1019 H   0  0  0  0  0  0  0  0  0  0  0  0
   -0.0016   -0.2394    0.1271 C   0  0  1  0  0  0  0  0  0  0  0  0
    0.7164   -0.7963    0.7332 H   0  0  0  0  0  0  0  0  0  0  0  0
    0.5351   -0.1414   -1.3146 C   0  0  0  0  0  0  0  0  0  0  0  0
    1.3711   -0.8309   -1.4383 H   0  0  0  0  0  0  0  0  0  0  0  0
   -0.2461   -0.4324   -2.0178 H   0  0  0  0  0  0  0  0  0  0  0  0
    1.0458    1.2493   -1.6789 C   0  0  0  0  0  0  0  0  0  0  0  0
    1.5176    1.5744   -2.7606 O   0  0  0  0  0  0  0  0  0  0  0  0
    0.9562    2.1601   -0.6918 O   0  0  0  0  0  0  0  0  0  0  0  0
    1.2884    2.9795   -1.0597 H   0  0  0  0  0  0  0  0  0  0  0  0
   -0.1923    1.1526    0.7617 C   0  0  0  0  0  0  0  0  0  0  0  0
   -1.1582    1.8438    0.4410 O   0  0  0  0  0  0  0  0  0  0  0  0
    0.7203    1.5683    1.6472 N   0  0  0  0  0  0  0  0  0  0  0  0
    1.5210    0.9664    1.8100 H   0  0  0  0  0  0  0  0  0  0  0  0
    0.6747    2.8558    2.3368 C   0  0  0  0  0  0  0  0  0  0  0  0
   -0.3018    2.9877    2.8079 H   0  0  0  0  0  0  0  0  0  0  0  0
    1.4516    2.8997    3.1011 H   0  0  0  0  0  0  0  0  0  0  0  0
    0.8279    3.6639    1.6193 H   0  0  0  0  0  0  0  0  0  0  0  0
  5  6  2  0  0  0  0
  5  7  1  0  0  0  0
  2  3  1  0  0  0  0
  2  4  1  0  0  0  0
  2  5  1  0  0  0  0
  1  2  1  0  0  0  0
 18 19  2  0  0  0  0
 18 20  1  0  0  0  0
 16 17  1  0  0  0  0
 14 15  2  0  0  0  0
 14 16  1  0  0  0  0
 11 12  1  0  0  0  0
 11 13  1  0  0  0  0
 11 14  1  0  0  0  0
  9 10  1  0  0  0  0
  9 11  1  0  0  0  0
  9 18  1  0  0  0  0
  7  8  1  0  0  0  0
  7  9  1  0  0  0  0
 22 23  1  0  0  0  0
 22 24  1  0  0  0  0
 22 25  1  0  0  0  0
 20 21  1  0  0  0  0
 20 22  1  0  0  0  0
M  END
$$$$
default_name
  -OEChem-02102213163D

 25 24  0     1  0  0  0  0  0999 V2000
   -2.7826   -3.8464    0.7821 H   0  0  0  0  0  0  0  0  0  0  0  0
   -2.8156   -2.8034    0.4711 C   0  0  0  0  0  0  0  0  0  0  0  0
   -3.4336   -2.2354    1.1641 H   0  0  0  0  0  0  0  0  0  0  0  0
   -3.2256   -2.7344   -0.5349 H   0  0  0  0  0  0  0  0  0  0  0  0
   -1.4126   -2.2444    0.4801 C   0  0  0  0  0  0  0  0  0  0  0  0
   -0.4686   -2.9534    0.8001 O   0  0  0  0  0  0  0  0  0  0  0  0
   -1.2736   -0.9704    0.1241 N   0  0  0  0  0  0  0  0  0  0  0  0
   -2.0996   -0.4354   -0.1019 H   0  0  0  0  0  0  0  0  0  0  0  0
   -0.0016   -0.2394    0.1271 C   0  0  1  0  0  0  0  0  0  0  0  0
    0.7164   -0.7963    0.7332 H   0  0  0  0  0  0  0  0  0  0  0  0
    0.5351   -0.1414   -1.3146 C   0  0  0  0  0  0  0  0  0  0  0  0
    1.3711   -0.8309   -1.4383 H   0  0  0  0  0  0  0  0  0  0  0  0
   -0.2461   -0.4324   -2.0178 H   0  0  0  0  0  0  0  0  0  0  0  0
    1.0458    1.2493   -1.6789 C   0  0  0  0  0  0  0  0  0  0  0  0
    1.2745    1.6501   -2.8126 O   0  0  0  0  0  0  0  0  0  0  0  0
    1.2548    2.0666   -0.6299 O   0  0  0  0  0  0  0  0  0  0  0  0
    1.5504    2.8988   -1.0004 H   0  0  0  0  0  0  0  0  0  0  0  0
   -0.1923    1.1526    0.7617 C   0  0  0  0  0  0  0  0  0  0  0  0
   -1.1582    1.8438    0.4410 O   0  0  0  0  0  0  0  0  0  0  0  0
    0.7203    1.5683    1.6472 N   0  0  0  0  0  0  0  0  0  0  0  0
    1.5210    0.9664    1.8100 H   0  0  0  0  0  0  0  0  0  0  0  0
    0.6747    2.8558    2.3368 C   0  0  0  0  0  0  0  0  0  0  0  0
   -0.3018    2.9877    2.8079 H   0  0  0  0  0  0  0  0  0  0  0  0
    1.4516    2.8997    3.1011 H   0  0  0  0  0  0  0  0  0  0  0  0
    0.8279    3.6639    1.6193 H   0  0  0  0  0  0  0  0  0  0  0  0
  5  6  2  0  0  0  0
  5  7  1  0  0  0  0
  2  3  1  0  0  0  0
  2  4  1  0  0  0  0
  2  5  1  0  0  0  0
  1  2  1  0  0  0  0
 18 19  2  0  0  0  0
 18 20  1  0  0  0  0
 16 17  1  0  0  0  0
 14 15  2  0  0  0  0
 14 16  1  0  0  0  0
 11 12  1  0  0  0  0
 11 13  1  0  0  0  0
 11 14  1  0  0  0  0
  9 10  1  0  0  0  0
  9 11  1  0  0  0  0
  9 18  1  0  0  0  0
  7  8  1  0  0  0  0
  7  9  1  0  0  0  0
 22 23  1  0  0  0  0
 22 24  1  0  0  0  0
 22 25  1  0  0  0  0
 20 21  1  0  0  0  0
 20 22  1  0  0  0  0
M  END
$$$$
default_name
  -OEChem-02102213163D

 25 24  0     1  0  0  0  0  0999 V2000
   -2.7826   -3.8464    0.7821 H   0  0  0  0  0  0  0  0  0  0  0  0
   -2.8156   -2.8034    0.4711 C   0  0  0  0  0  0  0  0  0  0  0  0
   -3.4336   -2.2354    1.1641 H   0  0  0  0  0  0  0  0  0  0  0  0
   -3.2256   -2.7344   -0.5349 H   0  0  0  0  0  0  0  0  0  0  0  0
   -1.4126   -2.2444    0.4801 C   0  0  0  0  0  0  0  0  0  0  0  0
   -0.4686   -2.9534    0.8001 O   0  0  0  0  0  0  0  0  0  0  0  0
   -1.2736   -0.9704    0.1241 N   0  0  0  0  0  0  0  0  0  0  0  0
   -2.0996   -0.4354   -0.1019 H   0  0  0  0  0  0  0  0  0  0  0  0
   -0.0016   -0.2394    0.1271 C   0  0  1  0  0  0  0  0  0  0  0  0
    0.7164   -0.7963    0.7332 H   0  0  0  0  0  0  0  0  0  0  0  0
    0.5351   -0.1414   -1.3146 C   0  0  0  0  0  0  0  0  0  0  0  0
    1.3711   -0.8309   -1.4383 H   0  0  0  0  0  0  0  0  0  0  0  0
   -0.2461   -0.4324   -2.0178 H   0  0  0  0  0  0  0  0  0  0  0  0
    1.0458    1.2493   -1.6789 C   0  0  0  0  0  0  0  0  0  0  0  0
    1.0321    1.7426   -2.7990 O   0  0  0  0  0  0  0  0  0  0  0  0
    1.5521    1.9525   -0.6488 O   0  0  0  0  0  0  0  0  0  0  0  0
    1.8124    2.7996   -1.0120 H   0  0  0  0  0  0  0  0  0  0  0  0
   -0.1923    1.1526    0.7617 C   0  0  0  0  0  0  0  0  0  0  0  0
   -1.1582    1.8438    0.4410 O   0  0  0  0  0  0  0  0  0  0  0  0
    0.7203    1.5683    1.6472 N   0  0  0  0  0  0  0  0  0  0  0  0
    1.5210    0.9664    1.8100 H   0  0  0  0  0  0  0  0  0  0  0  0
    0.6747    2.8558    2.3368 C   0  0  0  0  0  0  0  0  0  0  0  0
   -0.3018    2.9877    2.8079 H   0  0  0  0  0  0  0  0  0  0  0  0
    1.4516    2.8997    3.1011 H   0  0  0  0  0  0  0  0  0  0  0  0
    0.8279    3.6639    1.6193 H   0  0  0  0  0  0  0  0  0  0  0  0
  5  6  2  0  0  0  0
  5  7  1  0  0  0  0
  2  3  1  0  0  0  0
  2  4  1  0  0  0  0
  2  5  1  0  0  0  0
  1  2  1  0  0  0  0
 18 19  2  0  0  0  0
 18 20  1  0  0  0  0
 16 17  1  0  0  0  0
 14 15  2  0  0  0  0
 14 16  1  0  0  0  0
 11 12  1  0  0  0  0
 11 13  1  0  0  0  0
 11 14  1  0  0  0  0
  9 10  1  0  0  0  0
  9 11  1  0  0  0  0
  9 18  1  0  0  0  0
  7  8  1  0  0  0  0
  7  9  1  0  0  0  0
 22 23  1  0  0  0  0
 22 24  1  0  0  0  0
 22 25  1  0  0  0  0
 20 21  1  0  0  0  0
 20 22  1  0  0  0  0
M  END
$$$$
default_name
  -OEChem-02102213163D

 25 24  0     1  0  0  0  0  0999 V2000
   -2.7826   -3.8464    0.7821 H   0  0  0  0  0  0  0  0  0  0  0  0
   -2.8156   -2.8034    0.4711 C   0  0  0  0  0  0  0  0  0  0  0  0
   -3.4336   -2.2354    1.1641 H   0  0  0  0  0  0  0  0  0  0  0  0
   -3.2256   -2.7344   -0.5349 H   0  0  0  0  0  0  0  0  0  0  0  0
   -1.4126   -2.2444    0.4801 C   0  0  0  0  0  0  0  0  0  0  0  0
   -0.4686   -2.9534    0.8001 O   0  0  0  0  0  0  0  0  0  0  0  0
   -1.2736   -0.9704    0.1241 N   0  0  0  0  0  0  0  0  0  0  0  0
   -2.0996   -0.4354   -0.1019 H   0  0  0  0  0  0  0  0  0  0  0  0
   -0.0016   -0.2394    0.1271 C   0  0  1  0  0  0  0  0  0  0  0  0
    0.7164   -0.7963    0.7332 H   0  0  0  0  0  0  0  0  0  0  0  0
    0.5351   -0.1414   -1.3146 C   0  0  0  0  0  0  0  0  0  0  0  0
    1.3711   -0.8309   -1.4383 H   0  0  0  0  0  0  0  0  0  0  0  0
   -0.2461   -0.4324   -2.0178 H   0  0  0  0  0  0  0  0  0  0  0  0
    1.0458    1.2493   -1.6789 C   0  0  0  0  0  0  0  0  0  0  0  0
    0.8070    1.8459   -2.7207 O   0  0  0  0  0  0  0  0  0  0  0  0
    1.8278    1.8255   -0.7470 O   0  0  0  0  0  0  0  0  0  0  0  0
    2.0566    2.6885   -1.0935 H   0  0  0  0  0  0  0  0  0  0  0  0
   -0.1923    1.1526    0.7617 C   0  0  0  0  0  0  0  0  0  0  0  0
   -1.1582    1.8438    0.4410 O   0  0  0  0  0  0  0  0  0  0  0  0
    0.7203    1.5683    1.6472 N   0  0  0  0  0  0  0  0  0  0  0  0
    1.5210    0.9664    1.8100 H   0  0  0  0  0  0  0  0  0  0  0  0
    0.6747    2.8558    2.3368 C   0  0  0  0  0  0  0  0  0  0  0  0
   -0.3018    2.9877    2.8079 H   0  0  0  0  0  0  0  0  0  0  0  0
    1.4516    2.8997    3.1011 H   0  0  0  0  0  0  0  0  0  0  0  0
    0.8279    3.6639    1.6193 H   0  0  0  0  0  0  0  0  0  0  0  0
  5  6  2  0  0  0  0
  5  7  1  0  0  0  0
  2  3  1  0  0  0  0
  2  4  1  0  0  0  0
  2  5  1  0  0  0  0
  1  2  1  0  0  0  0
 18 19  2  0  0  0  0
 18 20  1  0  0  0  0
 16 17  1  0  0  0  0
 14 15  2  0  0  0  0
 14 16  1  0  0  0  0
 11 12  1  0  0  0  0
 11 13  1  0  0  0  0
 11 14  1  0  0  0  0
  9 10  1  0  0  0  0
  9 11  1  0  0  0  0
  9 18  1  0  0  0  0
  7  8  1  0  0  0  0
  7  9  1  0  0  0  0
 22 23  1  0  0  0  0
 22 24  1  0  0  0  0
 22 25  1  0  0  0  0
 20 21  1  0  0  0  0
 20 22  1  0  0  0  0
M  END
$$$$
default_name
  -OEChem-02102213163D

 25 24  0     1  0  0  0  0  0999 V2000
   -2.7826   -3.8464    0.7821 H   0  0  0  0  0  0  0  0  0  0  0  0
   -2.8156   -2.8034    0.4711 C   0  0  0  0  0  0  0  0  0  0  0  0
   -3.4336   -2.2354    1.1641 H   0  0  0  0  0  0  0  0  0  0  0  0
   -3.2256   -2.7344   -0.5349 H   0  0  0  0  0  0  0  0  0  0  0  0
   -1.4126   -2.2444    0.4801 C   0  0  0  0  0  0  0  0  0  0  0  0
   -0.4686   -2.9534    0.8001 O   0  0  0  0  0  0  0  0  0  0  0  0
   -1.2736   -0.9704    0.1241 N   0  0  0  0  0  0  0  0  0  0  0  0
   -2.0996   -0.4354   -0.1019 H   0  0  0  0  0  0  0  0  0  0  0  0
   -0.0016   -0.2394    0.1271 C   0  0  1  0  0  0  0  0  0  0  0  0
    0.7164   -0.7963    0.7332 H   0  0  0  0  0  0  0  0  0  0  0  0
    0.5351   -0.1414   -1.3146 C   0  0  0  0  0  0  0  0  0  0  0  0
    1.3711   -0.8309   -1.4383 H   0  0  0  0  0  0  0  0  0  0  0  0
   -0.2461   -0.4324   -2.0178 H   0  0  0  0  0  0  0  0  0  0  0  0
    1.0458    1.2493   -1.6789 C   0  0  0  0  0  0  0  0  0  0  0  0
    0.6143    1.9527   -2.5830 O   0  0  0  0  0  0  0  0  0  0  0  0
    2.0631    1.6944   -0.9179 O   0  0  0  0  0  0  0  0  0  0  0  0
    2.2665    2.5732   -1.2395 H   0  0  0  0  0  0  0  0  0  0  0  0
   -0.1923    1.1526    0.7617 C   0  0  0  0  0  0  0  0  0  0  0  0
   -1.1582    1.8438    0.4410 O   0  0  0  0  0  0  0  0  0  0  0  0
    0.7203    1.5683    1.6472 N   0  0  0  0  0  0  0  0  0  0  0  0
    1.5210    0.9664    1.8100 H   0  0  0  0  0  0  0  0  0  0  0  0
    0.6747    2.8558    2.3368 C   0  0  0  0  0  0  0  0  0  0  0  0
   -0.3018    2.9877    2.8079 H   0  0  0  0  0  0  0  0  0  0  0  0
    1.4516    2.8997    3.1011 H   0  0  0  0  0  0  0  0  0  0  0  0
    0.8279    3.6639    1.6193 H   0  0  0  0  0  0  0  0  0  0  0  0
  5  6  2  0  0  0  0
  5  7  1  0  0  0  0
  2  3  1  0  0  0  0
  2  4  1  0  0  0  0
  2  5  1  0  0  0  0
  1  2  1  0  0  0  0
 18 19  2  0  0  0  0
 18 20  1  0  0  0  0
 16 17  1  0  0  0  0
 14 15  2  0  0  0  0
 14 16  1  0  0  0  0
 11 12  1  0  0  0  0
 11 13  1  0  0  0  0
 11 14  1  0  0  0  0
  9 10  1  0  0  0  0
  9 11  1  0  0  0  0
  9 18  1  0  0  0  0
  7  8  1  0  0  0  0
  7  9  1  0  0  0  0
 22 23  1  0  0  0  0
 22 24  1  0  0  0  0
 22 25  1  0  0  0  0
 20 21  1  0  0  0  0
 20 22  1  0  0  0  0
M  END
$$$$
default_name
  -OEChem-02102213163D

 25 24  0     1  0  0  0  0  0999 V2000
   -2.7826   -3.8464    0.7821 H   0  0  0  0  0  0  0  0  0  0  0  0
   -2.8156   -2.8034    0.4711 C   0  0  0  0  0  0  0  0  0  0  0  0
   -3.4336   -2.2354    1.1641 H   0  0  0  0  0  0  0  0  0  0  0  0
   -3.2256   -2.7344   -0.5349 H   0  0  0  0  0  0  0  0  0  0  0  0
   -1.4126   -2.2444    0.4801 C   0  0  0  0  0  0  0  0  0  0  0  0
   -0.4686   -2.9534    0.8001 O   0  0  0  0  0  0  0  0  0  0  0  0
   -1.2736   -0.9704    0.1241 N   0  0  0  0  0  0  0  0  0  0  0  0
   -2.0996   -0.4354   -0.1019 H   0  0  0  0  0  0  0  0  0  0  0  0
   -0.0016   -0.2394    0.1271 C   0  0  1  0  0  0  0  0  0  0  0  0
    0.7164   -0.7963    0.7332 H   0  0  0  0  0  0  0  0  0  0  0  0
    0.5351   -0.1414   -1.3146 C   0  0  0  0  0  0  0  0  0  0  0  0
    1.3711   -0.8309   -1.4383 H   0  0  0  0  0  0  0  0  0  0  0  0
   -0.2461   -0.4324   -2.0178 H   0  0  0  0  0  0  0  0  0  0  0  0
    1.0458    1.2493   -1.6789 C   0  0  0  0  0  0  0  0  0  0  0  0
    0.4673    2.0559   -2.3952 O   0  0  0  0  0  0  0  0  0  0  0  0
    2.2419    1.5679   -1.1499 O   0  0  0  0  0  0  0  0  0  0  0  0
    2.4276    2.4615   -1.4401 H   0  0  0  0  0  0  0  0  0  0  0  0
   -0.1923    1.1526    0.7617 C   0  0  0  0  0  0  0  0  0  0  0  0
   -1.1582    1.8438    0.4410 O   0  0  0  0  0  0  0  0  0  0  0  0
    0.7203    1.5683    1.6472 N   0  0  0  0  0  0  0  0  0  0  0  0
    1.5210    0.9664    1.8100 H   0  0  0  0  0  0  0  0  0  0  0  0
    0.6747    2.8558    2.3368 C   0  0  0  0  0  0  0  0  0  0  0  0
   -0.3018    2.9877    2.8079 H   0  0  0  0  0  0  0  0  0  0  0  0
    1.4516    2.8997    3.1011 H   0  0  0  0  0  0  0  0  0  0  0  0
    0.8279    3.6639    1.6193 H   0  0  0  0  0  0  0  0  0  0  0  0
  5  6  2  0  0  0  0
  5  7  1  0  0  0  0
  2  3  1  0  0  0  0
  2  4  1  0  0  0  0
  2  5  1  0  0  0  0
  1  2  1  0  0  0  0
 18 19  2  0  0  0  0
 18 20  1  0  0  0  0
 16 17  1  0  0  0  0
 14 15  2  0  0  0  0
 14 16  1  0  0  0  0
 11 12  1  0  0  0  0
 11 13  1  0  0  0  0
 11 14  1  0  0  0  0
  9 10  1  0  0  0  0
  9 11  1  0  0  0  0
  9 18  1  0  0  0  0
  7  8  1  0  0  0  0
  7  9  1  0  0  0  0
 22 23  1  0  0  0  0
 22 24  1  0  0  0  0
 22 25  1  0  0  0  0
 20 21  1  0  0  0  0
 20 22  1  0  0  0  0
M  END
$$$$
default_name
  -OEChem-02102213163D

 25 24  0     1  0  0  0  0  0999 V2000
   -2.7826   -3.8464    0.7821 H   0  0  0  0  0  0  0  0  0  0  0  0
   -2.8156   -2.8034    0.4711 C   0  0  0  0  0  0  0  0  0  0  0  0
   -3.4336   -2.2354    1.1641 H   0  0  0  0  0  0  0  0  0  0  0  0
   -3.2256   -2.7344   -0.5349 H   0  0  0  0  0  0  0  0  0  0  0  0
   -1.4126   -2.2444    0.4801 C   0  0  0  0  0  0  0  0  0  0  0  0
   -0.4686   -2.9534    0.8001 O   0  0  0  0  0  0  0  0  0  0  0  0
   -1.2736   -0.9704    0.1241 N   0  0  0  0  0  0  0  0  0  0  0  0
   -2.0996   -0.4354   -0.1019 H   0  0  0  0  0  0  0  0  0  0  0  0
   -0.0016   -0.2394    0.1271 C   0  0  1  0  0  0  0  0  0  0  0  0
    0.7164   -0.7963    0.7332 H   0  0  0  0  0  0  0  0  0  0  0  0
    0.5351   -0.1414   -1.3146 C   0  0  0  0  0  0  0  0  0  0  0  0
    1.3711   -0.8309   -1.4383 H   0  0  0  0  0  0  0  0  0  0  0  0
   -0.2461   -0.4324   -2.0178 H   0  0  0  0  0  0  0  0  0  0  0  0
    1.0458    1.2493   -1.6789 C   0  0  0  0  0  0  0  0  0  0  0  0
    0.3760    2.1483   -2.1702 O   0  0  0  0  0  0  0  0  0  0  0  0
    2.3521    1.4549   -1.4271 O   0  0  0  0  0  0  0  0  0  0  0  0
    2.5290    2.3611   -1.6814 H   0  0  0  0  0  0  0  0  0  0  0  0
   -0.1923    1.1526    0.7617 C   0  0  0  0  0  0  0  0  0  0  0  0
   -1.1582    1.8438    0.4410 O   0  0  0  0  0  0  0  0  0  0  0  0
    0.7203    1.5683    1.6472 N   0  0  0  0  0  0  0  0  0  0  0  0
    1.5210    0.9664    1.8100 H   0  0  0  0  0  0  0  0  0  0  0  0
    0.6747    2.8558    2.3368 C   0  0  0  0  0  0  0  0  0  0  0  0
   -0.3018    2.9877    2.8079 H   0  0  0  0  0  0  0  0  0  0  0  0
    1.4516    2.8997    3.1011 H   0  0  0  0  0  0  0  0  0  0  0  0
    0.8279    3.6639    1.6193 H   0  0  0  0  0  0  0  0  0  0  0  0
  5  6  2  0  0  0  0
  5  7  1  0  0  0  0
  2  3  1  0  0  0  0
  2  4  1  0  0  0  0
  2  5  1  0  0  0  0
  1  2  1  0  0  0  0
 18 19  2  0  0  0  0
 18 20  1  0  0  0  0
 16 17  1  0  0  0  0
 14 15  2  0  0  0  0
 14 16  1  0  0  0  0
 11 12  1  0  0  0  0
 11 13  1  0  0  0  0
 11 14  1  0  0  0  0
  9 10  1  0  0  0  0
  9 11  1  0  0  0  0
  9 18  1  0  0  0  0
  7  8  1  0  0  0  0
  7  9  1  0  0  0  0
 22 23  1  0  0  0  0
 22 24  1  0  0  0  0
 22 25  1  0  0  0  0
 20 21  1  0  0  0  0
 20 22  1  0  0  0  0
M  END
$$$$
default_name
  -OEChem-02102213163D

 25 24  0     1  0  0  0  0  0999 V2000
   -2.7826   -3.8464    0.7821 H   0  0  0  0  0  0  0  0  0  0  0  0
   -2.8156   -2.8034    0.4711 C   0  0  0  0  0  0  0  0  0  0  0  0
   -3.4336   -2.2354    1.1641 H   0  0  0  0  0  0  0  0  0  0  0  0
   -3.2256   -2.7344   -0.5349 H   0  0  0  0  0  0  0  0  0  0  0  0
   -1.4126   -2.2444    0.4801 C   0  0  0  0  0  0  0  0  0  0  0  0
   -0.4686   -2.9534    0.8001 O   0  0  0  0  0  0  0  0  0  0  0  0
   -1.2736   -0.9704    0.1241 N   0  0  0  0  0  0  0  0  0  0  0  0
   -2.0996   -0.4354   -0.1019 H   0  0  0  0  0  0  0  0  0  0  0  0
   -0.0016   -0.2394    0.1271 C   0  0  1  0  0  0  0  0  0  0  0  0
    0.7164   -0.7963    0.7332 H   0  0  0  0  0  0  0  0  0  0  0  0
    0.5351   -0.1414   -1.3146 C   0  0  0  0  0  0  0  0  0  0  0  0
    1.3711   -0.8309   -1.4383 H   0  0  0  0  0  0  0  0  0  0  0  0
   -0.2461   -0.4324   -2.0178 H   0  0  0  0  0  0  0  0  0  0  0  0
    1.0458    1.2493   -1.6789 C   0  0  0  0  0  0  0  0  0  0  0  0
    0.3466    2.2238   -1.9233 O   0  0  0  0  0  0  0  0  0  0  0  0
    2.3861    1.3629   -1.7306 O   0  0  0  0  0  0  0  0  0  0  0  0
    2.5638    2.2787   -1.9472 H   0  0  0  0  0  0  0  0  0  0  0  0
   -0.1923    1.1526    0.7617 C   0  0  0  0  0  0  0  0  0  0  0  0
   -1.1582    1.8438    0.4410 O   0  0  0  0  0  0  0  0  0  0  0  0
    0.7203    1.5683    1.6472 N   0  0  0  0  0  0  0  0  0  0  0  0
    1.5210    0.9664    1.8100 H   0  0  0  0  0  0  0  0  0  0  0  0
    0.6747    2.8558    2.3368 C   0  0  0  0  0  0  0  0  0  0  0  0
   -0.3018    2.9877    2.8079 H   0  0  0  0  0  0  0  0  0  0  0  0
    1.4516    2.8997    3.1011 H   0  0  0  0  0  0  0  0  0  0  0  0
    0.8279    3.6639    1.6193 H   0  0  0  0  0  0  0  0  0  0  0  0
  5  6  2  0  0  0  0
  5  7  1  0  0  0  0
  2  3  1  0  0  0  0
  2  4  1  0  0  0  0
  2  5  1  0  0  0  0
  1  2  1  0  0  0  0
 18 19  2  0  0  0  0
 18 20  1  0  0  0  0
 16 17  1  0  0  0  0
 14 15  2  0  0  0  0
 14 16  1  0  0  0  0
 11 12  1  0  0  0  0
 11 13  1  0  0  0  0
 11 14  1  0  0  0  0
  9 10  1  0  0  0  0
  9 11  1  0  0  0  0
  9 18  1  0  0  0  0
  7  8  1  0  0  0  0
  7  9  1  0  0  0  0
 22 23  1  0  0  0  0
 22 24  1  0  0  0  0
 22 25  1  0  0  0  0
 20 21  1  0  0  0  0
 20 22  1  0  0  0  0
M  END
$$$$
default_name
  -OEChem-02102213163D

 25 24  0     1  0  0  0  0  0999 V2000
   -2.7826   -3.8464    0.7821 H   0  0  0  0  0  0  0  0  0  0  0  0
   -2.8156   -2.8034    0.4711 C   0  0  0  0  0  0  0  0  0  0  0  0
   -3.4336   -2.2354    1.1641 H   0  0  0  0  0  0  0  0  0  0  0  0
   -3.2256   -2.7344   -0.5349 H   0  0  0  0  0  0  0  0  0  0  0  0
   -1.4126   -2.2444    0.4801 C   0  0  0  0  0  0  0  0  0  0  0  0
   -0.4686   -2.9534    0.8001 O   0  0  0  0  0  0  0  0  0  0  0  0
   -1.2736   -0.9704    0.1241 N   0  0  0  0  0  0  0  0  0  0  0  0
   -2.0996   -0.4354   -0.1019 H   0  0  0  0  0  0  0  0  0  0  0  0
   -0.0016   -0.2394    0.1271 C   0  0  1  0  0  0  0  0  0  0  0  0
    0.7164   -0.7963    0.7332 H   0  0  0  0  0  0  0  0  0  0  0  0
    0.5351   -0.1414   -1.3146 C   0  0  0  0  0  0  0  0  0  0  0  0
    1.3711   -0.8309   -1.4383 H   0  0  0  0  0  0  0  0  0  0  0  0
   -0.2461   -0.4324   -2.0178 H   0  0  0  0  0  0  0  0  0  0  0  0
    1.0458    1.2493   -1.6789 C   0  0  0  0  0  0  0  0  0  0  0  0
    0.3811    2.2771   -1.6714 O   0  0  0  0  0  0  0  0  0  0  0  0
    2.3417    1.2982   -2.0398 O   0  0  0  0  0  0  0  0  0  0  0  0
    2.5296    2.2200   -2.2193 H   0  0  0  0  0  0  0  0  0  0  0  0
   -0.1923    1.1526    0.7617 C   0  0  0  0  0  0  0  0  0  0  0  0
   -1.1582    1.8438    0.4410 O   0  0  0  0  0  0  0  0  0  0  0  0
    0.7203    1.5683    1.6472 N   0  0  0  0  0  0  0  0  0  0  0  0
    1.5210    0.9664    1.8100 H   0  0  0  0  0  0  0  0  0  0  0  0
    0.6747    2.8558    2.3368 C   0  0  0  0  0  0  0  0  0  0  0  0
   -0.3018    2.9877    2.8079 H   0  0  0  0  0  0  0  0  0  0  0  0
    1.4516    2.8997    3.1011 H   0  0  0  0  0  0  0  0  0  0  0  0
    0.8279    3.6639    1.6193 H   0  0  0  0  0  0  0  0  0  0  0  0
  5  6  2  0  0  0  0
  5  7  1  0  0  0  0
  2  3  1  0  0  0  0
  2  4  1  0  0  0  0
  2  5  1  0  0  0  0
  1  2  1  0  0  0  0
 18 19  2  0  0  0  0
 18 20  1  0  0  0  0
 16 17  1  0  0  0  0
 14 15  2  0  0  0  0
 14 16  1  0  0  0  0
 11 12  1  0  0  0  0
 11 13  1  0  0  0  0
 11 14  1  0  0  0  0
  9 10  1  0  0  0  0
  9 11  1  0  0  0  0
  9 18  1  0  0  0  0
  7  8  1  0  0  0  0
  7  9  1  0  0  0  0
 22 23  1  0  0  0  0
 22 24  1  0  0  0  0
 22 25  1  0  0  0  0
 20 21  1  0  0  0  0
 20 22  1  0  0  0  0
M  END
$$$$
default_name
  -OEChem-02102213163D

 25 24  0     1  0  0  0  0  0999 V2000
   -2.7826   -3.8464    0.7821 H   0  0  0  0  0  0  0  0  0  0  0  0
   -2.8156   -2.8034    0.4711 C   0  0  0  0  0  0  0  0  0  0  0  0
   -3.4336   -2.2354    1.1641 H   0  0  0  0  0  0  0  0  0  0  0  0
   -3.2256   -2.7344   -0.5349 H   0  0  0  0  0  0  0  0  0  0  0  0
   -1.4126   -2.2444    0.4801 C   0  0  0  0  0  0  0  0  0  0  0  0
   -0.4686   -2.9534    0.8001 O   0  0  0  0  0  0  0  0  0  0  0  0
   -1.2736   -0.9704    0.1241 N   0  0  0  0  0  0  0  0  0  0  0  0
   -2.0996   -0.4354   -0.1019 H   0  0  0  0  0  0  0  0  0  0  0  0
   -0.0016   -0.2394    0.1271 C   0  0  1  0  0  0  0  0  0  0  0  0
    0.7164   -0.7963    0.7332 H   0  0  0  0  0  0  0  0  0  0  0  0
    0.5351   -0.1414   -1.3146 C   0  0  0  0  0  0  0  0  0  0  0  0
    1.3711   -0.8309   -1.4383 H   0  0  0  0  0  0  0  0  0  0  0  0
   -0.2461   -0.4324   -2.0178 H   0  0  0  0  0  0  0  0  0  0  0  0
    1.0458    1.2493   -1.6789 C   0  0  0  0  0  0  0  0  0  0  0  0
    0.4771    2.3046   -1.4316 O   0  0  0  0  0  0  0  0  0  0  0  0
    2.2219    1.2653   -2.3336 O   0  0  0  0  0  0  0  0  0  0  0  0
    2.4287    2.1890   -2.4791 H   0  0  0  0  0  0  0  0  0  0  0  0
   -0.1923    1.1526    0.7617 C   0  0  0  0  0  0  0  0  0  0  0  0
   -1.1582    1.8438    0.4410 O   0  0  0  0  0  0  0  0  0  0  0  0
    0.7203    1.5683    1.6472 N   0  0  0  0  0  0  0  0  0  0  0  0
    1.5210    0.9664    1.8100 H   0  0  0  0  0  0  0  0  0  0  0  0
    0.6747    2.8558    2.3368 C   0  0  0  0  0  0  0  0  0  0  0  0
   -0.3018    2.9877    2.8079 H   0  0  0  0  0  0  0  0  0  0  0  0
    1.4516    2.8997    3.1011 H   0  0  0  0  0  0  0  0  0  0  0  0
    0.8279    3.6639    1.6193 H   0  0  0  0  0  0  0  0  0  0  0  0
  5  6  2  0  0  0  0
  5  7  1  0  0  0  0
  2  3  1  0  0  0  0
  2  4  1  0  0  0  0
  2  5  1  0  0  0  0
  1  2  1  0  0  0  0
 18 19  2  0  0  0  0
 18 20  1  0  0  0  0
 16 17  1  0  0  0  0
 14 15  2  0  0  0  0
 14 16  1  0  0  0  0
 11 12  1  0  0  0  0
 11 13  1  0  0  0  0
 11 14  1  0  0  0  0
  9 10  1  0  0  0  0
  9 11  1  0  0  0  0
  9 18  1  0  0  0  0
  7  8  1  0  0  0  0
  7  9  1  0  0  0  0
 22 23  1  0  0  0  0
 22 24  1  0  0  0  0
 22 25  1  0  0  0  0
 20 21  1  0  0  0  0
 20 22  1  0  0  0  0
M  END
$$$$
default_name
  -OEChem-02102213163D

 25 24  0     1  0  0  0  0  0999 V2000
   -2.7826   -3.8464    0.7821 H   0  0  0  0  0  0  0  0  0  0  0  0
   -2.8156   -2.8034    0.4711 C   0  0  0  0  0  0  0  0  0  0  0  0
   -3.4336   -2.2354    1.1641 H   0  0  0  0  0  0  0  0  0  0  0  0
   -3.2256   -2.7344   -0.5349 H   0  0  0  0  0  0  0  0  0  0  0  0
   -1.4126   -2.2444    0.4801 C   0  0  0  0  0  0  0  0  0  0  0  0
   -0.4686   -2.9534    0.8001 O   0  0  0  0  0  0  0  0  0  0  0  0
   -1.2736   -0.9704    0.1241 N   0  0  0  0  0  0  0  0  0  0  0  0
   -2.0996   -0.4354   -0.1019 H   0  0  0  0  0  0  0  0  0  0  0  0
   -0.0016   -0.2394    0.1271 C   0  0  1  0  0  0  0  0  0  0  0  0
    0.7164   -0.7963    0.7332 H   0  0  0  0  0  0  0  0  0  0  0  0
    0.5351   -0.1414   -1.3146 C   0  0  0  0  0  0  0  0  0  0  0  0
    1.3711   -0.8309   -1.4383 H   0  0  0  0  0  0  0  0  0  0  0  0
   -0.2461   -0.4324   -2.0178 H   0  0  0  0  0  0  0  0  0  0  0  0
    1.0458    1.2493   -1.6789 C   0  0  0  0  0  0  0  0  0  0  0  0
    0.6282    2.3045   -1.2202 O   0  0  0  0  0  0  0  0  0  0  0  0
    2.0347    1.2663   -2.5920 O   0  0  0  0  0  0  0  0  0  0  0  0
    2.2681    2.1877   -2.7090 H   0  0  0  0  0  0  0  0  0  0  0  0
   -0.1923    1.1526    0.7617 C   0  0  0  0  0  0  0  0  0  0  0  0
   -1.1582    1.8438    0.4410 O   0  0  0  0  0  0  0  0  0  0  0  0
    0.7203    1.5683    1.6472 N   0  0  0  0  0  0  0  0  0  0  0  0
    1.5210    0.9664    1.8100 H   0  0  0  0  0  0  0  0  0  0  0  0
    0.6747    2.8558    2.3368 C   0  0  0  0  0  0  0  0  0  0  0  0
   -0.3018    2.9877    2.8079 H   0  0  0  0  0  0  0  0  0  0  0  0
    1.4516    2.8997    3.1011 H   0  0  0  0  0  0  0  0  0  0  0  0
    0.8279    3.6639    1.6193 H   0  0  0  0  0  0  0  0  0  0  0  0
  5  6  2  0  0  0  0
  5  7  1  0  0  0  0
  2  3  1  0  0  0  0
  2  4  1  0  0  0  0
  2  5  1  0  0  0  0
  1  2  1  0  0  0  0
 18 19  2  0  0  0  0
 18 20  1  0  0  0  0
 16 17  1  0  0  0  0
 14 15  2  0  0  0  0
 14 16  1  0  0  0  0
 11 12  1  0  0  0  0
 11 13  1  0  0  0  0
 11 14  1  0  0  0  0
  9 10  1  0  0  0  0
  9 11  1  0  0  0  0
  9 18  1  0  0  0  0
  7  8  1  0  0  0  0
  7  9  1  0  0  0  0
 22 23  1  0  0  0  0
 22 24  1  0  0  0  0
 22 25  1  0  0  0  0
 20 21  1  0  0  0  0
 20 22  1  0  0  0  0
M  END
$$$$
default_name
  -OEChem-02102213163D

 25 24  0     1  0  0  0  0  0999 V2000
   -2.7826   -3.8464    0.7821 H   0  0  0  0  0  0  0  0  0  0  0  0
   -2.8156   -2.8034    0.4711 C   0  0  0  0  0  0  0  0  0  0  0  0
   -3.4336   -2.2354    1.1641 H   0  0  0  0  0  0  0  0  0  0  0  0
   -3.2256   -2.7344   -0.5349 H   0  0  0  0  0  0  0  0  0  0  0  0
   -1.4126   -2.2444    0.4801 C   0  0  0  0  0  0  0  0  0  0  0  0
   -0.4686   -2.9534    0.8001 O   0  0  0  0  0  0  0  0  0  0  0  0
   -1.2736   -0.9704    0.1241 N   0  0  0  0  0  0  0  0  0  0  0  0
   -2.0996   -0.4354   -0.1019 H   0  0  0  0  0  0  0  0  0  0  0  0
   -0.0016   -0.2394    0.1271 C   0  0  1  0  0  0  0  0  0  0  0  0
    0.7164   -0.7963    0.7332 H   0  0  0  0  0  0  0  0  0  0  0  0
    0.5351   -0.1414   -1.3146 C   0  0  0  0  0  0  0  0  0  0  0  0
    1.3711   -0.8309   -1.4383 H   0  0  0  0  0  0  0  0  0  0  0  0
   -0.2461   -0.4324   -2.0178 H   0  0  0  0  0  0  0  0  0  0  0  0
    1.0458    1.2493   -1.6789 C   0  0  0  0  0  0  0  0  0  0  0  0
    0.8240    2.2768   -1.0516 O   0  0  0  0  0  0  0  0  0  0  0  0
    1.7931    1.3013   -2.7973 O   0  0  0  0  0  0  0  0  0  0  0  0
    2.0586    2.2164   -2.8933 H   0  0  0  0  0  0  0  0  0  0  0  0
   -0.1923    1.1526    0.7617 C   0  0  0  0  0  0  0  0  0  0  0  0
   -1.1582    1.8438    0.4410 O   0  0  0  0  0  0  0  0  0  0  0  0
    0.7203    1.5683    1.6472 N   0  0  0  0  0  0  0  0  0  0  0  0
    1.5210    0.9664    1.8100 H   0  0  0  0  0  0  0  0  0  0  0  0
    0.6747    2.8558    2.3368 C   0  0  0  0  0  0  0  0  0  0  0  0
   -0.3018    2.9877    2.8079 H   0  0  0  0  0  0  0  0  0  0  0  0
    1.4516    2.8997    3.1011 H   0  0  0  0  0  0  0  0  0  0  0  0
    0.8279    3.6639    1.6193 H   0  0  0  0  0  0  0  0  0  0  0  0
  5  6  2  0  0  0  0
  5  7  1  0  0  0  0
  2  3  1  0  0  0  0
  2  4  1  0  0  0  0
  2  5  1  0  0  0  0
  1  2  1  0  0  0  0
 18 19  2  0  0  0  0
 18 20  1  0  0  0  0
 16 17  1  0  0  0  0
 14 15  2  0  0  0  0
 14 16  1  0  0  0  0
 11 12  1  0  0  0  0
 11 13  1  0  0  0  0
 11 14  1  0  0  0  0
  9 10  1  0  0  0  0
  9 11  1  0  0  0  0
  9 18  1  0  0  0  0
  7  8  1  0  0  0  0
  7  9  1  0  0  0  0
 22 23  1  0  0  0  0
 22 24  1  0  0  0  0
 22 25  1  0  0  0  0
 20 21  1  0  0  0  0
 20 22  1  0  0  0  0
M  END
$$$$
default_name
  -OEChem-02102213163D

 25 24  0     1  0  0  0  0  0999 V2000
   -2.7826   -3.8464    0.7821 H   0  0  0  0  0  0  0  0  0  0  0  0
   -2.8156   -2.8034    0.4711 C   0  0  0  0  0  0  0  0  0  0  0  0
   -3.4336   -2.2354    1.1641 H   0  0  0  0  0  0  0  0  0  0  0  0
   -3.2256   -2.7344   -0.5349 H   0  0  0  0  0  0  0  0  0  0  0  0
   -1.4126   -2.2444    0.4801 C   0  0  0  0  0  0  0  0  0  0  0  0
   -0.4686   -2.9534    0.8001 O   0  0  0  0  0  0  0  0  0  0  0  0
   -1.2736   -0.9704    0.1241 N   0  0  0  0  0  0  0  0  0  0  0  0
   -2.0996   -0.4354   -0.1019 H   0  0  0  0  0  0  0  0  0  0  0  0
   -0.0016   -0.2394    0.1271 C   0  0  1  0  0  0  0  0  0  0  0  0
    0.7164   -0.7963    0.7332 H   0  0  0  0  0  0  0  0  0  0  0  0
    0.5351   -0.1414   -1.3146 C   0  0  0  0  0  0  0  0  0  0  0  0
    1.3711   -0.8309   -1.4383 H   0  0  0  0  0  0  0  0  0  0  0  0
   -0.2461   -0.4324   -2.0178 H   0  0  0  0  0  0  0  0  0  0  0  0
    1.0458    1.2493   -1.6789 C   0  0  0  0  0  0  0  0  0  0  0  0
    1.0511    2.2232   -0.9375 O   0  0  0  0  0  0  0  0  0  0  0  0
    1.5134    1.3678   -2.9356 O   0  0  0  0  0  0  0  0  0  0  0  0
    1.8146    2.2730   -3.0193 H   0  0  0  0  0  0  0  0  0  0  0  0
   -0.1923    1.1526    0.7617 C   0  0  0  0  0  0  0  0  0  0  0  0
   -1.1582    1.8438    0.4410 O   0  0  0  0  0  0  0  0  0  0  0  0
    0.7203    1.5683    1.6472 N   0  0  0  0  0  0  0  0  0  0  0  0
    1.5210    0.9664    1.8100 H   0  0  0  0  0  0  0  0  0  0  0  0
    0.6747    2.8558    2.3368 C   0  0  0  0  0  0  0  0  0  0  0  0
   -0.3018    2.9877    2.8079 H   0  0  0  0  0  0  0  0  0  0  0  0
    1.4516    2.8997    3.1011 H   0  0  0  0  0  0  0  0  0  0  0  0
    0.8279    3.6639    1.6193 H   0  0  0  0  0  0  0  0  0  0  0  0
  5  6  2  0  0  0  0
  5  7  1  0  0  0  0
  2  3  1  0  0  0  0
  2  4  1  0  0  0  0
  2  5  1  0  0  0  0
  1  2  1  0  0  0  0
 18 19  2  0  0  0  0
 18 20  1  0  0  0  0
 16 17  1  0  0  0  0
 14 15  2  0  0  0  0
 14 16  1  0  0  0  0
 11 12  1  0  0  0  0
 11 13  1  0  0  0  0
 11 14  1  0  0  0  0
  9 10  1  0  0  0  0
  9 11  1  0  0  0  0
  9 18  1  0  0  0  0
  7  8  1  0  0  0  0
  7  9  1  0  0  0  0
 22 23  1  0  0  0  0
 22 24  1  0  0  0  0
 22 25  1  0  0  0  0
 20 21  1  0  0  0  0
 20 22  1  0  0  0  0
M  END
$$$$
default_name
  -OEChem-02102213163D

 25 24  0     1  0  0  0  0  0999 V2000
   -2.7826   -3.8464    0.7821 H   0  0  0  0  0  0  0  0  0  0  0  0
   -2.8156   -2.8034    0.4711 C   0  0  0  0  0  0  0  0  0  0  0  0
   -3.4336   -2.2354    1.1641 H   0  0  0  0  0  0  0  0  0  0  0  0
   -3.2256   -2.7344   -0.5349 H   0  0  0  0  0  0  0  0  0  0  0  0
   -1.4126   -2.2444    0.4801 C   0  0  0  0  0  0  0  0  0  0  0  0
   -0.4686   -2.9534    0.8001 O   0  0  0  0  0  0  0  0  0  0  0  0
   -1.2736   -0.9704    0.1241 N   0  0  0  0  0  0  0  0  0  0  0  0
   -2.0996   -0.4354   -0.1019 H   0  0  0  0  0  0  0  0  0  0  0  0
   -0.0016   -0.2394    0.1271 C   0  0  1  0  0  0  0  0  0  0  0  0
    0.7164   -0.7963    0.7332 H   0  0  0  0  0  0  0  0  0  0  0  0
    0.5351   -0.1414   -1.3146 C   0  0  0  0  0  0  0  0  0  0  0  0
    1.3711   -0.8309   -1.4383 H   0  0  0  0  0  0  0  0  0  0  0  0
   -0.2461   -0.4324   -2.0178 H   0  0  0  0  0  0  0  0  0  0  0  0
    1.0458    1.2493   -1.6789 C   0  0  0  0  0  0  0  0  0  0  0  0
    1.2942    2.1476   -0.8854 O   0  0  0  0  0  0  0  0  0  0  0  0
    1.2148    1.4612   -2.9974 O   0  0  0  0  0  0  0  0  0  0  0  0
    1.5527    2.3537   -3.0786 H   0  0  0  0  0  0  0  0  0  0  0  0
   -0.1923    1.1526    0.7617 C   0  0  0  0  0  0  0  0  0  0  0  0
   -1.1582    1.8438    0.4410 O   0  0  0  0  0  0  0  0  0  0  0  0
    0.7203    1.5683    1.6472 N   0  0  0  0  0  0  0  0  0  0  0  0
    1.5210    0.9664    1.8100 H   0  0  0  0  0  0  0  0  0  0  0  0
    0.6747    2.8558    2.3368 C   0  0  0  0  0  0  0  0  0  0  0  0
   -0.3018    2.9877    2.8079 H   0  0  0  0  0  0  0  0  0  0  0  0
    1.4516    2.8997    3.1011 H   0  0  0  0  0  0  0  0  0  0  0  0
    0.8279    3.6639    1.6193 H   0  0  0  0  0  0  0  0  0  0  0  0
  5  6  2  0  0  0  0
  5  7  1  0  0  0  0
  2  3  1  0  0  0  0
  2  4  1  0  0  0  0
  2  5  1  0  0  0  0
  1  2  1  0  0  0  0
 18 19  2  0  0  0  0
 18 20  1  0  0  0  0
 16 17  1  0  0  0  0
 14 15  2  0  0  0  0
 14 16  1  0  0  0  0
 11 12  1  0  0  0  0
 11 13  1  0  0  0  0
 11 14  1  0  0  0  0
  9 10  1  0  0  0  0
  9 11  1  0  0  0  0
  9 18  1  0  0  0  0
  7  8  1  0  0  0  0
  7  9  1  0  0  0  0
 22 23  1  0  0  0  0
 22 24  1  0  0  0  0
 22 25  1  0  0  0  0
 20 21  1  0  0  0  0
 20 22  1  0  0  0  0
M  END
$$$$
default_name
  -OEChem-02102213163D

 25 24  0     1  0  0  0  0  0999 V2000
   -2.7826   -3.8464    0.7821 H   0  0  0  0  0  0  0  0  0  0  0  0
   -2.8156   -2.8034    0.4711 C   0  0  0  0  0  0  0  0  0  0  0  0
   -3.4336   -2.2354    1.1641 H   0  0  0  0  0  0  0  0  0  0  0  0
   -3.2256   -2.7344   -0.5349 H   0  0  0  0  0  0  0  0  0  0  0  0
   -1.4126   -2.2444    0.4801 C   0  0  0  0  0  0  0  0  0  0  0  0
   -0.4686   -2.9534    0.8001 O   0  0  0  0  0  0  0  0  0  0  0  0
   -1.2736   -0.9704    0.1241 N   0  0  0  0  0  0  0  0  0  0  0  0
   -2.0996   -0.4354   -0.1019 H   0  0  0  0  0  0  0  0  0  0  0  0
   -0.0016   -0.2394    0.1271 C   0  0  1  0  0  0  0  0  0  0  0  0
    0.7164   -0.7963    0.7332 H   0  0  0  0  0  0  0  0  0  0  0  0
    0.5351   -0.1414   -1.3146 C   0  0  0  0  0  0  0  0  0  0  0  0
    1.3711   -0.8309   -1.4383 H   0  0  0  0  0  0  0  0  0  0  0  0
   -0.2461   -0.4324   -2.0178 H   0  0  0  0  0  0  0  0  0  0  0  0
    1.0458    1.2493   -1.6789 C   0  0  0  0  0  0  0  0  0  0  0  0
    1.5366    2.0550   -0.8990 O   0  0  0  0  0  0  0  0  0  0  0  0
    0.9175    1.5754   -2.9786 O   0  0  0  0  0  0  0  0  0  0  0  0
    1.2906    2.4529   -3.0671 H   0  0  0  0  0  0  0  0  0  0  0  0
   -0.1923    1.1526    0.7617 C   0  0  0  0  0  0  0  0  0  0  0  0
   -1.1582    1.8438    0.4410 O   0  0  0  0  0  0  0  0  0  0  0  0
    0.7203    1.5683    1.6472 N   0  0  0  0  0  0  0  0  0  0  0  0
    1.5210    0.9664    1.8100 H   0  0  0  0  0  0  0  0  0  0  0  0
    0.6747    2.8558    2.3368 C   0  0  0  0  0  0  0  0  0  0  0  0
   -0.3018    2.9877    2.8079 H   0  0  0  0  0  0  0  0  0  0  0  0
    1.4516    2.8997    3.1011 H   0  0  0  0  0  0  0  0  0  0  0  0
    0.8279    3.6639    1.6193 H   0  0  0  0  0  0  0  0  0  0  0  0
  5  6  2  0  0  0  0
  5  7  1  0  0  0  0
  2  3  1  0  0  0  0
  2  4  1  0  0  0  0
  2  5  1  0  0  0  0
  1  2  1  0  0  0  0
 18 19  2  0  0  0  0
 18 20  1  0  0  0  0
 16 17  1  0  0  0  0
 14 15  2  0  0  0  0
 14 16  1  0  0  0  0
 11 12  1  0  0  0  0
 11 13  1  0  0  0  0
 11 14  1  0  0  0  0
  9 10  1  0  0  0  0
  9 11  1  0  0  0  0
  9 18  1  0  0  0  0
  7  8  1  0  0  0  0
  7  9  1  0  0  0  0
 22 23  1  0  0  0  0
 22 24  1  0  0  0  0
 22 25  1  0  0  0  0
 20 21  1  0  0  0  0
 20 22  1  0  0  0  0
M  END
$$$$
default_name
  -OEChem-02102213163D

 25 24  0     1  0  0  0  0  0999 V2000
   -2.7826   -3.8464    0.7821 H   0  0  0  0  0  0  0  0  0  0  0  0
   -2.8156   -2.8034    0.4711 C   0  0  0  0  0  0  0  0  0  0  0  0
   -3.4336   -2.2354    1.1641 H   0  0  0  0  0  0  0  0  0  0  0  0
   -3.2256   -2.7344   -0.5349 H   0  0  0  0  0  0  0  0  0  0  0  0
   -1.4126   -2.2444    0.4801 C   0  0  0  0  0  0  0  0  0  0  0  0
   -0.4686   -2.9534    0.8001 O   0  0  0  0  0  0  0  0  0  0  0  0
   -1.2736   -0.9704    0.1241 N   0  0  0  0  0  0  0  0  0  0  0  0
   -2.0996   -0.4354   -0.1019 H   0  0  0  0  0  0  0  0  0  0  0  0
   -0.0016   -0.2394    0.1271 C   0  0  1  0  0  0  0  0  0  0  0  0
    0.7164   -0.7963    0.7332 H   0  0  0  0  0  0  0  0  0  0  0  0
    0.5351   -0.1414   -1.3146 C   0  0  0  0  0  0  0  0  0  0  0  0
    1.3711   -0.8309   -1.4383 H   0  0  0  0  0  0  0  0  0  0  0  0
   -0.2461   -0.4324   -2.0178 H   0  0  0  0  0  0  0  0  0  0  0  0
    1.0458    1.2493   -1.6789 C   0  0  0  0  0  0  0  0  0  0  0  0
    1.7618    1.9518   -0.9773 O   0  0  0  0  0  0  0  0  0  0  0  0
    0.6418    1.7023   -2.8804 O   0  0  0  0  0  0  0  0  0  0  0  0
    1.0464    2.5640   -2.9856 H   0  0  0  0  0  0  0  0  0  0  0  0
   -0.1923    1.1526    0.7617 C   0  0  0  0  0  0  0  0  0  0  0  0
   -1.1582    1.8438    0.4410 O   0  0  0  0  0  0  0  0  0  0  0  0
    0.7203    1.5683    1.6472 N   0  0  0  0  0  0  0  0  0  0  0  0
    1.5210    0.9664    1.8100 H   0  0  0  0  0  0  0  0  0  0  0  0
    0.6747    2.8558    2.3368 C   0  0  0  0  0  0  0  0  0  0  0  0
   -0.3018    2.9877    2.8079 H   0  0  0  0  0  0  0  0  0  0  0  0
    1.4516    2.8997    3.1011 H   0  0  0  0  0  0  0  0  0  0  0  0
    0.8279    3.6639    1.6193 H   0  0  0  0  0  0  0  0  0  0  0  0
  5  6  2  0  0  0  0
  5  7  1  0  0  0  0
  2  3  1  0  0  0  0
  2  4  1  0  0  0  0
  2  5  1  0  0  0  0
  1  2  1  0  0  0  0
 18 19  2  0  0  0  0
 18 20  1  0  0  0  0
 16 17  1  0  0  0  0
 14 15  2  0  0  0  0
 14 16  1  0  0  0  0
 11 12  1  0  0  0  0
 11 13  1  0  0  0  0
 11 14  1  0  0  0  0
  9 10  1  0  0  0  0
  9 11  1  0  0  0  0
  9 18  1  0  0  0  0
  7  8  1  0  0  0  0
  7  9  1  0  0  0  0
 22 23  1  0  0  0  0
 22 24  1  0  0  0  0
 22 25  1  0  0  0  0
 20 21  1  0  0  0  0
 20 22  1  0  0  0  0
M  END
$$$$
default_name
  -OEChem-02102213163D

 25 24  0     1  0  0  0  0  0999 V2000
   -2.7826   -3.8464    0.7821 H   0  0  0  0  0  0  0  0  0  0  0  0
   -2.8156   -2.8034    0.4711 C   0  0  0  0  0  0  0  0  0  0  0  0
   -3.4336   -2.2354    1.1641 H   0  0  0  0  0  0  0  0  0  0  0  0
   -3.2256   -2.7344   -0.5349 H   0  0  0  0  0  0  0  0  0  0  0  0
   -1.4126   -2.2444    0.4801 C   0  0  0  0  0  0  0  0  0  0  0  0
   -0.4686   -2.9534    0.8001 O   0  0  0  0  0  0  0  0  0  0  0  0
   -1.2736   -0.9704    0.1241 N   0  0  0  0  0  0  0  0  0  0  0  0
   -2.0996   -0.4354   -0.1019 H   0  0  0  0  0  0  0  0  0  0  0  0
   -0.0016   -0.2394    0.1271 C   0  0  1  0  0  0  0  0  0  0  0  0
    0.7164   -0.7963    0.7332 H   0  0  0  0  0  0  0  0  0  0  0  0
    0.5351   -0.1414   -1.3146 C   0  0  0  0  0  0  0  0  0  0  0  0
    1.3711   -0.8309   -1.4383 H   0  0  0  0  0  0  0  0  0  0  0  0
   -0.2461   -0.4324   -2.0178 H   0  0  0  0  0  0  0  0  0  0  0  0
    1.0458    1.2493   -1.6789 C   0  0  0  0  0  0  0  0  0  0  0  0
    1.9544    1.8450   -1.1151 O   0  0  0  0  0  0  0  0  0  0  0  0
    0.4065    1.8335   -2.7095 O   0  0  0  0  0  0  0  0  0  0  0  0
    0.8365    2.6793   -2.8395 H   0  0  0  0  0  0  0  0  0  0  0  0
   -0.1923    1.1526    0.7617 C   0  0  0  0  0  0  0  0  0  0  0  0
   -1.1582    1.8438    0.4410 O   0  0  0  0  0  0  0  0  0  0  0  0
    0.7203    1.5683    1.6472 N   0  0  0  0  0  0  0  0  0  0  0  0
    1.5210    0.9664    1.8100 H   0  0  0  0  0  0  0  0  0  0  0  0
    0.6747    2.8558    2.3368 C   0  0  0  0  0  0  0  0  0  0  0  0
   -0.3018    2.9877    2.8079 H   0  0  0  0  0  0  0  0  0  0  0  0
    1.4516    2.8997    3.1011 H   0  0  0  0  0  0  0  0  0  0  0  0
    0.8279    3.6639    1.6193 H   0  0  0  0  0  0  0  0  0  0  0  0
  5  6  2  0  0  0  0
  5  7  1  0  0  0  0
  2  3  1  0  0  0  0
  2  4  1  0  0  0  0
  2  5  1  0  0  0  0
  1  2  1  0  0  0  0
 18 19  2  0  0  0  0
 18 20  1  0  0  0  0
 16 17  1  0  0  0  0
 14 15  2  0  0  0  0
 14 16  1  0  0  0  0
 11 12  1  0  0  0  0
 11 13  1  0  0  0  0
 11 14  1  0  0  0  0
  9 10  1  0  0  0  0
  9 11  1  0  0  0  0
  9 18  1  0  0  0  0
  7  8  1  0  0  0  0
  7  9  1  0  0  0  0
 22 23  1  0  0  0  0
 22 24  1  0  0  0  0
 22 25  1  0  0  0  0
 20 21  1  0  0  0  0
 20 22  1  0  0  0  0
M  END
$$$$
default_name
  -OEChem-02102213163D

 25 24  0     1  0  0  0  0  0999 V2000
   -2.7826   -3.8464    0.7821 H   0  0  0  0  0  0  0  0  0  0  0  0
   -2.8156   -2.8034    0.4711 C   0  0  0  0  0  0  0  0  0  0  0  0
   -3.4336   -2.2354    1.1641 H   0  0  0  0  0  0  0  0  0  0  0  0
   -3.2256   -2.7344   -0.5349 H   0  0  0  0  0  0  0  0  0  0  0  0
   -1.4126   -2.2444    0.4801 C   0  0  0  0  0  0  0  0  0  0  0  0
   -0.4686   -2.9534    0.8001 O   0  0  0  0  0  0  0  0  0  0  0  0
   -1.2736   -0.9704    0.1241 N   0  0  0  0  0  0  0  0  0  0  0  0
   -2.0996   -0.4354   -0.1019 H   0  0  0  0  0  0  0  0  0  0  0  0
   -0.0016   -0.2394    0.1271 C   0  0  1  0  0  0  0  0  0  0  0  0
    0.7164   -0.7963    0.7332 H   0  0  0  0  0  0  0  0  0  0  0  0
    0.5351   -0.1414   -1.3146 C   0  0  0  0  0  0  0  0  0  0  0  0
    1.3711   -0.8309   -1.4383 H   0  0  0  0  0  0  0  0  0  0  0  0
   -0.2461   -0.4324   -2.0178 H   0  0  0  0  0  0  0  0  0  0  0  0
    1.0458    1.2493   -1.6789 C   0  0  0  0  0  0  0  0  0  0  0  0
    2.1014    1.7418   -1.3028 O   0  0  0  0  0  0  0  0  0  0  0  0
    0.2277    1.9599   -2.4775 O   0  0  0  0  0  0  0  0  0  0  0  0
    0.6754    2.7910   -2.6390 H   0  0  0  0  0  0  0  0  0  0  0  0
   -0.1923    1.1526    0.7617 C   0  0  0  0  0  0  0  0  0  0  0  0
   -1.1582    1.8438    0.4410 O   0  0  0  0  0  0  0  0  0  0  0  0
    0.7203    1.5683    1.6472 N   0  0  0  0  0  0  0  0  0  0  0  0
    1.5210    0.9664    1.8100 H   0  0  0  0  0  0  0  0  0  0  0  0
    0.6747    2.8558    2.3368 C   0  0  0  0  0  0  0  0  0  0  0  0
   -0.3018    2.9877    2.8079 H   0  0  0  0  0  0  0  0  0  0  0  0
    1.4516    2.8997    3.1011 H   0  0  0  0  0  0  0  0  0  0  0  0
    0.8279    3.6639    1.6193 H   0  0  0  0  0  0  0  0  0  0  0  0
  5  6  2  0  0  0  0
  5  7  1  0  0  0  0
  2  3  1  0  0  0  0
  2  4  1  0  0  0  0
  2  5  1  0  0  0  0
  1  2  1  0  0  0  0
 18 19  2  0  0  0  0
 18 20  1  0  0  0  0
 16 17  1  0  0  0  0
 14 15  2  0  0  0  0
 14 16  1  0  0  0  0
 11 12  1  0  0  0  0
 11 13  1  0  0  0  0
 11 14  1  0  0  0  0
  9 10  1  0  0  0  0
  9 11  1  0  0  0  0
  9 18  1  0  0  0  0
  7  8  1  0  0  0  0
  7  9  1  0  0  0  0
 22 23  1  0  0  0  0
 22 24  1  0  0  0  0
 22 25  1  0  0  0  0
 20 21  1  0  0  0  0
 20 22  1  0  0  0  0
M  END
$$$$
default_name
  -OEChem-02102213163D

 25 24  0     1  0  0  0  0  0999 V2000
   -2.7826   -3.8464    0.7821 H   0  0  0  0  0  0  0  0  0  0  0  0
   -2.8156   -2.8034    0.4711 C   0  0  0  0  0  0  0  0  0  0  0  0
   -3.4336   -2.2354    1.1641 H   0  0  0  0  0  0  0  0  0  0  0  0
   -3.2256   -2.7344   -0.5349 H   0  0  0  0  0  0  0  0  0  0  0  0
   -1.4126   -2.2444    0.4801 C   0  0  0  0  0  0  0  0  0  0  0  0
   -0.4686   -2.9534    0.8001 O   0  0  0  0  0  0  0  0  0  0  0  0
   -1.2736   -0.9704    0.1241 N   0  0  0  0  0  0  0  0  0  0  0  0
   -2.0996   -0.4354   -0.1019 H   0  0  0  0  0  0  0  0  0  0  0  0
   -0.0016   -0.2394    0.1271 C   0  0  1  0  0  0  0  0  0  0  0  0
    0.7164   -0.7963    0.7332 H   0  0  0  0  0  0  0  0  0  0  0  0
    0.5351   -0.1414   -1.3146 C   0  0  0  0  0  0  0  0  0  0  0  0
    1.3711   -0.8309   -1.4383 H   0  0  0  0  0  0  0  0  0  0  0  0
   -0.2461   -0.4324   -2.0178 H   0  0  0  0  0  0  0  0  0  0  0  0
    1.0458    1.2493   -1.6789 C   0  0  0  0  0  0  0  0  0  0  0  0
    2.1927    1.6494   -1.5278 O   0  0  0  0  0  0  0  0  0  0  0  0
    0.1175    2.0730   -2.2003 O   0  0  0  0  0  0  0  0  0  0  0  0
    0.5740    2.8915   -2.3976 H   0  0  0  0  0  0  0  0  0  0  0  0
   -0.1923    1.1526    0.7617 C   0  0  0  0  0  0  0  0  0  0  0  0
   -1.1582    1.8438    0.4410 O   0  0  0  0  0  0  0  0  0  0  0  0
    0.7203    1.5683    1.6472 N   0  0  0  0  0  0  0  0  0  0  0  0
    1.5210    0.9664    1.8100 H   0  0  0  0  0  0  0  0  0  0  0  0
    0.6747    2.8558    2.3368 C   0  0  0  0  0  0  0  0  0  0  0  0
   -0.3018    2.9877    2.8079 H   0  0  0  0  0  0  0  0  0  0  0  0
    1.4516    2.8997    3.1011 H   0  0  0  0  0  0  0  0  0  0  0  0
    0.8279    3.6639    1.6193 H   0  0  0  0  0  0  0  0  0  0  0  0
  5  6  2  0  0  0  0
  5  7  1  0  0  0  0
  2  3  1  0  0  0  0
  2  4  1  0  0  0  0
  2  5  1  0  0  0  0
  1  2  1  0  0  0  0
 18 19  2  0  0  0  0
 18 20  1  0  0  0  0
 16 17  1  0  0  0  0
 14 15  2  0  0  0  0
 14 16  1  0  0  0  0
 11 12  1  0  0  0  0
 11 13  1  0  0  0  0
 11 14  1  0  0  0  0
  9 10  1  0  0  0  0
  9 11  1  0  0  0  0
  9 18  1  0  0  0  0
  7  8  1  0  0  0  0
  7  9  1  0  0  0  0
 22 23  1  0  0  0  0
 22 24  1  0  0  0  0
 22 25  1  0  0  0  0
 20 21  1  0  0  0  0
 20 22  1  0  0  0  0
M  END
$$$$
default_name
  -OEChem-02102213163D

 25 24  0     1  0  0  0  0  0999 V2000
   -2.7826   -3.8464    0.7821 H   0  0  0  0  0  0  0  0  0  0  0  0
   -2.8156   -2.8034    0.4711 C   0  0  0  0  0  0  0  0  0  0  0  0
   -3.4336   -2.2354    1.1641 H   0  0  0  0  0  0  0  0  0  0  0  0
   -3.2256   -2.7344   -0.5349 H   0  0  0  0  0  0  0  0  0  0  0  0
   -1.4126   -2.2444    0.4801 C   0  0  0  0  0  0  0  0  0  0  0  0
   -0.4686   -2.9534    0.8001 O   0  0  0  0  0  0  0  0  0  0  0  0
   -1.2736   -0.9704    0.1241 N   0  0  0  0  0  0  0  0  0  0  0  0
   -2.0996   -0.4354   -0.1019 H   0  0  0  0  0  0  0  0  0  0  0  0
   -0.0016   -0.2394    0.1271 C   0  0  1  0  0  0  0  0  0  0  0  0
    0.7164   -0.7963    0.7332 H   0  0  0  0  0  0  0  0  0  0  0  0
    0.5351   -0.1414   -1.3146 C   0  0  0  0  0  0  0  0  0  0  0  0
    1.3711   -0.8309   -1.4383 H   0  0  0  0  0  0  0  0  0  0  0  0
   -0.2461   -0.4324   -2.0178 H   0  0  0  0  0  0  0  0  0  0  0  0
    1.0458    1.2493   -1.6789 C   0  0  0  0  0  0  0  0  0  0  0  0
    2.2221    1.5739   -1.7747 O   0  0  0  0  0  0  0  0  0  0  0  0
    0.0835    2.1650   -1.8967 O   0  0  0  0  0  0  0  0  0  0  0  0
    0.5392    2.9739   -2.1318 H   0  0  0  0  0  0  0  0  0  0  0  0
   -0.1923    1.1526    0.7617 C   0  0  0  0  0  0  0  0  0  0  0  0
   -1.1582    1.8438    0.4410 O   0  0  0  0  0  0  0  0  0  0  0  0
    0.7203    1.5683    1.6472 N   0  0  0  0  0  0  0  0  0  0  0  0
    1.5210    0.9664    1.8100 H   0  0  0  0  0  0  0  0  0  0  0  0
    0.6747    2.8558    2.3368 C   0  0  0  0  0  0  0  0  0  0  0  0
   -0.3018    2.9877    2.8079 H   0  0  0  0  0  0  0  0  0  0  0  0
    1.4516    2.8997    3.1011 H   0  0  0  0  0  0  0  0  0  0  0  0
    0.8279    3.6639    1.6193 H   0  0  0  0  0  0  0  0  0  0  0  0
  5  6  2  0  0  0  0
  5  7  1  0  0  0  0
  2  3  1  0  0  0  0
  2  4  1  0  0  0  0
  2  5  1  0  0  0  0
  1  2  1  0  0  0  0
 18 19  2  0  0  0  0
 18 20  1  0  0  0  0
 16 17  1  0  0  0  0
 14 15  2  0  0  0  0
 14 16  1  0  0  0  0
 11 12  1  0  0  0  0
 11 13  1  0  0  0  0
 11 14  1  0  0  0  0
  9 10  1  0  0  0  0
  9 11  1  0  0  0  0
  9 18  1  0  0  0  0
  7  8  1  0  0  0  0
  7  9  1  0  0  0  0
 22 23  1  0  0  0  0
 22 24  1  0  0  0  0
 22 25  1  0  0  0  0
 20 21  1  0  0  0  0
 20 22  1  0  0  0  0
M  END
$$$$
default_name
  -OEChem-02102213163D

 25 24  0     1  0  0  0  0  0999 V2000
   -2.7826   -3.8464    0.7821 H   0  0  0  0  0  0  0  0  0  0  0  0
   -2.8156   -2.8034    0.4711 C   0  0  0  0  0  0  0  0  0  0  0  0
   -3.4336   -2.2354    1.1641 H   0  0  0  0  0  0  0  0  0  0  0  0
   -3.2256   -2.7344   -0.5349 H   0  0  0  0  0  0  0  0  0  0  0  0
   -1.4126   -2.2444    0.4801 C   0  0  0  0  0  0  0  0  0  0  0  0
   -0.4686   -2.9534    0.8001 O   0  0  0  0  0  0  0  0  0  0  0  0
   -1.2736   -0.9704    0.1241 N   0  0  0  0  0  0  0  0  0  0  0  0
   -2.0996   -0.4354   -0.1019 H   0  0  0  0  0  0  0  0  0  0  0  0
   -0.0016   -0.2394    0.1271 C   0  0  1  0  0  0  0  0  0  0  0  0
    0.7164   -0.7963    0.7332 H   0  0  0  0  0  0  0  0  0  0  0  0
    0.5351   -0.1414   -1.3146 C   0  0  0  0  0  0  0  0  0  0  0  0
    1.3711   -0.8309   -1.4383 H   0  0  0  0  0  0  0  0  0  0  0  0
   -0.2461   -0.4324   -2.0178 H   0  0  0  0  0  0  0  0  0  0  0  0
    1.0458    1.2493   -1.6789 C   0  0  0  0  0  0  0  0  0  0  0  0
    2.1877    1.5206   -2.0266 O   0  0  0  0  0  0  0  0  0  0  0  0
    0.1279    2.2297   -1.5875 O   0  0  0  0  0  0  0  0  0  0  0  0
    0.5734    3.0326   -1.8597 H   0  0  0  0  0  0  0  0  0  0  0  0
   -0.1923    1.1526    0.7617 C   0  0  0  0  0  0  0  0  0  0  0  0
   -1.1582    1.8438    0.4410 O   0  0  0  0  0  0  0  0  0  0  0  0
    0.7203    1.5683    1.6472 N   0  0  0  0  0  0  0  0  0  0  0  0
    1.5210    0.9664    1.8100 H   0  0  0  0  0  0  0  0  0  0  0  0
    0.6747    2.8558    2.3368 C   0  0  0  0  0  0  0  0  0  0  0  0
   -0.3018    2.9877    2.8079 H   0  0  0  0  0  0  0  0  0  0  0  0
    1.4516    2.8997    3.1011 H   0  0  0  0  0  0  0  0  0  0  0  0
    0.8279    3.6639    1.6193 H   0  0  0  0  0  0  0  0  0  0  0  0
  5  6  2  0  0  0  0
  5  7  1  0  0  0  0
  2  3  1  0  0  0  0
  2  4  1  0  0  0  0
  2  5  1  0  0  0  0
  1  2  1  0  0  0  0
 18 19  2  0  0  0  0
 18 20  1  0  0  0  0
 16 17  1  0  0  0  0
 14 15  2  0  0  0  0
 14 16  1  0  0  0  0
 11 12  1  0  0  0  0
 11 13  1  0  0  0  0
 11 14  1  0  0  0  0
  9 10  1  0  0  0  0
  9 11  1  0  0  0  0
  9 18  1  0  0  0  0
  7  8  1  0  0  0  0
  7  9  1  0  0  0  0
 22 23  1  0  0  0  0
 22 24  1  0  0  0  0
 22 25  1  0  0  0  0
 20 21  1  0  0  0  0
 20 22  1  0  0  0  0
M  END
$$$$
default_name
  -OEChem-02102213163D

 25 24  0     1  0  0  0  0  0999 V2000
   -2.7826   -3.8464    0.7821 H   0  0  0  0  0  0  0  0  0  0  0  0
   -2.8156   -2.8034    0.4711 C   0  0  0  0  0  0  0  0  0  0  0  0
   -3.4336   -2.2354    1.1641 H   0  0  0  0  0  0  0  0  0  0  0  0
   -3.2256   -2.7344   -0.5349 H   0  0  0  0  0  0  0  0  0  0  0  0
   -1.4126   -2.2444    0.4801 C   0  0  0  0  0  0  0  0  0  0  0  0
   -0.4686   -2.9534    0.8001 O   0  0  0  0  0  0  0  0  0  0  0  0
   -1.2736   -0.9704    0.1241 N   0  0  0  0  0  0  0  0  0  0  0  0
   -2.0996   -0.4354   -0.1019 H   0  0  0  0  0  0  0  0  0  0  0  0
   -0.0016   -0.2394    0.1271 C   0  0  1  0  0  0  0  0  0  0  0  0
    0.7164   -0.7963    0.7332 H   0  0  0  0  0  0  0  0  0  0  0  0
    0.5351   -0.1414   -1.3146 C   0  0  0  0  0  0  0  0  0  0  0  0
    1.3711   -0.8309   -1.4383 H   0  0  0  0  0  0  0  0  0  0  0  0
   -0.2461   -0.4324   -2.0178 H   0  0  0  0  0  0  0  0  0  0  0  0
    1.0458    1.2493   -1.6789 C   0  0  0  0  0  0  0  0  0  0  0  0
    2.0916    1.4930   -2.2665 O   0  0  0  0  0  0  0  0  0  0  0  0
    0.2478    2.2626   -1.2937 O   0  0  0  0  0  0  0  0  0  0  0  0
    0.6743    3.0636   -1.5999 H   0  0  0  0  0  0  0  0  0  0  0  0
   -0.1923    1.1526    0.7617 C   0  0  0  0  0  0  0  0  0  0  0  0
   -1.1582    1.8438    0.4410 O   0  0  0  0  0  0  0  0  0  0  0  0
    0.7203    1.5683    1.6472 N   0  0  0  0  0  0  0  0  0  0  0  0
    1.5210    0.9664    1.8100 H   0  0  0  0  0  0  0  0  0  0  0  0
    0.6747    2.8558    2.3368 C   0  0  0  0  0  0  0  0  0  0  0  0
   -0.3018    2.9877    2.8079 H   0  0  0  0  0  0  0  0  0  0  0  0
    1.4516    2.8997    3.1011 H   0  0  0  0  0  0  0  0  0  0  0  0
    0.8279    3.6639    1.6193 H   0  0  0  0  0  0  0  0  0  0  0  0
  5  6  2  0  0  0  0
  5  7  1  0  0  0  0
  2  3  1  0  0  0  0
  2  4  1  0  0  0  0
  2  5  1  0  0  0  0
  1  2  1  0  0  0  0
 18 19  2  0  0  0  0
 18 20  1  0  0  0  0
 16 17  1  0  0  0  0
 14 15  2  0  0  0  0
 14 16  1  0  0  0  0
 11 12  1  0  0  0  0
 11 13  1  0  0  0  0
 11 14  1  0  0  0  0
  9 10  1  0  0  0  0
  9 11  1  0  0  0  0
  9 18  1  0  0  0  0
  7  8  1  0  0  0  0
  7  9  1  0  0  0  0
 22 23  1  0  0  0  0
 22 24  1  0  0  0  0
 22 25  1  0  0  0  0
 20 21  1  0  0  0  0
 20 22  1  0  0  0  0
M  END
$$$$
default_name
  -OEChem-02102213163D

 25 24  0     1  0  0  0  0  0999 V2000
   -2.7826   -3.8464    0.7821 H   0  0  0  0  0  0  0  0  0  0  0  0
   -2.8156   -2.8034    0.4711 C   0  0  0  0  0  0  0  0  0  0  0  0
   -3.4336   -2.2354    1.1641 H   0  0  0  0  0  0  0  0  0  0  0  0
   -3.2256   -2.7344   -0.5349 H   0  0  0  0  0  0  0  0  0  0  0  0
   -1.4126   -2.2444    0.4801 C   0  0  0  0  0  0  0  0  0  0  0  0
   -0.4686   -2.9534    0.8001 O   0  0  0  0  0  0  0  0  0  0  0  0
   -1.2736   -0.9704    0.1241 N   0  0  0  0  0  0  0  0  0  0  0  0
   -2.0996   -0.4354   -0.1019 H   0  0  0  0  0  0  0  0  0  0  0  0
   -0.0016   -0.2394    0.1271 C   0  0  1  0  0  0  0  0  0  0  0  0
    0.7164   -0.7963    0.7332 H   0  0  0  0  0  0  0  0  0  0  0  0
    0.5351   -0.1414   -1.3146 C   0  0  0  0  0  0  0  0  0  0  0  0
    1.3711   -0.8309   -1.4383 H   0  0  0  0  0  0  0  0  0  0  0  0
   -0.2461   -0.4324   -2.0178 H   0  0  0  0  0  0  0  0  0  0  0  0
    1.0458    1.2493   -1.6789 C   0  0  0  0  0  0  0  0  0  0  0  0
    1.9405    1.4932   -2.4778 O   0  0  0  0  0  0  0  0  0  0  0  0
    0.4349    2.2616   -1.0354 O   0  0  0  0  0  0  0  0  0  0  0  0
    0.8349    3.0648   -1.3700 H   0  0  0  0  0  0  0  0  0  0  0  0
   -0.1923    1.1526    0.7617 C   0  0  0  0  0  0  0  0  0  0  0  0
   -1.1582    1.8438    0.4410 O   0  0  0  0  0  0  0  0  0  0  0  0
    0.7203    1.5683    1.6472 N   0  0  0  0  0  0  0  0  0  0  0  0
    1.5210    0.9664    1.8100 H   0  0  0  0  0  0  0  0  0  0  0  0
    0.6747    2.8558    2.3368 C   0  0  0  0  0  0  0  0  0  0  0  0
   -0.3018    2.9877    2.8079 H   0  0  0  0  0  0  0  0  0  0  0  0
    1.4516    2.8997    3.1011 H   0  0  0  0  0  0  0  0  0  0  0  0
    0.8279    3.6639    1.6193 H   0  0  0  0  0  0  0  0  0  0  0  0
  5  6  2  0  0  0  0
  5  7  1  0  0  0  0
  2  3  1  0  0  0  0
  2  4  1  0  0  0  0
  2  5  1  0  0  0  0
  1  2  1  0  0  0  0
 18 19  2  0  0  0  0
 18 20  1  0  0  0  0
 16 17  1  0  0  0  0
 14 15  2  0  0  0  0
 14 16  1  0  0  0  0
 11 12  1  0  0  0  0
 11 13  1  0  0  0  0
 11 14  1  0  0  0  0
  9 10  1  0  0  0  0
  9 11  1  0  0  0  0
  9 18  1  0  0  0  0
  7  8  1  0  0  0  0
  7  9  1  0  0  0  0
 22 23  1  0  0  0  0
 22 24  1  0  0  0  0
 22 25  1  0  0  0  0
 20 21  1  0  0  0  0
 20 22  1  0  0  0  0
M  END
$$$$
default_name
  -OEChem-02102213163D

 25 24  0     1  0  0  0  0  0999 V2000
   -2.7826   -3.8464    0.7821 H   0  0  0  0  0  0  0  0  0  0  0  0
   -2.8156   -2.8034    0.4711 C   0  0  0  0  0  0  0  0  0  0  0  0
   -3.4336   -2.2354    1.1641 H   0  0  0  0  0  0  0  0  0  0  0  0
   -3.2256   -2.7344   -0.5349 H   0  0  0  0  0  0  0  0  0  0  0  0
   -1.4126   -2.2444    0.4801 C   0  0  0  0  0  0  0  0  0  0  0  0
   -0.4686   -2.9534    0.8001 O   0  0  0  0  0  0  0  0  0  0  0  0
   -1.2736   -0.9704    0.1241 N   0  0  0  0  0  0  0  0  0  0  0  0
   -2.0996   -0.4354   -0.1019 H   0  0  0  0  0  0  0  0  0  0  0  0
   -0.0016   -0.2394    0.1271 C   0  0  1  0  0  0  0  0  0  0  0  0
    0.7164   -0.7963    0.7332 H   0  0  0  0  0  0  0  0  0  0  0  0
    0.5351   -0.1414   -1.3146 C   0  0  0  0  0  0  0  0  0  0  0  0
    1.3711   -0.8309   -1.4383 H   0  0  0  0  0  0  0  0  0  0  0  0
   -0.2461   -0.4324   -2.0178 H   0  0  0  0  0  0  0  0  0  0  0  0
    1.0458    1.2493   -1.6789 C   0  0  0  0  0  0  0  0  0  0  0  0
    1.7447    1.5209   -2.6464 O   0  0  0  0  0  0  0  0  0  0  0  0
    0.6765    2.2266   -0.8301 O   0  0  0  0  0  0  0  0  0  0  0  0
    1.0444    3.0361   -1.1858 H   0  0  0  0  0  0  0  0  0  0  0  0
   -0.1923    1.1526    0.7617 C   0  0  0  0  0  0  0  0  0  0  0  0
   -1.1582    1.8438    0.4410 O   0  0  0  0  0  0  0  0  0  0  0  0
    0.7203    1.5683    1.6472 N   0  0  0  0  0  0  0  0  0  0  0  0
    1.5210    0.9664    1.8100 H   0  0  0  0  0  0  0  0  0  0  0  0
    0.6747    2.8558    2.3368 C   0  0  0  0  0  0  0  0  0  0  0  0
   -0.3018    2.9877    2.8079 H   0  0  0  0  0  0  0  0  0  0  0  0
    1.4516    2.8997    3.1011 H   0  0  0  0  0  0  0  0  0  0  0  0
    0.8279    3.6639    1.6193 H   0  0  0  0  0  0  0  0  0  0  0  0
  5  6  2  0  0  0  0
  5  7  1  0  0  0  0
  2  3  1  0  0  0  0
  2  4  1  0  0  0  0
  2  5  1  0  0  0  0
  1  2  1  0  0  0  0
 18 19  2  0  0  0  0
 18 20  1  0  0  0  0
 16 17  1  0  0  0  0
 14 15  2  0  0  0  0
 14 16  1  0  0  0  0
 11 12  1  0  0  0  0
 11 13  1  0  0  0  0
 11 14  1  0  0  0  0
  9 10  1  0  0  0  0
  9 11  1  0  0  0  0
  9 18  1  0  0  0  0
  7  8  1  0  0  0  0
  7  9  1  0  0  0  0
 22 23  1  0  0  0  0
 22 24  1  0  0  0  0
 22 25  1  0  0  0  0
 20 21  1  0  0  0  0
 20 22  1  0  0  0  0
M  END
$$$$
default_name
  -OEChem-02102213163D

 25 24  0     1  0  0  0  0  0999 V2000
   -2.7826   -3.8464    0.7821 H   0  0  0  0  0  0  0  0  0  0  0  0
   -2.8156   -2.8034    0.4711 C   0  0  0  0  0  0  0  0  0  0  0  0
   -3.4336   -2.2354    1.1641 H   0  0  0  0  0  0  0  0  0  0  0  0
   -3.2256   -2.7344   -0.5349 H   0  0  0  0  0  0  0  0  0  0  0  0
   -1.4126   -2.2444    0.4801 C   0  0  0  0  0  0  0  0  0  0  0  0
   -0.4686   -2.9534    0.8001 O   0  0  0  0  0  0  0  0  0  0  0  0
   -1.2736   -0.9704    0.1241 N   0  0  0  0  0  0  0  0  0  0  0  0
   -2.0996   -0.4354   -0.1019 H   0  0  0  0  0  0  0  0  0  0  0  0
   -0.0016   -0.2394    0.1271 C   0  0  1  0  0  0  0  0  0  0  0  0
    0.7164   -0.7963    0.7332 H   0  0  0  0  0  0  0  0  0  0  0  0
    0.5351   -0.1414   -1.3146 C   0  0  0  0  0  0  0  0  0  0  0  0
    1.1780   -0.9979   -1.5216 H   0  0  0  0  0  0  0  0  0  0  0  0
   -0.2971   -0.1693   -2.0190 H   0  0  0  0  0  0  0  0  0  0  0  0
    1.3663    1.1124   -1.5689 C   0  0  0  0  0  0  0  0  0  0  0  0
    1.8971    1.4123   -2.6303 O   0  0  0  0  0  0  0  0  0  0  0  0
    1.5058    1.9230   -0.5033 O   0  0  0  0  0  0  0  0  0  0  0  0
    2.0250    2.6683   -0.8067 H   0  0  0  0  0  0  0  0  0  0  0  0
   -0.1923    1.1526    0.7617 C   0  0  0  0  0  0  0  0  0  0  0  0
   -1.1582    1.8438    0.4410 O   0  0  0  0  0  0  0  0  0  0  0  0
    0.7203    1.5683    1.6472 N   0  0  0  0  0  0  0  0  0  0  0  0
    1.5210    0.9664    1.8100 H   0  0  0  0  0  0  0  0  0  0  0  0
    0.6747    2.8558    2.3368 C   0  0  0  0  0  0  0  0  0  0  0  0
   -0.3018    2.9877    2.8079 H   0  0  0  0  0  0  0  0  0  0  0  0
    1.4516    2.8997    3.1011 H   0  0  0  0  0  0  0  0  0  0  0  0
    0.8279    3.6639    1.6193 H   0  0  0  0  0  0  0  0  0  0  0  0
  5  6  2  0  0  0  0
  5  7  1  0  0  0  0
  2  3  1  0  0  0  0
  2  4  1  0  0  0  0
  2  5  1  0  0  0  0
  1  2  1  0  0  0  0
 18 19  2  0  0  0  0
 18 20  1  0  0  0  0
 16 17  1  0  0  0  0
 14 15  2  0  0  0  0
 14 16  1  0  0  0  0
 11 12  1  0  0  0  0
 11 13  1  0  0  0  0
 11 14  1  0  0  0  0
  9 10  1  0  0  0  0
  9 11  1  0  0  0  0
  9 18  1  0  0  0  0
  7  8  1  0  0  0  0
  7  9  1  0  0  0  0
 22 23  1  0  0  0  0
 22 24  1  0  0  0  0
 22 25  1  0  0  0  0
 20 21  1  0  0  0  0
 20 22  1  0  0  0  0
M  END
$$$$
default_name
  -OEChem-02102213163D

 25 24  0     1  0  0  0  0  0999 V2000
   -2.7826   -3.8464    0.7821 H   0  0  0  0  0  0  0  0  0  0  0  0
   -2.8156   -2.8034    0.4711 C   0  0  0  0  0  0  0  0  0  0  0  0
   -3.4336   -2.2354    1.1641 H   0  0  0  0  0  0  0  0  0  0  0  0
   -3.2256   -2.7344   -0.5349 H   0  0  0  0  0  0  0  0  0  0  0  0
   -1.4126   -2.2444    0.4801 C   0  0  0  0  0  0  0  0  0  0  0  0
   -0.4686   -2.9534    0.8001 O   0  0  0  0  0  0  0  0  0  0  0  0
   -1.2736   -0.9704    0.1241 N   0  0  0  0  0  0  0  0  0  0  0  0
   -2.0996   -0.4354   -0.1019 H   0  0  0  0  0  0  0  0  0  0  0  0
   -0.0016   -0.2394    0.1271 C   0  0  1  0  0  0  0  0  0  0  0  0
    0.7164   -0.7963    0.7332 H   0  0  0  0  0  0  0  0  0  0  0  0
    0.5351   -0.1414   -1.3146 C   0  0  0  0  0  0  0  0  0  0  0  0
    1.1780   -0.9979   -1.5216 H   0  0  0  0  0  0  0  0  0  0  0  0
   -0.2971   -0.1693   -2.0190 H   0  0  0  0  0  0  0  0  0  0  0  0
    1.3663    1.1124   -1.5689 C   0  0  0  0  0  0  0  0  0  0  0  0
    1.6794    1.5488   -2.6688 O   0  0  0  0  0  0  0  0  0  0  0  0
    1.7731    1.7549   -0.4582 O   0  0  0  0  0  0  0  0  0  0  0  0
    2.2599    2.5217   -0.7619 H   0  0  0  0  0  0  0  0  0  0  0  0
   -0.1923    1.1526    0.7617 C   0  0  0  0  0  0  0  0  0  0  0  0
   -1.1582    1.8438    0.4410 O   0  0  0  0  0  0  0  0  0  0  0  0
    0.7203    1.5683    1.6472 N   0  0  0  0  0  0  0  0  0  0  0  0
    1.5210    0.9664    1.8100 H   0  0  0  0  0  0  0  0  0  0  0  0
    0.6747    2.8558    2.3368 C   0  0  0  0  0  0  0  0  0  0  0  0
   -0.3018    2.9877    2.8079 H   0  0  0  0  0  0  0  0  0  0  0  0
    1.4516    2.8997    3.1011 H   0  0  0  0  0  0  0  0  0  0  0  0
    0.8279    3.6639    1.6193 H   0  0  0  0  0  0  0  0  0  0  0  0
  5  6  2  0  0  0  0
  5  7  1  0  0  0  0
  2  3  1  0  0  0  0
  2  4  1  0  0  0  0
  2  5  1  0  0  0  0
  1  2  1  0  0  0  0
 18 19  2  0  0  0  0
 18 20  1  0  0  0  0
 16 17  1  0  0  0  0
 14 15  2  0  0  0  0
 14 16  1  0  0  0  0
 11 12  1  0  0  0  0
 11 13  1  0  0  0  0
 11 14  1  0  0  0  0
  9 10  1  0  0  0  0
  9 11  1  0  0  0  0
  9 18  1  0  0  0  0
  7  8  1  0  0  0  0
  7  9  1  0  0  0  0
 22 23  1  0  0  0  0
 22 24  1  0  0  0  0
 22 25  1  0  0  0  0
 20 21  1  0  0  0  0
 20 22  1  0  0  0  0
M  END
$$$$
default_name
  -OEChem-02102213163D

 25 24  0     1  0  0  0  0  0999 V2000
   -2.7826   -3.8464    0.7821 H   0  0  0  0  0  0  0  0  0  0  0  0
   -2.8156   -2.8034    0.4711 C   0  0  0  0  0  0  0  0  0  0  0  0
   -3.4336   -2.2354    1.1641 H   0  0  0  0  0  0  0  0  0  0  0  0
   -3.2256   -2.7344   -0.5349 H   0  0  0  0  0  0  0  0  0  0  0  0
   -1.4126   -2.2444    0.4801 C   0  0  0  0  0  0  0  0  0  0  0  0
   -0.4686   -2.9534    0.8001 O   0  0  0  0  0  0  0  0  0  0  0  0
   -1.2736   -0.9704    0.1241 N   0  0  0  0  0  0  0  0  0  0  0  0
   -2.0996   -0.4354   -0.1019 H   0  0  0  0  0  0  0  0  0  0  0  0
   -0.0016   -0.2394    0.1271 C   0  0  1  0  0  0  0  0  0  0  0  0
    0.7164   -0.7963    0.7332 H   0  0  0  0  0  0  0  0  0  0  0  0
    0.5351   -0.1414   -1.3146 C   0  0  0  0  0  0  0  0  0  0  0  0
    1.1780   -0.9979   -1.5216 H   0  0  0  0  0  0  0  0  0  0  0  0
   -0.2971   -0.1693   -2.0190 H   0  0  0  0  0  0  0  0  0  0  0  0
    1.3663    1.1124   -1.5689 C   0  0  0  0  0  0  0  0  0  0  0  0
    1.4668    1.6955   -2.6404 O   0  0  0  0  0  0  0  0  0  0  0  0
    2.0337    1.5746   -0.4952 O   0  0  0  0  0  0  0  0  0  0  0  0
    2.4899    2.3637   -0.7894 H   0  0  0  0  0  0  0  0  0  0  0  0
   -0.1923    1.1526    0.7617 C   0  0  0  0  0  0  0  0  0  0  0  0
   -1.1582    1.8438    0.4410 O   0  0  0  0  0  0  0  0  0  0  0  0
    0.7203    1.5683    1.6472 N   0  0  0  0  0  0  0  0  0  0  0  0
    1.5210    0.9664    1.8100 H   0  0  0  0  0  0  0  0  0  0  0  0
    0.6747    2.8558    2.3368 C   0  0  0  0  0  0  0  0  0  0  0  0
   -0.3018    2.9877    2.8079 H   0  0  0  0  0  0  0  0  0  0  0  0
    1.4516    2.8997    3.1011 H   0  0  0  0  0  0  0  0  0  0  0  0
    0.8279    3.6639    1.6193 H   0  0  0  0  0  0  0  0  0  0  0  0
  5  6  2  0  0  0  0
  5  7  1  0  0  0  0
  2  3  1  0  0  0  0
  2  4  1  0  0  0  0
  2  5  1  0  0  0  0
  1  2  1  0  0  0  0
 18 19  2  0  0  0  0
 18 20  1  0  0  0  0
 16 17  1  0  0  0  0
 14 15  2  0  0  0  0
 14 16  1  0  0  0  0
 11 12  1  0  0  0  0
 11 13  1  0  0  0  0
 11 14  1  0  0  0  0
  9 10  1  0  0  0  0
  9 11  1  0  0  0  0
  9 18  1  0  0  0  0
  7  8  1  0  0  0  0
  7  9  1  0  0  0  0
 22 23  1  0  0  0  0
 22 24  1  0  0  0  0
 22 25  1  0  0  0  0
 20 21  1  0  0  0  0
 20 22  1  0  0  0  0
M  END
$$$$
default_name
  -OEChem-02102213163D

 25 24  0     1  0  0  0  0  0999 V2000
   -2.7826   -3.8464    0.7821 H   0  0  0  0  0  0  0  0  0  0  0  0
   -2.8156   -2.8034    0.4711 C   0  0  0  0  0  0  0  0  0  0  0  0
   -3.4336   -2.2354    1.1641 H   0  0  0  0  0  0  0  0  0  0  0  0
   -3.2256   -2.7344   -0.5349 H   0  0  0  0  0  0  0  0  0  0  0  0
   -1.4126   -2.2444    0.4801 C   0  0  0  0  0  0  0  0  0  0  0  0
   -0.4686   -2.9534    0.8001 O   0  0  0  0  0  0  0  0  0  0  0  0
   -1.2736   -0.9704    0.1241 N   0  0  0  0  0  0  0  0  0  0  0  0
   -2.0996   -0.4354   -0.1019 H   0  0  0  0  0  0  0  0  0  0  0  0
   -0.0016   -0.2394    0.1271 C   0  0  1  0  0  0  0  0  0  0  0  0
    0.7164   -0.7963    0.7332 H   0  0  0  0  0  0  0  0  0  0  0  0
    0.5351   -0.1414   -1.3146 C   0  0  0  0  0  0  0  0  0  0  0  0
    1.1780   -0.9979   -1.5216 H   0  0  0  0  0  0  0  0  0  0  0  0
   -0.2971   -0.1693   -2.0190 H   0  0  0  0  0  0  0  0  0  0  0  0
    1.3663    1.1124   -1.5689 C   0  0  0  0  0  0  0  0  0  0  0  0
    1.2738    1.8424   -2.5471 O   0  0  0  0  0  0  0  0  0  0  0  0
    2.2698    1.3945   -0.6118 O   0  0  0  0  0  0  0  0  0  0  0  0
    2.6994    2.2049   -0.8871 H   0  0  0  0  0  0  0  0  0  0  0  0
   -0.1923    1.1526    0.7617 C   0  0  0  0  0  0  0  0  0  0  0  0
   -1.1582    1.8438    0.4410 O   0  0  0  0  0  0  0  0  0  0  0  0
    0.7203    1.5683    1.6472 N   0  0  0  0  0  0  0  0  0  0  0  0
    1.5210    0.9664    1.8100 H   0  0  0  0  0  0  0  0  0  0  0  0
    0.6747    2.8558    2.3368 C   0  0  0  0  0  0  0  0  0  0  0  0
   -0.3018    2.9877    2.8079 H   0  0  0  0  0  0  0  0  0  0  0  0
    1.4516    2.8997    3.1011 H   0  0  0  0  0  0  0  0  0  0  0  0
    0.8279    3.6639    1.6193 H   0  0  0  0  0  0  0  0  0  0  0  0
  5  6  2  0  0  0  0
  5  7  1  0  0  0  0
  2  3  1  0  0  0  0
  2  4  1  0  0  0  0
  2  5  1  0  0  0  0
  1  2  1  0  0  0  0
 18 19  2  0  0  0  0
 18 20  1  0  0  0  0
 16 17  1  0  0  0  0
 14 15  2  0  0  0  0
 14 16  1  0  0  0  0
 11 12  1  0  0  0  0
 11 13  1  0  0  0  0
 11 14  1  0  0  0  0
  9 10  1  0  0  0  0
  9 11  1  0  0  0  0
  9 18  1  0  0  0  0
  7  8  1  0  0  0  0
  7  9  1  0  0  0  0
 22 23  1  0  0  0  0
 22 24  1  0  0  0  0
 22 25  1  0  0  0  0
 20 21  1  0  0  0  0
 20 22  1  0  0  0  0
M  END
$$$$
default_name
  -OEChem-02102213163D

 25 24  0     1  0  0  0  0  0999 V2000
   -2.7826   -3.8464    0.7821 H   0  0  0  0  0  0  0  0  0  0  0  0
   -2.8156   -2.8034    0.4711 C   0  0  0  0  0  0  0  0  0  0  0  0
   -3.4336   -2.2354    1.1641 H   0  0  0  0  0  0  0  0  0  0  0  0
   -3.2256   -2.7344   -0.5349 H   0  0  0  0  0  0  0  0  0  0  0  0
   -1.4126   -2.2444    0.4801 C   0  0  0  0  0  0  0  0  0  0  0  0
   -0.4686   -2.9534    0.8001 O   0  0  0  0  0  0  0  0  0  0  0  0
   -1.2736   -0.9704    0.1241 N   0  0  0  0  0  0  0  0  0  0  0  0
   -2.0996   -0.4354   -0.1019 H   0  0  0  0  0  0  0  0  0  0  0  0
   -0.0016   -0.2394    0.1271 C   0  0  1  0  0  0  0  0  0  0  0  0
    0.7164   -0.7963    0.7332 H   0  0  0  0  0  0  0  0  0  0  0  0
    0.5351   -0.1414   -1.3146 C   0  0  0  0  0  0  0  0  0  0  0  0
    1.1780   -0.9979   -1.5216 H   0  0  0  0  0  0  0  0  0  0  0  0
   -0.2971   -0.1693   -2.0190 H   0  0  0  0  0  0  0  0  0  0  0  0
    1.3663    1.1124   -1.5689 C   0  0  0  0  0  0  0  0  0  0  0  0
    1.1136    1.9794   -2.3953 O   0  0  0  0  0  0  0  0  0  0  0  0
    2.4652    1.2268   -0.8000 O   0  0  0  0  0  0  0  0  0  0  0  0
    2.8742    2.0564   -1.0484 H   0  0  0  0  0  0  0  0  0  0  0  0
   -0.1923    1.1526    0.7617 C   0  0  0  0  0  0  0  0  0  0  0  0
   -1.1582    1.8438    0.4410 O   0  0  0  0  0  0  0  0  0  0  0  0
    0.7203    1.5683    1.6472 N   0  0  0  0  0  0  0  0  0  0  0  0
    1.5210    0.9664    1.8100 H   0  0  0  0  0  0  0  0  0  0  0  0
    0.6747    2.8558    2.3368 C   0  0  0  0  0  0  0  0  0  0  0  0
   -0.3018    2.9877    2.8079 H   0  0  0  0  0  0  0  0  0  0  0  0
    1.4516    2.8997    3.1011 H   0  0  0  0  0  0  0  0  0  0  0  0
    0.8279    3.6639    1.6193 H   0  0  0  0  0  0  0  0  0  0  0  0
  5  6  2  0  0  0  0
  5  7  1  0  0  0  0
  2  3  1  0  0  0  0
  2  4  1  0  0  0  0
  2  5  1  0  0  0  0
  1  2  1  0  0  0  0
 18 19  2  0  0  0  0
 18 20  1  0  0  0  0
 16 17  1  0  0  0  0
 14 15  2  0  0  0  0
 14 16  1  0  0  0  0
 11 12  1  0  0  0  0
 11 13  1  0  0  0  0
 11 14  1  0  0  0  0
  9 10  1  0  0  0  0
  9 11  1  0  0  0  0
  9 18  1  0  0  0  0
  7  8  1  0  0  0  0
  7  9  1  0  0  0  0
 22 23  1  0  0  0  0
 22 24  1  0  0  0  0
 22 25  1  0  0  0  0
 20 21  1  0  0  0  0
 20 22  1  0  0  0  0
M  END
$$$$
default_name
  -OEChem-02102213163D

 25 24  0     1  0  0  0  0  0999 V2000
   -2.7826   -3.8464    0.7821 H   0  0  0  0  0  0  0  0  0  0  0  0
   -2.8156   -2.8034    0.4711 C   0  0  0  0  0  0  0  0  0  0  0  0
   -3.4336   -2.2354    1.1641 H   0  0  0  0  0  0  0  0  0  0  0  0
   -3.2256   -2.7344   -0.5349 H   0  0  0  0  0  0  0  0  0  0  0  0
   -1.4126   -2.2444    0.4801 C   0  0  0  0  0  0  0  0  0  0  0  0
   -0.4686   -2.9534    0.8001 O   0  0  0  0  0  0  0  0  0  0  0  0
   -1.2736   -0.9704    0.1241 N   0  0  0  0  0  0  0  0  0  0  0  0
   -2.0996   -0.4354   -0.1019 H   0  0  0  0  0  0  0  0  0  0  0  0
   -0.0016   -0.2394    0.1271 C   0  0  1  0  0  0  0  0  0  0  0  0
    0.7164   -0.7963    0.7332 H   0  0  0  0  0  0  0  0  0  0  0  0
    0.5351   -0.1414   -1.3146 C   0  0  0  0  0  0  0  0  0  0  0  0
    1.1780   -0.9979   -1.5216 H   0  0  0  0  0  0  0  0  0  0  0  0
   -0.2971   -0.1693   -2.0190 H   0  0  0  0  0  0  0  0  0  0  0  0
    1.3663    1.1124   -1.5689 C   0  0  0  0  0  0  0  0  0  0  0  0
    0.9971    2.0972   -2.1952 O   0  0  0  0  0  0  0  0  0  0  0  0
    2.6067    1.0829   -1.0470 O   0  0  0  0  0  0  0  0  0  0  0  0
    3.0023    1.9281   -1.2624 H   0  0  0  0  0  0  0  0  0  0  0  0
   -0.1923    1.1526    0.7617 C   0  0  0  0  0  0  0  0  0  0  0  0
   -1.1582    1.8438    0.4410 O   0  0  0  0  0  0  0  0  0  0  0  0
    0.7203    1.5683    1.6472 N   0  0  0  0  0  0  0  0  0  0  0  0
    1.5210    0.9664    1.8100 H   0  0  0  0  0  0  0  0  0  0  0  0
    0.6747    2.8558    2.3368 C   0  0  0  0  0  0  0  0  0  0  0  0
   -0.3018    2.9877    2.8079 H   0  0  0  0  0  0  0  0  0  0  0  0
    1.4516    2.8997    3.1011 H   0  0  0  0  0  0  0  0  0  0  0  0
    0.8279    3.6639    1.6193 H   0  0  0  0  0  0  0  0  0  0  0  0
  5  6  2  0  0  0  0
  5  7  1  0  0  0  0
  2  3  1  0  0  0  0
  2  4  1  0  0  0  0
  2  5  1  0  0  0  0
  1  2  1  0  0  0  0
 18 19  2  0  0  0  0
 18 20  1  0  0  0  0
 16 17  1  0  0  0  0
 14 15  2  0  0  0  0
 14 16  1  0  0  0  0
 11 12  1  0  0  0  0
 11 13  1  0  0  0  0
 11 14  1  0  0  0  0
  9 10  1  0  0  0  0
  9 11  1  0  0  0  0
  9 18  1  0  0  0  0
  7  8  1  0  0  0  0
  7  9  1  0  0  0  0
 22 23  1  0  0  0  0
 22 24  1  0  0  0  0
 22 25  1  0  0  0  0
 20 21  1  0  0  0  0
 20 22  1  0  0  0  0
M  END
$$$$
default_name
  -OEChem-02102213163D

 25 24  0     1  0  0  0  0  0999 V2000
   -2.7826   -3.8464    0.7821 H   0  0  0  0  0  0  0  0  0  0  0  0
   -2.8156   -2.8034    0.4711 C   0  0  0  0  0  0  0  0  0  0  0  0
   -3.4336   -2.2354    1.1641 H   0  0  0  0  0  0  0  0  0  0  0  0
   -3.2256   -2.7344   -0.5349 H   0  0  0  0  0  0  0  0  0  0  0  0
   -1.4126   -2.2444    0.4801 C   0  0  0  0  0  0  0  0  0  0  0  0
   -0.4686   -2.9534    0.8001 O   0  0  0  0  0  0  0  0  0  0  0  0
   -1.2736   -0.9704    0.1241 N   0  0  0  0  0  0  0  0  0  0  0  0
   -2.0996   -0.4354   -0.1019 H   0  0  0  0  0  0  0  0  0  0  0  0
   -0.0016   -0.2394    0.1271 C   0  0  1  0  0  0  0  0  0  0  0  0
    0.7164   -0.7963    0.7332 H   0  0  0  0  0  0  0  0  0  0  0  0
    0.5351   -0.1414   -1.3146 C   0  0  0  0  0  0  0  0  0  0  0  0
    1.1780   -0.9979   -1.5216 H   0  0  0  0  0  0  0  0  0  0  0  0
   -0.2971   -0.1693   -2.0190 H   0  0  0  0  0  0  0  0  0  0  0  0
    1.3663    1.1124   -1.5689 C   0  0  0  0  0  0  0  0  0  0  0  0
    0.9322    2.1878   -1.9605 O   0  0  0  0  0  0  0  0  0  0  0  0
    2.6847    0.9726   -1.3360 O   0  0  0  0  0  0  0  0  0  0  0  0
    3.0750    1.8288   -1.5144 H   0  0  0  0  0  0  0  0  0  0  0  0
   -0.1923    1.1526    0.7617 C   0  0  0  0  0  0  0  0  0  0  0  0
   -1.1582    1.8438    0.4410 O   0  0  0  0  0  0  0  0  0  0  0  0
    0.7203    1.5683    1.6472 N   0  0  0  0  0  0  0  0  0  0  0  0
    1.5210    0.9664    1.8100 H   0  0  0  0  0  0  0  0  0  0  0  0
    0.6747    2.8558    2.3368 C   0  0  0  0  0  0  0  0  0  0  0  0
   -0.3018    2.9877    2.8079 H   0  0  0  0  0  0  0  0  0  0  0  0
    1.4516    2.8997    3.1011 H   0  0  0  0  0  0  0  0  0  0  0  0
    0.8279    3.6639    1.6193 H   0  0  0  0  0  0  0  0  0  0  0  0
  5  6  2  0  0  0  0
  5  7  1  0  0  0  0
  2  3  1  0  0  0  0
  2  4  1  0  0  0  0
  2  5  1  0  0  0  0
  1  2  1  0  0  0  0
 18 19  2  0  0  0  0
 18 20  1  0  0  0  0
 16 17  1  0  0  0  0
 14 15  2  0  0  0  0
 14 16  1  0  0  0  0
 11 12  1  0  0  0  0
 11 13  1  0  0  0  0
 11 14  1  0  0  0  0
  9 10  1  0  0  0  0
  9 11  1  0  0  0  0
  9 18  1  0  0  0  0
  7  8  1  0  0  0  0
  7  9  1  0  0  0  0
 22 23  1  0  0  0  0
 22 24  1  0  0  0  0
 22 25  1  0  0  0  0
 20 21  1  0  0  0  0
 20 22  1  0  0  0  0
M  END
$$$$
default_name
  -OEChem-02102213163D

 25 24  0     1  0  0  0  0  0999 V2000
   -2.7826   -3.8464    0.7821 H   0  0  0  0  0  0  0  0  0  0  0  0
   -2.8156   -2.8034    0.4711 C   0  0  0  0  0  0  0  0  0  0  0  0
   -3.4336   -2.2354    1.1641 H   0  0  0  0  0  0  0  0  0  0  0  0
   -3.2256   -2.7344   -0.5349 H   0  0  0  0  0  0  0  0  0  0  0  0
   -1.4126   -2.2444    0.4801 C   0  0  0  0  0  0  0  0  0  0  0  0
   -0.4686   -2.9534    0.8001 O   0  0  0  0  0  0  0  0  0  0  0  0
   -1.2736   -0.9704    0.1241 N   0  0  0  0  0  0  0  0  0  0  0  0
   -2.0996   -0.4354   -0.1019 H   0  0  0  0  0  0  0  0  0  0  0  0
   -0.0016   -0.2394    0.1271 C   0  0  1  0  0  0  0  0  0  0  0  0
    0.7164   -0.7963    0.7332 H   0  0  0  0  0  0  0  0  0  0  0  0
    0.5351   -0.1414   -1.3146 C   0  0  0  0  0  0  0  0  0  0  0  0
    1.1780   -0.9979   -1.5216 H   0  0  0  0  0  0  0  0  0  0  0  0
   -0.2971   -0.1693   -2.0190 H   0  0  0  0  0  0  0  0  0  0  0  0
    1.3663    1.1124   -1.5689 C   0  0  0  0  0  0  0  0  0  0  0  0
    0.9233    2.2451   -1.7072 O   0  0  0  0  0  0  0  0  0  0  0  0
    2.6937    0.9034   -1.6473 O   0  0  0  0  0  0  0  0  0  0  0  0
    3.0873    1.7653   -1.7872 H   0  0  0  0  0  0  0  0  0  0  0  0
   -0.1923    1.1526    0.7617 C   0  0  0  0  0  0  0  0  0  0  0  0
   -1.1582    1.8438    0.4410 O   0  0  0  0  0  0  0  0  0  0  0  0
    0.7203    1.5683    1.6472 N   0  0  0  0  0  0  0  0  0  0  0  0
    1.5210    0.9664    1.8100 H   0  0  0  0  0  0  0  0  0  0  0  0
    0.6747    2.8558    2.3368 C   0  0  0  0  0  0  0  0  0  0  0  0
   -0.3018    2.9877    2.8079 H   0  0  0  0  0  0  0  0  0  0  0  0
    1.4516    2.8997    3.1011 H   0  0  0  0  0  0  0  0  0  0  0  0
    0.8279    3.6639    1.6193 H   0  0  0  0  0  0  0  0  0  0  0  0
  5  6  2  0  0  0  0
  5  7  1  0  0  0  0
  2  3  1  0  0  0  0
  2  4  1  0  0  0  0
  2  5  1  0  0  0  0
  1  2  1  0  0  0  0
 18 19  2  0  0  0  0
 18 20  1  0  0  0  0
 16 17  1  0  0  0  0
 14 15  2  0  0  0  0
 14 16  1  0  0  0  0
 11 12  1  0  0  0  0
 11 13  1  0  0  0  0
 11 14  1  0  0  0  0
  9 10  1  0  0  0  0
  9 11  1  0  0  0  0
  9 18  1  0  0  0  0
  7  8  1  0  0  0  0
  7  9  1  0  0  0  0
 22 23  1  0  0  0  0
 22 24  1  0  0  0  0
 22 25  1  0  0  0  0
 20 21  1  0  0  0  0
 20 22  1  0  0  0  0
M  END
$$$$
default_name
  -OEChem-02102213163D

 25 24  0     1  0  0  0  0  0999 V2000
   -2.7826   -3.8464    0.7821 H   0  0  0  0  0  0  0  0  0  0  0  0
   -2.8156   -2.8034    0.4711 C   0  0  0  0  0  0  0  0  0  0  0  0
   -3.4336   -2.2354    1.1641 H   0  0  0  0  0  0  0  0  0  0  0  0
   -3.2256   -2.7344   -0.5349 H   0  0  0  0  0  0  0  0  0  0  0  0
   -1.4126   -2.2444    0.4801 C   0  0  0  0  0  0  0  0  0  0  0  0
   -0.4686   -2.9534    0.8001 O   0  0  0  0  0  0  0  0  0  0  0  0
   -1.2736   -0.9704    0.1241 N   0  0  0  0  0  0  0  0  0  0  0  0
   -2.0996   -0.4354   -0.1019 H   0  0  0  0  0  0  0  0  0  0  0  0
   -0.0016   -0.2394    0.1271 C   0  0  1  0  0  0  0  0  0  0  0  0
    0.7164   -0.7963    0.7332 H   0  0  0  0  0  0  0  0  0  0  0  0
    0.5351   -0.1414   -1.3146 C   0  0  0  0  0  0  0  0  0  0  0  0
    1.1780   -0.9979   -1.5216 H   0  0  0  0  0  0  0  0  0  0  0  0
   -0.2971   -0.1693   -2.0190 H   0  0  0  0  0  0  0  0  0  0  0  0
    1.3663    1.1124   -1.5689 C   0  0  0  0  0  0  0  0  0  0  0  0
    0.9710    2.2650   -1.4526 O   0  0  0  0  0  0  0  0  0  0  0  0
    2.6333    0.8802   -1.9597 O   0  0  0  0  0  0  0  0  0  0  0  0
    3.0384    1.7419   -2.0624 H   0  0  0  0  0  0  0  0  0  0  0  0
   -0.1923    1.1526    0.7617 C   0  0  0  0  0  0  0  0  0  0  0  0
   -1.1582    1.8438    0.4410 O   0  0  0  0  0  0  0  0  0  0  0  0
    0.7203    1.5683    1.6472 N   0  0  0  0  0  0  0  0  0  0  0  0
    1.5210    0.9664    1.8100 H   0  0  0  0  0  0  0  0  0  0  0  0
    0.6747    2.8558    2.3368 C   0  0  0  0  0  0  0  0  0  0  0  0
   -0.3018    2.9877    2.8079 H   0  0  0  0  0  0  0  0  0  0  0  0
    1.4516    2.8997    3.1011 H   0  0  0  0  0  0  0  0  0  0  0  0
    0.8279    3.6639    1.6193 H   0  0  0  0  0  0  0  0  0  0  0  0
  5  6  2  0  0  0  0
  5  7  1  0  0  0  0
  2  3  1  0  0  0  0
  2  4  1  0  0  0  0
  2  5  1  0  0  0  0
  1  2  1  0  0  0  0
 18 19  2  0  0  0  0
 18 20  1  0  0  0  0
 16 17  1  0  0  0  0
 14 15  2  0  0  0  0
 14 16  1  0  0  0  0
 11 12  1  0  0  0  0
 11 13  1  0  0  0  0
 11 14  1  0  0  0  0
  9 10  1  0  0  0  0
  9 11  1  0  0  0  0
  9 18  1  0  0  0  0
  7  8  1  0  0  0  0
  7  9  1  0  0  0  0
 22 23  1  0  0  0  0
 22 24  1  0  0  0  0
 22 25  1  0  0  0  0
 20 21  1  0  0  0  0
 20 22  1  0  0  0  0
M  END
$$$$
default_name
  -OEChem-02102213163D

 25 24  0     1  0  0  0  0  0999 V2000
   -2.7826   -3.8464    0.7821 H   0  0  0  0  0  0  0  0  0  0  0  0
   -2.8156   -2.8034    0.4711 C   0  0  0  0  0  0  0  0  0  0  0  0
   -3.4336   -2.2354    1.1641 H   0  0  0  0  0  0  0  0  0  0  0  0
   -3.2256   -2.7344   -0.5349 H   0  0  0  0  0  0  0  0  0  0  0  0
   -1.4126   -2.2444    0.4801 C   0  0  0  0  0  0  0  0  0  0  0  0
   -0.4686   -2.9534    0.8001 O   0  0  0  0  0  0  0  0  0  0  0  0
   -1.2736   -0.9704    0.1241 N   0  0  0  0  0  0  0  0  0  0  0  0
   -2.0996   -0.4354   -0.1019 H   0  0  0  0  0  0  0  0  0  0  0  0
   -0.0016   -0.2394    0.1271 C   0  0  1  0  0  0  0  0  0  0  0  0
    0.7164   -0.7963    0.7332 H   0  0  0  0  0  0  0  0  0  0  0  0
    0.5351   -0.1414   -1.3146 C   0  0  0  0  0  0  0  0  0  0  0  0
    1.1780   -0.9979   -1.5216 H   0  0  0  0  0  0  0  0  0  0  0  0
   -0.2971   -0.1693   -2.0190 H   0  0  0  0  0  0  0  0  0  0  0  0
    1.3663    1.1124   -1.5689 C   0  0  0  0  0  0  0  0  0  0  0  0
    1.0722    2.2464   -1.2140 O   0  0  0  0  0  0  0  0  0  0  0  0
    2.5075    0.9044   -2.2518 O   0  0  0  0  0  0  0  0  0  0  0  0
    2.9317    1.7602   -2.3211 H   0  0  0  0  0  0  0  0  0  0  0  0
   -0.1923    1.1526    0.7617 C   0  0  0  0  0  0  0  0  0  0  0  0
   -1.1582    1.8438    0.4410 O   0  0  0  0  0  0  0  0  0  0  0  0
    0.7203    1.5683    1.6472 N   0  0  0  0  0  0  0  0  0  0  0  0
    1.5210    0.9664    1.8100 H   0  0  0  0  0  0  0  0  0  0  0  0
    0.6747    2.8558    2.3368 C   0  0  0  0  0  0  0  0  0  0  0  0
   -0.3018    2.9877    2.8079 H   0  0  0  0  0  0  0  0  0  0  0  0
    1.4516    2.8997    3.1011 H   0  0  0  0  0  0  0  0  0  0  0  0
    0.8279    3.6639    1.6193 H   0  0  0  0  0  0  0  0  0  0  0  0
  5  6  2  0  0  0  0
  5  7  1  0  0  0  0
  2  3  1  0  0  0  0
  2  4  1  0  0  0  0
  2  5  1  0  0  0  0
  1  2  1  0  0  0  0
 18 19  2  0  0  0  0
 18 20  1  0  0  0  0
 16 17  1  0  0  0  0
 14 15  2  0  0  0  0
 14 16  1  0  0  0  0
 11 12  1  0  0  0  0
 11 13  1  0  0  0  0
 11 14  1  0  0  0  0
  9 10  1  0  0  0  0
  9 11  1  0  0  0  0
  9 18  1  0  0  0  0
  7  8  1  0  0  0  0
  7  9  1  0  0  0  0
 22 23  1  0  0  0  0
 22 24  1  0  0  0  0
 22 25  1  0  0  0  0
 20 21  1  0  0  0  0
 20 22  1  0  0  0  0
M  END
$$$$
default_name
  -OEChem-02102213163D

 25 24  0     1  0  0  0  0  0999 V2000
   -2.7826   -3.8464    0.7821 H   0  0  0  0  0  0  0  0  0  0  0  0
   -2.8156   -2.8034    0.4711 C   0  0  0  0  0  0  0  0  0  0  0  0
   -3.4336   -2.2354    1.1641 H   0  0  0  0  0  0  0  0  0  0  0  0
   -3.2256   -2.7344   -0.5349 H   0  0  0  0  0  0  0  0  0  0  0  0
   -1.4126   -2.2444    0.4801 C   0  0  0  0  0  0  0  0  0  0  0  0
   -0.4686   -2.9534    0.8001 O   0  0  0  0  0  0  0  0  0  0  0  0
   -1.2736   -0.9704    0.1241 N   0  0  0  0  0  0  0  0  0  0  0  0
   -2.0996   -0.4354   -0.1019 H   0  0  0  0  0  0  0  0  0  0  0  0
   -0.0016   -0.2394    0.1271 C   0  0  1  0  0  0  0  0  0  0  0  0
    0.7164   -0.7963    0.7332 H   0  0  0  0  0  0  0  0  0  0  0  0
    0.5351   -0.1414   -1.3146 C   0  0  0  0  0  0  0  0  0  0  0  0
    1.1780   -0.9979   -1.5216 H   0  0  0  0  0  0  0  0  0  0  0  0
   -0.2971   -0.1693   -2.0190 H   0  0  0  0  0  0  0  0  0  0  0  0
    1.3663    1.1124   -1.5689 C   0  0  0  0  0  0  0  0  0  0  0  0
    1.2198    2.1903   -1.0077 O   0  0  0  0  0  0  0  0  0  0  0  0
    2.3248    0.9743   -2.5038 O   0  0  0  0  0  0  0  0  0  0  0  0
    2.7743    1.8190   -2.5456 H   0  0  0  0  0  0  0  0  0  0  0  0
   -0.1923    1.1526    0.7617 C   0  0  0  0  0  0  0  0  0  0  0  0
   -1.1582    1.8438    0.4410 O   0  0  0  0  0  0  0  0  0  0  0  0
    0.7203    1.5683    1.6472 N   0  0  0  0  0  0  0  0  0  0  0  0
    1.5210    0.9664    1.8100 H   0  0  0  0  0  0  0  0  0  0  0  0
    0.6747    2.8558    2.3368 C   0  0  0  0  0  0  0  0  0  0  0  0
   -0.3018    2.9877    2.8079 H   0  0  0  0  0  0  0  0  0  0  0  0
    1.4516    2.8997    3.1011 H   0  0  0  0  0  0  0  0  0  0  0  0
    0.8279    3.6639    1.6193 H   0  0  0  0  0  0  0  0  0  0  0  0
  5  6  2  0  0  0  0
  5  7  1  0  0  0  0
  2  3  1  0  0  0  0
  2  4  1  0  0  0  0
  2  5  1  0  0  0  0
  1  2  1  0  0  0  0
 18 19  2  0  0  0  0
 18 20  1  0  0  0  0
 16 17  1  0  0  0  0
 14 15  2  0  0  0  0
 14 16  1  0  0  0  0
 11 12  1  0  0  0  0
 11 13  1  0  0  0  0
 11 14  1  0  0  0  0
  9 10  1  0  0  0  0
  9 11  1  0  0  0  0
  9 18  1  0  0  0  0
  7  8  1  0  0  0  0
  7  9  1  0  0  0  0
 22 23  1  0  0  0  0
 22 24  1  0  0  0  0
 22 25  1  0  0  0  0
 20 21  1  0  0  0  0
 20 22  1  0  0  0  0
M  END
$$$$
default_name
  -OEChem-02102213163D

 25 24  0     1  0  0  0  0  0999 V2000
   -2.7826   -3.8464    0.7821 H   0  0  0  0  0  0  0  0  0  0  0  0
   -2.8156   -2.8034    0.4711 C   0  0  0  0  0  0  0  0  0  0  0  0
   -3.4336   -2.2354    1.1641 H   0  0  0  0  0  0  0  0  0  0  0  0
   -3.2256   -2.7344   -0.5349 H   0  0  0  0  0  0  0  0  0  0  0  0
   -1.4126   -2.2444    0.4801 C   0  0  0  0  0  0  0  0  0  0  0  0
   -0.4686   -2.9534    0.8001 O   0  0  0  0  0  0  0  0  0  0  0  0
   -1.2736   -0.9704    0.1241 N   0  0  0  0  0  0  0  0  0  0  0  0
   -2.0996   -0.4354   -0.1019 H   0  0  0  0  0  0  0  0  0  0  0  0
   -0.0016   -0.2394    0.1271 C   0  0  1  0  0  0  0  0  0  0  0  0
    0.7164   -0.7963    0.7332 H   0  0  0  0  0  0  0  0  0  0  0  0
    0.5351   -0.1414   -1.3146 C   0  0  0  0  0  0  0  0  0  0  0  0
    1.1780   -0.9979   -1.5216 H   0  0  0  0  0  0  0  0  0  0  0  0
   -0.2971   -0.1693   -2.0190 H   0  0  0  0  0  0  0  0  0  0  0  0
    1.3663    1.1124   -1.5689 C   0  0  0  0  0  0  0  0  0  0  0  0
    1.4039    2.1007   -0.8477 O   0  0  0  0  0  0  0  0  0  0  0  0
    2.0978    1.0853   -2.6985 O   0  0  0  0  0  0  0  0  0  0  0  0
    2.5771    1.9142   -2.7208 H   0  0  0  0  0  0  0  0  0  0  0  0
   -0.1923    1.1526    0.7617 C   0  0  0  0  0  0  0  0  0  0  0  0
   -1.1582    1.8438    0.4410 O   0  0  0  0  0  0  0  0  0  0  0  0
    0.7203    1.5683    1.6472 N   0  0  0  0  0  0  0  0  0  0  0  0
    1.5210    0.9664    1.8100 H   0  0  0  0  0  0  0  0  0  0  0  0
    0.6747    2.8558    2.3368 C   0  0  0  0  0  0  0  0  0  0  0  0
   -0.3018    2.9877    2.8079 H   0  0  0  0  0  0  0  0  0  0  0  0
    1.4516    2.8997    3.1011 H   0  0  0  0  0  0  0  0  0  0  0  0
    0.8279    3.6639    1.6193 H   0  0  0  0  0  0  0  0  0  0  0  0
  5  6  2  0  0  0  0
  5  7  1  0  0  0  0
  2  3  1  0  0  0  0
  2  4  1  0  0  0  0
  2  5  1  0  0  0  0
  1  2  1  0  0  0  0
 18 19  2  0  0  0  0
 18 20  1  0  0  0  0
 16 17  1  0  0  0  0
 14 15  2  0  0  0  0
 14 16  1  0  0  0  0
 11 12  1  0  0  0  0
 11 13  1  0  0  0  0
 11 14  1  0  0  0  0
  9 10  1  0  0  0  0
  9 11  1  0  0  0  0
  9 18  1  0  0  0  0
  7  8  1  0  0  0  0
  7  9  1  0  0  0  0
 22 23  1  0  0  0  0
 22 24  1  0  0  0  0
 22 25  1  0  0  0  0
 20 21  1  0  0  0  0
 20 22  1  0  0  0  0
M  END
$$$$
default_name
  -OEChem-02102213163D

 25 24  0     1  0  0  0  0  0999 V2000
   -2.7826   -3.8464    0.7821 H   0  0  0  0  0  0  0  0  0  0  0  0
   -2.8156   -2.8034    0.4711 C   0  0  0  0  0  0  0  0  0  0  0  0
   -3.4336   -2.2354    1.1641 H   0  0  0  0  0  0  0  0  0  0  0  0
   -3.2256   -2.7344   -0.5349 H   0  0  0  0  0  0  0  0  0  0  0  0
   -1.4126   -2.2444    0.4801 C   0  0  0  0  0  0  0  0  0  0  0  0
   -0.4686   -2.9534    0.8001 O   0  0  0  0  0  0  0  0  0  0  0  0
   -1.2736   -0.9704    0.1241 N   0  0  0  0  0  0  0  0  0  0  0  0
   -2.0996   -0.4354   -0.1019 H   0  0  0  0  0  0  0  0  0  0  0  0
   -0.0016   -0.2394    0.1271 C   0  0  1  0  0  0  0  0  0  0  0  0
    0.7164   -0.7963    0.7332 H   0  0  0  0  0  0  0  0  0  0  0  0
    0.5351   -0.1414   -1.3146 C   0  0  0  0  0  0  0  0  0  0  0  0
    1.1780   -0.9979   -1.5216 H   0  0  0  0  0  0  0  0  0  0  0  0
   -0.2971   -0.1693   -2.0190 H   0  0  0  0  0  0  0  0  0  0  0  0
    1.3663    1.1124   -1.5689 C   0  0  0  0  0  0  0  0  0  0  0  0
    1.6119    1.9837   -0.7450 O   0  0  0  0  0  0  0  0  0  0  0  0
    1.8419    1.2298   -2.8227 O   0  0  0  0  0  0  0  0  0  0  0  0
    2.3534    2.0394   -2.8346 H   0  0  0  0  0  0  0  0  0  0  0  0
   -0.1923    1.1526    0.7617 C   0  0  0  0  0  0  0  0  0  0  0  0
   -1.1582    1.8438    0.4410 O   0  0  0  0  0  0  0  0  0  0  0  0
    0.7203    1.5683    1.6472 N   0  0  0  0  0  0  0  0  0  0  0  0
    1.5210    0.9664    1.8100 H   0  0  0  0  0  0  0  0  0  0  0  0
    0.6747    2.8558    2.3368 C   0  0  0  0  0  0  0  0  0  0  0  0
   -0.3018    2.9877    2.8079 H   0  0  0  0  0  0  0  0  0  0  0  0
    1.4516    2.8997    3.1011 H   0  0  0  0  0  0  0  0  0  0  0  0
    0.8279    3.6639    1.6193 H   0  0  0  0  0  0  0  0  0  0  0  0
  5  6  2  0  0  0  0
  5  7  1  0  0  0  0
  2  3  1  0  0  0  0
  2  4  1  0  0  0  0
  2  5  1  0  0  0  0
  1  2  1  0  0  0  0
 18 19  2  0  0  0  0
 18 20  1  0  0  0  0
 16 17  1  0  0  0  0
 14 15  2  0  0  0  0
 14 16  1  0  0  0  0
 11 12  1  0  0  0  0
 11 13  1  0  0  0  0
 11 14  1  0  0  0  0
  9 10  1  0  0  0  0
  9 11  1  0  0  0  0
  9 18  1  0  0  0  0
  7  8  1  0  0  0  0
  7  9  1  0  0  0  0
 22 23  1  0  0  0  0
 22 24  1  0  0  0  0
 22 25  1  0  0  0  0
 20 21  1  0  0  0  0
 20 22  1  0  0  0  0
M  END
$$$$
default_name
  -OEChem-02102213163D

 25 24  0     1  0  0  0  0  0999 V2000
   -2.7826   -3.8464    0.7821 H   0  0  0  0  0  0  0  0  0  0  0  0
   -2.8156   -2.8034    0.4711 C   0  0  0  0  0  0  0  0  0  0  0  0
   -3.4336   -2.2354    1.1641 H   0  0  0  0  0  0  0  0  0  0  0  0
   -3.2256   -2.7344   -0.5349 H   0  0  0  0  0  0  0  0  0  0  0  0
   -1.4126   -2.2444    0.4801 C   0  0  0  0  0  0  0  0  0  0  0  0
   -0.4686   -2.9534    0.8001 O   0  0  0  0  0  0  0  0  0  0  0  0
   -1.2736   -0.9704    0.1241 N   0  0  0  0  0  0  0  0  0  0  0  0
   -2.0996   -0.4354   -0.1019 H   0  0  0  0  0  0  0  0  0  0  0  0
   -0.0016   -0.2394    0.1271 C   0  0  1  0  0  0  0  0  0  0  0  0
    0.7164   -0.7963    0.7332 H   0  0  0  0  0  0  0  0  0  0  0  0
    0.5351   -0.1414   -1.3146 C   0  0  0  0  0  0  0  0  0  0  0  0
    1.1780   -0.9979   -1.5216 H   0  0  0  0  0  0  0  0  0  0  0  0
   -0.2971   -0.1693   -2.0190 H   0  0  0  0  0  0  0  0  0  0  0  0
    1.3663    1.1124   -1.5689 C   0  0  0  0  0  0  0  0  0  0  0  0
    1.8296    1.8472   -0.7065 O   0  0  0  0  0  0  0  0  0  0  0  0
    1.5746    1.3979   -2.8678 O   0  0  0  0  0  0  0  0  0  0  0  0
    2.1186    2.1860   -2.8793 H   0  0  0  0  0  0  0  0  0  0  0  0
   -0.1923    1.1526    0.7617 C   0  0  0  0  0  0  0  0  0  0  0  0
   -1.1582    1.8438    0.4410 O   0  0  0  0  0  0  0  0  0  0  0  0
    0.7203    1.5683    1.6472 N   0  0  0  0  0  0  0  0  0  0  0  0
    1.5210    0.9664    1.8100 H   0  0  0  0  0  0  0  0  0  0  0  0
    0.6747    2.8558    2.3368 C   0  0  0  0  0  0  0  0  0  0  0  0
   -0.3018    2.9877    2.8079 H   0  0  0  0  0  0  0  0  0  0  0  0
    1.4516    2.8997    3.1011 H   0  0  0  0  0  0  0  0  0  0  0  0
    0.8279    3.6639    1.6193 H   0  0  0  0  0  0  0  0  0  0  0  0
  5  6  2  0  0  0  0
  5  7  1  0  0  0  0
  2  3  1  0  0  0  0
  2  4  1  0  0  0  0
  2  5  1  0  0  0  0
  1  2  1  0  0  0  0
 18 19  2  0  0  0  0
 18 20  1  0  0  0  0
 16 17  1  0  0  0  0
 14 15  2  0  0  0  0
 14 16  1  0  0  0  0
 11 12  1  0  0  0  0
 11 13  1  0  0  0  0
 11 14  1  0  0  0  0
  9 10  1  0  0  0  0
  9 11  1  0  0  0  0
  9 18  1  0  0  0  0
  7  8  1  0  0  0  0
  7  9  1  0  0  0  0
 22 23  1  0  0  0  0
 22 24  1  0  0  0  0
 22 25  1  0  0  0  0
 20 21  1  0  0  0  0
 20 22  1  0  0  0  0
M  END
$$$$
default_name
  -OEChem-02102213163D

 25 24  0     1  0  0  0  0  0999 V2000
   -2.7826   -3.8464    0.7821 H   0  0  0  0  0  0  0  0  0  0  0  0
   -2.8156   -2.8034    0.4711 C   0  0  0  0  0  0  0  0  0  0  0  0
   -3.4336   -2.2354    1.1641 H   0  0  0  0  0  0  0  0  0  0  0  0
   -3.2256   -2.7344   -0.5349 H   0  0  0  0  0  0  0  0  0  0  0  0
   -1.4126   -2.2444    0.4801 C   0  0  0  0  0  0  0  0  0  0  0  0
   -0.4686   -2.9534    0.8001 O   0  0  0  0  0  0  0  0  0  0  0  0
   -1.2736   -0.9704    0.1241 N   0  0  0  0  0  0  0  0  0  0  0  0
   -2.0996   -0.4354   -0.1019 H   0  0  0  0  0  0  0  0  0  0  0  0
   -0.0016   -0.2394    0.1271 C   0  0  1  0  0  0  0  0  0  0  0  0
    0.7164   -0.7963    0.7332 H   0  0  0  0  0  0  0  0  0  0  0  0
    0.5351   -0.1414   -1.3146 C   0  0  0  0  0  0  0  0  0  0  0  0
    1.1780   -0.9979   -1.5216 H   0  0  0  0  0  0  0  0  0  0  0  0
   -0.2971   -0.1693   -2.0190 H   0  0  0  0  0  0  0  0  0  0  0  0
    1.3663    1.1124   -1.5689 C   0  0  0  0  0  0  0  0  0  0  0  0
    2.0422    1.7005   -0.7349 O   0  0  0  0  0  0  0  0  0  0  0  0
    1.3140    1.5781   -2.8308 O   0  0  0  0  0  0  0  0  0  0  0  0
    1.8886    2.3440   -2.8519 H   0  0  0  0  0  0  0  0  0  0  0  0
   -0.1923    1.1526    0.7617 C   0  0  0  0  0  0  0  0  0  0  0  0
   -1.1582    1.8438    0.4410 O   0  0  0  0  0  0  0  0  0  0  0  0
    0.7203    1.5683    1.6472 N   0  0  0  0  0  0  0  0  0  0  0  0
    1.5210    0.9664    1.8100 H   0  0  0  0  0  0  0  0  0  0  0  0
    0.6747    2.8558    2.3368 C   0  0  0  0  0  0  0  0  0  0  0  0
   -0.3018    2.9877    2.8079 H   0  0  0  0  0  0  0  0  0  0  0  0
    1.4516    2.8997    3.1011 H   0  0  0  0  0  0  0  0  0  0  0  0
    0.8279    3.6639    1.6193 H   0  0  0  0  0  0  0  0  0  0  0  0
  5  6  2  0  0  0  0
  5  7  1  0  0  0  0
  2  3  1  0  0  0  0
  2  4  1  0  0  0  0
  2  5  1  0  0  0  0
  1  2  1  0  0  0  0
 18 19  2  0  0  0  0
 18 20  1  0  0  0  0
 16 17  1  0  0  0  0
 14 15  2  0  0  0  0
 14 16  1  0  0  0  0
 11 12  1  0  0  0  0
 11 13  1  0  0  0  0
 11 14  1  0  0  0  0
  9 10  1  0  0  0  0
  9 11  1  0  0  0  0
  9 18  1  0  0  0  0
  7  8  1  0  0  0  0
  7  9  1  0  0  0  0
 22 23  1  0  0  0  0
 22 24  1  0  0  0  0
 22 25  1  0  0  0  0
 20 21  1  0  0  0  0
 20 22  1  0  0  0  0
M  END
$$$$
default_name
  -OEChem-02102213163D

 25 24  0     1  0  0  0  0  0999 V2000
   -2.7826   -3.8464    0.7821 H   0  0  0  0  0  0  0  0  0  0  0  0
   -2.8156   -2.8034    0.4711 C   0  0  0  0  0  0  0  0  0  0  0  0
   -3.4336   -2.2354    1.1641 H   0  0  0  0  0  0  0  0  0  0  0  0
   -3.2256   -2.7344   -0.5349 H   0  0  0  0  0  0  0  0  0  0  0  0
   -1.4126   -2.2444    0.4801 C   0  0  0  0  0  0  0  0  0  0  0  0
   -0.4686   -2.9534    0.8001 O   0  0  0  0  0  0  0  0  0  0  0  0
   -1.2736   -0.9704    0.1241 N   0  0  0  0  0  0  0  0  0  0  0  0
   -2.0996   -0.4354   -0.1019 H   0  0  0  0  0  0  0  0  0  0  0  0
   -0.0016   -0.2394    0.1271 C   0  0  1  0  0  0  0  0  0  0  0  0
    0.7164   -0.7963    0.7332 H   0  0  0  0  0  0  0  0  0  0  0  0
    0.5351   -0.1414   -1.3146 C   0  0  0  0  0  0  0  0  0  0  0  0
    1.1780   -0.9979   -1.5216 H   0  0  0  0  0  0  0  0  0  0  0  0
   -0.2971   -0.1693   -2.0190 H   0  0  0  0  0  0  0  0  0  0  0  0
    1.3663    1.1124   -1.5689 C   0  0  0  0  0  0  0  0  0  0  0  0
    2.2351    1.5537   -0.8282 O   0  0  0  0  0  0  0  0  0  0  0  0
    1.0779    1.7583   -2.7142 O   0  0  0  0  0  0  0  0  0  0  0  0
    1.6790    2.5028   -2.7542 H   0  0  0  0  0  0  0  0  0  0  0  0
   -0.1923    1.1526    0.7617 C   0  0  0  0  0  0  0  0  0  0  0  0
   -1.1582    1.8438    0.4410 O   0  0  0  0  0  0  0  0  0  0  0  0
    0.7203    1.5683    1.6472 N   0  0  0  0  0  0  0  0  0  0  0  0
    1.5210    0.9664    1.8100 H   0  0  0  0  0  0  0  0  0  0  0  0
    0.6747    2.8558    2.3368 C   0  0  0  0  0  0  0  0  0  0  0  0
   -0.3018    2.9877    2.8079 H   0  0  0  0  0  0  0  0  0  0  0  0
    1.4516    2.8997    3.1011 H   0  0  0  0  0  0  0  0  0  0  0  0
    0.8279    3.6639    1.6193 H   0  0  0  0  0  0  0  0  0  0  0  0
  5  6  2  0  0  0  0
  5  7  1  0  0  0  0
  2  3  1  0  0  0  0
  2  4  1  0  0  0  0
  2  5  1  0  0  0  0
  1  2  1  0  0  0  0
 18 19  2  0  0  0  0
 18 20  1  0  0  0  0
 16 17  1  0  0  0  0
 14 15  2  0  0  0  0
 14 16  1  0  0  0  0
 11 12  1  0  0  0  0
 11 13  1  0  0  0  0
 11 14  1  0  0  0  0
  9 10  1  0  0  0  0
  9 11  1  0  0  0  0
  9 18  1  0  0  0  0
  7  8  1  0  0  0  0
  7  9  1  0  0  0  0
 22 23  1  0  0  0  0
 22 24  1  0  0  0  0
 22 25  1  0  0  0  0
 20 21  1  0  0  0  0
 20 22  1  0  0  0  0
M  END
$$$$
default_name
  -OEChem-02102213163D

 25 24  0     1  0  0  0  0  0999 V2000
   -2.7826   -3.8464    0.7821 H   0  0  0  0  0  0  0  0  0  0  0  0
   -2.8156   -2.8034    0.4711 C   0  0  0  0  0  0  0  0  0  0  0  0
   -3.4336   -2.2354    1.1641 H   0  0  0  0  0  0  0  0  0  0  0  0
   -3.2256   -2.7344   -0.5349 H   0  0  0  0  0  0  0  0  0  0  0  0
   -1.4126   -2.2444    0.4801 C   0  0  0  0  0  0  0  0  0  0  0  0
   -0.4686   -2.9534    0.8001 O   0  0  0  0  0  0  0  0  0  0  0  0
   -1.2736   -0.9704    0.1241 N   0  0  0  0  0  0  0  0  0  0  0  0
   -2.0996   -0.4354   -0.1019 H   0  0  0  0  0  0  0  0  0  0  0  0
   -0.0016   -0.2394    0.1271 C   0  0  1  0  0  0  0  0  0  0  0  0
    0.7164   -0.7963    0.7332 H   0  0  0  0  0  0  0  0  0  0  0  0
    0.5351   -0.1414   -1.3146 C   0  0  0  0  0  0  0  0  0  0  0  0
    1.1780   -0.9979   -1.5216 H   0  0  0  0  0  0  0  0  0  0  0  0
   -0.2971   -0.1693   -2.0190 H   0  0  0  0  0  0  0  0  0  0  0  0
    1.3663    1.1124   -1.5689 C   0  0  0  0  0  0  0  0  0  0  0  0
    2.3953    1.4167   -0.9800 O   0  0  0  0  0  0  0  0  0  0  0  0
    0.8825    1.9260   -2.5260 O   0  0  0  0  0  0  0  0  0  0  0  0
    1.5043    2.6513   -2.5929 H   0  0  0  0  0  0  0  0  0  0  0  0
   -0.1923    1.1526    0.7617 C   0  0  0  0  0  0  0  0  0  0  0  0
   -1.1582    1.8438    0.4410 O   0  0  0  0  0  0  0  0  0  0  0  0
    0.7203    1.5683    1.6472 N   0  0  0  0  0  0  0  0  0  0  0  0
    1.5210    0.9664    1.8100 H   0  0  0  0  0  0  0  0  0  0  0  0
    0.6747    2.8558    2.3368 C   0  0  0  0  0  0  0  0  0  0  0  0
   -0.3018    2.9877    2.8079 H   0  0  0  0  0  0  0  0  0  0  0  0
    1.4516    2.8997    3.1011 H   0  0  0  0  0  0  0  0  0  0  0  0
    0.8279    3.6639    1.6193 H   0  0  0  0  0  0  0  0  0  0  0  0
  5  6  2  0  0  0  0
  5  7  1  0  0  0  0
  2  3  1  0  0  0  0
  2  4  1  0  0  0  0
  2  5  1  0  0  0  0
  1  2  1  0  0  0  0
 18 19  2  0  0  0  0
 18 20  1  0  0  0  0
 16 17  1  0  0  0  0
 14 15  2  0  0  0  0
 14 16  1  0  0  0  0
 11 12  1  0  0  0  0
 11 13  1  0  0  0  0
 11 14  1  0  0  0  0
  9 10  1  0  0  0  0
  9 11  1  0  0  0  0
  9 18  1  0  0  0  0
  7  8  1  0  0  0  0
  7  9  1  0  0  0  0
 22 23  1  0  0  0  0
 22 24  1  0  0  0  0
 22 25  1  0  0  0  0
 20 21  1  0  0  0  0
 20 22  1  0  0  0  0
M  END
$$$$
default_name
  -OEChem-02102213163D

 25 24  0     1  0  0  0  0  0999 V2000
   -2.7826   -3.8464    0.7821 H   0  0  0  0  0  0  0  0  0  0  0  0
   -2.8156   -2.8034    0.4711 C   0  0  0  0  0  0  0  0  0  0  0  0
   -3.4336   -2.2354    1.1641 H   0  0  0  0  0  0  0  0  0  0  0  0
   -3.2256   -2.7344   -0.5349 H   0  0  0  0  0  0  0  0  0  0  0  0
   -1.4126   -2.2444    0.4801 C   0  0  0  0  0  0  0  0  0  0  0  0
   -0.4686   -2.9534    0.8001 O   0  0  0  0  0  0  0  0  0  0  0  0
   -1.2736   -0.9704    0.1241 N   0  0  0  0  0  0  0  0  0  0  0  0
   -2.0996   -0.4354   -0.1019 H   0  0  0  0  0  0  0  0  0  0  0  0
   -0.0016   -0.2394    0.1271 C   0  0  1  0  0  0  0  0  0  0  0  0
    0.7164   -0.7963    0.7332 H   0  0  0  0  0  0  0  0  0  0  0  0
    0.5351   -0.1414   -1.3146 C   0  0  0  0  0  0  0  0  0  0  0  0
    1.1780   -0.9979   -1.5216 H   0  0  0  0  0  0  0  0  0  0  0  0
   -0.2971   -0.1693   -2.0190 H   0  0  0  0  0  0  0  0  0  0  0  0
    1.3663    1.1124   -1.5689 C   0  0  0  0  0  0  0  0  0  0  0  0
    2.5119    1.2988   -1.1801 O   0  0  0  0  0  0  0  0  0  0  0  0
    0.7410    2.0699   -2.2790 O   0  0  0  0  0  0  0  0  0  0  0  0
    1.3762    2.7796   -2.3789 H   0  0  0  0  0  0  0  0  0  0  0  0
   -0.1923    1.1526    0.7617 C   0  0  0  0  0  0  0  0  0  0  0  0
   -1.1582    1.8438    0.4410 O   0  0  0  0  0  0  0  0  0  0  0  0
    0.7203    1.5683    1.6472 N   0  0  0  0  0  0  0  0  0  0  0  0
    1.5210    0.9664    1.8100 H   0  0  0  0  0  0  0  0  0  0  0  0
    0.6747    2.8558    2.3368 C   0  0  0  0  0  0  0  0  0  0  0  0
   -0.3018    2.9877    2.8079 H   0  0  0  0  0  0  0  0  0  0  0  0
    1.4516    2.8997    3.1011 H   0  0  0  0  0  0  0  0  0  0  0  0
    0.8279    3.6639    1.6193 H   0  0  0  0  0  0  0  0  0  0  0  0
  5  6  2  0  0  0  0
  5  7  1  0  0  0  0
  2  3  1  0  0  0  0
  2  4  1  0  0  0  0
  2  5  1  0  0  0  0
  1  2  1  0  0  0  0
 18 19  2  0  0  0  0
 18 20  1  0  0  0  0
 16 17  1  0  0  0  0
 14 15  2  0  0  0  0
 14 16  1  0  0  0  0
 11 12  1  0  0  0  0
 11 13  1  0  0  0  0
 11 14  1  0  0  0  0
  9 10  1  0  0  0  0
  9 11  1  0  0  0  0
  9 18  1  0  0  0  0
  7  8  1  0  0  0  0
  7  9  1  0  0  0  0
 22 23  1  0  0  0  0
 22 24  1  0  0  0  0
 22 25  1  0  0  0  0
 20 21  1  0  0  0  0
 20 22  1  0  0  0  0
M  END
$$$$
default_name
  -OEChem-02102213163D

 25 24  0     1  0  0  0  0  0999 V2000
   -2.7826   -3.8464    0.7821 H   0  0  0  0  0  0  0  0  0  0  0  0
   -2.8156   -2.8034    0.4711 C   0  0  0  0  0  0  0  0  0  0  0  0
   -3.4336   -2.2354    1.1641 H   0  0  0  0  0  0  0  0  0  0  0  0
   -3.2256   -2.7344   -0.5349 H   0  0  0  0  0  0  0  0  0  0  0  0
   -1.4126   -2.2444    0.4801 C   0  0  0  0  0  0  0  0  0  0  0  0
   -0.4686   -2.9534    0.8001 O   0  0  0  0  0  0  0  0  0  0  0  0
   -1.2736   -0.9704    0.1241 N   0  0  0  0  0  0  0  0  0  0  0  0
   -2.0996   -0.4354   -0.1019 H   0  0  0  0  0  0  0  0  0  0  0  0
   -0.0016   -0.2394    0.1271 C   0  0  1  0  0  0  0  0  0  0  0  0
    0.7164   -0.7963    0.7332 H   0  0  0  0  0  0  0  0  0  0  0  0
    0.5351   -0.1414   -1.3146 C   0  0  0  0  0  0  0  0  0  0  0  0
    1.1780   -0.9979   -1.5216 H   0  0  0  0  0  0  0  0  0  0  0  0
   -0.2971   -0.1693   -2.0190 H   0  0  0  0  0  0  0  0  0  0  0  0
    1.3663    1.1124   -1.5689 C   0  0  0  0  0  0  0  0  0  0  0  0
    2.5768    1.2082   -1.4148 O   0  0  0  0  0  0  0  0  0  0  0  0
    0.6630    2.1802   -1.9900 O   0  0  0  0  0  0  0  0  0  0  0  0
    1.3035    2.8789   -2.1269 H   0  0  0  0  0  0  0  0  0  0  0  0
   -0.1923    1.1526    0.7617 C   0  0  0  0  0  0  0  0  0  0  0  0
   -1.1582    1.8438    0.4410 O   0  0  0  0  0  0  0  0  0  0  0  0
    0.7203    1.5683    1.6472 N   0  0  0  0  0  0  0  0  0  0  0  0
    1.5210    0.9664    1.8100 H   0  0  0  0  0  0  0  0  0  0  0  0
    0.6747    2.8558    2.3368 C   0  0  0  0  0  0  0  0  0  0  0  0
   -0.3018    2.9877    2.8079 H   0  0  0  0  0  0  0  0  0  0  0  0
    1.4516    2.8997    3.1011 H   0  0  0  0  0  0  0  0  0  0  0  0
    0.8279    3.6639    1.6193 H   0  0  0  0  0  0  0  0  0  0  0  0
  5  6  2  0  0  0  0
  5  7  1  0  0  0  0
  2  3  1  0  0  0  0
  2  4  1  0  0  0  0
  2  5  1  0  0  0  0
  1  2  1  0  0  0  0
 18 19  2  0  0  0  0
 18 20  1  0  0  0  0
 16 17  1  0  0  0  0
 14 15  2  0  0  0  0
 14 16  1  0  0  0  0
 11 12  1  0  0  0  0
 11 13  1  0  0  0  0
 11 14  1  0  0  0  0
  9 10  1  0  0  0  0
  9 11  1  0  0  0  0
  9 18  1  0  0  0  0
  7  8  1  0  0  0  0
  7  9  1  0  0  0  0
 22 23  1  0  0  0  0
 22 24  1  0  0  0  0
 22 25  1  0  0  0  0
 20 21  1  0  0  0  0
 20 22  1  0  0  0  0
M  END
$$$$
default_name
  -OEChem-02102213163D

 25 24  0     1  0  0  0  0  0999 V2000
   -2.7826   -3.8464    0.7821 H   0  0  0  0  0  0  0  0  0  0  0  0
   -2.8156   -2.8034    0.4711 C   0  0  0  0  0  0  0  0  0  0  0  0
   -3.4336   -2.2354    1.1641 H   0  0  0  0  0  0  0  0  0  0  0  0
   -3.2256   -2.7344   -0.5349 H   0  0  0  0  0  0  0  0  0  0  0  0
   -1.4126   -2.2444    0.4801 C   0  0  0  0  0  0  0  0  0  0  0  0
   -0.4686   -2.9534    0.8001 O   0  0  0  0  0  0  0  0  0  0  0  0
   -1.2736   -0.9704    0.1241 N   0  0  0  0  0  0  0  0  0  0  0  0
   -2.0996   -0.4354   -0.1019 H   0  0  0  0  0  0  0  0  0  0  0  0
   -0.0016   -0.2394    0.1271 C   0  0  1  0  0  0  0  0  0  0  0  0
    0.7164   -0.7963    0.7332 H   0  0  0  0  0  0  0  0  0  0  0  0
    0.5351   -0.1414   -1.3146 C   0  0  0  0  0  0  0  0  0  0  0  0
    1.1780   -0.9979   -1.5216 H   0  0  0  0  0  0  0  0  0  0  0  0
   -0.2971   -0.1693   -2.0190 H   0  0  0  0  0  0  0  0  0  0  0  0
    1.3663    1.1124   -1.5689 C   0  0  0  0  0  0  0  0  0  0  0  0
    2.5857    1.1510   -1.6681 O   0  0  0  0  0  0  0  0  0  0  0  0
    0.6540    2.2493   -1.6787 O   0  0  0  0  0  0  0  0  0  0  0  0
    1.2912    2.9424   -1.8540 H   0  0  0  0  0  0  0  0  0  0  0  0
   -0.1923    1.1526    0.7617 C   0  0  0  0  0  0  0  0  0  0  0  0
   -1.1582    1.8438    0.4410 O   0  0  0  0  0  0  0  0  0  0  0  0
    0.7203    1.5683    1.6472 N   0  0  0  0  0  0  0  0  0  0  0  0
    1.5210    0.9664    1.8100 H   0  0  0  0  0  0  0  0  0  0  0  0
    0.6747    2.8558    2.3368 C   0  0  0  0  0  0  0  0  0  0  0  0
   -0.3018    2.9877    2.8079 H   0  0  0  0  0  0  0  0  0  0  0  0
    1.4516    2.8997    3.1011 H   0  0  0  0  0  0  0  0  0  0  0  0
    0.8279    3.6639    1.6193 H   0  0  0  0  0  0  0  0  0  0  0  0
  5  6  2  0  0  0  0
  5  7  1  0  0  0  0
  2  3  1  0  0  0  0
  2  4  1  0  0  0  0
  2  5  1  0  0  0  0
  1  2  1  0  0  0  0
 18 19  2  0  0  0  0
 18 20  1  0  0  0  0
 16 17  1  0  0  0  0
 14 15  2  0  0  0  0
 14 16  1  0  0  0  0
 11 12  1  0  0  0  0
 11 13  1  0  0  0  0
 11 14  1  0  0  0  0
  9 10  1  0  0  0  0
  9 11  1  0  0  0  0
  9 18  1  0  0  0  0
  7  8  1  0  0  0  0
  7  9  1  0  0  0  0
 22 23  1  0  0  0  0
 22 24  1  0  0  0  0
 22 25  1  0  0  0  0
 20 21  1  0  0  0  0
 20 22  1  0  0  0  0
M  END
$$$$
default_name
  -OEChem-02102213163D

 25 24  0     1  0  0  0  0  0999 V2000
   -2.7826   -3.8464    0.7821 H   0  0  0  0  0  0  0  0  0  0  0  0
   -2.8156   -2.8034    0.4711 C   0  0  0  0  0  0  0  0  0  0  0  0
   -3.4336   -2.2354    1.1641 H   0  0  0  0  0  0  0  0  0  0  0  0
   -3.2256   -2.7344   -0.5349 H   0  0  0  0  0  0  0  0  0  0  0  0
   -1.4126   -2.2444    0.4801 C   0  0  0  0  0  0  0  0  0  0  0  0
   -0.4686   -2.9534    0.8001 O   0  0  0  0  0  0  0  0  0  0  0  0
   -1.2736   -0.9704    0.1241 N   0  0  0  0  0  0  0  0  0  0  0  0
   -2.0996   -0.4354   -0.1019 H   0  0  0  0  0  0  0  0  0  0  0  0
   -0.0016   -0.2394    0.1271 C   0  0  1  0  0  0  0  0  0  0  0  0
    0.7164   -0.7963    0.7332 H   0  0  0  0  0  0  0  0  0  0  0  0
    0.5351   -0.1414   -1.3146 C   0  0  0  0  0  0  0  0  0  0  0  0
    1.1780   -0.9979   -1.5216 H   0  0  0  0  0  0  0  0  0  0  0  0
   -0.2971   -0.1693   -2.0190 H   0  0  0  0  0  0  0  0  0  0  0  0
    1.3663    1.1124   -1.5689 C   0  0  0  0  0  0  0  0  0  0  0  0
    2.5379    1.1310   -1.9227 O   0  0  0  0  0  0  0  0  0  0  0  0
    0.7144    2.2726   -1.3663 O   0  0  0  0  0  0  0  0  0  0  0  0
    1.3401    2.9658   -1.5789 H   0  0  0  0  0  0  0  0  0  0  0  0
   -0.1923    1.1526    0.7617 C   0  0  0  0  0  0  0  0  0  0  0  0
   -1.1582    1.8438    0.4410 O   0  0  0  0  0  0  0  0  0  0  0  0
    0.7203    1.5683    1.6472 N   0  0  0  0  0  0  0  0  0  0  0  0
    1.5210    0.9664    1.8100 H   0  0  0  0  0  0  0  0  0  0  0  0
    0.6747    2.8558    2.3368 C   0  0  0  0  0  0  0  0  0  0  0  0
   -0.3018    2.9877    2.8079 H   0  0  0  0  0  0  0  0  0  0  0  0
    1.4516    2.8997    3.1011 H   0  0  0  0  0  0  0  0  0  0  0  0
    0.8279    3.6639    1.6193 H   0  0  0  0  0  0  0  0  0  0  0  0
  5  6  2  0  0  0  0
  5  7  1  0  0  0  0
  2  3  1  0  0  0  0
  2  4  1  0  0  0  0
  2  5  1  0  0  0  0
  1  2  1  0  0  0  0
 18 19  2  0  0  0  0
 18 20  1  0  0  0  0
 16 17  1  0  0  0  0
 14 15  2  0  0  0  0
 14 16  1  0  0  0  0
 11 12  1  0  0  0  0
 11 13  1  0  0  0  0
 11 14  1  0  0  0  0
  9 10  1  0  0  0  0
  9 11  1  0  0  0  0
  9 18  1  0  0  0  0
  7  8  1  0  0  0  0
  7  9  1  0  0  0  0
 22 23  1  0  0  0  0
 22 24  1  0  0  0  0
 22 25  1  0  0  0  0
 20 21  1  0  0  0  0
 20 22  1  0  0  0  0
M  END
$$$$
default_name
  -OEChem-02102213163D

 25 24  0     1  0  0  0  0  0999 V2000
   -2.7826   -3.8464    0.7821 H   0  0  0  0  0  0  0  0  0  0  0  0
   -2.8156   -2.8034    0.4711 C   0  0  0  0  0  0  0  0  0  0  0  0
   -3.4336   -2.2354    1.1641 H   0  0  0  0  0  0  0  0  0  0  0  0
   -3.2256   -2.7344   -0.5349 H   0  0  0  0  0  0  0  0  0  0  0  0
   -1.4126   -2.2444    0.4801 C   0  0  0  0  0  0  0  0  0  0  0  0
   -0.4686   -2.9534    0.8001 O   0  0  0  0  0  0  0  0  0  0  0  0
   -1.2736   -0.9704    0.1241 N   0  0  0  0  0  0  0  0  0  0  0  0
   -2.0996   -0.4354   -0.1019 H   0  0  0  0  0  0  0  0  0  0  0  0
   -0.0016   -0.2394    0.1271 C   0  0  1  0  0  0  0  0  0  0  0  0
    0.7164   -0.7963    0.7332 H   0  0  0  0  0  0  0  0  0  0  0  0
    0.5351   -0.1414   -1.3146 C   0  0  0  0  0  0  0  0  0  0  0  0
    1.1780   -0.9979   -1.5216 H   0  0  0  0  0  0  0  0  0  0  0  0
   -0.2971   -0.1693   -2.0190 H   0  0  0  0  0  0  0  0  0  0  0  0
    1.3663    1.1124   -1.5689 C   0  0  0  0  0  0  0  0  0  0  0  0
    2.4368    1.1497   -2.1613 O   0  0  0  0  0  0  0  0  0  0  0  0
    0.8402    2.2484   -1.0742 O   0  0  0  0  0  0  0  0  0  0  0  0
    1.4468    2.9475   -1.3202 H   0  0  0  0  0  0  0  0  0  0  0  0
   -0.1923    1.1526    0.7617 C   0  0  0  0  0  0  0  0  0  0  0  0
   -1.1582    1.8438    0.4410 O   0  0  0  0  0  0  0  0  0  0  0  0
    0.7203    1.5683    1.6472 N   0  0  0  0  0  0  0  0  0  0  0  0
    1.5210    0.9664    1.8100 H   0  0  0  0  0  0  0  0  0  0  0  0
    0.6747    2.8558    2.3368 C   0  0  0  0  0  0  0  0  0  0  0  0
   -0.3018    2.9877    2.8079 H   0  0  0  0  0  0  0  0  0  0  0  0
    1.4516    2.8997    3.1011 H   0  0  0  0  0  0  0  0  0  0  0  0
    0.8279    3.6639    1.6193 H   0  0  0  0  0  0  0  0  0  0  0  0
  5  6  2  0  0  0  0
  5  7  1  0  0  0  0
  2  3  1  0  0  0  0
  2  4  1  0  0  0  0
  2  5  1  0  0  0  0
  1  2  1  0  0  0  0
 18 19  2  0  0  0  0
 18 20  1  0  0  0  0
 16 17  1  0  0  0  0
 14 15  2  0  0  0  0
 14 16  1  0  0  0  0
 11 12  1  0  0  0  0
 11 13  1  0  0  0  0
 11 14  1  0  0  0  0
  9 10  1  0  0  0  0
  9 11  1  0  0  0  0
  9 18  1  0  0  0  0
  7  8  1  0  0  0  0
  7  9  1  0  0  0  0
 22 23  1  0  0  0  0
 22 24  1  0  0  0  0
 22 25  1  0  0  0  0
 20 21  1  0  0  0  0
 20 22  1  0  0  0  0
M  END
$$$$
default_name
  -OEChem-02102213163D

 25 24  0     1  0  0  0  0  0999 V2000
   -2.7826   -3.8464    0.7821 H   0  0  0  0  0  0  0  0  0  0  0  0
   -2.8156   -2.8034    0.4711 C   0  0  0  0  0  0  0  0  0  0  0  0
   -3.4336   -2.2354    1.1641 H   0  0  0  0  0  0  0  0  0  0  0  0
   -3.2256   -2.7344   -0.5349 H   0  0  0  0  0  0  0  0  0  0  0  0
   -1.4126   -2.2444    0.4801 C   0  0  0  0  0  0  0  0  0  0  0  0
   -0.4686   -2.9534    0.8001 O   0  0  0  0  0  0  0  0  0  0  0  0
   -1.2736   -0.9704    0.1241 N   0  0  0  0  0  0  0  0  0  0  0  0
   -2.0996   -0.4354   -0.1019 H   0  0  0  0  0  0  0  0  0  0  0  0
   -0.0016   -0.2394    0.1271 C   0  0  1  0  0  0  0  0  0  0  0  0
    0.7164   -0.7963    0.7332 H   0  0  0  0  0  0  0  0  0  0  0  0
    0.5351   -0.1414   -1.3146 C   0  0  0  0  0  0  0  0  0  0  0  0
    1.1780   -0.9979   -1.5216 H   0  0  0  0  0  0  0  0  0  0  0  0
   -0.2971   -0.1693   -2.0190 H   0  0  0  0  0  0  0  0  0  0  0  0
    1.3663    1.1124   -1.5689 C   0  0  0  0  0  0  0  0  0  0  0  0
    2.2891    1.2057   -2.3676 O   0  0  0  0  0  0  0  0  0  0  0  0
    1.0229    2.1784   -0.8221 O   0  0  0  0  0  0  0  0  0  0  0  0
    1.6042    2.8887   -1.0956 H   0  0  0  0  0  0  0  0  0  0  0  0
   -0.1923    1.1526    0.7617 C   0  0  0  0  0  0  0  0  0  0  0  0
   -1.1582    1.8438    0.4410 O   0  0  0  0  0  0  0  0  0  0  0  0
    0.7203    1.5683    1.6472 N   0  0  0  0  0  0  0  0  0  0  0  0
    1.5210    0.9664    1.8100 H   0  0  0  0  0  0  0  0  0  0  0  0
    0.6747    2.8558    2.3368 C   0  0  0  0  0  0  0  0  0  0  0  0
   -0.3018    2.9877    2.8079 H   0  0  0  0  0  0  0  0  0  0  0  0
    1.4516    2.8997    3.1011 H   0  0  0  0  0  0  0  0  0  0  0  0
    0.8279    3.6639    1.6193 H   0  0  0  0  0  0  0  0  0  0  0  0
  5  6  2  0  0  0  0
  5  7  1  0  0  0  0
  2  3  1  0  0  0  0
  2  4  1  0  0  0  0
  2  5  1  0  0  0  0
  1  2  1  0  0  0  0
 18 19  2  0  0  0  0
 18 20  1  0  0  0  0
 16 17  1  0  0  0  0
 14 15  2  0  0  0  0
 14 16  1  0  0  0  0
 11 12  1  0  0  0  0
 11 13  1  0  0  0  0
 11 14  1  0  0  0  0
  9 10  1  0  0  0  0
  9 11  1  0  0  0  0
  9 18  1  0  0  0  0
  7  8  1  0  0  0  0
  7  9  1  0  0  0  0
 22 23  1  0  0  0  0
 22 24  1  0  0  0  0
 22 25  1  0  0  0  0
 20 21  1  0  0  0  0
 20 22  1  0  0  0  0
M  END
$$$$
default_name
  -OEChem-02102213163D

 25 24  0     1  0  0  0  0  0999 V2000
   -2.7826   -3.8464    0.7821 H   0  0  0  0  0  0  0  0  0  0  0  0
   -2.8156   -2.8034    0.4711 C   0  0  0  0  0  0  0  0  0  0  0  0
   -3.4336   -2.2354    1.1641 H   0  0  0  0  0  0  0  0  0  0  0  0
   -3.2256   -2.7344   -0.5349 H   0  0  0  0  0  0  0  0  0  0  0  0
   -1.4126   -2.2444    0.4801 C   0  0  0  0  0  0  0  0  0  0  0  0
   -0.4686   -2.9534    0.8001 O   0  0  0  0  0  0  0  0  0  0  0  0
   -1.2736   -0.9704    0.1241 N   0  0  0  0  0  0  0  0  0  0  0  0
   -2.0996   -0.4354   -0.1019 H   0  0  0  0  0  0  0  0  0  0  0  0
   -0.0016   -0.2394    0.1271 C   0  0  1  0  0  0  0  0  0  0  0  0
    0.7164   -0.7963    0.7332 H   0  0  0  0  0  0  0  0  0  0  0  0
    0.5351   -0.1414   -1.3146 C   0  0  0  0  0  0  0  0  0  0  0  0
    1.1780   -0.9979   -1.5216 H   0  0  0  0  0  0  0  0  0  0  0  0
   -0.2971   -0.1693   -2.0190 H   0  0  0  0  0  0  0  0  0  0  0  0
    1.3663    1.1124   -1.5689 C   0  0  0  0  0  0  0  0  0  0  0  0
    2.1050    1.2953   -2.5276 O   0  0  0  0  0  0  0  0  0  0  0  0
    1.2499    2.0674   -0.6274 O   0  0  0  0  0  0  0  0  0  0  0  0
    1.8014    2.7935   -0.9205 H   0  0  0  0  0  0  0  0  0  0  0  0
   -0.1923    1.1526    0.7617 C   0  0  0  0  0  0  0  0  0  0  0  0
   -1.1582    1.8438    0.4410 O   0  0  0  0  0  0  0  0  0  0  0  0
    0.7203    1.5683    1.6472 N   0  0  0  0  0  0  0  0  0  0  0  0
    1.5210    0.9664    1.8100 H   0  0  0  0  0  0  0  0  0  0  0  0
    0.6747    2.8558    2.3368 C   0  0  0  0  0  0  0  0  0  0  0  0
   -0.3018    2.9877    2.8079 H   0  0  0  0  0  0  0  0  0  0  0  0
    1.4516    2.8997    3.1011 H   0  0  0  0  0  0  0  0  0  0  0  0
    0.8279    3.6639    1.6193 H   0  0  0  0  0  0  0  0  0  0  0  0
  5  6  2  0  0  0  0
  5  7  1  0  0  0  0
  2  3  1  0  0  0  0
  2  4  1  0  0  0  0
  2  5  1  0  0  0  0
  1  2  1  0  0  0  0
 18 19  2  0  0  0  0
 18 20  1  0  0  0  0
 16 17  1  0  0  0  0
 14 15  2  0  0  0  0
 14 16  1  0  0  0  0
 11 12  1  0  0  0  0
 11 13  1  0  0  0  0
 11 14  1  0  0  0  0
  9 10  1  0  0  0  0
  9 11  1  0  0  0  0
  9 18  1  0  0  0  0
  7  8  1  0  0  0  0
  7  9  1  0  0  0  0
 22 23  1  0  0  0  0
 22 24  1  0  0  0  0
 22 25  1  0  0  0  0
 20 21  1  0  0  0  0
 20 22  1  0  0  0  0
M  END
$$$$
default_name
  -OEChem-02102213163D

 25 24  0     1  0  0  0  0  0999 V2000
   -2.7826   -3.8464    0.7821 H   0  0  0  0  0  0  0  0  0  0  0  0
   -2.8156   -2.8034    0.4711 C   0  0  0  0  0  0  0  0  0  0  0  0
   -3.4336   -2.2354    1.1641 H   0  0  0  0  0  0  0  0  0  0  0  0
   -3.2256   -2.7344   -0.5349 H   0  0  0  0  0  0  0  0  0  0  0  0
   -1.4126   -2.2444    0.4801 C   0  0  0  0  0  0  0  0  0  0  0  0
   -0.4686   -2.9534    0.8001 O   0  0  0  0  0  0  0  0  0  0  0  0
   -1.2736   -0.9704    0.1241 N   0  0  0  0  0  0  0  0  0  0  0  0
   -2.0996   -0.4354   -0.1019 H   0  0  0  0  0  0  0  0  0  0  0  0
   -0.0016   -0.2394    0.1271 C   0  0  1  0  0  0  0  0  0  0  0  0
    0.7164   -0.7963    0.7332 H   0  0  0  0  0  0  0  0  0  0  0  0
    0.5351   -0.1414   -1.3146 C   0  0  0  0  0  0  0  0  0  0  0  0
    0.9496   -1.1049   -1.6138 H   0  0  0  0  0  0  0  0  0  0  0  0
   -0.2827    0.0974   -1.9955 H   0  0  0  0  0  0  0  0  0  0  0  0
    1.6445    0.8927   -1.4803 C   0  0  0  0  0  0  0  0  0  0  0  0
    2.2265    1.1522   -2.5254 O   0  0  0  0  0  0  0  0  0  0  0  0
    1.9823    1.5439   -0.3516 O   0  0  0  0  0  0  0  0  0  0  0  0
    2.6654    2.1666   -0.6024 H   0  0  0  0  0  0  0  0  0  0  0  0
   -0.1923    1.1526    0.7617 C   0  0  0  0  0  0  0  0  0  0  0  0
   -1.1582    1.8438    0.4410 O   0  0  0  0  0  0  0  0  0  0  0  0
    0.7203    1.5683    1.6472 N   0  0  0  0  0  0  0  0  0  0  0  0
    1.5210    0.9664    1.8100 H   0  0  0  0  0  0  0  0  0  0  0  0
    0.6747    2.8558    2.3368 C   0  0  0  0  0  0  0  0  0  0  0  0
   -0.3018    2.9877    2.8079 H   0  0  0  0  0  0  0  0  0  0  0  0
    1.4516    2.8997    3.1011 H   0  0  0  0  0  0  0  0  0  0  0  0
    0.8279    3.6639    1.6193 H   0  0  0  0  0  0  0  0  0  0  0  0
  5  6  2  0  0  0  0
  5  7  1  0  0  0  0
  2  3  1  0  0  0  0
  2  4  1  0  0  0  0
  2  5  1  0  0  0  0
  1  2  1  0  0  0  0
 18 19  2  0  0  0  0
 18 20  1  0  0  0  0
 16 17  1  0  0  0  0
 14 15  2  0  0  0  0
 14 16  1  0  0  0  0
 11 12  1  0  0  0  0
 11 13  1  0  0  0  0
 11 14  1  0  0  0  0
  9 10  1  0  0  0  0
  9 11  1  0  0  0  0
  9 18  1  0  0  0  0
  7  8  1  0  0  0  0
  7  9  1  0  0  0  0
 22 23  1  0  0  0  0
 22 24  1  0  0  0  0
 22 25  1  0  0  0  0
 20 21  1  0  0  0  0
 20 22  1  0  0  0  0
M  END
$$$$
default_name
  -OEChem-02102213163D

 25 24  0     1  0  0  0  0  0999 V2000
   -2.7826   -3.8464    0.7821 H   0  0  0  0  0  0  0  0  0  0  0  0
   -2.8156   -2.8034    0.4711 C   0  0  0  0  0  0  0  0  0  0  0  0
   -3.4336   -2.2354    1.1641 H   0  0  0  0  0  0  0  0  0  0  0  0
   -3.2256   -2.7344   -0.5349 H   0  0  0  0  0  0  0  0  0  0  0  0
   -1.4126   -2.2444    0.4801 C   0  0  0  0  0  0  0  0  0  0  0  0
   -0.4686   -2.9534    0.8001 O   0  0  0  0  0  0  0  0  0  0  0  0
   -1.2736   -0.9704    0.1241 N   0  0  0  0  0  0  0  0  0  0  0  0
   -2.0996   -0.4354   -0.1019 H   0  0  0  0  0  0  0  0  0  0  0  0
   -0.0016   -0.2394    0.1271 C   0  0  1  0  0  0  0  0  0  0  0  0
    0.7164   -0.7963    0.7332 H   0  0  0  0  0  0  0  0  0  0  0  0
    0.5351   -0.1414   -1.3146 C   0  0  0  0  0  0  0  0  0  0  0  0
    0.9496   -1.1049   -1.6138 H   0  0  0  0  0  0  0  0  0  0  0  0
   -0.2827    0.0974   -1.9955 H   0  0  0  0  0  0  0  0  0  0  0  0
    1.6445    0.8927   -1.4803 C   0  0  0  0  0  0  0  0  0  0  0  0
    2.0483    1.3401   -2.5457 O   0  0  0  0  0  0  0  0  0  0  0  0
    2.2011    1.3129   -0.3289 O   0  0  0  0  0  0  0  0  0  0  0  0
    2.8579    1.9642   -0.5772 H   0  0  0  0  0  0  0  0  0  0  0  0
   -0.1923    1.1526    0.7617 C   0  0  0  0  0  0  0  0  0  0  0  0
   -1.1582    1.8438    0.4410 O   0  0  0  0  0  0  0  0  0  0  0  0
    0.7203    1.5683    1.6472 N   0  0  0  0  0  0  0  0  0  0  0  0
    1.5210    0.9664    1.8100 H   0  0  0  0  0  0  0  0  0  0  0  0
    0.6747    2.8558    2.3368 C   0  0  0  0  0  0  0  0  0  0  0  0
   -0.3018    2.9877    2.8079 H   0  0  0  0  0  0  0  0  0  0  0  0
    1.4516    2.8997    3.1011 H   0  0  0  0  0  0  0  0  0  0  0  0
    0.8279    3.6639    1.6193 H   0  0  0  0  0  0  0  0  0  0  0  0
  5  6  2  0  0  0  0
  5  7  1  0  0  0  0
  2  3  1  0  0  0  0
  2  4  1  0  0  0  0
  2  5  1  0  0  0  0
  1  2  1  0  0  0  0
 18 19  2  0  0  0  0
 18 20  1  0  0  0  0
 16 17  1  0  0  0  0
 14 15  2  0  0  0  0
 14 16  1  0  0  0  0
 11 12  1  0  0  0  0
 11 13  1  0  0  0  0
 11 14  1  0  0  0  0
  9 10  1  0  0  0  0
  9 11  1  0  0  0  0
  9 18  1  0  0  0  0
  7  8  1  0  0  0  0
  7  9  1  0  0  0  0
 22 23  1  0  0  0  0
 22 24  1  0  0  0  0
 22 25  1  0  0  0  0
 20 21  1  0  0  0  0
 20 22  1  0  0  0  0
M  END
$$$$
default_name
  -OEChem-02102213163D

 25 24  0     1  0  0  0  0  0999 V2000
   -2.7826   -3.8464    0.7821 H   0  0  0  0  0  0  0  0  0  0  0  0
   -2.8156   -2.8034    0.4711 C   0  0  0  0  0  0  0  0  0  0  0  0
   -3.4336   -2.2354    1.1641 H   0  0  0  0  0  0  0  0  0  0  0  0
   -3.2256   -2.7344   -0.5349 H   0  0  0  0  0  0  0  0  0  0  0  0
   -1.4126   -2.2444    0.4801 C   0  0  0  0  0  0  0  0  0  0  0  0
   -0.4686   -2.9534    0.8001 O   0  0  0  0  0  0  0  0  0  0  0  0
   -1.2736   -0.9704    0.1241 N   0  0  0  0  0  0  0  0  0  0  0  0
   -2.0996   -0.4354   -0.1019 H   0  0  0  0  0  0  0  0  0  0  0  0
   -0.0016   -0.2394    0.1271 C   0  0  1  0  0  0  0  0  0  0  0  0
    0.7164   -0.7963    0.7332 H   0  0  0  0  0  0  0  0  0  0  0  0
    0.5351   -0.1414   -1.3146 C   0  0  0  0  0  0  0  0  0  0  0  0
    0.9496   -1.1049   -1.6138 H   0  0  0  0  0  0  0  0  0  0  0  0
   -0.2827    0.0974   -1.9955 H   0  0  0  0  0  0  0  0  0  0  0  0
    1.6445    0.8927   -1.4803 C   0  0  0  0  0  0  0  0  0  0  0  0
    1.8779    1.5305   -2.4986 O   0  0  0  0  0  0  0  0  0  0  0  0
    2.4099    1.0793   -0.3888 O   0  0  0  0  0  0  0  0  0  0  0  0
    3.0425    1.7585   -0.6248 H   0  0  0  0  0  0  0  0  0  0  0  0
   -0.1923    1.1526    0.7617 C   0  0  0  0  0  0  0  0  0  0  0  0
   -1.1582    1.8438    0.4410 O   0  0  0  0  0  0  0  0  0  0  0  0
    0.7203    1.5683    1.6472 N   0  0  0  0  0  0  0  0  0  0  0  0
    1.5210    0.9664    1.8100 H   0  0  0  0  0  0  0  0  0  0  0  0
    0.6747    2.8558    2.3368 C   0  0  0  0  0  0  0  0  0  0  0  0
   -0.3018    2.9877    2.8079 H   0  0  0  0  0  0  0  0  0  0  0  0
    1.4516    2.8997    3.1011 H   0  0  0  0  0  0  0  0  0  0  0  0
    0.8279    3.6639    1.6193 H   0  0  0  0  0  0  0  0  0  0  0  0
  5  6  2  0  0  0  0
  5  7  1  0  0  0  0
  2  3  1  0  0  0  0
  2  4  1  0  0  0  0
  2  5  1  0  0  0  0
  1  2  1  0  0  0  0
 18 19  2  0  0  0  0
 18 20  1  0  0  0  0
 16 17  1  0  0  0  0
 14 15  2  0  0  0  0
 14 16  1  0  0  0  0
 11 12  1  0  0  0  0
 11 13  1  0  0  0  0
 11 14  1  0  0  0  0
  9 10  1  0  0  0  0
  9 11  1  0  0  0  0
  9 18  1  0  0  0  0
  7  8  1  0  0  0  0
  7  9  1  0  0  0  0
 22 23  1  0  0  0  0
 22 24  1  0  0  0  0
 22 25  1  0  0  0  0
 20 21  1  0  0  0  0
 20 22  1  0  0  0  0
M  END
$$$$
default_name
  -OEChem-02102213163D

 25 24  0     1  0  0  0  0  0999 V2000
   -2.7826   -3.8464    0.7821 H   0  0  0  0  0  0  0  0  0  0  0  0
   -2.8156   -2.8034    0.4711 C   0  0  0  0  0  0  0  0  0  0  0  0
   -3.4336   -2.2354    1.1641 H   0  0  0  0  0  0  0  0  0  0  0  0
   -3.2256   -2.7344   -0.5349 H   0  0  0  0  0  0  0  0  0  0  0  0
   -1.4126   -2.2444    0.4801 C   0  0  0  0  0  0  0  0  0  0  0  0
   -0.4686   -2.9534    0.8001 O   0  0  0  0  0  0  0  0  0  0  0  0
   -1.2736   -0.9704    0.1241 N   0  0  0  0  0  0  0  0  0  0  0  0
   -2.0996   -0.4354   -0.1019 H   0  0  0  0  0  0  0  0  0  0  0  0
   -0.0016   -0.2394    0.1271 C   0  0  1  0  0  0  0  0  0  0  0  0
    0.7164   -0.7963    0.7332 H   0  0  0  0  0  0  0  0  0  0  0  0
    0.5351   -0.1414   -1.3146 C   0  0  0  0  0  0  0  0  0  0  0  0
    0.9496   -1.1049   -1.6138 H   0  0  0  0  0  0  0  0  0  0  0  0
   -0.2827    0.0974   -1.9955 H   0  0  0  0  0  0  0  0  0  0  0  0
    1.6445    0.8927   -1.4803 C   0  0  0  0  0  0  0  0  0  0  0  0
    1.7268    1.7103   -2.3875 O   0  0  0  0  0  0  0  0  0  0  0  0
    2.5945    0.8590   -0.5273 O   0  0  0  0  0  0  0  0  0  0  0  0
    3.2067    1.5636   -0.7419 H   0  0  0  0  0  0  0  0  0  0  0  0
   -0.1923    1.1526    0.7617 C   0  0  0  0  0  0  0  0  0  0  0  0
   -1.1582    1.8438    0.4410 O   0  0  0  0  0  0  0  0  0  0  0  0
    0.7203    1.5683    1.6472 N   0  0  0  0  0  0  0  0  0  0  0  0
    1.5210    0.9664    1.8100 H   0  0  0  0  0  0  0  0  0  0  0  0
    0.6747    2.8558    2.3368 C   0  0  0  0  0  0  0  0  0  0  0  0
   -0.3018    2.9877    2.8079 H   0  0  0  0  0  0  0  0  0  0  0  0
    1.4516    2.8997    3.1011 H   0  0  0  0  0  0  0  0  0  0  0  0
    0.8279    3.6639    1.6193 H   0  0  0  0  0  0  0  0  0  0  0  0
  5  6  2  0  0  0  0
  5  7  1  0  0  0  0
  2  3  1  0  0  0  0
  2  4  1  0  0  0  0
  2  5  1  0  0  0  0
  1  2  1  0  0  0  0
 18 19  2  0  0  0  0
 18 20  1  0  0  0  0
 16 17  1  0  0  0  0
 14 15  2  0  0  0  0
 14 16  1  0  0  0  0
 11 12  1  0  0  0  0
 11 13  1  0  0  0  0
 11 14  1  0  0  0  0
  9 10  1  0  0  0  0
  9 11  1  0  0  0  0
  9 18  1  0  0  0  0
  7  8  1  0  0  0  0
  7  9  1  0  0  0  0
 22 23  1  0  0  0  0
 22 24  1  0  0  0  0
 22 25  1  0  0  0  0
 20 21  1  0  0  0  0
 20 22  1  0  0  0  0
M  END
$$$$
default_name
  -OEChem-02102213163D

 25 24  0     1  0  0  0  0  0999 V2000
   -2.7826   -3.8464    0.7821 H   0  0  0  0  0  0  0  0  0  0  0  0
   -2.8156   -2.8034    0.4711 C   0  0  0  0  0  0  0  0  0  0  0  0
   -3.4336   -2.2354    1.1641 H   0  0  0  0  0  0  0  0  0  0  0  0
   -3.2256   -2.7344   -0.5349 H   0  0  0  0  0  0  0  0  0  0  0  0
   -1.4126   -2.2444    0.4801 C   0  0  0  0  0  0  0  0  0  0  0  0
   -0.4686   -2.9534    0.8001 O   0  0  0  0  0  0  0  0  0  0  0  0
   -1.2736   -0.9704    0.1241 N   0  0  0  0  0  0  0  0  0  0  0  0
   -2.0996   -0.4354   -0.1019 H   0  0  0  0  0  0  0  0  0  0  0  0
   -0.0016   -0.2394    0.1271 C   0  0  1  0  0  0  0  0  0  0  0  0
    0.7164   -0.7963    0.7332 H   0  0  0  0  0  0  0  0  0  0  0  0
    0.5351   -0.1414   -1.3146 C   0  0  0  0  0  0  0  0  0  0  0  0
    0.9496   -1.1049   -1.6138 H   0  0  0  0  0  0  0  0  0  0  0  0
   -0.2827    0.0974   -1.9955 H   0  0  0  0  0  0  0  0  0  0  0  0
    1.6445    0.8927   -1.4803 C   0  0  0  0  0  0  0  0  0  0  0  0
    1.6055    1.8673   -2.2198 O   0  0  0  0  0  0  0  0  0  0  0  0
    2.7424    0.6671   -0.7348 O   0  0  0  0  0  0  0  0  0  0  0  0
    3.3393    1.3928   -0.9204 H   0  0  0  0  0  0  0  0  0  0  0  0
   -0.1923    1.1526    0.7617 C   0  0  0  0  0  0  0  0  0  0  0  0
   -1.1582    1.8438    0.4410 O   0  0  0  0  0  0  0  0  0  0  0  0
    0.7203    1.5683    1.6472 N   0  0  0  0  0  0  0  0  0  0  0  0
    1.5210    0.9664    1.8100 H   0  0  0  0  0  0  0  0  0  0  0  0
    0.6747    2.8558    2.3368 C   0  0  0  0  0  0  0  0  0  0  0  0
   -0.3018    2.9877    2.8079 H   0  0  0  0  0  0  0  0  0  0  0  0
    1.4516    2.8997    3.1011 H   0  0  0  0  0  0  0  0  0  0  0  0
    0.8279    3.6639    1.6193 H   0  0  0  0  0  0  0  0  0  0  0  0
  5  6  2  0  0  0  0
  5  7  1  0  0  0  0
  2  3  1  0  0  0  0
  2  4  1  0  0  0  0
  2  5  1  0  0  0  0
  1  2  1  0  0  0  0
 18 19  2  0  0  0  0
 18 20  1  0  0  0  0
 16 17  1  0  0  0  0
 14 15  2  0  0  0  0
 14 16  1  0  0  0  0
 11 12  1  0  0  0  0
 11 13  1  0  0  0  0
 11 14  1  0  0  0  0
  9 10  1  0  0  0  0
  9 11  1  0  0  0  0
  9 18  1  0  0  0  0
  7  8  1  0  0  0  0
  7  9  1  0  0  0  0
 22 23  1  0  0  0  0
 22 24  1  0  0  0  0
 22 25  1  0  0  0  0
 20 21  1  0  0  0  0
 20 22  1  0  0  0  0
M  END
$$$$
default_name
  -OEChem-02102213163D

 25 24  0     1  0  0  0  0  0999 V2000
   -2.7826   -3.8464    0.7821 H   0  0  0  0  0  0  0  0  0  0  0  0
   -2.8156   -2.8034    0.4711 C   0  0  0  0  0  0  0  0  0  0  0  0
   -3.4336   -2.2354    1.1641 H   0  0  0  0  0  0  0  0  0  0  0  0
   -3.2256   -2.7344   -0.5349 H   0  0  0  0  0  0  0  0  0  0  0  0
   -1.4126   -2.2444    0.4801 C   0  0  0  0  0  0  0  0  0  0  0  0
   -0.4686   -2.9534    0.8001 O   0  0  0  0  0  0  0  0  0  0  0  0
   -1.2736   -0.9704    0.1241 N   0  0  0  0  0  0  0  0  0  0  0  0
   -2.0996   -0.4354   -0.1019 H   0  0  0  0  0  0  0  0  0  0  0  0
   -0.0016   -0.2394    0.1271 C   0  0  1  0  0  0  0  0  0  0  0  0
    0.7164   -0.7963    0.7332 H   0  0  0  0  0  0  0  0  0  0  0  0
    0.5351   -0.1414   -1.3146 C   0  0  0  0  0  0  0  0  0  0  0  0
    0.9496   -1.1049   -1.6138 H   0  0  0  0  0  0  0  0  0  0  0  0
   -0.2827    0.0974   -1.9955 H   0  0  0  0  0  0  0  0  0  0  0  0
    1.6445    0.8927   -1.4803 C   0  0  0  0  0  0  0  0  0  0  0  0
    1.5221    1.9909   -2.0069 O   0  0  0  0  0  0  0  0  0  0  0  0
    2.8434    0.5167   -0.9974 O   0  0  0  0  0  0  0  0  0  0  0  0
    3.4312    1.2576   -1.1483 H   0  0  0  0  0  0  0  0  0  0  0  0
   -0.1923    1.1526    0.7617 C   0  0  0  0  0  0  0  0  0  0  0  0
   -1.1582    1.8438    0.4410 O   0  0  0  0  0  0  0  0  0  0  0  0
    0.7203    1.5683    1.6472 N   0  0  0  0  0  0  0  0  0  0  0  0
    1.5210    0.9664    1.8100 H   0  0  0  0  0  0  0  0  0  0  0  0
    0.6747    2.8558    2.3368 C   0  0  0  0  0  0  0  0  0  0  0  0
   -0.3018    2.9877    2.8079 H   0  0  0  0  0  0  0  0  0  0  0  0
    1.4516    2.8997    3.1011 H   0  0  0  0  0  0  0  0  0  0  0  0
    0.8279    3.6639    1.6193 H   0  0  0  0  0  0  0  0  0  0  0  0
  5  6  2  0  0  0  0
  5  7  1  0  0  0  0
  2  3  1  0  0  0  0
  2  4  1  0  0  0  0
  2  5  1  0  0  0  0
  1  2  1  0  0  0  0
 18 19  2  0  0  0  0
 18 20  1  0  0  0  0
 16 17  1  0  0  0  0
 14 15  2  0  0  0  0
 14 16  1  0  0  0  0
 11 12  1  0  0  0  0
 11 13  1  0  0  0  0
 11 14  1  0  0  0  0
  9 10  1  0  0  0  0
  9 11  1  0  0  0  0
  9 18  1  0  0  0  0
  7  8  1  0  0  0  0
  7  9  1  0  0  0  0
 22 23  1  0  0  0  0
 22 24  1  0  0  0  0
 22 25  1  0  0  0  0
 20 21  1  0  0  0  0
 20 22  1  0  0  0  0
M  END
$$$$
default_name
  -OEChem-02102213163D

 25 24  0     1  0  0  0  0  0999 V2000
   -2.7826   -3.8464    0.7821 H   0  0  0  0  0  0  0  0  0  0  0  0
   -2.8156   -2.8034    0.4711 C   0  0  0  0  0  0  0  0  0  0  0  0
   -3.4336   -2.2354    1.1641 H   0  0  0  0  0  0  0  0  0  0  0  0
   -3.2256   -2.7344   -0.5349 H   0  0  0  0  0  0  0  0  0  0  0  0
   -1.4126   -2.2444    0.4801 C   0  0  0  0  0  0  0  0  0  0  0  0
   -0.4686   -2.9534    0.8001 O   0  0  0  0  0  0  0  0  0  0  0  0
   -1.2736   -0.9704    0.1241 N   0  0  0  0  0  0  0  0  0  0  0  0
   -2.0996   -0.4354   -0.1019 H   0  0  0  0  0  0  0  0  0  0  0  0
   -0.0016   -0.2394    0.1271 C   0  0  1  0  0  0  0  0  0  0  0  0
    0.7164   -0.7963    0.7332 H   0  0  0  0  0  0  0  0  0  0  0  0
    0.5351   -0.1414   -1.3146 C   0  0  0  0  0  0  0  0  0  0  0  0
    0.9496   -1.1049   -1.6138 H   0  0  0  0  0  0  0  0  0  0  0  0
   -0.2827    0.0974   -1.9955 H   0  0  0  0  0  0  0  0  0  0  0  0
    1.6445    0.8927   -1.4803 C   0  0  0  0  0  0  0  0  0  0  0  0
    1.4824    2.0725   -1.7635 O   0  0  0  0  0  0  0  0  0  0  0  0
    2.8907    0.4180   -1.2970 O   0  0  0  0  0  0  0  0  0  0  0  0
    3.4763    1.1674   -1.4099 H   0  0  0  0  0  0  0  0  0  0  0  0
   -0.1923    1.1526    0.7617 C   0  0  0  0  0  0  0  0  0  0  0  0
   -1.1582    1.8438    0.4410 O   0  0  0  0  0  0  0  0  0  0  0  0
    0.7203    1.5683    1.6472 N   0  0  0  0  0  0  0  0  0  0  0  0
    1.5210    0.9664    1.8100 H   0  0  0  0  0  0  0  0  0  0  0  0
    0.6747    2.8558    2.3368 C   0  0  0  0  0  0  0  0  0  0  0  0
   -0.3018    2.9877    2.8079 H   0  0  0  0  0  0  0  0  0  0  0  0
    1.4516    2.8997    3.1011 H   0  0  0  0  0  0  0  0  0  0  0  0
    0.8279    3.6639    1.6193 H   0  0  0  0  0  0  0  0  0  0  0  0
  5  6  2  0  0  0  0
  5  7  1  0  0  0  0
  2  3  1  0  0  0  0
  2  4  1  0  0  0  0
  2  5  1  0  0  0  0
  1  2  1  0  0  0  0
 18 19  2  0  0  0  0
 18 20  1  0  0  0  0
 16 17  1  0  0  0  0
 14 15  2  0  0  0  0
 14 16  1  0  0  0  0
 11 12  1  0  0  0  0
 11 13  1  0  0  0  0
 11 14  1  0  0  0  0
  9 10  1  0  0  0  0
  9 11  1  0  0  0  0
  9 18  1  0  0  0  0
  7  8  1  0  0  0  0
  7  9  1  0  0  0  0
 22 23  1  0  0  0  0
 22 24  1  0  0  0  0
 22 25  1  0  0  0  0
 20 21  1  0  0  0  0
 20 22  1  0  0  0  0
M  END
$$$$
default_name
  -OEChem-02102213163D

 25 24  0     1  0  0  0  0  0999 V2000
   -2.7826   -3.8464    0.7821 H   0  0  0  0  0  0  0  0  0  0  0  0
   -2.8156   -2.8034    0.4711 C   0  0  0  0  0  0  0  0  0  0  0  0
   -3.4336   -2.2354    1.1641 H   0  0  0  0  0  0  0  0  0  0  0  0
   -3.2256   -2.7344   -0.5349 H   0  0  0  0  0  0  0  0  0  0  0  0
   -1.4126   -2.2444    0.4801 C   0  0  0  0  0  0  0  0  0  0  0  0
   -0.4686   -2.9534    0.8001 O   0  0  0  0  0  0  0  0  0  0  0  0
   -1.2736   -0.9704    0.1241 N   0  0  0  0  0  0  0  0  0  0  0  0
   -2.0996   -0.4354   -0.1019 H   0  0  0  0  0  0  0  0  0  0  0  0
   -0.0016   -0.2394    0.1271 C   0  0  1  0  0  0  0  0  0  0  0  0
    0.7164   -0.7963    0.7332 H   0  0  0  0  0  0  0  0  0  0  0  0
    0.5351   -0.1414   -1.3146 C   0  0  0  0  0  0  0  0  0  0  0  0
    0.9496   -1.1049   -1.6138 H   0  0  0  0  0  0  0  0  0  0  0  0
   -0.2827    0.0974   -1.9955 H   0  0  0  0  0  0  0  0  0  0  0  0
    1.6445    0.8927   -1.4803 C   0  0  0  0  0  0  0  0  0  0  0  0
    1.4890    2.1066   -1.5060 O   0  0  0  0  0  0  0  0  0  0  0  0
    2.8810    0.3777   -1.6133 O   0  0  0  0  0  0  0  0  0  0  0  0
    3.4713    1.1282   -1.6876 H   0  0  0  0  0  0  0  0  0  0  0  0
   -0.1923    1.1526    0.7617 C   0  0  0  0  0  0  0  0  0  0  0  0
   -1.1582    1.8438    0.4410 O   0  0  0  0  0  0  0  0  0  0  0  0
    0.7203    1.5683    1.6472 N   0  0  0  0  0  0  0  0  0  0  0  0
    1.5210    0.9664    1.8100 H   0  0  0  0  0  0  0  0  0  0  0  0
    0.6747    2.8558    2.3368 C   0  0  0  0  0  0  0  0  0  0  0  0
   -0.3018    2.9877    2.8079 H   0  0  0  0  0  0  0  0  0  0  0  0
    1.4516    2.8997    3.1011 H   0  0  0  0  0  0  0  0  0  0  0  0
    0.8279    3.6639    1.6193 H   0  0  0  0  0  0  0  0  0  0  0  0
  5  6  2  0  0  0  0
  5  7  1  0  0  0  0
  2  3  1  0  0  0  0
  2  4  1  0  0  0  0
  2  5  1  0  0  0  0
  1  2  1  0  0  0  0
 18 19  2  0  0  0  0
 18 20  1  0  0  0  0
 16 17  1  0  0  0  0
 14 15  2  0  0  0  0
 14 16  1  0  0  0  0
 11 12  1  0  0  0  0
 11 13  1  0  0  0  0
 11 14  1  0  0  0  0
  9 10  1  0  0  0  0
  9 11  1  0  0  0  0
  9 18  1  0  0  0  0
  7  8  1  0  0  0  0
  7  9  1  0  0  0  0
 22 23  1  0  0  0  0
 22 24  1  0  0  0  0
 22 25  1  0  0  0  0
 20 21  1  0  0  0  0
 20 22  1  0  0  0  0
M  END
$$$$
default_name
  -OEChem-02102213163D

 25 24  0     1  0  0  0  0  0999 V2000
   -2.7826   -3.8464    0.7821 H   0  0  0  0  0  0  0  0  0  0  0  0
   -2.8156   -2.8034    0.4711 C   0  0  0  0  0  0  0  0  0  0  0  0
   -3.4336   -2.2354    1.1641 H   0  0  0  0  0  0  0  0  0  0  0  0
   -3.2256   -2.7344   -0.5349 H   0  0  0  0  0  0  0  0  0  0  0  0
   -1.4126   -2.2444    0.4801 C   0  0  0  0  0  0  0  0  0  0  0  0
   -0.4686   -2.9534    0.8001 O   0  0  0  0  0  0  0  0  0  0  0  0
   -1.2736   -0.9704    0.1241 N   0  0  0  0  0  0  0  0  0  0  0  0
   -2.0996   -0.4354   -0.1019 H   0  0  0  0  0  0  0  0  0  0  0  0
   -0.0016   -0.2394    0.1271 C   0  0  1  0  0  0  0  0  0  0  0  0
    0.7164   -0.7963    0.7332 H   0  0  0  0  0  0  0  0  0  0  0  0
    0.5351   -0.1414   -1.3146 C   0  0  0  0  0  0  0  0  0  0  0  0
    0.9496   -1.1049   -1.6138 H   0  0  0  0  0  0  0  0  0  0  0  0
   -0.2827    0.0974   -1.9955 H   0  0  0  0  0  0  0  0  0  0  0  0
    1.6445    0.8927   -1.4803 C   0  0  0  0  0  0  0  0  0  0  0  0
    1.5416    2.0909   -1.2520 O   0  0  0  0  0  0  0  0  0  0  0  0
    2.8151    0.3986   -1.9247 O   0  0  0  0  0  0  0  0  0  0  0  0
    3.4168    1.1428   -1.9623 H   0  0  0  0  0  0  0  0  0  0  0  0
   -0.1923    1.1526    0.7617 C   0  0  0  0  0  0  0  0  0  0  0  0
   -1.1582    1.8438    0.4410 O   0  0  0  0  0  0  0  0  0  0  0  0
    0.7203    1.5683    1.6472 N   0  0  0  0  0  0  0  0  0  0  0  0
    1.5210    0.9664    1.8100 H   0  0  0  0  0  0  0  0  0  0  0  0
    0.6747    2.8558    2.3368 C   0  0  0  0  0  0  0  0  0  0  0  0
   -0.3018    2.9877    2.8079 H   0  0  0  0  0  0  0  0  0  0  0  0
    1.4516    2.8997    3.1011 H   0  0  0  0  0  0  0  0  0  0  0  0
    0.8279    3.6639    1.6193 H   0  0  0  0  0  0  0  0  0  0  0  0
  5  6  2  0  0  0  0
  5  7  1  0  0  0  0
  2  3  1  0  0  0  0
  2  4  1  0  0  0  0
  2  5  1  0  0  0  0
  1  2  1  0  0  0  0
 18 19  2  0  0  0  0
 18 20  1  0  0  0  0
 16 17  1  0  0  0  0
 14 15  2  0  0  0  0
 14 16  1  0  0  0  0
 11 12  1  0  0  0  0
 11 13  1  0  0  0  0
 11 14  1  0  0  0  0
  9 10  1  0  0  0  0
  9 11  1  0  0  0  0
  9 18  1  0  0  0  0
  7  8  1  0  0  0  0
  7  9  1  0  0  0  0
 22 23  1  0  0  0  0
 22 24  1  0  0  0  0
 22 25  1  0  0  0  0
 20 21  1  0  0  0  0
 20 22  1  0  0  0  0
M  END
$$$$
default_name
  -OEChem-02102213163D

 25 24  0     1  0  0  0  0  0999 V2000
   -2.7826   -3.8464    0.7821 H   0  0  0  0  0  0  0  0  0  0  0  0
   -2.8156   -2.8034    0.4711 C   0  0  0  0  0  0  0  0  0  0  0  0
   -3.4336   -2.2354    1.1641 H   0  0  0  0  0  0  0  0  0  0  0  0
   -3.2256   -2.7344   -0.5349 H   0  0  0  0  0  0  0  0  0  0  0  0
   -1.4126   -2.2444    0.4801 C   0  0  0  0  0  0  0  0  0  0  0  0
   -0.4686   -2.9534    0.8001 O   0  0  0  0  0  0  0  0  0  0  0  0
   -1.2736   -0.9704    0.1241 N   0  0  0  0  0  0  0  0  0  0  0  0
   -2.0996   -0.4354   -0.1019 H   0  0  0  0  0  0  0  0  0  0  0  0
   -0.0016   -0.2394    0.1271 C   0  0  1  0  0  0  0  0  0  0  0  0
    0.7164   -0.7963    0.7332 H   0  0  0  0  0  0  0  0  0  0  0  0
    0.5351   -0.1414   -1.3146 C   0  0  0  0  0  0  0  0  0  0  0  0
    0.9496   -1.1049   -1.6138 H   0  0  0  0  0  0  0  0  0  0  0  0
   -0.2827    0.0974   -1.9955 H   0  0  0  0  0  0  0  0  0  0  0  0
    1.6445    0.8927   -1.4803 C   0  0  0  0  0  0  0  0  0  0  0  0
    1.6365    2.0265   -1.0189 O   0  0  0  0  0  0  0  0  0  0  0  0
    2.6973    0.4792   -2.2100 O   0  0  0  0  0  0  0  0  0  0  0  0
    3.3163    1.2101   -2.2153 H   0  0  0  0  0  0  0  0  0  0  0  0
   -0.1923    1.1526    0.7617 C   0  0  0  0  0  0  0  0  0  0  0  0
   -1.1582    1.8438    0.4410 O   0  0  0  0  0  0  0  0  0  0  0  0
    0.7203    1.5683    1.6472 N   0  0  0  0  0  0  0  0  0  0  0  0
    1.5210    0.9664    1.8100 H   0  0  0  0  0  0  0  0  0  0  0  0
    0.6747    2.8558    2.3368 C   0  0  0  0  0  0  0  0  0  0  0  0
   -0.3018    2.9877    2.8079 H   0  0  0  0  0  0  0  0  0  0  0  0
    1.4516    2.8997    3.1011 H   0  0  0  0  0  0  0  0  0  0  0  0
    0.8279    3.6639    1.6193 H   0  0  0  0  0  0  0  0  0  0  0  0
  5  6  2  0  0  0  0
  5  7  1  0  0  0  0
  2  3  1  0  0  0  0
  2  4  1  0  0  0  0
  2  5  1  0  0  0  0
  1  2  1  0  0  0  0
 18 19  2  0  0  0  0
 18 20  1  0  0  0  0
 16 17  1  0  0  0  0
 14 15  2  0  0  0  0
 14 16  1  0  0  0  0
 11 12  1  0  0  0  0
 11 13  1  0  0  0  0
 11 14  1  0  0  0  0
  9 10  1  0  0  0  0
  9 11  1  0  0  0  0
  9 18  1  0  0  0  0
  7  8  1  0  0  0  0
  7  9  1  0  0  0  0
 22 23  1  0  0  0  0
 22 24  1  0  0  0  0
 22 25  1  0  0  0  0
 20 21  1  0  0  0  0
 20 22  1  0  0  0  0
M  END
$$$$
default_name
  -OEChem-02102213163D

 25 24  0     1  0  0  0  0  0999 V2000
   -2.7826   -3.8464    0.7821 H   0  0  0  0  0  0  0  0  0  0  0  0
   -2.8156   -2.8034    0.4711 C   0  0  0  0  0  0  0  0  0  0  0  0
   -3.4336   -2.2354    1.1641 H   0  0  0  0  0  0  0  0  0  0  0  0
   -3.2256   -2.7344   -0.5349 H   0  0  0  0  0  0  0  0  0  0  0  0
   -1.4126   -2.2444    0.4801 C   0  0  0  0  0  0  0  0  0  0  0  0
   -0.4686   -2.9534    0.8001 O   0  0  0  0  0  0  0  0  0  0  0  0
   -1.2736   -0.9704    0.1241 N   0  0  0  0  0  0  0  0  0  0  0  0
   -2.0996   -0.4354   -0.1019 H   0  0  0  0  0  0  0  0  0  0  0  0
   -0.0016   -0.2394    0.1271 C   0  0  1  0  0  0  0  0  0  0  0  0
    0.7164   -0.7963    0.7332 H   0  0  0  0  0  0  0  0  0  0  0  0
    0.5351   -0.1414   -1.3146 C   0  0  0  0  0  0  0  0  0  0  0  0
    0.9496   -1.1049   -1.6138 H   0  0  0  0  0  0  0  0  0  0  0  0
   -0.2827    0.0974   -1.9955 H   0  0  0  0  0  0  0  0  0  0  0  0
    1.6445    0.8927   -1.4803 C   0  0  0  0  0  0  0  0  0  0  0  0
    1.7672    1.9177   -0.8225 O   0  0  0  0  0  0  0  0  0  0  0  0
    2.5358    0.6141   -2.4498 O   0  0  0  0  0  0  0  0  0  0  0  0
    3.1767    1.3255   -2.4294 H   0  0  0  0  0  0  0  0  0  0  0  0
   -0.1923    1.1526    0.7617 C   0  0  0  0  0  0  0  0  0  0  0  0
   -1.1582    1.8438    0.4410 O   0  0  0  0  0  0  0  0  0  0  0  0
    0.7203    1.5683    1.6472 N   0  0  0  0  0  0  0  0  0  0  0  0
    1.5210    0.9664    1.8100 H   0  0  0  0  0  0  0  0  0  0  0  0
    0.6747    2.8558    2.3368 C   0  0  0  0  0  0  0  0  0  0  0  0
   -0.3018    2.9877    2.8079 H   0  0  0  0  0  0  0  0  0  0  0  0
    1.4516    2.8997    3.1011 H   0  0  0  0  0  0  0  0  0  0  0  0
    0.8279    3.6639    1.6193 H   0  0  0  0  0  0  0  0  0  0  0  0
  5  6  2  0  0  0  0
  5  7  1  0  0  0  0
  2  3  1  0  0  0  0
  2  4  1  0  0  0  0
  2  5  1  0  0  0  0
  1  2  1  0  0  0  0
 18 19  2  0  0  0  0
 18 20  1  0  0  0  0
 16 17  1  0  0  0  0
 14 15  2  0  0  0  0
 14 16  1  0  0  0  0
 11 12  1  0  0  0  0
 11 13  1  0  0  0  0
 11 14  1  0  0  0  0
  9 10  1  0  0  0  0
  9 11  1  0  0  0  0
  9 18  1  0  0  0  0
  7  8  1  0  0  0  0
  7  9  1  0  0  0  0
 22 23  1  0  0  0  0
 22 24  1  0  0  0  0
 22 25  1  0  0  0  0
 20 21  1  0  0  0  0
 20 22  1  0  0  0  0
M  END
$$$$
default_name
  -OEChem-02102213163D

 25 24  0     1  0  0  0  0  0999 V2000
   -2.7826   -3.8464    0.7821 H   0  0  0  0  0  0  0  0  0  0  0  0
   -2.8156   -2.8034    0.4711 C   0  0  0  0  0  0  0  0  0  0  0  0
   -3.4336   -2.2354    1.1641 H   0  0  0  0  0  0  0  0  0  0  0  0
   -3.2256   -2.7344   -0.5349 H   0  0  0  0  0  0  0  0  0  0  0  0
   -1.4126   -2.2444    0.4801 C   0  0  0  0  0  0  0  0  0  0  0  0
   -0.4686   -2.9534    0.8001 O   0  0  0  0  0  0  0  0  0  0  0  0
   -1.2736   -0.9704    0.1241 N   0  0  0  0  0  0  0  0  0  0  0  0
   -2.0996   -0.4354   -0.1019 H   0  0  0  0  0  0  0  0  0  0  0  0
   -0.0016   -0.2394    0.1271 C   0  0  1  0  0  0  0  0  0  0  0  0
    0.7164   -0.7963    0.7332 H   0  0  0  0  0  0  0  0  0  0  0  0
    0.5351   -0.1414   -1.3146 C   0  0  0  0  0  0  0  0  0  0  0  0
    0.9496   -1.1049   -1.6138 H   0  0  0  0  0  0  0  0  0  0  0  0
   -0.2827    0.0974   -1.9955 H   0  0  0  0  0  0  0  0  0  0  0  0
    1.6445    0.8927   -1.4803 C   0  0  0  0  0  0  0  0  0  0  0  0
    1.9249    1.7720   -0.6761 O   0  0  0  0  0  0  0  0  0  0  0  0
    2.3415    0.7941   -2.6276 O   0  0  0  0  0  0  0  0  0  0  0  0
    3.0076    1.4812   -2.5900 H   0  0  0  0  0  0  0  0  0  0  0  0
   -0.1923    1.1526    0.7617 C   0  0  0  0  0  0  0  0  0  0  0  0
   -1.1582    1.8438    0.4410 O   0  0  0  0  0  0  0  0  0  0  0  0
    0.7203    1.5683    1.6472 N   0  0  0  0  0  0  0  0  0  0  0  0
    1.5210    0.9664    1.8100 H   0  0  0  0  0  0  0  0  0  0  0  0
    0.6747    2.8558    2.3368 C   0  0  0  0  0  0  0  0  0  0  0  0
   -0.3018    2.9877    2.8079 H   0  0  0  0  0  0  0  0  0  0  0  0
    1.4516    2.8997    3.1011 H   0  0  0  0  0  0  0  0  0  0  0  0
    0.8279    3.6639    1.6193 H   0  0  0  0  0  0  0  0  0  0  0  0
  5  6  2  0  0  0  0
  5  7  1  0  0  0  0
  2  3  1  0  0  0  0
  2  4  1  0  0  0  0
  2  5  1  0  0  0  0
  1  2  1  0  0  0  0
 18 19  2  0  0  0  0
 18 20  1  0  0  0  0
 16 17  1  0  0  0  0
 14 15  2  0  0  0  0
 14 16  1  0  0  0  0
 11 12  1  0  0  0  0
 11 13  1  0  0  0  0
 11 14  1  0  0  0  0
  9 10  1  0  0  0  0
  9 11  1  0  0  0  0
  9 18  1  0  0  0  0
  7  8  1  0  0  0  0
  7  9  1  0  0  0  0
 22 23  1  0  0  0  0
 22 24  1  0  0  0  0
 22 25  1  0  0  0  0
 20 21  1  0  0  0  0
 20 22  1  0  0  0  0
M  END
$$$$
default_name
  -OEChem-02102213163D

 25 24  0     1  0  0  0  0  0999 V2000
   -2.7826   -3.8464    0.7821 H   0  0  0  0  0  0  0  0  0  0  0  0
   -2.8156   -2.8034    0.4711 C   0  0  0  0  0  0  0  0  0  0  0  0
   -3.4336   -2.2354    1.1641 H   0  0  0  0  0  0  0  0  0  0  0  0
   -3.2256   -2.7344   -0.5349 H   0  0  0  0  0  0  0  0  0  0  0  0
   -1.4126   -2.2444    0.4801 C   0  0  0  0  0  0  0  0  0  0  0  0
   -0.4686   -2.9534    0.8001 O   0  0  0  0  0  0  0  0  0  0  0  0
   -1.2736   -0.9704    0.1241 N   0  0  0  0  0  0  0  0  0  0  0  0
   -2.0996   -0.4354   -0.1019 H   0  0  0  0  0  0  0  0  0  0  0  0
   -0.0016   -0.2394    0.1271 C   0  0  1  0  0  0  0  0  0  0  0  0
    0.7164   -0.7963    0.7332 H   0  0  0  0  0  0  0  0  0  0  0  0
    0.5351   -0.1414   -1.3146 C   0  0  0  0  0  0  0  0  0  0  0  0
    0.9496   -1.1049   -1.6138 H   0  0  0  0  0  0  0  0  0  0  0  0
   -0.2827    0.0974   -1.9955 H   0  0  0  0  0  0  0  0  0  0  0  0
    1.6445    0.8927   -1.4803 C   0  0  0  0  0  0  0  0  0  0  0  0
    2.0987    1.5992   -0.5899 O   0  0  0  0  0  0  0  0  0  0  0  0
    2.1277    1.0068   -2.7315 O   0  0  0  0  0  0  0  0  0  0  0  0
    2.8204    1.6666   -2.6861 H   0  0  0  0  0  0  0  0  0  0  0  0
   -0.1923    1.1526    0.7617 C   0  0  0  0  0  0  0  0  0  0  0  0
   -1.1582    1.8438    0.4410 O   0  0  0  0  0  0  0  0  0  0  0  0
    0.7203    1.5683    1.6472 N   0  0  0  0  0  0  0  0  0  0  0  0
    1.5210    0.9664    1.8100 H   0  0  0  0  0  0  0  0  0  0  0  0
    0.6747    2.8558    2.3368 C   0  0  0  0  0  0  0  0  0  0  0  0
   -0.3018    2.9877    2.8079 H   0  0  0  0  0  0  0  0  0  0  0  0
    1.4516    2.8997    3.1011 H   0  0  0  0  0  0  0  0  0  0  0  0
    0.8279    3.6639    1.6193 H   0  0  0  0  0  0  0  0  0  0  0  0
  5  6  2  0  0  0  0
  5  7  1  0  0  0  0
  2  3  1  0  0  0  0
  2  4  1  0  0  0  0
  2  5  1  0  0  0  0
  1  2  1  0  0  0  0
 18 19  2  0  0  0  0
 18 20  1  0  0  0  0
 16 17  1  0  0  0  0
 14 15  2  0  0  0  0
 14 16  1  0  0  0  0
 11 12  1  0  0  0  0
 11 13  1  0  0  0  0
 11 14  1  0  0  0  0
  9 10  1  0  0  0  0
  9 11  1  0  0  0  0
  9 18  1  0  0  0  0
  7  8  1  0  0  0  0
  7  9  1  0  0  0  0
 22 23  1  0  0  0  0
 22 24  1  0  0  0  0
 22 25  1  0  0  0  0
 20 21  1  0  0  0  0
 20 22  1  0  0  0  0
M  END
$$$$
default_name
  -OEChem-02102213163D

 25 24  0     1  0  0  0  0  0999 V2000
   -2.7826   -3.8464    0.7821 H   0  0  0  0  0  0  0  0  0  0  0  0
   -2.8156   -2.8034    0.4711 C   0  0  0  0  0  0  0  0  0  0  0  0
   -3.4336   -2.2354    1.1641 H   0  0  0  0  0  0  0  0  0  0  0  0
   -3.2256   -2.7344   -0.5349 H   0  0  0  0  0  0  0  0  0  0  0  0
   -1.4126   -2.2444    0.4801 C   0  0  0  0  0  0  0  0  0  0  0  0
   -0.4686   -2.9534    0.8001 O   0  0  0  0  0  0  0  0  0  0  0  0
   -1.2736   -0.9704    0.1241 N   0  0  0  0  0  0  0  0  0  0  0  0
   -2.0996   -0.4354   -0.1019 H   0  0  0  0  0  0  0  0  0  0  0  0
   -0.0016   -0.2394    0.1271 C   0  0  1  0  0  0  0  0  0  0  0  0
    0.7164   -0.7963    0.7332 H   0  0  0  0  0  0  0  0  0  0  0  0
    0.5351   -0.1414   -1.3146 C   0  0  0  0  0  0  0  0  0  0  0  0
    0.9496   -1.1049   -1.6138 H   0  0  0  0  0  0  0  0  0  0  0  0
   -0.2827    0.0974   -1.9955 H   0  0  0  0  0  0  0  0  0  0  0  0
    1.6445    0.8927   -1.4803 C   0  0  0  0  0  0  0  0  0  0  0  0
    2.2770    1.4113   -0.5696 O   0  0  0  0  0  0  0  0  0  0  0  0
    1.9089    1.2379   -2.7542 O   0  0  0  0  0  0  0  0  0  0  0  0
    2.6280    1.8690   -2.7113 H   0  0  0  0  0  0  0  0  0  0  0  0
   -0.1923    1.1526    0.7617 C   0  0  0  0  0  0  0  0  0  0  0  0
   -1.1582    1.8438    0.4410 O   0  0  0  0  0  0  0  0  0  0  0  0
    0.7203    1.5683    1.6472 N   0  0  0  0  0  0  0  0  0  0  0  0
    1.5210    0.9664    1.8100 H   0  0  0  0  0  0  0  0  0  0  0  0
    0.6747    2.8558    2.3368 C   0  0  0  0  0  0  0  0  0  0  0  0
   -0.3018    2.9877    2.8079 H   0  0  0  0  0  0  0  0  0  0  0  0
    1.4516    2.8997    3.1011 H   0  0  0  0  0  0  0  0  0  0  0  0
    0.8279    3.6639    1.6193 H   0  0  0  0  0  0  0  0  0  0  0  0
  5  6  2  0  0  0  0
  5  7  1  0  0  0  0
  2  3  1  0  0  0  0
  2  4  1  0  0  0  0
  2  5  1  0  0  0  0
  1  2  1  0  0  0  0
 18 19  2  0  0  0  0
 18 20  1  0  0  0  0
 16 17  1  0  0  0  0
 14 15  2  0  0  0  0
 14 16  1  0  0  0  0
 11 12  1  0  0  0  0
 11 13  1  0  0  0  0
 11 14  1  0  0  0  0
  9 10  1  0  0  0  0
  9 11  1  0  0  0  0
  9 18  1  0  0  0  0
  7  8  1  0  0  0  0
  7  9  1  0  0  0  0
 22 23  1  0  0  0  0
 22 24  1  0  0  0  0
 22 25  1  0  0  0  0
 20 21  1  0  0  0  0
 20 22  1  0  0  0  0
M  END
$$$$
default_name
  -OEChem-02102213163D

 25 24  0     1  0  0  0  0  0999 V2000
   -2.7826   -3.8464    0.7821 H   0  0  0  0  0  0  0  0  0  0  0  0
   -2.8156   -2.8034    0.4711 C   0  0  0  0  0  0  0  0  0  0  0  0
   -3.4336   -2.2354    1.1641 H   0  0  0  0  0  0  0  0  0  0  0  0
   -3.2256   -2.7344   -0.5349 H   0  0  0  0  0  0  0  0  0  0  0  0
   -1.4126   -2.2444    0.4801 C   0  0  0  0  0  0  0  0  0  0  0  0
   -0.4686   -2.9534    0.8001 O   0  0  0  0  0  0  0  0  0  0  0  0
   -1.2736   -0.9704    0.1241 N   0  0  0  0  0  0  0  0  0  0  0  0
   -2.0996   -0.4354   -0.1019 H   0  0  0  0  0  0  0  0  0  0  0  0
   -0.0016   -0.2394    0.1271 C   0  0  1  0  0  0  0  0  0  0  0  0
    0.7164   -0.7963    0.7332 H   0  0  0  0  0  0  0  0  0  0  0  0
    0.5351   -0.1414   -1.3146 C   0  0  0  0  0  0  0  0  0  0  0  0
    0.9496   -1.1049   -1.6138 H   0  0  0  0  0  0  0  0  0  0  0  0
   -0.2827    0.0974   -1.9955 H   0  0  0  0  0  0  0  0  0  0  0  0
    1.6445    0.8927   -1.4803 C   0  0  0  0  0  0  0  0  0  0  0  0
    2.4474    1.2209   -0.6166 O   0  0  0  0  0  0  0  0  0  0  0  0
    1.7001    1.4715   -2.6943 O   0  0  0  0  0  0  0  0  0  0  0  0
    2.4433    2.0747   -2.6637 H   0  0  0  0  0  0  0  0  0  0  0  0
   -0.1923    1.1526    0.7617 C   0  0  0  0  0  0  0  0  0  0  0  0
   -1.1582    1.8438    0.4410 O   0  0  0  0  0  0  0  0  0  0  0  0
    0.7203    1.5683    1.6472 N   0  0  0  0  0  0  0  0  0  0  0  0
    1.5210    0.9664    1.8100 H   0  0  0  0  0  0  0  0  0  0  0  0
    0.6747    2.8558    2.3368 C   0  0  0  0  0  0  0  0  0  0  0  0
   -0.3018    2.9877    2.8079 H   0  0  0  0  0  0  0  0  0  0  0  0
    1.4516    2.8997    3.1011 H   0  0  0  0  0  0  0  0  0  0  0  0
    0.8279    3.6639    1.6193 H   0  0  0  0  0  0  0  0  0  0  0  0
  5  6  2  0  0  0  0
  5  7  1  0  0  0  0
  2  3  1  0  0  0  0
  2  4  1  0  0  0  0
  2  5  1  0  0  0  0
  1  2  1  0  0  0  0
 18 19  2  0  0  0  0
 18 20  1  0  0  0  0
 16 17  1  0  0  0  0
 14 15  2  0  0  0  0
 14 16  1  0  0  0  0
 11 12  1  0  0  0  0
 11 13  1  0  0  0  0
 11 14  1  0  0  0  0
  9 10  1  0  0  0  0
  9 11  1  0  0  0  0
  9 18  1  0  0  0  0
  7  8  1  0  0  0  0
  7  9  1  0  0  0  0
 22 23  1  0  0  0  0
 22 24  1  0  0  0  0
 22 25  1  0  0  0  0
 20 21  1  0  0  0  0
 20 22  1  0  0  0  0
M  END
$$$$
default_name
  -OEChem-02102213163D

 25 24  0     1  0  0  0  0  0999 V2000
   -2.7826   -3.8464    0.7821 H   0  0  0  0  0  0  0  0  0  0  0  0
   -2.8156   -2.8034    0.4711 C   0  0  0  0  0  0  0  0  0  0  0  0
   -3.4336   -2.2354    1.1641 H   0  0  0  0  0  0  0  0  0  0  0  0
   -3.2256   -2.7344   -0.5349 H   0  0  0  0  0  0  0  0  0  0  0  0
   -1.4126   -2.2444    0.4801 C   0  0  0  0  0  0  0  0  0  0  0  0
   -0.4686   -2.9534    0.8001 O   0  0  0  0  0  0  0  0  0  0  0  0
   -1.2736   -0.9704    0.1241 N   0  0  0  0  0  0  0  0  0  0  0  0
   -2.0996   -0.4354   -0.1019 H   0  0  0  0  0  0  0  0  0  0  0  0
   -0.0016   -0.2394    0.1271 C   0  0  1  0  0  0  0  0  0  0  0  0
    0.7164   -0.7963    0.7332 H   0  0  0  0  0  0  0  0  0  0  0  0
    0.5351   -0.1414   -1.3146 C   0  0  0  0  0  0  0  0  0  0  0  0
    0.9496   -1.1049   -1.6138 H   0  0  0  0  0  0  0  0  0  0  0  0
   -0.2827    0.0974   -1.9955 H   0  0  0  0  0  0  0  0  0  0  0  0
    1.6445    0.8927   -1.4803 C   0  0  0  0  0  0  0  0  0  0  0  0
    2.5984    1.0411   -0.7278 O   0  0  0  0  0  0  0  0  0  0  0  0
    1.5155    1.6917   -2.5559 O   0  0  0  0  0  0  0  0  0  0  0  0
    2.2791    2.2696   -2.5467 H   0  0  0  0  0  0  0  0  0  0  0  0
   -0.1923    1.1526    0.7617 C   0  0  0  0  0  0  0  0  0  0  0  0
   -1.1582    1.8438    0.4410 O   0  0  0  0  0  0  0  0  0  0  0  0
    0.7203    1.5683    1.6472 N   0  0  0  0  0  0  0  0  0  0  0  0
    1.5210    0.9664    1.8100 H   0  0  0  0  0  0  0  0  0  0  0  0
    0.6747    2.8558    2.3368 C   0  0  0  0  0  0  0  0  0  0  0  0
   -0.3018    2.9877    2.8079 H   0  0  0  0  0  0  0  0  0  0  0  0
    1.4516    2.8997    3.1011 H   0  0  0  0  0  0  0  0  0  0  0  0
    0.8279    3.6639    1.6193 H   0  0  0  0  0  0  0  0  0  0  0  0
  5  6  2  0  0  0  0
  5  7  1  0  0  0  0
  2  3  1  0  0  0  0
  2  4  1  0  0  0  0
  2  5  1  0  0  0  0
  1  2  1  0  0  0  0
 18 19  2  0  0  0  0
 18 20  1  0  0  0  0
 16 17  1  0  0  0  0
 14 15  2  0  0  0  0
 14 16  1  0  0  0  0
 11 12  1  0  0  0  0
 11 13  1  0  0  0  0
 11 14  1  0  0  0  0
  9 10  1  0  0  0  0
  9 11  1  0  0  0  0
  9 18  1  0  0  0  0
  7  8  1  0  0  0  0
  7  9  1  0  0  0  0
 22 23  1  0  0  0  0
 22 24  1  0  0  0  0
 22 25  1  0  0  0  0
 20 21  1  0  0  0  0
 20 22  1  0  0  0  0
M  END
$$$$
default_name
  -OEChem-02102213163D

 25 24  0     1  0  0  0  0  0999 V2000
   -2.7826   -3.8464    0.7821 H   0  0  0  0  0  0  0  0  0  0  0  0
   -2.8156   -2.8034    0.4711 C   0  0  0  0  0  0  0  0  0  0  0  0
   -3.4336   -2.2354    1.1641 H   0  0  0  0  0  0  0  0  0  0  0  0
   -3.2256   -2.7344   -0.5349 H   0  0  0  0  0  0  0  0  0  0  0  0
   -1.4126   -2.2444    0.4801 C   0  0  0  0  0  0  0  0  0  0  0  0
   -0.4686   -2.9534    0.8001 O   0  0  0  0  0  0  0  0  0  0  0  0
   -1.2736   -0.9704    0.1241 N   0  0  0  0  0  0  0  0  0  0  0  0
   -2.0996   -0.4354   -0.1019 H   0  0  0  0  0  0  0  0  0  0  0  0
   -0.0016   -0.2394    0.1271 C   0  0  1  0  0  0  0  0  0  0  0  0
    0.7164   -0.7963    0.7332 H   0  0  0  0  0  0  0  0  0  0  0  0
    0.5351   -0.1414   -1.3146 C   0  0  0  0  0  0  0  0  0  0  0  0
    0.9496   -1.1049   -1.6138 H   0  0  0  0  0  0  0  0  0  0  0  0
   -0.2827    0.0974   -1.9955 H   0  0  0  0  0  0  0  0  0  0  0  0
    1.6445    0.8927   -1.4803 C   0  0  0  0  0  0  0  0  0  0  0  0
    2.7198    0.8841   -0.8955 O   0  0  0  0  0  0  0  0  0  0  0  0
    1.3676    1.8836   -2.3483 O   0  0  0  0  0  0  0  0  0  0  0  0
    2.1466    2.4404   -2.3681 H   0  0  0  0  0  0  0  0  0  0  0  0
   -0.1923    1.1526    0.7617 C   0  0  0  0  0  0  0  0  0  0  0  0
   -1.1582    1.8438    0.4410 O   0  0  0  0  0  0  0  0  0  0  0  0
    0.7203    1.5683    1.6472 N   0  0  0  0  0  0  0  0  0  0  0  0
    1.5210    0.9664    1.8100 H   0  0  0  0  0  0  0  0  0  0  0  0
    0.6747    2.8558    2.3368 C   0  0  0  0  0  0  0  0  0  0  0  0
   -0.3018    2.9877    2.8079 H   0  0  0  0  0  0  0  0  0  0  0  0
    1.4516    2.8997    3.1011 H   0  0  0  0  0  0  0  0  0  0  0  0
    0.8279    3.6639    1.6193 H   0  0  0  0  0  0  0  0  0  0  0  0
  5  6  2  0  0  0  0
  5  7  1  0  0  0  0
  2  3  1  0  0  0  0
  2  4  1  0  0  0  0
  2  5  1  0  0  0  0
  1  2  1  0  0  0  0
 18 19  2  0  0  0  0
 18 20  1  0  0  0  0
 16 17  1  0  0  0  0
 14 15  2  0  0  0  0
 14 16  1  0  0  0  0
 11 12  1  0  0  0  0
 11 13  1  0  0  0  0
 11 14  1  0  0  0  0
  9 10  1  0  0  0  0
  9 11  1  0  0  0  0
  9 18  1  0  0  0  0
  7  8  1  0  0  0  0
  7  9  1  0  0  0  0
 22 23  1  0  0  0  0
 22 24  1  0  0  0  0
 22 25  1  0  0  0  0
 20 21  1  0  0  0  0
 20 22  1  0  0  0  0
M  END
$$$$
default_name
  -OEChem-02102213163D

 25 24  0     1  0  0  0  0  0999 V2000
   -2.7826   -3.8464    0.7821 H   0  0  0  0  0  0  0  0  0  0  0  0
   -2.8156   -2.8034    0.4711 C   0  0  0  0  0  0  0  0  0  0  0  0
   -3.4336   -2.2354    1.1641 H   0  0  0  0  0  0  0  0  0  0  0  0
   -3.2256   -2.7344   -0.5349 H   0  0  0  0  0  0  0  0  0  0  0  0
   -1.4126   -2.2444    0.4801 C   0  0  0  0  0  0  0  0  0  0  0  0
   -0.4686   -2.9534    0.8001 O   0  0  0  0  0  0  0  0  0  0  0  0
   -1.2736   -0.9704    0.1241 N   0  0  0  0  0  0  0  0  0  0  0  0
   -2.0996   -0.4354   -0.1019 H   0  0  0  0  0  0  0  0  0  0  0  0
   -0.0016   -0.2394    0.1271 C   0  0  1  0  0  0  0  0  0  0  0  0
    0.7164   -0.7963    0.7332 H   0  0  0  0  0  0  0  0  0  0  0  0
    0.5351   -0.1414   -1.3146 C   0  0  0  0  0  0  0  0  0  0  0  0
    0.9496   -1.1049   -1.6138 H   0  0  0  0  0  0  0  0  0  0  0  0
   -0.2827    0.0974   -1.9955 H   0  0  0  0  0  0  0  0  0  0  0  0
    1.6445    0.8927   -1.4803 C   0  0  0  0  0  0  0  0  0  0  0  0
    2.8031    0.7605   -1.1083 O   0  0  0  0  0  0  0  0  0  0  0  0
    1.2666    2.0340   -2.0857 O   0  0  0  0  0  0  0  0  0  0  0  0
    2.0546    2.5756   -2.1402 H   0  0  0  0  0  0  0  0  0  0  0  0
   -0.1923    1.1526    0.7617 C   0  0  0  0  0  0  0  0  0  0  0  0
   -1.1582    1.8438    0.4410 O   0  0  0  0  0  0  0  0  0  0  0  0
    0.7203    1.5683    1.6472 N   0  0  0  0  0  0  0  0  0  0  0  0
    1.5210    0.9664    1.8100 H   0  0  0  0  0  0  0  0  0  0  0  0
    0.6747    2.8558    2.3368 C   0  0  0  0  0  0  0  0  0  0  0  0
   -0.3018    2.9877    2.8079 H   0  0  0  0  0  0  0  0  0  0  0  0
    1.4516    2.8997    3.1011 H   0  0  0  0  0  0  0  0  0  0  0  0
    0.8279    3.6639    1.6193 H   0  0  0  0  0  0  0  0  0  0  0  0
  5  6  2  0  0  0  0
  5  7  1  0  0  0  0
  2  3  1  0  0  0  0
  2  4  1  0  0  0  0
  2  5  1  0  0  0  0
  1  2  1  0  0  0  0
 18 19  2  0  0  0  0
 18 20  1  0  0  0  0
 16 17  1  0  0  0  0
 14 15  2  0  0  0  0
 14 16  1  0  0  0  0
 11 12  1  0  0  0  0
 11 13  1  0  0  0  0
 11 14  1  0  0  0  0
  9 10  1  0  0  0  0
  9 11  1  0  0  0  0
  9 18  1  0  0  0  0
  7  8  1  0  0  0  0
  7  9  1  0  0  0  0
 22 23  1  0  0  0  0
 22 24  1  0  0  0  0
 22 25  1  0  0  0  0
 20 21  1  0  0  0  0
 20 22  1  0  0  0  0
M  END
$$$$
default_name
  -OEChem-02102213163D

 25 24  0     1  0  0  0  0  0999 V2000
   -2.7826   -3.8464    0.7821 H   0  0  0  0  0  0  0  0  0  0  0  0
   -2.8156   -2.8034    0.4711 C   0  0  0  0  0  0  0  0  0  0  0  0
   -3.4336   -2.2354    1.1641 H   0  0  0  0  0  0  0  0  0  0  0  0
   -3.2256   -2.7344   -0.5349 H   0  0  0  0  0  0  0  0  0  0  0  0
   -1.4126   -2.2444    0.4801 C   0  0  0  0  0  0  0  0  0  0  0  0
   -0.4686   -2.9534    0.8001 O   0  0  0  0  0  0  0  0  0  0  0  0
   -1.2736   -0.9704    0.1241 N   0  0  0  0  0  0  0  0  0  0  0  0
   -2.0996   -0.4354   -0.1019 H   0  0  0  0  0  0  0  0  0  0  0  0
   -0.0016   -0.2394    0.1271 C   0  0  1  0  0  0  0  0  0  0  0  0
    0.7164   -0.7963    0.7332 H   0  0  0  0  0  0  0  0  0  0  0  0
    0.5351   -0.1414   -1.3146 C   0  0  0  0  0  0  0  0  0  0  0  0
    0.9496   -1.1049   -1.6138 H   0  0  0  0  0  0  0  0  0  0  0  0
   -0.2827    0.0974   -1.9955 H   0  0  0  0  0  0  0  0  0  0  0  0
    1.6445    0.8927   -1.4803 C   0  0  0  0  0  0  0  0  0  0  0  0
    2.8429    0.6789   -1.3518 O   0  0  0  0  0  0  0  0  0  0  0  0
    1.2193    2.1327   -1.7861 O   0  0  0  0  0  0  0  0  0  0  0  0
    2.0096    2.6658   -1.8786 H   0  0  0  0  0  0  0  0  0  0  0  0
   -0.1923    1.1526    0.7617 C   0  0  0  0  0  0  0  0  0  0  0  0
   -1.1582    1.8438    0.4410 O   0  0  0  0  0  0  0  0  0  0  0  0
    0.7203    1.5683    1.6472 N   0  0  0  0  0  0  0  0  0  0  0  0
    1.5210    0.9664    1.8100 H   0  0  0  0  0  0  0  0  0  0  0  0
    0.6747    2.8558    2.3368 C   0  0  0  0  0  0  0  0  0  0  0  0
   -0.3018    2.9877    2.8079 H   0  0  0  0  0  0  0  0  0  0  0  0
    1.4516    2.8997    3.1011 H   0  0  0  0  0  0  0  0  0  0  0  0
    0.8279    3.6639    1.6193 H   0  0  0  0  0  0  0  0  0  0  0  0
  5  6  2  0  0  0  0
  5  7  1  0  0  0  0
  2  3  1  0  0  0  0
  2  4  1  0  0  0  0
  2  5  1  0  0  0  0
  1  2  1  0  0  0  0
 18 19  2  0  0  0  0
 18 20  1  0  0  0  0
 16 17  1  0  0  0  0
 14 15  2  0  0  0  0
 14 16  1  0  0  0  0
 11 12  1  0  0  0  0
 11 13  1  0  0  0  0
 11 14  1  0  0  0  0
  9 10  1  0  0  0  0
  9 11  1  0  0  0  0
  9 18  1  0  0  0  0
  7  8  1  0  0  0  0
  7  9  1  0  0  0  0
 22 23  1  0  0  0  0
 22 24  1  0  0  0  0
 22 25  1  0  0  0  0
 20 21  1  0  0  0  0
 20 22  1  0  0  0  0
M  END
$$$$
default_name
  -OEChem-02102213163D

 25 24  0     1  0  0  0  0  0999 V2000
   -2.7826   -3.8464    0.7821 H   0  0  0  0  0  0  0  0  0  0  0  0
   -2.8156   -2.8034    0.4711 C   0  0  0  0  0  0  0  0  0  0  0  0
   -3.4336   -2.2354    1.1641 H   0  0  0  0  0  0  0  0  0  0  0  0
   -3.2256   -2.7344   -0.5349 H   0  0  0  0  0  0  0  0  0  0  0  0
   -1.4126   -2.2444    0.4801 C   0  0  0  0  0  0  0  0  0  0  0  0
   -0.4686   -2.9534    0.8001 O   0  0  0  0  0  0  0  0  0  0  0  0
   -1.2736   -0.9704    0.1241 N   0  0  0  0  0  0  0  0  0  0  0  0
   -2.0996   -0.4354   -0.1019 H   0  0  0  0  0  0  0  0  0  0  0  0
   -0.0016   -0.2394    0.1271 C   0  0  1  0  0  0  0  0  0  0  0  0
    0.7164   -0.7963    0.7332 H   0  0  0  0  0  0  0  0  0  0  0  0
    0.5351   -0.1414   -1.3146 C   0  0  0  0  0  0  0  0  0  0  0  0
    0.9496   -1.1049   -1.6138 H   0  0  0  0  0  0  0  0  0  0  0  0
   -0.2827    0.0974   -1.9955 H   0  0  0  0  0  0  0  0  0  0  0  0
    1.6445    0.8927   -1.4803 C   0  0  0  0  0  0  0  0  0  0  0  0
    2.8362    0.6448   -1.6092 O   0  0  0  0  0  0  0  0  0  0  0  0
    1.2290    2.1730   -1.4698 O   0  0  0  0  0  0  0  0  0  0  0  0
    2.0145    2.7050   -1.6009 H   0  0  0  0  0  0  0  0  0  0  0  0
   -0.1923    1.1526    0.7617 C   0  0  0  0  0  0  0  0  0  0  0  0
   -1.1582    1.8438    0.4410 O   0  0  0  0  0  0  0  0  0  0  0  0
    0.7203    1.5683    1.6472 N   0  0  0  0  0  0  0  0  0  0  0  0
    1.5210    0.9664    1.8100 H   0  0  0  0  0  0  0  0  0  0  0  0
    0.6747    2.8558    2.3368 C   0  0  0  0  0  0  0  0  0  0  0  0
   -0.3018    2.9877    2.8079 H   0  0  0  0  0  0  0  0  0  0  0  0
    1.4516    2.8997    3.1011 H   0  0  0  0  0  0  0  0  0  0  0  0
    0.8279    3.6639    1.6193 H   0  0  0  0  0  0  0  0  0  0  0  0
  5  6  2  0  0  0  0
  5  7  1  0  0  0  0
  2  3  1  0  0  0  0
  2  4  1  0  0  0  0
  2  5  1  0  0  0  0
  1  2  1  0  0  0  0
 18 19  2  0  0  0  0
 18 20  1  0  0  0  0
 16 17  1  0  0  0  0
 14 15  2  0  0  0  0
 14 16  1  0  0  0  0
 11 12  1  0  0  0  0
 11 13  1  0  0  0  0
 11 14  1  0  0  0  0
  9 10  1  0  0  0  0
  9 11  1  0  0  0  0
  9 18  1  0  0  0  0
  7  8  1  0  0  0  0
  7  9  1  0  0  0  0
 22 23  1  0  0  0  0
 22 24  1  0  0  0  0
 22 25  1  0  0  0  0
 20 21  1  0  0  0  0
 20 22  1  0  0  0  0
M  END
$$$$
default_name
  -OEChem-02102213163D

 25 24  0     1  0  0  0  0  0999 V2000
   -2.7826   -3.8464    0.7821 H   0  0  0  0  0  0  0  0  0  0  0  0
   -2.8156   -2.8034    0.4711 C   0  0  0  0  0  0  0  0  0  0  0  0
   -3.4336   -2.2354    1.1641 H   0  0  0  0  0  0  0  0  0  0  0  0
   -3.2256   -2.7344   -0.5349 H   0  0  0  0  0  0  0  0  0  0  0  0
   -1.4126   -2.2444    0.4801 C   0  0  0  0  0  0  0  0  0  0  0  0
   -0.4686   -2.9534    0.8001 O   0  0  0  0  0  0  0  0  0  0  0  0
   -1.2736   -0.9704    0.1241 N   0  0  0  0  0  0  0  0  0  0  0  0
   -2.0996   -0.4354   -0.1019 H   0  0  0  0  0  0  0  0  0  0  0  0
   -0.0016   -0.2394    0.1271 C   0  0  1  0  0  0  0  0  0  0  0  0
    0.7164   -0.7963    0.7332 H   0  0  0  0  0  0  0  0  0  0  0  0
    0.5351   -0.1414   -1.3146 C   0  0  0  0  0  0  0  0  0  0  0  0
    0.9496   -1.1049   -1.6138 H   0  0  0  0  0  0  0  0  0  0  0  0
   -0.2827    0.0974   -1.9955 H   0  0  0  0  0  0  0  0  0  0  0  0
    1.6445    0.8927   -1.4803 C   0  0  0  0  0  0  0  0  0  0  0  0
    2.7837    0.6605   -1.8632 O   0  0  0  0  0  0  0  0  0  0  0  0
    1.2949    2.1522   -1.1584 O   0  0  0  0  0  0  0  0  0  0  0  0
    2.0691    2.6904   -1.3262 H   0  0  0  0  0  0  0  0  0  0  0  0
   -0.1923    1.1526    0.7617 C   0  0  0  0  0  0  0  0  0  0  0  0
   -1.1582    1.8438    0.4410 O   0  0  0  0  0  0  0  0  0  0  0  0
    0.7203    1.5683    1.6472 N   0  0  0  0  0  0  0  0  0  0  0  0
    1.5210    0.9664    1.8100 H   0  0  0  0  0  0  0  0  0  0  0  0
    0.6747    2.8558    2.3368 C   0  0  0  0  0  0  0  0  0  0  0  0
   -0.3018    2.9877    2.8079 H   0  0  0  0  0  0  0  0  0  0  0  0
    1.4516    2.8997    3.1011 H   0  0  0  0  0  0  0  0  0  0  0  0
    0.8279    3.6639    1.6193 H   0  0  0  0  0  0  0  0  0  0  0  0
  5  6  2  0  0  0  0
  5  7  1  0  0  0  0
  2  3  1  0  0  0  0
  2  4  1  0  0  0  0
  2  5  1  0  0  0  0
  1  2  1  0  0  0  0
 18 19  2  0  0  0  0
 18 20  1  0  0  0  0
 16 17  1  0  0  0  0
 14 15  2  0  0  0  0
 14 16  1  0  0  0  0
 11 12  1  0  0  0  0
 11 13  1  0  0  0  0
 11 14  1  0  0  0  0
  9 10  1  0  0  0  0
  9 11  1  0  0  0  0
  9 18  1  0  0  0  0
  7  8  1  0  0  0  0
  7  9  1  0  0  0  0
 22 23  1  0  0  0  0
 22 24  1  0  0  0  0
 22 25  1  0  0  0  0
 20 21  1  0  0  0  0
 20 22  1  0  0  0  0
M  END
$$$$
default_name
  -OEChem-02102213163D

 25 24  0     1  0  0  0  0  0999 V2000
   -2.7826   -3.8464    0.7821 H   0  0  0  0  0  0  0  0  0  0  0  0
   -2.8156   -2.8034    0.4711 C   0  0  0  0  0  0  0  0  0  0  0  0
   -3.4336   -2.2354    1.1641 H   0  0  0  0  0  0  0  0  0  0  0  0
   -3.2256   -2.7344   -0.5349 H   0  0  0  0  0  0  0  0  0  0  0  0
   -1.4126   -2.2444    0.4801 C   0  0  0  0  0  0  0  0  0  0  0  0
   -0.4686   -2.9534    0.8001 O   0  0  0  0  0  0  0  0  0  0  0  0
   -1.2736   -0.9704    0.1241 N   0  0  0  0  0  0  0  0  0  0  0  0
   -2.0996   -0.4354   -0.1019 H   0  0  0  0  0  0  0  0  0  0  0  0
   -0.0016   -0.2394    0.1271 C   0  0  1  0  0  0  0  0  0  0  0  0
    0.7164   -0.7963    0.7332 H   0  0  0  0  0  0  0  0  0  0  0  0
    0.5351   -0.1414   -1.3146 C   0  0  0  0  0  0  0  0  0  0  0  0
    0.9496   -1.1049   -1.6138 H   0  0  0  0  0  0  0  0  0  0  0  0
   -0.2827    0.0974   -1.9955 H   0  0  0  0  0  0  0  0  0  0  0  0
    1.6445    0.8927   -1.4803 C   0  0  0  0  0  0  0  0  0  0  0  0
    2.6888    0.7249   -2.0963 O   0  0  0  0  0  0  0  0  0  0  0  0
    1.4127    2.0715   -0.8731 O   0  0  0  0  0  0  0  0  0  0  0  0
    2.1696    2.6232   -1.0732 H   0  0  0  0  0  0  0  0  0  0  0  0
   -0.1923    1.1526    0.7617 C   0  0  0  0  0  0  0  0  0  0  0  0
   -1.1582    1.8438    0.4410 O   0  0  0  0  0  0  0  0  0  0  0  0
    0.7203    1.5683    1.6472 N   0  0  0  0  0  0  0  0  0  0  0  0
    1.5210    0.9664    1.8100 H   0  0  0  0  0  0  0  0  0  0  0  0
    0.6747    2.8558    2.3368 C   0  0  0  0  0  0  0  0  0  0  0  0
   -0.3018    2.9877    2.8079 H   0  0  0  0  0  0  0  0  0  0  0  0
    1.4516    2.8997    3.1011 H   0  0  0  0  0  0  0  0  0  0  0  0
    0.8279    3.6639    1.6193 H   0  0  0  0  0  0  0  0  0  0  0  0
  5  6  2  0  0  0  0
  5  7  1  0  0  0  0
  2  3  1  0  0  0  0
  2  4  1  0  0  0  0
  2  5  1  0  0  0  0
  1  2  1  0  0  0  0
 18 19  2  0  0  0  0
 18 20  1  0  0  0  0
 16 17  1  0  0  0  0
 14 15  2  0  0  0  0
 14 16  1  0  0  0  0
 11 12  1  0  0  0  0
 11 13  1  0  0  0  0
 11 14  1  0  0  0  0
  9 10  1  0  0  0  0
  9 11  1  0  0  0  0
  9 18  1  0  0  0  0
  7  8  1  0  0  0  0
  7  9  1  0  0  0  0
 22 23  1  0  0  0  0
 22 24  1  0  0  0  0
 22 25  1  0  0  0  0
 20 21  1  0  0  0  0
 20 22  1  0  0  0  0
M  END
$$$$
default_name
  -OEChem-02102213163D

 25 24  0     1  0  0  0  0  0999 V2000
   -2.7826   -3.8464    0.7821 H   0  0  0  0  0  0  0  0  0  0  0  0
   -2.8156   -2.8034    0.4711 C   0  0  0  0  0  0  0  0  0  0  0  0
   -3.4336   -2.2354    1.1641 H   0  0  0  0  0  0  0  0  0  0  0  0
   -3.2256   -2.7344   -0.5349 H   0  0  0  0  0  0  0  0  0  0  0  0
   -1.4126   -2.2444    0.4801 C   0  0  0  0  0  0  0  0  0  0  0  0
   -0.4686   -2.9534    0.8001 O   0  0  0  0  0  0  0  0  0  0  0  0
   -1.2736   -0.9704    0.1241 N   0  0  0  0  0  0  0  0  0  0  0  0
   -2.0996   -0.4354   -0.1019 H   0  0  0  0  0  0  0  0  0  0  0  0
   -0.0016   -0.2394    0.1271 C   0  0  1  0  0  0  0  0  0  0  0  0
    0.7164   -0.7963    0.7332 H   0  0  0  0  0  0  0  0  0  0  0  0
    0.5351   -0.1414   -1.3146 C   0  0  0  0  0  0  0  0  0  0  0  0
    0.9496   -1.1049   -1.6138 H   0  0  0  0  0  0  0  0  0  0  0  0
   -0.2827    0.0974   -1.9955 H   0  0  0  0  0  0  0  0  0  0  0  0
    1.6445    0.8927   -1.4803 C   0  0  0  0  0  0  0  0  0  0  0  0
    2.5581    0.8337   -2.2928 O   0  0  0  0  0  0  0  0  0  0  0  0
    1.5742    1.9366   -0.6333 O   0  0  0  0  0  0  0  0  0  0  0  0
    2.3091    2.5077   -0.8591 H   0  0  0  0  0  0  0  0  0  0  0  0
   -0.1923    1.1526    0.7617 C   0  0  0  0  0  0  0  0  0  0  0  0
   -1.1582    1.8438    0.4410 O   0  0  0  0  0  0  0  0  0  0  0  0
    0.7203    1.5683    1.6472 N   0  0  0  0  0  0  0  0  0  0  0  0
    1.5210    0.9664    1.8100 H   0  0  0  0  0  0  0  0  0  0  0  0
    0.6747    2.8558    2.3368 C   0  0  0  0  0  0  0  0  0  0  0  0
   -0.3018    2.9877    2.8079 H   0  0  0  0  0  0  0  0  0  0  0  0
    1.4516    2.8997    3.1011 H   0  0  0  0  0  0  0  0  0  0  0  0
    0.8279    3.6639    1.6193 H   0  0  0  0  0  0  0  0  0  0  0  0
  5  6  2  0  0  0  0
  5  7  1  0  0  0  0
  2  3  1  0  0  0  0
  2  4  1  0  0  0  0
  2  5  1  0  0  0  0
  1  2  1  0  0  0  0
 18 19  2  0  0  0  0
 18 20  1  0  0  0  0
 16 17  1  0  0  0  0
 14 15  2  0  0  0  0
 14 16  1  0  0  0  0
 11 12  1  0  0  0  0
 11 13  1  0  0  0  0
 11 14  1  0  0  0  0
  9 10  1  0  0  0  0
  9 11  1  0  0  0  0
  9 18  1  0  0  0  0
  7  8  1  0  0  0  0
  7  9  1  0  0  0  0
 22 23  1  0  0  0  0
 22 24  1  0  0  0  0
 22 25  1  0  0  0  0
 20 21  1  0  0  0  0
 20 22  1  0  0  0  0
M  END
$$$$
default_name
  -OEChem-02102213163D

 25 24  0     1  0  0  0  0  0999 V2000
   -2.7826   -3.8464    0.7821 H   0  0  0  0  0  0  0  0  0  0  0  0
   -2.8156   -2.8034    0.4711 C   0  0  0  0  0  0  0  0  0  0  0  0
   -3.4336   -2.2354    1.1641 H   0  0  0  0  0  0  0  0  0  0  0  0
   -3.2256   -2.7344   -0.5349 H   0  0  0  0  0  0  0  0  0  0  0  0
   -1.4126   -2.2444    0.4801 C   0  0  0  0  0  0  0  0  0  0  0  0
   -0.4686   -2.9534    0.8001 O   0  0  0  0  0  0  0  0  0  0  0  0
   -1.2736   -0.9704    0.1241 N   0  0  0  0  0  0  0  0  0  0  0  0
   -2.0996   -0.4354   -0.1019 H   0  0  0  0  0  0  0  0  0  0  0  0
   -0.0016   -0.2394    0.1271 C   0  0  1  0  0  0  0  0  0  0  0  0
    0.7164   -0.7963    0.7332 H   0  0  0  0  0  0  0  0  0  0  0  0
    0.5351   -0.1414   -1.3146 C   0  0  0  0  0  0  0  0  0  0  0  0
    0.9496   -1.1049   -1.6138 H   0  0  0  0  0  0  0  0  0  0  0  0
   -0.2827    0.0974   -1.9955 H   0  0  0  0  0  0  0  0  0  0  0  0
    1.6445    0.8927   -1.4803 C   0  0  0  0  0  0  0  0  0  0  0  0
    2.4004    0.9794   -2.4391 O   0  0  0  0  0  0  0  0  0  0  0  0
    1.7685    1.7567   -0.4555 O   0  0  0  0  0  0  0  0  0  0  0  0
    2.4783    2.3520   -0.6985 H   0  0  0  0  0  0  0  0  0  0  0  0
   -0.1923    1.1526    0.7617 C   0  0  0  0  0  0  0  0  0  0  0  0
   -1.1582    1.8438    0.4410 O   0  0  0  0  0  0  0  0  0  0  0  0
    0.7203    1.5683    1.6472 N   0  0  0  0  0  0  0  0  0  0  0  0
    1.5210    0.9664    1.8100 H   0  0  0  0  0  0  0  0  0  0  0  0
    0.6747    2.8558    2.3368 C   0  0  0  0  0  0  0  0  0  0  0  0
   -0.3018    2.9877    2.8079 H   0  0  0  0  0  0  0  0  0  0  0  0
    1.4516    2.8997    3.1011 H   0  0  0  0  0  0  0  0  0  0  0  0
    0.8279    3.6639    1.6193 H   0  0  0  0  0  0  0  0  0  0  0  0
  5  6  2  0  0  0  0
  5  7  1  0  0  0  0
  2  3  1  0  0  0  0
  2  4  1  0  0  0  0
  2  5  1  0  0  0  0
  1  2  1  0  0  0  0
 18 19  2  0  0  0  0
 18 20  1  0  0  0  0
 16 17  1  0  0  0  0
 14 15  2  0  0  0  0
 14 16  1  0  0  0  0
 11 12  1  0  0  0  0
 11 13  1  0  0  0  0
 11 14  1  0  0  0  0
  9 10  1  0  0  0  0
  9 11  1  0  0  0  0
  9 18  1  0  0  0  0
  7  8  1  0  0  0  0
  7  9  1  0  0  0  0
 22 23  1  0  0  0  0
 22 24  1  0  0  0  0
 22 25  1  0  0  0  0
 20 21  1  0  0  0  0
 20 22  1  0  0  0  0
M  END
$$$$
