
  -OEChem-03222214023D

 25 24  0     1  0  0  0  0  0999 V2000
   -2.7166   -3.9487    0.4145 H   0  0  0  0  0  0  0  0  0  0  0  0
   -2.7487   -2.8987    0.1105 C   0  0  0  0  0  0  0  0  0  0  0  0
   -3.3468   -2.3404    0.8349 H   0  0  0  0  0  0  0  0  0  0  0  0
   -3.2216   -2.8305   -0.8722 H   0  0  0  0  0  0  0  0  0  0  0  0
   -1.3441   -2.3291    0.0487 C   0  0  0  0  0  0  0  0  0  0  0  0
   -0.3825   -3.0425    0.2868 O   0  0  0  0  0  0  0  0  0  0  0  0
   -1.1542   -1.0044   -0.2854 N   0  0  0  0  0  0  0  0  0  0  0  0
   -1.9854   -0.4182   -0.3614 H   0  0  0  0  0  0  0  0  0  0  0  0
    0.1400   -0.3102   -0.2234 C   0  0  1  0  0  0  0  0  0  0  0  0
    0.8592   -0.8723    0.3828 H   0  0  0  0  0  0  0  0  0  0  0  0
    0.6633   -0.1876   -1.6659 C   0  0  0  0  0  0  0  0  0  0  0  0
    0.7595   -1.1905   -2.0906 H   0  0  0  0  0  0  0  0  0  0  0  0
   -0.0649    0.3659   -2.2653 H   0  0  0  0  0  0  0  0  0  0  0  0
    2.0138    0.5101   -1.8029 C   0  0  0  0  0  0  0  0  0  0  0  0
    2.4567    0.6261   -2.9297 O   0  0  0  0  0  0  0  0  0  0  0  0
    2.7106    0.8702   -0.7003 O   0  0  0  0  0  0  0  0  0  0  0  0
    3.5398    1.2370   -1.0484 H   0  0  0  0  0  0  0  0  0  0  0  0
   -0.0747    1.0674    0.4433 C   0  0  0  0  0  0  0  0  0  0  0  0
   -1.0727    1.7213    0.1599 O   0  0  0  0  0  0  0  0  0  0  0  0
    0.7886    1.5315    1.4169 N   0  0  0  0  0  0  0  0  0  0  0  0
    1.6821    1.0501    1.4909 H   0  0  0  0  0  0  0  0  0  0  0  0
    0.6506    2.8419    2.0400 C   0  0  0  0  0  0  0  0  0  0  0  0
   -0.3365    2.9455    2.5029 H   0  0  0  0  0  0  0  0  0  0  0  0
    1.4089    2.9716    2.8180 H   0  0  0  0  0  0  0  0  0  0  0  0
    0.7755    3.6347    1.2954 H   0  0  0  0  0  0  0  0  0  0  0  0
  1  2  1  0  0  0  0
  2  3  1  0  0  0  0
  2  4  1  0  0  0  0
  2  5  1  0  0  0  0
  5  6  2  0  0  0  0
  5  7  1  0  0  0  0
  7  8  1  0  0  0  0
  7  9  1  0  0  0  0
  9 10  1  0  0  0  0
  9 11  1  0  0  0  0
  9 18  1  0  0  0  0
 11 12  1  0  0  0  0
 11 13  1  0  0  0  0
 11 14  1  0  0  0  0
 14 15  2  0  0  0  0
 14 16  1  0  0  0  0
 16 17  1  0  0  0  0
 18 19  2  0  0  0  0
 18 20  1  0  0  0  0
 20 21  1  0  0  0  0
 20 22  1  0  0  0  0
 22 23  1  0  0  0  0
 22 24  1  0  0  0  0
 22 25  1  0  0  0  0
M  END
$$$$

  -OEChem-03222214023D

 25 24  0     1  0  0  0  0  0999 V2000
   -2.7227   -3.9561    0.4236 H   0  0  0  0  0  0  0  0  0  0  0  0
   -2.7573   -2.9064    0.1189 C   0  0  0  0  0  0  0  0  0  0  0  0
   -3.3481   -2.3474    0.8485 H   0  0  0  0  0  0  0  0  0  0  0  0
   -3.2396   -2.8391   -0.8593 H   0  0  0  0  0  0  0  0  0  0  0  0
   -1.3533   -2.3367    0.0443 C   0  0  0  0  0  0  0  0  0  0  0  0
   -0.3898   -3.0479    0.2819 O   0  0  0  0  0  0  0  0  0  0  0  0
   -1.1668   -1.0126   -0.2947 N   0  0  0  0  0  0  0  0  0  0  0  0
   -2.0001   -0.4307   -0.3787 H   0  0  0  0  0  0  0  0  0  0  0  0
    0.1244   -0.3126   -0.2355 C   0  0  1  0  0  0  0  0  0  0  0  0
    0.8377   -0.8750    0.3778 H   0  0  0  0  0  0  0  0  0  0  0  0
    0.6658   -0.1956   -1.6699 C   0  0  0  0  0  0  0  0  0  0  0  0
    0.7796   -1.1981   -2.0901 H   0  0  0  0  0  0  0  0  0  0  0  0
   -0.0554    0.3514   -2.2841 H   0  0  0  0  0  0  0  0  0  0  0  0
    2.0135    0.5133   -1.7650 C   0  0  0  0  0  0  0  0  0  0  0  0
    2.3670    0.8901   -2.8661 O   0  0  0  0  0  0  0  0  0  0  0  0
    2.7900    0.6293   -0.6617 O   0  0  0  0  0  0  0  0  0  0  0  0
    3.6011    1.0577   -0.9806 H   0  0  0  0  0  0  0  0  0  0  0  0
   -0.0705    1.0705    0.4220 C   0  0  0  0  0  0  0  0  0  0  0  0
   -1.0611    1.7353    0.1405 O   0  0  0  0  0  0  0  0  0  0  0  0
    0.8077    1.5274    1.3856 N   0  0  0  0  0  0  0  0  0  0  0  0
    1.6820    1.0153    1.4828 H   0  0  0  0  0  0  0  0  0  0  0  0
    0.6881    2.8367    2.0147 C   0  0  0  0  0  0  0  0  0  0  0  0
   -0.2898    2.9432    2.4963 H   0  0  0  0  0  0  0  0  0  0  0  0
    1.4618    2.9612    2.7783 H   0  0  0  0  0  0  0  0  0  0  0  0
    0.8025    3.6311    1.2698 H   0  0  0  0  0  0  0  0  0  0  0  0
  1  2  1  0  0  0  0
  2  3  1  0  0  0  0
  2  4  1  0  0  0  0
  2  5  1  0  0  0  0
  5  6  2  0  0  0  0
  5  7  1  0  0  0  0
  7  8  1  0  0  0  0
  7  9  1  0  0  0  0
  9 10  1  0  0  0  0
  9 11  1  0  0  0  0
  9 18  1  0  0  0  0
 11 12  1  0  0  0  0
 11 13  1  0  0  0  0
 11 14  1  0  0  0  0
 14 15  2  0  0  0  0
 14 16  1  0  0  0  0
 16 17  1  0  0  0  0
 18 19  2  0  0  0  0
 18 20  1  0  0  0  0
 20 21  1  0  0  0  0
 20 22  1  0  0  0  0
 22 23  1  0  0  0  0
 22 24  1  0  0  0  0
 22 25  1  0  0  0  0
M  END
$$$$

  -OEChem-03222214023D

 25 24  0     1  0  0  0  0  0999 V2000
   -2.7243   -3.9662    0.4303 H   0  0  0  0  0  0  0  0  0  0  0  0
   -2.7634   -2.9179    0.1212 C   0  0  0  0  0  0  0  0  0  0  0  0
   -3.3545   -2.3581    0.8501 H   0  0  0  0  0  0  0  0  0  0  0  0
   -3.2483   -2.8563   -0.8560 H   0  0  0  0  0  0  0  0  0  0  0  0
   -1.3613   -2.3441    0.0405 C   0  0  0  0  0  0  0  0  0  0  0  0
   -0.3953   -3.0529    0.2743 O   0  0  0  0  0  0  0  0  0  0  0  0
   -1.1800   -1.0197   -0.3006 N   0  0  0  0  0  0  0  0  0  0  0  0
   -2.0158   -0.4419   -0.3872 H   0  0  0  0  0  0  0  0  0  0  0  0
    0.1084   -0.3142   -0.2473 C   0  0  1  0  0  0  0  0  0  0  0  0
    0.8176   -0.8775    0.3696 H   0  0  0  0  0  0  0  0  0  0  0  0
    0.6633   -0.2038   -1.6760 C   0  0  0  0  0  0  0  0  0  0  0  0
    0.7929   -1.2069   -2.0900 H   0  0  0  0  0  0  0  0  0  0  0  0
   -0.0525    0.3350   -2.3039 H   0  0  0  0  0  0  0  0  0  0  0  0
    2.0067    0.5158   -1.7354 C   0  0  0  0  0  0  0  0  0  0  0  0
    2.2706    1.1403   -2.7451 O   0  0  0  0  0  0  0  0  0  0  0  0
    2.8572    0.4120   -0.6872 O   0  0  0  0  0  0  0  0  0  0  0  0
    3.6473    0.9035   -0.9647 H   0  0  0  0  0  0  0  0  0  0  0  0
   -0.0670    1.0717    0.4058 C   0  0  0  0  0  0  0  0  0  0  0  0
   -1.0525    1.7463    0.1320 O   0  0  0  0  0  0  0  0  0  0  0  0
    0.8280    1.5197    1.3581 N   0  0  0  0  0  0  0  0  0  0  0  0
    1.6782    0.9742    1.4834 H   0  0  0  0  0  0  0  0  0  0  0  0
    0.7340    2.8321    1.9852 C   0  0  0  0  0  0  0  0  0  0  0  0
   -0.2323    2.9489    2.4874 H   0  0  0  0  0  0  0  0  0  0  0  0
    1.5257    2.9523    2.7309 H   0  0  0  0  0  0  0  0  0  0  0  0
    0.8393    3.6234    1.2355 H   0  0  0  0  0  0  0  0  0  0  0  0
  1  2  1  0  0  0  0
  2  3  1  0  0  0  0
  2  4  1  0  0  0  0
  2  5  1  0  0  0  0
  5  6  2  0  0  0  0
  5  7  1  0  0  0  0
  7  8  1  0  0  0  0
  7  9  1  0  0  0  0
  9 10  1  0  0  0  0
  9 11  1  0  0  0  0
  9 18  1  0  0  0  0
 11 12  1  0  0  0  0
 11 13  1  0  0  0  0
 11 14  1  0  0  0  0
 14 15  2  0  0  0  0
 14 16  1  0  0  0  0
 16 17  1  0  0  0  0
 18 19  2  0  0  0  0
 18 20  1  0  0  0  0
 20 21  1  0  0  0  0
 20 22  1  0  0  0  0
 22 23  1  0  0  0  0
 22 24  1  0  0  0  0
 22 25  1  0  0  0  0
M  END
$$$$

  -OEChem-03222214023D

 25 24  0     1  0  0  0  0  0999 V2000
   -2.7244   -3.9688    0.4399 H   0  0  0  0  0  0  0  0  0  0  0  0
   -2.7645   -2.9235    0.1211 C   0  0  0  0  0  0  0  0  0  0  0  0
   -3.3617   -2.3587    0.8411 H   0  0  0  0  0  0  0  0  0  0  0  0
   -3.2433   -2.8720   -0.8597 H   0  0  0  0  0  0  0  0  0  0  0  0
   -1.3636   -2.3464    0.0436 C   0  0  0  0  0  0  0  0  0  0  0  0
   -0.3969   -3.0527    0.2820 O   0  0  0  0  0  0  0  0  0  0  0  0
   -1.1847   -1.0227   -0.3015 N   0  0  0  0  0  0  0  0  0  0  0  0
   -2.0215   -0.4472   -0.3921 H   0  0  0  0  0  0  0  0  0  0  0  0
    0.1026   -0.3150   -0.2576 C   0  0  1  0  0  0  0  0  0  0  0  0
    0.8133   -0.8782    0.3581 H   0  0  0  0  0  0  0  0  0  0  0  0
    0.6557   -0.2123   -1.6863 C   0  0  0  0  0  0  0  0  0  0  0  0
    0.7918   -1.2157   -2.0970 H   0  0  0  0  0  0  0  0  0  0  0  0
   -0.0594    0.3217   -2.3196 H   0  0  0  0  0  0  0  0  0  0  0  0
    1.9958    0.5125   -1.7284 C   0  0  0  0  0  0  0  0  0  0  0  0
    2.1680    1.3551   -2.5884 O   0  0  0  0  0  0  0  0  0  0  0  0
    2.9282    0.2031   -0.7986 O   0  0  0  0  0  0  0  0  0  0  0  0
    3.6982    0.7466   -1.0309 H   0  0  0  0  0  0  0  0  0  0  0  0
   -0.0588    1.0736    0.3913 C   0  0  0  0  0  0  0  0  0  0  0  0
   -1.0424    1.7531    0.1245 O   0  0  0  0  0  0  0  0  0  0  0  0
    0.8492    1.5179    1.3334 N   0  0  0  0  0  0  0  0  0  0  0  0
    1.6788    0.9490    1.4860 H   0  0  0  0  0  0  0  0  0  0  0  0
    0.7642    2.8270    1.9690 C   0  0  0  0  0  0  0  0  0  0  0  0
   -0.1989    2.9463    2.4764 H   0  0  0  0  0  0  0  0  0  0  0  0
    1.5599    2.9389    2.7117 H   0  0  0  0  0  0  0  0  0  0  0  0
    0.8704    3.6218    1.2233 H   0  0  0  0  0  0  0  0  0  0  0  0
  1  2  1  0  0  0  0
  2  3  1  0  0  0  0
  2  4  1  0  0  0  0
  2  5  1  0  0  0  0
  5  6  2  0  0  0  0
  5  7  1  0  0  0  0
  7  8  1  0  0  0  0
  7  9  1  0  0  0  0
  9 10  1  0  0  0  0
  9 11  1  0  0  0  0
  9 18  1  0  0  0  0
 11 12  1  0  0  0  0
 11 13  1  0  0  0  0
 11 14  1  0  0  0  0
 14 15  2  0  0  0  0
 14 16  1  0  0  0  0
 16 17  1  0  0  0  0
 18 19  2  0  0  0  0
 18 20  1  0  0  0  0
 20 21  1  0  0  0  0
 20 22  1  0  0  0  0
 22 23  1  0  0  0  0
 22 24  1  0  0  0  0
 22 25  1  0  0  0  0
M  END
$$$$

  -OEChem-03222214023D

 25 24  0     1  0  0  0  0  0999 V2000
   -2.7242   -3.9650    0.4472 H   0  0  0  0  0  0  0  0  0  0  0  0
   -2.7640   -2.9203    0.1264 C   0  0  0  0  0  0  0  0  0  0  0  0
   -3.3570   -2.3533    0.8480 H   0  0  0  0  0  0  0  0  0  0  0  0
   -3.2473   -2.8701   -0.8522 H   0  0  0  0  0  0  0  0  0  0  0  0
   -1.3626   -2.3456    0.0414 C   0  0  0  0  0  0  0  0  0  0  0  0
   -0.3960   -3.0527    0.2772 O   0  0  0  0  0  0  0  0  0  0  0  0
   -1.1831   -1.0224   -0.3051 N   0  0  0  0  0  0  0  0  0  0  0  0
   -2.0193   -0.4454   -0.3923 H   0  0  0  0  0  0  0  0  0  0  0  0
    0.1055   -0.3163   -0.2683 C   0  0  1  0  0  0  0  0  0  0  0  0
    0.8200   -0.8790    0.3437 H   0  0  0  0  0  0  0  0  0  0  0  0
    0.6517   -0.2160   -1.6991 C   0  0  0  0  0  0  0  0  0  0  0  0
    0.7869   -1.2190   -2.1111 H   0  0  0  0  0  0  0  0  0  0  0  0
   -0.0638    0.3182   -2.3317 H   0  0  0  0  0  0  0  0  0  0  0  0
    1.9910    0.5081   -1.7336 C   0  0  0  0  0  0  0  0  0  0  0  0
    2.0851    1.5286   -2.3884 O   0  0  0  0  0  0  0  0  0  0  0  0
    3.0050    0.0071   -0.9943 O   0  0  0  0  0  0  0  0  0  0  0  0
    3.7587    0.5911   -1.1750 H   0  0  0  0  0  0  0  0  0  0  0  0
   -0.0522    1.0726    0.3808 C   0  0  0  0  0  0  0  0  0  0  0  0
   -1.0411    1.7488    0.1249 O   0  0  0  0  0  0  0  0  0  0  0  0
    0.8606    1.5169    1.3186 N   0  0  0  0  0  0  0  0  0  0  0  0
    1.6764    0.9356    1.4937 H   0  0  0  0  0  0  0  0  0  0  0  0
    0.7730    2.8227    1.9604 C   0  0  0  0  0  0  0  0  0  0  0  0
   -0.1852    2.9329    2.4791 H   0  0  0  0  0  0  0  0  0  0  0  0
    1.5763    2.9381    2.6944 H   0  0  0  0  0  0  0  0  0  0  0  0
    0.8651    3.6211    1.2165 H   0  0  0  0  0  0  0  0  0  0  0  0
  1  2  1  0  0  0  0
  2  3  1  0  0  0  0
  2  4  1  0  0  0  0
  2  5  1  0  0  0  0
  5  6  2  0  0  0  0
  5  7  1  0  0  0  0
  7  8  1  0  0  0  0
  7  9  1  0  0  0  0
  9 10  1  0  0  0  0
  9 11  1  0  0  0  0
  9 18  1  0  0  0  0
 11 12  1  0  0  0  0
 11 13  1  0  0  0  0
 11 14  1  0  0  0  0
 14 15  2  0  0  0  0
 14 16  1  0  0  0  0
 16 17  1  0  0  0  0
 18 19  2  0  0  0  0
 18 20  1  0  0  0  0
 20 21  1  0  0  0  0
 20 22  1  0  0  0  0
 22 23  1  0  0  0  0
 22 24  1  0  0  0  0
 22 25  1  0  0  0  0
M  END
$$$$

  -OEChem-03222214023D

 25 24  0     1  0  0  0  0  0999 V2000
   -2.7243   -3.9596    0.4488 H   0  0  0  0  0  0  0  0  0  0  0  0
   -2.7624   -2.9145    0.1291 C   0  0  0  0  0  0  0  0  0  0  0  0
   -3.3517   -2.3464    0.8530 H   0  0  0  0  0  0  0  0  0  0  0  0
   -3.2491   -2.8623   -0.8479 H   0  0  0  0  0  0  0  0  0  0  0  0
   -1.3598   -2.3435    0.0398 C   0  0  0  0  0  0  0  0  0  0  0  0
   -0.3941   -3.0534    0.2713 O   0  0  0  0  0  0  0  0  0  0  0  0
   -1.1778   -1.0206   -0.3059 N   0  0  0  0  0  0  0  0  0  0  0  0
   -2.0123   -0.4397   -0.3851 H   0  0  0  0  0  0  0  0  0  0  0  0
    0.1129   -0.3189   -0.2722 C   0  0  1  0  0  0  0  0  0  0  0  0
    0.8315   -0.8827    0.3338 H   0  0  0  0  0  0  0  0  0  0  0  0
    0.6483   -0.2167   -1.7067 C   0  0  0  0  0  0  0  0  0  0  0  0
    0.7747   -1.2186   -2.1249 H   0  0  0  0  0  0  0  0  0  0  0  0
   -0.0677    0.3244   -2.3325 H   0  0  0  0  0  0  0  0  0  0  0  0
    1.9894    0.5019   -1.7465 C   0  0  0  0  0  0  0  0  0  0  0  0
    2.0291    1.6472   -2.1539 O   0  0  0  0  0  0  0  0  0  0  0  0
    3.0701   -0.1525   -1.2705 O   0  0  0  0  0  0  0  0  0  0  0  0
    3.8128    0.4584   -1.3977 H   0  0  0  0  0  0  0  0  0  0  0  0
   -0.0483    1.0687    0.3808 C   0  0  0  0  0  0  0  0  0  0  0  0
   -1.0455    1.7366    0.1346 O   0  0  0  0  0  0  0  0  0  0  0  0
    0.8622    1.5161    1.3199 N   0  0  0  0  0  0  0  0  0  0  0  0
    1.6794    0.9390    1.4989 H   0  0  0  0  0  0  0  0  0  0  0  0
    0.7687    2.8229    1.9590 C   0  0  0  0  0  0  0  0  0  0  0  0
   -0.1894    2.9289    2.4787 H   0  0  0  0  0  0  0  0  0  0  0  0
    1.5727    2.9445    2.6912 H   0  0  0  0  0  0  0  0  0  0  0  0
    0.8552    3.6197    1.2127 H   0  0  0  0  0  0  0  0  0  0  0  0
  1  2  1  0  0  0  0
  2  3  1  0  0  0  0
  2  4  1  0  0  0  0
  2  5  1  0  0  0  0
  5  6  2  0  0  0  0
  5  7  1  0  0  0  0
  7  8  1  0  0  0  0
  7  9  1  0  0  0  0
  9 10  1  0  0  0  0
  9 11  1  0  0  0  0
  9 18  1  0  0  0  0
 11 12  1  0  0  0  0
 11 13  1  0  0  0  0
 11 14  1  0  0  0  0
 14 15  2  0  0  0  0
 14 16  1  0  0  0  0
 16 17  1  0  0  0  0
 18 19  2  0  0  0  0
 18 20  1  0  0  0  0
 20 21  1  0  0  0  0
 20 22  1  0  0  0  0
 22 23  1  0  0  0  0
 22 24  1  0  0  0  0
 22 25  1  0  0  0  0
M  END
$$$$

  -OEChem-03222214023D

 25 24  0     1  0  0  0  0  0999 V2000
   -2.7261   -3.9531    0.4490 H   0  0  0  0  0  0  0  0  0  0  0  0
   -2.7615   -2.9076    0.1298 C   0  0  0  0  0  0  0  0  0  0  0  0
   -3.3461   -2.3373    0.8558 H   0  0  0  0  0  0  0  0  0  0  0  0
   -3.2513   -2.8532   -0.8455 H   0  0  0  0  0  0  0  0  0  0  0  0
   -1.3572   -2.3415    0.0360 C   0  0  0  0  0  0  0  0  0  0  0  0
   -0.3927   -3.0546    0.2627 O   0  0  0  0  0  0  0  0  0  0  0  0
   -1.1722   -1.0179   -0.3051 N   0  0  0  0  0  0  0  0  0  0  0  0
   -2.0046   -0.4326   -0.3731 H   0  0  0  0  0  0  0  0  0  0  0  0
    0.1209   -0.3210   -0.2691 C   0  0  1  0  0  0  0  0  0  0  0  0
    0.8408   -0.8858    0.3339 H   0  0  0  0  0  0  0  0  0  0  0  0
    0.6504   -0.2153   -1.7066 C   0  0  0  0  0  0  0  0  0  0  0  0
    0.7645   -1.2167   -2.1300 H   0  0  0  0  0  0  0  0  0  0  0  0
   -0.0655    0.3332   -2.3257 H   0  0  0  0  0  0  0  0  0  0  0  0
    1.9952    0.4957   -1.7629 C   0  0  0  0  0  0  0  0  0  0  0  0
    2.0178    1.7042   -1.9003 O   0  0  0  0  0  0  0  0  0  0  0  0
    3.1079   -0.2523   -1.6079 O   0  0  0  0  0  0  0  0  0  0  0  0
    3.8480    0.3693   -1.6884 H   0  0  0  0  0  0  0  0  0  0  0  0
   -0.0517    1.0628    0.3919 C   0  0  0  0  0  0  0  0  0  0  0  0
   -1.0604    1.7185    0.1567 O   0  0  0  0  0  0  0  0  0  0  0  0
    0.8513    1.5118    1.3376 N   0  0  0  0  0  0  0  0  0  0  0  0
    1.6888    0.9577    1.4908 H   0  0  0  0  0  0  0  0  0  0  0  0
    0.7553    2.8246    1.9638 C   0  0  0  0  0  0  0  0  0  0  0  0
   -0.2069    2.9381    2.4743 H   0  0  0  0  0  0  0  0  0  0  0  0
    1.5531    2.9513    2.7018 H   0  0  0  0  0  0  0  0  0  0  0  0
    0.8503    3.6137    1.2104 H   0  0  0  0  0  0  0  0  0  0  0  0
  1  2  1  0  0  0  0
  2  3  1  0  0  0  0
  2  4  1  0  0  0  0
  2  5  1  0  0  0  0
  5  6  2  0  0  0  0
  5  7  1  0  0  0  0
  7  8  1  0  0  0  0
  7  9  1  0  0  0  0
  9 10  1  0  0  0  0
  9 11  1  0  0  0  0
  9 18  1  0  0  0  0
 11 12  1  0  0  0  0
 11 13  1  0  0  0  0
 11 14  1  0  0  0  0
 14 15  2  0  0  0  0
 14 16  1  0  0  0  0
 16 17  1  0  0  0  0
 18 19  2  0  0  0  0
 18 20  1  0  0  0  0
 20 21  1  0  0  0  0
 20 22  1  0  0  0  0
 22 23  1  0  0  0  0
 22 24  1  0  0  0  0
 22 25  1  0  0  0  0
M  END
$$$$

  -OEChem-03222214023D

 25 24  0     1  0  0  0  0  0999 V2000
   -2.7267   -3.9444    0.4484 H   0  0  0  0  0  0  0  0  0  0  0  0
   -2.7607   -2.8978    0.1329 C   0  0  0  0  0  0  0  0  0  0  0  0
   -3.3364   -2.3275    0.8659 H   0  0  0  0  0  0  0  0  0  0  0  0
   -3.2591   -2.8382   -0.8375 H   0  0  0  0  0  0  0  0  0  0  0  0
   -1.3548   -2.3373    0.0287 C   0  0  0  0  0  0  0  0  0  0  0  0
   -0.3913   -3.0560    0.2422 O   0  0  0  0  0  0  0  0  0  0  0  0
   -1.1655   -1.0125   -0.3056 N   0  0  0  0  0  0  0  0  0  0  0  0
   -1.9953   -0.4214   -0.3599 H   0  0  0  0  0  0  0  0  0  0  0  0
    0.1309   -0.3211   -0.2618 C   0  0  1  0  0  0  0  0  0  0  0  0
    0.8479   -0.8883    0.3423 H   0  0  0  0  0  0  0  0  0  0  0  0
    0.6602   -0.2152   -1.7018 C   0  0  0  0  0  0  0  0  0  0  0  0
    0.7598   -1.2184   -2.1251 H   0  0  0  0  0  0  0  0  0  0  0  0
   -0.0548    0.3385   -2.3167 H   0  0  0  0  0  0  0  0  0  0  0  0
    2.0106    0.4855   -1.7863 C   0  0  0  0  0  0  0  0  0  0  0  0
    2.0646    1.6938   -1.6552 O   0  0  0  0  0  0  0  0  0  0  0  0
    3.1016   -0.2854   -1.9784 O   0  0  0  0  0  0  0  0  0  0  0  0
    3.8488    0.3312   -2.0214 H   0  0  0  0  0  0  0  0  0  0  0  0
   -0.0562    1.0579    0.4083 C   0  0  0  0  0  0  0  0  0  0  0  0
   -1.0739    1.7020    0.1768 O   0  0  0  0  0  0  0  0  0  0  0  0
    0.8345    1.5085    1.3651 N   0  0  0  0  0  0  0  0  0  0  0  0
    1.6986    0.9874    1.4803 H   0  0  0  0  0  0  0  0  0  0  0  0
    0.7302    2.8266    1.9787 C   0  0  0  0  0  0  0  0  0  0  0  0
   -0.2374    2.9429    2.4782 H   0  0  0  0  0  0  0  0  0  0  0  0
    1.5199    2.9609    2.7239 H   0  0  0  0  0  0  0  0  0  0  0  0
    0.8320    3.6093    1.2194 H   0  0  0  0  0  0  0  0  0  0  0  0
  1  2  1  0  0  0  0
  2  3  1  0  0  0  0
  2  4  1  0  0  0  0
  2  5  1  0  0  0  0
  5  6  2  0  0  0  0
  5  7  1  0  0  0  0
  7  8  1  0  0  0  0
  7  9  1  0  0  0  0
  9 10  1  0  0  0  0
  9 11  1  0  0  0  0
  9 18  1  0  0  0  0
 11 12  1  0  0  0  0
 11 13  1  0  0  0  0
 11 14  1  0  0  0  0
 14 15  2  0  0  0  0
 14 16  1  0  0  0  0
 16 17  1  0  0  0  0
 18 19  2  0  0  0  0
 18 20  1  0  0  0  0
 20 21  1  0  0  0  0
 20 22  1  0  0  0  0
 22 23  1  0  0  0  0
 22 24  1  0  0  0  0
 22 25  1  0  0  0  0
M  END
$$$$

  -OEChem-03222214023D

 25 24  0     1  0  0  0  0  0999 V2000
   -2.7258   -3.9335    0.4372 H   0  0  0  0  0  0  0  0  0  0  0  0
   -2.7564   -2.8836    0.1330 C   0  0  0  0  0  0  0  0  0  0  0  0
   -3.3269   -2.3185    0.8741 H   0  0  0  0  0  0  0  0  0  0  0  0
   -3.2573   -2.8113   -0.8354 H   0  0  0  0  0  0  0  0  0  0  0  0
   -1.3485   -2.3285    0.0293 C   0  0  0  0  0  0  0  0  0  0  0  0
   -0.3875   -3.0523    0.2366 O   0  0  0  0  0  0  0  0  0  0  0  0
   -1.1544   -1.0038   -0.3024 N   0  0  0  0  0  0  0  0  0  0  0  0
   -1.9812   -0.4075   -0.3456 H   0  0  0  0  0  0  0  0  0  0  0  0
    0.1449   -0.3183   -0.2531 C   0  0  1  0  0  0  0  0  0  0  0  0
    0.8598   -0.8845    0.3540 H   0  0  0  0  0  0  0  0  0  0  0  0
    0.6717   -0.2195   -1.6971 C   0  0  0  0  0  0  0  0  0  0  0  0
    0.7563   -1.2271   -2.1134 H   0  0  0  0  0  0  0  0  0  0  0  0
   -0.0451    0.3340   -2.3095 H   0  0  0  0  0  0  0  0  0  0  0  0
    2.0277    0.4692   -1.8205 C   0  0  0  0  0  0  0  0  0  0  0  0
    2.1605    1.6187   -1.4440 O   0  0  0  0  0  0  0  0  0  0  0  0
    3.0390   -0.2536   -2.3463 O   0  0  0  0  0  0  0  0  0  0  0  0
    3.8028    0.3434   -2.3591 H   0  0  0  0  0  0  0  0  0  0  0  0
   -0.0577    1.0577    0.4219 C   0  0  0  0  0  0  0  0  0  0  0  0
   -1.0832    1.6908    0.1909 O   0  0  0  0  0  0  0  0  0  0  0  0
    0.8209    1.5117    1.3884 N   0  0  0  0  0  0  0  0  0  0  0  0
    1.7107    1.0277    1.4638 H   0  0  0  0  0  0  0  0  0  0  0  0
    0.6965    2.8264    2.0056 C   0  0  0  0  0  0  0  0  0  0  0  0
   -0.2788    2.9327    2.4921 H   0  0  0  0  0  0  0  0  0  0  0  0
    1.4742    2.9639    2.7627 H   0  0  0  0  0  0  0  0  0  0  0  0
    0.8023    3.6130    1.2511 H   0  0  0  0  0  0  0  0  0  0  0  0
  1  2  1  0  0  0  0
  2  3  1  0  0  0  0
  2  4  1  0  0  0  0
  2  5  1  0  0  0  0
  5  6  2  0  0  0  0
  5  7  1  0  0  0  0
  7  8  1  0  0  0  0
  7  9  1  0  0  0  0
  9 10  1  0  0  0  0
  9 11  1  0  0  0  0
  9 18  1  0  0  0  0
 11 12  1  0  0  0  0
 11 13  1  0  0  0  0
 11 14  1  0  0  0  0
 14 15  2  0  0  0  0
 14 16  1  0  0  0  0
 16 17  1  0  0  0  0
 18 19  2  0  0  0  0
 18 20  1  0  0  0  0
 20 21  1  0  0  0  0
 20 22  1  0  0  0  0
 22 23  1  0  0  0  0
 22 24  1  0  0  0  0
 22 25  1  0  0  0  0
M  END
$$$$

  -OEChem-03222214023D

 25 24  0     1  0  0  0  0  0999 V2000
   -2.7280   -3.9200    0.4410 H   0  0  0  0  0  0  0  0  0  0  0  0
   -2.7540   -2.8704    0.1345 C   0  0  0  0  0  0  0  0  0  0  0  0
   -3.3200   -2.3008    0.8757 H   0  0  0  0  0  0  0  0  0  0  0  0
   -3.2571   -2.7977   -0.8328 H   0  0  0  0  0  0  0  0  0  0  0  0
   -1.3435   -2.3224    0.0268 C   0  0  0  0  0  0  0  0  0  0  0  0
   -0.3853   -3.0515    0.2291 O   0  0  0  0  0  0  0  0  0  0  0  0
   -1.1435   -0.9980   -0.3021 N   0  0  0  0  0  0  0  0  0  0  0  0
   -1.9673   -0.3966   -0.3349 H   0  0  0  0  0  0  0  0  0  0  0  0
    0.1592   -0.3189   -0.2454 C   0  0  1  0  0  0  0  0  0  0  0  0
    0.8725   -0.8861    0.3625 H   0  0  0  0  0  0  0  0  0  0  0  0
    0.6839   -0.2195   -1.6921 C   0  0  0  0  0  0  0  0  0  0  0  0
    0.7605   -1.2299   -2.1036 H   0  0  0  0  0  0  0  0  0  0  0  0
   -0.0361    0.3333   -2.3013 H   0  0  0  0  0  0  0  0  0  0  0  0
    2.0443    0.4578   -1.8467 C   0  0  0  0  0  0  0  0  0  0  0  0
    2.2907    1.4900   -1.2508 O   0  0  0  0  0  0  0  0  0  0  0  0
    2.9280   -0.1404   -2.6735 O   0  0  0  0  0  0  0  0  0  0  0  0
    3.7146    0.4264   -2.6645 H   0  0  0  0  0  0  0  0  0  0  0  0
   -0.0565    1.0547    0.4331 C   0  0  0  0  0  0  0  0  0  0  0  0
   -1.0837    1.6830    0.1948 O   0  0  0  0  0  0  0  0  0  0  0  0
    0.8091    1.5116    1.4097 N   0  0  0  0  0  0  0  0  0  0  0  0
    1.7174    1.0586    1.4554 H   0  0  0  0  0  0  0  0  0  0  0  0
    0.6662    2.8236    2.0287 C   0  0  0  0  0  0  0  0  0  0  0  0
   -0.3178    2.9225    2.4993 H   0  0  0  0  0  0  0  0  0  0  0  0
    1.4300    2.9628    2.7995 H   0  0  0  0  0  0  0  0  0  0  0  0
    0.7798    3.6137    1.2789 H   0  0  0  0  0  0  0  0  0  0  0  0
  1  2  1  0  0  0  0
  2  3  1  0  0  0  0
  2  4  1  0  0  0  0
  2  5  1  0  0  0  0
  5  6  2  0  0  0  0
  5  7  1  0  0  0  0
  7  8  1  0  0  0  0
  7  9  1  0  0  0  0
  9 10  1  0  0  0  0
  9 11  1  0  0  0  0
  9 18  1  0  0  0  0
 11 12  1  0  0  0  0
 11 13  1  0  0  0  0
 11 14  1  0  0  0  0
 14 15  2  0  0  0  0
 14 16  1  0  0  0  0
 16 17  1  0  0  0  0
 18 19  2  0  0  0  0
 18 20  1  0  0  0  0
 20 21  1  0  0  0  0
 20 22  1  0  0  0  0
 22 23  1  0  0  0  0
 22 24  1  0  0  0  0
 22 25  1  0  0  0  0
M  END
$$$$

  -OEChem-03222214023D

 25 24  0     1  0  0  0  0  0999 V2000
   -2.7319   -3.9159    0.4414 H   0  0  0  0  0  0  0  0  0  0  0  0
   -2.7543   -2.8669    0.1328 C   0  0  0  0  0  0  0  0  0  0  0  0
   -3.3230   -2.2952    0.8701 H   0  0  0  0  0  0  0  0  0  0  0  0
   -3.2524   -2.7949   -0.8371 H   0  0  0  0  0  0  0  0  0  0  0  0
   -1.3425   -2.3215    0.0301 C   0  0  0  0  0  0  0  0  0  0  0  0
   -0.3861   -3.0538    0.2291 O   0  0  0  0  0  0  0  0  0  0  0  0
   -1.1388   -0.9979   -0.2988 N   0  0  0  0  0  0  0  0  0  0  0  0
   -1.9607   -0.3938   -0.3282 H   0  0  0  0  0  0  0  0  0  0  0  0
    0.1658   -0.3222   -0.2398 C   0  0  1  0  0  0  0  0  0  0  0  0
    0.8795   -0.8899    0.3675 H   0  0  0  0  0  0  0  0  0  0  0  0
    0.6876   -0.2171   -1.6877 C   0  0  0  0  0  0  0  0  0  0  0  0
    0.7598   -1.2264   -2.1022 H   0  0  0  0  0  0  0  0  0  0  0  0
   -0.0347    0.3380   -2.2918 H   0  0  0  0  0  0  0  0  0  0  0  0
    2.0494    0.4550   -1.8581 C   0  0  0  0  0  0  0  0  0  0  0  0
    2.4211    1.3165   -1.0819 O   0  0  0  0  0  0  0  0  0  0  0  0
    2.7872    0.0525   -2.9143 O   0  0  0  0  0  0  0  0  0  0  0  0
    3.5969    0.5847   -2.8810 H   0  0  0  0  0  0  0  0  0  0  0  0
   -0.0544    1.0514    0.4389 C   0  0  0  0  0  0  0  0  0  0  0  0
   -1.0797    1.6800    0.1928 O   0  0  0  0  0  0  0  0  0  0  0  0
    0.8055    1.5107    1.4190 N   0  0  0  0  0  0  0  0  0  0  0  0
    1.7248    1.0767    1.4411 H   0  0  0  0  0  0  0  0  0  0  0  0
    0.6560    2.8224    2.0372 C   0  0  0  0  0  0  0  0  0  0  0  0
   -0.3325    2.9204    2.4983 H   0  0  0  0  0  0  0  0  0  0  0  0
    1.4124    2.9613    2.8156 H   0  0  0  0  0  0  0  0  0  0  0  0
    0.7760    3.6131    1.2891 H   0  0  0  0  0  0  0  0  0  0  0  0
  1  2  1  0  0  0  0
  2  3  1  0  0  0  0
  2  4  1  0  0  0  0
  2  5  1  0  0  0  0
  5  6  2  0  0  0  0
  5  7  1  0  0  0  0
  7  8  1  0  0  0  0
  7  9  1  0  0  0  0
  9 10  1  0  0  0  0
  9 11  1  0  0  0  0
  9 18  1  0  0  0  0
 11 12  1  0  0  0  0
 11 13  1  0  0  0  0
 11 14  1  0  0  0  0
 14 15  2  0  0  0  0
 14 16  1  0  0  0  0
 16 17  1  0  0  0  0
 18 19  2  0  0  0  0
 18 20  1  0  0  0  0
 20 21  1  0  0  0  0
 20 22  1  0  0  0  0
 22 23  1  0  0  0  0
 22 24  1  0  0  0  0
 22 25  1  0  0  0  0
M  END
$$$$

  -OEChem-03222214023D

 25 24  0     1  0  0  0  0  0999 V2000
   -2.7316   -3.9174    0.4509 H   0  0  0  0  0  0  0  0  0  0  0  0
   -2.7564   -2.8689    0.1412 C   0  0  0  0  0  0  0  0  0  0  0  0
   -3.3197   -2.2962    0.8821 H   0  0  0  0  0  0  0  0  0  0  0  0
   -3.2614   -2.7980   -0.8251 H   0  0  0  0  0  0  0  0  0  0  0  0
   -1.3450   -2.3244    0.0283 C   0  0  0  0  0  0  0  0  0  0  0  0
   -0.3882   -3.0574    0.2231 O   0  0  0  0  0  0  0  0  0  0  0  0
   -1.1426   -1.0009   -0.3024 N   0  0  0  0  0  0  0  0  0  0  0  0
   -1.9649   -0.3975   -0.3317 H   0  0  0  0  0  0  0  0  0  0  0  0
    0.1619   -0.3250   -0.2445 C   0  0  1  0  0  0  0  0  0  0  0  0
    0.8766   -0.8931    0.3617 H   0  0  0  0  0  0  0  0  0  0  0  0
    0.6845   -0.2117   -1.6908 C   0  0  0  0  0  0  0  0  0  0  0  0
    0.7599   -1.2178   -2.1121 H   0  0  0  0  0  0  0  0  0  0  0  0
   -0.0382    0.3465   -2.2915 H   0  0  0  0  0  0  0  0  0  0  0  0
    2.0459    0.4625   -1.8561 C   0  0  0  0  0  0  0  0  0  0  0  0
    2.5366    1.1100   -0.9476 O   0  0  0  0  0  0  0  0  0  0  0  0
    2.6464    0.3081   -3.0550 O   0  0  0  0  0  0  0  0  0  0  0  0
    3.4786    0.8015   -2.9920 H   0  0  0  0  0  0  0  0  0  0  0  0
   -0.0543    1.0502    0.4322 C   0  0  0  0  0  0  0  0  0  0  0  0
   -1.0749    1.6843    0.1810 O   0  0  0  0  0  0  0  0  0  0  0  0
    0.8079    1.5087    1.4101 N   0  0  0  0  0  0  0  0  0  0  0  0
    1.7307    1.0797    1.4181 H   0  0  0  0  0  0  0  0  0  0  0  0
    0.6591    2.8175    2.0341 C   0  0  0  0  0  0  0  0  0  0  0  0
   -0.3283    2.9126    2.4980 H   0  0  0  0  0  0  0  0  0  0  0  0
    1.4171    2.9531    2.8116 H   0  0  0  0  0  0  0  0  0  0  0  0
    0.7770    3.6119    1.2897 H   0  0  0  0  0  0  0  0  0  0  0  0
  1  2  1  0  0  0  0
  2  3  1  0  0  0  0
  2  4  1  0  0  0  0
  2  5  1  0  0  0  0
  5  6  2  0  0  0  0
  5  7  1  0  0  0  0
  7  8  1  0  0  0  0
  7  9  1  0  0  0  0
  9 10  1  0  0  0  0
  9 11  1  0  0  0  0
  9 18  1  0  0  0  0
 11 12  1  0  0  0  0
 11 13  1  0  0  0  0
 11 14  1  0  0  0  0
 14 15  2  0  0  0  0
 14 16  1  0  0  0  0
 16 17  1  0  0  0  0
 18 19  2  0  0  0  0
 18 20  1  0  0  0  0
 20 21  1  0  0  0  0
 20 22  1  0  0  0  0
 22 23  1  0  0  0  0
 22 24  1  0  0  0  0
 22 25  1  0  0  0  0
M  END
$$$$

  -OEChem-03222214023D

 25 24  0     1  0  0  0  0  0999 V2000
   -2.7293   -3.9306    0.4642 H   0  0  0  0  0  0  0  0  0  0  0  0
   -2.7593   -2.8839    0.1489 C   0  0  0  0  0  0  0  0  0  0  0  0
   -3.3211   -2.3091    0.8891 H   0  0  0  0  0  0  0  0  0  0  0  0
   -3.2690   -2.8200   -0.8154 H   0  0  0  0  0  0  0  0  0  0  0  0
   -1.3503   -2.3351    0.0264 C   0  0  0  0  0  0  0  0  0  0  0  0
   -0.3900   -3.0653    0.2132 O   0  0  0  0  0  0  0  0  0  0  0  0
   -1.1555   -1.0103   -0.3045 N   0  0  0  0  0  0  0  0  0  0  0  0
   -1.9817   -0.4128   -0.3349 H   0  0  0  0  0  0  0  0  0  0  0  0
    0.1451   -0.3265   -0.2519 C   0  0  1  0  0  0  0  0  0  0  0  0
    0.8618   -0.8949    0.3517 H   0  0  0  0  0  0  0  0  0  0  0  0
    0.6721   -0.2031   -1.6945 C   0  0  0  0  0  0  0  0  0  0  0  0
    0.7585   -1.2039   -2.1254 H   0  0  0  0  0  0  0  0  0  0  0  0
   -0.0511    0.3569   -2.2933 H   0  0  0  0  0  0  0  0  0  0  0  0
    2.0293    0.4843   -1.8364 C   0  0  0  0  0  0  0  0  0  0  0  0
    2.6231    0.8913   -0.8516 O   0  0  0  0  0  0  0  0  0  0  0  0
    2.5115    0.6103   -3.0907 O   0  0  0  0  0  0  0  0  0  0  0  0
    3.3627    1.0648   -2.9960 H   0  0  0  0  0  0  0  0  0  0  0  0
   -0.0595    1.0498    0.4235 C   0  0  0  0  0  0  0  0  0  0  0  0
   -1.0734    1.6935    0.1722 O   0  0  0  0  0  0  0  0  0  0  0  0
    0.8143    1.5049    1.3922 N   0  0  0  0  0  0  0  0  0  0  0  0
    1.7324    1.0638    1.3958 H   0  0  0  0  0  0  0  0  0  0  0  0
    0.6842    2.8174    2.0124 C   0  0  0  0  0  0  0  0  0  0  0  0
   -0.2980    2.9240    2.4849 H   0  0  0  0  0  0  0  0  0  0  0  0
    1.4507    2.9482    2.7823 H   0  0  0  0  0  0  0  0  0  0  0  0
    0.8030    3.6078    1.2639 H   0  0  0  0  0  0  0  0  0  0  0  0
  1  2  1  0  0  0  0
  2  3  1  0  0  0  0
  2  4  1  0  0  0  0
  2  5  1  0  0  0  0
  5  6  2  0  0  0  0
  5  7  1  0  0  0  0
  7  8  1  0  0  0  0
  7  9  1  0  0  0  0
  9 10  1  0  0  0  0
  9 11  1  0  0  0  0
  9 18  1  0  0  0  0
 11 12  1  0  0  0  0
 11 13  1  0  0  0  0
 11 14  1  0  0  0  0
 14 15  2  0  0  0  0
 14 16  1  0  0  0  0
 16 17  1  0  0  0  0
 18 19  2  0  0  0  0
 18 20  1  0  0  0  0
 20 21  1  0  0  0  0
 20 22  1  0  0  0  0
 22 23  1  0  0  0  0
 22 24  1  0  0  0  0
 22 25  1  0  0  0  0
M  END
$$$$

  -OEChem-03222214023D

 25 24  0     1  0  0  0  0  0999 V2000
   -2.7180   -3.9570    0.4629 H   0  0  0  0  0  0  0  0  0  0  0  0
   -2.7588   -2.9107    0.1474 C   0  0  0  0  0  0  0  0  0  0  0  0
   -3.3296   -2.3424    0.8859 H   0  0  0  0  0  0  0  0  0  0  0  0
   -3.2664   -2.8533   -0.8183 H   0  0  0  0  0  0  0  0  0  0  0  0
   -1.3559   -2.3457    0.0288 C   0  0  0  0  0  0  0  0  0  0  0  0
   -0.3889   -3.0662    0.2183 O   0  0  0  0  0  0  0  0  0  0  0  0
   -1.1745   -1.0191   -0.3036 N   0  0  0  0  0  0  0  0  0  0  0  0
   -2.0069   -0.4309   -0.3400 H   0  0  0  0  0  0  0  0  0  0  0  0
    0.1195   -0.3226   -0.2578 C   0  0  1  0  0  0  0  0  0  0  0  0
    0.8376   -0.8901    0.3454 H   0  0  0  0  0  0  0  0  0  0  0  0
    0.6525   -0.1954   -1.6965 C   0  0  0  0  0  0  0  0  0  0  0  0
    0.7556   -1.1928   -2.1309 H   0  0  0  0  0  0  0  0  0  0  0  0
   -0.0713    0.3599   -2.2994 H   0  0  0  0  0  0  0  0  0  0  0  0
    2.0024    0.5106   -1.8062 C   0  0  0  0  0  0  0  0  0  0  0  0
    2.6891    0.6716   -0.8099 O   0  0  0  0  0  0  0  0  0  0  0  0
    2.3769    0.9245   -3.0348 O   0  0  0  0  0  0  0  0  0  0  0  0
    3.2445    1.3405   -2.9147 H   0  0  0  0  0  0  0  0  0  0  0  0
   -0.0665    1.0559    0.4137 C   0  0  0  0  0  0  0  0  0  0  0  0
   -1.0699    1.7140    0.1602 O   0  0  0  0  0  0  0  0  0  0  0  0
    0.8247    1.5058    1.3686 N   0  0  0  0  0  0  0  0  0  0  0  0
    1.7270    1.0328    1.3900 H   0  0  0  0  0  0  0  0  0  0  0  0
    0.7237    2.8239    1.9822 C   0  0  0  0  0  0  0  0  0  0  0  0
   -0.2491    2.9474    2.4698 H   0  0  0  0  0  0  0  0  0  0  0  0
    1.5043    2.9487    2.7387 H   0  0  0  0  0  0  0  0  0  0  0  0
    0.8417    3.6080    1.2269 H   0  0  0  0  0  0  0  0  0  0  0  0
  1  2  1  0  0  0  0
  2  3  1  0  0  0  0
  2  4  1  0  0  0  0
  2  5  1  0  0  0  0
  5  6  2  0  0  0  0
  5  7  1  0  0  0  0
  7  8  1  0  0  0  0
  7  9  1  0  0  0  0
  9 10  1  0  0  0  0
  9 11  1  0  0  0  0
  9 18  1  0  0  0  0
 11 12  1  0  0  0  0
 11 13  1  0  0  0  0
 11 14  1  0  0  0  0
 14 15  2  0  0  0  0
 14 16  1  0  0  0  0
 16 17  1  0  0  0  0
 18 19  2  0  0  0  0
 18 20  1  0  0  0  0
 20 21  1  0  0  0  0
 20 22  1  0  0  0  0
 22 23  1  0  0  0  0
 22 24  1  0  0  0  0
 22 25  1  0  0  0  0
M  END
$$$$

  -OEChem-03222214023D

 25 24  0     1  0  0  0  0  0999 V2000
   -2.7040   -3.9792    0.4643 H   0  0  0  0  0  0  0  0  0  0  0  0
   -2.7553   -2.9346    0.1448 C   0  0  0  0  0  0  0  0  0  0  0  0
   -3.3367   -2.3706    0.8782 H   0  0  0  0  0  0  0  0  0  0  0  0
   -3.2583   -2.8864   -0.8240 H   0  0  0  0  0  0  0  0  0  0  0  0
   -1.3585   -2.3534    0.0319 C   0  0  0  0  0  0  0  0  0  0  0  0
   -0.3846   -3.0629    0.2270 O   0  0  0  0  0  0  0  0  0  0  0  0
   -1.1918   -1.0253   -0.3030 N   0  0  0  0  0  0  0  0  0  0  0  0
   -2.0318   -0.4495   -0.3504 H   0  0  0  0  0  0  0  0  0  0  0  0
    0.0938   -0.3133   -0.2656 C   0  0  1  0  0  0  0  0  0  0  0  0
    0.8126   -0.8772    0.3401 H   0  0  0  0  0  0  0  0  0  0  0  0
    0.6356   -0.1924   -1.6995 C   0  0  0  0  0  0  0  0  0  0  0  0
    0.7608   -1.1895   -2.1286 H   0  0  0  0  0  0  0  0  0  0  0  0
   -0.0874    0.3508   -2.3144 H   0  0  0  0  0  0  0  0  0  0  0  0
    1.9753    0.5348   -1.7744 C   0  0  0  0  0  0  0  0  0  0  0  0
    2.7474    0.4657   -0.8316 O   0  0  0  0  0  0  0  0  0  0  0  0
    2.2477    1.2196   -2.9051 O   0  0  0  0  0  0  0  0  0  0  0  0
    3.1287    1.6014   -2.7711 H   0  0  0  0  0  0  0  0  0  0  0  0
   -0.0746    1.0680    0.3998 C   0  0  0  0  0  0  0  0  0  0  0  0
   -1.0694    1.7388    0.1489 O   0  0  0  0  0  0  0  0  0  0  0  0
    0.8363    1.5114    1.3388 N   0  0  0  0  0  0  0  0  0  0  0  0
    1.7185    1.0036    1.3853 H   0  0  0  0  0  0  0  0  0  0  0  0
    0.7596    2.8285    1.9578 C   0  0  0  0  0  0  0  0  0  0  0  0
   -0.2042    2.9617    2.4603 H   0  0  0  0  0  0  0  0  0  0  0  0
    1.5533    2.9423    2.7025 H   0  0  0  0  0  0  0  0  0  0  0  0
    0.8751    3.6133    1.2031 H   0  0  0  0  0  0  0  0  0  0  0  0
  1  2  1  0  0  0  0
  2  3  1  0  0  0  0
  2  4  1  0  0  0  0
  2  5  1  0  0  0  0
  5  6  2  0  0  0  0
  5  7  1  0  0  0  0
  7  8  1  0  0  0  0
  7  9  1  0  0  0  0
  9 10  1  0  0  0  0
  9 11  1  0  0  0  0
  9 18  1  0  0  0  0
 11 12  1  0  0  0  0
 11 13  1  0  0  0  0
 11 14  1  0  0  0  0
 14 15  2  0  0  0  0
 14 16  1  0  0  0  0
 16 17  1  0  0  0  0
 18 19  2  0  0  0  0
 18 20  1  0  0  0  0
 20 21  1  0  0  0  0
 20 22  1  0  0  0  0
 22 23  1  0  0  0  0
 22 24  1  0  0  0  0
 22 25  1  0  0  0  0
M  END
$$$$

  -OEChem-03222214023D

 25 24  0     1  0  0  0  0  0999 V2000
   -2.6928   -3.9893    0.4664 H   0  0  0  0  0  0  0  0  0  0  0  0
   -2.7507   -2.9456    0.1450 C   0  0  0  0  0  0  0  0  0  0  0  0
   -3.3365   -2.3837    0.8766 H   0  0  0  0  0  0  0  0  0  0  0  0
   -3.2529   -2.9025   -0.8245 H   0  0  0  0  0  0  0  0  0  0  0  0
   -1.3575   -2.3558    0.0334 C   0  0  0  0  0  0  0  0  0  0  0  0
   -0.3796   -3.0576    0.2353 O   0  0  0  0  0  0  0  0  0  0  0  0
   -1.1997   -1.0277   -0.3052 N   0  0  0  0  0  0  0  0  0  0  0  0
   -2.0444   -0.4601   -0.3656 H   0  0  0  0  0  0  0  0  0  0  0  0
    0.0803   -0.3053   -0.2748 C   0  0  1  0  0  0  0  0  0  0  0  0
    0.8005   -0.8657    0.3329 H   0  0  0  0  0  0  0  0  0  0  0  0
    0.6264   -0.1937   -1.7062 C   0  0  0  0  0  0  0  0  0  0  0  0
    0.7678   -1.1921   -2.1275 H   0  0  0  0  0  0  0  0  0  0  0  0
   -0.0954    0.3387   -2.3316 H   0  0  0  0  0  0  0  0  0  0  0  0
    1.9573    0.5479   -1.7534 C   0  0  0  0  0  0  0  0  0  0  0  0
    2.8145    0.2707   -0.9314 O   0  0  0  0  0  0  0  0  0  0  0  0
    2.1261    1.4790   -2.7158 O   0  0  0  0  0  0  0  0  0  0  0  0
    3.0213    1.8275   -2.5860 H   0  0  0  0  0  0  0  0  0  0  0  0
   -0.0767    1.0788    0.3840 C   0  0  0  0  0  0  0  0  0  0  0  0
   -1.0663    1.7570    0.1349 O   0  0  0  0  0  0  0  0  0  0  0  0
    0.8469    1.5200    1.3119 N   0  0  0  0  0  0  0  0  0  0  0  0
    1.7041    0.9772    1.4019 H   0  0  0  0  0  0  0  0  0  0  0  0
    0.7776    2.8308    1.9451 C   0  0  0  0  0  0  0  0  0  0  0  0
   -0.1780    2.9568    2.4652 H   0  0  0  0  0  0  0  0  0  0  0  0
    1.5834    2.9391    2.6776 H   0  0  0  0  0  0  0  0  0  0  0  0
    0.8789    3.6233    1.1963 H   0  0  0  0  0  0  0  0  0  0  0  0
  1  2  1  0  0  0  0
  2  3  1  0  0  0  0
  2  4  1  0  0  0  0
  2  5  1  0  0  0  0
  5  6  2  0  0  0  0
  5  7  1  0  0  0  0
  7  8  1  0  0  0  0
  7  9  1  0  0  0  0
  9 10  1  0  0  0  0
  9 11  1  0  0  0  0
  9 18  1  0  0  0  0
 11 12  1  0  0  0  0
 11 13  1  0  0  0  0
 11 14  1  0  0  0  0
 14 15  2  0  0  0  0
 14 16  1  0  0  0  0
 16 17  1  0  0  0  0
 18 19  2  0  0  0  0
 18 20  1  0  0  0  0
 20 21  1  0  0  0  0
 20 22  1  0  0  0  0
 22 23  1  0  0  0  0
 22 24  1  0  0  0  0
 22 25  1  0  0  0  0
M  END
$$$$

  -OEChem-03222214023D

 25 24  0     1  0  0  0  0  0999 V2000
   -2.6885   -3.9885    0.4649 H   0  0  0  0  0  0  0  0  0  0  0  0
   -2.7466   -2.9444    0.1445 C   0  0  0  0  0  0  0  0  0  0  0  0
   -3.3357   -2.3845    0.8749 H   0  0  0  0  0  0  0  0  0  0  0  0
   -3.2454   -2.9007   -0.8266 H   0  0  0  0  0  0  0  0  0  0  0  0
   -1.3537   -2.3527    0.0380 C   0  0  0  0  0  0  0  0  0  0  0  0
   -0.3760   -3.0510    0.2522 O   0  0  0  0  0  0  0  0  0  0  0  0
   -1.1961   -1.0256   -0.3048 N   0  0  0  0  0  0  0  0  0  0  0  0
   -2.0412   -0.4597   -0.3746 H   0  0  0  0  0  0  0  0  0  0  0  0
    0.0833   -0.3023   -0.2807 C   0  0  1  0  0  0  0  0  0  0  0  0
    0.8086   -0.8597    0.3238 H   0  0  0  0  0  0  0  0  0  0  0  0
    0.6224   -0.1945   -1.7139 C   0  0  0  0  0  0  0  0  0  0  0  0
    0.7666   -1.1935   -2.1334 H   0  0  0  0  0  0  0  0  0  0  0  0
   -0.0994    0.3359   -2.3412 H   0  0  0  0  0  0  0  0  0  0  0  0
    1.9505    0.5495   -1.7496 C   0  0  0  0  0  0  0  0  0  0  0  0
    2.8888    0.0937   -1.1203 O   0  0  0  0  0  0  0  0  0  0  0  0
    2.0247    1.6845   -2.4759 O   0  0  0  0  0  0  0  0  0  0  0  0
    2.9365    1.9982   -2.3760 H   0  0  0  0  0  0  0  0  0  0  0  0
   -0.0728    1.0831    0.3743 C   0  0  0  0  0  0  0  0  0  0  0  0
   -1.0617    1.7616    0.1248 O   0  0  0  0  0  0  0  0  0  0  0  0
    0.8537    1.5276    1.2984 N   0  0  0  0  0  0  0  0  0  0  0  0
    1.6862    0.9584    1.4375 H   0  0  0  0  0  0  0  0  0  0  0  0
    0.7756    2.8319    1.9441 C   0  0  0  0  0  0  0  0  0  0  0  0
   -0.1745    2.9397    2.4780 H   0  0  0  0  0  0  0  0  0  0  0  0
    1.5906    2.9454    2.6655 H   0  0  0  0  0  0  0  0  0  0  0  0
    0.8554    3.6321    1.2008 H   0  0  0  0  0  0  0  0  0  0  0  0
  1  2  1  0  0  0  0
  2  3  1  0  0  0  0
  2  4  1  0  0  0  0
  2  5  1  0  0  0  0
  5  6  2  0  0  0  0
  5  7  1  0  0  0  0
  7  8  1  0  0  0  0
  7  9  1  0  0  0  0
  9 10  1  0  0  0  0
  9 11  1  0  0  0  0
  9 18  1  0  0  0  0
 11 12  1  0  0  0  0
 11 13  1  0  0  0  0
 11 14  1  0  0  0  0
 14 15  2  0  0  0  0
 14 16  1  0  0  0  0
 16 17  1  0  0  0  0
 18 19  2  0  0  0  0
 18 20  1  0  0  0  0
 20 21  1  0  0  0  0
 20 22  1  0  0  0  0
 22 23  1  0  0  0  0
 22 24  1  0  0  0  0
 22 25  1  0  0  0  0
M  END
$$$$

  -OEChem-03222214023D

 25 24  0     1  0  0  0  0  0999 V2000
   -2.6871   -3.9831    0.4582 H   0  0  0  0  0  0  0  0  0  0  0  0
   -2.7426   -2.9382    0.1401 C   0  0  0  0  0  0  0  0  0  0  0  0
   -3.3369   -2.3804    0.8679 H   0  0  0  0  0  0  0  0  0  0  0  0
   -3.2346   -2.8923   -0.8343 H   0  0  0  0  0  0  0  0  0  0  0  0
   -1.3490   -2.3463    0.0450 C   0  0  0  0  0  0  0  0  0  0  0  0
   -0.3734   -3.0424    0.2748 O   0  0  0  0  0  0  0  0  0  0  0  0
   -1.1873   -1.0205   -0.3008 N   0  0  0  0  0  0  0  0  0  0  0  0
   -2.0307   -0.4540   -0.3845 H   0  0  0  0  0  0  0  0  0  0  0  0
    0.0943   -0.3009   -0.2799 C   0  0  1  0  0  0  0  0  0  0  0  0
    0.8241   -0.8574    0.3199 H   0  0  0  0  0  0  0  0  0  0  0  0
    0.6213   -0.1948   -1.7173 C   0  0  0  0  0  0  0  0  0  0  0  0
    0.7571   -1.1949   -2.1380 H   0  0  0  0  0  0  0  0  0  0  0  0
   -0.1014    0.3396   -2.3400 H   0  0  0  0  0  0  0  0  0  0  0  0
    1.9508    0.5441   -1.7597 C   0  0  0  0  0  0  0  0  0  0  0  0
    2.9491   -0.0403   -1.3809 O   0  0  0  0  0  0  0  0  0  0  0  0
    1.9597    1.8177   -2.2061 O   0  0  0  0  0  0  0  0  0  0  0  0
    2.8853    2.1024   -2.1635 H   0  0  0  0  0  0  0  0  0  0  0  0
   -0.0657    1.0855    0.3740 C   0  0  0  0  0  0  0  0  0  0  0  0
   -1.0576    1.7599    0.1242 O   0  0  0  0  0  0  0  0  0  0  0  0
    0.8573    1.5354    1.2994 N   0  0  0  0  0  0  0  0  0  0  0  0
    1.6715    0.9519    1.4767 H   0  0  0  0  0  0  0  0  0  0  0  0
    0.7625    2.8333    1.9558 C   0  0  0  0  0  0  0  0  0  0  0  0
   -0.1878    2.9240    2.4925 H   0  0  0  0  0  0  0  0  0  0  0  0
    1.5773    2.9532    2.6763 H   0  0  0  0  0  0  0  0  0  0  0  0
    0.8295    3.6403    1.2188 H   0  0  0  0  0  0  0  0  0  0  0  0
  1  2  1  0  0  0  0
  2  3  1  0  0  0  0
  2  4  1  0  0  0  0
  2  5  1  0  0  0  0
  5  6  2  0  0  0  0
  5  7  1  0  0  0  0
  7  8  1  0  0  0  0
  7  9  1  0  0  0  0
  9 10  1  0  0  0  0
  9 11  1  0  0  0  0
  9 18  1  0  0  0  0
 11 12  1  0  0  0  0
 11 13  1  0  0  0  0
 11 14  1  0  0  0  0
 14 15  2  0  0  0  0
 14 16  1  0  0  0  0
 16 17  1  0  0  0  0
 18 19  2  0  0  0  0
 18 20  1  0  0  0  0
 20 21  1  0  0  0  0
 20 22  1  0  0  0  0
 22 23  1  0  0  0  0
 22 24  1  0  0  0  0
 22 25  1  0  0  0  0
M  END
$$$$

  -OEChem-03222214023D

 25 24  0     1  0  0  0  0  0999 V2000
   -2.6882   -3.9748    0.4443 H   0  0  0  0  0  0  0  0  0  0  0  0
   -2.7407   -2.9267    0.1365 C   0  0  0  0  0  0  0  0  0  0  0  0
   -3.3319   -2.3737    0.8704 H   0  0  0  0  0  0  0  0  0  0  0  0
   -3.2337   -2.8694   -0.8370 H   0  0  0  0  0  0  0  0  0  0  0  0
   -1.3451   -2.3392    0.0450 C   0  0  0  0  0  0  0  0  0  0  0  0
   -0.3717   -3.0374    0.2781 O   0  0  0  0  0  0  0  0  0  0  0  0
   -1.1790   -1.0138   -0.3000 N   0  0  0  0  0  0  0  0  0  0  0  0
   -2.0204   -0.4430   -0.3760 H   0  0  0  0  0  0  0  0  0  0  0  0
    0.1051   -0.2988   -0.2754 C   0  0  1  0  0  0  0  0  0  0  0  0
    0.8342   -0.8558    0.3242 H   0  0  0  0  0  0  0  0  0  0  0  0
    0.6299   -0.1955   -1.7146 C   0  0  0  0  0  0  0  0  0  0  0  0
    0.7555   -1.1977   -2.1342 H   0  0  0  0  0  0  0  0  0  0  0  0
   -0.0918    0.3423   -2.3352 H   0  0  0  0  0  0  0  0  0  0  0  0
    1.9634    0.5363   -1.7705 C   0  0  0  0  0  0  0  0  0  0  0  0
    2.9846   -0.1174   -1.6689 O   0  0  0  0  0  0  0  0  0  0  0  0
    1.9534    1.8758   -1.9359 O   0  0  0  0  0  0  0  0  0  0  0  0
    2.8851    2.1409   -1.9710 H   0  0  0  0  0  0  0  0  0  0  0  0
   -0.0645    1.0861    0.3811 C   0  0  0  0  0  0  0  0  0  0  0  0
   -1.0633    1.7518    0.1346 O   0  0  0  0  0  0  0  0  0  0  0  0
    0.8499    1.5393    1.3136 N   0  0  0  0  0  0  0  0  0  0  0  0
    1.6610    0.9567    1.5041 H   0  0  0  0  0  0  0  0  0  0  0  0
    0.7381    2.8324    1.9769 C   0  0  0  0  0  0  0  0  0  0  0  0
   -0.2065    2.9014    2.5266 H   0  0  0  0  0  0  0  0  0  0  0  0
    1.5605    2.9659    2.6864 H   0  0  0  0  0  0  0  0  0  0  0  0
    0.7787    3.6437    1.2425 H   0  0  0  0  0  0  0  0  0  0  0  0
  1  2  1  0  0  0  0
  2  3  1  0  0  0  0
  2  4  1  0  0  0  0
  2  5  1  0  0  0  0
  5  6  2  0  0  0  0
  5  7  1  0  0  0  0
  7  8  1  0  0  0  0
  7  9  1  0  0  0  0
  9 10  1  0  0  0  0
  9 11  1  0  0  0  0
  9 18  1  0  0  0  0
 11 12  1  0  0  0  0
 11 13  1  0  0  0  0
 11 14  1  0  0  0  0
 14 15  2  0  0  0  0
 14 16  1  0  0  0  0
 16 17  1  0  0  0  0
 18 19  2  0  0  0  0
 18 20  1  0  0  0  0
 20 21  1  0  0  0  0
 20 22  1  0  0  0  0
 22 23  1  0  0  0  0
 22 24  1  0  0  0  0
 22 25  1  0  0  0  0
M  END
$$$$

  -OEChem-03222214023D

 25 24  0     1  0  0  0  0  0999 V2000
   -2.6896   -3.9656    0.4316 H   0  0  0  0  0  0  0  0  0  0  0  0
   -2.7387   -2.9159    0.1286 C   0  0  0  0  0  0  0  0  0  0  0  0
   -3.3304   -2.3646    0.8635 H   0  0  0  0  0  0  0  0  0  0  0  0
   -3.2289   -2.8531   -0.8460 H   0  0  0  0  0  0  0  0  0  0  0  0
   -1.3414   -2.3315    0.0437 C   0  0  0  0  0  0  0  0  0  0  0  0
   -0.3704   -3.0328    0.2782 O   0  0  0  0  0  0  0  0  0  0  0  0
   -1.1692   -1.0055   -0.2959 N   0  0  0  0  0  0  0  0  0  0  0  0
   -2.0076   -0.4297   -0.3706 H   0  0  0  0  0  0  0  0  0  0  0  0
    0.1180   -0.2965   -0.2613 C   0  0  1  0  0  0  0  0  0  0  0  0
    0.8435   -0.8552    0.3408 H   0  0  0  0  0  0  0  0  0  0  0  0
    0.6411   -0.1978   -1.7035 C   0  0  0  0  0  0  0  0  0  0  0  0
    0.7500   -1.2031   -2.1208 H   0  0  0  0  0  0  0  0  0  0  0  0
   -0.0816    0.3449   -2.3188 H   0  0  0  0  0  0  0  0  0  0  0  0
    1.9811    0.5225   -1.7906 C   0  0  0  0  0  0  0  0  0  0  0  0
    2.9793   -0.1464   -1.9805 O   0  0  0  0  0  0  0  0  0  0  0  0
    2.0022    1.8685   -1.6917 O   0  0  0  0  0  0  0  0  0  0  0  0
    2.9288    2.1228   -1.8217 H   0  0  0  0  0  0  0  0  0  0  0  0
   -0.0661    1.0845    0.4019 C   0  0  0  0  0  0  0  0  0  0  0  0
   -1.0723    1.7403    0.1564 O   0  0  0  0  0  0  0  0  0  0  0  0
    0.8346    1.5400    1.3472 N   0  0  0  0  0  0  0  0  0  0  0  0
    1.6575    0.9725    1.5296 H   0  0  0  0  0  0  0  0  0  0  0  0
    0.7089    2.8321    2.0099 C   0  0  0  0  0  0  0  0  0  0  0  0
   -0.2450    2.8992    2.5439 H   0  0  0  0  0  0  0  0  0  0  0  0
    1.5186    2.9663    2.7336 H   0  0  0  0  0  0  0  0  0  0  0  0
    0.7606    3.6441    1.2769 H   0  0  0  0  0  0  0  0  0  0  0  0
  1  2  1  0  0  0  0
  2  3  1  0  0  0  0
  2  4  1  0  0  0  0
  2  5  1  0  0  0  0
  5  6  2  0  0  0  0
  5  7  1  0  0  0  0
  7  8  1  0  0  0  0
  7  9  1  0  0  0  0
  9 10  1  0  0  0  0
  9 11  1  0  0  0  0
  9 18  1  0  0  0  0
 11 12  1  0  0  0  0
 11 13  1  0  0  0  0
 11 14  1  0  0  0  0
 14 15  2  0  0  0  0
 14 16  1  0  0  0  0
 16 17  1  0  0  0  0
 18 19  2  0  0  0  0
 18 20  1  0  0  0  0
 20 21  1  0  0  0  0
 20 22  1  0  0  0  0
 22 23  1  0  0  0  0
 22 24  1  0  0  0  0
 22 25  1  0  0  0  0
M  END
$$$$

  -OEChem-03222214023D

 25 24  0     1  0  0  0  0  0999 V2000
   -2.6980   -3.9542    0.4155 H   0  0  0  0  0  0  0  0  0  0  0  0
   -2.7380   -2.9028    0.1172 C   0  0  0  0  0  0  0  0  0  0  0  0
   -3.3328   -2.3514    0.8495 H   0  0  0  0  0  0  0  0  0  0  0  0
   -3.2197   -2.8318   -0.8609 H   0  0  0  0  0  0  0  0  0  0  0  0
   -1.3369   -2.3257    0.0467 C   0  0  0  0  0  0  0  0  0  0  0  0
   -0.3709   -3.0315    0.2888 O   0  0  0  0  0  0  0  0  0  0  0  0
   -1.1555   -0.9996   -0.2873 N   0  0  0  0  0  0  0  0  0  0  0  0
   -1.9902   -0.4185   -0.3645 H   0  0  0  0  0  0  0  0  0  0  0  0
    0.1353   -0.2974   -0.2419 C   0  0  1  0  0  0  0  0  0  0  0  0
    0.8586   -0.8569    0.3617 H   0  0  0  0  0  0  0  0  0  0  0  0
    0.6538   -0.2023   -1.6887 C   0  0  0  0  0  0  0  0  0  0  0  0
    0.7448   -1.2113   -2.1018 H   0  0  0  0  0  0  0  0  0  0  0  0
   -0.0723    0.3438   -2.2965 H   0  0  0  0  0  0  0  0  0  0  0  0
    1.9999    0.5043   -1.8190 C   0  0  0  0  0  0  0  0  0  0  0  0
    2.9244   -0.1262   -2.2962 O   0  0  0  0  0  0  0  0  0  0  0  0
    2.1038    1.8014   -1.4605 O   0  0  0  0  0  0  0  0  0  0  0  0
    3.0108    2.0577   -1.6888 H   0  0  0  0  0  0  0  0  0  0  0  0
   -0.0679    1.0788    0.4282 C   0  0  0  0  0  0  0  0  0  0  0  0
   -1.0786    1.7262    0.1766 O   0  0  0  0  0  0  0  0  0  0  0  0
    0.8157    1.5373    1.3881 N   0  0  0  0  0  0  0  0  0  0  0  0
    1.6608    0.9966    1.5467 H   0  0  0  0  0  0  0  0  0  0  0  0
    0.6758    2.8309    2.0446 C   0  0  0  0  0  0  0  0  0  0  0  0
   -0.2947    2.9039    2.5469 H   0  0  0  0  0  0  0  0  0  0  0  0
    1.4616    2.9614    2.7948 H   0  0  0  0  0  0  0  0  0  0  0  0
    0.7562    3.6411    1.3123 H   0  0  0  0  0  0  0  0  0  0  0  0
  1  2  1  0  0  0  0
  2  3  1  0  0  0  0
  2  4  1  0  0  0  0
  2  5  1  0  0  0  0
  5  6  2  0  0  0  0
  5  7  1  0  0  0  0
  7  8  1  0  0  0  0
  7  9  1  0  0  0  0
  9 10  1  0  0  0  0
  9 11  1  0  0  0  0
  9 18  1  0  0  0  0
 11 12  1  0  0  0  0
 11 13  1  0  0  0  0
 11 14  1  0  0  0  0
 14 15  2  0  0  0  0
 14 16  1  0  0  0  0
 16 17  1  0  0  0  0
 18 19  2  0  0  0  0
 18 20  1  0  0  0  0
 20 21  1  0  0  0  0
 20 22  1  0  0  0  0
 22 23  1  0  0  0  0
 22 24  1  0  0  0  0
 22 25  1  0  0  0  0
M  END
$$$$

  -OEChem-03222214023D

 25 24  0     1  0  0  0  0  0999 V2000
   -2.7031   -3.9503    0.4029 H   0  0  0  0  0  0  0  0  0  0  0  0
   -2.7380   -2.8993    0.1024 C   0  0  0  0  0  0  0  0  0  0  0  0
   -3.3410   -2.3459    0.8265 H   0  0  0  0  0  0  0  0  0  0  0  0
   -3.2075   -2.8296   -0.8817 H   0  0  0  0  0  0  0  0  0  0  0  0
   -1.3351   -2.3245    0.0475 C   0  0  0  0  0  0  0  0  0  0  0  0
   -0.3722   -3.0342    0.2906 O   0  0  0  0  0  0  0  0  0  0  0  0
   -1.1476   -0.9973   -0.2786 N   0  0  0  0  0  0  0  0  0  0  0  0
   -1.9797   -0.4124   -0.3555 H   0  0  0  0  0  0  0  0  0  0  0  0
    0.1466   -0.3014   -0.2218 C   0  0  1  0  0  0  0  0  0  0  0  0
    0.8690   -0.8634    0.3803 H   0  0  0  0  0  0  0  0  0  0  0  0
    0.6591   -0.2013   -1.6725 C   0  0  0  0  0  0  0  0  0  0  0  0
    0.7360   -1.2112   -2.0865 H   0  0  0  0  0  0  0  0  0  0  0  0
   -0.0715    0.3502   -2.2699 H   0  0  0  0  0  0  0  0  0  0  0  0
    2.0095    0.4931   -1.8411 C   0  0  0  0  0  0  0  0  0  0  0  0
    2.8162   -0.0390   -2.5800 O   0  0  0  0  0  0  0  0  0  0  0  0
    2.2539    1.6634   -1.2160 O   0  0  0  0  0  0  0  0  0  0  0  0
    3.1341    1.9326   -1.5226 H   0  0  0  0  0  0  0  0  0  0  0  0
   -0.0730    1.0695    0.4571 C   0  0  0  0  0  0  0  0  0  0  0  0
   -1.0823    1.7147    0.1929 O   0  0  0  0  0  0  0  0  0  0  0  0
    0.7943    1.5299    1.4309 N   0  0  0  0  0  0  0  0  0  0  0  0
    1.6645    1.0208    1.5548 H   0  0  0  0  0  0  0  0  0  0  0  0
    0.6549    2.8367    2.0612 C   0  0  0  0  0  0  0  0  0  0  0  0
   -0.3299    2.9345    2.5302 H   0  0  0  0  0  0  0  0  0  0  0  0
    1.4175    2.9670    2.8350 H   0  0  0  0  0  0  0  0  0  0  0  0
    0.7724    3.6329    1.3186 H   0  0  0  0  0  0  0  0  0  0  0  0
  1  2  1  0  0  0  0
  2  3  1  0  0  0  0
  2  4  1  0  0  0  0
  2  5  1  0  0  0  0
  5  6  2  0  0  0  0
  5  7  1  0  0  0  0
  7  8  1  0  0  0  0
  7  9  1  0  0  0  0
  9 10  1  0  0  0  0
  9 11  1  0  0  0  0
  9 18  1  0  0  0  0
 11 12  1  0  0  0  0
 11 13  1  0  0  0  0
 11 14  1  0  0  0  0
 14 15  2  0  0  0  0
 14 16  1  0  0  0  0
 16 17  1  0  0  0  0
 18 19  2  0  0  0  0
 18 20  1  0  0  0  0
 20 21  1  0  0  0  0
 20 22  1  0  0  0  0
 22 23  1  0  0  0  0
 22 24  1  0  0  0  0
 22 25  1  0  0  0  0
M  END
$$$$

  -OEChem-03222214023D

 25 24  0     1  0  0  0  0  0999 V2000
   -2.7087   -3.9396    0.4028 H   0  0  0  0  0  0  0  0  0  0  0  0
   -2.7382   -2.8877    0.1053 C   0  0  0  0  0  0  0  0  0  0  0  0
   -3.3344   -2.3323    0.8335 H   0  0  0  0  0  0  0  0  0  0  0  0
   -3.2114   -2.8123   -0.8768 H   0  0  0  0  0  0  0  0  0  0  0  0
   -1.3323   -2.3213    0.0463 C   0  0  0  0  0  0  0  0  0  0  0  0
   -0.3723   -3.0360    0.2870 O   0  0  0  0  0  0  0  0  0  0  0  0
   -1.1389   -0.9952   -0.2801 N   0  0  0  0  0  0  0  0  0  0  0  0
   -1.9681   -0.4053   -0.3529 H   0  0  0  0  0  0  0  0  0  0  0  0
    0.1582   -0.3059   -0.2171 C   0  0  1  0  0  0  0  0  0  0  0  0
    0.8809   -0.8683    0.3845 H   0  0  0  0  0  0  0  0  0  0  0  0
    0.6644   -0.1972   -1.6700 C   0  0  0  0  0  0  0  0  0  0  0  0
    0.7337   -1.2055   -2.0893 H   0  0  0  0  0  0  0  0  0  0  0  0
   -0.0693    0.3602   -2.2583 H   0  0  0  0  0  0  0  0  0  0  0  0
    2.0174    0.4879   -1.8585 C   0  0  0  0  0  0  0  0  0  0  0  0
    2.6858    0.1198   -2.8060 O   0  0  0  0  0  0  0  0  0  0  0  0
    2.4417    1.4298   -0.9894 O   0  0  0  0  0  0  0  0  0  0  0  0
    3.3001    1.7187   -1.3382 H   0  0  0  0  0  0  0  0  0  0  0  0
   -0.0743    1.0643    0.4621 C   0  0  0  0  0  0  0  0  0  0  0  0
   -1.0836    1.7053    0.1869 O   0  0  0  0  0  0  0  0  0  0  0  0
    0.7789    1.5306    1.4449 N   0  0  0  0  0  0  0  0  0  0  0  0
    1.6710    1.0528    1.5367 H   0  0  0  0  0  0  0  0  0  0  0  0
    0.6238    2.8370    2.0728 C   0  0  0  0  0  0  0  0  0  0  0  0
   -0.3666    2.9288    2.5315 H   0  0  0  0  0  0  0  0  0  0  0  0
    1.3773    2.9718    2.8548 H   0  0  0  0  0  0  0  0  0  0  0  0
    0.7442    3.6338    1.3315 H   0  0  0  0  0  0  0  0  0  0  0  0
  1  2  1  0  0  0  0
  2  3  1  0  0  0  0
  2  4  1  0  0  0  0
  2  5  1  0  0  0  0
  5  6  2  0  0  0  0
  5  7  1  0  0  0  0
  7  8  1  0  0  0  0
  7  9  1  0  0  0  0
  9 10  1  0  0  0  0
  9 11  1  0  0  0  0
  9 18  1  0  0  0  0
 11 12  1  0  0  0  0
 11 13  1  0  0  0  0
 11 14  1  0  0  0  0
 14 15  2  0  0  0  0
 14 16  1  0  0  0  0
 16 17  1  0  0  0  0
 18 19  2  0  0  0  0
 18 20  1  0  0  0  0
 20 21  1  0  0  0  0
 20 22  1  0  0  0  0
 22 23  1  0  0  0  0
 22 24  1  0  0  0  0
 22 25  1  0  0  0  0
M  END
$$$$

  -OEChem-03222214023D

 25 24  0     1  0  0  0  0  0999 V2000
   -2.7120   -3.9406    0.4077 H   0  0  0  0  0  0  0  0  0  0  0  0
   -2.7418   -2.8896    0.1073 C   0  0  0  0  0  0  0  0  0  0  0  0
   -3.3387   -2.3324    0.8332 H   0  0  0  0  0  0  0  0  0  0  0  0
   -3.2142   -2.8171   -0.8753 H   0  0  0  0  0  0  0  0  0  0  0  0
   -1.3361   -2.3228    0.0477 C   0  0  0  0  0  0  0  0  0  0  0  0
   -0.3756   -3.0387    0.2834 O   0  0  0  0  0  0  0  0  0  0  0  0
   -1.1430   -0.9973   -0.2813 N   0  0  0  0  0  0  0  0  0  0  0  0
   -1.9724   -0.4073   -0.3508 H   0  0  0  0  0  0  0  0  0  0  0  0
    0.1541   -0.3078   -0.2184 C   0  0  1  0  0  0  0  0  0  0  0  0
    0.8762   -0.8705    0.3839 H   0  0  0  0  0  0  0  0  0  0  0  0
    0.6642   -0.1897   -1.6682 C   0  0  0  0  0  0  0  0  0  0  0  0
    0.7423   -1.1950   -2.0920 H   0  0  0  0  0  0  0  0  0  0  0  0
   -0.0689    0.3678   -2.2576 H   0  0  0  0  0  0  0  0  0  0  0  0
    2.0170    0.4979   -1.8434 C   0  0  0  0  0  0  0  0  0  0  0  0
    2.5610    0.3545   -2.9220 O   0  0  0  0  0  0  0  0  0  0  0  0
    2.6022    1.1443   -0.8109 O   0  0  0  0  0  0  0  0  0  0  0  0
    3.4462    1.4621   -1.1709 H   0  0  0  0  0  0  0  0  0  0  0  0
   -0.0746    1.0650    0.4573 C   0  0  0  0  0  0  0  0  0  0  0  0
   -1.0818    1.7079    0.1789 O   0  0  0  0  0  0  0  0  0  0  0  0
    0.7786    1.5339    1.4385 N   0  0  0  0  0  0  0  0  0  0  0  0
    1.6798    1.0684    1.5103 H   0  0  0  0  0  0  0  0  0  0  0  0
    0.6224    2.8413    2.0642 C   0  0  0  0  0  0  0  0  0  0  0  0
   -0.3697    2.9341    2.5187 H   0  0  0  0  0  0  0  0  0  0  0  0
    1.3724    2.9765    2.8494 H   0  0  0  0  0  0  0  0  0  0  0  0
    0.7464    3.6378    1.3231 H   0  0  0  0  0  0  0  0  0  0  0  0
  1  2  1  0  0  0  0
  2  3  1  0  0  0  0
  2  4  1  0  0  0  0
  2  5  1  0  0  0  0
  5  6  2  0  0  0  0
  5  7  1  0  0  0  0
  7  8  1  0  0  0  0
  7  9  1  0  0  0  0
  9 10  1  0  0  0  0
  9 11  1  0  0  0  0
  9 18  1  0  0  0  0
 11 12  1  0  0  0  0
 11 13  1  0  0  0  0
 11 14  1  0  0  0  0
 14 15  2  0  0  0  0
 14 16  1  0  0  0  0
 16 17  1  0  0  0  0
 18 19  2  0  0  0  0
 18 20  1  0  0  0  0
 20 21  1  0  0  0  0
 20 22  1  0  0  0  0
 22 23  1  0  0  0  0
 22 24  1  0  0  0  0
 22 25  1  0  0  0  0
M  END
$$$$

  -OEChem-03222214023D

 25 24  0     1  0  0  0  0  0999 V2000
   -2.7250   -3.9733    0.4200 H   0  0  0  0  0  0  0  0  0  0  0  0
   -2.7649   -2.9249    0.1115 C   0  0  0  0  0  0  0  0  0  0  0  0
   -3.3631   -2.3673    0.8362 H   0  0  0  0  0  0  0  0  0  0  0  0
   -3.2423   -2.8641   -0.8695 H   0  0  0  0  0  0  0  0  0  0  0  0
   -1.3641   -2.3468    0.0420 C   0  0  0  0  0  0  0  0  0  0  0  0
   -0.3979   -3.0542    0.2791 O   0  0  0  0  0  0  0  0  0  0  0  0
   -1.1851   -1.0213   -0.2964 N   0  0  0  0  0  0  0  0  0  0  0  0
   -2.0225   -0.4465   -0.3846 H   0  0  0  0  0  0  0  0  0  0  0  0
    0.1006   -0.3110   -0.2364 C   0  0  1  0  0  0  0  0  0  0  0  0
    0.7998   -0.8812    0.3859 H   0  0  0  0  0  0  0  0  0  0  0  0
    0.6662   -0.1974   -1.6619 C   0  0  0  0  0  0  0  0  0  0  0  0
    0.5670   -1.1650   -2.1612 H   0  0  0  0  0  0  0  0  0  0  0  0
    0.0893    0.5379   -2.2300 H   0  0  0  0  0  0  0  0  0  0  0  0
    2.1423    0.1890   -1.7055 C   0  0  0  0  0  0  0  0  0  0  0  0
    2.6510    0.2960   -2.8051 O   0  0  0  0  0  0  0  0  0  0  0  0
    2.8305    0.3790   -0.5542 O   0  0  0  0  0  0  0  0  0  0  0  0
    3.7343    0.5854   -0.8442 H   0  0  0  0  0  0  0  0  0  0  0  0
   -0.0712    1.0754    0.4161 C   0  0  0  0  0  0  0  0  0  0  0  0
   -1.0569    1.7502    0.1422 O   0  0  0  0  0  0  0  0  0  0  0  0
    0.8224    1.5228    1.3696 N   0  0  0  0  0  0  0  0  0  0  0  0
    1.6918    0.9998    1.4562 H   0  0  0  0  0  0  0  0  0  0  0  0
    0.7316    2.8391    1.9890 C   0  0  0  0  0  0  0  0  0  0  0  0
   -0.2393    2.9661    2.4797 H   0  0  0  0  0  0  0  0  0  0  0  0
    1.5152    2.9564    2.7437 H   0  0  0  0  0  0  0  0  0  0  0  0
    0.8520    3.6257    1.2368 H   0  0  0  0  0  0  0  0  0  0  0  0
  1  2  1  0  0  0  0
  2  3  1  0  0  0  0
  2  4  1  0  0  0  0
  2  5  1  0  0  0  0
  5  6  2  0  0  0  0
  5  7  1  0  0  0  0
  7  8  1  0  0  0  0
  7  9  1  0  0  0  0
  9 10  1  0  0  0  0
  9 11  1  0  0  0  0
  9 18  1  0  0  0  0
 11 12  1  0  0  0  0
 11 13  1  0  0  0  0
 11 14  1  0  0  0  0
 14 15  2  0  0  0  0
 14 16  1  0  0  0  0
 16 17  1  0  0  0  0
 18 19  2  0  0  0  0
 18 20  1  0  0  0  0
 20 21  1  0  0  0  0
 20 22  1  0  0  0  0
 22 23  1  0  0  0  0
 22 24  1  0  0  0  0
 22 25  1  0  0  0  0
M  END
$$$$

  -OEChem-03222214023D

 25 24  0     1  0  0  0  0  0999 V2000
   -2.7291   -3.9807    0.4269 H   0  0  0  0  0  0  0  0  0  0  0  0
   -2.7714   -2.9348    0.1101 C   0  0  0  0  0  0  0  0  0  0  0  0
   -3.3759   -2.3741    0.8272 H   0  0  0  0  0  0  0  0  0  0  0  0
   -3.2441   -2.8835   -0.8736 H   0  0  0  0  0  0  0  0  0  0  0  0
   -1.3723   -2.3518    0.0429 C   0  0  0  0  0  0  0  0  0  0  0  0
   -0.4046   -3.0562    0.2821 O   0  0  0  0  0  0  0  0  0  0  0  0
   -1.1966   -1.0262   -0.2981 N   0  0  0  0  0  0  0  0  0  0  0  0
   -2.0359   -0.4551   -0.3909 H   0  0  0  0  0  0  0  0  0  0  0  0
    0.0865   -0.3102   -0.2423 C   0  0  1  0  0  0  0  0  0  0  0  0
    0.7789   -0.8812    0.3863 H   0  0  0  0  0  0  0  0  0  0  0  0
    0.6632   -0.2047   -1.6635 C   0  0  0  0  0  0  0  0  0  0  0  0
    0.5763   -1.1761   -2.1570 H   0  0  0  0  0  0  0  0  0  0  0  0
    0.0865    0.5229   -2.2420 H   0  0  0  0  0  0  0  0  0  0  0  0
    2.1372    0.1904   -1.6883 C   0  0  0  0  0  0  0  0  0  0  0  0
    2.5920    0.5653   -2.7522 O   0  0  0  0  0  0  0  0  0  0  0  0
    2.8748    0.1227   -0.5543 O   0  0  0  0  0  0  0  0  0  0  0  0
    3.7679    0.3874   -0.8288 H   0  0  0  0  0  0  0  0  0  0  0  0
   -0.0678    1.0792    0.4041 C   0  0  0  0  0  0  0  0  0  0  0  0
   -1.0472    1.7638    0.1337 O   0  0  0  0  0  0  0  0  0  0  0  0
    0.8399    1.5190    1.3478 N   0  0  0  0  0  0  0  0  0  0  0  0
    1.6862    0.9650    1.4644 H   0  0  0  0  0  0  0  0  0  0  0  0
    0.7653    2.8332    1.9739 C   0  0  0  0  0  0  0  0  0  0  0  0
   -0.2011    2.9673    2.4714 H   0  0  0  0  0  0  0  0  0  0  0  0
    1.5547    2.9403    2.7239 H   0  0  0  0  0  0  0  0  0  0  0  0
    0.8882    3.6218    1.2242 H   0  0  0  0  0  0  0  0  0  0  0  0
  1  2  1  0  0  0  0
  2  3  1  0  0  0  0
  2  4  1  0  0  0  0
  2  5  1  0  0  0  0
  5  6  2  0  0  0  0
  5  7  1  0  0  0  0
  7  8  1  0  0  0  0
  7  9  1  0  0  0  0
  9 10  1  0  0  0  0
  9 11  1  0  0  0  0
  9 18  1  0  0  0  0
 11 12  1  0  0  0  0
 11 13  1  0  0  0  0
 11 14  1  0  0  0  0
 14 15  2  0  0  0  0
 14 16  1  0  0  0  0
 16 17  1  0  0  0  0
 18 19  2  0  0  0  0
 18 20  1  0  0  0  0
 20 21  1  0  0  0  0
 20 22  1  0  0  0  0
 22 23  1  0  0  0  0
 22 24  1  0  0  0  0
 22 25  1  0  0  0  0
M  END
$$$$

  -OEChem-03222214023D

 25 24  0     1  0  0  0  0  0999 V2000
   -2.7290   -3.9819    0.4313 H   0  0  0  0  0  0  0  0  0  0  0  0
   -2.7731   -2.9366    0.1133 C   0  0  0  0  0  0  0  0  0  0  0  0
   -3.3750   -2.3752    0.8319 H   0  0  0  0  0  0  0  0  0  0  0  0
   -3.2492   -2.8866   -0.8689 H   0  0  0  0  0  0  0  0  0  0  0  0
   -1.3748   -2.3530    0.0411 C   0  0  0  0  0  0  0  0  0  0  0  0
   -0.4063   -3.0562    0.2806 O   0  0  0  0  0  0  0  0  0  0  0  0
   -1.2015   -1.0279   -0.3027 N   0  0  0  0  0  0  0  0  0  0  0  0
   -2.0422   -0.4596   -0.4001 H   0  0  0  0  0  0  0  0  0  0  0  0
    0.0798   -0.3087   -0.2516 C   0  0  1  0  0  0  0  0  0  0  0  0
    0.7700   -0.8794    0.3796 H   0  0  0  0  0  0  0  0  0  0  0  0
    0.6583   -0.2121   -1.6721 C   0  0  0  0  0  0  0  0  0  0  0  0
    0.5795   -1.1875   -2.1584 H   0  0  0  0  0  0  0  0  0  0  0  0
    0.0798    0.5075   -2.2594 H   0  0  0  0  0  0  0  0  0  0  0  0
    2.1307    0.1881   -1.6830 C   0  0  0  0  0  0  0  0  0  0  0  0
    2.5330    0.8155   -2.6442 O   0  0  0  0  0  0  0  0  0  0  0  0
    2.9194   -0.1371   -0.6324 O   0  0  0  0  0  0  0  0  0  0  0  0
    3.8020    0.1842   -0.8781 H   0  0  0  0  0  0  0  0  0  0  0  0
   -0.0619    1.0829    0.3898 C   0  0  0  0  0  0  0  0  0  0  0  0
   -1.0358    1.7751    0.1204 O   0  0  0  0  0  0  0  0  0  0  0  0
    0.8561    1.5182    1.3261 N   0  0  0  0  0  0  0  0  0  0  0  0
    1.6751    0.9347    1.4823 H   0  0  0  0  0  0  0  0  0  0  0  0
    0.7868    2.8265    1.9646 C   0  0  0  0  0  0  0  0  0  0  0  0
   -0.1717    2.9515    2.4794 H   0  0  0  0  0  0  0  0  0  0  0  0
    1.5891    2.9312    2.7012 H   0  0  0  0  0  0  0  0  0  0  0  0
    0.8929    3.6219    1.2196 H   0  0  0  0  0  0  0  0  0  0  0  0
  1  2  1  0  0  0  0
  2  3  1  0  0  0  0
  2  4  1  0  0  0  0
  2  5  1  0  0  0  0
  5  6  2  0  0  0  0
  5  7  1  0  0  0  0
  7  8  1  0  0  0  0
  7  9  1  0  0  0  0
  9 10  1  0  0  0  0
  9 11  1  0  0  0  0
  9 18  1  0  0  0  0
 11 12  1  0  0  0  0
 11 13  1  0  0  0  0
 11 14  1  0  0  0  0
 14 15  2  0  0  0  0
 14 16  1  0  0  0  0
 16 17  1  0  0  0  0
 18 19  2  0  0  0  0
 18 20  1  0  0  0  0
 20 21  1  0  0  0  0
 20 22  1  0  0  0  0
 22 23  1  0  0  0  0
 22 24  1  0  0  0  0
 22 25  1  0  0  0  0
M  END
$$$$

  -OEChem-03222214023D

 25 24  0     1  0  0  0  0  0999 V2000
   -2.7285   -3.9789    0.4351 H   0  0  0  0  0  0  0  0  0  0  0  0
   -2.7713   -2.9336    0.1165 C   0  0  0  0  0  0  0  0  0  0  0  0
   -3.3714   -2.3709    0.8357 H   0  0  0  0  0  0  0  0  0  0  0  0
   -3.2483   -2.8833   -0.8651 H   0  0  0  0  0  0  0  0  0  0  0  0
   -1.3721   -2.3522    0.0422 C   0  0  0  0  0  0  0  0  0  0  0  0
   -0.4049   -3.0555    0.2857 O   0  0  0  0  0  0  0  0  0  0  0  0
   -1.1973   -1.0279   -0.3035 N   0  0  0  0  0  0  0  0  0  0  0  0
   -2.0372   -0.4590   -0.4042 H   0  0  0  0  0  0  0  0  0  0  0  0
    0.0852   -0.3106   -0.2588 C   0  0  1  0  0  0  0  0  0  0  0  0
    0.7819   -0.8803    0.3664 H   0  0  0  0  0  0  0  0  0  0  0  0
    0.6512   -0.2126   -1.6834 C   0  0  0  0  0  0  0  0  0  0  0  0
    0.5713   -1.1867   -2.1723 H   0  0  0  0  0  0  0  0  0  0  0  0
    0.0708    0.5085   -2.2673 H   0  0  0  0  0  0  0  0  0  0  0  0
    2.1227    0.1855   -1.6871 C   0  0  0  0  0  0  0  0  0  0  0  0
    2.4789    1.0387   -2.4773 O   0  0  0  0  0  0  0  0  0  0  0  0
    2.9626   -0.3984   -0.8034 O   0  0  0  0  0  0  0  0  0  0  0  0
    3.8371   -0.0309   -1.0080 H   0  0  0  0  0  0  0  0  0  0  0  0
   -0.0540    1.0813    0.3823 C   0  0  0  0  0  0  0  0  0  0  0  0
   -1.0273    1.7742    0.1130 O   0  0  0  0  0  0  0  0  0  0  0  0
    0.8666    1.5186    1.3154 N   0  0  0  0  0  0  0  0  0  0  0  0
    1.6664    0.9195    1.5048 H   0  0  0  0  0  0  0  0  0  0  0  0
    0.7921    2.8241    1.9594 C   0  0  0  0  0  0  0  0  0  0  0  0
   -0.1621    2.9395    2.4844 H   0  0  0  0  0  0  0  0  0  0  0  0
    1.6012    2.9338    2.6879 H   0  0  0  0  0  0  0  0  0  0  0  0
    0.8839    3.6229    1.2159 H   0  0  0  0  0  0  0  0  0  0  0  0
  1  2  1  0  0  0  0
  2  3  1  0  0  0  0
  2  4  1  0  0  0  0
  2  5  1  0  0  0  0
  5  6  2  0  0  0  0
  5  7  1  0  0  0  0
  7  8  1  0  0  0  0
  7  9  1  0  0  0  0
  9 10  1  0  0  0  0
  9 11  1  0  0  0  0
  9 18  1  0  0  0  0
 11 12  1  0  0  0  0
 11 13  1  0  0  0  0
 11 14  1  0  0  0  0
 14 15  2  0  0  0  0
 14 16  1  0  0  0  0
 16 17  1  0  0  0  0
 18 19  2  0  0  0  0
 18 20  1  0  0  0  0
 20 21  1  0  0  0  0
 20 22  1  0  0  0  0
 22 23  1  0  0  0  0
 22 24  1  0  0  0  0
 22 25  1  0  0  0  0
M  END
$$$$

  -OEChem-03222214023D

 25 24  0     1  0  0  0  0  0999 V2000
   -2.7292   -3.9755    0.4392 H   0  0  0  0  0  0  0  0  0  0  0  0
   -2.7697   -2.9303    0.1199 C   0  0  0  0  0  0  0  0  0  0  0  0
   -3.3667   -2.3655    0.8399 H   0  0  0  0  0  0  0  0  0  0  0  0
   -3.2493   -2.8795   -0.8605 H   0  0  0  0  0  0  0  0  0  0  0  0
   -1.3691   -2.3528    0.0413 C   0  0  0  0  0  0  0  0  0  0  0  0
   -0.4032   -3.0579    0.2845 O   0  0  0  0  0  0  0  0  0  0  0  0
   -1.1920   -1.0287   -0.3040 N   0  0  0  0  0  0  0  0  0  0  0  0
   -2.0304   -0.4567   -0.3999 H   0  0  0  0  0  0  0  0  0  0  0  0
    0.0931   -0.3156   -0.2655 C   0  0  1  0  0  0  0  0  0  0  0  0
    0.7990   -0.8855    0.3495 H   0  0  0  0  0  0  0  0  0  0  0  0
    0.6447   -0.2088   -1.6941 C   0  0  0  0  0  0  0  0  0  0  0  0
    0.5597   -1.1777   -2.1922 H   0  0  0  0  0  0  0  0  0  0  0  0
    0.0646    0.5198   -2.2689 H   0  0  0  0  0  0  0  0  0  0  0  0
    2.1157    0.1840   -1.6896 C   0  0  0  0  0  0  0  0  0  0  0  0
    2.4387    1.2145   -2.2490 O   0  0  0  0  0  0  0  0  0  0  0  0
    2.9929   -0.6115   -1.0402 O   0  0  0  0  0  0  0  0  0  0  0  0
    3.8621   -0.2071   -1.1888 H   0  0  0  0  0  0  0  0  0  0  0  0
   -0.0493    1.0750    0.3798 C   0  0  0  0  0  0  0  0  0  0  0  0
   -1.0295    1.7617    0.1184 O   0  0  0  0  0  0  0  0  0  0  0  0
    0.8708    1.5157    1.3120 N   0  0  0  0  0  0  0  0  0  0  0  0
    1.6717    0.9200    1.5047 H   0  0  0  0  0  0  0  0  0  0  0  0
    0.7934    2.8228    1.9525 C   0  0  0  0  0  0  0  0  0  0  0  0
   -0.1591    2.9362    2.4809 H   0  0  0  0  0  0  0  0  0  0  0  0
    1.6050    2.9374    2.6775 H   0  0  0  0  0  0  0  0  0  0  0  0
    0.8798    3.6197    1.2062 H   0  0  0  0  0  0  0  0  0  0  0  0
  1  2  1  0  0  0  0
  2  3  1  0  0  0  0
  2  4  1  0  0  0  0
  2  5  1  0  0  0  0
  5  6  2  0  0  0  0
  5  7  1  0  0  0  0
  7  8  1  0  0  0  0
  7  9  1  0  0  0  0
  9 10  1  0  0  0  0
  9 11  1  0  0  0  0
  9 18  1  0  0  0  0
 11 12  1  0  0  0  0
 11 13  1  0  0  0  0
 11 14  1  0  0  0  0
 14 15  2  0  0  0  0
 14 16  1  0  0  0  0
 16 17  1  0  0  0  0
 18 19  2  0  0  0  0
 18 20  1  0  0  0  0
 20 21  1  0  0  0  0
 20 22  1  0  0  0  0
 22 23  1  0  0  0  0
 22 24  1  0  0  0  0
 22 25  1  0  0  0  0
M  END
$$$$

  -OEChem-03222214023D

 25 24  0     1  0  0  0  0  0999 V2000
   -2.7313   -3.9722    0.4422 H   0  0  0  0  0  0  0  0  0  0  0  0
   -2.7694   -2.9274    0.1215 C   0  0  0  0  0  0  0  0  0  0  0  0
   -3.3636   -2.3599    0.8418 H   0  0  0  0  0  0  0  0  0  0  0  0
   -3.2504   -2.8766   -0.8583 H   0  0  0  0  0  0  0  0  0  0  0  0
   -1.3675   -2.3536    0.0399 C   0  0  0  0  0  0  0  0  0  0  0  0
   -0.4025   -3.0611    0.2803 O   0  0  0  0  0  0  0  0  0  0  0  0
   -1.1877   -1.0294   -0.3029 N   0  0  0  0  0  0  0  0  0  0  0  0
   -2.0245   -0.4536   -0.3909 H   0  0  0  0  0  0  0  0  0  0  0  0
    0.0999   -0.3208   -0.2690 C   0  0  1  0  0  0  0  0  0  0  0  0
    0.8127   -0.8927    0.3364 H   0  0  0  0  0  0  0  0  0  0  0  0
    0.6394   -0.2049   -1.7009 C   0  0  0  0  0  0  0  0  0  0  0  0
    0.5462   -1.1685   -2.2083 H   0  0  0  0  0  0  0  0  0  0  0  0
    0.0616    0.5321   -2.2668 H   0  0  0  0  0  0  0  0  0  0  0  0
    2.1107    0.1817   -1.6943 C   0  0  0  0  0  0  0  0  0  0  0  0
    2.4129    1.3232   -1.9866 O   0  0  0  0  0  0  0  0  0  0  0  0
    3.0131   -0.7535   -1.3296 O   0  0  0  0  0  0  0  0  0  0  0  0
    3.8784   -0.3247   -1.4177 H   0  0  0  0  0  0  0  0  0  0  0  0
   -0.0471    1.0675    0.3829 C   0  0  0  0  0  0  0  0  0  0  0  0
   -1.0372    1.7447    0.1333 O   0  0  0  0  0  0  0  0  0  0  0  0
    0.8711    1.5111    1.3158 N   0  0  0  0  0  0  0  0  0  0  0  0
    1.6917    0.9355    1.4825 H   0  0  0  0  0  0  0  0  0  0  0  0
    0.7919    2.8221    1.9482 C   0  0  0  0  0  0  0  0  0  0  0  0
   -0.1649    2.9409    2.4679 H   0  0  0  0  0  0  0  0  0  0  0  0
    1.5974    2.9385    2.6797 H   0  0  0  0  0  0  0  0  0  0  0  0
    0.8866    3.6144    1.1980 H   0  0  0  0  0  0  0  0  0  0  0  0
  1  2  1  0  0  0  0
  2  3  1  0  0  0  0
  2  4  1  0  0  0  0
  2  5  1  0  0  0  0
  5  6  2  0  0  0  0
  5  7  1  0  0  0  0
  7  8  1  0  0  0  0
  7  9  1  0  0  0  0
  9 10  1  0  0  0  0
  9 11  1  0  0  0  0
  9 18  1  0  0  0  0
 11 12  1  0  0  0  0
 11 13  1  0  0  0  0
 11 14  1  0  0  0  0
 14 15  2  0  0  0  0
 14 16  1  0  0  0  0
 16 17  1  0  0  0  0
 18 19  2  0  0  0  0
 18 20  1  0  0  0  0
 20 21  1  0  0  0  0
 20 22  1  0  0  0  0
 22 23  1  0  0  0  0
 22 24  1  0  0  0  0
 22 25  1  0  0  0  0
M  END
$$$$

  -OEChem-03222214023D

 25 24  0     1  0  0  0  0  0999 V2000
   -2.7317   -3.9692    0.4422 H   0  0  0  0  0  0  0  0  0  0  0  0
   -2.7697   -2.9239    0.1230 C   0  0  0  0  0  0  0  0  0  0  0  0
   -3.3597   -2.3561    0.8464 H   0  0  0  0  0  0  0  0  0  0  0  0
   -3.2552   -2.8712   -0.8544 H   0  0  0  0  0  0  0  0  0  0  0  0
   -1.3670   -2.3528    0.0356 C   0  0  0  0  0  0  0  0  0  0  0  0
   -0.4019   -3.0637    0.2658 O   0  0  0  0  0  0  0  0  0  0  0  0
   -1.1854   -1.0278   -0.3030 N   0  0  0  0  0  0  0  0  0  0  0  0
   -2.0204   -0.4472   -0.3774 H   0  0  0  0  0  0  0  0  0  0  0  0
    0.1050   -0.3245   -0.2687 C   0  0  1  0  0  0  0  0  0  0  0  0
    0.8199   -0.8987    0.3318 H   0  0  0  0  0  0  0  0  0  0  0  0
    0.6385   -0.2032   -1.7025 C   0  0  0  0  0  0  0  0  0  0  0  0
    0.5348   -1.1624   -2.2166 H   0  0  0  0  0  0  0  0  0  0  0  0
    0.0644    0.5421   -2.2611 H   0  0  0  0  0  0  0  0  0  0  0  0
    2.1115    0.1759   -1.7016 C   0  0  0  0  0  0  0  0  0  0  0  0
    2.4097    1.3554   -1.7123 O   0  0  0  0  0  0  0  0  0  0  0  0
    3.0225   -0.8188   -1.6588 O   0  0  0  0  0  0  0  0  0  0  0  0
    3.8871   -0.3808   -1.6853 H   0  0  0  0  0  0  0  0  0  0  0  0
   -0.0484    1.0608    0.3913 C   0  0  0  0  0  0  0  0  0  0  0  0
   -1.0496    1.7273    0.1550 O   0  0  0  0  0  0  0  0  0  0  0  0
    0.8649    1.5057    1.3286 N   0  0  0  0  0  0  0  0  0  0  0  0
    1.7140    0.9617    1.4513 H   0  0  0  0  0  0  0  0  0  0  0  0
    0.7851    2.8229    1.9477 C   0  0  0  0  0  0  0  0  0  0  0  0
   -0.1754    2.9506    2.4582 H   0  0  0  0  0  0  0  0  0  0  0  0
    1.5844    2.9434    2.6853 H   0  0  0  0  0  0  0  0  0  0  0  0
    0.8897    3.6075    1.1908 H   0  0  0  0  0  0  0  0  0  0  0  0
  1  2  1  0  0  0  0
  2  3  1  0  0  0  0
  2  4  1  0  0  0  0
  2  5  1  0  0  0  0
  5  6  2  0  0  0  0
  5  7  1  0  0  0  0
  7  8  1  0  0  0  0
  7  9  1  0  0  0  0
  9 10  1  0  0  0  0
  9 11  1  0  0  0  0
  9 18  1  0  0  0  0
 11 12  1  0  0  0  0
 11 13  1  0  0  0  0
 11 14  1  0  0  0  0
 14 15  2  0  0  0  0
 14 16  1  0  0  0  0
 16 17  1  0  0  0  0
 18 19  2  0  0  0  0
 18 20  1  0  0  0  0
 20 21  1  0  0  0  0
 20 22  1  0  0  0  0
 22 23  1  0  0  0  0
 22 24  1  0  0  0  0
 22 25  1  0  0  0  0
M  END
$$$$

  -OEChem-03222214023D

 25 24  0     1  0  0  0  0  0999 V2000
   -2.7364   -3.9612    0.4453 H   0  0  0  0  0  0  0  0  0  0  0  0
   -2.7709   -2.9162    0.1250 C   0  0  0  0  0  0  0  0  0  0  0  0
   -3.3581   -2.3456    0.8486 H   0  0  0  0  0  0  0  0  0  0  0  0
   -3.2570   -2.8626   -0.8521 H   0  0  0  0  0  0  0  0  0  0  0  0
   -1.3664   -2.3501    0.0351 C   0  0  0  0  0  0  0  0  0  0  0  0
   -0.4028   -3.0657    0.2576 O   0  0  0  0  0  0  0  0  0  0  0  0
   -1.1807   -1.0249   -0.2999 N   0  0  0  0  0  0  0  0  0  0  0  0
   -2.0132   -0.4390   -0.3620 H   0  0  0  0  0  0  0  0  0  0  0  0
    0.1129   -0.3277   -0.2639 C   0  0  1  0  0  0  0  0  0  0  0  0
    0.8275   -0.9029    0.3358 H   0  0  0  0  0  0  0  0  0  0  0  0
    0.6440   -0.2039   -1.7000 C   0  0  0  0  0  0  0  0  0  0  0  0
    0.5276   -1.1606   -2.2161 H   0  0  0  0  0  0  0  0  0  0  0  0
    0.0721    0.5466   -2.2531 H   0  0  0  0  0  0  0  0  0  0  0  0
    2.1204    0.1669   -1.7173 C   0  0  0  0  0  0  0  0  0  0  0  0
    2.4406    1.3112   -1.4538 O   0  0  0  0  0  0  0  0  0  0  0  0
    3.0122   -0.8023   -2.0124 O   0  0  0  0  0  0  0  0  0  0  0  0
    3.8813   -0.3734   -1.9877 H   0  0  0  0  0  0  0  0  0  0  0  0
   -0.0506    1.0546    0.4032 C   0  0  0  0  0  0  0  0  0  0  0  0
   -1.0625    1.7092    0.1762 O   0  0  0  0  0  0  0  0  0  0  0  0
    0.8556    1.5012    1.3466 N   0  0  0  0  0  0  0  0  0  0  0  0
    1.7358    0.9983    1.4132 H   0  0  0  0  0  0  0  0  0  0  0  0
    0.7684    2.8227    1.9554 C   0  0  0  0  0  0  0  0  0  0  0  0
   -0.1990    2.9556    2.4510 H   0  0  0  0  0  0  0  0  0  0  0  0
    1.5568    2.9466    2.7038 H   0  0  0  0  0  0  0  0  0  0  0  0
    0.8849    3.6017    1.1947 H   0  0  0  0  0  0  0  0  0  0  0  0
  1  2  1  0  0  0  0
  2  3  1  0  0  0  0
  2  4  1  0  0  0  0
  2  5  1  0  0  0  0
  5  6  2  0  0  0  0
  5  7  1  0  0  0  0
  7  8  1  0  0  0  0
  7  9  1  0  0  0  0
  9 10  1  0  0  0  0
  9 11  1  0  0  0  0
  9 18  1  0  0  0  0
 11 12  1  0  0  0  0
 11 13  1  0  0  0  0
 11 14  1  0  0  0  0
 14 15  2  0  0  0  0
 14 16  1  0  0  0  0
 16 17  1  0  0  0  0
 18 19  2  0  0  0  0
 18 20  1  0  0  0  0
 20 21  1  0  0  0  0
 20 22  1  0  0  0  0
 22 23  1  0  0  0  0
 22 24  1  0  0  0  0
 22 25  1  0  0  0  0
M  END
$$$$

  -OEChem-03222214023D

 25 24  0     1  0  0  0  0  0999 V2000
   -2.7368   -3.9513    0.4510 H   0  0  0  0  0  0  0  0  0  0  0  0
   -2.7707   -2.9053    0.1337 C   0  0  0  0  0  0  0  0  0  0  0  0
   -3.3469   -2.3343    0.8658 H   0  0  0  0  0  0  0  0  0  0  0  0
   -3.2683   -2.8472   -0.8373 H   0  0  0  0  0  0  0  0  0  0  0  0
   -1.3649   -2.3449    0.0289 C   0  0  0  0  0  0  0  0  0  0  0  0
   -0.4018   -3.0658    0.2362 O   0  0  0  0  0  0  0  0  0  0  0  0
   -1.1759   -1.0195   -0.3035 N   0  0  0  0  0  0  0  0  0  0  0  0
   -2.0056   -0.4281   -0.3490 H   0  0  0  0  0  0  0  0  0  0  0  0
    0.1210   -0.3283   -0.2613 C   0  0  1  0  0  0  0  0  0  0  0  0
    0.8325   -0.9035    0.3417 H   0  0  0  0  0  0  0  0  0  0  0  0
    0.6561   -0.2063   -1.6983 C   0  0  0  0  0  0  0  0  0  0  0  0
    0.5297   -1.1638   -2.2109 H   0  0  0  0  0  0  0  0  0  0  0  0
    0.0876    0.5461   -2.2516 H   0  0  0  0  0  0  0  0  0  0  0  0
    2.1360    0.1560   -1.7370 C   0  0  0  0  0  0  0  0  0  0  0  0
    2.5066    1.1971   -1.2254 O   0  0  0  0  0  0  0  0  0  0  0  0
    2.9754   -0.7058   -2.3494 O   0  0  0  0  0  0  0  0  0  0  0  0
    3.8551   -0.3040   -2.2829 H   0  0  0  0  0  0  0  0  0  0  0  0
   -0.0540    1.0517    0.4104 C   0  0  0  0  0  0  0  0  0  0  0  0
   -1.0710    1.6991    0.1833 O   0  0  0  0  0  0  0  0  0  0  0  0
    0.8425    1.4990    1.3626 N   0  0  0  0  0  0  0  0  0  0  0  0
    1.7433    1.0287    1.3879 H   0  0  0  0  0  0  0  0  0  0  0  0
    0.7442    2.8206    1.9695 C   0  0  0  0  0  0  0  0  0  0  0  0
   -0.2261    2.9476    2.4613 H   0  0  0  0  0  0  0  0  0  0  0  0
    1.5291    2.9505    2.7209 H   0  0  0  0  0  0  0  0  0  0  0  0
    0.8586    3.5997    1.2084 H   0  0  0  0  0  0  0  0  0  0  0  0
  1  2  1  0  0  0  0
  2  3  1  0  0  0  0
  2  4  1  0  0  0  0
  2  5  1  0  0  0  0
  5  6  2  0  0  0  0
  5  7  1  0  0  0  0
  7  8  1  0  0  0  0
  7  9  1  0  0  0  0
  9 10  1  0  0  0  0
  9 11  1  0  0  0  0
  9 18  1  0  0  0  0
 11 12  1  0  0  0  0
 11 13  1  0  0  0  0
 11 14  1  0  0  0  0
 14 15  2  0  0  0  0
 14 16  1  0  0  0  0
 16 17  1  0  0  0  0
 18 19  2  0  0  0  0
 18 20  1  0  0  0  0
 20 21  1  0  0  0  0
 20 22  1  0  0  0  0
 22 23  1  0  0  0  0
 22 24  1  0  0  0  0
 22 25  1  0  0  0  0
M  END
$$$$

  -OEChem-03222214023D

 25 24  0     1  0  0  0  0  0999 V2000
   -2.7369   -3.9431    0.4561 H   0  0  0  0  0  0  0  0  0  0  0  0
   -2.7698   -2.8966    0.1405 C   0  0  0  0  0  0  0  0  0  0  0  0
   -3.3391   -2.3247    0.8771 H   0  0  0  0  0  0  0  0  0  0  0  0
   -3.2739   -2.8356   -0.8269 H   0  0  0  0  0  0  0  0  0  0  0  0
   -1.3628   -2.3407    0.0270 C   0  0  0  0  0  0  0  0  0  0  0  0
   -0.4008   -3.0657    0.2252 O   0  0  0  0  0  0  0  0  0  0  0  0
   -1.1712   -1.0157   -0.3059 N   0  0  0  0  0  0  0  0  0  0  0  0
   -1.9988   -0.4205   -0.3418 H   0  0  0  0  0  0  0  0  0  0  0  0
    0.1277   -0.3283   -0.2590 C   0  0  1  0  0  0  0  0  0  0  0  0
    0.8368   -0.9028    0.3476 H   0  0  0  0  0  0  0  0  0  0  0  0
    0.6658   -0.2088   -1.6962 C   0  0  0  0  0  0  0  0  0  0  0  0
    0.5348   -1.1685   -2.2036 H   0  0  0  0  0  0  0  0  0  0  0  0
    0.0961    0.5416   -2.2507 H   0  0  0  0  0  0  0  0  0  0  0  0
    2.1480    0.1482   -1.7557 C   0  0  0  0  0  0  0  0  0  0  0  0
    2.5860    1.0278   -1.0352 O   0  0  0  0  0  0  0  0  0  0  0  0
    2.9123   -0.5320   -2.6364 O   0  0  0  0  0  0  0  0  0  0  0  0
    3.8053   -0.1666   -2.5422 H   0  0  0  0  0  0  0  0  0  0  0  0
   -0.0545    1.0517    0.4125 C   0  0  0  0  0  0  0  0  0  0  0  0
   -1.0727    1.6959    0.1809 O   0  0  0  0  0  0  0  0  0  0  0  0
    0.8346    1.5009    1.3704 N   0  0  0  0  0  0  0  0  0  0  0  0
    1.7465    1.0497    1.3739 H   0  0  0  0  0  0  0  0  0  0  0  0
    0.7243    2.8187    1.9833 C   0  0  0  0  0  0  0  0  0  0  0  0
   -0.2488    2.9360    2.4716 H   0  0  0  0  0  0  0  0  0  0  0  0
    1.5048    2.9497    2.7388 H   0  0  0  0  0  0  0  0  0  0  0  0
    0.8363    3.6025    1.2269 H   0  0  0  0  0  0  0  0  0  0  0  0
  1  2  1  0  0  0  0
  2  3  1  0  0  0  0
  2  4  1  0  0  0  0
  2  5  1  0  0  0  0
  5  6  2  0  0  0  0
  5  7  1  0  0  0  0
  7  8  1  0  0  0  0
  7  9  1  0  0  0  0
  9 10  1  0  0  0  0
  9 11  1  0  0  0  0
  9 18  1  0  0  0  0
 11 12  1  0  0  0  0
 11 13  1  0  0  0  0
 11 14  1  0  0  0  0
 14 15  2  0  0  0  0
 14 16  1  0  0  0  0
 16 17  1  0  0  0  0
 18 19  2  0  0  0  0
 18 20  1  0  0  0  0
 20 21  1  0  0  0  0
 20 22  1  0  0  0  0
 22 23  1  0  0  0  0
 22 24  1  0  0  0  0
 22 25  1  0  0  0  0
M  END
$$$$

  -OEChem-03222214023D

 25 24  0     1  0  0  0  0  0999 V2000
   -2.7374   -3.9435    0.4623 H   0  0  0  0  0  0  0  0  0  0  0  0
   -2.7704   -2.8972    0.1457 C   0  0  0  0  0  0  0  0  0  0  0  0
   -3.3360   -2.3240    0.8844 H   0  0  0  0  0  0  0  0  0  0  0  0
   -3.2784   -2.8365   -0.8198 H   0  0  0  0  0  0  0  0  0  0  0  0
   -1.3633   -2.3427    0.0252 C   0  0  0  0  0  0  0  0  0  0  0  0
   -0.4006   -3.0691    0.2145 O   0  0  0  0  0  0  0  0  0  0  0  0
   -1.1730   -1.0176   -0.3072 N   0  0  0  0  0  0  0  0  0  0  0  0
   -2.0015   -0.4235   -0.3392 H   0  0  0  0  0  0  0  0  0  0  0  0
    0.1247   -0.3278   -0.2589 C   0  0  1  0  0  0  0  0  0  0  0  0
    0.8334   -0.9021    0.3487 H   0  0  0  0  0  0  0  0  0  0  0  0
    0.6685   -0.2059   -1.6946 C   0  0  0  0  0  0  0  0  0  0  0  0
    0.5420   -1.1669   -2.2011 H   0  0  0  0  0  0  0  0  0  0  0  0
    0.0958    0.5414   -2.2500 H   0  0  0  0  0  0  0  0  0  0  0  0
    2.1508    0.1547   -1.7622 C   0  0  0  0  0  0  0  0  0  0  0  0
    2.6565    0.8262   -0.8787 O   0  0  0  0  0  0  0  0  0  0  0  0
    2.8376   -0.2847   -2.8381 O   0  0  0  0  0  0  0  0  0  0  0  0
    3.7432    0.0395   -2.7173 H   0  0  0  0  0  0  0  0  0  0  0  0
   -0.0580    1.0520    0.4123 C   0  0  0  0  0  0  0  0  0  0  0  0
   -1.0731    1.6995    0.1763 O   0  0  0  0  0  0  0  0  0  0  0  0
    0.8315    1.4999    1.3699 N   0  0  0  0  0  0  0  0  0  0  0  0
    1.7455    1.0508    1.3632 H   0  0  0  0  0  0  0  0  0  0  0  0
    0.7228    2.8170    1.9843 C   0  0  0  0  0  0  0  0  0  0  0  0
   -0.2502    2.9347    2.4728 H   0  0  0  0  0  0  0  0  0  0  0  0
    1.5036    2.9462    2.7399 H   0  0  0  0  0  0  0  0  0  0  0  0
    0.8354    3.6017    1.2289 H   0  0  0  0  0  0  0  0  0  0  0  0
  1  2  1  0  0  0  0
  2  3  1  0  0  0  0
  2  4  1  0  0  0  0
  2  5  1  0  0  0  0
  5  6  2  0  0  0  0
  5  7  1  0  0  0  0
  7  8  1  0  0  0  0
  7  9  1  0  0  0  0
  9 10  1  0  0  0  0
  9 11  1  0  0  0  0
  9 18  1  0  0  0  0
 11 12  1  0  0  0  0
 11 13  1  0  0  0  0
 11 14  1  0  0  0  0
 14 15  2  0  0  0  0
 14 16  1  0  0  0  0
 16 17  1  0  0  0  0
 18 19  2  0  0  0  0
 18 20  1  0  0  0  0
 20 21  1  0  0  0  0
 20 22  1  0  0  0  0
 22 23  1  0  0  0  0
 22 24  1  0  0  0  0
 22 25  1  0  0  0  0
M  END
$$$$

  -OEChem-03222214023D

 25 24  0     1  0  0  0  0  0999 V2000
   -2.7313   -3.9569    0.4562 H   0  0  0  0  0  0  0  0  0  0  0  0
   -2.7695   -2.9095    0.1437 C   0  0  0  0  0  0  0  0  0  0  0  0
   -3.3372   -2.3417    0.8850 H   0  0  0  0  0  0  0  0  0  0  0  0
   -3.2787   -2.8478   -0.8212 H   0  0  0  0  0  0  0  0  0  0  0  0
   -1.3651   -2.3477    0.0256 C   0  0  0  0  0  0  0  0  0  0  0  0
   -0.3995   -3.0698    0.2159 O   0  0  0  0  0  0  0  0  0  0  0  0
   -1.1812   -1.0217   -0.3072 N   0  0  0  0  0  0  0  0  0  0  0  0
   -2.0133   -0.4334   -0.3450 H   0  0  0  0  0  0  0  0  0  0  0  0
    0.1123   -0.3239   -0.2580 C   0  0  1  0  0  0  0  0  0  0  0  0
    0.8188   -0.8983    0.3528 H   0  0  0  0  0  0  0  0  0  0  0  0
    0.6627   -0.2018   -1.6907 C   0  0  0  0  0  0  0  0  0  0  0  0
    0.5457   -1.1636   -2.1971 H   0  0  0  0  0  0  0  0  0  0  0  0
    0.0857    0.5410   -2.2478 H   0  0  0  0  0  0  0  0  0  0  0  0
    2.1428    0.1694   -1.7591 C   0  0  0  0  0  0  0  0  0  0  0  0
    2.7130    0.6041   -0.7715 O   0  0  0  0  0  0  0  0  0  0  0  0
    2.7546    0.0060   -2.9512 O   0  0  0  0  0  0  0  0  0  0  0  0
    3.6716    0.2889   -2.8127 H   0  0  0  0  0  0  0  0  0  0  0  0
   -0.0613    1.0578    0.4090 C   0  0  0  0  0  0  0  0  0  0  0  0
   -1.0678    1.7155    0.1662 O   0  0  0  0  0  0  0  0  0  0  0  0
    0.8348    1.5029    1.3613 N   0  0  0  0  0  0  0  0  0  0  0  0
    1.7404    1.0355    1.3662 H   0  0  0  0  0  0  0  0  0  0  0  0
    0.7381    2.8202    1.9773 C   0  0  0  0  0  0  0  0  0  0  0  0
   -0.2316    2.9433    2.4712 H   0  0  0  0  0  0  0  0  0  0  0  0
    1.5238    2.9436    2.7288 H   0  0  0  0  0  0  0  0  0  0  0  0
    0.8516    3.6049    1.2221 H   0  0  0  0  0  0  0  0  0  0  0  0
  1  2  1  0  0  0  0
  2  3  1  0  0  0  0
  2  4  1  0  0  0  0
  2  5  1  0  0  0  0
  5  6  2  0  0  0  0
  5  7  1  0  0  0  0
  7  8  1  0  0  0  0
  7  9  1  0  0  0  0
  9 10  1  0  0  0  0
  9 11  1  0  0  0  0
  9 18  1  0  0  0  0
 11 12  1  0  0  0  0
 11 13  1  0  0  0  0
 11 14  1  0  0  0  0
 14 15  2  0  0  0  0
 14 16  1  0  0  0  0
 16 17  1  0  0  0  0
 18 19  2  0  0  0  0
 18 20  1  0  0  0  0
 20 21  1  0  0  0  0
 20 22  1  0  0  0  0
 22 23  1  0  0  0  0
 22 24  1  0  0  0  0
 22 25  1  0  0  0  0
M  END
$$$$

  -OEChem-03222214023D

 25 24  0     1  0  0  0  0  0999 V2000
   -2.7160   -3.9775    0.4572 H   0  0  0  0  0  0  0  0  0  0  0  0
   -2.7651   -2.9332    0.1365 C   0  0  0  0  0  0  0  0  0  0  0  0
   -3.3481   -2.3677    0.8673 H   0  0  0  0  0  0  0  0  0  0  0  0
   -3.2644   -2.8853   -0.8342 H   0  0  0  0  0  0  0  0  0  0  0  0
   -1.3674   -2.3540    0.0279 C   0  0  0  0  0  0  0  0  0  0  0  0
   -0.3951   -3.0666    0.2192 O   0  0  0  0  0  0  0  0  0  0  0  0
   -1.1982   -1.0257   -0.3049 N   0  0  0  0  0  0  0  0  0  0  0  0
   -2.0375   -0.4486   -0.3513 H   0  0  0  0  0  0  0  0  0  0  0  0
    0.0872   -0.3134   -0.2591 C   0  0  1  0  0  0  0  0  0  0  0  0
    0.7904   -0.8868    0.3563 H   0  0  0  0  0  0  0  0  0  0  0  0
    0.6474   -0.1956   -1.6874 C   0  0  0  0  0  0  0  0  0  0  0  0
    0.5465   -1.1606   -2.1909 H   0  0  0  0  0  0  0  0  0  0  0  0
    0.0665    0.5385   -2.2520 H   0  0  0  0  0  0  0  0  0  0  0  0
    2.1235    0.1947   -1.7420 C   0  0  0  0  0  0  0  0  0  0  0  0
    2.7480    0.3824   -0.7097 O   0  0  0  0  0  0  0  0  0  0  0  0
    2.6726    0.3188   -2.9686 O   0  0  0  0  0  0  0  0  0  0  0  0
    3.5983    0.5624   -2.8142 H   0  0  0  0  0  0  0  0  0  0  0  0
   -0.0700    1.0699    0.4036 C   0  0  0  0  0  0  0  0  0  0  0  0
   -1.0673    1.7405    0.1609 O   0  0  0  0  0  0  0  0  0  0  0  0
    0.8428    1.5068    1.3435 N   0  0  0  0  0  0  0  0  0  0  0  0
    1.7333    1.0107    1.3618 H   0  0  0  0  0  0  0  0  0  0  0  0
    0.7722    2.8243    1.9623 C   0  0  0  0  0  0  0  0  0  0  0  0
   -0.1924    2.9632    2.4618 H   0  0  0  0  0  0  0  0  0  0  0  0
    1.5639    2.9323    2.7100 H   0  0  0  0  0  0  0  0  0  0  0  0
    0.8954    3.6089    1.2085 H   0  0  0  0  0  0  0  0  0  0  0  0
  1  2  1  0  0  0  0
  2  3  1  0  0  0  0
  2  4  1  0  0  0  0
  2  5  1  0  0  0  0
  5  6  2  0  0  0  0
  5  7  1  0  0  0  0
  7  8  1  0  0  0  0
  7  9  1  0  0  0  0
  9 10  1  0  0  0  0
  9 11  1  0  0  0  0
  9 18  1  0  0  0  0
 11 12  1  0  0  0  0
 11 13  1  0  0  0  0
 11 14  1  0  0  0  0
 14 15  2  0  0  0  0
 14 16  1  0  0  0  0
 16 17  1  0  0  0  0
 18 19  2  0  0  0  0
 18 20  1  0  0  0  0
 20 21  1  0  0  0  0
 20 22  1  0  0  0  0
 22 23  1  0  0  0  0
 22 24  1  0  0  0  0
 22 25  1  0  0  0  0
M  END
$$$$

  -OEChem-03222214023D

 25 24  0     1  0  0  0  0  0999 V2000
   -2.7078   -3.9932    0.4519 H   0  0  0  0  0  0  0  0  0  0  0  0
   -2.7627   -2.9479    0.1352 C   0  0  0  0  0  0  0  0  0  0  0  0
   -3.3494   -2.3888    0.8681 H   0  0  0  0  0  0  0  0  0  0  0  0
   -3.2618   -2.8989   -0.8354 H   0  0  0  0  0  0  0  0  0  0  0  0
   -1.3681   -2.3600    0.0297 C   0  0  0  0  0  0  0  0  0  0  0  0
   -0.3921   -3.0652    0.2287 O   0  0  0  0  0  0  0  0  0  0  0  0
   -1.2080   -1.0307   -0.3047 N   0  0  0  0  0  0  0  0  0  0  0  0
   -2.0529   -0.4632   -0.3614 H   0  0  0  0  0  0  0  0  0  0  0  0
    0.0703   -0.3047   -0.2638 C   0  0  1  0  0  0  0  0  0  0  0  0
    0.7709   -0.8761    0.3562 H   0  0  0  0  0  0  0  0  0  0  0  0
    0.6390   -0.1914   -1.6891 C   0  0  0  0  0  0  0  0  0  0  0  0
    0.5545   -1.1594   -2.1895 H   0  0  0  0  0  0  0  0  0  0  0  0
    0.0539    0.5336   -2.2616 H   0  0  0  0  0  0  0  0  0  0  0  0
    2.1103    0.2172   -1.7276 C   0  0  0  0  0  0  0  0  0  0  0  0
    2.7892    0.1554   -0.7149 O   0  0  0  0  0  0  0  0  0  0  0  0
    2.5955    0.6325   -2.9165 O   0  0  0  0  0  0  0  0  0  0  0  0
    3.5298    0.8369   -2.7570 H   0  0  0  0  0  0  0  0  0  0  0  0
   -0.0749    1.0803    0.3929 C   0  0  0  0  0  0  0  0  0  0  0  0
   -1.0630    1.7623    0.1474 O   0  0  0  0  0  0  0  0  0  0  0  0
    0.8512    1.5131    1.3215 N   0  0  0  0  0  0  0  0  0  0  0  0
    1.7184    0.9806    1.3795 H   0  0  0  0  0  0  0  0  0  0  0  0
    0.7936    2.8261    1.9509 C   0  0  0  0  0  0  0  0  0  0  0  0
   -0.1635    2.9636    2.4652 H   0  0  0  0  0  0  0  0  0  0  0  0
    1.5968    2.9273    2.6873 H   0  0  0  0  0  0  0  0  0  0  0  0
    0.9075    3.6156    1.2008 H   0  0  0  0  0  0  0  0  0  0  0  0
  1  2  1  0  0  0  0
  2  3  1  0  0  0  0
  2  4  1  0  0  0  0
  2  5  1  0  0  0  0
  5  6  2  0  0  0  0
  5  7  1  0  0  0  0
  7  8  1  0  0  0  0
  7  9  1  0  0  0  0
  9 10  1  0  0  0  0
  9 11  1  0  0  0  0
  9 18  1  0  0  0  0
 11 12  1  0  0  0  0
 11 13  1  0  0  0  0
 11 14  1  0  0  0  0
 14 15  2  0  0  0  0
 14 16  1  0  0  0  0
 16 17  1  0  0  0  0
 18 19  2  0  0  0  0
 18 20  1  0  0  0  0
 20 21  1  0  0  0  0
 20 22  1  0  0  0  0
 22 23  1  0  0  0  0
 22 24  1  0  0  0  0
 22 25  1  0  0  0  0
M  END
$$$$

  -OEChem-03222214023D

 25 24  0     1  0  0  0  0  0999 V2000
   -2.6977   -4.0012    0.4495 H   0  0  0  0  0  0  0  0  0  0  0  0
   -2.7570   -2.9562    0.1324 C   0  0  0  0  0  0  0  0  0  0  0  0
   -3.3507   -2.4008    0.8624 H   0  0  0  0  0  0  0  0  0  0  0  0
   -3.2518   -2.9109   -0.8408 H   0  0  0  0  0  0  0  0  0  0  0  0
   -1.3654   -2.3598    0.0340 C   0  0  0  0  0  0  0  0  0  0  0  0
   -0.3873   -3.0582    0.2450 O   0  0  0  0  0  0  0  0  0  0  0  0
   -1.2112   -1.0307   -0.3036 N   0  0  0  0  0  0  0  0  0  0  0  0
   -2.0594   -0.4698   -0.3736 H   0  0  0  0  0  0  0  0  0  0  0  0
    0.0629   -0.2972   -0.2681 C   0  0  1  0  0  0  0  0  0  0  0  0
    0.7644   -0.8655    0.3537 H   0  0  0  0  0  0  0  0  0  0  0  0
    0.6300   -0.1907   -1.6939 C   0  0  0  0  0  0  0  0  0  0  0  0
    0.5544   -1.1612   -2.1907 H   0  0  0  0  0  0  0  0  0  0  0  0
    0.0416    0.5282   -2.2710 H   0  0  0  0  0  0  0  0  0  0  0  0
    2.0978    0.2278   -1.7193 C   0  0  0  0  0  0  0  0  0  0  0  0
    2.8307   -0.0758   -0.7927 O   0  0  0  0  0  0  0  0  0  0  0  0
    2.5196    0.9233   -2.7965 O   0  0  0  0  0  0  0  0  0  0  0  0
    3.4633    1.0864   -2.6449 H   0  0  0  0  0  0  0  0  0  0  0  0
   -0.0738    1.0899    0.3828 C   0  0  0  0  0  0  0  0  0  0  0  0
   -1.0538    1.7807    0.1315 O   0  0  0  0  0  0  0  0  0  0  0  0
    0.8610    1.5223    1.3035 N   0  0  0  0  0  0  0  0  0  0  0  0
    1.7015    0.9563    1.4102 H   0  0  0  0  0  0  0  0  0  0  0  0
    0.8042    2.8284    1.9474 C   0  0  0  0  0  0  0  0  0  0  0  0
   -0.1476    2.9553    2.4742 H   0  0  0  0  0  0  0  0  0  0  0  0
    1.6154    2.9263    2.6753 H   0  0  0  0  0  0  0  0  0  0  0  0
    0.9053    3.6262    1.2043 H   0  0  0  0  0  0  0  0  0  0  0  0
  1  2  1  0  0  0  0
  2  3  1  0  0  0  0
  2  4  1  0  0  0  0
  2  5  1  0  0  0  0
  5  6  2  0  0  0  0
  5  7  1  0  0  0  0
  7  8  1  0  0  0  0
  7  9  1  0  0  0  0
  9 10  1  0  0  0  0
  9 11  1  0  0  0  0
  9 18  1  0  0  0  0
 11 12  1  0  0  0  0
 11 13  1  0  0  0  0
 11 14  1  0  0  0  0
 14 15  2  0  0  0  0
 14 16  1  0  0  0  0
 16 17  1  0  0  0  0
 18 19  2  0  0  0  0
 18 20  1  0  0  0  0
 20 21  1  0  0  0  0
 20 22  1  0  0  0  0
 22 23  1  0  0  0  0
 22 24  1  0  0  0  0
 22 25  1  0  0  0  0
M  END
$$$$

  -OEChem-03222214023D

 25 24  0     1  0  0  0  0  0999 V2000
   -2.6921   -4.0008    0.4481 H   0  0  0  0  0  0  0  0  0  0  0  0
   -2.7517   -2.9557    0.1316 C   0  0  0  0  0  0  0  0  0  0  0  0
   -3.3496   -2.4018    0.8593 H   0  0  0  0  0  0  0  0  0  0  0  0
   -3.2416   -2.9102   -0.8440 H   0  0  0  0  0  0  0  0  0  0  0  0
   -1.3606   -2.3574    0.0400 C   0  0  0  0  0  0  0  0  0  0  0  0
   -0.3828   -3.0524    0.2627 O   0  0  0  0  0  0  0  0  0  0  0  0
   -1.2066   -1.0293   -0.3018 N   0  0  0  0  0  0  0  0  0  0  0  0
   -2.0551   -0.4705   -0.3839 H   0  0  0  0  0  0  0  0  0  0  0  0
    0.0672   -0.2952   -0.2724 C   0  0  1  0  0  0  0  0  0  0  0  0
    0.7752   -0.8605    0.3448 H   0  0  0  0  0  0  0  0  0  0  0  0
    0.6236   -0.1896   -1.7012 C   0  0  0  0  0  0  0  0  0  0  0  0
    0.5490   -1.1604   -2.1977 H   0  0  0  0  0  0  0  0  0  0  0  0
    0.0332    0.5290   -2.2769 H   0  0  0  0  0  0  0  0  0  0  0  0
    2.0894    0.2296   -1.7172 C   0  0  0  0  0  0  0  0  0  0  0  0
    2.8702   -0.2980   -0.9447 O   0  0  0  0  0  0  0  0  0  0  0  0
    2.4546    1.1802   -2.6029 O   0  0  0  0  0  0  0  0  0  0  0  0
    3.4079    1.3008   -2.4738 H   0  0  0  0  0  0  0  0  0  0  0  0
   -0.0692    1.0931    0.3751 C   0  0  0  0  0  0  0  0  0  0  0  0
   -1.0460    1.7863    0.1188 O   0  0  0  0  0  0  0  0  0  0  0  0
    0.8675    1.5291    1.2923 N   0  0  0  0  0  0  0  0  0  0  0  0
    1.6814    0.9376    1.4484 H   0  0  0  0  0  0  0  0  0  0  0  0
    0.8030    2.8300    1.9460 C   0  0  0  0  0  0  0  0  0  0  0  0
   -0.1432    2.9412    2.4861 H   0  0  0  0  0  0  0  0  0  0  0  0
    1.6229    2.9333    2.6633 H   0  0  0  0  0  0  0  0  0  0  0  0
    0.8845    3.6341    1.2073 H   0  0  0  0  0  0  0  0  0  0  0  0
  1  2  1  0  0  0  0
  2  3  1  0  0  0  0
  2  4  1  0  0  0  0
  2  5  1  0  0  0  0
  5  6  2  0  0  0  0
  5  7  1  0  0  0  0
  7  8  1  0  0  0  0
  7  9  1  0  0  0  0
  9 10  1  0  0  0  0
  9 11  1  0  0  0  0
  9 18  1  0  0  0  0
 11 12  1  0  0  0  0
 11 13  1  0  0  0  0
 11 14  1  0  0  0  0
 14 15  2  0  0  0  0
 14 16  1  0  0  0  0
 16 17  1  0  0  0  0
 18 19  2  0  0  0  0
 18 20  1  0  0  0  0
 20 21  1  0  0  0  0
 20 22  1  0  0  0  0
 22 23  1  0  0  0  0
 22 24  1  0  0  0  0
 22 25  1  0  0  0  0
M  END
$$$$

  -OEChem-03222214023D

 25 24  0     1  0  0  0  0  0999 V2000
   -2.6903   -3.9970    0.4478 H   0  0  0  0  0  0  0  0  0  0  0  0
   -2.7474   -2.9519    0.1303 C   0  0  0  0  0  0  0  0  0  0  0  0
   -3.3486   -2.3962    0.8541 H   0  0  0  0  0  0  0  0  0  0  0  0
   -3.2330   -2.9064   -0.8474 H   0  0  0  0  0  0  0  0  0  0  0  0
   -1.3551   -2.3551    0.0452 C   0  0  0  0  0  0  0  0  0  0  0  0
   -0.3796   -3.0486    0.2814 O   0  0  0  0  0  0  0  0  0  0  0  0
   -1.1984   -1.0281   -0.2993 N   0  0  0  0  0  0  0  0  0  0  0  0
   -2.0458   -0.4697   -0.3937 H   0  0  0  0  0  0  0  0  0  0  0  0
    0.0768   -0.2965   -0.2758 C   0  0  1  0  0  0  0  0  0  0  0  0
    0.7943   -0.8602    0.3320 H   0  0  0  0  0  0  0  0  0  0  0  0
    0.6178   -0.1880   -1.7089 C   0  0  0  0  0  0  0  0  0  0  0  0
    0.5402   -1.1575   -2.2079 H   0  0  0  0  0  0  0  0  0  0  0  0
    0.0268    0.5333   -2.2805 H   0  0  0  0  0  0  0  0  0  0  0  0
    2.0825    0.2275   -1.7178 C   0  0  0  0  0  0  0  0  0  0  0  0
    2.8998   -0.4816   -1.1597 O   0  0  0  0  0  0  0  0  0  0  0  0
    2.4048    1.3811   -2.3399 O   0  0  0  0  0  0  0  0  0  0  0  0
    3.3664    1.4644   -2.2486 H   0  0  0  0  0  0  0  0  0  0  0  0
   -0.0628    1.0924    0.3714 C   0  0  0  0  0  0  0  0  0  0  0  0
   -1.0404    1.7836    0.1132 O   0  0  0  0  0  0  0  0  0  0  0  0
    0.8726    1.5340    1.2878 N   0  0  0  0  0  0  0  0  0  0  0  0
    1.6698    0.9305    1.4767 H   0  0  0  0  0  0  0  0  0  0  0  0
    0.7969    2.8319    1.9466 C   0  0  0  0  0  0  0  0  0  0  0  0
   -0.1474    2.9314    2.4921 H   0  0  0  0  0  0  0  0  0  0  0  0
    1.6198    2.9425    2.6594 H   0  0  0  0  0  0  0  0  0  0  0  0
    0.8650    3.6391    1.2098 H   0  0  0  0  0  0  0  0  0  0  0  0
  1  2  1  0  0  0  0
  2  3  1  0  0  0  0
  2  4  1  0  0  0  0
  2  5  1  0  0  0  0
  5  6  2  0  0  0  0
  5  7  1  0  0  0  0
  7  8  1  0  0  0  0
  7  9  1  0  0  0  0
  9 10  1  0  0  0  0
  9 11  1  0  0  0  0
  9 18  1  0  0  0  0
 11 12  1  0  0  0  0
 11 13  1  0  0  0  0
 11 14  1  0  0  0  0
 14 15  2  0  0  0  0
 14 16  1  0  0  0  0
 16 17  1  0  0  0  0
 18 19  2  0  0  0  0
 18 20  1  0  0  0  0
 20 21  1  0  0  0  0
 20 22  1  0  0  0  0
 22 23  1  0  0  0  0
 22 24  1  0  0  0  0
 22 25  1  0  0  0  0
M  END
$$$$

  -OEChem-03222214023D

 25 24  0     1  0  0  0  0  0999 V2000
   -2.6906   -3.9928    0.4462 H   0  0  0  0  0  0  0  0  0  0  0  0
   -2.7442   -2.9483    0.1266 C   0  0  0  0  0  0  0  0  0  0  0  0
   -3.3471   -2.3901    0.8468 H   0  0  0  0  0  0  0  0  0  0  0  0
   -3.2252   -2.9039   -0.8535 H   0  0  0  0  0  0  0  0  0  0  0  0
   -1.3508   -2.3534    0.0469 C   0  0  0  0  0  0  0  0  0  0  0  0
   -0.3769   -3.0461    0.2919 O   0  0  0  0  0  0  0  0  0  0  0  0
   -1.1916   -1.0266   -0.2973 N   0  0  0  0  0  0  0  0  0  0  0  0
   -2.0379   -0.4663   -0.3918 H   0  0  0  0  0  0  0  0  0  0  0  0
    0.0859   -0.2987   -0.2756 C   0  0  1  0  0  0  0  0  0  0  0  0
    0.8093   -0.8631    0.3245 H   0  0  0  0  0  0  0  0  0  0  0  0
    0.6158   -0.1852   -1.7117 C   0  0  0  0  0  0  0  0  0  0  0  0
    0.5302   -1.1515   -2.2160 H   0  0  0  0  0  0  0  0  0  0  0  0
    0.0272    0.5432   -2.2768 H   0  0  0  0  0  0  0  0  0  0  0  0
    2.0808    0.2246   -1.7183 C   0  0  0  0  0  0  0  0  0  0  0  0
    2.9215   -0.6027   -1.4199 O   0  0  0  0  0  0  0  0  0  0  0  0
    2.3780    1.5021   -2.0359 O   0  0  0  0  0  0  0  0  0  0  0  0
    3.3452    1.5590   -1.9993 H   0  0  0  0  0  0  0  0  0  0  0  0
   -0.0594    1.0892    0.3747 C   0  0  0  0  0  0  0  0  0  0  0  0
   -1.0417    1.7749    0.1185 O   0  0  0  0  0  0  0  0  0  0  0  0
    0.8714    1.5355    1.2939 N   0  0  0  0  0  0  0  0  0  0  0  0
    1.6700    0.9367    1.4879 H   0  0  0  0  0  0  0  0  0  0  0  0
    0.7877    2.8350    1.9489 C   0  0  0  0  0  0  0  0  0  0  0  0
   -0.1604    2.9330    2.4882 H   0  0  0  0  0  0  0  0  0  0  0  0
    1.6056    2.9505    2.6667 H   0  0  0  0  0  0  0  0  0  0  0  0
    0.8581    3.6407    1.2105 H   0  0  0  0  0  0  0  0  0  0  0  0
  1  2  1  0  0  0  0
  2  3  1  0  0  0  0
  2  4  1  0  0  0  0
  2  5  1  0  0  0  0
  5  6  2  0  0  0  0
  5  7  1  0  0  0  0
  7  8  1  0  0  0  0
  7  9  1  0  0  0  0
  9 10  1  0  0  0  0
  9 11  1  0  0  0  0
  9 18  1  0  0  0  0
 11 12  1  0  0  0  0
 11 13  1  0  0  0  0
 11 14  1  0  0  0  0
 14 15  2  0  0  0  0
 14 16  1  0  0  0  0
 16 17  1  0  0  0  0
 18 19  2  0  0  0  0
 18 20  1  0  0  0  0
 20 21  1  0  0  0  0
 20 22  1  0  0  0  0
 22 23  1  0  0  0  0
 22 24  1  0  0  0  0
 22 25  1  0  0  0  0
M  END
$$$$

  -OEChem-03222214023D

 25 24  0     1  0  0  0  0  0999 V2000
   -2.6903   -3.9899    0.4343 H   0  0  0  0  0  0  0  0  0  0  0  0
   -2.7427   -2.9435    0.1205 C   0  0  0  0  0  0  0  0  0  0  0  0
   -3.3473   -2.3895    0.8426 H   0  0  0  0  0  0  0  0  0  0  0  0
   -3.2212   -2.8934   -0.8605 H   0  0  0  0  0  0  0  0  0  0  0  0
   -1.3485   -2.3495    0.0478 C   0  0  0  0  0  0  0  0  0  0  0  0
   -0.3764   -3.0422    0.3005 O   0  0  0  0  0  0  0  0  0  0  0  0
   -1.1842   -1.0228   -0.2941 N   0  0  0  0  0  0  0  0  0  0  0  0
   -2.0276   -0.4588   -0.3926 H   0  0  0  0  0  0  0  0  0  0  0  0
    0.0968   -0.3014   -0.2686 C   0  0  1  0  0  0  0  0  0  0  0  0
    0.8230   -0.8669    0.3267 H   0  0  0  0  0  0  0  0  0  0  0  0
    0.6191   -0.1821   -1.7074 C   0  0  0  0  0  0  0  0  0  0  0  0
    0.5204   -1.1449   -2.2170 H   0  0  0  0  0  0  0  0  0  0  0  0
    0.0336    0.5548   -2.2643 H   0  0  0  0  0  0  0  0  0  0  0  0
    2.0868    0.2184   -1.7231 C   0  0  0  0  0  0  0  0  0  0  0  0
    2.9300   -0.6581   -1.7118 O   0  0  0  0  0  0  0  0  0  0  0  0
    2.3867    1.5343   -1.7297 O   0  0  0  0  0  0  0  0  0  0  0  0
    3.3548    1.5765   -1.7661 H   0  0  0  0  0  0  0  0  0  0  0  0
   -0.0594    1.0844    0.3872 C   0  0  0  0  0  0  0  0  0  0  0  0
   -1.0479    1.7620    0.1319 O   0  0  0  0  0  0  0  0  0  0  0  0
    0.8613    1.5349    1.3148 N   0  0  0  0  0  0  0  0  0  0  0  0
    1.6713    0.9497    1.5006 H   0  0  0  0  0  0  0  0  0  0  0  0
    0.7719    2.8400    1.9576 C   0  0  0  0  0  0  0  0  0  0  0  0
   -0.1788    2.9406    2.4918 H   0  0  0  0  0  0  0  0  0  0  0  0
    1.5864    2.9640    2.6776 H   0  0  0  0  0  0  0  0  0  0  0  0
    0.8436    3.6388    1.2120 H   0  0  0  0  0  0  0  0  0  0  0  0
  1  2  1  0  0  0  0
  2  3  1  0  0  0  0
  2  4  1  0  0  0  0
  2  5  1  0  0  0  0
  5  6  2  0  0  0  0
  5  7  1  0  0  0  0
  7  8  1  0  0  0  0
  7  9  1  0  0  0  0
  9 10  1  0  0  0  0
  9 11  1  0  0  0  0
  9 18  1  0  0  0  0
 11 12  1  0  0  0  0
 11 13  1  0  0  0  0
 11 14  1  0  0  0  0
 14 15  2  0  0  0  0
 14 16  1  0  0  0  0
 16 17  1  0  0  0  0
 18 19  2  0  0  0  0
 18 20  1  0  0  0  0
 20 21  1  0  0  0  0
 20 22  1  0  0  0  0
 22 23  1  0  0  0  0
 22 24  1  0  0  0  0
 22 25  1  0  0  0  0
M  END
$$$$

  -OEChem-03222214023D

 25 24  0     1  0  0  0  0  0999 V2000
   -2.6961   -3.9825    0.4236 H   0  0  0  0  0  0  0  0  0  0  0  0
   -2.7428   -2.9351    0.1127 C   0  0  0  0  0  0  0  0  0  0  0  0
   -3.3489   -2.3809    0.8334 H   0  0  0  0  0  0  0  0  0  0  0  0
   -3.2161   -2.8801   -0.8706 H   0  0  0  0  0  0  0  0  0  0  0  0
   -1.3463   -2.3459    0.0486 C   0  0  0  0  0  0  0  0  0  0  0  0
   -0.3771   -3.0419    0.3039 O   0  0  0  0  0  0  0  0  0  0  0  0
   -1.1756   -1.0191   -0.2891 N   0  0  0  0  0  0  0  0  0  0  0  0
   -2.0161   -0.4498   -0.3832 H   0  0  0  0  0  0  0  0  0  0  0  0
    0.1089   -0.3043   -0.2552 C   0  0  1  0  0  0  0  0  0  0  0  0
    0.8334   -0.8713    0.3406 H   0  0  0  0  0  0  0  0  0  0  0  0
    0.6288   -0.1836   -1.6964 C   0  0  0  0  0  0  0  0  0  0  0  0
    0.5158   -1.1447   -2.2069 H   0  0  0  0  0  0  0  0  0  0  0  0
    0.0450    0.5593   -2.2466 H   0  0  0  0  0  0  0  0  0  0  0  0
    2.0999    0.2074   -1.7334 C   0  0  0  0  0  0  0  0  0  0  0  0
    2.9193   -0.6472   -2.0120 O   0  0  0  0  0  0  0  0  0  0  0  0
    2.4321    1.4856   -1.4541 O   0  0  0  0  0  0  0  0  0  0  0  0
    3.3936    1.5299   -1.5739 H   0  0  0  0  0  0  0  0  0  0  0  0
   -0.0619    1.0780    0.4069 C   0  0  0  0  0  0  0  0  0  0  0  0
   -1.0569    1.7466    0.1504 O   0  0  0  0  0  0  0  0  0  0  0  0
    0.8449    1.5323    1.3464 N   0  0  0  0  0  0  0  0  0  0  0  0
    1.6798    0.9748    1.5021 H   0  0  0  0  0  0  0  0  0  0  0  0
    0.7481    2.8435    1.9757 C   0  0  0  0  0  0  0  0  0  0  0  0
   -0.2144    2.9547    2.4861 H   0  0  0  0  0  0  0  0  0  0  0  0
    1.5454    2.9685    2.7146 H   0  0  0  0  0  0  0  0  0  0  0  0
    0.8428    3.6352    1.2252 H   0  0  0  0  0  0  0  0  0  0  0  0
  1  2  1  0  0  0  0
  2  3  1  0  0  0  0
  2  4  1  0  0  0  0
  2  5  1  0  0  0  0
  5  6  2  0  0  0  0
  5  7  1  0  0  0  0
  7  8  1  0  0  0  0
  7  9  1  0  0  0  0
  9 10  1  0  0  0  0
  9 11  1  0  0  0  0
  9 18  1  0  0  0  0
 11 12  1  0  0  0  0
 11 13  1  0  0  0  0
 11 14  1  0  0  0  0
 14 15  2  0  0  0  0
 14 16  1  0  0  0  0
 16 17  1  0  0  0  0
 18 19  2  0  0  0  0
 18 20  1  0  0  0  0
 20 21  1  0  0  0  0
 20 22  1  0  0  0  0
 22 23  1  0  0  0  0
 22 24  1  0  0  0  0
 22 25  1  0  0  0  0
M  END
$$$$

  -OEChem-03222214023D

 25 24  0     1  0  0  0  0  0999 V2000
   -2.7027   -3.9750    0.4161 H   0  0  0  0  0  0  0  0  0  0  0  0
   -2.7432   -2.9283    0.1021 C   0  0  0  0  0  0  0  0  0  0  0  0
   -3.3580   -2.3712    0.8131 H   0  0  0  0  0  0  0  0  0  0  0  0
   -3.2029   -2.8748   -0.8878 H   0  0  0  0  0  0  0  0  0  0  0  0
   -1.3447   -2.3426    0.0545 C   0  0  0  0  0  0  0  0  0  0  0  0
   -0.3790   -3.0430    0.3120 O   0  0  0  0  0  0  0  0  0  0  0  0
   -1.1668   -1.0159   -0.2795 N   0  0  0  0  0  0  0  0  0  0  0  0
   -2.0037   -0.4412   -0.3739 H   0  0  0  0  0  0  0  0  0  0  0  0
    0.1213   -0.3087   -0.2379 C   0  0  1  0  0  0  0  0  0  0  0  0
    0.8446   -0.8766    0.3579 H   0  0  0  0  0  0  0  0  0  0  0  0
    0.6363   -0.1855   -1.6821 C   0  0  0  0  0  0  0  0  0  0  0  0
    0.5069   -1.1442   -2.1936 H   0  0  0  0  0  0  0  0  0  0  0  0
    0.0517    0.5638   -2.2224 H   0  0  0  0  0  0  0  0  0  0  0  0
    2.1110    0.1948   -1.7482 C   0  0  0  0  0  0  0  0  0  0  0  0
    2.8745   -0.5721   -2.3036 O   0  0  0  0  0  0  0  0  0  0  0  0
    2.5113    1.3609   -1.1975 O   0  0  0  0  0  0  0  0  0  0  0  0
    3.4594    1.4188   -1.3958 H   0  0  0  0  0  0  0  0  0  0  0  0
   -0.0638    1.0705    0.4298 C   0  0  0  0  0  0  0  0  0  0  0  0
   -1.0621    1.7324    0.1674 O   0  0  0  0  0  0  0  0  0  0  0  0
    0.8287    1.5290    1.3808 N   0  0  0  0  0  0  0  0  0  0  0  0
    1.6920    1.0061    1.4960 H   0  0  0  0  0  0  0  0  0  0  0  0
    0.7246    2.8475    1.9933 C   0  0  0  0  0  0  0  0  0  0  0  0
   -0.2537    2.9744    2.4689 H   0  0  0  0  0  0  0  0  0  0  0  0
    1.4967    2.9710    2.7586 H   0  0  0  0  0  0  0  0  0  0  0  0
    0.8540    3.6301    1.2383 H   0  0  0  0  0  0  0  0  0  0  0  0
  1  2  1  0  0  0  0
  2  3  1  0  0  0  0
  2  4  1  0  0  0  0
  2  5  1  0  0  0  0
  5  6  2  0  0  0  0
  5  7  1  0  0  0  0
  7  8  1  0  0  0  0
  7  9  1  0  0  0  0
  9 10  1  0  0  0  0
  9 11  1  0  0  0  0
  9 18  1  0  0  0  0
 11 12  1  0  0  0  0
 11 13  1  0  0  0  0
 11 14  1  0  0  0  0
 14 15  2  0  0  0  0
 14 16  1  0  0  0  0
 16 17  1  0  0  0  0
 18 19  2  0  0  0  0
 18 20  1  0  0  0  0
 20 21  1  0  0  0  0
 20 22  1  0  0  0  0
 22 23  1  0  0  0  0
 22 24  1  0  0  0  0
 22 25  1  0  0  0  0
M  END
$$$$

  -OEChem-03222214023D

 25 24  0     1  0  0  0  0  0999 V2000
   -2.7103   -3.9615    0.4161 H   0  0  0  0  0  0  0  0  0  0  0  0
   -2.7474   -2.9117    0.1115 C   0  0  0  0  0  0  0  0  0  0  0  0
   -3.3456   -2.3559    0.8375 H   0  0  0  0  0  0  0  0  0  0  0  0
   -3.2236   -2.8463   -0.8698 H   0  0  0  0  0  0  0  0  0  0  0  0
   -1.3451   -2.3363    0.0457 C   0  0  0  0  0  0  0  0  0  0  0  0
   -0.3809   -3.0448    0.2874 O   0  0  0  0  0  0  0  0  0  0  0  0
   -1.1609   -1.0104   -0.2879 N   0  0  0  0  0  0  0  0  0  0  0  0
   -1.9950   -0.4287   -0.3659 H   0  0  0  0  0  0  0  0  0  0  0  0
    0.1311   -0.3098   -0.2366 C   0  0  1  0  0  0  0  0  0  0  0  0
    0.8481   -0.8780    0.3666 H   0  0  0  0  0  0  0  0  0  0  0  0
    0.6558   -0.1914   -1.6790 C   0  0  0  0  0  0  0  0  0  0  0  0
    0.5212   -1.1519   -2.1860 H   0  0  0  0  0  0  0  0  0  0  0  0
    0.0751    0.5583   -2.2227 H   0  0  0  0  0  0  0  0  0  0  0  0
    2.1339    0.1793   -1.7586 C   0  0  0  0  0  0  0  0  0  0  0  0
    2.8271   -0.4398   -2.5435 O   0  0  0  0  0  0  0  0  0  0  0  0
    2.6197    1.1605   -0.9673 O   0  0  0  0  0  0  0  0  0  0  0  0
    3.5538    1.2396   -1.2195 H   0  0  0  0  0  0  0  0  0  0  0  0
   -0.0655    1.0692    0.4314 C   0  0  0  0  0  0  0  0  0  0  0  0
   -1.0695    1.7225    0.1680 O   0  0  0  0  0  0  0  0  0  0  0  0
    0.8136    1.5305    1.3930 N   0  0  0  0  0  0  0  0  0  0  0  0
    1.7006    1.0404    1.4711 H   0  0  0  0  0  0  0  0  0  0  0  0
    0.6889    2.8433    2.0144 C   0  0  0  0  0  0  0  0  0  0  0  0
   -0.2899    2.9500    2.4940 H   0  0  0  0  0  0  0  0  0  0  0  0
    1.4611    2.9747    2.7785 H   0  0  0  0  0  0  0  0  0  0  0  0
    0.8023    3.6336    1.2650 H   0  0  0  0  0  0  0  0  0  0  0  0
  1  2  1  0  0  0  0
  2  3  1  0  0  0  0
  2  4  1  0  0  0  0
  2  5  1  0  0  0  0
  5  6  2  0  0  0  0
  5  7  1  0  0  0  0
  7  8  1  0  0  0  0
  7  9  1  0  0  0  0
  9 10  1  0  0  0  0
  9 11  1  0  0  0  0
  9 18  1  0  0  0  0
 11 12  1  0  0  0  0
 11 13  1  0  0  0  0
 11 14  1  0  0  0  0
 14 15  2  0  0  0  0
 14 16  1  0  0  0  0
 16 17  1  0  0  0  0
 18 19  2  0  0  0  0
 18 20  1  0  0  0  0
 20 21  1  0  0  0  0
 20 22  1  0  0  0  0
 22 23  1  0  0  0  0
 22 24  1  0  0  0  0
 22 25  1  0  0  0  0
M  END
$$$$

  -OEChem-03222214023D

 25 24  0     1  0  0  0  0  0999 V2000
   -2.7149   -3.9576    0.4187 H   0  0  0  0  0  0  0  0  0  0  0  0
   -2.7505   -2.9083    0.1130 C   0  0  0  0  0  0  0  0  0  0  0  0
   -3.3473   -2.3505    0.8387 H   0  0  0  0  0  0  0  0  0  0  0  0
   -3.2270   -2.8431   -0.8681 H   0  0  0  0  0  0  0  0  0  0  0  0
   -1.3473   -2.3355    0.0459 C   0  0  0  0  0  0  0  0  0  0  0  0
   -0.3840   -3.0458    0.2864 O   0  0  0  0  0  0  0  0  0  0  0  0
   -1.1612   -1.0103   -0.2891 N   0  0  0  0  0  0  0  0  0  0  0  0
   -1.9944   -0.4271   -0.3653 H   0  0  0  0  0  0  0  0  0  0  0  0
    0.1313   -0.3114   -0.2338 C   0  0  1  0  0  0  0  0  0  0  0  0
    0.8454   -0.8795    0.3729 H   0  0  0  0  0  0  0  0  0  0  0  0
    0.6628   -0.1890   -1.6735 C   0  0  0  0  0  0  0  0  0  0  0  0
    0.5317   -1.1495   -2.1807 H   0  0  0  0  0  0  0  0  0  0  0  0
    0.0818    0.5604   -2.2179 H   0  0  0  0  0  0  0  0  0  0  0  0
    2.1417    0.1803   -1.7562 C   0  0  0  0  0  0  0  0  0  0  0  0
    2.7616   -0.2287   -2.7197 O   0  0  0  0  0  0  0  0  0  0  0  0
    2.7166    0.9013   -0.7673 O   0  0  0  0  0  0  0  0  0  0  0  0
    3.6396    1.0067   -1.0503 H   0  0  0  0  0  0  0  0  0  0  0  0
   -0.0680    1.0686    0.4316 C   0  0  0  0  0  0  0  0  0  0  0  0
   -1.0715    1.7211    0.1648 O   0  0  0  0  0  0  0  0  0  0  0  0
    0.8071    1.5305    1.3959 N   0  0  0  0  0  0  0  0  0  0  0  0
    1.7035    1.0531    1.4537 H   0  0  0  0  0  0  0  0  0  0  0  0
    0.6794    2.8432    2.0165 C   0  0  0  0  0  0  0  0  0  0  0  0
   -0.3017    2.9500    2.4913 H   0  0  0  0  0  0  0  0  0  0  0  0
    1.4477    2.9741    2.7845 H   0  0  0  0  0  0  0  0  0  0  0  0
    0.7966    3.6335    1.2678 H   0  0  0  0  0  0  0  0  0  0  0  0
  1  2  1  0  0  0  0
  2  3  1  0  0  0  0
  2  4  1  0  0  0  0
  2  5  1  0  0  0  0
  5  6  2  0  0  0  0
  5  7  1  0  0  0  0
  7  8  1  0  0  0  0
  7  9  1  0  0  0  0
  9 10  1  0  0  0  0
  9 11  1  0  0  0  0
  9 18  1  0  0  0  0
 11 12  1  0  0  0  0
 11 13  1  0  0  0  0
 11 14  1  0  0  0  0
 14 15  2  0  0  0  0
 14 16  1  0  0  0  0
 16 17  1  0  0  0  0
 18 19  2  0  0  0  0
 18 20  1  0  0  0  0
 20 21  1  0  0  0  0
 20 22  1  0  0  0  0
 22 23  1  0  0  0  0
 22 24  1  0  0  0  0
 22 25  1  0  0  0  0
M  END
$$$$

  -OEChem-03222214023D

 25 24  0     1  0  0  0  0  0999 V2000
   -2.7203   -3.9635    0.4203 H   0  0  0  0  0  0  0  0  0  0  0  0
   -2.7572   -2.9146    0.1132 C   0  0  0  0  0  0  0  0  0  0  0  0
   -3.3532   -2.3562    0.8390 H   0  0  0  0  0  0  0  0  0  0  0  0
   -3.2357   -2.8512   -0.8671 H   0  0  0  0  0  0  0  0  0  0  0  0
   -1.3548   -2.3402    0.0437 C   0  0  0  0  0  0  0  0  0  0  0  0
   -0.3903   -3.0497    0.2816 O   0  0  0  0  0  0  0  0  0  0  0  0
   -1.1709   -1.0149   -0.2929 N   0  0  0  0  0  0  0  0  0  0  0  0
   -2.0055   -0.4346   -0.3732 H   0  0  0  0  0  0  0  0  0  0  0  0
    0.1193   -0.3118   -0.2337 C   0  0  1  0  0  0  0  0  0  0  0  0
    0.8268   -0.8808    0.3800 H   0  0  0  0  0  0  0  0  0  0  0  0
    0.6665   -0.1905   -1.6665 C   0  0  0  0  0  0  0  0  0  0  0  0
    0.5492   -1.1531   -2.1724 H   0  0  0  0  0  0  0  0  0  0  0  0
    0.0879    0.5546   -2.2193 H   0  0  0  0  0  0  0  0  0  0  0  0
    2.1444    0.1850   -1.7335 C   0  0  0  0  0  0  0  0  0  0  0  0
    2.7040    0.0254   -2.8015 O   0  0  0  0  0  0  0  0  0  0  0  0
    2.7846    0.6336   -0.6282 O   0  0  0  0  0  0  0  0  0  0  0  0
    3.6983    0.7824   -0.9227 H   0  0  0  0  0  0  0  0  0  0  0  0
   -0.0695    1.0714    0.4258 C   0  0  0  0  0  0  0  0  0  0  0  0
   -1.0647    1.7336    0.1532 O   0  0  0  0  0  0  0  0  0  0  0  0
    0.8112    1.5284    1.3869 N   0  0  0  0  0  0  0  0  0  0  0  0
    1.7003    1.0368    1.4502 H   0  0  0  0  0  0  0  0  0  0  0  0
    0.6962    2.8429    2.0065 C   0  0  0  0  0  0  0  0  0  0  0  0
   -0.2819    2.9573    2.4857 H   0  0  0  0  0  0  0  0  0  0  0  0
    1.4691    2.9694    2.7707 H   0  0  0  0  0  0  0  0  0  0  0  0
    0.8153    3.6315    1.2562 H   0  0  0  0  0  0  0  0  0  0  0  0
  1  2  1  0  0  0  0
  2  3  1  0  0  0  0
  2  4  1  0  0  0  0
  2  5  1  0  0  0  0
  5  6  2  0  0  0  0
  5  7  1  0  0  0  0
  7  8  1  0  0  0  0
  7  9  1  0  0  0  0
  9 10  1  0  0  0  0
  9 11  1  0  0  0  0
  9 18  1  0  0  0  0
 11 12  1  0  0  0  0
 11 13  1  0  0  0  0
 11 14  1  0  0  0  0
 14 15  2  0  0  0  0
 14 16  1  0  0  0  0
 16 17  1  0  0  0  0
 18 19  2  0  0  0  0
 18 20  1  0  0  0  0
 20 21  1  0  0  0  0
 20 22  1  0  0  0  0
 22 23  1  0  0  0  0
 22 24  1  0  0  0  0
 22 25  1  0  0  0  0
M  END
$$$$

  -OEChem-03222214023D

 25 24  0     1  0  0  0  0  0999 V2000
   -2.7351   -3.9905    0.4273 H   0  0  0  0  0  0  0  0  0  0  0  0
   -2.7817   -2.9449    0.1103 C   0  0  0  0  0  0  0  0  0  0  0  0
   -3.3857   -2.3859    0.8291 H   0  0  0  0  0  0  0  0  0  0  0  0
   -3.2574   -2.8952   -0.8721 H   0  0  0  0  0  0  0  0  0  0  0  0
   -1.3848   -2.3576    0.0393 C   0  0  0  0  0  0  0  0  0  0  0  0
   -0.4145   -3.0591    0.2771 O   0  0  0  0  0  0  0  0  0  0  0  0
   -1.2153   -1.0309   -0.3013 N   0  0  0  0  0  0  0  0  0  0  0  0
   -2.0580   -0.4655   -0.3976 H   0  0  0  0  0  0  0  0  0  0  0  0
    0.0635   -0.3062   -0.2477 C   0  0  1  0  0  0  0  0  0  0  0  0
    0.7382   -0.8809    0.3959 H   0  0  0  0  0  0  0  0  0  0  0  0
    0.6660   -0.2123   -1.6618 C   0  0  0  0  0  0  0  0  0  0  0  0
    0.3721   -1.0959   -2.2346 H   0  0  0  0  0  0  0  0  0  0  0  0
    0.2727    0.6679   -2.1784 H   0  0  0  0  0  0  0  0  0  0  0  0
    2.1919   -0.1648   -1.6718 C   0  0  0  0  0  0  0  0  0  0  0  0
    2.7317   -0.0914   -2.7593 O   0  0  0  0  0  0  0  0  0  0  0  0
    2.8791   -0.1286   -0.5046 O   0  0  0  0  0  0  0  0  0  0  0  0
    3.8122   -0.0992   -0.7722 H   0  0  0  0  0  0  0  0  0  0  0  0
   -0.0712    1.0849    0.3946 C   0  0  0  0  0  0  0  0  0  0  0  0
   -1.0469    1.7782    0.1338 O   0  0  0  0  0  0  0  0  0  0  0  0
    0.8522    1.5139    1.3277 N   0  0  0  0  0  0  0  0  0  0  0  0
    1.6909    0.9474    1.4393 H   0  0  0  0  0  0  0  0  0  0  0  0
    0.7946    2.8235    1.9642 C   0  0  0  0  0  0  0  0  0  0  0  0
   -0.1635    2.9588    2.4772 H   0  0  0  0  0  0  0  0  0  0  0  0
    1.5961    2.9205    2.7027 H   0  0  0  0  0  0  0  0  0  0  0  0
    0.9103    3.6169    1.2185 H   0  0  0  0  0  0  0  0  0  0  0  0
  1  2  1  0  0  0  0
  2  3  1  0  0  0  0
  2  4  1  0  0  0  0
  2  5  1  0  0  0  0
  5  6  2  0  0  0  0
  5  7  1  0  0  0  0
  7  8  1  0  0  0  0
  7  9  1  0  0  0  0
  9 10  1  0  0  0  0
  9 11  1  0  0  0  0
  9 18  1  0  0  0  0
 11 12  1  0  0  0  0
 11 13  1  0  0  0  0
 11 14  1  0  0  0  0
 14 15  2  0  0  0  0
 14 16  1  0  0  0  0
 16 17  1  0  0  0  0
 18 19  2  0  0  0  0
 18 20  1  0  0  0  0
 20 21  1  0  0  0  0
 20 22  1  0  0  0  0
 22 23  1  0  0  0  0
 22 24  1  0  0  0  0
 22 25  1  0  0  0  0
M  END
$$$$

  -OEChem-03222214023D

 25 24  0     1  0  0  0  0  0999 V2000
   -2.7409   -3.9872    0.4281 H   0  0  0  0  0  0  0  0  0  0  0  0
   -2.7848   -2.9417    0.1104 C   0  0  0  0  0  0  0  0  0  0  0  0
   -3.3906   -2.3816    0.8269 H   0  0  0  0  0  0  0  0  0  0  0  0
   -3.2568   -2.8916   -0.8738 H   0  0  0  0  0  0  0  0  0  0  0  0
   -1.3869   -2.3562    0.0442 C   0  0  0  0  0  0  0  0  0  0  0  0
   -0.4190   -3.0582    0.2890 O   0  0  0  0  0  0  0  0  0  0  0  0
   -1.2146   -1.0309   -0.3007 N   0  0  0  0  0  0  0  0  0  0  0  0
   -2.0568   -0.4665   -0.4073 H   0  0  0  0  0  0  0  0  0  0  0  0
    0.0643   -0.3056   -0.2474 C   0  0  1  0  0  0  0  0  0  0  0  0
    0.7347   -0.8789    0.4014 H   0  0  0  0  0  0  0  0  0  0  0  0
    0.6657   -0.2201   -1.6634 C   0  0  0  0  0  0  0  0  0  0  0  0
    0.3725   -1.1084   -2.2289 H   0  0  0  0  0  0  0  0  0  0  0  0
    0.2667    0.6547   -2.1855 H   0  0  0  0  0  0  0  0  0  0  0  0
    2.1918   -0.1717   -1.6848 C   0  0  0  0  0  0  0  0  0  0  0  0
    2.7134    0.1739   -2.7280 O   0  0  0  0  0  0  0  0  0  0  0  0
    2.8996   -0.4377   -0.5621 O   0  0  0  0  0  0  0  0  0  0  0  0
    3.8288   -0.3560   -0.8311 H   0  0  0  0  0  0  0  0  0  0  0  0
   -0.0645    1.0886    0.3878 C   0  0  0  0  0  0  0  0  0  0  0  0
   -1.0318    1.7891    0.1163 O   0  0  0  0  0  0  0  0  0  0  0  0
    0.8604    1.5183    1.3195 N   0  0  0  0  0  0  0  0  0  0  0  0
    1.6689    0.9225    1.4845 H   0  0  0  0  0  0  0  0  0  0  0  0
    0.7975    2.8230    1.9663 C   0  0  0  0  0  0  0  0  0  0  0  0
   -0.1589    2.9480    2.4853 H   0  0  0  0  0  0  0  0  0  0  0  0
    1.6027    2.9207    2.7008 H   0  0  0  0  0  0  0  0  0  0  0  0
    0.9035    3.6227    1.2257 H   0  0  0  0  0  0  0  0  0  0  0  0
  1  2  1  0  0  0  0
  2  3  1  0  0  0  0
  2  4  1  0  0  0  0
  2  5  1  0  0  0  0
  5  6  2  0  0  0  0
  5  7  1  0  0  0  0
  7  8  1  0  0  0  0
  7  9  1  0  0  0  0
  9 10  1  0  0  0  0
  9 11  1  0  0  0  0
  9 18  1  0  0  0  0
 11 12  1  0  0  0  0
 11 13  1  0  0  0  0
 11 14  1  0  0  0  0
 14 15  2  0  0  0  0
 14 16  1  0  0  0  0
 16 17  1  0  0  0  0
 18 19  2  0  0  0  0
 18 20  1  0  0  0  0
 20 21  1  0  0  0  0
 20 22  1  0  0  0  0
 22 23  1  0  0  0  0
 22 24  1  0  0  0  0
 22 25  1  0  0  0  0
M  END
$$$$

  -OEChem-03222214023D

 25 24  0     1  0  0  0  0  0999 V2000
   -2.7417   -3.9822    0.4291 H   0  0  0  0  0  0  0  0  0  0  0  0
   -2.7821   -2.9364    0.1116 C   0  0  0  0  0  0  0  0  0  0  0  0
   -3.3885   -2.3750    0.8265 H   0  0  0  0  0  0  0  0  0  0  0  0
   -3.2513   -2.8848   -0.8738 H   0  0  0  0  0  0  0  0  0  0  0  0
   -1.3825   -2.3542    0.0489 C   0  0  0  0  0  0  0  0  0  0  0  0
   -0.4177   -3.0575    0.3014 O   0  0  0  0  0  0  0  0  0  0  0  0
   -1.2062   -1.0300   -0.2980 N   0  0  0  0  0  0  0  0  0  0  0  0
   -2.0468   -0.4644   -0.4096 H   0  0  0  0  0  0  0  0  0  0  0  0
    0.0744   -0.3076   -0.2471 C   0  0  1  0  0  0  0  0  0  0  0  0
    0.7511   -0.8789    0.3968 H   0  0  0  0  0  0  0  0  0  0  0  0
    0.6626   -0.2166   -1.6686 C   0  0  0  0  0  0  0  0  0  0  0  0
    0.3655   -1.1026   -2.2353 H   0  0  0  0  0  0  0  0  0  0  0  0
    0.2595    0.6601   -2.1851 H   0  0  0  0  0  0  0  0  0  0  0  0
    2.1881   -0.1727   -1.6964 C   0  0  0  0  0  0  0  0  0  0  0  0
    2.7069    0.4321   -2.6157 O   0  0  0  0  0  0  0  0  0  0  0  0
    2.9002   -0.7661   -0.7120 O   0  0  0  0  0  0  0  0  0  0  0  0
    3.8290   -0.6409   -0.9633 H   0  0  0  0  0  0  0  0  0  0  0  0
   -0.0589    1.0867    0.3875 C   0  0  0  0  0  0  0  0  0  0  0  0
   -1.0220    1.7887    0.1055 O   0  0  0  0  0  0  0  0  0  0  0  0
    0.8622    1.5220    1.3208 N   0  0  0  0  0  0  0  0  0  0  0  0
    1.6496    0.9116    1.5258 H   0  0  0  0  0  0  0  0  0  0  0  0
    0.7914    2.8271    1.9666 C   0  0  0  0  0  0  0  0  0  0  0  0
   -0.1624    2.9447    2.4918 H   0  0  0  0  0  0  0  0  0  0  0  0
    1.6010    2.9333    2.6952 H   0  0  0  0  0  0  0  0  0  0  0  0
    0.8860    3.6263    1.2240 H   0  0  0  0  0  0  0  0  0  0  0  0
  1  2  1  0  0  0  0
  2  3  1  0  0  0  0
  2  4  1  0  0  0  0
  2  5  1  0  0  0  0
  5  6  2  0  0  0  0
  5  7  1  0  0  0  0
  7  8  1  0  0  0  0
  7  9  1  0  0  0  0
  9 10  1  0  0  0  0
  9 11  1  0  0  0  0
  9 18  1  0  0  0  0
 11 12  1  0  0  0  0
 11 13  1  0  0  0  0
 11 14  1  0  0  0  0
 14 15  2  0  0  0  0
 14 16  1  0  0  0  0
 16 17  1  0  0  0  0
 18 19  2  0  0  0  0
 18 20  1  0  0  0  0
 20 21  1  0  0  0  0
 20 22  1  0  0  0  0
 22 23  1  0  0  0  0
 22 24  1  0  0  0  0
 22 25  1  0  0  0  0
M  END
$$$$

  -OEChem-03222214023D

 25 24  0     1  0  0  0  0  0999 V2000
   -2.7390   -3.9820    0.4226 H   0  0  0  0  0  0  0  0  0  0  0  0
   -2.7783   -2.9346    0.1106 C   0  0  0  0  0  0  0  0  0  0  0  0
   -3.3853   -2.3766    0.8276 H   0  0  0  0  0  0  0  0  0  0  0  0
   -3.2460   -2.8778   -0.8752 H   0  0  0  0  0  0  0  0  0  0  0  0
   -1.3783   -2.3529    0.0535 C   0  0  0  0  0  0  0  0  0  0  0  0
   -0.4153   -3.0554    0.3142 O   0  0  0  0  0  0  0  0  0  0  0  0
   -1.2004   -1.0293   -0.2945 N   0  0  0  0  0  0  0  0  0  0  0  0
   -2.0400   -0.4631   -0.4108 H   0  0  0  0  0  0  0  0  0  0  0  0
    0.0820   -0.3099   -0.2519 C   0  0  1  0  0  0  0  0  0  0  0  0
    0.7704   -0.8800    0.3814 H   0  0  0  0  0  0  0  0  0  0  0  0
    0.6542   -0.2129   -1.6785 C   0  0  0  0  0  0  0  0  0  0  0  0
    0.3531   -1.0952   -2.2490 H   0  0  0  0  0  0  0  0  0  0  0  0
    0.2511    0.6672   -2.1892 H   0  0  0  0  0  0  0  0  0  0  0  0
    2.1782   -0.1748   -1.6976 C   0  0  0  0  0  0  0  0  0  0  0  0
    2.7121    0.6441   -2.4218 O   0  0  0  0  0  0  0  0  0  0  0  0
    2.8719   -1.0333   -0.9190 O   0  0  0  0  0  0  0  0  0  0  0  0
    3.8053   -0.8668   -1.1236 H   0  0  0  0  0  0  0  0  0  0  0  0
   -0.0520    1.0842    0.3851 C   0  0  0  0  0  0  0  0  0  0  0  0
   -1.0197    1.7821    0.1086 O   0  0  0  0  0  0  0  0  0  0  0  0
    0.8705    1.5244    1.3153 N   0  0  0  0  0  0  0  0  0  0  0  0
    1.6517    0.9115    1.5335 H   0  0  0  0  0  0  0  0  0  0  0  0
    0.7932    2.8282    1.9629 C   0  0  0  0  0  0  0  0  0  0  0  0
   -0.1551    2.9347    2.5001 H   0  0  0  0  0  0  0  0  0  0  0  0
    1.6106    2.9433    2.6812 H   0  0  0  0  0  0  0  0  0  0  0  0
    0.8696    3.6296    1.2205 H   0  0  0  0  0  0  0  0  0  0  0  0
  1  2  1  0  0  0  0
  2  3  1  0  0  0  0
  2  4  1  0  0  0  0
  2  5  1  0  0  0  0
  5  6  2  0  0  0  0
  5  7  1  0  0  0  0
  7  8  1  0  0  0  0
  7  9  1  0  0  0  0
  9 10  1  0  0  0  0
  9 11  1  0  0  0  0
  9 18  1  0  0  0  0
 11 12  1  0  0  0  0
 11 13  1  0  0  0  0
 11 14  1  0  0  0  0
 14 15  2  0  0  0  0
 14 16  1  0  0  0  0
 16 17  1  0  0  0  0
 18 19  2  0  0  0  0
 18 20  1  0  0  0  0
 20 21  1  0  0  0  0
 20 22  1  0  0  0  0
 22 23  1  0  0  0  0
 22 24  1  0  0  0  0
 22 25  1  0  0  0  0
M  END
$$$$

  -OEChem-03222214023D

 25 24  0     1  0  0  0  0  0999 V2000
   -2.7379   -3.9805    0.4339 H   0  0  0  0  0  0  0  0  0  0  0  0
   -2.7768   -2.9352    0.1143 C   0  0  0  0  0  0  0  0  0  0  0  0
   -3.3815   -2.3711    0.8286 H   0  0  0  0  0  0  0  0  0  0  0  0
   -3.2471   -2.8852   -0.8707 H   0  0  0  0  0  0  0  0  0  0  0  0
   -1.3759   -2.3559    0.0492 C   0  0  0  0  0  0  0  0  0  0  0  0
   -0.4131   -3.0594    0.3076 O   0  0  0  0  0  0  0  0  0  0  0  0
   -1.1973   -1.0315   -0.2951 N   0  0  0  0  0  0  0  0  0  0  0  0
   -2.0359   -0.4619   -0.4011 H   0  0  0  0  0  0  0  0  0  0  0  0
    0.0877   -0.3165   -0.2598 C   0  0  1  0  0  0  0  0  0  0  0  0
    0.7874   -0.8899    0.3587 H   0  0  0  0  0  0  0  0  0  0  0  0
    0.6452   -0.2030   -1.6893 C   0  0  0  0  0  0  0  0  0  0  0  0
    0.3393   -1.0751   -2.2726 H   0  0  0  0  0  0  0  0  0  0  0  0
    0.2470    0.6870   -2.1864 H   0  0  0  0  0  0  0  0  0  0  0  0
    2.1674   -0.1719   -1.6939 C   0  0  0  0  0  0  0  0  0  0  0  0
    2.7186    0.8053   -2.1645 O   0  0  0  0  0  0  0  0  0  0  0  0
    2.8391   -1.2212   -1.1739 O   0  0  0  0  0  0  0  0  0  0  0  0
    3.7781   -1.0212   -1.3098 H   0  0  0  0  0  0  0  0  0  0  0  0
   -0.0489    1.0742    0.3861 C   0  0  0  0  0  0  0  0  0  0  0  0
   -1.0257    1.7649    0.1223 O   0  0  0  0  0  0  0  0  0  0  0  0
    0.8743    1.5162    1.3148 N   0  0  0  0  0  0  0  0  0  0  0  0
    1.6765    0.9220    1.5059 H   0  0  0  0  0  0  0  0  0  0  0  0
    0.7976    2.8241    1.9540 C   0  0  0  0  0  0  0  0  0  0  0  0
   -0.1570    2.9404    2.4781 H   0  0  0  0  0  0  0  0  0  0  0  0
    1.6060    2.9377    2.6825 H   0  0  0  0  0  0  0  0  0  0  0  0
    0.8891    3.6201    1.2076 H   0  0  0  0  0  0  0  0  0  0  0  0
  1  2  1  0  0  0  0
  2  3  1  0  0  0  0
  2  4  1  0  0  0  0
  2  5  1  0  0  0  0
  5  6  2  0  0  0  0
  5  7  1  0  0  0  0
  7  8  1  0  0  0  0
  7  9  1  0  0  0  0
  9 10  1  0  0  0  0
  9 11  1  0  0  0  0
  9 18  1  0  0  0  0
 11 12  1  0  0  0  0
 11 13  1  0  0  0  0
 11 14  1  0  0  0  0
 14 15  2  0  0  0  0
 14 16  1  0  0  0  0
 16 17  1  0  0  0  0
 18 19  2  0  0  0  0
 18 20  1  0  0  0  0
 20 21  1  0  0  0  0
 20 22  1  0  0  0  0
 22 23  1  0  0  0  0
 22 24  1  0  0  0  0
 22 25  1  0  0  0  0
M  END
$$$$

  -OEChem-03222214023D

 25 24  0     1  0  0  0  0  0999 V2000
   -2.7368   -3.9822    0.4343 H   0  0  0  0  0  0  0  0  0  0  0  0
   -2.7763   -2.9369    0.1153 C   0  0  0  0  0  0  0  0  0  0  0  0
   -3.3769   -2.3728    0.8330 H   0  0  0  0  0  0  0  0  0  0  0  0
   -3.2510   -2.8858   -0.8676 H   0  0  0  0  0  0  0  0  0  0  0  0
   -1.3756   -2.3588    0.0440 C   0  0  0  0  0  0  0  0  0  0  0  0
   -0.4115   -3.0627    0.2971 O   0  0  0  0  0  0  0  0  0  0  0  0
   -1.1984   -1.0335   -0.2971 N   0  0  0  0  0  0  0  0  0  0  0  0
   -2.0371   -0.4620   -0.3941 H   0  0  0  0  0  0  0  0  0  0  0  0
    0.0872   -0.3203   -0.2672 C   0  0  1  0  0  0  0  0  0  0  0  0
    0.7938   -0.8961    0.3417 H   0  0  0  0  0  0  0  0  0  0  0  0
    0.6360   -0.1968   -1.6975 C   0  0  0  0  0  0  0  0  0  0  0  0
    0.3284   -1.0637   -2.2878 H   0  0  0  0  0  0  0  0  0  0  0  0
    0.2418    0.6979   -2.1890 H   0  0  0  0  0  0  0  0  0  0  0  0
    2.1563   -0.1693   -1.6889 C   0  0  0  0  0  0  0  0  0  0  0  0
    2.7140    0.8951   -1.8797 O   0  0  0  0  0  0  0  0  0  0  0  0
    2.8178   -1.3222   -1.4567 O   0  0  0  0  0  0  0  0  0  0  0  0
    3.7595   -1.1003   -1.5183 H   0  0  0  0  0  0  0  0  0  0  0  0
   -0.0488    1.0681    0.3853 C   0  0  0  0  0  0  0  0  0  0  0  0
   -1.0352    1.7516    0.1378 O   0  0  0  0  0  0  0  0  0  0  0  0
    0.8776    1.5090    1.3114 N   0  0  0  0  0  0  0  0  0  0  0  0
    1.7037    0.9367    1.4623 H   0  0  0  0  0  0  0  0  0  0  0  0
    0.8063    2.8193    1.9462 C   0  0  0  0  0  0  0  0  0  0  0  0
   -0.1479    2.9413    2.4698 H   0  0  0  0  0  0  0  0  0  0  0  0
    1.6150    2.9306    2.6749 H   0  0  0  0  0  0  0  0  0  0  0  0
    0.9016    3.6128    1.1974 H   0  0  0  0  0  0  0  0  0  0  0  0
  1  2  1  0  0  0  0
  2  3  1  0  0  0  0
  2  4  1  0  0  0  0
  2  5  1  0  0  0  0
  5  6  2  0  0  0  0
  5  7  1  0  0  0  0
  7  8  1  0  0  0  0
  7  9  1  0  0  0  0
  9 10  1  0  0  0  0
  9 11  1  0  0  0  0
  9 18  1  0  0  0  0
 11 12  1  0  0  0  0
 11 13  1  0  0  0  0
 11 14  1  0  0  0  0
 14 15  2  0  0  0  0
 14 16  1  0  0  0  0
 16 17  1  0  0  0  0
 18 19  2  0  0  0  0
 18 20  1  0  0  0  0
 20 21  1  0  0  0  0
 20 22  1  0  0  0  0
 22 23  1  0  0  0  0
 22 24  1  0  0  0  0
 22 25  1  0  0  0  0
M  END
$$$$

  -OEChem-03222214023D

 25 24  0     1  0  0  0  0  0999 V2000
   -2.7356   -3.9826    0.4383 H   0  0  0  0  0  0  0  0  0  0  0  0
   -2.7776   -2.9375    0.1189 C   0  0  0  0  0  0  0  0  0  0  0  0
   -3.3734   -2.3727    0.8400 H   0  0  0  0  0  0  0  0  0  0  0  0
   -3.2589   -2.8872   -0.8606 H   0  0  0  0  0  0  0  0  0  0  0  0
   -1.3773   -2.3597    0.0374 C   0  0  0  0  0  0  0  0  0  0  0  0
   -0.4107   -3.0656    0.2758 O   0  0  0  0  0  0  0  0  0  0  0  0
   -1.2017   -1.0332   -0.2997 N   0  0  0  0  0  0  0  0  0  0  0  0
   -2.0397   -0.4584   -0.3816 H   0  0  0  0  0  0  0  0  0  0  0  0
    0.0854   -0.3231   -0.2720 C   0  0  1  0  0  0  0  0  0  0  0  0
    0.7941   -0.9009    0.3327 H   0  0  0  0  0  0  0  0  0  0  0  0
    0.6317   -0.1923   -1.7020 C   0  0  0  0  0  0  0  0  0  0  0  0
    0.3191   -1.0531   -2.2990 H   0  0  0  0  0  0  0  0  0  0  0  0
    0.2440    0.7083   -2.1875 H   0  0  0  0  0  0  0  0  0  0  0  0
    2.1517   -0.1696   -1.6862 C   0  0  0  0  0  0  0  0  0  0  0  0
    2.7098    0.9077   -1.5876 O   0  0  0  0  0  0  0  0  0  0  0  0
    2.8115   -1.3436   -1.7708 O   0  0  0  0  0  0  0  0  0  0  0  0
    3.7537   -1.1166   -1.7596 H   0  0  0  0  0  0  0  0  0  0  0  0
   -0.0510    1.0626    0.3877 C   0  0  0  0  0  0  0  0  0  0  0  0
   -1.0477    1.7379    0.1582 O   0  0  0  0  0  0  0  0  0  0  0  0
    0.8767    1.5013    1.3134 N   0  0  0  0  0  0  0  0  0  0  0  0
    1.7332    0.9622    1.4071 H   0  0  0  0  0  0  0  0  0  0  0  0
    0.8091    2.8149    1.9416 C   0  0  0  0  0  0  0  0  0  0  0  0
   -0.1472    2.9448    2.4592 H   0  0  0  0  0  0  0  0  0  0  0  0
    1.6139    2.9245    2.6748 H   0  0  0  0  0  0  0  0  0  0  0  0
    0.9136    3.6042    1.1897 H   0  0  0  0  0  0  0  0  0  0  0  0
  1  2  1  0  0  0  0
  2  3  1  0  0  0  0
  2  4  1  0  0  0  0
  2  5  1  0  0  0  0
  5  6  2  0  0  0  0
  5  7  1  0  0  0  0
  7  8  1  0  0  0  0
  7  9  1  0  0  0  0
  9 10  1  0  0  0  0
  9 11  1  0  0  0  0
  9 18  1  0  0  0  0
 11 12  1  0  0  0  0
 11 13  1  0  0  0  0
 11 14  1  0  0  0  0
 14 15  2  0  0  0  0
 14 16  1  0  0  0  0
 16 17  1  0  0  0  0
 18 19  2  0  0  0  0
 18 20  1  0  0  0  0
 20 21  1  0  0  0  0
 20 22  1  0  0  0  0
 22 23  1  0  0  0  0
 22 24  1  0  0  0  0
 22 25  1  0  0  0  0
M  END
$$$$

  -OEChem-03222214023D

 25 24  0     1  0  0  0  0  0999 V2000
   -2.7349   -3.9802    0.4456 H   0  0  0  0  0  0  0  0  0  0  0  0
   -2.7792   -2.9357    0.1247 C   0  0  0  0  0  0  0  0  0  0  0  0
   -3.3706   -2.3698    0.8486 H   0  0  0  0  0  0  0  0  0  0  0  0
   -3.2672   -2.8872   -0.8516 H   0  0  0  0  0  0  0  0  0  0  0  0
   -1.3794   -2.3580    0.0324 C   0  0  0  0  0  0  0  0  0  0  0  0
   -0.4106   -3.0666    0.2542 O   0  0  0  0  0  0  0  0  0  0  0  0
   -1.2047   -1.0306   -0.3017 N   0  0  0  0  0  0  0  0  0  0  0  0
   -2.0420   -0.4524   -0.3667 H   0  0  0  0  0  0  0  0  0  0  0  0
    0.0845   -0.3238   -0.2749 C   0  0  1  0  0  0  0  0  0  0  0  0
    0.7928   -0.9027    0.3293 H   0  0  0  0  0  0  0  0  0  0  0  0
    0.6320   -0.1914   -1.7044 C   0  0  0  0  0  0  0  0  0  0  0  0
    0.3136   -1.0488   -2.3034 H   0  0  0  0  0  0  0  0  0  0  0  0
    0.2503    0.7126   -2.1874 H   0  0  0  0  0  0  0  0  0  0  0  0
    2.1526   -0.1734   -1.6900 C   0  0  0  0  0  0  0  0  0  0  0  0
    2.7125    0.8413   -1.3154 O   0  0  0  0  0  0  0  0  0  0  0  0
    2.8111   -1.2806   -2.0930 O   0  0  0  0  0  0  0  0  0  0  0  0
    3.7538   -1.0677   -2.0181 H   0  0  0  0  0  0  0  0  0  0  0  0
   -0.0530    1.0601    0.3907 C   0  0  0  0  0  0  0  0  0  0  0  0
   -1.0594    1.7268    0.1771 O   0  0  0  0  0  0  0  0  0  0  0  0
    0.8751    1.4963    1.3170 N   0  0  0  0  0  0  0  0  0  0  0  0
    1.7584    0.9934    1.3509 H   0  0  0  0  0  0  0  0  0  0  0  0
    0.8052    2.8107    1.9432 C   0  0  0  0  0  0  0  0  0  0  0  0
   -0.1543    2.9431    2.4544 H   0  0  0  0  0  0  0  0  0  0  0  0
    1.6048    2.9199    2.6822 H   0  0  0  0  0  0  0  0  0  0  0  0
    0.9161    3.5989    1.1911 H   0  0  0  0  0  0  0  0  0  0  0  0
  1  2  1  0  0  0  0
  2  3  1  0  0  0  0
  2  4  1  0  0  0  0
  2  5  1  0  0  0  0
  5  6  2  0  0  0  0
  5  7  1  0  0  0  0
  7  8  1  0  0  0  0
  7  9  1  0  0  0  0
  9 10  1  0  0  0  0
  9 11  1  0  0  0  0
  9 18  1  0  0  0  0
 11 12  1  0  0  0  0
 11 13  1  0  0  0  0
 11 14  1  0  0  0  0
 14 15  2  0  0  0  0
 14 16  1  0  0  0  0
 16 17  1  0  0  0  0
 18 19  2  0  0  0  0
 18 20  1  0  0  0  0
 20 21  1  0  0  0  0
 20 22  1  0  0  0  0
 22 23  1  0  0  0  0
 22 24  1  0  0  0  0
 22 25  1  0  0  0  0
M  END
$$$$

  -OEChem-03222214023D

 25 24  0     1  0  0  0  0  0999 V2000
   -2.7343   -3.9768    0.4493 H   0  0  0  0  0  0  0  0  0  0  0  0
   -2.7796   -2.9310    0.1328 C   0  0  0  0  0  0  0  0  0  0  0  0
   -3.3597   -2.3661    0.8663 H   0  0  0  0  0  0  0  0  0  0  0  0
   -3.2797   -2.8776   -0.8371 H   0  0  0  0  0  0  0  0  0  0  0  0
   -1.3798   -2.3564    0.0255 C   0  0  0  0  0  0  0  0  0  0  0  0
   -0.4096   -3.0691    0.2274 O   0  0  0  0  0  0  0  0  0  0  0  0
   -1.2060   -1.0282   -0.3059 N   0  0  0  0  0  0  0  0  0  0  0  0
   -2.0426   -0.4468   -0.3496 H   0  0  0  0  0  0  0  0  0  0  0  0
    0.0841   -0.3233   -0.2763 C   0  0  1  0  0  0  0  0  0  0  0  0
    0.7900   -0.9022    0.3307 H   0  0  0  0  0  0  0  0  0  0  0  0
    0.6372   -0.1924   -1.7051 C   0  0  0  0  0  0  0  0  0  0  0  0
    0.3151   -1.0500   -2.3020 H   0  0  0  0  0  0  0  0  0  0  0  0
    0.2571    0.7110   -2.1896 H   0  0  0  0  0  0  0  0  0  0  0  0
    2.1595   -0.1760   -1.6996 C   0  0  0  0  0  0  0  0  0  0  0  0
    2.7285    0.7073   -1.0814 O   0  0  0  0  0  0  0  0  0  0  0  0
    2.8095   -1.1358   -2.3918 O   0  0  0  0  0  0  0  0  0  0  0  0
    3.7536   -0.9546   -2.2680 H   0  0  0  0  0  0  0  0  0  0  0  0
   -0.0578    1.0589    0.3931 C   0  0  0  0  0  0  0  0  0  0  0  0
   -1.0688    1.7209    0.1849 O   0  0  0  0  0  0  0  0  0  0  0  0
    0.8679    1.4930    1.3225 N   0  0  0  0  0  0  0  0  0  0  0  0
    1.7651    1.0123    1.3197 H   0  0  0  0  0  0  0  0  0  0  0  0
    0.7968    2.8082    1.9466 C   0  0  0  0  0  0  0  0  0  0  0  0
   -0.1611    2.9393    2.4611 H   0  0  0  0  0  0  0  0  0  0  0  0
    1.5990    2.9202    2.6823 H   0  0  0  0  0  0  0  0  0  0  0  0
    0.9027    3.5955    1.1929 H   0  0  0  0  0  0  0  0  0  0  0  0
  1  2  1  0  0  0  0
  2  3  1  0  0  0  0
  2  4  1  0  0  0  0
  2  5  1  0  0  0  0
  5  6  2  0  0  0  0
  5  7  1  0  0  0  0
  7  8  1  0  0  0  0
  7  9  1  0  0  0  0
  9 10  1  0  0  0  0
  9 11  1  0  0  0  0
  9 18  1  0  0  0  0
 11 12  1  0  0  0  0
 11 13  1  0  0  0  0
 11 14  1  0  0  0  0
 14 15  2  0  0  0  0
 14 16  1  0  0  0  0
 16 17  1  0  0  0  0
 18 19  2  0  0  0  0
 18 20  1  0  0  0  0
 20 21  1  0  0  0  0
 20 22  1  0  0  0  0
 22 23  1  0  0  0  0
 22 24  1  0  0  0  0
 22 25  1  0  0  0  0
M  END
$$$$

  -OEChem-03222214023D

 25 24  0     1  0  0  0  0  0999 V2000
   -2.7327   -3.9765    0.4535 H   0  0  0  0  0  0  0  0  0  0  0  0
   -2.7795   -2.9300    0.1395 C   0  0  0  0  0  0  0  0  0  0  0  0
   -3.3534   -2.3661    0.8788 H   0  0  0  0  0  0  0  0  0  0  0  0
   -3.2875   -2.8742   -0.8262 H   0  0  0  0  0  0  0  0  0  0  0  0
   -1.3799   -2.3566    0.0218 C   0  0  0  0  0  0  0  0  0  0  0  0
   -0.4082   -3.0713    0.2097 O   0  0  0  0  0  0  0  0  0  0  0  0
   -1.2079   -1.0281   -0.3082 N   0  0  0  0  0  0  0  0  0  0  0  0
   -2.0450   -0.4470   -0.3447 H   0  0  0  0  0  0  0  0  0  0  0  0
    0.0809   -0.3211   -0.2751 C   0  0  1  0  0  0  0  0  0  0  0  0
    0.7841   -0.9000    0.3352 H   0  0  0  0  0  0  0  0  0  0  0  0
    0.6414   -0.1944   -1.7025 C   0  0  0  0  0  0  0  0  0  0  0  0
    0.3211   -1.0562   -2.2944 H   0  0  0  0  0  0  0  0  0  0  0  0
    0.2577    0.7051   -2.1913 H   0  0  0  0  0  0  0  0  0  0  0  0
    2.1654   -0.1736   -1.7101 C   0  0  0  0  0  0  0  0  0  0  0  0
    2.7491    0.5232   -0.8962 O   0  0  0  0  0  0  0  0  0  0  0  0
    2.8009   -0.9171   -2.6407 O   0  0  0  0  0  0  0  0  0  0  0  0
    3.7472   -0.7733   -2.4873 H   0  0  0  0  0  0  0  0  0  0  0  0
   -0.0622    1.0607    0.3945 C   0  0  0  0  0  0  0  0  0  0  0  0
   -1.0712    1.7246    0.1827 O   0  0  0  0  0  0  0  0  0  0  0  0
    0.8624    1.4933    1.3252 N   0  0  0  0  0  0  0  0  0  0  0  0
    1.7616    1.0149    1.3128 H   0  0  0  0  0  0  0  0  0  0  0  0
    0.7928    2.8085    1.9494 C   0  0  0  0  0  0  0  0  0  0  0  0
   -0.1644    2.9392    2.4653 H   0  0  0  0  0  0  0  0  0  0  0  0
    1.5961    2.9205    2.6840 H   0  0  0  0  0  0  0  0  0  0  0  0
    0.8980    3.5960    1.1959 H   0  0  0  0  0  0  0  0  0  0  0  0
  1  2  1  0  0  0  0
  2  3  1  0  0  0  0
  2  4  1  0  0  0  0
  2  5  1  0  0  0  0
  5  6  2  0  0  0  0
  5  7  1  0  0  0  0
  7  8  1  0  0  0  0
  7  9  1  0  0  0  0
  9 10  1  0  0  0  0
  9 11  1  0  0  0  0
  9 18  1  0  0  0  0
 11 12  1  0  0  0  0
 11 13  1  0  0  0  0
 11 14  1  0  0  0  0
 14 15  2  0  0  0  0
 14 16  1  0  0  0  0
 16 17  1  0  0  0  0
 18 19  2  0  0  0  0
 18 20  1  0  0  0  0
 20 21  1  0  0  0  0
 20 22  1  0  0  0  0
 22 23  1  0  0  0  0
 22 24  1  0  0  0  0
 22 25  1  0  0  0  0
M  END
$$$$

  -OEChem-03222214023D

 25 24  0     1  0  0  0  0  0999 V2000
   -2.7259   -3.9840    0.4573 H   0  0  0  0  0  0  0  0  0  0  0  0
   -2.7774   -2.9389    0.1396 C   0  0  0  0  0  0  0  0  0  0  0  0
   -3.3548   -2.3754    0.8766 H   0  0  0  0  0  0  0  0  0  0  0  0
   -3.2848   -2.8885   -0.8267 H   0  0  0  0  0  0  0  0  0  0  0  0
   -1.3806   -2.3590    0.0212 C   0  0  0  0  0  0  0  0  0  0  0  0
   -0.4062   -3.0709    0.2052 O   0  0  0  0  0  0  0  0  0  0  0  0
   -1.2151   -1.0293   -0.3083 N   0  0  0  0  0  0  0  0  0  0  0  0
   -2.0556   -0.4533   -0.3461 H   0  0  0  0  0  0  0  0  0  0  0  0
    0.0694   -0.3140   -0.2722 C   0  0  1  0  0  0  0  0  0  0  0  0
    0.7668   -0.8918    0.3455 H   0  0  0  0  0  0  0  0  0  0  0  0
    0.6418   -0.1941   -1.6966 C   0  0  0  0  0  0  0  0  0  0  0  0
    0.3308   -1.0643   -2.2809 H   0  0  0  0  0  0  0  0  0  0  0  0
    0.2501    0.6965   -2.1948 H   0  0  0  0  0  0  0  0  0  0  0  0
    2.1672   -0.1602   -1.7162 C   0  0  0  0  0  0  0  0  0  0  0  0
    2.7686    0.3137   -0.7651 O   0  0  0  0  0  0  0  0  0  0  0  0
    2.7843   -0.6430   -2.8156 O   0  0  0  0  0  0  0  0  0  0  0  0
    3.7334   -0.5411   -2.6465 H   0  0  0  0  0  0  0  0  0  0  0  0
   -0.0699    1.0683    0.3942 C   0  0  0  0  0  0  0  0  0  0  0  0
   -1.0716    1.7401    0.1751 O   0  0  0  0  0  0  0  0  0  0  0  0
    0.8593    1.4964    1.3220 N   0  0  0  0  0  0  0  0  0  0  0  0
    1.7493    0.9994    1.3220 H   0  0  0  0  0  0  0  0  0  0  0  0
    0.8020    2.8111    1.9480 C   0  0  0  0  0  0  0  0  0  0  0  0
   -0.1537    2.9497    2.4644 H   0  0  0  0  0  0  0  0  0  0  0  0
    1.6065    2.9143    2.6824 H   0  0  0  0  0  0  0  0  0  0  0  0
    0.9137    3.5985    1.1956 H   0  0  0  0  0  0  0  0  0  0  0  0
  1  2  1  0  0  0  0
  2  3  1  0  0  0  0
  2  4  1  0  0  0  0
  2  5  1  0  0  0  0
  5  6  2  0  0  0  0
  5  7  1  0  0  0  0
  7  8  1  0  0  0  0
  7  9  1  0  0  0  0
  9 10  1  0  0  0  0
  9 11  1  0  0  0  0
  9 18  1  0  0  0  0
 11 12  1  0  0  0  0
 11 13  1  0  0  0  0
 11 14  1  0  0  0  0
 14 15  2  0  0  0  0
 14 16  1  0  0  0  0
 16 17  1  0  0  0  0
 18 19  2  0  0  0  0
 18 20  1  0  0  0  0
 20 21  1  0  0  0  0
 20 22  1  0  0  0  0
 22 23  1  0  0  0  0
 22 24  1  0  0  0  0
 22 25  1  0  0  0  0
M  END
$$$$

  -OEChem-03222214023D

 25 24  0     1  0  0  0  0  0999 V2000
   -2.7188   -3.9949    0.4526 H   0  0  0  0  0  0  0  0  0  0  0  0
   -2.7744   -2.9497    0.1357 C   0  0  0  0  0  0  0  0  0  0  0  0
   -3.3578   -2.3899    0.8707 H   0  0  0  0  0  0  0  0  0  0  0  0
   -3.2776   -2.9009   -0.8329 H   0  0  0  0  0  0  0  0  0  0  0  0
   -1.3799   -2.3624    0.0237 C   0  0  0  0  0  0  0  0  0  0  0  0
   -0.4028   -3.0693    0.2113 O   0  0  0  0  0  0  0  0  0  0  0  0
   -1.2212   -1.0319   -0.3069 N   0  0  0  0  0  0  0  0  0  0  0  0
   -2.0664   -0.4641   -0.3544 H   0  0  0  0  0  0  0  0  0  0  0  0
    0.0571   -0.3049   -0.2686 C   0  0  1  0  0  0  0  0  0  0  0  0
    0.7471   -0.8818    0.3581 H   0  0  0  0  0  0  0  0  0  0  0  0
    0.6406   -0.1943   -1.6904 C   0  0  0  0  0  0  0  0  0  0  0  0
    0.3415   -1.0731   -2.2676 H   0  0  0  0  0  0  0  0  0  0  0  0
    0.2394    0.6869   -2.1980 H   0  0  0  0  0  0  0  0  0  0  0  0
    2.1666   -0.1433   -1.7193 C   0  0  0  0  0  0  0  0  0  0  0  0
    2.7881    0.0857   -0.6933 O   0  0  0  0  0  0  0  0  0  0  0  0
    2.7620   -0.3429   -2.9143 O   0  0  0  0  0  0  0  0  0  0  0  0
    3.7142   -0.2825   -2.7417 H   0  0  0  0  0  0  0  0  0  0  0  0
   -0.0754    1.0794    0.3911 C   0  0  0  0  0  0  0  0  0  0  0  0
   -1.0674    1.7618    0.1628 O   0  0  0  0  0  0  0  0  0  0  0  0
    0.8604    1.5041    1.3136 N   0  0  0  0  0  0  0  0  0  0  0  0
    1.7336    0.9788    1.3435 H   0  0  0  0  0  0  0  0  0  0  0  0
    0.8134    2.8157    1.9468 C   0  0  0  0  0  0  0  0  0  0  0  0
   -0.1392    2.9569    2.4680 H   0  0  0  0  0  0  0  0  0  0  0  0
    1.6215    2.9104    2.6784 H   0  0  0  0  0  0  0  0  0  0  0  0
    0.9268    3.6065    1.1982 H   0  0  0  0  0  0  0  0  0  0  0  0
  1  2  1  0  0  0  0
  2  3  1  0  0  0  0
  2  4  1  0  0  0  0
  2  5  1  0  0  0  0
  5  6  2  0  0  0  0
  5  7  1  0  0  0  0
  7  8  1  0  0  0  0
  7  9  1  0  0  0  0
  9 10  1  0  0  0  0
  9 11  1  0  0  0  0
  9 18  1  0  0  0  0
 11 12  1  0  0  0  0
 11 13  1  0  0  0  0
 11 14  1  0  0  0  0
 14 15  2  0  0  0  0
 14 16  1  0  0  0  0
 16 17  1  0  0  0  0
 18 19  2  0  0  0  0
 18 20  1  0  0  0  0
 20 21  1  0  0  0  0
 20 22  1  0  0  0  0
 22 23  1  0  0  0  0
 22 24  1  0  0  0  0
 22 25  1  0  0  0  0
M  END
$$$$

  -OEChem-03222214023D

 25 24  0     1  0  0  0  0  0999 V2000
   -2.7096   -4.0044    0.4476 H   0  0  0  0  0  0  0  0  0  0  0  0
   -2.7698   -2.9590    0.1321 C   0  0  0  0  0  0  0  0  0  0  0  0
   -3.3581   -2.4033    0.8664 H   0  0  0  0  0  0  0  0  0  0  0  0
   -3.2709   -2.9115   -0.8376 H   0  0  0  0  0  0  0  0  0  0  0  0
   -1.3782   -2.3642    0.0246 C   0  0  0  0  0  0  0  0  0  0  0  0
   -0.3987   -3.0660    0.2178 O   0  0  0  0  0  0  0  0  0  0  0  0
   -1.2263   -1.0331   -0.3072 N   0  0  0  0  0  0  0  0  0  0  0  0
   -2.0756   -0.4726   -0.3644 H   0  0  0  0  0  0  0  0  0  0  0  0
    0.0461   -0.2955   -0.2673 C   0  0  1  0  0  0  0  0  0  0  0  0
    0.7285   -0.8701    0.3688 H   0  0  0  0  0  0  0  0  0  0  0  0
    0.6400   -0.1937   -1.6863 C   0  0  0  0  0  0  0  0  0  0  0  0
    0.3515   -1.0788   -2.2589 H   0  0  0  0  0  0  0  0  0  0  0  0
    0.2319    0.6803   -2.2010 H   0  0  0  0  0  0  0  0  0  0  0  0
    2.1662   -0.1278   -1.7185 C   0  0  0  0  0  0  0  0  0  0  0  0
    2.8065   -0.1554   -0.6795 O   0  0  0  0  0  0  0  0  0  0  0  0
    2.7411   -0.0334   -2.9360 O   0  0  0  0  0  0  0  0  0  0  0  0
    3.6960   -0.0146   -2.7692 H   0  0  0  0  0  0  0  0  0  0  0  0
   -0.0795    1.0905    0.3860 C   0  0  0  0  0  0  0  0  0  0  0  0
   -1.0617    1.7832    0.1485 O   0  0  0  0  0  0  0  0  0  0  0  0
    0.8626    1.5122    1.3036 N   0  0  0  0  0  0  0  0  0  0  0  0
    1.7122    0.9539    1.3770 H   0  0  0  0  0  0  0  0  0  0  0  0
    0.8226    2.8196    1.9458 C   0  0  0  0  0  0  0  0  0  0  0  0
   -0.1250    2.9574    2.4773 H   0  0  0  0  0  0  0  0  0  0  0  0
    1.6383    2.9094    2.6697 H   0  0  0  0  0  0  0  0  0  0  0  0
    0.9287    3.6155    1.2013 H   0  0  0  0  0  0  0  0  0  0  0  0
  1  2  1  0  0  0  0
  2  3  1  0  0  0  0
  2  4  1  0  0  0  0
  2  5  1  0  0  0  0
  5  6  2  0  0  0  0
  5  7  1  0  0  0  0
  7  8  1  0  0  0  0
  7  9  1  0  0  0  0
  9 10  1  0  0  0  0
  9 11  1  0  0  0  0
  9 18  1  0  0  0  0
 11 12  1  0  0  0  0
 11 13  1  0  0  0  0
 11 14  1  0  0  0  0
 14 15  2  0  0  0  0
 14 16  1  0  0  0  0
 16 17  1  0  0  0  0
 18 19  2  0  0  0  0
 18 20  1  0  0  0  0
 20 21  1  0  0  0  0
 20 22  1  0  0  0  0
 22 23  1  0  0  0  0
 22 24  1  0  0  0  0
 22 25  1  0  0  0  0
M  END
$$$$

  -OEChem-03222214023D

 25 24  0     1  0  0  0  0  0999 V2000
   -2.7038   -4.0051    0.4415 H   0  0  0  0  0  0  0  0  0  0  0  0
   -2.7639   -2.9596    0.1262 C   0  0  0  0  0  0  0  0  0  0  0  0
   -3.3601   -2.4061    0.8556 H   0  0  0  0  0  0  0  0  0  0  0  0
   -3.2560   -2.9128   -0.8482 H   0  0  0  0  0  0  0  0  0  0  0  0
   -1.3727   -2.3616    0.0328 C   0  0  0  0  0  0  0  0  0  0  0  0
   -0.3946   -3.0593    0.2456 O   0  0  0  0  0  0  0  0  0  0  0  0
   -1.2206   -1.0315   -0.3034 N   0  0  0  0  0  0  0  0  0  0  0  0
   -2.0710   -0.4748   -0.3775 H   0  0  0  0  0  0  0  0  0  0  0  0
    0.0501   -0.2908   -0.2639 C   0  0  1  0  0  0  0  0  0  0  0  0
    0.7314   -0.8625    0.3757 H   0  0  0  0  0  0  0  0  0  0  0  0
    0.6397   -0.1942   -1.6857 C   0  0  0  0  0  0  0  0  0  0  0  0
    0.3505   -1.0806   -2.2559 H   0  0  0  0  0  0  0  0  0  0  0  0
    0.2263    0.6776   -2.2003 H   0  0  0  0  0  0  0  0  0  0  0  0
    2.1653   -0.1248   -1.7274 C   0  0  0  0  0  0  0  0  0  0  0  0
    2.8252   -0.4151   -0.7437 O   0  0  0  0  0  0  0  0  0  0  0  0
    2.7184    0.2659   -2.8950 O   0  0  0  0  0  0  0  0  0  0  0  0
    3.6763    0.2364   -2.7472 H   0  0  0  0  0  0  0  0  0  0  0  0
   -0.0746    1.0977    0.3828 C   0  0  0  0  0  0  0  0  0  0  0  0
   -1.0483    1.7968    0.1307 O   0  0  0  0  0  0  0  0  0  0  0  0
    0.8669    1.5232    1.2995 N   0  0  0  0  0  0  0  0  0  0  0  0
    1.6892    0.9359    1.4284 H   0  0  0  0  0  0  0  0  0  0  0  0
    0.8177    2.8246    1.9533 C   0  0  0  0  0  0  0  0  0  0  0  0
   -0.1290    2.9491    2.4897 H   0  0  0  0  0  0  0  0  0  0  0  0
    1.6357    2.9163    2.6744 H   0  0  0  0  0  0  0  0  0  0  0  0
    0.9131    3.6277    1.2153 H   0  0  0  0  0  0  0  0  0  0  0  0
  1  2  1  0  0  0  0
  2  3  1  0  0  0  0
  2  4  1  0  0  0  0
  2  5  1  0  0  0  0
  5  6  2  0  0  0  0
  5  7  1  0  0  0  0
  7  8  1  0  0  0  0
  7  9  1  0  0  0  0
  9 10  1  0  0  0  0
  9 11  1  0  0  0  0
  9 18  1  0  0  0  0
 11 12  1  0  0  0  0
 11 13  1  0  0  0  0
 11 14  1  0  0  0  0
 14 15  2  0  0  0  0
 14 16  1  0  0  0  0
 16 17  1  0  0  0  0
 18 19  2  0  0  0  0
 18 20  1  0  0  0  0
 20 21  1  0  0  0  0
 20 22  1  0  0  0  0
 22 23  1  0  0  0  0
 22 24  1  0  0  0  0
 22 25  1  0  0  0  0
M  END
$$$$

  -OEChem-03222214023D

 25 24  0     1  0  0  0  0  0999 V2000
   -2.7029   -4.0015    0.4388 H   0  0  0  0  0  0  0  0  0  0  0  0
   -2.7588   -2.9559    0.1230 C   0  0  0  0  0  0  0  0  0  0  0  0
   -3.3617   -2.4016    0.8463 H   0  0  0  0  0  0  0  0  0  0  0  0
   -3.2408   -2.9085   -0.8565 H   0  0  0  0  0  0  0  0  0  0  0  0
   -1.3663   -2.3590    0.0438 C   0  0  0  0  0  0  0  0  0  0  0  0
   -0.3919   -3.0547    0.2774 O   0  0  0  0  0  0  0  0  0  0  0  0
   -1.2102   -1.0307   -0.2976 N   0  0  0  0  0  0  0  0  0  0  0  0
   -2.0593   -0.4756   -0.3954 H   0  0  0  0  0  0  0  0  0  0  0  0
    0.0615   -0.2917   -0.2618 C   0  0  1  0  0  0  0  0  0  0  0  0
    0.7500   -0.8601    0.3729 H   0  0  0  0  0  0  0  0  0  0  0  0
    0.6361   -0.1931   -1.6894 C   0  0  0  0  0  0  0  0  0  0  0  0
    0.3418   -1.0767   -2.2612 H   0  0  0  0  0  0  0  0  0  0  0  0
    0.2196    0.6814   -2.1974 H   0  0  0  0  0  0  0  0  0  0  0  0
    2.1606   -0.1273   -1.7364 C   0  0  0  0  0  0  0  0  0  0  0  0
    2.8266   -0.6704   -0.8725 O   0  0  0  0  0  0  0  0  0  0  0  0
    2.7064    0.5491   -2.7690 O   0  0  0  0  0  0  0  0  0  0  0  0
    3.6653    0.4736   -2.6463 H   0  0  0  0  0  0  0  0  0  0  0  0
   -0.0664    1.0988    0.3803 C   0  0  0  0  0  0  0  0  0  0  0  0
   -1.0345    1.8006    0.1151 O   0  0  0  0  0  0  0  0  0  0  0  0
    0.8723    1.5311    1.2973 N   0  0  0  0  0  0  0  0  0  0  0  0
    1.6696    0.9237    1.4752 H   0  0  0  0  0  0  0  0  0  0  0  0
    0.8089    2.8279    1.9594 C   0  0  0  0  0  0  0  0  0  0  0  0
   -0.1379    2.9374    2.4988 H   0  0  0  0  0  0  0  0  0  0  0  0
    1.6280    2.9253    2.6786 H   0  0  0  0  0  0  0  0  0  0  0  0
    0.8928    3.6368    1.2261 H   0  0  0  0  0  0  0  0  0  0  0  0
  1  2  1  0  0  0  0
  2  3  1  0  0  0  0
  2  4  1  0  0  0  0
  2  5  1  0  0  0  0
  5  6  2  0  0  0  0
  5  7  1  0  0  0  0
  7  8  1  0  0  0  0
  7  9  1  0  0  0  0
  9 10  1  0  0  0  0
  9 11  1  0  0  0  0
  9 18  1  0  0  0  0
 11 12  1  0  0  0  0
 11 13  1  0  0  0  0
 11 14  1  0  0  0  0
 14 15  2  0  0  0  0
 14 16  1  0  0  0  0
 16 17  1  0  0  0  0
 18 19  2  0  0  0  0
 18 20  1  0  0  0  0
 20 21  1  0  0  0  0
 20 22  1  0  0  0  0
 22 23  1  0  0  0  0
 22 24  1  0  0  0  0
 22 25  1  0  0  0  0
M  END
$$$$

  -OEChem-03222214023D

 25 24  0     1  0  0  0  0  0999 V2000
   -2.6992   -4.0011    0.4335 H   0  0  0  0  0  0  0  0  0  0  0  0
   -2.7539   -2.9549    0.1196 C   0  0  0  0  0  0  0  0  0  0  0  0
   -3.3625   -2.4028    0.8397 H   0  0  0  0  0  0  0  0  0  0  0  0
   -3.2295   -2.9061   -0.8628 H   0  0  0  0  0  0  0  0  0  0  0  0
   -1.3613   -2.3567    0.0509 C   0  0  0  0  0  0  0  0  0  0  0  0
   -0.3892   -3.0499    0.2998 O   0  0  0  0  0  0  0  0  0  0  0  0
   -1.2029   -1.0292   -0.2925 N   0  0  0  0  0  0  0  0  0  0  0  0
   -2.0507   -0.4740   -0.3990 H   0  0  0  0  0  0  0  0  0  0  0  0
    0.0708   -0.2935   -0.2638 C   0  0  1  0  0  0  0  0  0  0  0  0
    0.7706   -0.8600    0.3606 H   0  0  0  0  0  0  0  0  0  0  0  0
    0.6288   -0.1881   -1.6966 C   0  0  0  0  0  0  0  0  0  0  0  0
    0.3303   -1.0681   -2.2720 H   0  0  0  0  0  0  0  0  0  0  0  0
    0.2124    0.6903   -2.1980 H   0  0  0  0  0  0  0  0  0  0  0  0
    2.1518   -0.1281   -1.7377 C   0  0  0  0  0  0  0  0  0  0  0  0
    2.8060   -0.8918   -1.0513 O   0  0  0  0  0  0  0  0  0  0  0  0
    2.7096    0.7942   -2.5501 O   0  0  0  0  0  0  0  0  0  0  0  0
    3.6670    0.6722   -2.4567 H   0  0  0  0  0  0  0  0  0  0  0  0
   -0.0606    1.0967    0.3795 C   0  0  0  0  0  0  0  0  0  0  0  0
   -1.0280    1.7981    0.1106 O   0  0  0  0  0  0  0  0  0  0  0  0
    0.8771    1.5346    1.2952 N   0  0  0  0  0  0  0  0  0  0  0  0
    1.6589    0.9172    1.5022 H   0  0  0  0  0  0  0  0  0  0  0  0
    0.8044    2.8305    1.9585 C   0  0  0  0  0  0  0  0  0  0  0  0
   -0.1384    2.9293    2.5068 H   0  0  0  0  0  0  0  0  0  0  0  0
    1.6292    2.9381    2.6696 H   0  0  0  0  0  0  0  0  0  0  0  0
    0.8714    3.6400    1.2243 H   0  0  0  0  0  0  0  0  0  0  0  0
  1  2  1  0  0  0  0
  2  3  1  0  0  0  0
  2  4  1  0  0  0  0
  2  5  1  0  0  0  0
  5  6  2  0  0  0  0
  5  7  1  0  0  0  0
  7  8  1  0  0  0  0
  7  9  1  0  0  0  0
  9 10  1  0  0  0  0
  9 11  1  0  0  0  0
  9 18  1  0  0  0  0
 11 12  1  0  0  0  0
 11 13  1  0  0  0  0
 11 14  1  0  0  0  0
 14 15  2  0  0  0  0
 14 16  1  0  0  0  0
 16 17  1  0  0  0  0
 18 19  2  0  0  0  0
 18 20  1  0  0  0  0
 20 21  1  0  0  0  0
 20 22  1  0  0  0  0
 22 23  1  0  0  0  0
 22 24  1  0  0  0  0
 22 25  1  0  0  0  0
M  END
$$$$

  -OEChem-03222214023D

 25 24  0     1  0  0  0  0  0999 V2000
   -2.6975   -4.0015    0.4285 H   0  0  0  0  0  0  0  0  0  0  0  0
   -2.7500   -2.9547    0.1163 C   0  0  0  0  0  0  0  0  0  0  0  0
   -3.3626   -2.4042    0.8343 H   0  0  0  0  0  0  0  0  0  0  0  0
   -3.2200   -2.9040   -0.8688 H   0  0  0  0  0  0  0  0  0  0  0  0
   -1.3570   -2.3567    0.0568 C   0  0  0  0  0  0  0  0  0  0  0  0
   -0.3871   -3.0465    0.3231 O   0  0  0  0  0  0  0  0  0  0  0  0
   -1.1968   -1.0300   -0.2882 N   0  0  0  0  0  0  0  0  0  0  0  0
   -2.0436   -0.4755   -0.4059 H   0  0  0  0  0  0  0  0  0  0  0  0
    0.0784   -0.2969   -0.2673 C   0  0  1  0  0  0  0  0  0  0  0  0
    0.7910   -0.8639    0.3432 H   0  0  0  0  0  0  0  0  0  0  0  0
    0.6199   -0.1819   -1.7039 C   0  0  0  0  0  0  0  0  0  0  0  0
    0.3171   -1.0575   -2.2838 H   0  0  0  0  0  0  0  0  0  0  0  0
    0.2055    0.7016   -2.1983 H   0  0  0  0  0  0  0  0  0  0  0  0
    2.1412   -0.1274   -1.7341 C   0  0  0  0  0  0  0  0  0  0  0  0
    2.7794   -1.0572   -1.2775 O   0  0  0  0  0  0  0  0  0  0  0  0
    2.7149    0.9784   -2.2530 O   0  0  0  0  0  0  0  0  0  0  0  0
    3.6702    0.8222   -2.1957 H   0  0  0  0  0  0  0  0  0  0  0  0
   -0.0562    1.0928    0.3784 C   0  0  0  0  0  0  0  0  0  0  0  0
   -1.0267    1.7909    0.1113 O   0  0  0  0  0  0  0  0  0  0  0  0
    0.8815    1.5359    1.2919 N   0  0  0  0  0  0  0  0  0  0  0  0
    1.6599    0.9182    1.5084 H   0  0  0  0  0  0  0  0  0  0  0  0
    0.8035    2.8326    1.9529 C   0  0  0  0  0  0  0  0  0  0  0  0
   -0.1364    2.9245    2.5075 H   0  0  0  0  0  0  0  0  0  0  0  0
    1.6328    2.9486    2.6574 H   0  0  0  0  0  0  0  0  0  0  0  0
    0.8586    3.6411    1.2166 H   0  0  0  0  0  0  0  0  0  0  0  0
  1  2  1  0  0  0  0
  2  3  1  0  0  0  0
  2  4  1  0  0  0  0
  2  5  1  0  0  0  0
  5  6  2  0  0  0  0
  5  7  1  0  0  0  0
  7  8  1  0  0  0  0
  7  9  1  0  0  0  0
  9 10  1  0  0  0  0
  9 11  1  0  0  0  0
  9 18  1  0  0  0  0
 11 12  1  0  0  0  0
 11 13  1  0  0  0  0
 11 14  1  0  0  0  0
 14 15  2  0  0  0  0
 14 16  1  0  0  0  0
 16 17  1  0  0  0  0
 18 19  2  0  0  0  0
 18 20  1  0  0  0  0
 20 21  1  0  0  0  0
 20 22  1  0  0  0  0
 22 23  1  0  0  0  0
 22 24  1  0  0  0  0
 22 25  1  0  0  0  0
M  END
$$$$

  -OEChem-03222214023D

 25 24  0     1  0  0  0  0  0999 V2000
   -2.6929   -4.0032    0.4247 H   0  0  0  0  0  0  0  0  0  0  0  0
   -2.7465   -2.9564    0.1127 C   0  0  0  0  0  0  0  0  0  0  0  0
   -3.3610   -2.4068    0.8298 H   0  0  0  0  0  0  0  0  0  0  0  0
   -3.2147   -2.9061   -0.8732 H   0  0  0  0  0  0  0  0  0  0  0  0
   -1.3543   -2.3564    0.0559 C   0  0  0  0  0  0  0  0  0  0  0  0
   -0.3839   -3.0431    0.3287 O   0  0  0  0  0  0  0  0  0  0  0  0
   -1.1943   -1.0293   -0.2874 N   0  0  0  0  0  0  0  0  0  0  0  0
   -2.0407   -0.4740   -0.4048 H   0  0  0  0  0  0  0  0  0  0  0  0
    0.0823   -0.2988   -0.2697 C   0  0  1  0  0  0  0  0  0  0  0  0
    0.8021   -0.8671    0.3313 H   0  0  0  0  0  0  0  0  0  0  0  0
    0.6149   -0.1754   -1.7075 C   0  0  0  0  0  0  0  0  0  0  0  0
    0.3078   -1.0464   -2.2928 H   0  0  0  0  0  0  0  0  0  0  0  0
    0.2057    0.7137   -2.1960 H   0  0  0  0  0  0  0  0  0  0  0  0
    2.1350   -0.1259   -1.7261 C   0  0  0  0  0  0  0  0  0  0  0  0
    2.7608   -1.1510   -1.5346 O   0  0  0  0  0  0  0  0  0  0  0  0
    2.7213    1.0748   -1.9159 O   0  0  0  0  0  0  0  0  0  0  0  0
    3.6746    0.8970   -1.9064 H   0  0  0  0  0  0  0  0  0  0  0  0
   -0.0563    1.0891    0.3808 C   0  0  0  0  0  0  0  0  0  0  0  0
   -1.0334    1.7812    0.1217 O   0  0  0  0  0  0  0  0  0  0  0  0
    0.8796    1.5347    1.2949 N   0  0  0  0  0  0  0  0  0  0  0  0
    1.6707    0.9290    1.4965 H   0  0  0  0  0  0  0  0  0  0  0  0
    0.8026    2.8357    1.9477 C   0  0  0  0  0  0  0  0  0  0  0  0
   -0.1374    2.9324    2.5012 H   0  0  0  0  0  0  0  0  0  0  0  0
    1.6314    2.9553    2.6522 H   0  0  0  0  0  0  0  0  0  0  0  0
    0.8597    3.6397    1.2063 H   0  0  0  0  0  0  0  0  0  0  0  0
  1  2  1  0  0  0  0
  2  3  1  0  0  0  0
  2  4  1  0  0  0  0
  2  5  1  0  0  0  0
  5  6  2  0  0  0  0
  5  7  1  0  0  0  0
  7  8  1  0  0  0  0
  7  9  1  0  0  0  0
  9 10  1  0  0  0  0
  9 11  1  0  0  0  0
  9 18  1  0  0  0  0
 11 12  1  0  0  0  0
 11 13  1  0  0  0  0
 11 14  1  0  0  0  0
 14 15  2  0  0  0  0
 14 16  1  0  0  0  0
 16 17  1  0  0  0  0
 18 19  2  0  0  0  0
 18 20  1  0  0  0  0
 20 21  1  0  0  0  0
 20 22  1  0  0  0  0
 22 23  1  0  0  0  0
 22 24  1  0  0  0  0
 22 25  1  0  0  0  0
M  END
$$$$

  -OEChem-03222214023D

 25 24  0     1  0  0  0  0  0999 V2000
   -2.6917   -4.0026    0.4227 H   0  0  0  0  0  0  0  0  0  0  0  0
   -2.7452   -2.9559    0.1102 C   0  0  0  0  0  0  0  0  0  0  0  0
   -3.3598   -2.4056    0.8267 H   0  0  0  0  0  0  0  0  0  0  0  0
   -3.2138   -2.9063   -0.8756 H   0  0  0  0  0  0  0  0  0  0  0  0
   -1.3528   -2.3558    0.0534 C   0  0  0  0  0  0  0  0  0  0  0  0
   -0.3819   -3.0429    0.3243 O   0  0  0  0  0  0  0  0  0  0  0  0
   -1.1914   -1.0281   -0.2871 N   0  0  0  0  0  0  0  0  0  0  0  0
   -2.0366   -0.4698   -0.3997 H   0  0  0  0  0  0  0  0  0  0  0  0
    0.0874   -0.3016   -0.2675 C   0  0  1  0  0  0  0  0  0  0  0  0
    0.8092   -0.8715    0.3295 H   0  0  0  0  0  0  0  0  0  0  0  0
    0.6165   -0.1707   -1.7055 C   0  0  0  0  0  0  0  0  0  0  0  0
    0.3013   -1.0348   -2.2971 H   0  0  0  0  0  0  0  0  0  0  0  0
    0.2143    0.7255   -2.1866 H   0  0  0  0  0  0  0  0  0  0  0  0
    2.1366   -0.1278   -1.7207 C   0  0  0  0  0  0  0  0  0  0  0  0
    2.7533   -1.1717   -1.8131 O   0  0  0  0  0  0  0  0  0  0  0  0
    2.7336    1.0748   -1.5823 O   0  0  0  0  0  0  0  0  0  0  0  0
    3.6850    0.8926   -1.6345 H   0  0  0  0  0  0  0  0  0  0  0  0
   -0.0571    1.0843    0.3888 C   0  0  0  0  0  0  0  0  0  0  0  0
   -1.0419    1.7684    0.1365 O   0  0  0  0  0  0  0  0  0  0  0  0
    0.8729    1.5329    1.3076 N   0  0  0  0  0  0  0  0  0  0  0  0
    1.6912    0.9534    1.4724 H   0  0  0  0  0  0  0  0  0  0  0  0
    0.7942    2.8395    1.9493 C   0  0  0  0  0  0  0  0  0  0  0  0
   -0.1548    2.9478    2.4851 H   0  0  0  0  0  0  0  0  0  0  0  0
    1.6106    2.9578    2.6683 H   0  0  0  0  0  0  0  0  0  0  0  0
    0.8706    3.6373    1.2031 H   0  0  0  0  0  0  0  0  0  0  0  0
  1  2  1  0  0  0  0
  2  3  1  0  0  0  0
  2  4  1  0  0  0  0
  2  5  1  0  0  0  0
  5  6  2  0  0  0  0
  5  7  1  0  0  0  0
  7  8  1  0  0  0  0
  7  9  1  0  0  0  0
  9 10  1  0  0  0  0
  9 11  1  0  0  0  0
  9 18  1  0  0  0  0
 11 12  1  0  0  0  0
 11 13  1  0  0  0  0
 11 14  1  0  0  0  0
 14 15  2  0  0  0  0
 14 16  1  0  0  0  0
 16 17  1  0  0  0  0
 18 19  2  0  0  0  0
 18 20  1  0  0  0  0
 20 21  1  0  0  0  0
 20 22  1  0  0  0  0
 22 23  1  0  0  0  0
 22 24  1  0  0  0  0
 22 25  1  0  0  0  0
M  END
$$$$

  -OEChem-03222214023D

 25 24  0     1  0  0  0  0  0999 V2000
   -2.6949   -3.9965    0.4227 H   0  0  0  0  0  0  0  0  0  0  0  0
   -2.7458   -2.9500    0.1094 C   0  0  0  0  0  0  0  0  0  0  0  0
   -3.3586   -2.3975    0.8258 H   0  0  0  0  0  0  0  0  0  0  0  0
   -3.2141   -2.8997   -0.8764 H   0  0  0  0  0  0  0  0  0  0  0  0
   -1.3520   -2.3543    0.0511 C   0  0  0  0  0  0  0  0  0  0  0  0
   -0.3815   -3.0452    0.3151 O   0  0  0  0  0  0  0  0  0  0  0  0
   -1.1876   -1.0265   -0.2867 N   0  0  0  0  0  0  0  0  0  0  0  0
   -2.0310   -0.4632   -0.3895 H   0  0  0  0  0  0  0  0  0  0  0  0
    0.0936   -0.3053   -0.2627 C   0  0  1  0  0  0  0  0  0  0  0  0
    0.8140   -0.8760    0.3348 H   0  0  0  0  0  0  0  0  0  0  0  0
    0.6240   -0.1689   -1.6998 C   0  0  0  0  0  0  0  0  0  0  0  0
    0.3000   -1.0270   -2.2962 H   0  0  0  0  0  0  0  0  0  0  0  0
    0.2276    0.7331   -2.1741 H   0  0  0  0  0  0  0  0  0  0  0  0
    2.1452   -0.1328   -1.7171 C   0  0  0  0  0  0  0  0  0  0  0  0
    2.7510   -1.1198   -2.0882 O   0  0  0  0  0  0  0  0  0  0  0  0
    2.7568    0.9871   -1.2746 O   0  0  0  0  0  0  0  0  0  0  0  0
    3.7052    0.8156   -1.3883 H   0  0  0  0  0  0  0  0  0  0  0  0
   -0.0602    1.0784    0.3986 C   0  0  0  0  0  0  0  0  0  0  0  0
   -1.0546    1.7521    0.1543 O   0  0  0  0  0  0  0  0  0  0  0  0
    0.8616    1.5289    1.3246 N   0  0  0  0  0  0  0  0  0  0  0  0
    1.7132    0.9859    1.4371 H   0  0  0  0  0  0  0  0  0  0  0  0
    0.7790    2.8404    1.9552 C   0  0  0  0  0  0  0  0  0  0  0  0
   -0.1801    2.9600    2.4703 H   0  0  0  0  0  0  0  0  0  0  0  0
    1.5803    2.9568    2.6912 H   0  0  0  0  0  0  0  0  0  0  0  0
    0.8776    3.6319    1.2048 H   0  0  0  0  0  0  0  0  0  0  0  0
  1  2  1  0  0  0  0
  2  3  1  0  0  0  0
  2  4  1  0  0  0  0
  2  5  1  0  0  0  0
  5  6  2  0  0  0  0
  5  7  1  0  0  0  0
  7  8  1  0  0  0  0
  7  9  1  0  0  0  0
  9 10  1  0  0  0  0
  9 11  1  0  0  0  0
  9 18  1  0  0  0  0
 11 12  1  0  0  0  0
 11 13  1  0  0  0  0
 11 14  1  0  0  0  0
 14 15  2  0  0  0  0
 14 16  1  0  0  0  0
 16 17  1  0  0  0  0
 18 19  2  0  0  0  0
 18 20  1  0  0  0  0
 20 21  1  0  0  0  0
 20 22  1  0  0  0  0
 22 23  1  0  0  0  0
 22 24  1  0  0  0  0
 22 25  1  0  0  0  0
M  END
$$$$

  -OEChem-03222214023D

 25 24  0     1  0  0  0  0  0999 V2000
   -2.6999   -3.9917    0.4225 H   0  0  0  0  0  0  0  0  0  0  0  0
   -2.7490   -2.9446    0.1110 C   0  0  0  0  0  0  0  0  0  0  0  0
   -3.3565   -2.3912    0.8311 H   0  0  0  0  0  0  0  0  0  0  0  0
   -3.2225   -2.8915   -0.8723 H   0  0  0  0  0  0  0  0  0  0  0  0
   -1.3537   -2.3523    0.0460 C   0  0  0  0  0  0  0  0  0  0  0  0
   -0.3824   -3.0474    0.2965 O   0  0  0  0  0  0  0  0  0  0  0  0
   -1.1867   -1.0241   -0.2889 N   0  0  0  0  0  0  0  0  0  0  0  0
   -2.0285   -0.4563   -0.3796 H   0  0  0  0  0  0  0  0  0  0  0  0
    0.0967   -0.3068   -0.2580 C   0  0  1  0  0  0  0  0  0  0  0  0
    0.8130   -0.8776    0.3443 H   0  0  0  0  0  0  0  0  0  0  0  0
    0.6356   -0.1702   -1.6925 C   0  0  0  0  0  0  0  0  0  0  0  0
    0.3078   -1.0262   -2.2899 H   0  0  0  0  0  0  0  0  0  0  0  0
    0.2446    0.7347   -2.1655 H   0  0  0  0  0  0  0  0  0  0  0  0
    2.1583   -0.1389   -1.7108 C   0  0  0  0  0  0  0  0  0  0  0  0
    2.7492   -1.0014   -2.3322 O   0  0  0  0  0  0  0  0  0  0  0  0
    2.7890    0.8273   -1.0071 O   0  0  0  0  0  0  0  0  0  0  0  0
    3.7335    0.6749   -1.1726 H   0  0  0  0  0  0  0  0  0  0  0  0
   -0.0647    1.0751    0.4069 C   0  0  0  0  0  0  0  0  0  0  0  0
   -1.0638    1.7428    0.1645 O   0  0  0  0  0  0  0  0  0  0  0  0
    0.8498    1.5249    1.3400 N   0  0  0  0  0  0  0  0  0  0  0  0
    1.7246    1.0111    1.4085 H   0  0  0  0  0  0  0  0  0  0  0  0
    0.7643    2.8401    1.9626 C   0  0  0  0  0  0  0  0  0  0  0  0
   -0.1991    2.9636    2.4687 H   0  0  0  0  0  0  0  0  0  0  0  0
    1.5594    2.9593    2.7048 H   0  0  0  0  0  0  0  0  0  0  0  0
    0.8703    3.6278    1.2094 H   0  0  0  0  0  0  0  0  0  0  0  0
  1  2  1  0  0  0  0
  2  3  1  0  0  0  0
  2  4  1  0  0  0  0
  2  5  1  0  0  0  0
  5  6  2  0  0  0  0
  5  7  1  0  0  0  0
  7  8  1  0  0  0  0
  7  9  1  0  0  0  0
  9 10  1  0  0  0  0
  9 11  1  0  0  0  0
  9 18  1  0  0  0  0
 11 12  1  0  0  0  0
 11 13  1  0  0  0  0
 11 14  1  0  0  0  0
 14 15  2  0  0  0  0
 14 16  1  0  0  0  0
 16 17  1  0  0  0  0
 18 19  2  0  0  0  0
 18 20  1  0  0  0  0
 20 21  1  0  0  0  0
 20 22  1  0  0  0  0
 22 23  1  0  0  0  0
 22 24  1  0  0  0  0
 22 25  1  0  0  0  0
M  END
$$$$

  -OEChem-03222214023D

 25 24  0     1  0  0  0  0  0999 V2000
   -2.7056   -3.9867    0.4246 H   0  0  0  0  0  0  0  0  0  0  0  0
   -2.7534   -2.9398    0.1116 C   0  0  0  0  0  0  0  0  0  0  0  0
   -3.3591   -2.3845    0.8318 H   0  0  0  0  0  0  0  0  0  0  0  0
   -3.2279   -2.8871   -0.8712 H   0  0  0  0  0  0  0  0  0  0  0  0
   -1.3573   -2.3501    0.0441 C   0  0  0  0  0  0  0  0  0  0  0  0
   -0.3864   -3.0482    0.2887 O   0  0  0  0  0  0  0  0  0  0  0  0
   -1.1883   -1.0223   -0.2914 N   0  0  0  0  0  0  0  0  0  0  0  0
   -2.0291   -0.4522   -0.3778 H   0  0  0  0  0  0  0  0  0  0  0  0
    0.0960   -0.3073   -0.2528 C   0  0  1  0  0  0  0  0  0  0  0  0
    0.8056   -0.8783    0.3570 H   0  0  0  0  0  0  0  0  0  0  0  0
    0.6469   -0.1772   -1.6838 C   0  0  0  0  0  0  0  0  0  0  0  0
    0.3202   -1.0356   -2.2785 H   0  0  0  0  0  0  0  0  0  0  0  0
    0.2586    0.7264   -2.1614 H   0  0  0  0  0  0  0  0  0  0  0  0
    2.1707   -0.1480   -1.7034 C   0  0  0  0  0  0  0  0  0  0  0  0
    2.7461   -0.8288   -2.5311 O   0  0  0  0  0  0  0  0  0  0  0  0
    2.8207    0.6175   -0.7968 O   0  0  0  0  0  0  0  0  0  0  0  0
    3.7614    0.4959   -1.0058 H   0  0  0  0  0  0  0  0  0  0  0  0
   -0.0674    1.0758    0.4097 C   0  0  0  0  0  0  0  0  0  0  0  0
   -1.0666    1.7426    0.1653 O   0  0  0  0  0  0  0  0  0  0  0  0
    0.8422    1.5239    1.3479 N   0  0  0  0  0  0  0  0  0  0  0  0
    1.7249    1.0205    1.3983 H   0  0  0  0  0  0  0  0  0  0  0  0
    0.7552    2.8387    1.9710 C   0  0  0  0  0  0  0  0  0  0  0  0
   -0.2118    2.9650    2.4694 H   0  0  0  0  0  0  0  0  0  0  0  0
    1.5442    2.9542    2.7202 H   0  0  0  0  0  0  0  0  0  0  0  0
    0.8700    3.6265    1.2193 H   0  0  0  0  0  0  0  0  0  0  0  0
  1  2  1  0  0  0  0
  2  3  1  0  0  0  0
  2  4  1  0  0  0  0
  2  5  1  0  0  0  0
  5  6  2  0  0  0  0
  5  7  1  0  0  0  0
  7  8  1  0  0  0  0
  7  9  1  0  0  0  0
  9 10  1  0  0  0  0
  9 11  1  0  0  0  0
  9 18  1  0  0  0  0
 11 12  1  0  0  0  0
 11 13  1  0  0  0  0
 11 14  1  0  0  0  0
 14 15  2  0  0  0  0
 14 16  1  0  0  0  0
 16 17  1  0  0  0  0
 18 19  2  0  0  0  0
 18 20  1  0  0  0  0
 20 21  1  0  0  0  0
 20 22  1  0  0  0  0
 22 23  1  0  0  0  0
 22 24  1  0  0  0  0
 22 25  1  0  0  0  0
M  END
$$$$

  -OEChem-03222214023D

 25 24  0     1  0  0  0  0  0999 V2000
   -2.7144   -3.9866    0.4259 H   0  0  0  0  0  0  0  0  0  0  0  0
   -2.7618   -2.9406    0.1102 C   0  0  0  0  0  0  0  0  0  0  0  0
   -3.3689   -2.3833    0.8278 H   0  0  0  0  0  0  0  0  0  0  0  0
   -3.2347   -2.8906   -0.8736 H   0  0  0  0  0  0  0  0  0  0  0  0
   -1.3652   -2.3514    0.0445 C   0  0  0  0  0  0  0  0  0  0  0  0
   -0.3951   -3.0507    0.2887 O   0  0  0  0  0  0  0  0  0  0  0  0
   -1.1945   -1.0242   -0.2926 N   0  0  0  0  0  0  0  0  0  0  0  0
   -2.0350   -0.4543   -0.3815 H   0  0  0  0  0  0  0  0  0  0  0  0
    0.0888   -0.3076   -0.2479 C   0  0  1  0  0  0  0  0  0  0  0  0
    0.7894   -0.8794    0.3716 H   0  0  0  0  0  0  0  0  0  0  0  0
    0.6556   -0.1862   -1.6739 C   0  0  0  0  0  0  0  0  0  0  0  0
    0.3380   -1.0512   -2.2634 H   0  0  0  0  0  0  0  0  0  0  0  0
    0.2669    0.7119   -2.1614 H   0  0  0  0  0  0  0  0  0  0  0  0
    2.1803   -0.1532   -1.6924 C   0  0  0  0  0  0  0  0  0  0  0  0
    2.7429   -0.6063   -2.6712 O   0  0  0  0  0  0  0  0  0  0  0  0
    2.8450    0.3813   -0.6405 O   0  0  0  0  0  0  0  0  0  0  0  0
    3.7826    0.2985   -0.8805 H   0  0  0  0  0  0  0  0  0  0  0  0
   -0.0698    1.0779    0.4088 C   0  0  0  0  0  0  0  0  0  0  0  0
   -1.0628    1.7509    0.1572 O   0  0  0  0  0  0  0  0  0  0  0  0
    0.8407    1.5220    1.3478 N   0  0  0  0  0  0  0  0  0  0  0  0
    1.7191    1.0102    1.4013 H   0  0  0  0  0  0  0  0  0  0  0  0
    0.7600    2.8361    1.9733 C   0  0  0  0  0  0  0  0  0  0  0  0
   -0.2085    2.9682    2.4674 H   0  0  0  0  0  0  0  0  0  0  0  0
    1.5463    2.9445    2.7266 H   0  0  0  0  0  0  0  0  0  0  0  0
    0.8839    3.6252    1.2243 H   0  0  0  0  0  0  0  0  0  0  0  0
  1  2  1  0  0  0  0
  2  3  1  0  0  0  0
  2  4  1  0  0  0  0
  2  5  1  0  0  0  0
  5  6  2  0  0  0  0
  5  7  1  0  0  0  0
  7  8  1  0  0  0  0
  7  9  1  0  0  0  0
  9 10  1  0  0  0  0
  9 11  1  0  0  0  0
  9 18  1  0  0  0  0
 11 12  1  0  0  0  0
 11 13  1  0  0  0  0
 11 14  1  0  0  0  0
 14 15  2  0  0  0  0
 14 16  1  0  0  0  0
 16 17  1  0  0  0  0
 18 19  2  0  0  0  0
 18 20  1  0  0  0  0
 20 21  1  0  0  0  0
 20 22  1  0  0  0  0
 22 23  1  0  0  0  0
 22 24  1  0  0  0  0
 22 25  1  0  0  0  0
M  END
$$$$

  -OEChem-03222214023D

 25 24  0     1  0  0  0  0  0999 V2000
   -2.7251   -3.9889    0.4274 H   0  0  0  0  0  0  0  0  0  0  0  0
   -2.7723   -2.9433    0.1105 C   0  0  0  0  0  0  0  0  0  0  0  0
   -3.3784   -2.3851    0.8282 H   0  0  0  0  0  0  0  0  0  0  0  0
   -3.2464   -2.8940   -0.8727 H   0  0  0  0  0  0  0  0  0  0  0  0
   -1.3758   -2.3546    0.0417 C   0  0  0  0  0  0  0  0  0  0  0  0
   -0.4052   -3.0549    0.2817 O   0  0  0  0  0  0  0  0  0  0  0  0
   -1.2059   -1.0276   -0.2969 N   0  0  0  0  0  0  0  0  0  0  0  0
   -2.0477   -0.4600   -0.3889 H   0  0  0  0  0  0  0  0  0  0  0  0
    0.0754   -0.3075   -0.2467 C   0  0  1  0  0  0  0  0  0  0  0  0
    0.7630   -0.8814    0.3848 H   0  0  0  0  0  0  0  0  0  0  0  0
    0.6627   -0.1986   -1.6657 C   0  0  0  0  0  0  0  0  0  0  0  0
    0.3572   -1.0719   -2.2487 H   0  0  0  0  0  0  0  0  0  0  0  0
    0.2737    0.6920   -2.1669 H   0  0  0  0  0  0  0  0  0  0  0  0
    2.1882   -0.1588   -1.6778 C   0  0  0  0  0  0  0  0  0  0  0  0
    2.7411   -0.3553   -2.7433 O   0  0  0  0  0  0  0  0  0  0  0  0
    2.8629    0.1344   -0.5397 O   0  0  0  0  0  0  0  0  0  0  0  0
    3.7984    0.1050   -0.7993 H   0  0  0  0  0  0  0  0  0  0  0  0
   -0.0717    1.0808    0.4031 C   0  0  0  0  0  0  0  0  0  0  0  0
   -1.0564    1.7639    0.1479 O   0  0  0  0  0  0  0  0  0  0  0  0
    0.8445    1.5170    1.3399 N   0  0  0  0  0  0  0  0  0  0  0  0
    1.7075    0.9813    1.4147 H   0  0  0  0  0  0  0  0  0  0  0  0
    0.7762    2.8302    1.9688 C   0  0  0  0  0  0  0  0  0  0  0  0
   -0.1886    2.9667    2.4691 H   0  0  0  0  0  0  0  0  0  0  0  0
    1.5679    2.9322    2.7174 H   0  0  0  0  0  0  0  0  0  0  0  0
    0.8998    3.6201    1.2206 H   0  0  0  0  0  0  0  0  0  0  0  0
  1  2  1  0  0  0  0
  2  3  1  0  0  0  0
  2  4  1  0  0  0  0
  2  5  1  0  0  0  0
  5  6  2  0  0  0  0
  5  7  1  0  0  0  0
  7  8  1  0  0  0  0
  7  9  1  0  0  0  0
  9 10  1  0  0  0  0
  9 11  1  0  0  0  0
  9 18  1  0  0  0  0
 11 12  1  0  0  0  0
 11 13  1  0  0  0  0
 11 14  1  0  0  0  0
 14 15  2  0  0  0  0
 14 16  1  0  0  0  0
 16 17  1  0  0  0  0
 18 19  2  0  0  0  0
 18 20  1  0  0  0  0
 20 21  1  0  0  0  0
 20 22  1  0  0  0  0
 22 23  1  0  0  0  0
 22 24  1  0  0  0  0
 22 25  1  0  0  0  0
M  END
$$$$

  -OEChem-03222214023D

 25 24  0     1  0  0  0  0  0999 V2000
   -2.7536   -3.9836    0.4311 H   0  0  0  0  0  0  0  0  0  0  0  0
   -2.7938   -2.9378    0.1136 C   0  0  0  0  0  0  0  0  0  0  0  0
   -3.4000   -2.3762    0.8287 H   0  0  0  0  0  0  0  0  0  0  0  0
   -3.2632   -2.8866   -0.8718 H   0  0  0  0  0  0  0  0  0  0  0  0
   -1.3939   -2.3564    0.0514 C   0  0  0  0  0  0  0  0  0  0  0  0
   -0.4291   -3.0596    0.3047 O   0  0  0  0  0  0  0  0  0  0  0  0
   -1.2170   -1.0324   -0.2961 N   0  0  0  0  0  0  0  0  0  0  0  0
   -2.0572   -0.4668   -0.4103 H   0  0  0  0  0  0  0  0  0  0  0  0
    0.0639   -0.3103   -0.2430 C   0  0  1  0  0  0  0  0  0  0  0  0
    0.7255   -0.8797    0.4171 H   0  0  0  0  0  0  0  0  0  0  0  0
    0.6728   -0.2271   -1.6610 C   0  0  0  0  0  0  0  0  0  0  0  0
    0.1718   -0.9499   -2.3103 H   0  0  0  0  0  0  0  0  0  0  0  0
    0.5007    0.7667   -2.0841 H   0  0  0  0  0  0  0  0  0  0  0  0
    2.1656   -0.5408   -1.7289 C   0  0  0  0  0  0  0  0  0  0  0  0
    2.6826   -0.4880   -2.8291 O   0  0  0  0  0  0  0  0  0  0  0  0
    2.8741   -0.7446   -0.5937 O   0  0  0  0  0  0  0  0  0  0  0  0
    3.7820   -0.9096   -0.8947 H   0  0  0  0  0  0  0  0  0  0  0  0
   -0.0664    1.0847    0.3896 C   0  0  0  0  0  0  0  0  0  0  0  0
   -1.0277    1.7890    0.1071 O   0  0  0  0  0  0  0  0  0  0  0  0
    0.8560    1.5168    1.3229 N   0  0  0  0  0  0  0  0  0  0  0  0
    1.6539    0.9130    1.5081 H   0  0  0  0  0  0  0  0  0  0  0  0
    0.7913    2.8225    1.9672 C   0  0  0  0  0  0  0  0  0  0  0  0
   -0.1634    2.9457    2.4894 H   0  0  0  0  0  0  0  0  0  0  0  0
    1.5991    2.9243    2.6983 H   0  0  0  0  0  0  0  0  0  0  0  0
    0.8926    3.6207    1.2244 H   0  0  0  0  0  0  0  0  0  0  0  0
  1  2  1  0  0  0  0
  2  3  1  0  0  0  0
  2  4  1  0  0  0  0
  2  5  1  0  0  0  0
  5  6  2  0  0  0  0
  5  7  1  0  0  0  0
  7  8  1  0  0  0  0
  7  9  1  0  0  0  0
  9 10  1  0  0  0  0
  9 11  1  0  0  0  0
  9 18  1  0  0  0  0
 11 12  1  0  0  0  0
 11 13  1  0  0  0  0
 11 14  1  0  0  0  0
 14 15  2  0  0  0  0
 14 16  1  0  0  0  0
 16 17  1  0  0  0  0
 18 19  2  0  0  0  0
 18 20  1  0  0  0  0
 20 21  1  0  0  0  0
 20 22  1  0  0  0  0
 22 23  1  0  0  0  0
 22 24  1  0  0  0  0
 22 25  1  0  0  0  0
M  END
$$$$

  -OEChem-03222214023D

 25 24  0     1  0  0  0  0  0999 V2000
   -2.7522   -3.9772    0.4247 H   0  0  0  0  0  0  0  0  0  0  0  0
   -2.7896   -2.9298    0.1122 C   0  0  0  0  0  0  0  0  0  0  0  0
   -3.4000   -2.3710    0.8257 H   0  0  0  0  0  0  0  0  0  0  0  0
   -3.2519   -2.8733   -0.8762 H   0  0  0  0  0  0  0  0  0  0  0  0
   -1.3890   -2.3492    0.0627 C   0  0  0  0  0  0  0  0  0  0  0  0
   -0.4283   -3.0516    0.3321 O   0  0  0  0  0  0  0  0  0  0  0  0
   -1.2080   -1.0274   -0.2905 N   0  0  0  0  0  0  0  0  0  0  0  0
   -2.0462   -0.4609   -0.4144 H   0  0  0  0  0  0  0  0  0  0  0  0
    0.0749   -0.3089   -0.2382 C   0  0  1  0  0  0  0  0  0  0  0  0
    0.7392   -0.8730    0.4231 H   0  0  0  0  0  0  0  0  0  0  0  0
    0.6757   -0.2275   -1.6611 C   0  0  0  0  0  0  0  0  0  0  0  0
    0.1695   -0.9515   -2.3049 H   0  0  0  0  0  0  0  0  0  0  0  0
    0.4975    0.7652   -2.0854 H   0  0  0  0  0  0  0  0  0  0  0  0
    2.1674   -0.5455   -1.7485 C   0  0  0  0  0  0  0  0  0  0  0  0
    2.7303   -0.2242   -2.7783 O   0  0  0  0  0  0  0  0  0  0  0  0
    2.8161   -1.1043   -0.7019 O   0  0  0  0  0  0  0  0  0  0  0  0
    3.7273   -1.2321   -1.0092 H   0  0  0  0  0  0  0  0  0  0  0  0
   -0.0612    1.0882    0.3894 C   0  0  0  0  0  0  0  0  0  0  0  0
   -1.0192    1.7925    0.0953 O   0  0  0  0  0  0  0  0  0  0  0  0
    0.8555    1.5267    1.3255 N   0  0  0  0  0  0  0  0  0  0  0  0
    1.6309    0.9084    1.5515 H   0  0  0  0  0  0  0  0  0  0  0  0
    0.7774    2.8301    1.9732 C   0  0  0  0  0  0  0  0  0  0  0  0
   -0.1745    2.9389    2.5036 H   0  0  0  0  0  0  0  0  0  0  0  0
    1.5901    2.9422    2.6972 H   0  0  0  0  0  0  0  0  0  0  0  0
    0.8613    3.6309    1.2311 H   0  0  0  0  0  0  0  0  0  0  0  0
  1  2  1  0  0  0  0
  2  3  1  0  0  0  0
  2  4  1  0  0  0  0
  2  5  1  0  0  0  0
  5  6  2  0  0  0  0
  5  7  1  0  0  0  0
  7  8  1  0  0  0  0
  7  9  1  0  0  0  0
  9 10  1  0  0  0  0
  9 11  1  0  0  0  0
  9 18  1  0  0  0  0
 11 12  1  0  0  0  0
 11 13  1  0  0  0  0
 11 14  1  0  0  0  0
 14 15  2  0  0  0  0
 14 16  1  0  0  0  0
 16 17  1  0  0  0  0
 18 19  2  0  0  0  0
 18 20  1  0  0  0  0
 20 21  1  0  0  0  0
 20 22  1  0  0  0  0
 22 23  1  0  0  0  0
 22 24  1  0  0  0  0
 22 25  1  0  0  0  0
M  END
$$$$

  -OEChem-03222214023D

 25 24  0     1  0  0  0  0  0999 V2000
   -2.7545   -3.9731    0.4285 H   0  0  0  0  0  0  0  0  0  0  0  0
   -2.7864   -2.9265    0.1129 C   0  0  0  0  0  0  0  0  0  0  0  0
   -3.4017   -2.3645    0.8196 H   0  0  0  0  0  0  0  0  0  0  0  0
   -3.2405   -2.8716   -0.8794 H   0  0  0  0  0  0  0  0  0  0  0  0
   -1.3838   -2.3497    0.0734 C   0  0  0  0  0  0  0  0  0  0  0  0
   -0.4289   -3.0524    0.3609 O   0  0  0  0  0  0  0  0  0  0  0  0
   -1.1968   -1.0293   -0.2820 N   0  0  0  0  0  0  0  0  0  0  0  0
   -2.0326   -0.4622   -0.4190 H   0  0  0  0  0  0  0  0  0  0  0  0
    0.0887   -0.3145   -0.2360 C   0  0  1  0  0  0  0  0  0  0  0  0
    0.7662   -0.8771    0.4142 H   0  0  0  0  0  0  0  0  0  0  0  0
    0.6726   -0.2181   -1.6645 C   0  0  0  0  0  0  0  0  0  0  0  0
    0.1609   -0.9342   -2.3118 H   0  0  0  0  0  0  0  0  0  0  0  0
    0.4932    0.7794   -2.0777 H   0  0  0  0  0  0  0  0  0  0  0  0
    2.1613   -0.5423   -1.7558 C   0  0  0  0  0  0  0  0  0  0  0  0
    2.7937    0.0177   -2.6319 O   0  0  0  0  0  0  0  0  0  0  0  0
    2.7198   -1.4170   -0.8909 O   0  0  0  0  0  0  0  0  0  0  0  0
    3.6438   -1.5021   -1.1724 H   0  0  0  0  0  0  0  0  0  0  0  0
   -0.0537    1.0825    0.3923 C   0  0  0  0  0  0  0  0  0  0  0  0
   -1.0120    1.7840    0.0921 O   0  0  0  0  0  0  0  0  0  0  0  0
    0.8593    1.5294    1.3285 N   0  0  0  0  0  0  0  0  0  0  0  0
    1.6314    0.9129    1.5685 H   0  0  0  0  0  0  0  0  0  0  0  0
    0.7709    2.8344    1.9718 C   0  0  0  0  0  0  0  0  0  0  0  0
   -0.1892    2.9444    2.4871 H   0  0  0  0  0  0  0  0  0  0  0  0
    1.5721    2.9485    2.7083 H   0  0  0  0  0  0  0  0  0  0  0  0
    0.8661    3.6337    1.2293 H   0  0  0  0  0  0  0  0  0  0  0  0
  1  2  1  0  0  0  0
  2  3  1  0  0  0  0
  2  4  1  0  0  0  0
  2  5  1  0  0  0  0
  5  6  2  0  0  0  0
  5  7  1  0  0  0  0
  7  8  1  0  0  0  0
  7  9  1  0  0  0  0
  9 10  1  0  0  0  0
  9 11  1  0  0  0  0
  9 18  1  0  0  0  0
 11 12  1  0  0  0  0
 11 13  1  0  0  0  0
 11 14  1  0  0  0  0
 14 15  2  0  0  0  0
 14 16  1  0  0  0  0
 16 17  1  0  0  0  0
 18 19  2  0  0  0  0
 18 20  1  0  0  0  0
 20 21  1  0  0  0  0
 20 22  1  0  0  0  0
 22 23  1  0  0  0  0
 22 24  1  0  0  0  0
 22 25  1  0  0  0  0
M  END
$$$$

  -OEChem-03222214023D

 25 24  0     1  0  0  0  0  0999 V2000
   -2.7502   -3.9801    0.4148 H   0  0  0  0  0  0  0  0  0  0  0  0
   -2.7835   -2.9313    0.1067 C   0  0  0  0  0  0  0  0  0  0  0  0
   -3.4011   -2.3756    0.8165 H   0  0  0  0  0  0  0  0  0  0  0  0
   -3.2352   -2.8698   -0.8863 H   0  0  0  0  0  0  0  0  0  0  0  0
   -1.3821   -2.3514    0.0740 C   0  0  0  0  0  0  0  0  0  0  0  0
   -0.4273   -3.0512    0.3683 O   0  0  0  0  0  0  0  0  0  0  0  0
   -1.1964   -1.0302   -0.2793 N   0  0  0  0  0  0  0  0  0  0  0  0
   -2.0325   -0.4640   -0.4183 H   0  0  0  0  0  0  0  0  0  0  0  0
    0.0896   -0.3159   -0.2425 C   0  0  1  0  0  0  0  0  0  0  0  0
    0.7799   -0.8800    0.3940 H   0  0  0  0  0  0  0  0  0  0  0  0
    0.6604   -0.2116   -1.6740 C   0  0  0  0  0  0  0  0  0  0  0  0
    0.1488   -0.9258   -2.3240 H   0  0  0  0  0  0  0  0  0  0  0  0
    0.4828    0.7875   -2.0843 H   0  0  0  0  0  0  0  0  0  0  0  0
    2.1470   -0.5410   -1.7468 C   0  0  0  0  0  0  0  0  0  0  0  0
    2.8546    0.1982   -2.4055 O   0  0  0  0  0  0  0  0  0  0  0  0
    2.6157   -1.6320   -1.1048 O   0  0  0  0  0  0  0  0  0  0  0  0
    3.5591   -1.6777   -1.3230 H   0  0  0  0  0  0  0  0  0  0  0  0
   -0.0506    1.0796    0.3915 C   0  0  0  0  0  0  0  0  0  0  0  0
   -1.0134    1.7792    0.1014 O   0  0  0  0  0  0  0  0  0  0  0  0
    0.8680    1.5269    1.3223 N   0  0  0  0  0  0  0  0  0  0  0  0
    1.6440    0.9132    1.5557 H   0  0  0  0  0  0  0  0  0  0  0  0
    0.7838    2.8330    1.9647 C   0  0  0  0  0  0  0  0  0  0  0  0
   -0.1583    2.9307    2.5145 H   0  0  0  0  0  0  0  0  0  0  0  0
    1.6102    2.9615    2.6706 H   0  0  0  0  0  0  0  0  0  0  0  0
    0.8400    3.6317    1.2174 H   0  0  0  0  0  0  0  0  0  0  0  0
  1  2  1  0  0  0  0
  2  3  1  0  0  0  0
  2  4  1  0  0  0  0
  2  5  1  0  0  0  0
  5  6  2  0  0  0  0
  5  7  1  0  0  0  0
  7  8  1  0  0  0  0
  7  9  1  0  0  0  0
  9 10  1  0  0  0  0
  9 11  1  0  0  0  0
  9 18  1  0  0  0  0
 11 12  1  0  0  0  0
 11 13  1  0  0  0  0
 11 14  1  0  0  0  0
 14 15  2  0  0  0  0
 14 16  1  0  0  0  0
 16 17  1  0  0  0  0
 18 19  2  0  0  0  0
 18 20  1  0  0  0  0
 20 21  1  0  0  0  0
 20 22  1  0  0  0  0
 22 23  1  0  0  0  0
 22 24  1  0  0  0  0
 22 25  1  0  0  0  0
M  END
$$$$

  -OEChem-03222214023D

 25 24  0     1  0  0  0  0  0999 V2000
   -2.7460   -3.9835    0.4209 H   0  0  0  0  0  0  0  0  0  0  0  0
   -2.7804   -2.9363    0.1076 C   0  0  0  0  0  0  0  0  0  0  0  0
   -3.3966   -2.3772    0.8158 H   0  0  0  0  0  0  0  0  0  0  0  0
   -3.2348   -2.8801   -0.8845 H   0  0  0  0  0  0  0  0  0  0  0  0
   -1.3794   -2.3558    0.0692 C   0  0  0  0  0  0  0  0  0  0  0  0
   -0.4235   -3.0530    0.3667 O   0  0  0  0  0  0  0  0  0  0  0  0
   -1.1970   -1.0333   -0.2804 N   0  0  0  0  0  0  0  0  0  0  0  0
   -2.0338   -0.4669   -0.4133 H   0  0  0  0  0  0  0  0  0  0  0  0
    0.0892   -0.3201   -0.2514 C   0  0  1  0  0  0  0  0  0  0  0  0
    0.7902   -0.8886    0.3703 H   0  0  0  0  0  0  0  0  0  0  0  0
    0.6476   -0.2002   -1.6845 C   0  0  0  0  0  0  0  0  0  0  0  0
    0.1358   -0.9074   -2.3417 H   0  0  0  0  0  0  0  0  0  0  0  0
    0.4735    0.8031   -2.0860 H   0  0  0  0  0  0  0  0  0  0  0  0
    2.1313   -0.5344   -1.7407 C   0  0  0  0  0  0  0  0  0  0  0  0
    2.8955    0.3267   -2.1350 O   0  0  0  0  0  0  0  0  0  0  0  0
    2.5329   -1.7676   -1.3689 O   0  0  0  0  0  0  0  0  0  0  0  0
    3.4914   -1.7858   -1.5103 H   0  0  0  0  0  0  0  0  0  0  0  0
   -0.0500    1.0721    0.3909 C   0  0  0  0  0  0  0  0  0  0  0  0
   -1.0203    1.7673    0.1150 O   0  0  0  0  0  0  0  0  0  0  0  0
    0.8735    1.5182    1.3173 N   0  0  0  0  0  0  0  0  0  0  0  0
    1.6687    0.9188    1.5210 H   0  0  0  0  0  0  0  0  0  0  0  0
    0.7959    2.8262    1.9561 C   0  0  0  0  0  0  0  0  0  0  0  0
   -0.1548    2.9382    2.4881 H   0  0  0  0  0  0  0  0  0  0  0  0
    1.6101    2.9434    2.6777 H   0  0  0  0  0  0  0  0  0  0  0  0
    0.8777    3.6224    1.2087 H   0  0  0  0  0  0  0  0  0  0  0  0
  1  2  1  0  0  0  0
  2  3  1  0  0  0  0
  2  4  1  0  0  0  0
  2  5  1  0  0  0  0
  5  6  2  0  0  0  0
  5  7  1  0  0  0  0
  7  8  1  0  0  0  0
  7  9  1  0  0  0  0
  9 10  1  0  0  0  0
  9 11  1  0  0  0  0
  9 18  1  0  0  0  0
 11 12  1  0  0  0  0
 11 13  1  0  0  0  0
 11 14  1  0  0  0  0
 14 15  2  0  0  0  0
 14 16  1  0  0  0  0
 16 17  1  0  0  0  0
 18 19  2  0  0  0  0
 18 20  1  0  0  0  0
 20 21  1  0  0  0  0
 20 22  1  0  0  0  0
 22 23  1  0  0  0  0
 22 24  1  0  0  0  0
 22 25  1  0  0  0  0
M  END
$$$$

  -OEChem-03222214023D

 25 24  0     1  0  0  0  0  0999 V2000
   -2.7417   -3.9873    0.4257 H   0  0  0  0  0  0  0  0  0  0  0  0
   -2.7799   -2.9412    0.1093 C   0  0  0  0  0  0  0  0  0  0  0  0
   -3.3918   -2.3806    0.8201 H   0  0  0  0  0  0  0  0  0  0  0  0
   -3.2413   -2.8885   -0.8796 H   0  0  0  0  0  0  0  0  0  0  0  0
   -1.3800   -2.3589    0.0585 C   0  0  0  0  0  0  0  0  0  0  0  0
   -0.4193   -3.0566    0.3396 O   0  0  0  0  0  0  0  0  0  0  0  0
   -1.2023   -1.0341   -0.2854 N   0  0  0  0  0  0  0  0  0  0  0  0
   -2.0407   -0.4659   -0.4002 H   0  0  0  0  0  0  0  0  0  0  0  0
    0.0840   -0.3214   -0.2614 C   0  0  1  0  0  0  0  0  0  0  0  0
    0.7898   -0.8935    0.3522 H   0  0  0  0  0  0  0  0  0  0  0  0
    0.6372   -0.1923   -1.6936 C   0  0  0  0  0  0  0  0  0  0  0  0
    0.1253   -0.8937   -2.3570 H   0  0  0  0  0  0  0  0  0  0  0  0
    0.4701    0.8141   -2.0902 H   0  0  0  0  0  0  0  0  0  0  0  0
    2.1189   -0.5303   -1.7335 C   0  0  0  0  0  0  0  0  0  0  0  0
    2.9124    0.3864   -1.8417 O   0  0  0  0  0  0  0  0  0  0  0  0
    2.4860   -1.8261   -1.6563 O   0  0  0  0  0  0  0  0  0  0  0  0
    3.4532   -1.8303   -1.7143 H   0  0  0  0  0  0  0  0  0  0  0  0
   -0.0513    1.0673    0.3899 C   0  0  0  0  0  0  0  0  0  0  0  0
   -1.0321    1.7563    0.1354 O   0  0  0  0  0  0  0  0  0  0  0  0
    0.8779    1.5096    1.3125 N   0  0  0  0  0  0  0  0  0  0  0  0
    1.7019    0.9345    1.4659 H   0  0  0  0  0  0  0  0  0  0  0  0
    0.8072    2.8190    1.9497 C   0  0  0  0  0  0  0  0  0  0  0  0
   -0.1459    2.9394    2.4756 H   0  0  0  0  0  0  0  0  0  0  0  0
    1.6173    2.9295    2.6768 H   0  0  0  0  0  0  0  0  0  0  0  0
    0.9005    3.6138    1.2022 H   0  0  0  0  0  0  0  0  0  0  0  0
  1  2  1  0  0  0  0
  2  3  1  0  0  0  0
  2  4  1  0  0  0  0
  2  5  1  0  0  0  0
  5  6  2  0  0  0  0
  5  7  1  0  0  0  0
  7  8  1  0  0  0  0
  7  9  1  0  0  0  0
  9 10  1  0  0  0  0
  9 11  1  0  0  0  0
  9 18  1  0  0  0  0
 11 12  1  0  0  0  0
 11 13  1  0  0  0  0
 11 14  1  0  0  0  0
 14 15  2  0  0  0  0
 14 16  1  0  0  0  0
 16 17  1  0  0  0  0
 18 19  2  0  0  0  0
 18 20  1  0  0  0  0
 20 21  1  0  0  0  0
 20 22  1  0  0  0  0
 22 23  1  0  0  0  0
 22 24  1  0  0  0  0
 22 25  1  0  0  0  0
M  END
$$$$

  -OEChem-03222214023D

 25 24  0     1  0  0  0  0  0999 V2000
   -2.7357   -3.9903    0.4329 H   0  0  0  0  0  0  0  0  0  0  0  0
   -2.7804   -2.9451    0.1145 C   0  0  0  0  0  0  0  0  0  0  0  0
   -3.3855   -2.3844    0.8311 H   0  0  0  0  0  0  0  0  0  0  0  0
   -3.2536   -2.8961   -0.8691 H   0  0  0  0  0  0  0  0  0  0  0  0
   -1.3824   -2.3600    0.0458 C   0  0  0  0  0  0  0  0  0  0  0  0
   -0.4156   -3.0585    0.3039 O   0  0  0  0  0  0  0  0  0  0  0  0
   -1.2109   -1.0332   -0.2928 N   0  0  0  0  0  0  0  0  0  0  0  0
   -2.0508   -0.4636   -0.3884 H   0  0  0  0  0  0  0  0  0  0  0  0
    0.0751   -0.3203   -0.2714 C   0  0  1  0  0  0  0  0  0  0  0  0
    0.7817   -0.8938    0.3399 H   0  0  0  0  0  0  0  0  0  0  0  0
    0.6296   -0.1863   -1.7013 C   0  0  0  0  0  0  0  0  0  0  0  0
    0.1179   -0.8833   -2.3698 H   0  0  0  0  0  0  0  0  0  0  0  0
    0.4693    0.8219   -2.0946 H   0  0  0  0  0  0  0  0  0  0  0  0
    2.1104   -0.5259   -1.7264 C   0  0  0  0  0  0  0  0  0  0  0  0
    2.9054    0.3783   -1.5442 O   0  0  0  0  0  0  0  0  0  0  0  0
    2.4757   -1.8044   -1.9561 O   0  0  0  0  0  0  0  0  0  0  0  0
    3.4444   -1.8098   -1.9333 H   0  0  0  0  0  0  0  0  0  0  0  0
   -0.0552    1.0657    0.3873 C   0  0  0  0  0  0  0  0  0  0  0  0
   -1.0445    1.7501    0.1533 O   0  0  0  0  0  0  0  0  0  0  0  0
    0.8804    1.5014    1.3063 N   0  0  0  0  0  0  0  0  0  0  0  0
    1.7285    0.9496    1.4078 H   0  0  0  0  0  0  0  0  0  0  0  0
    0.8176    2.8104    1.9448 C   0  0  0  0  0  0  0  0  0  0  0  0
   -0.1356    2.9371    2.4691 H   0  0  0  0  0  0  0  0  0  0  0  0
    1.6267    2.9138    2.6742 H   0  0  0  0  0  0  0  0  0  0  0  0
    0.9183    3.6055    1.1985 H   0  0  0  0  0  0  0  0  0  0  0  0
  1  2  1  0  0  0  0
  2  3  1  0  0  0  0
  2  4  1  0  0  0  0
  2  5  1  0  0  0  0
  5  6  2  0  0  0  0
  5  7  1  0  0  0  0
  7  8  1  0  0  0  0
  7  9  1  0  0  0  0
  9 10  1  0  0  0  0
  9 11  1  0  0  0  0
  9 18  1  0  0  0  0
 11 12  1  0  0  0  0
 11 13  1  0  0  0  0
 11 14  1  0  0  0  0
 14 15  2  0  0  0  0
 14 16  1  0  0  0  0
 16 17  1  0  0  0  0
 18 19  2  0  0  0  0
 18 20  1  0  0  0  0
 20 21  1  0  0  0  0
 20 22  1  0  0  0  0
 22 23  1  0  0  0  0
 22 24  1  0  0  0  0
 22 25  1  0  0  0  0
M  END
$$$$

  -OEChem-03222214023D

 25 24  0     1  0  0  0  0  0999 V2000
   -2.7291   -3.9951    0.4385 H   0  0  0  0  0  0  0  0  0  0  0  0
   -2.7816   -2.9499    0.1209 C   0  0  0  0  0  0  0  0  0  0  0  0
   -3.3778   -2.3916    0.8467 H   0  0  0  0  0  0  0  0  0  0  0  0
   -3.2693   -2.9022   -0.8557 H   0  0  0  0  0  0  0  0  0  0  0  0
   -1.3866   -2.3602    0.0323 C   0  0  0  0  0  0  0  0  0  0  0  0
   -0.4132   -3.0597    0.2622 O   0  0  0  0  0  0  0  0  0  0  0  0
   -1.2217   -1.0310   -0.3007 N   0  0  0  0  0  0  0  0  0  0  0  0
   -2.0633   -0.4603   -0.3726 H   0  0  0  0  0  0  0  0  0  0  0  0
    0.0638   -0.3167   -0.2792 C   0  0  1  0  0  0  0  0  0  0  0  0
    0.7682   -0.8913    0.3335 H   0  0  0  0  0  0  0  0  0  0  0  0
    0.6249   -0.1826   -1.7065 C   0  0  0  0  0  0  0  0  0  0  0  0
    0.1142   -0.8785   -2.3771 H   0  0  0  0  0  0  0  0  0  0  0  0
    0.4707    0.8263   -2.1003 H   0  0  0  0  0  0  0  0  0  0  0  0
    2.1062   -0.5211   -1.7217 C   0  0  0  0  0  0  0  0  0  0  0  0
    2.8804    0.3024   -1.2663 O   0  0  0  0  0  0  0  0  0  0  0  0
    2.4961   -1.7015   -2.2474 O   0  0  0  0  0  0  0  0  0  0  0  0
    3.4604   -1.7250   -2.1548 H   0  0  0  0  0  0  0  0  0  0  0  0
   -0.0613    1.0667    0.3858 C   0  0  0  0  0  0  0  0  0  0  0  0
   -1.0565    1.7483    0.1693 O   0  0  0  0  0  0  0  0  0  0  0  0
    0.8805    1.4943    1.3021 N   0  0  0  0  0  0  0  0  0  0  0  0
    1.7472    0.9636    1.3539 H   0  0  0  0  0  0  0  0  0  0  0  0
    0.8274    2.8034    1.9412 C   0  0  0  0  0  0  0  0  0  0  0  0
   -0.1231    2.9351    2.4689 H   0  0  0  0  0  0  0  0  0  0  0  0
    1.6396    2.9022    2.6678 H   0  0  0  0  0  0  0  0  0  0  0  0
    0.9293    3.5981    1.1948 H   0  0  0  0  0  0  0  0  0  0  0  0
  1  2  1  0  0  0  0
  2  3  1  0  0  0  0
  2  4  1  0  0  0  0
  2  5  1  0  0  0  0
  5  6  2  0  0  0  0
  5  7  1  0  0  0  0
  7  8  1  0  0  0  0
  7  9  1  0  0  0  0
  9 10  1  0  0  0  0
  9 11  1  0  0  0  0
  9 18  1  0  0  0  0
 11 12  1  0  0  0  0
 11 13  1  0  0  0  0
 11 14  1  0  0  0  0
 14 15  2  0  0  0  0
 14 16  1  0  0  0  0
 16 17  1  0  0  0  0
 18 19  2  0  0  0  0
 18 20  1  0  0  0  0
 20 21  1  0  0  0  0
 20 22  1  0  0  0  0
 22 23  1  0  0  0  0
 22 24  1  0  0  0  0
 22 25  1  0  0  0  0
M  END
$$$$

  -OEChem-03222214023D

 25 24  0     1  0  0  0  0  0999 V2000
   -2.7223   -3.9954    0.4531 H   0  0  0  0  0  0  0  0  0  0  0  0
   -2.7806   -2.9523    0.1301 C   0  0  0  0  0  0  0  0  0  0  0  0
   -3.3701   -2.3909    0.8589 H   0  0  0  0  0  0  0  0  0  0  0  0
   -3.2788   -2.9112   -0.8413 H   0  0  0  0  0  0  0  0  0  0  0  0
   -1.3880   -2.3606    0.0223 C   0  0  0  0  0  0  0  0  0  0  0  0
   -0.4096   -3.0614    0.2265 O   0  0  0  0  0  0  0  0  0  0  0  0
   -1.2308   -1.0297   -0.3070 N   0  0  0  0  0  0  0  0  0  0  0  0
   -2.0747   -0.4608   -0.3635 H   0  0  0  0  0  0  0  0  0  0  0  0
    0.0516   -0.3104   -0.2859 C   0  0  1  0  0  0  0  0  0  0  0  0
    0.7529   -0.8851    0.3305 H   0  0  0  0  0  0  0  0  0  0  0  0
    0.6207   -0.1817   -1.7109 C   0  0  0  0  0  0  0  0  0  0  0  0
    0.1152   -0.8846   -2.3782 H   0  0  0  0  0  0  0  0  0  0  0  0
    0.4623    0.8236   -2.1112 H   0  0  0  0  0  0  0  0  0  0  0  0
    2.1051   -0.5124   -1.7226 C   0  0  0  0  0  0  0  0  0  0  0  0
    2.8460    0.1685   -1.0330 O   0  0  0  0  0  0  0  0  0  0  0  0
    2.5354   -1.5239   -2.5065 O   0  0  0  0  0  0  0  0  0  0  0  0
    3.4925   -1.5764   -2.3634 H   0  0  0  0  0  0  0  0  0  0  0  0
   -0.0681    1.0714    0.3817 C   0  0  0  0  0  0  0  0  0  0  0  0
   -1.0660    1.7529    0.1772 O   0  0  0  0  0  0  0  0  0  0  0  0
    0.8808    1.4918    1.2932 N   0  0  0  0  0  0  0  0  0  0  0  0
    1.7537    0.9680    1.3167 H   0  0  0  0  0  0  0  0  0  0  0  0
    0.8355    2.7966    1.9406 C   0  0  0  0  0  0  0  0  0  0  0  0
   -0.1143    2.9308    2.4692 H   0  0  0  0  0  0  0  0  0  0  0  0
    1.6480    2.8849    2.6683 H   0  0  0  0  0  0  0  0  0  0  0  0
    0.9429    3.5957    1.1999 H   0  0  0  0  0  0  0  0  0  0  0  0
  1  2  1  0  0  0  0
  2  3  1  0  0  0  0
  2  4  1  0  0  0  0
  2  5  1  0  0  0  0
  5  6  2  0  0  0  0
  5  7  1  0  0  0  0
  7  8  1  0  0  0  0
  7  9  1  0  0  0  0
  9 10  1  0  0  0  0
  9 11  1  0  0  0  0
  9 18  1  0  0  0  0
 11 12  1  0  0  0  0
 11 13  1  0  0  0  0
 11 14  1  0  0  0  0
 14 15  2  0  0  0  0
 14 16  1  0  0  0  0
 16 17  1  0  0  0  0
 18 19  2  0  0  0  0
 18 20  1  0  0  0  0
 20 21  1  0  0  0  0
 20 22  1  0  0  0  0
 22 23  1  0  0  0  0
 22 24  1  0  0  0  0
 22 25  1  0  0  0  0
M  END
$$$$

  -OEChem-03222214023D

 25 24  0     1  0  0  0  0  0999 V2000
   -2.7200   -4.0012    0.4485 H   0  0  0  0  0  0  0  0  0  0  0  0
   -2.7808   -2.9556    0.1336 C   0  0  0  0  0  0  0  0  0  0  0  0
   -3.3628   -2.3989    0.8721 H   0  0  0  0  0  0  0  0  0  0  0  0
   -3.2890   -2.9074   -0.8326 H   0  0  0  0  0  0  0  0  0  0  0  0
   -1.3889   -2.3634    0.0171 C   0  0  0  0  0  0  0  0  0  0  0  0
   -0.4086   -3.0665    0.2033 O   0  0  0  0  0  0  0  0  0  0  0  0
   -1.2354   -1.0313   -0.3091 N   0  0  0  0  0  0  0  0  0  0  0  0
   -2.0815   -0.4644   -0.3519 H   0  0  0  0  0  0  0  0  0  0  0  0
    0.0434   -0.3052   -0.2834 C   0  0  1  0  0  0  0  0  0  0  0  0
    0.7376   -0.8812    0.3398 H   0  0  0  0  0  0  0  0  0  0  0  0
    0.6232   -0.1850   -1.7064 C   0  0  0  0  0  0  0  0  0  0  0  0
    0.1224   -0.8970   -2.3678 H   0  0  0  0  0  0  0  0  0  0  0  0
    0.4554    0.8152   -2.1151 H   0  0  0  0  0  0  0  0  0  0  0  0
    2.1126   -0.5030   -1.7318 C   0  0  0  0  0  0  0  0  0  0  0  0
    2.8240   -0.0185   -0.8658 O   0  0  0  0  0  0  0  0  0  0  0  0
    2.5807   -1.2855   -2.7275 O   0  0  0  0  0  0  0  0  0  0  0  0
    3.5312   -1.3766   -2.5603 H   0  0  0  0  0  0  0  0  0  0  0  0
   -0.0748    1.0761    0.3839 C   0  0  0  0  0  0  0  0  0  0  0  0
   -1.0690    1.7615    0.1756 O   0  0  0  0  0  0  0  0  0  0  0  0
    0.8758    1.4933    1.2949 N   0  0  0  0  0  0  0  0  0  0  0  0
    1.7439    0.9607    1.3225 H   0  0  0  0  0  0  0  0  0  0  0  0
    0.8388    2.8001    1.9390 C   0  0  0  0  0  0  0  0  0  0  0  0
   -0.1054    2.9372    2.4765 H   0  0  0  0  0  0  0  0  0  0  0  0
    1.6587    2.8892    2.6581 H   0  0  0  0  0  0  0  0  0  0  0  0
    0.9400    3.5969    1.1949 H   0  0  0  0  0  0  0  0  0  0  0  0
  1  2  1  0  0  0  0
  2  3  1  0  0  0  0
  2  4  1  0  0  0  0
  2  5  1  0  0  0  0
  5  6  2  0  0  0  0
  5  7  1  0  0  0  0
  7  8  1  0  0  0  0
  7  9  1  0  0  0  0
  9 10  1  0  0  0  0
  9 11  1  0  0  0  0
  9 18  1  0  0  0  0
 11 12  1  0  0  0  0
 11 13  1  0  0  0  0
 11 14  1  0  0  0  0
 14 15  2  0  0  0  0
 14 16  1  0  0  0  0
 16 17  1  0  0  0  0
 18 19  2  0  0  0  0
 18 20  1  0  0  0  0
 20 21  1  0  0  0  0
 20 22  1  0  0  0  0
 22 23  1  0  0  0  0
 22 24  1  0  0  0  0
 22 25  1  0  0  0  0
M  END
$$$$

  -OEChem-03222214023D

 25 24  0     1  0  0  0  0  0999 V2000
   -2.7172   -4.0049    0.4472 H   0  0  0  0  0  0  0  0  0  0  0  0
   -2.7792   -2.9586    0.1349 C   0  0  0  0  0  0  0  0  0  0  0  0
   -3.3612   -2.4045    0.8754 H   0  0  0  0  0  0  0  0  0  0  0  0
   -3.2876   -2.9081   -0.8310 H   0  0  0  0  0  0  0  0  0  0  0  0
   -1.3880   -2.3647    0.0188 C   0  0  0  0  0  0  0  0  0  0  0  0
   -0.4072   -3.0672    0.2034 O   0  0  0  0  0  0  0  0  0  0  0  0
   -1.2369   -1.0325   -0.3085 N   0  0  0  0  0  0  0  0  0  0  0  0
   -2.0852   -0.4696   -0.3566 H   0  0  0  0  0  0  0  0  0  0  0  0
    0.0383   -0.2994   -0.2770 C   0  0  1  0  0  0  0  0  0  0  0  0
    0.7221   -0.8749    0.3572 H   0  0  0  0  0  0  0  0  0  0  0  0
    0.6304   -0.1909   -1.6981 C   0  0  0  0  0  0  0  0  0  0  0  0
    0.1356   -0.9142   -2.3517 H   0  0  0  0  0  0  0  0  0  0  0  0
    0.4502    0.8031   -2.1164 H   0  0  0  0  0  0  0  0  0  0  0  0
    2.1245   -0.4943   -1.7453 C   0  0  0  0  0  0  0  0  0  0  0  0
    2.8144   -0.2451   -0.7690 O   0  0  0  0  0  0  0  0  0  0  0  0
    2.6202   -1.0069   -2.8917 O   0  0  0  0  0  0  0  0  0  0  0  0
    3.5664   -1.1395   -2.7271 H   0  0  0  0  0  0  0  0  0  0  0  0
   -0.0790    1.0837    0.3844 C   0  0  0  0  0  0  0  0  0  0  0  0
   -1.0637    1.7776    0.1605 O   0  0  0  0  0  0  0  0  0  0  0  0
    0.8712    1.5004    1.2961 N   0  0  0  0  0  0  0  0  0  0  0  0
    1.7231    0.9444    1.3567 H   0  0  0  0  0  0  0  0  0  0  0  0
    0.8375    2.8064    1.9418 C   0  0  0  0  0  0  0  0  0  0  0  0
   -0.1043    2.9427    2.4838 H   0  0  0  0  0  0  0  0  0  0  0  0
    1.6610    2.8951    2.6568 H   0  0  0  0  0  0  0  0  0  0  0  0
    0.9346    3.6038    1.1979 H   0  0  0  0  0  0  0  0  0  0  0  0
  1  2  1  0  0  0  0
  2  3  1  0  0  0  0
  2  4  1  0  0  0  0
  2  5  1  0  0  0  0
  5  6  2  0  0  0  0
  5  7  1  0  0  0  0
  7  8  1  0  0  0  0
  7  9  1  0  0  0  0
  9 10  1  0  0  0  0
  9 11  1  0  0  0  0
  9 18  1  0  0  0  0
 11 12  1  0  0  0  0
 11 13  1  0  0  0  0
 11 14  1  0  0  0  0
 14 15  2  0  0  0  0
 14 16  1  0  0  0  0
 16 17  1  0  0  0  0
 18 19  2  0  0  0  0
 18 20  1  0  0  0  0
 20 21  1  0  0  0  0
 20 22  1  0  0  0  0
 22 23  1  0  0  0  0
 22 24  1  0  0  0  0
 22 25  1  0  0  0  0
M  END
$$$$

  -OEChem-03222214023D

 25 24  0     1  0  0  0  0  0999 V2000
   -2.7116   -4.0025    0.4548 H   0  0  0  0  0  0  0  0  0  0  0  0
   -2.7738   -2.9588    0.1340 C   0  0  0  0  0  0  0  0  0  0  0  0
   -3.3650   -2.4015    0.8646 H   0  0  0  0  0  0  0  0  0  0  0  0
   -3.2733   -2.9177   -0.8368 H   0  0  0  0  0  0  0  0  0  0  0  0
   -1.3832   -2.3614    0.0270 C   0  0  0  0  0  0  0  0  0  0  0  0
   -0.4034   -3.0613    0.2248 O   0  0  0  0  0  0  0  0  0  0  0  0
   -1.2322   -1.0303   -0.3063 N   0  0  0  0  0  0  0  0  0  0  0  0
   -2.0817   -0.4711   -0.3730 H   0  0  0  0  0  0  0  0  0  0  0  0
    0.0410   -0.2929   -0.2703 C   0  0  1  0  0  0  0  0  0  0  0  0
    0.7158   -0.8649    0.3755 H   0  0  0  0  0  0  0  0  0  0  0  0
    0.6393   -0.1972   -1.6922 C   0  0  0  0  0  0  0  0  0  0  0  0
    0.1448   -0.9264   -2.3392 H   0  0  0  0  0  0  0  0  0  0  0  0
    0.4511    0.7924   -2.1171 H   0  0  0  0  0  0  0  0  0  0  0  0
    2.1362   -0.4915   -1.7648 C   0  0  0  0  0  0  0  0  0  0  0  0
    2.8084   -0.5006   -0.7462 O   0  0  0  0  0  0  0  0  0  0  0  0
    2.6536   -0.7155   -2.9914 O   0  0  0  0  0  0  0  0  0  0  0  0
    3.5948   -0.8952   -2.8430 H   0  0  0  0  0  0  0  0  0  0  0  0
   -0.0776    1.0938    0.3814 C   0  0  0  0  0  0  0  0  0  0  0  0
   -1.0540    1.7935    0.1410 O   0  0  0  0  0  0  0  0  0  0  0  0
    0.8695    1.5135    1.2951 N   0  0  0  0  0  0  0  0  0  0  0  0
    1.6979    0.9309    1.4051 H   0  0  0  0  0  0  0  0  0  0  0  0
    0.8279    2.8130    1.9531 C   0  0  0  0  0  0  0  0  0  0  0  0
   -0.1181    2.9416    2.4895 H   0  0  0  0  0  0  0  0  0  0  0  0
    1.6460    2.8971    2.6750 H   0  0  0  0  0  0  0  0  0  0  0  0
    0.9287    3.6182    1.2180 H   0  0  0  0  0  0  0  0  0  0  0  0
  1  2  1  0  0  0  0
  2  3  1  0  0  0  0
  2  4  1  0  0  0  0
  2  5  1  0  0  0  0
  5  6  2  0  0  0  0
  5  7  1  0  0  0  0
  7  8  1  0  0  0  0
  7  9  1  0  0  0  0
  9 10  1  0  0  0  0
  9 11  1  0  0  0  0
  9 18  1  0  0  0  0
 11 12  1  0  0  0  0
 11 13  1  0  0  0  0
 11 14  1  0  0  0  0
 14 15  2  0  0  0  0
 14 16  1  0  0  0  0
 16 17  1  0  0  0  0
 18 19  2  0  0  0  0
 18 20  1  0  0  0  0
 20 21  1  0  0  0  0
 20 22  1  0  0  0  0
 22 23  1  0  0  0  0
 22 24  1  0  0  0  0
 22 25  1  0  0  0  0
M  END
$$$$

  -OEChem-03222214023D

 25 24  0     1  0  0  0  0  0999 V2000
   -2.7138   -3.9976    0.4460 H   0  0  0  0  0  0  0  0  0  0  0  0
   -2.7697   -2.9526    0.1281 C   0  0  0  0  0  0  0  0  0  0  0  0
   -3.3685   -2.3959    0.8530 H   0  0  0  0  0  0  0  0  0  0  0  0
   -3.2566   -2.9069   -0.8489 H   0  0  0  0  0  0  0  0  0  0  0  0
   -1.3768   -2.3585    0.0401 C   0  0  0  0  0  0  0  0  0  0  0  0
   -0.4022   -3.0591    0.2580 O   0  0  0  0  0  0  0  0  0  0  0  0
   -1.2189   -1.0298   -0.2991 N   0  0  0  0  0  0  0  0  0  0  0  0
   -2.0666   -0.4704   -0.3842 H   0  0  0  0  0  0  0  0  0  0  0  0
    0.0553   -0.2944   -0.2596 C   0  0  1  0  0  0  0  0  0  0  0  0
    0.7278   -0.8623    0.3914 H   0  0  0  0  0  0  0  0  0  0  0  0
    0.6492   -0.2020   -1.6853 C   0  0  0  0  0  0  0  0  0  0  0  0
    0.1482   -0.9282   -2.3306 H   0  0  0  0  0  0  0  0  0  0  0  0
    0.4577    0.7888   -2.1065 H   0  0  0  0  0  0  0  0  0  0  0  0
    2.1454   -0.4965   -1.7847 C   0  0  0  0  0  0  0  0  0  0  0  0
    2.7927   -0.7784   -0.7906 O   0  0  0  0  0  0  0  0  0  0  0  0
    2.6899   -0.4170   -3.0171 O   0  0  0  0  0  0  0  0  0  0  0  0
    3.6247   -0.6453   -2.8971 H   0  0  0  0  0  0  0  0  0  0  0  0
   -0.0703    1.0951    0.3846 C   0  0  0  0  0  0  0  0  0  0  0  0
   -1.0377    1.7987    0.1209 O   0  0  0  0  0  0  0  0  0  0  0  0
    0.8676    1.5232    1.3040 N   0  0  0  0  0  0  0  0  0  0  0  0
    1.6724    0.9210    1.4669 H   0  0  0  0  0  0  0  0  0  0  0  0
    0.8102    2.8220    1.9627 C   0  0  0  0  0  0  0  0  0  0  0  0
   -0.1381    2.9393    2.4978 H   0  0  0  0  0  0  0  0  0  0  0  0
    1.6265    2.9157    2.6854 H   0  0  0  0  0  0  0  0  0  0  0  0
    0.9030    3.6285    1.2278 H   0  0  0  0  0  0  0  0  0  0  0  0
  1  2  1  0  0  0  0
  2  3  1  0  0  0  0
  2  4  1  0  0  0  0
  2  5  1  0  0  0  0
  5  6  2  0  0  0  0
  5  7  1  0  0  0  0
  7  8  1  0  0  0  0
  7  9  1  0  0  0  0
  9 10  1  0  0  0  0
  9 11  1  0  0  0  0
  9 18  1  0  0  0  0
 11 12  1  0  0  0  0
 11 13  1  0  0  0  0
 11 14  1  0  0  0  0
 14 15  2  0  0  0  0
 14 16  1  0  0  0  0
 16 17  1  0  0  0  0
 18 19  2  0  0  0  0
 18 20  1  0  0  0  0
 20 21  1  0  0  0  0
 20 22  1  0  0  0  0
 22 23  1  0  0  0  0
 22 24  1  0  0  0  0
 22 25  1  0  0  0  0
M  END
$$$$

  -OEChem-03222214023D

 25 24  0     1  0  0  0  0  0999 V2000
   -2.7203   -3.9929    0.4368 H   0  0  0  0  0  0  0  0  0  0  0  0
   -2.7677   -2.9468    0.1216 C   0  0  0  0  0  0  0  0  0  0  0  0
   -3.3736   -2.3902    0.8407 H   0  0  0  0  0  0  0  0  0  0  0  0
   -3.2415   -2.8962   -0.8616 H   0  0  0  0  0  0  0  0  0  0  0  0
   -1.3713   -2.3576    0.0543 C   0  0  0  0  0  0  0  0  0  0  0  0
   -0.4040   -3.0576    0.3027 O   0  0  0  0  0  0  0  0  0  0  0  0
   -1.2047   -1.0314   -0.2903 N   0  0  0  0  0  0  0  0  0  0  0  0
   -2.0497   -0.4726   -0.3999 H   0  0  0  0  0  0  0  0  0  0  0  0
    0.0715   -0.2988   -0.2515 C   0  0  1  0  0  0  0  0  0  0  0  0
    0.7497   -0.8627    0.3967 H   0  0  0  0  0  0  0  0  0  0  0  0
    0.6542   -0.2016   -1.6823 C   0  0  0  0  0  0  0  0  0  0  0  0
    0.1460   -0.9213   -2.3285 H   0  0  0  0  0  0  0  0  0  0  0  0
    0.4613    0.7927   -2.0951 H   0  0  0  0  0  0  0  0  0  0  0  0
    2.1482   -0.4992   -1.7998 C   0  0  0  0  0  0  0  0  0  0  0  0
    2.7510   -1.0440   -0.8924 O   0  0  0  0  0  0  0  0  0  0  0  0
    2.7412   -0.1258   -2.9533 O   0  0  0  0  0  0  0  0  0  0  0  0
    3.6662   -0.4030   -2.8641 H   0  0  0  0  0  0  0  0  0  0  0  0
   -0.0622    1.0931    0.3873 C   0  0  0  0  0  0  0  0  0  0  0  0
   -1.0234    1.7981    0.1056 O   0  0  0  0  0  0  0  0  0  0  0  0
    0.8684    1.5300    1.3104 N   0  0  0  0  0  0  0  0  0  0  0  0
    1.6526    0.9146    1.5157 H   0  0  0  0  0  0  0  0  0  0  0  0
    0.7960    2.8279    1.9697 C   0  0  0  0  0  0  0  0  0  0  0  0
   -0.1531    2.9337    2.5058 H   0  0  0  0  0  0  0  0  0  0  0  0
    1.6122    2.9318    2.6911 H   0  0  0  0  0  0  0  0  0  0  0  0
    0.8780    3.6357    1.2349 H   0  0  0  0  0  0  0  0  0  0  0  0
  1  2  1  0  0  0  0
  2  3  1  0  0  0  0
  2  4  1  0  0  0  0
  2  5  1  0  0  0  0
  5  6  2  0  0  0  0
  5  7  1  0  0  0  0
  7  8  1  0  0  0  0
  7  9  1  0  0  0  0
  9 10  1  0  0  0  0
  9 11  1  0  0  0  0
  9 18  1  0  0  0  0
 11 12  1  0  0  0  0
 11 13  1  0  0  0  0
 11 14  1  0  0  0  0
 14 15  2  0  0  0  0
 14 16  1  0  0  0  0
 16 17  1  0  0  0  0
 18 19  2  0  0  0  0
 18 20  1  0  0  0  0
 20 21  1  0  0  0  0
 20 22  1  0  0  0  0
 22 23  1  0  0  0  0
 22 24  1  0  0  0  0
 22 25  1  0  0  0  0
M  END
$$$$

  -OEChem-03222214023D

 25 24  0     1  0  0  0  0  0999 V2000
   -2.7195   -3.9928    0.4243 H   0  0  0  0  0  0  0  0  0  0  0  0
   -2.7635   -2.9450    0.1138 C   0  0  0  0  0  0  0  0  0  0  0  0
   -3.3789   -2.3922    0.8277 H   0  0  0  0  0  0  0  0  0  0  0  0
   -3.2251   -2.8899   -0.8751 H   0  0  0  0  0  0  0  0  0  0  0  0
   -1.3664   -2.3552    0.0672 C   0  0  0  0  0  0  0  0  0  0  0  0
   -0.4043   -3.0512    0.3439 O   0  0  0  0  0  0  0  0  0  0  0  0
   -1.1953   -1.0307   -0.2811 N   0  0  0  0  0  0  0  0  0  0  0  0
   -2.0384   -0.4722   -0.4061 H   0  0  0  0  0  0  0  0  0  0  0  0
    0.0829   -0.3019   -0.2488 C   0  0  1  0  0  0  0  0  0  0  0  0
    0.7725   -0.8638    0.3898 H   0  0  0  0  0  0  0  0  0  0  0  0
    0.6503   -0.1966   -1.6849 C   0  0  0  0  0  0  0  0  0  0  0  0
    0.1360   -0.9100   -2.3334 H   0  0  0  0  0  0  0  0  0  0  0  0
    0.4580    0.8014   -2.0895 H   0  0  0  0  0  0  0  0  0  0  0  0
    2.1416   -0.5006   -1.8059 C   0  0  0  0  0  0  0  0  0  0  0  0
    2.6795   -1.2799   -1.0410 O   0  0  0  0  0  0  0  0  0  0  0  0
    2.8068    0.1357   -2.7931 O   0  0  0  0  0  0  0  0  0  0  0  0
    3.7194   -0.1868   -2.7326 H   0  0  0  0  0  0  0  0  0  0  0  0
   -0.0556    1.0904    0.3891 C   0  0  0  0  0  0  0  0  0  0  0  0
   -1.0154    1.7948    0.1008 O   0  0  0  0  0  0  0  0  0  0  0  0
    0.8727    1.5338    1.3117 N   0  0  0  0  0  0  0  0  0  0  0  0
    1.6421    0.9099    1.5443 H   0  0  0  0  0  0  0  0  0  0  0  0
    0.7895    2.8312    1.9712 C   0  0  0  0  0  0  0  0  0  0  0  0
   -0.1554    2.9247    2.5170 H   0  0  0  0  0  0  0  0  0  0  0  0
    1.6122    2.9469    2.6835 H   0  0  0  0  0  0  0  0  0  0  0  0
    0.8525    3.6391    1.2347 H   0  0  0  0  0  0  0  0  0  0  0  0
  1  2  1  0  0  0  0
  2  3  1  0  0  0  0
  2  4  1  0  0  0  0
  2  5  1  0  0  0  0
  5  6  2  0  0  0  0
  5  7  1  0  0  0  0
  7  8  1  0  0  0  0
  7  9  1  0  0  0  0
  9 10  1  0  0  0  0
  9 11  1  0  0  0  0
  9 18  1  0  0  0  0
 11 12  1  0  0  0  0
 11 13  1  0  0  0  0
 11 14  1  0  0  0  0
 14 15  2  0  0  0  0
 14 16  1  0  0  0  0
 16 17  1  0  0  0  0
 18 19  2  0  0  0  0
 18 20  1  0  0  0  0
 20 21  1  0  0  0  0
 20 22  1  0  0  0  0
 22 23  1  0  0  0  0
 22 24  1  0  0  0  0
 22 25  1  0  0  0  0
M  END
$$$$

  -OEChem-03222214023D

 25 24  0     1  0  0  0  0  0999 V2000
   -2.7137   -3.9971    0.4142 H   0  0  0  0  0  0  0  0  0  0  0  0
   -2.7570   -2.9487    0.1060 C   0  0  0  0  0  0  0  0  0  0  0  0
   -3.3822   -2.3994    0.8140 H   0  0  0  0  0  0  0  0  0  0  0  0
   -3.2070   -2.8925   -0.8880 H   0  0  0  0  0  0  0  0  0  0  0  0
   -1.3613   -2.3546    0.0773 C   0  0  0  0  0  0  0  0  0  0  0  0
   -0.4022   -3.0440    0.3797 O   0  0  0  0  0  0  0  0  0  0  0  0
   -1.1901   -1.0305   -0.2727 N   0  0  0  0  0  0  0  0  0  0  0  0
   -2.0326   -0.4752   -0.4145 H   0  0  0  0  0  0  0  0  0  0  0  0
    0.0890   -0.3032   -0.2502 C   0  0  1  0  0  0  0  0  0  0  0  0
    0.7932   -0.8651    0.3732 H   0  0  0  0  0  0  0  0  0  0  0  0
    0.6378   -0.1875   -1.6914 C   0  0  0  0  0  0  0  0  0  0  0  0
    0.1194   -0.8962   -2.3417 H   0  0  0  0  0  0  0  0  0  0  0  0
    0.4468    0.8136   -2.0892 H   0  0  0  0  0  0  0  0  0  0  0  0
    2.1265   -0.4975   -1.8042 C   0  0  0  0  0  0  0  0  0  0  0  0
    2.5906   -1.4662   -1.2330 O   0  0  0  0  0  0  0  0  0  0  0  0
    2.8740    0.3480   -2.5446 O   0  0  0  0  0  0  0  0  0  0  0  0
    3.7730   -0.0145   -2.5125 H   0  0  0  0  0  0  0  0  0  0  0  0
   -0.0512    1.0885    0.3900 C   0  0  0  0  0  0  0  0  0  0  0  0
   -1.0125    1.7915    0.1031 O   0  0  0  0  0  0  0  0  0  0  0  0
    0.8792    1.5364    1.3085 N   0  0  0  0  0  0  0  0  0  0  0  0
    1.6437    0.9110    1.5508 H   0  0  0  0  0  0  0  0  0  0  0  0
    0.7911    2.8334    1.9682 C   0  0  0  0  0  0  0  0  0  0  0  0
   -0.1511    2.9204    2.5196 H   0  0  0  0  0  0  0  0  0  0  0  0
    1.6170    2.9551    2.6756 H   0  0  0  0  0  0  0  0  0  0  0  0
    0.8446    3.6419    1.2316 H   0  0  0  0  0  0  0  0  0  0  0  0
  1  2  1  0  0  0  0
  2  3  1  0  0  0  0
  2  4  1  0  0  0  0
  2  5  1  0  0  0  0
  5  6  2  0  0  0  0
  5  7  1  0  0  0  0
  7  8  1  0  0  0  0
  7  9  1  0  0  0  0
  9 10  1  0  0  0  0
  9 11  1  0  0  0  0
  9 18  1  0  0  0  0
 11 12  1  0  0  0  0
 11 13  1  0  0  0  0
 11 14  1  0  0  0  0
 14 15  2  0  0  0  0
 14 16  1  0  0  0  0
 16 17  1  0  0  0  0
 18 19  2  0  0  0  0
 18 20  1  0  0  0  0
 20 21  1  0  0  0  0
 20 22  1  0  0  0  0
 22 23  1  0  0  0  0
 22 24  1  0  0  0  0
 22 25  1  0  0  0  0
M  END
$$$$

  -OEChem-03222214023D

 25 24  0     1  0  0  0  0  0999 V2000
   -2.7048   -4.0062    0.4039 H   0  0  0  0  0  0  0  0  0  0  0  0
   -2.7513   -2.9572    0.0979 C   0  0  0  0  0  0  0  0  0  0  0  0
   -3.3837   -2.4123    0.8029 H   0  0  0  0  0  0  0  0  0  0  0  0
   -3.1951   -2.9005   -0.8988 H   0  0  0  0  0  0  0  0  0  0  0  0
   -1.3584   -2.3561    0.0794 C   0  0  0  0  0  0  0  0  0  0  0  0
   -0.3987   -3.0383    0.3964 O   0  0  0  0  0  0  0  0  0  0  0  0
   -1.1909   -1.0310   -0.2689 N   0  0  0  0  0  0  0  0  0  0  0  0
   -2.0343   -0.4795   -0.4200 H   0  0  0  0  0  0  0  0  0  0  0  0
    0.0877   -0.3028   -0.2537 C   0  0  1  0  0  0  0  0  0  0  0  0
    0.8027   -0.8670    0.3564 H   0  0  0  0  0  0  0  0  0  0  0  0
    0.6246   -0.1768   -1.6961 C   0  0  0  0  0  0  0  0  0  0  0  0
    0.1071   -0.8836   -2.3494 H   0  0  0  0  0  0  0  0  0  0  0  0
    0.4363    0.8261   -2.0908 H   0  0  0  0  0  0  0  0  0  0  0  0
    2.1114   -0.4902   -1.7912 C   0  0  0  0  0  0  0  0  0  0  0  0
    2.5125   -1.5884   -1.4571 O   0  0  0  0  0  0  0  0  0  0  0  0
    2.9278    0.4942   -2.2233 O   0  0  0  0  0  0  0  0  0  0  0  0
    3.8159    0.1042   -2.2251 H   0  0  0  0  0  0  0  0  0  0  0  0
   -0.0523    1.0871    0.3916 C   0  0  0  0  0  0  0  0  0  0  0  0
   -1.0163    1.7890    0.1109 O   0  0  0  0  0  0  0  0  0  0  0  0
    0.8823    1.5358    1.3056 N   0  0  0  0  0  0  0  0  0  0  0  0
    1.6529    0.9150    1.5387 H   0  0  0  0  0  0  0  0  0  0  0  0
    0.8007    2.8360    1.9597 C   0  0  0  0  0  0  0  0  0  0  0  0
   -0.1330    2.9238    2.5253 H   0  0  0  0  0  0  0  0  0  0  0  0
    1.6377    2.9638    2.6531 H   0  0  0  0  0  0  0  0  0  0  0  0
    0.8400    3.6404    1.2176 H   0  0  0  0  0  0  0  0  0  0  0  0
  1  2  1  0  0  0  0
  2  3  1  0  0  0  0
  2  4  1  0  0  0  0
  2  5  1  0  0  0  0
  5  6  2  0  0  0  0
  5  7  1  0  0  0  0
  7  8  1  0  0  0  0
  7  9  1  0  0  0  0
  9 10  1  0  0  0  0
  9 11  1  0  0  0  0
  9 18  1  0  0  0  0
 11 12  1  0  0  0  0
 11 13  1  0  0  0  0
 11 14  1  0  0  0  0
 14 15  2  0  0  0  0
 14 16  1  0  0  0  0
 16 17  1  0  0  0  0
 18 19  2  0  0  0  0
 18 20  1  0  0  0  0
 20 21  1  0  0  0  0
 20 22  1  0  0  0  0
 22 23  1  0  0  0  0
 22 24  1  0  0  0  0
 22 25  1  0  0  0  0
M  END
$$$$

  -OEChem-03222214023D

 25 24  0     1  0  0  0  0  0999 V2000
   -2.6964   -4.0089    0.4068 H   0  0  0  0  0  0  0  0  0  0  0  0
   -2.7456   -2.9609    0.0979 C   0  0  0  0  0  0  0  0  0  0  0  0
   -3.3788   -2.4157    0.8019 H   0  0  0  0  0  0  0  0  0  0  0  0
   -3.1904   -2.9083   -0.8987 H   0  0  0  0  0  0  0  0  0  0  0  0
   -1.3543   -2.3562    0.0766 C   0  0  0  0  0  0  0  0  0  0  0  0
   -0.3915   -3.0349    0.3924 O   0  0  0  0  0  0  0  0  0  0  0  0
   -1.1905   -1.0303   -0.2704 N   0  0  0  0  0  0  0  0  0  0  0  0
   -2.0349   -0.4787   -0.4156 H   0  0  0  0  0  0  0  0  0  0  0  0
    0.0880   -0.3027   -0.2597 C   0  0  1  0  0  0  0  0  0  0  0  0
    0.8091   -0.8680    0.3422 H   0  0  0  0  0  0  0  0  0  0  0  0
    0.6174   -0.1688   -1.7019 C   0  0  0  0  0  0  0  0  0  0  0  0
    0.0972   -0.8709   -2.3591 H   0  0  0  0  0  0  0  0  0  0  0  0
    0.4354    0.8369   -2.0919 H   0  0  0  0  0  0  0  0  0  0  0  0
    2.1024   -0.4866   -1.7815 C   0  0  0  0  0  0  0  0  0  0  0  0
    2.4645   -1.6452   -1.7152 O   0  0  0  0  0  0  0  0  0  0  0  0
    2.9590    0.5524   -1.8735 O   0  0  0  0  0  0  0  0  0  0  0  0
    3.8401    0.1489   -1.9164 H   0  0  0  0  0  0  0  0  0  0  0  0
   -0.0522    1.0859    0.3898 C   0  0  0  0  0  0  0  0  0  0  0  0
   -1.0242    1.7818    0.1210 O   0  0  0  0  0  0  0  0  0  0  0  0
    0.8838    1.5361    1.3017 N   0  0  0  0  0  0  0  0  0  0  0  0
    1.6751    0.9318    1.5060 H   0  0  0  0  0  0  0  0  0  0  0  0
    0.8020    2.8364    1.9557 C   0  0  0  0  0  0  0  0  0  0  0  0
   -0.1426    2.9323    2.5016 H   0  0  0  0  0  0  0  0  0  0  0  0
    1.6248    2.9544    2.6674 H   0  0  0  0  0  0  0  0  0  0  0  0
    0.8653    3.6417    1.2164 H   0  0  0  0  0  0  0  0  0  0  0  0
  1  2  1  0  0  0  0
  2  3  1  0  0  0  0
  2  4  1  0  0  0  0
  2  5  1  0  0  0  0
  5  6  2  0  0  0  0
  5  7  1  0  0  0  0
  7  8  1  0  0  0  0
  7  9  1  0  0  0  0
  9 10  1  0  0  0  0
  9 11  1  0  0  0  0
  9 18  1  0  0  0  0
 11 12  1  0  0  0  0
 11 13  1  0  0  0  0
 11 14  1  0  0  0  0
 14 15  2  0  0  0  0
 14 16  1  0  0  0  0
 16 17  1  0  0  0  0
 18 19  2  0  0  0  0
 18 20  1  0  0  0  0
 20 21  1  0  0  0  0
 20 22  1  0  0  0  0
 22 23  1  0  0  0  0
 22 24  1  0  0  0  0
 22 25  1  0  0  0  0
M  END
$$$$

  -OEChem-03222214023D

 25 24  0     1  0  0  0  0  0999 V2000
   -2.6893   -4.0113    0.4080 H   0  0  0  0  0  0  0  0  0  0  0  0
   -2.7431   -2.9637    0.0987 C   0  0  0  0  0  0  0  0  0  0  0  0
   -3.3725   -2.4189    0.8064 H   0  0  0  0  0  0  0  0  0  0  0  0
   -3.1946   -2.9128   -0.8949 H   0  0  0  0  0  0  0  0  0  0  0  0
   -1.3533   -2.3563    0.0679 C   0  0  0  0  0  0  0  0  0  0  0  0
   -0.3856   -3.0338    0.3723 O   0  0  0  0  0  0  0  0  0  0  0  0
   -1.1937   -1.0290   -0.2754 N   0  0  0  0  0  0  0  0  0  0  0  0
   -2.0390   -0.4765   -0.4116 H   0  0  0  0  0  0  0  0  0  0  0  0
    0.0849   -0.3021   -0.2633 C   0  0  1  0  0  0  0  0  0  0  0  0
    0.8061   -0.8681    0.3377 H   0  0  0  0  0  0  0  0  0  0  0  0
    0.6176   -0.1620   -1.7027 C   0  0  0  0  0  0  0  0  0  0  0  0
    0.0970   -0.8586   -2.3657 H   0  0  0  0  0  0  0  0  0  0  0  0
    0.4443    0.8467   -2.0887 H   0  0  0  0  0  0  0  0  0  0  0  0
    2.1022   -0.4829   -1.7664 C   0  0  0  0  0  0  0  0  0  0  0  0
    2.4508   -1.6285   -1.9765 O   0  0  0  0  0  0  0  0  0  0  0  0
    2.9694    0.5222   -1.5204 O   0  0  0  0  0  0  0  0  0  0  0  0
    3.8486    0.1210   -1.6088 H   0  0  0  0  0  0  0  0  0  0  0  0
   -0.0576    1.0839    0.3919 C   0  0  0  0  0  0  0  0  0  0  0  0
   -1.0386    1.7727    0.1375 O   0  0  0  0  0  0  0  0  0  0  0  0
    0.8779    1.5318    1.3051 N   0  0  0  0  0  0  0  0  0  0  0  0
    1.6970    0.9514    1.4642 H   0  0  0  0  0  0  0  0  0  0  0  0
    0.8029    2.8363    1.9510 C   0  0  0  0  0  0  0  0  0  0  0  0
   -0.1434    2.9438    2.4916 H   0  0  0  0  0  0  0  0  0  0  0  0
    1.6224    2.9513    2.6667 H   0  0  0  0  0  0  0  0  0  0  0  0
    0.8767    3.6364    1.2071 H   0  0  0  0  0  0  0  0  0  0  0  0
  1  2  1  0  0  0  0
  2  3  1  0  0  0  0
  2  4  1  0  0  0  0
  2  5  1  0  0  0  0
  5  6  2  0  0  0  0
  5  7  1  0  0  0  0
  7  8  1  0  0  0  0
  7  9  1  0  0  0  0
  9 10  1  0  0  0  0
  9 11  1  0  0  0  0
  9 18  1  0  0  0  0
 11 12  1  0  0  0  0
 11 13  1  0  0  0  0
 11 14  1  0  0  0  0
 14 15  2  0  0  0  0
 14 16  1  0  0  0  0
 16 17  1  0  0  0  0
 18 19  2  0  0  0  0
 18 20  1  0  0  0  0
 20 21  1  0  0  0  0
 20 22  1  0  0  0  0
 22 23  1  0  0  0  0
 22 24  1  0  0  0  0
 22 25  1  0  0  0  0
M  END
$$$$

  -OEChem-03222214023D

 25 24  0     1  0  0  0  0  0999 V2000
   -2.6871   -4.0076    0.4165 H   0  0  0  0  0  0  0  0  0  0  0  0
   -2.7428   -2.9613    0.1034 C   0  0  0  0  0  0  0  0  0  0  0  0
   -3.3668   -2.4140    0.8141 H   0  0  0  0  0  0  0  0  0  0  0  0
   -3.2018   -2.9141   -0.8870 H   0  0  0  0  0  0  0  0  0  0  0  0
   -1.3529   -2.3549    0.0595 C   0  0  0  0  0  0  0  0  0  0  0  0
   -0.3815   -3.0354    0.3459 O   0  0  0  0  0  0  0  0  0  0  0  0
   -1.1948   -1.0270   -0.2812 N   0  0  0  0  0  0  0  0  0  0  0  0
   -2.0404   -0.4710   -0.4015 H   0  0  0  0  0  0  0  0  0  0  0  0
    0.0840   -0.3012   -0.2663 C   0  0  1  0  0  0  0  0  0  0  0  0
    0.8025   -0.8673    0.3383 H   0  0  0  0  0  0  0  0  0  0  0  0
    0.6233   -0.1606   -1.7023 C   0  0  0  0  0  0  0  0  0  0  0  0
    0.1026   -0.8544   -2.3685 H   0  0  0  0  0  0  0  0  0  0  0  0
    0.4565    0.8495   -2.0866 H   0  0  0  0  0  0  0  0  0  0  0  0
    2.1080   -0.4842   -1.7520 C   0  0  0  0  0  0  0  0  0  0  0  0
    2.4661   -1.5466   -2.2231 O   0  0  0  0  0  0  0  0  0  0  0  0
    2.9614    0.4114   -1.2089 O   0  0  0  0  0  0  0  0  0  0  0  0
    3.8417    0.0238   -1.3404 H   0  0  0  0  0  0  0  0  0  0  0  0
   -0.0602    1.0836    0.3919 C   0  0  0  0  0  0  0  0  0  0  0  0
   -1.0488    1.7655    0.1482 O   0  0  0  0  0  0  0  0  0  0  0  0
    0.8736    1.5301    1.3072 N   0  0  0  0  0  0  0  0  0  0  0  0
    1.7172    0.9746    1.4232 H   0  0  0  0  0  0  0  0  0  0  0  0
    0.7969    2.8344    1.9534 C   0  0  0  0  0  0  0  0  0  0  0  0
   -0.1595    2.9495    2.4747 H   0  0  0  0  0  0  0  0  0  0  0  0
    1.6020    2.9403    2.6869 H   0  0  0  0  0  0  0  0  0  0  0  0
    0.8933    3.6346    1.2123 H   0  0  0  0  0  0  0  0  0  0  0  0
  1  2  1  0  0  0  0
  2  3  1  0  0  0  0
  2  4  1  0  0  0  0
  2  5  1  0  0  0  0
  5  6  2  0  0  0  0
  5  7  1  0  0  0  0
  7  8  1  0  0  0  0
  7  9  1  0  0  0  0
  9 10  1  0  0  0  0
  9 11  1  0  0  0  0
  9 18  1  0  0  0  0
 11 12  1  0  0  0  0
 11 13  1  0  0  0  0
 11 14  1  0  0  0  0
 14 15  2  0  0  0  0
 14 16  1  0  0  0  0
 16 17  1  0  0  0  0
 18 19  2  0  0  0  0
 18 20  1  0  0  0  0
 20 21  1  0  0  0  0
 20 22  1  0  0  0  0
 22 23  1  0  0  0  0
 22 24  1  0  0  0  0
 22 25  1  0  0  0  0
M  END
$$$$

  -OEChem-03222214023D

 25 24  0     1  0  0  0  0  0999 V2000
   -2.6911   -4.0076    0.4209 H   0  0  0  0  0  0  0  0  0  0  0  0
   -2.7489   -2.9618    0.1068 C   0  0  0  0  0  0  0  0  0  0  0  0
   -3.3654   -2.4132    0.8229 H   0  0  0  0  0  0  0  0  0  0  0  0
   -3.2176   -2.9157   -0.8791 H   0  0  0  0  0  0  0  0  0  0  0  0
   -1.3589   -2.3565    0.0484 C   0  0  0  0  0  0  0  0  0  0  0  0
   -0.3837   -3.0401    0.3150 O   0  0  0  0  0  0  0  0  0  0  0  0
   -1.2025   -1.0274   -0.2888 N   0  0  0  0  0  0  0  0  0  0  0  0
   -2.0490   -0.4698   -0.3958 H   0  0  0  0  0  0  0  0  0  0  0  0
    0.0755   -0.3002   -0.2662 C   0  0  1  0  0  0  0  0  0  0  0  0
    0.7857   -0.8671    0.3470 H   0  0  0  0  0  0  0  0  0  0  0  0
    0.6326   -0.1635   -1.6958 C   0  0  0  0  0  0  0  0  0  0  0  0
    0.1186   -0.8595   -2.3652 H   0  0  0  0  0  0  0  0  0  0  0  0
    0.4706    0.8461   -2.0832 H   0  0  0  0  0  0  0  0  0  0  0  0
    2.1191   -0.4852   -1.7270 C   0  0  0  0  0  0  0  0  0  0  0  0
    2.5085   -1.4020   -2.4249 O   0  0  0  0  0  0  0  0  0  0  0  0
    2.9395    0.2523   -0.9445 O   0  0  0  0  0  0  0  0  0  0  0  0
    3.8257   -0.1072   -1.1130 H   0  0  0  0  0  0  0  0  0  0  0  0
   -0.0667    1.0840    0.3931 C   0  0  0  0  0  0  0  0  0  0  0  0
   -1.0569    1.7655    0.1549 O   0  0  0  0  0  0  0  0  0  0  0  0
    0.8675    1.5238    1.3109 N   0  0  0  0  0  0  0  0  0  0  0  0
    1.7244    0.9819    1.3938 H   0  0  0  0  0  0  0  0  0  0  0  0
    0.7998    2.8309    1.9522 C   0  0  0  0  0  0  0  0  0  0  0  0
   -0.1552    2.9539    2.4741 H   0  0  0  0  0  0  0  0  0  0  0  0
    1.6064    2.9343    2.6844 H   0  0  0  0  0  0  0  0  0  0  0  0
    0.9004    3.6279    1.2080 H   0  0  0  0  0  0  0  0  0  0  0  0
  1  2  1  0  0  0  0
  2  3  1  0  0  0  0
  2  4  1  0  0  0  0
  2  5  1  0  0  0  0
  5  6  2  0  0  0  0
  5  7  1  0  0  0  0
  7  8  1  0  0  0  0
  7  9  1  0  0  0  0
  9 10  1  0  0  0  0
  9 11  1  0  0  0  0
  9 18  1  0  0  0  0
 11 12  1  0  0  0  0
 11 13  1  0  0  0  0
 11 14  1  0  0  0  0
 14 15  2  0  0  0  0
 14 16  1  0  0  0  0
 16 17  1  0  0  0  0
 18 19  2  0  0  0  0
 18 20  1  0  0  0  0
 20 21  1  0  0  0  0
 20 22  1  0  0  0  0
 22 23  1  0  0  0  0
 22 24  1  0  0  0  0
 22 25  1  0  0  0  0
M  END
$$$$

  -OEChem-03222214023D

 25 24  0     1  0  0  0  0  0999 V2000
   -2.7010   -4.0037    0.4256 H   0  0  0  0  0  0  0  0  0  0  0  0
   -2.7580   -2.9583    0.1095 C   0  0  0  0  0  0  0  0  0  0  0  0
   -3.3714   -2.4071    0.8263 H   0  0  0  0  0  0  0  0  0  0  0  0
   -3.2303   -2.9134   -0.8748 H   0  0  0  0  0  0  0  0  0  0  0  0
   -1.3670   -2.3558    0.0447 C   0  0  0  0  0  0  0  0  0  0  0  0
   -0.3913   -3.0432    0.3008 O   0  0  0  0  0  0  0  0  0  0  0  0
   -1.2092   -1.0269   -0.2931 N   0  0  0  0  0  0  0  0  0  0  0  0
   -2.0550   -0.4672   -0.3946 H   0  0  0  0  0  0  0  0  0  0  0  0
    0.0692   -0.3005   -0.2622 C   0  0  1  0  0  0  0  0  0  0  0  0
    0.7685   -0.8683    0.3623 H   0  0  0  0  0  0  0  0  0  0  0  0
    0.6440   -0.1772   -1.6870 C   0  0  0  0  0  0  0  0  0  0  0  0
    0.1361   -0.8795   -2.3545 H   0  0  0  0  0  0  0  0  0  0  0  0
    0.4845    0.8293   -2.0834 H   0  0  0  0  0  0  0  0  0  0  0  0
    2.1322   -0.4976   -1.7109 C   0  0  0  0  0  0  0  0  0  0  0  0
    2.5566   -1.2206   -2.5924 O   0  0  0  0  0  0  0  0  0  0  0  0
    2.9214    0.0547   -0.7595 O   0  0  0  0  0  0  0  0  0  0  0  0
    3.8137   -0.2671   -0.9674 H   0  0  0  0  0  0  0  0  0  0  0  0
   -0.0699    1.0854    0.3931 C   0  0  0  0  0  0  0  0  0  0  0  0
   -1.0564    1.7706    0.1512 O   0  0  0  0  0  0  0  0  0  0  0  0
    0.8627    1.5206    1.3146 N   0  0  0  0  0  0  0  0  0  0  0  0
    1.7182    0.9753    1.3960 H   0  0  0  0  0  0  0  0  0  0  0  0
    0.7986    2.8273    1.9574 C   0  0  0  0  0  0  0  0  0  0  0  0
   -0.1589    2.9551    2.4736 H   0  0  0  0  0  0  0  0  0  0  0  0
    1.6011    2.9254    2.6948 H   0  0  0  0  0  0  0  0  0  0  0  0
    0.9081    3.6249    1.2154 H   0  0  0  0  0  0  0  0  0  0  0  0
  1  2  1  0  0  0  0
  2  3  1  0  0  0  0
  2  4  1  0  0  0  0
  2  5  1  0  0  0  0
  5  6  2  0  0  0  0
  5  7  1  0  0  0  0
  7  8  1  0  0  0  0
  7  9  1  0  0  0  0
  9 10  1  0  0  0  0
  9 11  1  0  0  0  0
  9 18  1  0  0  0  0
 11 12  1  0  0  0  0
 11 13  1  0  0  0  0
 11 14  1  0  0  0  0
 14 15  2  0  0  0  0
 14 16  1  0  0  0  0
 16 17  1  0  0  0  0
 18 19  2  0  0  0  0
 18 20  1  0  0  0  0
 20 21  1  0  0  0  0
 20 22  1  0  0  0  0
 22 23  1  0  0  0  0
 22 24  1  0  0  0  0
 22 25  1  0  0  0  0
M  END
$$$$

  -OEChem-03222214023D

 25 24  0     1  0  0  0  0  0999 V2000
   -2.7179   -4.0008    0.4269 H   0  0  0  0  0  0  0  0  0  0  0  0
   -2.7722   -2.9552    0.1111 C   0  0  0  0  0  0  0  0  0  0  0  0
   -3.3809   -2.4018    0.8301 H   0  0  0  0  0  0  0  0  0  0  0  0
   -3.2473   -2.9083   -0.8717 H   0  0  0  0  0  0  0  0  0  0  0  0
   -1.3795   -2.3574    0.0420 C   0  0  0  0  0  0  0  0  0  0  0  0
   -0.4049   -3.0493    0.2898 O   0  0  0  0  0  0  0  0  0  0  0  0
   -1.2179   -1.0292   -0.2973 N   0  0  0  0  0  0  0  0  0  0  0  0
   -2.0627   -0.4681   -0.3986 H   0  0  0  0  0  0  0  0  0  0  0  0
    0.0604   -0.3025   -0.2567 C   0  0  1  0  0  0  0  0  0  0  0  0
    0.7439   -0.8722    0.3827 H   0  0  0  0  0  0  0  0  0  0  0  0
    0.6553   -0.1955   -1.6756 C   0  0  0  0  0  0  0  0  0  0  0  0
    0.1544   -0.9075   -2.3378 H   0  0  0  0  0  0  0  0  0  0  0  0
    0.4934    0.8055   -2.0845 H   0  0  0  0  0  0  0  0  0  0  0  0
    2.1461   -0.5115   -1.7000 C   0  0  0  0  0  0  0  0  0  0  0  0
    2.6082   -1.0003   -2.7138 O   0  0  0  0  0  0  0  0  0  0  0  0
    2.9051   -0.1648   -0.6325 O   0  0  0  0  0  0  0  0  0  0  0  0
    3.8048   -0.4376   -0.8760 H   0  0  0  0  0  0  0  0  0  0  0  0
   -0.0727    1.0860    0.3918 C   0  0  0  0  0  0  0  0  0  0  0  0
   -1.0517    1.7785    0.1407 O   0  0  0  0  0  0  0  0  0  0  0  0
    0.8593    1.5155    1.3165 N   0  0  0  0  0  0  0  0  0  0  0  0
    1.7020    0.9532    1.4177 H   0  0  0  0  0  0  0  0  0  0  0  0
    0.8030    2.8224    1.9589 C   0  0  0  0  0  0  0  0  0  0  0  0
   -0.1518    2.9533    2.4792 H   0  0  0  0  0  0  0  0  0  0  0  0
    1.6094    2.9181    2.6924 H   0  0  0  0  0  0  0  0  0  0  0  0
    0.9120    3.6192    1.2159 H   0  0  0  0  0  0  0  0  0  0  0  0
  1  2  1  0  0  0  0
  2  3  1  0  0  0  0
  2  4  1  0  0  0  0
  2  5  1  0  0  0  0
  5  6  2  0  0  0  0
  5  7  1  0  0  0  0
  7  8  1  0  0  0  0
  7  9  1  0  0  0  0
  9 10  1  0  0  0  0
  9 11  1  0  0  0  0
  9 18  1  0  0  0  0
 11 12  1  0  0  0  0
 11 13  1  0  0  0  0
 11 14  1  0  0  0  0
 14 15  2  0  0  0  0
 14 16  1  0  0  0  0
 16 17  1  0  0  0  0
 18 19  2  0  0  0  0
 18 20  1  0  0  0  0
 20 21  1  0  0  0  0
 20 22  1  0  0  0  0
 22 23  1  0  0  0  0
 22 24  1  0  0  0  0
 22 25  1  0  0  0  0
M  END
$$$$

  -OEChem-03222214023D

 25 24  0     1  0  0  0  0  0999 V2000
   -2.7373   -3.9927    0.4303 H   0  0  0  0  0  0  0  0  0  0  0  0
   -2.7851   -2.9474    0.1123 C   0  0  0  0  0  0  0  0  0  0  0  0
   -3.3929   -2.3891    0.8285 H   0  0  0  0  0  0  0  0  0  0  0  0
   -3.2575   -2.8993   -0.8718 H   0  0  0  0  0  0  0  0  0  0  0  0
   -1.3892   -2.3573    0.0457 C   0  0  0  0  0  0  0  0  0  0  0  0
   -0.4187   -3.0552    0.2929 O   0  0  0  0  0  0  0  0  0  0  0  0
   -1.2210   -1.0310   -0.2977 N   0  0  0  0  0  0  0  0  0  0  0  0
   -2.0641   -0.4677   -0.4029 H   0  0  0  0  0  0  0  0  0  0  0  0
    0.0582   -0.3060   -0.2503 C   0  0  1  0  0  0  0  0  0  0  0  0
    0.7280   -0.8767    0.4016 H   0  0  0  0  0  0  0  0  0  0  0  0
    0.6650   -0.2158   -1.6668 C   0  0  0  0  0  0  0  0  0  0  0  0
    0.1665   -0.9362   -2.3214 H   0  0  0  0  0  0  0  0  0  0  0  0
    0.4987    0.7801   -2.0866 H   0  0  0  0  0  0  0  0  0  0  0  0
    2.1575   -0.5295   -1.7077 C   0  0  0  0  0  0  0  0  0  0  0  0
    2.6471   -0.7565   -2.7980 O   0  0  0  0  0  0  0  0  0  0  0  0
    2.8944   -0.4274   -0.5755 O   0  0  0  0  0  0  0  0  0  0  0  0
    3.7992   -0.6452   -0.8525 H   0  0  0  0  0  0  0  0  0  0  0  0
   -0.0706    1.0863    0.3896 C   0  0  0  0  0  0  0  0  0  0  0  0
   -1.0413    1.7853    0.1261 O   0  0  0  0  0  0  0  0  0  0  0  0
    0.8586    1.5146    1.3175 N   0  0  0  0  0  0  0  0  0  0  0  0
    1.6820    0.9319    1.4540 H   0  0  0  0  0  0  0  0  0  0  0  0
    0.8002    2.8197    1.9636 C   0  0  0  0  0  0  0  0  0  0  0  0
   -0.1559    2.9487    2.4819 H   0  0  0  0  0  0  0  0  0  0  0  0
    1.6049    2.9139    2.6989 H   0  0  0  0  0  0  0  0  0  0  0  0
    0.9101    3.6188    1.2231 H   0  0  0  0  0  0  0  0  0  0  0  0
  1  2  1  0  0  0  0
  2  3  1  0  0  0  0
  2  4  1  0  0  0  0
  2  5  1  0  0  0  0
  5  6  2  0  0  0  0
  5  7  1  0  0  0  0
  7  8  1  0  0  0  0
  7  9  1  0  0  0  0
  9 10  1  0  0  0  0
  9 11  1  0  0  0  0
  9 18  1  0  0  0  0
 11 12  1  0  0  0  0
 11 13  1  0  0  0  0
 11 14  1  0  0  0  0
 14 15  2  0  0  0  0
 14 16  1  0  0  0  0
 16 17  1  0  0  0  0
 18 19  2  0  0  0  0
 18 20  1  0  0  0  0
 20 21  1  0  0  0  0
 20 22  1  0  0  0  0
 22 23  1  0  0  0  0
 22 24  1  0  0  0  0
 22 25  1  0  0  0  0
M  END
$$$$

  -OEChem-03222214023D

 25 24  0     1  0  0  0  0  0999 V2000
   -2.7661   -3.9643    0.4375 H   0  0  0  0  0  0  0  0  0  0  0  0
   -2.7934   -2.9178    0.1211 C   0  0  0  0  0  0  0  0  0  0  0  0
   -3.4079   -2.3531    0.8264 H   0  0  0  0  0  0  0  0  0  0  0  0
   -3.2448   -2.8617   -0.8723 H   0  0  0  0  0  0  0  0  0  0  0  0
   -1.3890   -2.3458    0.0832 C   0  0  0  0  0  0  0  0  0  0  0  0
   -0.4356   -3.0504    0.3723 O   0  0  0  0  0  0  0  0  0  0  0  0
   -1.1961   -1.0284   -0.2797 N   0  0  0  0  0  0  0  0  0  0  0  0
   -2.0286   -0.4565   -0.4170 H   0  0  0  0  0  0  0  0  0  0  0  0
    0.0938   -0.3227   -0.2276 C   0  0  1  0  0  0  0  0  0  0  0  0
    0.7625   -0.8748    0.4393 H   0  0  0  0  0  0  0  0  0  0  0  0
    0.6846   -0.2360   -1.6577 C   0  0  0  0  0  0  0  0  0  0  0  0
   -0.0031   -0.7052   -2.3662 H   0  0  0  0  0  0  0  0  0  0  0  0
    0.7837    0.8125   -1.9534 H   0  0  0  0  0  0  0  0  0  0  0  0
    2.0474   -0.9009   -1.8415 C   0  0  0  0  0  0  0  0  0  0  0  0
    2.5281   -0.8455   -2.9582 O   0  0  0  0  0  0  0  0  0  0  0  0
    2.7075   -1.4250   -0.7846 O   0  0  0  0  0  0  0  0  0  0  0  0
    3.5263   -1.7897   -1.1548 H   0  0  0  0  0  0  0  0  0  0  0  0
   -0.0573    1.0771    0.3929 C   0  0  0  0  0  0  0  0  0  0  0  0
   -1.0077    1.7809    0.0737 O   0  0  0  0  0  0  0  0  0  0  0  0
    0.8454    1.5272    1.3374 N   0  0  0  0  0  0  0  0  0  0  0  0
    1.6145    0.9104    1.5873 H   0  0  0  0  0  0  0  0  0  0  0  0
    0.7515    2.8352    1.9741 C   0  0  0  0  0  0  0  0  0  0  0  0
   -0.2115    2.9455    2.4839 H   0  0  0  0  0  0  0  0  0  0  0  0
    1.5489    2.9545    2.7138 H   0  0  0  0  0  0  0  0  0  0  0  0
    0.8488    3.6311    1.2283 H   0  0  0  0  0  0  0  0  0  0  0  0
  1  2  1  0  0  0  0
  2  3  1  0  0  0  0
  2  4  1  0  0  0  0
  2  5  1  0  0  0  0
  5  6  2  0  0  0  0
  5  7  1  0  0  0  0
  7  8  1  0  0  0  0
  7  9  1  0  0  0  0
  9 10  1  0  0  0  0
  9 11  1  0  0  0  0
  9 18  1  0  0  0  0
 11 12  1  0  0  0  0
 11 13  1  0  0  0  0
 11 14  1  0  0  0  0
 14 15  2  0  0  0  0
 14 16  1  0  0  0  0
 16 17  1  0  0  0  0
 18 19  2  0  0  0  0
 18 20  1  0  0  0  0
 20 21  1  0  0  0  0
 20 22  1  0  0  0  0
 22 23  1  0  0  0  0
 22 24  1  0  0  0  0
 22 25  1  0  0  0  0
M  END
$$$$

  -OEChem-03222214023D

 25 24  0     1  0  0  0  0  0999 V2000
   -2.7713   -3.9621    0.4347 H   0  0  0  0  0  0  0  0  0  0  0  0
   -2.7929   -2.9152    0.1195 C   0  0  0  0  0  0  0  0  0  0  0  0
   -3.4148   -2.3501    0.8180 H   0  0  0  0  0  0  0  0  0  0  0  0
   -3.2328   -2.8570   -0.8789 H   0  0  0  0  0  0  0  0  0  0  0  0
   -1.3865   -2.3462    0.0990 C   0  0  0  0  0  0  0  0  0  0  0  0
   -0.4414   -3.0497    0.4147 O   0  0  0  0  0  0  0  0  0  0  0  0
   -1.1866   -1.0308   -0.2679 N   0  0  0  0  0  0  0  0  0  0  0  0
   -2.0165   -0.4600   -0.4245 H   0  0  0  0  0  0  0  0  0  0  0  0
    0.1050   -0.3266   -0.2221 C   0  0  1  0  0  0  0  0  0  0  0  0
    0.7838   -0.8753    0.4380 H   0  0  0  0  0  0  0  0  0  0  0  0
    0.6862   -0.2303   -1.6561 C   0  0  0  0  0  0  0  0  0  0  0  0
   -0.0046   -0.6976   -2.3623 H   0  0  0  0  0  0  0  0  0  0  0  0
    0.7797    0.8202   -1.9480 H   0  0  0  0  0  0  0  0  0  0  0  0
    2.0470   -0.8959   -1.8529 C   0  0  0  0  0  0  0  0  0  0  0  0
    2.6513   -0.6018   -2.8676 O   0  0  0  0  0  0  0  0  0  0  0  0
    2.5443   -1.7376   -0.9207 O   0  0  0  0  0  0  0  0  0  0  0  0
    3.3837   -2.0581   -1.2847 H   0  0  0  0  0  0  0  0  0  0  0  0
   -0.0519    1.0745    0.3957 C   0  0  0  0  0  0  0  0  0  0  0  0
   -1.0020    1.7760    0.0698 O   0  0  0  0  0  0  0  0  0  0  0  0
    0.8484    1.5324    1.3391 N   0  0  0  0  0  0  0  0  0  0  0  0
    1.6105    0.9142    1.6049 H   0  0  0  0  0  0  0  0  0  0  0  0
    0.7468    2.8414    1.9728 C   0  0  0  0  0  0  0  0  0  0  0  0
   -0.2209    2.9519    2.4737 H   0  0  0  0  0  0  0  0  0  0  0  0
    1.5371    2.9625    2.7200 H   0  0  0  0  0  0  0  0  0  0  0  0
    0.8506    3.6364    1.2268 H   0  0  0  0  0  0  0  0  0  0  0  0
  1  2  1  0  0  0  0
  2  3  1  0  0  0  0
  2  4  1  0  0  0  0
  2  5  1  0  0  0  0
  5  6  2  0  0  0  0
  5  7  1  0  0  0  0
  7  8  1  0  0  0  0
  7  9  1  0  0  0  0
  9 10  1  0  0  0  0
  9 11  1  0  0  0  0
  9 18  1  0  0  0  0
 11 12  1  0  0  0  0
 11 13  1  0  0  0  0
 11 14  1  0  0  0  0
 14 15  2  0  0  0  0
 14 16  1  0  0  0  0
 16 17  1  0  0  0  0
 18 19  2  0  0  0  0
 18 20  1  0  0  0  0
 20 21  1  0  0  0  0
 20 22  1  0  0  0  0
 22 23  1  0  0  0  0
 22 24  1  0  0  0  0
 22 25  1  0  0  0  0
M  END
$$$$

  -OEChem-03222214023D

 25 24  0     1  0  0  0  0  0999 V2000
   -2.7646   -3.9665    0.4247 H   0  0  0  0  0  0  0  0  0  0  0  0
   -2.7862   -2.9188    0.1122 C   0  0  0  0  0  0  0  0  0  0  0  0
   -3.4175   -2.3576    0.8053 H   0  0  0  0  0  0  0  0  0  0  0  0
   -3.2146   -2.8598   -0.8912 H   0  0  0  0  0  0  0  0  0  0  0  0
   -1.3817   -2.3453    0.1103 C   0  0  0  0  0  0  0  0  0  0  0  0
   -0.4423   -3.0418    0.4566 O   0  0  0  0  0  0  0  0  0  0  0  0
   -1.1805   -1.0306   -0.2585 N   0  0  0  0  0  0  0  0  0  0  0  0
   -2.0090   -0.4624   -0.4301 H   0  0  0  0  0  0  0  0  0  0  0  0
    0.1120   -0.3280   -0.2233 C   0  0  1  0  0  0  0  0  0  0  0  0
    0.8053   -0.8777    0.4220 H   0  0  0  0  0  0  0  0  0  0  0  0
    0.6783   -0.2204   -1.6610 C   0  0  0  0  0  0  0  0  0  0  0  0
   -0.0144   -0.6867   -2.3654 H   0  0  0  0  0  0  0  0  0  0  0  0
    0.7707    0.8312   -1.9503 H   0  0  0  0  0  0  0  0  0  0  0  0
    2.0350   -0.8925   -1.8504 C   0  0  0  0  0  0  0  0  0  0  0  0
    2.7756   -0.4144   -2.6898 O   0  0  0  0  0  0  0  0  0  0  0  0
    2.3566   -1.9803   -1.1189 O   0  0  0  0  0  0  0  0  0  0  0  0
    3.2252   -2.2654   -1.4400 H   0  0  0  0  0  0  0  0  0  0  0  0
   -0.0458    1.0726    0.3964 C   0  0  0  0  0  0  0  0  0  0  0  0
   -0.9998    1.7710    0.0754 O   0  0  0  0  0  0  0  0  0  0  0  0
    0.8578    1.5347    1.3347 N   0  0  0  0  0  0  0  0  0  0  0  0
    1.6203    0.9181    1.6026 H   0  0  0  0  0  0  0  0  0  0  0  0
    0.7521    2.8425    1.9702 C   0  0  0  0  0  0  0  0  0  0  0  0
   -0.2123    2.9455    2.4788 H   0  0  0  0  0  0  0  0  0  0  0  0
    1.5475    2.9688    2.7111 H   0  0  0  0  0  0  0  0  0  0  0  0
    0.8443    3.6389    1.2242 H   0  0  0  0  0  0  0  0  0  0  0  0
  1  2  1  0  0  0  0
  2  3  1  0  0  0  0
  2  4  1  0  0  0  0
  2  5  1  0  0  0  0
  5  6  2  0  0  0  0
  5  7  1  0  0  0  0
  7  8  1  0  0  0  0
  7  9  1  0  0  0  0
  9 10  1  0  0  0  0
  9 11  1  0  0  0  0
  9 18  1  0  0  0  0
 11 12  1  0  0  0  0
 11 13  1  0  0  0  0
 11 14  1  0  0  0  0
 14 15  2  0  0  0  0
 14 16  1  0  0  0  0
 16 17  1  0  0  0  0
 18 19  2  0  0  0  0
 18 20  1  0  0  0  0
 20 21  1  0  0  0  0
 20 22  1  0  0  0  0
 22 23  1  0  0  0  0
 22 24  1  0  0  0  0
 22 25  1  0  0  0  0
M  END
$$$$

  -OEChem-03222214023D

 25 24  0     1  0  0  0  0  0999 V2000
   -2.7566   -3.9778    0.4067 H   0  0  0  0  0  0  0  0  0  0  0  0
   -2.7809   -2.9292    0.0967 C   0  0  0  0  0  0  0  0  0  0  0  0
   -3.4280   -2.3746    0.7804 H   0  0  0  0  0  0  0  0  0  0  0  0
   -3.1929   -2.8701   -0.9135 H   0  0  0  0  0  0  0  0  0  0  0  0
   -1.3807   -2.3456    0.1199 C   0  0  0  0  0  0  0  0  0  0  0  0
   -0.4443   -3.0312    0.4950 O   0  0  0  0  0  0  0  0  0  0  0  0
   -1.1827   -1.0305   -0.2495 N   0  0  0  0  0  0  0  0  0  0  0  0
   -2.0113   -0.4680   -0.4381 H   0  0  0  0  0  0  0  0  0  0  0  0
    0.1102   -0.3285   -0.2259 C   0  0  1  0  0  0  0  0  0  0  0  0
    0.8153   -0.8826    0.4039 H   0  0  0  0  0  0  0  0  0  0  0  0
    0.6627   -0.2113   -1.6665 C   0  0  0  0  0  0  0  0  0  0  0  0
   -0.0312   -0.6774   -2.3702 H   0  0  0  0  0  0  0  0  0  0  0  0
    0.7552    0.8405   -1.9550 H   0  0  0  0  0  0  0  0  0  0  0  0
    2.0156   -0.8901   -1.8416 C   0  0  0  0  0  0  0  0  0  0  0  0
    2.8757   -0.2827   -2.4524 O   0  0  0  0  0  0  0  0  0  0  0  0
    2.1951   -2.1356   -1.3556 O   0  0  0  0  0  0  0  0  0  0  0  0
    3.0955   -2.3900   -1.6070 H   0  0  0  0  0  0  0  0  0  0  0  0
   -0.0427    1.0712    0.3977 C   0  0  0  0  0  0  0  0  0  0  0  0
   -0.9983    1.7709    0.0843 O   0  0  0  0  0  0  0  0  0  0  0  0
    0.8692    1.5322    1.3284 N   0  0  0  0  0  0  0  0  0  0  0  0
    1.6368    0.9173    1.5852 H   0  0  0  0  0  0  0  0  0  0  0  0
    0.7701    2.8401    1.9648 C   0  0  0  0  0  0  0  0  0  0  0  0
   -0.1739    2.9299    2.5126 H   0  0  0  0  0  0  0  0  0  0  0  0
    1.5936    2.9801    2.6716 H   0  0  0  0  0  0  0  0  0  0  0  0
    0.8192    3.6362    1.2145 H   0  0  0  0  0  0  0  0  0  0  0  0
  1  2  1  0  0  0  0
  2  3  1  0  0  0  0
  2  4  1  0  0  0  0
  2  5  1  0  0  0  0
  5  6  2  0  0  0  0
  5  7  1  0  0  0  0
  7  8  1  0  0  0  0
  7  9  1  0  0  0  0
  9 10  1  0  0  0  0
  9 11  1  0  0  0  0
  9 18  1  0  0  0  0
 11 12  1  0  0  0  0
 11 13  1  0  0  0  0
 11 14  1  0  0  0  0
 14 15  2  0  0  0  0
 14 16  1  0  0  0  0
 16 17  1  0  0  0  0
 18 19  2  0  0  0  0
 18 20  1  0  0  0  0
 20 21  1  0  0  0  0
 20 22  1  0  0  0  0
 22 23  1  0  0  0  0
 22 24  1  0  0  0  0
 22 25  1  0  0  0  0
M  END
$$$$

  -OEChem-03222214023D

 25 24  0     1  0  0  0  0  0999 V2000
   -2.7456   -3.9868    0.4044 H   0  0  0  0  0  0  0  0  0  0  0  0
   -2.7763   -2.9383    0.0949 C   0  0  0  0  0  0  0  0  0  0  0  0
   -3.4218   -2.3867    0.7827 H   0  0  0  0  0  0  0  0  0  0  0  0
   -3.1945   -2.8812   -0.9128 H   0  0  0  0  0  0  0  0  0  0  0  0
   -1.3786   -2.3486    0.1096 C   0  0  0  0  0  0  0  0  0  0  0  0
   -0.4361   -3.0300    0.4780 O   0  0  0  0  0  0  0  0  0  0  0  0
   -1.1881   -1.0308   -0.2541 N   0  0  0  0  0  0  0  0  0  0  0  0
   -2.0191   -0.4691   -0.4345 H   0  0  0  0  0  0  0  0  0  0  0  0
    0.1040   -0.3279   -0.2357 C   0  0  1  0  0  0  0  0  0  0  0  0
    0.8156   -0.8862    0.3834 H   0  0  0  0  0  0  0  0  0  0  0  0
    0.6488   -0.2013   -1.6766 C   0  0  0  0  0  0  0  0  0  0  0  0
   -0.0437   -0.6648   -2.3834 H   0  0  0  0  0  0  0  0  0  0  0  0
    0.7450    0.8509   -1.9630 H   0  0  0  0  0  0  0  0  0  0  0  0
    1.9991   -0.8853   -1.8337 C   0  0  0  0  0  0  0  0  0  0  0  0
    2.9478   -0.2040   -2.1771 O   0  0  0  0  0  0  0  0  0  0  0  0
    2.0781   -2.2155   -1.6260 O   0  0  0  0  0  0  0  0  0  0  0  0
    3.0020   -2.4550   -1.7922 H   0  0  0  0  0  0  0  0  0  0  0  0
   -0.0448    1.0683    0.3975 C   0  0  0  0  0  0  0  0  0  0  0  0
   -1.0059    1.7671    0.0989 O   0  0  0  0  0  0  0  0  0  0  0  0
    0.8737    1.5248    1.3240 N   0  0  0  0  0  0  0  0  0  0  0  0
    1.6570    0.9191    1.5537 H   0  0  0  0  0  0  0  0  0  0  0  0
    0.7855    2.8339    1.9596 C   0  0  0  0  0  0  0  0  0  0  0  0
   -0.1608    2.9350    2.5014 H   0  0  0  0  0  0  0  0  0  0  0  0
    1.6060    2.9646    2.6717 H   0  0  0  0  0  0  0  0  0  0  0  0
    0.8489    3.6289    1.2091 H   0  0  0  0  0  0  0  0  0  0  0  0
  1  2  1  0  0  0  0
  2  3  1  0  0  0  0
  2  4  1  0  0  0  0
  2  5  1  0  0  0  0
  5  6  2  0  0  0  0
  5  7  1  0  0  0  0
  7  8  1  0  0  0  0
  7  9  1  0  0  0  0
  9 10  1  0  0  0  0
  9 11  1  0  0  0  0
  9 18  1  0  0  0  0
 11 12  1  0  0  0  0
 11 13  1  0  0  0  0
 11 14  1  0  0  0  0
 14 15  2  0  0  0  0
 14 16  1  0  0  0  0
 16 17  1  0  0  0  0
 18 19  2  0  0  0  0
 18 20  1  0  0  0  0
 20 21  1  0  0  0  0
 20 22  1  0  0  0  0
 22 23  1  0  0  0  0
 22 24  1  0  0  0  0
 22 25  1  0  0  0  0
M  END
$$$$

  -OEChem-03222214023D

 25 24  0     1  0  0  0  0  0999 V2000
   -2.7437   -3.9848    0.4194 H   0  0  0  0  0  0  0  0  0  0  0  0
   -2.7755   -2.9378    0.1051 C   0  0  0  0  0  0  0  0  0  0  0  0
   -3.4038   -2.3791    0.8030 H   0  0  0  0  0  0  0  0  0  0  0  0
   -3.2145   -2.8832   -0.8940 H   0  0  0  0  0  0  0  0  0  0  0  0
   -1.3754   -2.3536    0.0882 C   0  0  0  0  0  0  0  0  0  0  0  0
   -0.4238   -3.0407    0.4224 O   0  0  0  0  0  0  0  0  0  0  0  0
   -1.1913   -1.0329   -0.2669 N   0  0  0  0  0  0  0  0  0  0  0  0
   -2.0257   -0.4674   -0.4176 H   0  0  0  0  0  0  0  0  0  0  0  0
    0.0996   -0.3291   -0.2485 C   0  0  1  0  0  0  0  0  0  0  0  0
    0.8134   -0.8901    0.3657 H   0  0  0  0  0  0  0  0  0  0  0  0
    0.6418   -0.1933   -1.6874 C   0  0  0  0  0  0  0  0  0  0  0  0
   -0.0493   -0.6509   -2.3995 H   0  0  0  0  0  0  0  0  0  0  0  0
    0.7446    0.8596   -1.9683 H   0  0  0  0  0  0  0  0  0  0  0  0
    1.9903   -0.8802   -1.8303 C   0  0  0  0  0  0  0  0  0  0  0  0
    2.9856   -0.1808   -1.8868 O   0  0  0  0  0  0  0  0  0  0  0  0
    2.0195   -2.2258   -1.9214 O   0  0  0  0  0  0  0  0  0  0  0  0
    2.9545   -2.4657   -2.0038 H   0  0  0  0  0  0  0  0  0  0  0  0
   -0.0480    1.0623    0.3954 C   0  0  0  0  0  0  0  0  0  0  0  0
   -1.0183    1.7561    0.1149 O   0  0  0  0  0  0  0  0  0  0  0  0
    0.8732    1.5141    1.3213 N   0  0  0  0  0  0  0  0  0  0  0  0
    1.6830    0.9286    1.5079 H   0  0  0  0  0  0  0  0  0  0  0  0
    0.7898    2.8238    1.9563 C   0  0  0  0  0  0  0  0  0  0  0  0
   -0.1692    2.9402    2.4725 H   0  0  0  0  0  0  0  0  0  0  0  0
    1.5920    2.9399    2.6915 H   0  0  0  0  0  0  0  0  0  0  0  0
    0.8866    3.6179    1.2085 H   0  0  0  0  0  0  0  0  0  0  0  0
  1  2  1  0  0  0  0
  2  3  1  0  0  0  0
  2  4  1  0  0  0  0
  2  5  1  0  0  0  0
  5  6  2  0  0  0  0
  5  7  1  0  0  0  0
  7  8  1  0  0  0  0
  7  9  1  0  0  0  0
  9 10  1  0  0  0  0
  9 11  1  0  0  0  0
  9 18  1  0  0  0  0
 11 12  1  0  0  0  0
 11 13  1  0  0  0  0
 11 14  1  0  0  0  0
 14 15  2  0  0  0  0
 14 16  1  0  0  0  0
 16 17  1  0  0  0  0
 18 19  2  0  0  0  0
 18 20  1  0  0  0  0
 20 21  1  0  0  0  0
 20 22  1  0  0  0  0
 22 23  1  0  0  0  0
 22 24  1  0  0  0  0
 22 25  1  0  0  0  0
M  END
$$$$

  -OEChem-03222214023D

 25 24  0     1  0  0  0  0  0999 V2000
   -2.7300   -3.9914    0.4247 H   0  0  0  0  0  0  0  0  0  0  0  0
   -2.7745   -2.9449    0.1102 C   0  0  0  0  0  0  0  0  0  0  0  0
   -3.3929   -2.3899    0.8197 H   0  0  0  0  0  0  0  0  0  0  0  0
   -3.2327   -2.8941   -0.8803 H   0  0  0  0  0  0  0  0  0  0  0  0
   -1.3781   -2.3535    0.0659 C   0  0  0  0  0  0  0  0  0  0  0  0
   -0.4145   -3.0423    0.3606 O   0  0  0  0  0  0  0  0  0  0  0  0
   -1.2045   -1.0291   -0.2816 N   0  0  0  0  0  0  0  0  0  0  0  0
   -2.0427   -0.4626   -0.4057 H   0  0  0  0  0  0  0  0  0  0  0  0
    0.0844   -0.3219   -0.2628 C   0  0  1  0  0  0  0  0  0  0  0  0
    0.7967   -0.8843    0.3522 H   0  0  0  0  0  0  0  0  0  0  0  0
    0.6318   -0.1859   -1.6980 C   0  0  0  0  0  0  0  0  0  0  0  0
   -0.0542   -0.6448   -2.4144 H   0  0  0  0  0  0  0  0  0  0  0  0
    0.7385    0.8660   -1.9801 H   0  0  0  0  0  0  0  0  0  0  0  0
    1.9813   -0.8727   -1.8197 C   0  0  0  0  0  0  0  0  0  0  0  0
    2.9784   -0.2124   -1.5887 O   0  0  0  0  0  0  0  0  0  0  0  0
    2.0141   -2.1666   -2.2015 O   0  0  0  0  0  0  0  0  0  0  0  0
    2.9500   -2.4173   -2.2028 H   0  0  0  0  0  0  0  0  0  0  0  0
   -0.0553    1.0660    0.3894 C   0  0  0  0  0  0  0  0  0  0  0  0
   -1.0303    1.7604    0.1270 O   0  0  0  0  0  0  0  0  0  0  0  0
    0.8746    1.5068    1.3116 N   0  0  0  0  0  0  0  0  0  0  0  0
    1.6974    0.9287    1.4639 H   0  0  0  0  0  0  0  0  0  0  0  0
    0.8056    2.8138    1.9532 C   0  0  0  0  0  0  0  0  0  0  0  0
   -0.1464    2.9325    2.4814 H   0  0  0  0  0  0  0  0  0  0  0  0
    1.6172    2.9216    2.6793 H   0  0  0  0  0  0  0  0  0  0  0  0
    0.8979    3.6111    1.2084 H   0  0  0  0  0  0  0  0  0  0  0  0
  1  2  1  0  0  0  0
  2  3  1  0  0  0  0
  2  4  1  0  0  0  0
  2  5  1  0  0  0  0
  5  6  2  0  0  0  0
  5  7  1  0  0  0  0
  7  8  1  0  0  0  0
  7  9  1  0  0  0  0
  9 10  1  0  0  0  0
  9 11  1  0  0  0  0
  9 18  1  0  0  0  0
 11 12  1  0  0  0  0
 11 13  1  0  0  0  0
 11 14  1  0  0  0  0
 14 15  2  0  0  0  0
 14 16  1  0  0  0  0
 16 17  1  0  0  0  0
 18 19  2  0  0  0  0
 18 20  1  0  0  0  0
 20 21  1  0  0  0  0
 20 22  1  0  0  0  0
 22 23  1  0  0  0  0
 22 24  1  0  0  0  0
 22 25  1  0  0  0  0
M  END
$$$$

  -OEChem-03222214023D

 25 24  0     1  0  0  0  0  0999 V2000
   -2.7229   -3.9916    0.4396 H   0  0  0  0  0  0  0  0  0  0  0  0
   -2.7740   -2.9471    0.1196 C   0  0  0  0  0  0  0  0  0  0  0  0
   -3.3790   -2.3881    0.8376 H   0  0  0  0  0  0  0  0  0  0  0  0
   -3.2509   -2.9019   -0.8624 H   0  0  0  0  0  0  0  0  0  0  0  0
   -1.3793   -2.3550    0.0445 C   0  0  0  0  0  0  0  0  0  0  0  0
   -0.4071   -3.0490    0.2956 O   0  0  0  0  0  0  0  0  0  0  0  0
   -1.2144   -1.0275   -0.2948 N   0  0  0  0  0  0  0  0  0  0  0  0
   -2.0558   -0.4597   -0.3873 H   0  0  0  0  0  0  0  0  0  0  0  0
    0.0716   -0.3150   -0.2752 C   0  0  1  0  0  0  0  0  0  0  0  0
    0.7817   -0.8783    0.3417 H   0  0  0  0  0  0  0  0  0  0  0  0
    0.6243   -0.1809   -1.7082 C   0  0  0  0  0  0  0  0  0  0  0  0
   -0.0576   -0.6445   -2.4258 H   0  0  0  0  0  0  0  0  0  0  0  0
    0.7309    0.8698   -1.9937 H   0  0  0  0  0  0  0  0  0  0  0  0
    1.9770   -0.8628   -1.8176 C   0  0  0  0  0  0  0  0  0  0  0  0
    2.9367   -0.2979   -1.3220 O   0  0  0  0  0  0  0  0  0  0  0  0
    2.0578   -2.0417   -2.4701 O   0  0  0  0  0  0  0  0  0  0  0  0
    2.9853   -2.3140   -2.4025 H   0  0  0  0  0  0  0  0  0  0  0  0
   -0.0616    1.0692    0.3844 C   0  0  0  0  0  0  0  0  0  0  0  0
   -1.0430    1.7613    0.1410 O   0  0  0  0  0  0  0  0  0  0  0  0
    0.8762    1.5009    1.3027 N   0  0  0  0  0  0  0  0  0  0  0  0
    1.7127    0.9335    1.4192 H   0  0  0  0  0  0  0  0  0  0  0  0
    0.8154    2.8040    1.9531 C   0  0  0  0  0  0  0  0  0  0  0  0
   -0.1371    2.9268    2.4796 H   0  0  0  0  0  0  0  0  0  0  0  0
    1.6254    2.8999    2.6826 H   0  0  0  0  0  0  0  0  0  0  0  0
    0.9159    3.6060    1.2143 H   0  0  0  0  0  0  0  0  0  0  0  0
  1  2  1  0  0  0  0
  2  3  1  0  0  0  0
  2  4  1  0  0  0  0
  2  5  1  0  0  0  0
  5  6  2  0  0  0  0
  5  7  1  0  0  0  0
  7  8  1  0  0  0  0
  7  9  1  0  0  0  0
  9 10  1  0  0  0  0
  9 11  1  0  0  0  0
  9 18  1  0  0  0  0
 11 12  1  0  0  0  0
 11 13  1  0  0  0  0
 11 14  1  0  0  0  0
 14 15  2  0  0  0  0
 14 16  1  0  0  0  0
 16 17  1  0  0  0  0
 18 19  2  0  0  0  0
 18 20  1  0  0  0  0
 20 21  1  0  0  0  0
 20 22  1  0  0  0  0
 22 23  1  0  0  0  0
 22 24  1  0  0  0  0
 22 25  1  0  0  0  0
M  END
$$$$

  -OEChem-03222214023D

 25 24  0     1  0  0  0  0  0999 V2000
   -2.7161   -3.9923    0.4485 H   0  0  0  0  0  0  0  0  0  0  0  0
   -2.7724   -2.9487    0.1263 C   0  0  0  0  0  0  0  0  0  0  0  0
   -3.3711   -2.3895    0.8492 H   0  0  0  0  0  0  0  0  0  0  0  0
   -3.2591   -2.9065   -0.8510 H   0  0  0  0  0  0  0  0  0  0  0  0
   -1.3798   -2.3544    0.0361 C   0  0  0  0  0  0  0  0  0  0  0  0
   -0.4032   -3.0512    0.2615 O   0  0  0  0  0  0  0  0  0  0  0  0
   -1.2204   -1.0254   -0.3001 N   0  0  0  0  0  0  0  0  0  0  0  0
   -2.0638   -0.4581   -0.3764 H   0  0  0  0  0  0  0  0  0  0  0  0
    0.0633   -0.3083   -0.2789 C   0  0  1  0  0  0  0  0  0  0  0  0
    0.7679   -0.8728    0.3431 H   0  0  0  0  0  0  0  0  0  0  0  0
    0.6220   -0.1830   -1.7117 C   0  0  0  0  0  0  0  0  0  0  0  0
   -0.0590   -0.6522   -2.4265 H   0  0  0  0  0  0  0  0  0  0  0  0
    0.7246    0.8661   -2.0028 H   0  0  0  0  0  0  0  0  0  0  0  0
    1.9798   -0.8570   -1.8262 C   0  0  0  0  0  0  0  0  0  0  0  0
    2.8814   -0.4462   -1.1147 O   0  0  0  0  0  0  0  0  0  0  0  0
    2.1305   -1.8574   -2.7203 O   0  0  0  0  0  0  0  0  0  0  0  0
    3.0451   -2.1609   -2.6164 H   0  0  0  0  0  0  0  0  0  0  0  0
   -0.0651    1.0751    0.3821 C   0  0  0  0  0  0  0  0  0  0  0  0
   -1.0472    1.7682    0.1440 O   0  0  0  0  0  0  0  0  0  0  0  0
    0.8767    1.5029    1.2982 N   0  0  0  0  0  0  0  0  0  0  0  0
    1.7131    0.9333    1.4081 H   0  0  0  0  0  0  0  0  0  0  0  0
    0.8189    2.8022    1.9563 C   0  0  0  0  0  0  0  0  0  0  0  0
   -0.1343    2.9246    2.4815 H   0  0  0  0  0  0  0  0  0  0  0  0
    1.6277    2.8911    2.6881 H   0  0  0  0  0  0  0  0  0  0  0  0
    0.9228    3.6085    1.2228 H   0  0  0  0  0  0  0  0  0  0  0  0
  1  2  1  0  0  0  0
  2  3  1  0  0  0  0
  2  4  1  0  0  0  0
  2  5  1  0  0  0  0
  5  6  2  0  0  0  0
  5  7  1  0  0  0  0
  7  8  1  0  0  0  0
  7  9  1  0  0  0  0
  9 10  1  0  0  0  0
  9 11  1  0  0  0  0
  9 18  1  0  0  0  0
 11 12  1  0  0  0  0
 11 13  1  0  0  0  0
 11 14  1  0  0  0  0
 14 15  2  0  0  0  0
 14 16  1  0  0  0  0
 16 17  1  0  0  0  0
 18 19  2  0  0  0  0
 18 20  1  0  0  0  0
 20 21  1  0  0  0  0
 20 22  1  0  0  0  0
 22 23  1  0  0  0  0
 22 24  1  0  0  0  0
 22 25  1  0  0  0  0
M  END
$$$$

  -OEChem-03222214023D

 25 24  0     1  0  0  0  0  0999 V2000
   -2.7153   -3.9932    0.4549 H   0  0  0  0  0  0  0  0  0  0  0  0
   -2.7738   -2.9494    0.1336 C   0  0  0  0  0  0  0  0  0  0  0  0
   -3.3663   -2.3903    0.8618 H   0  0  0  0  0  0  0  0  0  0  0  0
   -3.2692   -2.9073   -0.8392 H   0  0  0  0  0  0  0  0  0  0  0  0
   -1.3813   -2.3558    0.0315 C   0  0  0  0  0  0  0  0  0  0  0  0
   -0.4033   -3.0553    0.2405 O   0  0  0  0  0  0  0  0  0  0  0  0
   -1.2240   -1.0262   -0.3036 N   0  0  0  0  0  0  0  0  0  0  0  0
   -2.0691   -0.4606   -0.3732 H   0  0  0  0  0  0  0  0  0  0  0  0
    0.0568   -0.3032   -0.2761 C   0  0  1  0  0  0  0  0  0  0  0  0
    0.7505   -0.8676    0.3571 H   0  0  0  0  0  0  0  0  0  0  0  0
    0.6287   -0.1888   -1.7070 C   0  0  0  0  0  0  0  0  0  0  0  0
   -0.0493   -0.6682   -2.4182 H   0  0  0  0  0  0  0  0  0  0  0  0
    0.7196    0.8591   -2.0053 H   0  0  0  0  0  0  0  0  0  0  0  0
    1.9950   -0.8487   -1.8386 C   0  0  0  0  0  0  0  0  0  0  0  0
    2.8283   -0.6415   -0.9714 O   0  0  0  0  0  0  0  0  0  0  0  0
    2.2278   -1.6150   -2.9257 O   0  0  0  0  0  0  0  0  0  0  0  0
    3.1281   -1.9558   -2.8111 H   0  0  0  0  0  0  0  0  0  0  0  0
   -0.0710    1.0809    0.3819 C   0  0  0  0  0  0  0  0  0  0  0  0
   -1.0479    1.7788    0.1376 O   0  0  0  0  0  0  0  0  0  0  0  0
    0.8709    1.5054    1.2990 N   0  0  0  0  0  0  0  0  0  0  0  0
    1.6969    0.9233    1.4225 H   0  0  0  0  0  0  0  0  0  0  0  0
    0.8186    2.8043    1.9579 C   0  0  0  0  0  0  0  0  0  0  0  0
   -0.1302    2.9268    2.4910 H   0  0  0  0  0  0  0  0  0  0  0  0
    1.6337    2.8932    2.6826 H   0  0  0  0  0  0  0  0  0  0  0  0
    0.9169    3.6104    1.2234 H   0  0  0  0  0  0  0  0  0  0  0  0
  1  2  1  0  0  0  0
  2  3  1  0  0  0  0
  2  4  1  0  0  0  0
  2  5  1  0  0  0  0
  5  6  2  0  0  0  0
  5  7  1  0  0  0  0
  7  8  1  0  0  0  0
  7  9  1  0  0  0  0
  9 10  1  0  0  0  0
  9 11  1  0  0  0  0
  9 18  1  0  0  0  0
 11 12  1  0  0  0  0
 11 13  1  0  0  0  0
 11 14  1  0  0  0  0
 14 15  2  0  0  0  0
 14 16  1  0  0  0  0
 16 17  1  0  0  0  0
 18 19  2  0  0  0  0
 18 20  1  0  0  0  0
 20 21  1  0  0  0  0
 20 22  1  0  0  0  0
 22 23  1  0  0  0  0
 22 24  1  0  0  0  0
 22 25  1  0  0  0  0
M  END
$$$$

  -OEChem-03222214023D

 25 24  0     1  0  0  0  0  0999 V2000
   -2.7215   -3.9882    0.4555 H   0  0  0  0  0  0  0  0  0  0  0  0
   -2.7735   -2.9440    0.1346 C   0  0  0  0  0  0  0  0  0  0  0  0
   -3.3696   -2.3831    0.8584 H   0  0  0  0  0  0  0  0  0  0  0  0
   -3.2612   -2.8994   -0.8421 H   0  0  0  0  0  0  0  0  0  0  0  0
   -1.3783   -2.3553    0.0438 C   0  0  0  0  0  0  0  0  0  0  0  0
   -0.4054   -3.0580    0.2640 O   0  0  0  0  0  0  0  0  0  0  0  0
   -1.2147   -1.0280   -0.2974 N   0  0  0  0  0  0  0  0  0  0  0  0
   -2.0587   -0.4623   -0.3787 H   0  0  0  0  0  0  0  0  0  0  0  0
    0.0662   -0.3046   -0.2640 C   0  0  1  0  0  0  0  0  0  0  0  0
    0.7506   -0.8661    0.3807 H   0  0  0  0  0  0  0  0  0  0  0  0
    0.6433   -0.2009   -1.6968 C   0  0  0  0  0  0  0  0  0  0  0  0
   -0.0390   -0.6825   -2.4022 H   0  0  0  0  0  0  0  0  0  0  0  0
    0.7268    0.8467   -1.9985 H   0  0  0  0  0  0  0  0  0  0  0  0
    2.0134   -0.8513   -1.8635 C   0  0  0  0  0  0  0  0  0  0  0  0
    2.7815   -0.8897   -0.9166 O   0  0  0  0  0  0  0  0  0  0  0  0
    2.3198   -1.3408   -3.0839 O   0  0  0  0  0  0  0  0  0  0  0  0
    3.2053   -1.7241   -2.9886 H   0  0  0  0  0  0  0  0  0  0  0  0
   -0.0673    1.0832    0.3844 C   0  0  0  0  0  0  0  0  0  0  0  0
   -1.0374    1.7833    0.1202 O   0  0  0  0  0  0  0  0  0  0  0  0
    0.8662    1.5148    1.3069 N   0  0  0  0  0  0  0  0  0  0  0  0
    1.6746    0.9178    1.4697 H   0  0  0  0  0  0  0  0  0  0  0  0
    0.8028    2.8141    1.9643 C   0  0  0  0  0  0  0  0  0  0  0  0
   -0.1497    2.9314    2.4920 H   0  0  0  0  0  0  0  0  0  0  0  0
    1.6135    2.9087    2.6933 H   0  0  0  0  0  0  0  0  0  0  0  0
    0.9007    3.6203    1.2298 H   0  0  0  0  0  0  0  0  0  0  0  0
  1  2  1  0  0  0  0
  2  3  1  0  0  0  0
  2  4  1  0  0  0  0
  2  5  1  0  0  0  0
  5  6  2  0  0  0  0
  5  7  1  0  0  0  0
  7  8  1  0  0  0  0
  7  9  1  0  0  0  0
  9 10  1  0  0  0  0
  9 11  1  0  0  0  0
  9 18  1  0  0  0  0
 11 12  1  0  0  0  0
 11 13  1  0  0  0  0
 11 14  1  0  0  0  0
 14 15  2  0  0  0  0
 14 16  1  0  0  0  0
 16 17  1  0  0  0  0
 18 19  2  0  0  0  0
 18 20  1  0  0  0  0
 20 21  1  0  0  0  0
 20 22  1  0  0  0  0
 22 23  1  0  0  0  0
 22 24  1  0  0  0  0
 22 25  1  0  0  0  0
M  END
$$$$

  -OEChem-03222214023D

 25 24  0     1  0  0  0  0  0999 V2000
   -2.7325   -3.9818    0.4519 H   0  0  0  0  0  0  0  0  0  0  0  0
   -2.7750   -2.9365    0.1332 C   0  0  0  0  0  0  0  0  0  0  0  0
   -3.3747   -2.3736    0.8525 H   0  0  0  0  0  0  0  0  0  0  0  0
   -3.2524   -2.8865   -0.8482 H   0  0  0  0  0  0  0  0  0  0  0  0
   -1.3755   -2.3557    0.0580 C   0  0  0  0  0  0  0  0  0  0  0  0
   -0.4105   -3.0612    0.3007 O   0  0  0  0  0  0  0  0  0  0  0  0
   -1.2018   -1.0316   -0.2902 N   0  0  0  0  0  0  0  0  0  0  0  0
   -2.0428   -0.4647   -0.3907 H   0  0  0  0  0  0  0  0  0  0  0  0
    0.0808   -0.3109   -0.2514 C   0  0  1  0  0  0  0  0  0  0  0  0
    0.7607   -0.8680    0.4011 H   0  0  0  0  0  0  0  0  0  0  0  0
    0.6593   -0.2093   -1.6861 C   0  0  0  0  0  0  0  0  0  0  0  0
   -0.0277   -0.6867   -2.3898 H   0  0  0  0  0  0  0  0  0  0  0  0
    0.7395    0.8395   -1.9844 H   0  0  0  0  0  0  0  0  0  0  0  0
    2.0294   -0.8549   -1.8848 C   0  0  0  0  0  0  0  0  0  0  0  0
    2.7173   -1.1560   -0.9246 O   0  0  0  0  0  0  0  0  0  0  0  0
    2.4251   -1.0466   -3.1611 O   0  0  0  0  0  0  0  0  0  0  0  0
    3.2930   -1.4740   -3.0944 H   0  0  0  0  0  0  0  0  0  0  0  0
   -0.0615    1.0805    0.3876 C   0  0  0  0  0  0  0  0  0  0  0  0
   -1.0232    1.7828    0.0997 O   0  0  0  0  0  0  0  0  0  0  0  0
    0.8611    1.5207    1.3172 N   0  0  0  0  0  0  0  0  0  0  0  0
    1.6497    0.9108    1.5223 H   0  0  0  0  0  0  0  0  0  0  0  0
    0.7852    2.8225    1.9684 C   0  0  0  0  0  0  0  0  0  0  0  0
   -0.1678    2.9326    2.4966 H   0  0  0  0  0  0  0  0  0  0  0  0
    1.5960    2.9294    2.6954 H   0  0  0  0  0  0  0  0  0  0  0  0
    0.8740    3.6260    1.2298 H   0  0  0  0  0  0  0  0  0  0  0  0
  1  2  1  0  0  0  0
  2  3  1  0  0  0  0
  2  4  1  0  0  0  0
  2  5  1  0  0  0  0
  5  6  2  0  0  0  0
  5  7  1  0  0  0  0
  7  8  1  0  0  0  0
  7  9  1  0  0  0  0
  9 10  1  0  0  0  0
  9 11  1  0  0  0  0
  9 18  1  0  0  0  0
 11 12  1  0  0  0  0
 11 13  1  0  0  0  0
 11 14  1  0  0  0  0
 14 15  2  0  0  0  0
 14 16  1  0  0  0  0
 16 17  1  0  0  0  0
 18 19  2  0  0  0  0
 18 20  1  0  0  0  0
 20 21  1  0  0  0  0
 20 22  1  0  0  0  0
 22 23  1  0  0  0  0
 22 24  1  0  0  0  0
 22 25  1  0  0  0  0
M  END
$$$$

  -OEChem-03222214023D

 25 24  0     1  0  0  0  0  0999 V2000
   -2.7401   -3.9781    0.4327 H   0  0  0  0  0  0  0  0  0  0  0  0
   -2.7745   -2.9291    0.1250 C   0  0  0  0  0  0  0  0  0  0  0  0
   -3.3826   -2.3720    0.8418 H   0  0  0  0  0  0  0  0  0  0  0  0
   -3.2382   -2.8669   -0.8624 H   0  0  0  0  0  0  0  0  0  0  0  0
   -1.3719   -2.3525    0.0757 C   0  0  0  0  0  0  0  0  0  0  0  0
   -0.4158   -3.0569    0.3527 O   0  0  0  0  0  0  0  0  0  0  0  0
   -1.1882   -1.0319   -0.2807 N   0  0  0  0  0  0  0  0  0  0  0  0
   -2.0261   -0.4650   -0.4041 H   0  0  0  0  0  0  0  0  0  0  0  0
    0.0964   -0.3141   -0.2427 C   0  0  1  0  0  0  0  0  0  0  0  0
    0.7788   -0.8655    0.4118 H   0  0  0  0  0  0  0  0  0  0  0  0
    0.6706   -0.2141   -1.6806 C   0  0  0  0  0  0  0  0  0  0  0  0
   -0.0209   -0.6864   -2.3826 H   0  0  0  0  0  0  0  0  0  0  0  0
    0.7505    0.8360   -1.9751 H   0  0  0  0  0  0  0  0  0  0  0  0
    2.0386   -0.8592   -1.8996 C   0  0  0  0  0  0  0  0  0  0  0  0
    2.6260   -1.4114   -0.9870 O   0  0  0  0  0  0  0  0  0  0  0  0
    2.5428   -0.7723   -3.1488 O   0  0  0  0  0  0  0  0  0  0  0  0
    3.3894   -1.2439   -3.1114 H   0  0  0  0  0  0  0  0  0  0  0  0
   -0.0535    1.0813    0.3871 C   0  0  0  0  0  0  0  0  0  0  0  0
   -1.0095    1.7840    0.0820 O   0  0  0  0  0  0  0  0  0  0  0  0
    0.8623    1.5300    1.3197 N   0  0  0  0  0  0  0  0  0  0  0  0
    1.6308    0.9086    1.5619 H   0  0  0  0  0  0  0  0  0  0  0  0
    0.7689    2.8281    1.9762 C   0  0  0  0  0  0  0  0  0  0  0  0
   -0.1722    2.9111    2.5299 H   0  0  0  0  0  0  0  0  0  0  0  0
    1.5965    2.9555    2.6807 H   0  0  0  0  0  0  0  0  0  0  0  0
    0.8160    3.6353    1.2378 H   0  0  0  0  0  0  0  0  0  0  0  0
  1  2  1  0  0  0  0
  2  3  1  0  0  0  0
  2  4  1  0  0  0  0
  2  5  1  0  0  0  0
  5  6  2  0  0  0  0
  5  7  1  0  0  0  0
  7  8  1  0  0  0  0
  7  9  1  0  0  0  0
  9 10  1  0  0  0  0
  9 11  1  0  0  0  0
  9 18  1  0  0  0  0
 11 12  1  0  0  0  0
 11 13  1  0  0  0  0
 11 14  1  0  0  0  0
 14 15  2  0  0  0  0
 14 16  1  0  0  0  0
 16 17  1  0  0  0  0
 18 19  2  0  0  0  0
 18 20  1  0  0  0  0
 20 21  1  0  0  0  0
 20 22  1  0  0  0  0
 22 23  1  0  0  0  0
 22 24  1  0  0  0  0
 22 25  1  0  0  0  0
M  END
$$$$

  -OEChem-03222214023D

 25 24  0     1  0  0  0  0  0999 V2000
   -2.7444   -3.9773    0.4164 H   0  0  0  0  0  0  0  0  0  0  0  0
   -2.7715   -2.9277    0.1103 C   0  0  0  0  0  0  0  0  0  0  0  0
   -3.3972   -2.3715    0.8125 H   0  0  0  0  0  0  0  0  0  0  0  0
   -3.2100   -2.8634   -0.8884 H   0  0  0  0  0  0  0  0  0  0  0  0
   -1.3683   -2.3510    0.0974 C   0  0  0  0  0  0  0  0  0  0  0  0
   -0.4225   -3.0482    0.4224 O   0  0  0  0  0  0  0  0  0  0  0  0
   -1.1768   -1.0333   -0.2650 N   0  0  0  0  0  0  0  0  0  0  0  0
   -2.0111   -0.4692   -0.4201 H   0  0  0  0  0  0  0  0  0  0  0  0
    0.1099   -0.3195   -0.2331 C   0  0  1  0  0  0  0  0  0  0  0  0
    0.8029   -0.8683    0.4130 H   0  0  0  0  0  0  0  0  0  0  0  0
    0.6705   -0.2114   -1.6760 C   0  0  0  0  0  0  0  0  0  0  0  0
   -0.0283   -0.6737   -2.3774 H   0  0  0  0  0  0  0  0  0  0  0  0
    0.7528    0.8412   -1.9616 H   0  0  0  0  0  0  0  0  0  0  0  0
    2.0337   -0.8602   -1.9093 C   0  0  0  0  0  0  0  0  0  0  0  0
    2.5029   -1.6423   -1.1036 O   0  0  0  0  0  0  0  0  0  0  0  0
    2.6685   -0.5146   -3.0493 O   0  0  0  0  0  0  0  0  0  0  0  0
    3.4923   -1.0264   -3.0430 H   0  0  0  0  0  0  0  0  0  0  0  0
   -0.0456    1.0777    0.3923 C   0  0  0  0  0  0  0  0  0  0  0  0
   -0.9973    1.7809    0.0748 O   0  0  0  0  0  0  0  0  0  0  0  0
    0.8668    1.5340    1.3244 N   0  0  0  0  0  0  0  0  0  0  0  0
    1.6224    0.9073    1.5906 H   0  0  0  0  0  0  0  0  0  0  0  0
    0.7623    2.8326    1.9783 C   0  0  0  0  0  0  0  0  0  0  0  0
   -0.1725    2.9030    2.5443 H   0  0  0  0  0  0  0  0  0  0  0  0
    1.5973    2.9753    2.6709 H   0  0  0  0  0  0  0  0  0  0  0  0
    0.7873    3.6382    1.2369 H   0  0  0  0  0  0  0  0  0  0  0  0
  1  2  1  0  0  0  0
  2  3  1  0  0  0  0
  2  4  1  0  0  0  0
  2  5  1  0  0  0  0
  5  6  2  0  0  0  0
  5  7  1  0  0  0  0
  7  8  1  0  0  0  0
  7  9  1  0  0  0  0
  9 10  1  0  0  0  0
  9 11  1  0  0  0  0
  9 18  1  0  0  0  0
 11 12  1  0  0  0  0
 11 13  1  0  0  0  0
 11 14  1  0  0  0  0
 14 15  2  0  0  0  0
 14 16  1  0  0  0  0
 16 17  1  0  0  0  0
 18 19  2  0  0  0  0
 18 20  1  0  0  0  0
 20 21  1  0  0  0  0
 20 22  1  0  0  0  0
 22 23  1  0  0  0  0
 22 24  1  0  0  0  0
 22 25  1  0  0  0  0
M  END
$$$$

  -OEChem-03222214023D

 25 24  0     1  0  0  0  0  0999 V2000
   -2.7340   -3.9866    0.3980 H   0  0  0  0  0  0  0  0  0  0  0  0
   -2.7621   -2.9368    0.0928 C   0  0  0  0  0  0  0  0  0  0  0  0
   -3.4103   -2.3878    0.7800 H   0  0  0  0  0  0  0  0  0  0  0  0
   -3.1756   -2.8752   -0.9167 H   0  0  0  0  0  0  0  0  0  0  0  0
   -1.3640   -2.3479    0.1163 C   0  0  0  0  0  0  0  0  0  0  0  0
   -0.4250   -3.0321    0.4848 O   0  0  0  0  0  0  0  0  0  0  0  0
   -1.1726   -1.0309   -0.2497 N   0  0  0  0  0  0  0  0  0  0  0  0
   -2.0053   -0.4736   -0.4342 H   0  0  0  0  0  0  0  0  0  0  0  0
    0.1153   -0.3187   -0.2286 C   0  0  1  0  0  0  0  0  0  0  0  0
    0.8216   -0.8685    0.4027 H   0  0  0  0  0  0  0  0  0  0  0  0
    0.6580   -0.2015   -1.6770 C   0  0  0  0  0  0  0  0  0  0  0  0
   -0.0459   -0.6589   -2.3763 H   0  0  0  0  0  0  0  0  0  0  0  0
    0.7421    0.8526   -1.9574 H   0  0  0  0  0  0  0  0  0  0  0  0
    2.0166   -0.8565   -1.9104 C   0  0  0  0  0  0  0  0  0  0  0  0
    2.3551   -1.8271   -1.2605 O   0  0  0  0  0  0  0  0  0  0  0  0
    2.7964   -0.3040   -2.8639 O   0  0  0  0  0  0  0  0  0  0  0  0
    3.5950   -0.8543   -2.8851 H   0  0  0  0  0  0  0  0  0  0  0  0
   -0.0400    1.0789    0.3973 C   0  0  0  0  0  0  0  0  0  0  0  0
   -0.9903    1.7831    0.0778 O   0  0  0  0  0  0  0  0  0  0  0  0
    0.8759    1.5398    1.3242 N   0  0  0  0  0  0  0  0  0  0  0  0
    1.6240    0.9093    1.6019 H   0  0  0  0  0  0  0  0  0  0  0  0
    0.7670    2.8377    1.9795 C   0  0  0  0  0  0  0  0  0  0  0  0
   -0.1695    2.9060    2.5432 H   0  0  0  0  0  0  0  0  0  0  0  0
    1.5998    2.9811    2.6747 H   0  0  0  0  0  0  0  0  0  0  0  0
    0.7923    3.6442    1.2391 H   0  0  0  0  0  0  0  0  0  0  0  0
  1  2  1  0  0  0  0
  2  3  1  0  0  0  0
  2  4  1  0  0  0  0
  2  5  1  0  0  0  0
  5  6  2  0  0  0  0
  5  7  1  0  0  0  0
  7  8  1  0  0  0  0
  7  9  1  0  0  0  0
  9 10  1  0  0  0  0
  9 11  1  0  0  0  0
  9 18  1  0  0  0  0
 11 12  1  0  0  0  0
 11 13  1  0  0  0  0
 11 14  1  0  0  0  0
 14 15  2  0  0  0  0
 14 16  1  0  0  0  0
 16 17  1  0  0  0  0
 18 19  2  0  0  0  0
 18 20  1  0  0  0  0
 20 21  1  0  0  0  0
 20 22  1  0  0  0  0
 22 23  1  0  0  0  0
 22 24  1  0  0  0  0
 22 25  1  0  0  0  0
M  END
$$$$

  -OEChem-03222214023D

 25 24  0     1  0  0  0  0  0999 V2000
   -2.7191   -3.9985    0.3769 H   0  0  0  0  0  0  0  0  0  0  0  0
   -2.7510   -2.9476    0.0757 C   0  0  0  0  0  0  0  0  0  0  0  0
   -3.4172   -2.4068    0.7522 H   0  0  0  0  0  0  0  0  0  0  0  0
   -3.1452   -2.8852   -0.9414 H   0  0  0  0  0  0  0  0  0  0  0  0
   -1.3589   -2.3466    0.1288 C   0  0  0  0  0  0  0  0  0  0  0  0
   -0.4243   -3.0170    0.5332 O   0  0  0  0  0  0  0  0  0  0  0  0
   -1.1710   -1.0293   -0.2371 N   0  0  0  0  0  0  0  0  0  0  0  0
   -2.0026   -0.4800   -0.4478 H   0  0  0  0  0  0  0  0  0  0  0  0
    0.1168   -0.3175   -0.2262 C   0  0  1  0  0  0  0  0  0  0  0  0
    0.8367   -0.8699    0.3883 H   0  0  0  0  0  0  0  0  0  0  0  0
    0.6414   -0.1889   -1.6783 C   0  0  0  0  0  0  0  0  0  0  0  0
   -0.0661   -0.6437   -2.3756 H   0  0  0  0  0  0  0  0  0  0  0  0
    0.7251    0.8660   -1.9559 H   0  0  0  0  0  0  0  0  0  0  0  0
    1.9958   -0.8502   -1.9047 C   0  0  0  0  0  0  0  0  0  0  0  0
    2.2093   -1.9611   -1.4596 O   0  0  0  0  0  0  0  0  0  0  0  0
    2.9142   -0.1471   -2.6009 O   0  0  0  0  0  0  0  0  0  0  0  0
    3.6888   -0.7287   -2.6533 H   0  0  0  0  0  0  0  0  0  0  0  0
   -0.0383    1.0785    0.4045 C   0  0  0  0  0  0  0  0  0  0  0  0
   -0.9910    1.7821    0.0902 O   0  0  0  0  0  0  0  0  0  0  0  0
    0.8820    1.5417    1.3259 N   0  0  0  0  0  0  0  0  0  0  0  0
    1.6334    0.9142    1.6004 H   0  0  0  0  0  0  0  0  0  0  0  0
    0.7758    2.8424    1.9759 C   0  0  0  0  0  0  0  0  0  0  0  0
   -0.1605    2.9142    2.5394 H   0  0  0  0  0  0  0  0  0  0  0  0
    1.6091    2.9878    2.6701 H   0  0  0  0  0  0  0  0  0  0  0  0
    0.8024    3.6455    1.2317 H   0  0  0  0  0  0  0  0  0  0  0  0
  1  2  1  0  0  0  0
  2  3  1  0  0  0  0
  2  4  1  0  0  0  0
  2  5  1  0  0  0  0
  5  6  2  0  0  0  0
  5  7  1  0  0  0  0
  7  8  1  0  0  0  0
  7  9  1  0  0  0  0
  9 10  1  0  0  0  0
  9 11  1  0  0  0  0
  9 18  1  0  0  0  0
 11 12  1  0  0  0  0
 11 13  1  0  0  0  0
 11 14  1  0  0  0  0
 14 15  2  0  0  0  0
 14 16  1  0  0  0  0
 16 17  1  0  0  0  0
 18 19  2  0  0  0  0
 18 20  1  0  0  0  0
 20 21  1  0  0  0  0
 20 22  1  0  0  0  0
 22 23  1  0  0  0  0
 22 24  1  0  0  0  0
 22 25  1  0  0  0  0
M  END
$$$$

  -OEChem-03222214023D

 25 24  0     1  0  0  0  0  0999 V2000
   -2.7022   -4.0066    0.3799 H   0  0  0  0  0  0  0  0  0  0  0  0
   -2.7418   -2.9565    0.0766 C   0  0  0  0  0  0  0  0  0  0  0  0
   -3.4087   -2.4181    0.7543 H   0  0  0  0  0  0  0  0  0  0  0  0
   -3.1400   -2.8990   -0.9392 H   0  0  0  0  0  0  0  0  0  0  0  0
   -1.3535   -2.3466    0.1238 C   0  0  0  0  0  0  0  0  0  0  0  0
   -0.4132   -3.0091    0.5288 O   0  0  0  0  0  0  0  0  0  0  0  0
   -1.1749   -1.0272   -0.2402 N   0  0  0  0  0  0  0  0  0  0  0  0
   -2.0092   -0.4820   -0.4516 H   0  0  0  0  0  0  0  0  0  0  0  0
    0.1116   -0.3137   -0.2352 C   0  0  1  0  0  0  0  0  0  0  0  0
    0.8385   -0.8688    0.3693 H   0  0  0  0  0  0  0  0  0  0  0  0
    0.6286   -0.1755   -1.6869 C   0  0  0  0  0  0  0  0  0  0  0  0
   -0.0778   -0.6300   -2.3862 H   0  0  0  0  0  0  0  0  0  0  0  0
    0.7155    0.8796   -1.9631 H   0  0  0  0  0  0  0  0  0  0  0  0
    1.9815   -0.8414   -1.8944 C   0  0  0  0  0  0  0  0  0  0  0  0
    2.0951   -2.0345   -1.6919 O   0  0  0  0  0  0  0  0  0  0  0  0
    3.0120   -0.0549   -2.2714 O   0  0  0  0  0  0  0  0  0  0  0  0
    3.7693   -0.6559   -2.3520 H   0  0  0  0  0  0  0  0  0  0  0  0
   -0.0411    1.0803    0.4011 C   0  0  0  0  0  0  0  0  0  0  0  0
   -0.9979    1.7828    0.0969 O   0  0  0  0  0  0  0  0  0  0  0  0
    0.8845    1.5418    1.3180 N   0  0  0  0  0  0  0  0  0  0  0  0
    1.6452    0.9191    1.5768 H   0  0  0  0  0  0  0  0  0  0  0  0
    0.7829    2.8409    1.9719 C   0  0  0  0  0  0  0  0  0  0  0  0
   -0.1608    2.9212    2.5217 H   0  0  0  0  0  0  0  0  0  0  0  0
    1.6067    2.9736    2.6798 H   0  0  0  0  0  0  0  0  0  0  0  0
    0.8296    3.6466    1.2317 H   0  0  0  0  0  0  0  0  0  0  0  0
  1  2  1  0  0  0  0
  2  3  1  0  0  0  0
  2  4  1  0  0  0  0
  2  5  1  0  0  0  0
  5  6  2  0  0  0  0
  5  7  1  0  0  0  0
  7  8  1  0  0  0  0
  7  9  1  0  0  0  0
  9 10  1  0  0  0  0
  9 11  1  0  0  0  0
  9 18  1  0  0  0  0
 11 12  1  0  0  0  0
 11 13  1  0  0  0  0
 11 14  1  0  0  0  0
 14 15  2  0  0  0  0
 14 16  1  0  0  0  0
 16 17  1  0  0  0  0
 18 19  2  0  0  0  0
 18 20  1  0  0  0  0
 20 21  1  0  0  0  0
 20 22  1  0  0  0  0
 22 23  1  0  0  0  0
 22 24  1  0  0  0  0
 22 25  1  0  0  0  0
M  END
$$$$

  -OEChem-03222214023D

 25 24  0     1  0  0  0  0  0999 V2000
   -2.6890   -4.0163    0.3704 H   0  0  0  0  0  0  0  0  0  0  0  0
   -2.7358   -2.9656    0.0704 C   0  0  0  0  0  0  0  0  0  0  0  0
   -3.4059   -2.4342    0.7502 H   0  0  0  0  0  0  0  0  0  0  0  0
   -3.1356   -2.9077   -0.9448 H   0  0  0  0  0  0  0  0  0  0  0  0
   -1.3511   -2.3472    0.1178 C   0  0  0  0  0  0  0  0  0  0  0  0
   -0.4048   -3.0062    0.5155 O   0  0  0  0  0  0  0  0  0  0  0  0
   -1.1783   -1.0257   -0.2416 N   0  0  0  0  0  0  0  0  0  0  0  0
   -2.0143   -0.4823   -0.4509 H   0  0  0  0  0  0  0  0  0  0  0  0
    0.1070   -0.3106   -0.2370 C   0  0  1  0  0  0  0  0  0  0  0  0
    0.8367   -0.8667    0.3630 H   0  0  0  0  0  0  0  0  0  0  0  0
    0.6217   -0.1665   -1.6870 C   0  0  0  0  0  0  0  0  0  0  0  0
   -0.0832   -0.6204   -2.3882 H   0  0  0  0  0  0  0  0  0  0  0  0
    0.7128    0.8882   -1.9631 H   0  0  0  0  0  0  0  0  0  0  0  0
    1.9734   -0.8355   -1.8783 C   0  0  0  0  0  0  0  0  0  0  0  0
    2.0278   -2.0481   -1.9433 O   0  0  0  0  0  0  0  0  0  0  0  0
    3.0646   -0.0418   -1.9226 O   0  0  0  0  0  0  0  0  0  0  0  0
    3.8108   -0.6498   -2.0456 H   0  0  0  0  0  0  0  0  0  0  0  0
   -0.0456    1.0807    0.4056 C   0  0  0  0  0  0  0  0  0  0  0  0
   -1.0044    1.7829    0.1071 O   0  0  0  0  0  0  0  0  0  0  0  0
    0.8814    1.5404    1.3219 N   0  0  0  0  0  0  0  0  0  0  0  0
    1.6564    0.9274    1.5603 H   0  0  0  0  0  0  0  0  0  0  0  0
    0.7904    2.8454    1.9655 C   0  0  0  0  0  0  0  0  0  0  0  0
   -0.1485    2.9346    2.5220 H   0  0  0  0  0  0  0  0  0  0  0  0
    1.6206    2.9807    2.6655 H   0  0  0  0  0  0  0  0  0  0  0  0
    0.8342    3.6444    1.2180 H   0  0  0  0  0  0  0  0  0  0  0  0
  1  2  1  0  0  0  0
  2  3  1  0  0  0  0
  2  4  1  0  0  0  0
  2  5  1  0  0  0  0
  5  6  2  0  0  0  0
  5  7  1  0  0  0  0
  7  8  1  0  0  0  0
  7  9  1  0  0  0  0
  9 10  1  0  0  0  0
  9 11  1  0  0  0  0
  9 18  1  0  0  0  0
 11 12  1  0  0  0  0
 11 13  1  0  0  0  0
 11 14  1  0  0  0  0
 14 15  2  0  0  0  0
 14 16  1  0  0  0  0
 16 17  1  0  0  0  0
 18 19  2  0  0  0  0
 18 20  1  0  0  0  0
 20 21  1  0  0  0  0
 20 22  1  0  0  0  0
 22 23  1  0  0  0  0
 22 24  1  0  0  0  0
 22 25  1  0  0  0  0
M  END
$$$$

  -OEChem-03222214023D

 25 24  0     1  0  0  0  0  0999 V2000
   -2.6794   -4.0180    0.3795 H   0  0  0  0  0  0  0  0  0  0  0  0
   -2.7325   -2.9683    0.0772 C   0  0  0  0  0  0  0  0  0  0  0  0
   -3.3910   -2.4353    0.7670 H   0  0  0  0  0  0  0  0  0  0  0  0
   -3.1496   -2.9134   -0.9312 H   0  0  0  0  0  0  0  0  0  0  0  0
   -1.3480   -2.3488    0.0989 C   0  0  0  0  0  0  0  0  0  0  0  0
   -0.3901   -3.0111    0.4628 O   0  0  0  0  0  0  0  0  0  0  0  0
   -1.1837   -1.0246   -0.2544 N   0  0  0  0  0  0  0  0  0  0  0  0
   -2.0241   -0.4780   -0.4367 H   0  0  0  0  0  0  0  0  0  0  0  0
    0.0994   -0.3065   -0.2466 C   0  0  1  0  0  0  0  0  0  0  0  0
    0.8275   -0.8626    0.3552 H   0  0  0  0  0  0  0  0  0  0  0  0
    0.6208   -0.1599   -1.6922 C   0  0  0  0  0  0  0  0  0  0  0  0
   -0.0793   -0.6132   -2.3993 H   0  0  0  0  0  0  0  0  0  0  0  0
    0.7179    0.8943   -1.9669 H   0  0  0  0  0  0  0  0  0  0  0  0
    1.9741   -0.8304   -1.8588 C   0  0  0  0  0  0  0  0  0  0  0  0
    2.0162   -1.9991   -2.1916 O   0  0  0  0  0  0  0  0  0  0  0  0
    3.0730   -0.1020   -1.5667 O   0  0  0  0  0  0  0  0  0  0  0  0
    3.8175   -0.7055   -1.7198 H   0  0  0  0  0  0  0  0  0  0  0  0
   -0.0521    1.0819    0.4023 C   0  0  0  0  0  0  0  0  0  0  0  0
   -1.0192    1.7791    0.1194 O   0  0  0  0  0  0  0  0  0  0  0  0
    0.8768    1.5372    1.3188 N   0  0  0  0  0  0  0  0  0  0  0  0
    1.6747    0.9402    1.5199 H   0  0  0  0  0  0  0  0  0  0  0  0
    0.7937    2.8436    1.9604 C   0  0  0  0  0  0  0  0  0  0  0  0
   -0.1478    2.9415    2.5111 H   0  0  0  0  0  0  0  0  0  0  0  0
    1.6205    2.9718    2.6655 H   0  0  0  0  0  0  0  0  0  0  0  0
    0.8491    3.6415    1.2126 H   0  0  0  0  0  0  0  0  0  0  0  0
  1  2  1  0  0  0  0
  2  3  1  0  0  0  0
  2  4  1  0  0  0  0
  2  5  1  0  0  0  0
  5  6  2  0  0  0  0
  5  7  1  0  0  0  0
  7  8  1  0  0  0  0
  7  9  1  0  0  0  0
  9 10  1  0  0  0  0
  9 11  1  0  0  0  0
  9 18  1  0  0  0  0
 11 12  1  0  0  0  0
 11 13  1  0  0  0  0
 11 14  1  0  0  0  0
 14 15  2  0  0  0  0
 14 16  1  0  0  0  0
 16 17  1  0  0  0  0
 18 19  2  0  0  0  0
 18 20  1  0  0  0  0
 20 21  1  0  0  0  0
 20 22  1  0  0  0  0
 22 23  1  0  0  0  0
 22 24  1  0  0  0  0
 22 25  1  0  0  0  0
M  END
$$$$

  -OEChem-03222214023D

 25 24  0     1  0  0  0  0  0999 V2000
   -2.6783   -4.0149    0.3950 H   0  0  0  0  0  0  0  0  0  0  0  0
   -2.7351   -2.9666    0.0886 C   0  0  0  0  0  0  0  0  0  0  0  0
   -3.3785   -2.4292    0.7894 H   0  0  0  0  0  0  0  0  0  0  0  0
   -3.1730   -2.9161   -0.9112 H   0  0  0  0  0  0  0  0  0  0  0  0
   -1.3490   -2.3499    0.0789 C   0  0  0  0  0  0  0  0  0  0  0  0
   -0.3818   -3.0191    0.4046 O   0  0  0  0  0  0  0  0  0  0  0  0
   -1.1891   -1.0239   -0.2691 N   0  0  0  0  0  0  0  0  0  0  0  0
   -2.0322   -0.4726   -0.4231 H   0  0  0  0  0  0  0  0  0  0  0  0
    0.0923   -0.3033   -0.2542 C   0  0  1  0  0  0  0  0  0  0  0  0
    0.8143   -0.8591    0.3552 H   0  0  0  0  0  0  0  0  0  0  0  0
    0.6279   -0.1598   -1.6940 C   0  0  0  0  0  0  0  0  0  0  0  0
   -0.0655   -0.6144   -2.4071 H   0  0  0  0  0  0  0  0  0  0  0  0
    0.7307    0.8937   -1.9693 H   0  0  0  0  0  0  0  0  0  0  0  0
    1.9841   -0.8303   -1.8355 C   0  0  0  0  0  0  0  0  0  0  0  0
    2.0581   -1.8961   -2.4166 O   0  0  0  0  0  0  0  0  0  0  0  0
    3.0439   -0.2226   -1.2580 O   0  0  0  0  0  0  0  0  0  0  0  0
    3.7946   -0.8091   -1.4442 H   0  0  0  0  0  0  0  0  0  0  0  0
   -0.0578    1.0834    0.3979 C   0  0  0  0  0  0  0  0  0  0  0  0
   -1.0303    1.7772    0.1258 O   0  0  0  0  0  0  0  0  0  0  0  0
    0.8711    1.5331    1.3167 N   0  0  0  0  0  0  0  0  0  0  0  0
    1.6859    0.9491    1.4874 H   0  0  0  0  0  0  0  0  0  0  0  0
    0.7929    2.8394    1.9590 C   0  0  0  0  0  0  0  0  0  0  0  0
   -0.1538    2.9458    2.4993 H   0  0  0  0  0  0  0  0  0  0  0  0
    1.6123    2.9586    2.6743 H   0  0  0  0  0  0  0  0  0  0  0  0
    0.8648    3.6375    1.2126 H   0  0  0  0  0  0  0  0  0  0  0  0
  1  2  1  0  0  0  0
  2  3  1  0  0  0  0
  2  4  1  0  0  0  0
  2  5  1  0  0  0  0
  5  6  2  0  0  0  0
  5  7  1  0  0  0  0
  7  8  1  0  0  0  0
  7  9  1  0  0  0  0
  9 10  1  0  0  0  0
  9 11  1  0  0  0  0
  9 18  1  0  0  0  0
 11 12  1  0  0  0  0
 11 13  1  0  0  0  0
 11 14  1  0  0  0  0
 14 15  2  0  0  0  0
 14 16  1  0  0  0  0
 16 17  1  0  0  0  0
 18 19  2  0  0  0  0
 18 20  1  0  0  0  0
 20 21  1  0  0  0  0
 20 22  1  0  0  0  0
 22 23  1  0  0  0  0
 22 24  1  0  0  0  0
 22 25  1  0  0  0  0
M  END
$$$$

  -OEChem-03222214023D

 25 24  0     1  0  0  0  0  0999 V2000
   -2.6894   -4.0068    0.4098 H   0  0  0  0  0  0  0  0  0  0  0  0
   -2.7446   -2.9596    0.0995 C   0  0  0  0  0  0  0  0  0  0  0  0
   -3.3747   -2.4151    0.8069 H   0  0  0  0  0  0  0  0  0  0  0  0
   -3.1968   -2.9105   -0.8940 H   0  0  0  0  0  0  0  0  0  0  0  0
   -1.3554   -2.3506    0.0675 C   0  0  0  0  0  0  0  0  0  0  0  0
   -0.3849   -3.0270    0.3682 O   0  0  0  0  0  0  0  0  0  0  0  0
   -1.1945   -1.0246   -0.2795 N   0  0  0  0  0  0  0  0  0  0  0  0
   -2.0379   -0.4694   -0.4171 H   0  0  0  0  0  0  0  0  0  0  0  0
    0.0864   -0.3031   -0.2553 C   0  0  1  0  0  0  0  0  0  0  0  0
    0.7977   -0.8590    0.3664 H   0  0  0  0  0  0  0  0  0  0  0  0
    0.6400   -0.1712   -1.6896 C   0  0  0  0  0  0  0  0  0  0  0  0
   -0.0464   -0.6312   -2.4062 H   0  0  0  0  0  0  0  0  0  0  0  0
    0.7453    0.8804   -1.9696 H   0  0  0  0  0  0  0  0  0  0  0  0
    1.9995   -0.8402   -1.8136 C   0  0  0  0  0  0  0  0  0  0  0  0
    2.1367   -1.7520   -2.6074 O   0  0  0  0  0  0  0  0  0  0  0  0
    2.9991   -0.3816   -1.0264 O   0  0  0  0  0  0  0  0  0  0  0  0
    3.7628   -0.9360   -1.2539 H   0  0  0  0  0  0  0  0  0  0  0  0
   -0.0625    1.0842    0.3940 C   0  0  0  0  0  0  0  0  0  0  0  0
   -1.0352    1.7780    0.1229 O   0  0  0  0  0  0  0  0  0  0  0  0
    0.8646    1.5291    1.3168 N   0  0  0  0  0  0  0  0  0  0  0  0
    1.6826    0.9467    1.4788 H   0  0  0  0  0  0  0  0  0  0  0  0
    0.7889    2.8340    1.9619 C   0  0  0  0  0  0  0  0  0  0  0  0
   -0.1636    2.9462    2.4906 H   0  0  0  0  0  0  0  0  0  0  0  0
    1.6001    2.9443    2.6880 H   0  0  0  0  0  0  0  0  0  0  0  0
    0.8764    3.6339    1.2192 H   0  0  0  0  0  0  0  0  0  0  0  0
  1  2  1  0  0  0  0
  2  3  1  0  0  0  0
  2  4  1  0  0  0  0
  2  5  1  0  0  0  0
  5  6  2  0  0  0  0
  5  7  1  0  0  0  0
  7  8  1  0  0  0  0
  7  9  1  0  0  0  0
  9 10  1  0  0  0  0
  9 11  1  0  0  0  0
  9 18  1  0  0  0  0
 11 12  1  0  0  0  0
 11 13  1  0  0  0  0
 11 14  1  0  0  0  0
 14 15  2  0  0  0  0
 14 16  1  0  0  0  0
 16 17  1  0  0  0  0
 18 19  2  0  0  0  0
 18 20  1  0  0  0  0
 20 21  1  0  0  0  0
 20 22  1  0  0  0  0
 22 23  1  0  0  0  0
 22 24  1  0  0  0  0
 22 25  1  0  0  0  0
M  END
$$$$

  -OEChem-03222214023D

 25 24  0     1  0  0  0  0  0999 V2000
   -2.7072   -3.9988    0.4181 H   0  0  0  0  0  0  0  0  0  0  0  0
   -2.7588   -2.9517    0.1064 C   0  0  0  0  0  0  0  0  0  0  0  0
   -3.3800   -2.4022    0.8176 H   0  0  0  0  0  0  0  0  0  0  0  0
   -3.2184   -2.9012   -0.8835 H   0  0  0  0  0  0  0  0  0  0  0  0
   -1.3665   -2.3507    0.0624 C   0  0  0  0  0  0  0  0  0  0  0  0
   -0.3959   -3.0348    0.3450 O   0  0  0  0  0  0  0  0  0  0  0  0
   -1.2013   -1.0253   -0.2853 N   0  0  0  0  0  0  0  0  0  0  0  0
   -2.0436   -0.4656   -0.4127 H   0  0  0  0  0  0  0  0  0  0  0  0
    0.0806   -0.3058   -0.2512 C   0  0  1  0  0  0  0  0  0  0  0  0
    0.7777   -0.8632    0.3844 H   0  0  0  0  0  0  0  0  0  0  0  0
    0.6525   -0.1895   -1.6809 C   0  0  0  0  0  0  0  0  0  0  0  0
   -0.0287   -0.6555   -2.3986 H   0  0  0  0  0  0  0  0  0  0  0  0
    0.7590    0.8602   -1.9675 H   0  0  0  0  0  0  0  0  0  0  0  0
    2.0148   -0.8577   -1.7992 C   0  0  0  0  0  0  0  0  0  0  0  0
    2.2291   -1.5698   -2.7622 O   0  0  0  0  0  0  0  0  0  0  0  0
    2.9485   -0.5768   -0.8606 O   0  0  0  0  0  0  0  0  0  0  0  0
    3.7274   -1.0902   -1.1297 H   0  0  0  0  0  0  0  0  0  0  0  0
   -0.0657    1.0836    0.3935 C   0  0  0  0  0  0  0  0  0  0  0  0
   -1.0343    1.7807    0.1165 O   0  0  0  0  0  0  0  0  0  0  0  0
    0.8578    1.5246    1.3216 N   0  0  0  0  0  0  0  0  0  0  0  0
    1.6702    0.9362    1.4907 H   0  0  0  0  0  0  0  0  0  0  0  0
    0.7849    2.8306    1.9645 C   0  0  0  0  0  0  0  0  0  0  0  0
   -0.1682    2.9462    2.4914 H   0  0  0  0  0  0  0  0  0  0  0  0
    1.5954    2.9398    2.6916 H   0  0  0  0  0  0  0  0  0  0  0  0
    0.8758    3.6288    1.2205 H   0  0  0  0  0  0  0  0  0  0  0  0
  1  2  1  0  0  0  0
  2  3  1  0  0  0  0
  2  4  1  0  0  0  0
  2  5  1  0  0  0  0
  5  6  2  0  0  0  0
  5  7  1  0  0  0  0
  7  8  1  0  0  0  0
  7  9  1  0  0  0  0
  9 10  1  0  0  0  0
  9 11  1  0  0  0  0
  9 18  1  0  0  0  0
 11 12  1  0  0  0  0
 11 13  1  0  0  0  0
 11 14  1  0  0  0  0
 14 15  2  0  0  0  0
 14 16  1  0  0  0  0
 16 17  1  0  0  0  0
 18 19  2  0  0  0  0
 18 20  1  0  0  0  0
 20 21  1  0  0  0  0
 20 22  1  0  0  0  0
 22 23  1  0  0  0  0
 22 24  1  0  0  0  0
 22 25  1  0  0  0  0
M  END
$$$$

  -OEChem-03222214023D

 25 24  0     1  0  0  0  0  0999 V2000
   -2.7304   -3.9856    0.4318 H   0  0  0  0  0  0  0  0  0  0  0  0
   -2.7744   -2.9402    0.1139 C   0  0  0  0  0  0  0  0  0  0  0  0
   -3.3907   -2.3821    0.8229 H   0  0  0  0  0  0  0  0  0  0  0  0
   -3.2345   -2.8923   -0.8761 H   0  0  0  0  0  0  0  0  0  0  0  0
   -1.3777   -2.3500    0.0643 C   0  0  0  0  0  0  0  0  0  0  0  0
   -0.4109   -3.0434    0.3373 O   0  0  0  0  0  0  0  0  0  0  0  0
   -1.2039   -1.0269   -0.2872 N   0  0  0  0  0  0  0  0  0  0  0  0
   -2.0434   -0.4616   -0.4093 H   0  0  0  0  0  0  0  0  0  0  0  0
    0.0805   -0.3117   -0.2437 C   0  0  1  0  0  0  0  0  0  0  0  0
    0.7624   -0.8700    0.4063 H   0  0  0  0  0  0  0  0  0  0  0  0
    0.6649   -0.2118   -1.6715 C   0  0  0  0  0  0  0  0  0  0  0  0
   -0.0165   -0.6811   -2.3868 H   0  0  0  0  0  0  0  0  0  0  0  0
    0.7708    0.8363   -1.9643 H   0  0  0  0  0  0  0  0  0  0  0  0
    2.0286   -0.8792   -1.8039 C   0  0  0  0  0  0  0  0  0  0  0  0
    2.3223   -1.3532   -2.8856 O   0  0  0  0  0  0  0  0  0  0  0  0
    2.8944   -0.8147   -0.7654 O   0  0  0  0  0  0  0  0  0  0  0  0
    3.6872   -1.2792   -1.0782 H   0  0  0  0  0  0  0  0  0  0  0  0
   -0.0642    1.0812    0.3928 C   0  0  0  0  0  0  0  0  0  0  0  0
   -1.0263    1.7819    0.1029 O   0  0  0  0  0  0  0  0  0  0  0  0
    0.8526    1.5228    1.3274 N   0  0  0  0  0  0  0  0  0  0  0  0
    1.6553    0.9268    1.5158 H   0  0  0  0  0  0  0  0  0  0  0  0
    0.7746    2.8289    1.9700 C   0  0  0  0  0  0  0  0  0  0  0  0
   -0.1877    2.9501    2.4785 H   0  0  0  0  0  0  0  0  0  0  0  0
    1.5712    2.9334    2.7127 H   0  0  0  0  0  0  0  0  0  0  0  0
    0.8842    3.6272    1.2287 H   0  0  0  0  0  0  0  0  0  0  0  0
  1  2  1  0  0  0  0
  2  3  1  0  0  0  0
  2  4  1  0  0  0  0
  2  5  1  0  0  0  0
  5  6  2  0  0  0  0
  5  7  1  0  0  0  0
  7  8  1  0  0  0  0
  7  9  1  0  0  0  0
  9 10  1  0  0  0  0
  9 11  1  0  0  0  0
  9 18  1  0  0  0  0
 11 12  1  0  0  0  0
 11 13  1  0  0  0  0
 11 14  1  0  0  0  0
 14 15  2  0  0  0  0
 14 16  1  0  0  0  0
 16 17  1  0  0  0  0
 18 19  2  0  0  0  0
 18 20  1  0  0  0  0
 20 21  1  0  0  0  0
 20 22  1  0  0  0  0
 22 23  1  0  0  0  0
 22 24  1  0  0  0  0
 22 25  1  0  0  0  0
M  END
$$$$

  -OEChem-03222214023D

 25 24  0     1  0  0  0  0  0999 V2000
   -2.7545   -3.9745    0.4370 H   0  0  0  0  0  0  0  0  0  0  0  0
   -2.7893   -2.9288    0.1187 C   0  0  0  0  0  0  0  0  0  0  0  0
   -3.4036   -2.3659    0.8258 H   0  0  0  0  0  0  0  0  0  0  0  0
   -3.2463   -2.8773   -0.8725 H   0  0  0  0  0  0  0  0  0  0  0  0
   -1.3879   -2.3493    0.0730 C   0  0  0  0  0  0  0  0  0  0  0  0
   -0.4281   -3.0499    0.3512 O   0  0  0  0  0  0  0  0  0  0  0  0
   -1.2031   -1.0293   -0.2844 N   0  0  0  0  0  0  0  0  0  0  0  0
   -2.0387   -0.4604   -0.4152 H   0  0  0  0  0  0  0  0  0  0  0  0
    0.0840   -0.3186   -0.2350 C   0  0  1  0  0  0  0  0  0  0  0  0
    0.7549   -0.8750    0.4266 H   0  0  0  0  0  0  0  0  0  0  0  0
    0.6758   -0.2298   -1.6629 C   0  0  0  0  0  0  0  0  0  0  0  0
   -0.0077   -0.7004   -2.3750 H   0  0  0  0  0  0  0  0  0  0  0  0
    0.7784    0.8178   -1.9592 H   0  0  0  0  0  0  0  0  0  0  0  0
    2.0404   -0.8948   -1.8208 C   0  0  0  0  0  0  0  0  0  0  0  0
    2.4200   -1.1051   -2.9579 O   0  0  0  0  0  0  0  0  0  0  0  0
    2.8232   -1.0959   -0.7354 O   0  0  0  0  0  0  0  0  0  0  0  0
    3.6305   -1.5055   -1.0847 H   0  0  0  0  0  0  0  0  0  0  0  0
   -0.0616    1.0786    0.3920 C   0  0  0  0  0  0  0  0  0  0  0  0
   -1.0171    1.7818    0.0872 O   0  0  0  0  0  0  0  0  0  0  0  0
    0.8486    1.5233    1.3317 N   0  0  0  0  0  0  0  0  0  0  0  0
    1.6333    0.9144    1.5520 H   0  0  0  0  0  0  0  0  0  0  0  0
    0.7649    2.8302    1.9723 C   0  0  0  0  0  0  0  0  0  0  0  0
   -0.1997    2.9496    2.4770 H   0  0  0  0  0  0  0  0  0  0  0  0
    1.5587    2.9375    2.7177 H   0  0  0  0  0  0  0  0  0  0  0  0
    0.8755    3.6279    1.2304 H   0  0  0  0  0  0  0  0  0  0  0  0
  1  2  1  0  0  0  0
  2  3  1  0  0  0  0
  2  4  1  0  0  0  0
  2  5  1  0  0  0  0
  5  6  2  0  0  0  0
  5  7  1  0  0  0  0
  7  8  1  0  0  0  0
  7  9  1  0  0  0  0
  9 10  1  0  0  0  0
  9 11  1  0  0  0  0
  9 18  1  0  0  0  0
 11 12  1  0  0  0  0
 11 13  1  0  0  0  0
 11 14  1  0  0  0  0
 14 15  2  0  0  0  0
 14 16  1  0  0  0  0
 16 17  1  0  0  0  0
 18 19  2  0  0  0  0
 18 20  1  0  0  0  0
 20 21  1  0  0  0  0
 20 22  1  0  0  0  0
 22 23  1  0  0  0  0
 22 24  1  0  0  0  0
 22 25  1  0  0  0  0
M  END
$$$$

  -OEChem-03222214023D

 25 24  0     1  0  0  0  0  0999 V2000
   -2.7827   -3.9541    0.4409 H   0  0  0  0  0  0  0  0  0  0  0  0
   -2.7959   -2.9068    0.1263 C   0  0  0  0  0  0  0  0  0  0  0  0
   -3.4234   -2.3392    0.8176 H   0  0  0  0  0  0  0  0  0  0  0  0
   -3.2238   -2.8463   -0.8773 H   0  0  0  0  0  0  0  0  0  0  0  0
   -1.3868   -2.3444    0.1234 C   0  0  0  0  0  0  0  0  0  0  0  0
   -0.4518   -3.0473    0.4691 O   0  0  0  0  0  0  0  0  0  0  0  0
   -1.1736   -1.0346   -0.2556 N   0  0  0  0  0  0  0  0  0  0  0  0
   -1.9972   -0.4603   -0.4317 H   0  0  0  0  0  0  0  0  0  0  0  0
    0.1238   -0.3418   -0.2117 C   0  0  1  0  0  0  0  0  0  0  0  0
    0.8139   -0.8792    0.4465 H   0  0  0  0  0  0  0  0  0  0  0  0
    0.6881   -0.2401   -1.6510 C   0  0  0  0  0  0  0  0  0  0  0  0
   -0.1130   -0.4074   -2.3758 H   0  0  0  0  0  0  0  0  0  0  0  0
    1.0680    0.7714   -1.8207 H   0  0  0  0  0  0  0  0  0  0  0  0
    1.8334   -1.1979   -1.9711 C   0  0  0  0  0  0  0  0  0  0  0  0
    2.2902   -1.1353   -3.0978 O   0  0  0  0  0  0  0  0  0  0  0  0
    2.3531   -1.9938   -1.0115 O   0  0  0  0  0  0  0  0  0  0  0  0
    3.0412   -2.5147   -1.4525 H   0  0  0  0  0  0  0  0  0  0  0  0
   -0.0450    1.0634    0.3948 C   0  0  0  0  0  0  0  0  0  0  0  0
   -0.9875    1.7642    0.0459 O   0  0  0  0  0  0  0  0  0  0  0  0
    0.8440    1.5325    1.3436 N   0  0  0  0  0  0  0  0  0  0  0  0
    1.5972    0.9140    1.6333 H   0  0  0  0  0  0  0  0  0  0  0  0
    0.7301    2.8460    1.9665 C   0  0  0  0  0  0  0  0  0  0  0  0
   -0.2421    2.9549    2.4589 H   0  0  0  0  0  0  0  0  0  0  0  0
    1.5139    2.9775    2.7188 H   0  0  0  0  0  0  0  0  0  0  0  0
    0.8353    3.6359    1.2153 H   0  0  0  0  0  0  0  0  0  0  0  0
  1  2  1  0  0  0  0
  2  3  1  0  0  0  0
  2  4  1  0  0  0  0
  2  5  1  0  0  0  0
  5  6  2  0  0  0  0
  5  7  1  0  0  0  0
  7  8  1  0  0  0  0
  7  9  1  0  0  0  0
  9 10  1  0  0  0  0
  9 11  1  0  0  0  0
  9 18  1  0  0  0  0
 11 12  1  0  0  0  0
 11 13  1  0  0  0  0
 11 14  1  0  0  0  0
 14 15  2  0  0  0  0
 14 16  1  0  0  0  0
 16 17  1  0  0  0  0
 18 19  2  0  0  0  0
 18 20  1  0  0  0  0
 20 21  1  0  0  0  0
 20 22  1  0  0  0  0
 22 23  1  0  0  0  0
 22 24  1  0  0  0  0
 22 25  1  0  0  0  0
M  END
$$$$

  -OEChem-03222214023D

 25 24  0     1  0  0  0  0  0999 V2000
   -2.7901   -3.9519    0.4309 H   0  0  0  0  0  0  0  0  0  0  0  0
   -2.7926   -2.9071    0.1075 C   0  0  0  0  0  0  0  0  0  0  0  0
   -3.4486   -2.3353    0.7683 H   0  0  0  0  0  0  0  0  0  0  0  0
   -3.1795   -2.8561   -0.9131 H   0  0  0  0  0  0  0  0  0  0  0  0
   -1.3859   -2.3406    0.1569 C   0  0  0  0  0  0  0  0  0  0  0  0
   -0.4698   -3.0293    0.5736 O   0  0  0  0  0  0  0  0  0  0  0  0
   -1.1631   -1.0353   -0.2320 N   0  0  0  0  0  0  0  0  0  0  0  0
   -1.9808   -0.4689   -0.4540 H   0  0  0  0  0  0  0  0  0  0  0  0
    0.1370   -0.3464   -0.2026 C   0  0  1  0  0  0  0  0  0  0  0  0
    0.8407   -0.8839    0.4422 H   0  0  0  0  0  0  0  0  0  0  0  0
    0.6852   -0.2364   -1.6478 C   0  0  0  0  0  0  0  0  0  0  0  0
   -0.1231   -0.4021   -2.3643 H   0  0  0  0  0  0  0  0  0  0  0  0
    1.0626    0.7765   -1.8187 H   0  0  0  0  0  0  0  0  0  0  0  0
    1.8238   -1.1966   -1.9822 C   0  0  0  0  0  0  0  0  0  0  0  0
    2.4609   -0.9556   -2.9911 O   0  0  0  0  0  0  0  0  0  0  0  0
    2.1033   -2.2348   -1.1672 O   0  0  0  0  0  0  0  0  0  0  0  0
    2.8304   -2.7144   -1.5914 H   0  0  0  0  0  0  0  0  0  0  0  0
   -0.0323    1.0625    0.3966 C   0  0  0  0  0  0  0  0  0  0  0  0
   -0.9739    1.7621    0.0422 O   0  0  0  0  0  0  0  0  0  0  0  0
    0.8596    1.5406    1.3383 N   0  0  0  0  0  0  0  0  0  0  0  0
    1.5986    0.9158    1.6497 H   0  0  0  0  0  0  0  0  0  0  0  0
    0.7317    2.8501    1.9670 C   0  0  0  0  0  0  0  0  0  0  0  0
   -0.2141    2.9222    2.5144 H   0  0  0  0  0  0  0  0  0  0  0  0
    1.5525    3.0135    2.6721 H   0  0  0  0  0  0  0  0  0  0  0  0
    0.7627    3.6427    1.2119 H   0  0  0  0  0  0  0  0  0  0  0  0
  1  2  1  0  0  0  0
  2  3  1  0  0  0  0
  2  4  1  0  0  0  0
  2  5  1  0  0  0  0
  5  6  2  0  0  0  0
  5  7  1  0  0  0  0
  7  8  1  0  0  0  0
  7  9  1  0  0  0  0
  9 10  1  0  0  0  0
  9 11  1  0  0  0  0
  9 18  1  0  0  0  0
 11 12  1  0  0  0  0
 11 13  1  0  0  0  0
 11 14  1  0  0  0  0
 14 15  2  0  0  0  0
 14 16  1  0  0  0  0
 16 17  1  0  0  0  0
 18 19  2  0  0  0  0
 18 20  1  0  0  0  0
 20 21  1  0  0  0  0
 20 22  1  0  0  0  0
 22 23  1  0  0  0  0
 22 24  1  0  0  0  0
 22 25  1  0  0  0  0
M  END
$$$$

  -OEChem-03222214023D

 25 24  0     1  0  0  0  0  0999 V2000
   -2.7714   -3.9711    0.4081 H   0  0  0  0  0  0  0  0  0  0  0  0
   -2.7802   -2.9251    0.0893 C   0  0  0  0  0  0  0  0  0  0  0  0
   -3.4614   -2.3657    0.7350 H   0  0  0  0  0  0  0  0  0  0  0  0
   -3.1406   -2.8751   -0.9410 H   0  0  0  0  0  0  0  0  0  0  0  0
   -1.3830   -2.3403    0.1786 C   0  0  0  0  0  0  0  0  0  0  0  0
   -0.4766   -3.0077    0.6486 O   0  0  0  0  0  0  0  0  0  0  0  0
   -1.1640   -1.0352   -0.2138 N   0  0  0  0  0  0  0  0  0  0  0  0
   -1.9790   -0.4813   -0.4727 H   0  0  0  0  0  0  0  0  0  0  0  0
    0.1365   -0.3473   -0.1970 C   0  0  1  0  0  0  0  0  0  0  0  0
    0.8522   -0.8897    0.4311 H   0  0  0  0  0  0  0  0  0  0  0  0
    0.6723   -0.2225   -1.6450 C   0  0  0  0  0  0  0  0  0  0  0  0
   -0.1388   -0.3883   -2.3579 H   0  0  0  0  0  0  0  0  0  0  0  0
    1.0467    0.7921   -1.8146 H   0  0  0  0  0  0  0  0  0  0  0  0
    1.8056   -1.1875   -1.9762 C   0  0  0  0  0  0  0  0  0  0  0  0
    2.6231   -0.8216   -2.8008 O   0  0  0  0  0  0  0  0  0  0  0  0
    1.8464   -2.3988   -1.3857 O   0  0  0  0  0  0  0  0  0  0  0  0
    2.6163   -2.8516   -1.7607 H   0  0  0  0  0  0  0  0  0  0  0  0
   -0.0310    1.0613    0.4041 C   0  0  0  0  0  0  0  0  0  0  0  0
   -0.9706    1.7637    0.0497 O   0  0  0  0  0  0  0  0  0  0  0  0
    0.8680    1.5403    1.3385 N   0  0  0  0  0  0  0  0  0  0  0  0
    1.6098    0.9163    1.6445 H   0  0  0  0  0  0  0  0  0  0  0  0
    0.7511    2.8540    1.9602 C   0  0  0  0  0  0  0  0  0  0  0  0
   -0.1976    2.9397    2.5006 H   0  0  0  0  0  0  0  0  0  0  0  0
    1.5686    3.0101    2.6706 H   0  0  0  0  0  0  0  0  0  0  0  0
    0.7975    3.6425    1.2016 H   0  0  0  0  0  0  0  0  0  0  0  0
  1  2  1  0  0  0  0
  2  3  1  0  0  0  0
  2  4  1  0  0  0  0
  2  5  1  0  0  0  0
  5  6  2  0  0  0  0
  5  7  1  0  0  0  0
  7  8  1  0  0  0  0
  7  9  1  0  0  0  0
  9 10  1  0  0  0  0
  9 11  1  0  0  0  0
  9 18  1  0  0  0  0
 11 12  1  0  0  0  0
 11 13  1  0  0  0  0
 11 14  1  0  0  0  0
 14 15  2  0  0  0  0
 14 16  1  0  0  0  0
 16 17  1  0  0  0  0
 18 19  2  0  0  0  0
 18 20  1  0  0  0  0
 20 21  1  0  0  0  0
 20 22  1  0  0  0  0
 22 23  1  0  0  0  0
 22 24  1  0  0  0  0
 22 25  1  0  0  0  0
M  END
$$$$

  -OEChem-03222214023D

 25 24  0     1  0  0  0  0  0999 V2000
   -2.7522   -3.9852    0.3970 H   0  0  0  0  0  0  0  0  0  0  0  0
   -2.7688   -2.9394    0.0776 C   0  0  0  0  0  0  0  0  0  0  0  0
   -3.4607   -2.3858    0.7170 H   0  0  0  0  0  0  0  0  0  0  0  0
   -3.1207   -2.8934   -0.9557 H   0  0  0  0  0  0  0  0  0  0  0  0
   -1.3785   -2.3408    0.1781 C   0  0  0  0  0  0  0  0  0  0  0  0
   -0.4687   -2.9972    0.6583 O   0  0  0  0  0  0  0  0  0  0  0  0
   -1.1686   -1.0332   -0.2112 N   0  0  0  0  0  0  0  0  0  0  0  0
   -1.9849   -0.4849   -0.4774 H   0  0  0  0  0  0  0  0  0  0  0  0
    0.1314   -0.3451   -0.2006 C   0  0  1  0  0  0  0  0  0  0  0  0
    0.8539   -0.8918    0.4162 H   0  0  0  0  0  0  0  0  0  0  0  0
    0.6584   -0.2111   -1.6490 C   0  0  0  0  0  0  0  0  0  0  0  0
   -0.1529   -0.3782   -2.3614 H   0  0  0  0  0  0  0  0  0  0  0  0
    1.0326    0.8034   -1.8200 H   0  0  0  0  0  0  0  0  0  0  0  0
    1.7869   -1.1845   -1.9633 C   0  0  0  0  0  0  0  0  0  0  0  0
    2.7597   -0.7517   -2.5539 O   0  0  0  0  0  0  0  0  0  0  0  0
    1.6360   -2.4847   -1.6402 O   0  0  0  0  0  0  0  0  0  0  0  0
    2.4427   -2.9290   -1.9402 H   0  0  0  0  0  0  0  0  0  0  0  0
   -0.0315    1.0609    0.4082 C   0  0  0  0  0  0  0  0  0  0  0  0
   -0.9723    1.7656    0.0618 O   0  0  0  0  0  0  0  0  0  0  0  0
    0.8740    1.5363    1.3381 N   0  0  0  0  0  0  0  0  0  0  0  0
    1.6229    0.9148    1.6315 H   0  0  0  0  0  0  0  0  0  0  0  0
    0.7684    2.8527    1.9561 C   0  0  0  0  0  0  0  0  0  0  0  0
   -0.1749    2.9445    2.5049 H   0  0  0  0  0  0  0  0  0  0  0  0
    1.5932    3.0084    2.6582 H   0  0  0  0  0  0  0  0  0  0  0  0
    0.8110    3.6380    1.1940 H   0  0  0  0  0  0  0  0  0  0  0  0
  1  2  1  0  0  0  0
  2  3  1  0  0  0  0
  2  4  1  0  0  0  0
  2  5  1  0  0  0  0
  5  6  2  0  0  0  0
  5  7  1  0  0  0  0
  7  8  1  0  0  0  0
  7  9  1  0  0  0  0
  9 10  1  0  0  0  0
  9 11  1  0  0  0  0
  9 18  1  0  0  0  0
 11 12  1  0  0  0  0
 11 13  1  0  0  0  0
 11 14  1  0  0  0  0
 14 15  2  0  0  0  0
 14 16  1  0  0  0  0
 16 17  1  0  0  0  0
 18 19  2  0  0  0  0
 18 20  1  0  0  0  0
 20 21  1  0  0  0  0
 20 22  1  0  0  0  0
 22 23  1  0  0  0  0
 22 24  1  0  0  0  0
 22 25  1  0  0  0  0
M  END
$$$$

  -OEChem-03222214023D

 25 24  0     1  0  0  0  0  0999 V2000
   -2.7414   -3.9902    0.3980 H   0  0  0  0  0  0  0  0  0  0  0  0
   -2.7648   -2.9433    0.0826 C   0  0  0  0  0  0  0  0  0  0  0  0
   -3.4436   -2.3924    0.7378 H   0  0  0  0  0  0  0  0  0  0  0  0
   -3.1379   -2.8934   -0.9431 H   0  0  0  0  0  0  0  0  0  0  0  0
   -1.3734   -2.3435    0.1562 C   0  0  0  0  0  0  0  0  0  0  0  0
   -0.4484   -3.0045    0.6009 O   0  0  0  0  0  0  0  0  0  0  0  0
   -1.1739   -1.0318   -0.2248 N   0  0  0  0  0  0  0  0  0  0  0  0
   -1.9959   -0.4796   -0.4645 H   0  0  0  0  0  0  0  0  0  0  0  0
    0.1245   -0.3422   -0.2137 C   0  0  1  0  0  0  0  0  0  0  0  0
    0.8491   -0.8904    0.3992 H   0  0  0  0  0  0  0  0  0  0  0  0
    0.6500   -0.2033   -1.6601 C   0  0  0  0  0  0  0  0  0  0  0  0
   -0.1575   -0.3713   -2.3767 H   0  0  0  0  0  0  0  0  0  0  0  0
    1.0273    0.8097   -1.8315 H   0  0  0  0  0  0  0  0  0  0  0  0
    1.7761   -1.1837   -1.9519 C   0  0  0  0  0  0  0  0  0  0  0  0
    2.8598   -0.7314   -2.2739 O   0  0  0  0  0  0  0  0  0  0  0  0
    1.5037   -2.5042   -1.9162 O   0  0  0  0  0  0  0  0  0  0  0  0
    2.3349   -2.9519   -2.1337 H   0  0  0  0  0  0  0  0  0  0  0  0
   -0.0358    1.0593    0.4063 C   0  0  0  0  0  0  0  0  0  0  0  0
   -0.9819    1.7636    0.0739 O   0  0  0  0  0  0  0  0  0  0  0  0
    0.8734    1.5285    1.3357 N   0  0  0  0  0  0  0  0  0  0  0  0
    1.6365    0.9135    1.6055 H   0  0  0  0  0  0  0  0  0  0  0  0
    0.7763    2.8453    1.9542 C   0  0  0  0  0  0  0  0  0  0  0  0
   -0.1690    2.9449    2.4980 H   0  0  0  0  0  0  0  0  0  0  0  0
    1.5984    2.9935    2.6610 H   0  0  0  0  0  0  0  0  0  0  0  0
    0.8293    3.6305    1.1926 H   0  0  0  0  0  0  0  0  0  0  0  0
  1  2  1  0  0  0  0
  2  3  1  0  0  0  0
  2  4  1  0  0  0  0
  2  5  1  0  0  0  0
  5  6  2  0  0  0  0
  5  7  1  0  0  0  0
  7  8  1  0  0  0  0
  7  9  1  0  0  0  0
  9 10  1  0  0  0  0
  9 11  1  0  0  0  0
  9 18  1  0  0  0  0
 11 12  1  0  0  0  0
 11 13  1  0  0  0  0
 11 14  1  0  0  0  0
 14 15  2  0  0  0  0
 14 16  1  0  0  0  0
 16 17  1  0  0  0  0
 18 19  2  0  0  0  0
 18 20  1  0  0  0  0
 20 21  1  0  0  0  0
 20 22  1  0  0  0  0
 22 23  1  0  0  0  0
 22 24  1  0  0  0  0
 22 25  1  0  0  0  0
M  END
$$$$

  -OEChem-03222214023D

 25 24  0     1  0  0  0  0  0999 V2000
   -2.7339   -3.9907    0.4039 H   0  0  0  0  0  0  0  0  0  0  0  0
   -2.7644   -2.9432    0.0911 C   0  0  0  0  0  0  0  0  0  0  0  0
   -3.4206   -2.3918    0.7686 H   0  0  0  0  0  0  0  0  0  0  0  0
   -3.1698   -2.8907   -0.9222 H   0  0  0  0  0  0  0  0  0  0  0  0
   -1.3697   -2.3472    0.1214 C   0  0  0  0  0  0  0  0  0  0  0  0
   -0.4272   -3.0200    0.5083 O   0  0  0  0  0  0  0  0  0  0  0  0
   -1.1798   -1.0306   -0.2468 N   0  0  0  0  0  0  0  0  0  0  0  0
   -2.0081   -0.4710   -0.4444 H   0  0  0  0  0  0  0  0  0  0  0  0
    0.1160   -0.3372   -0.2315 C   0  0  1  0  0  0  0  0  0  0  0  0
    0.8405   -0.8881    0.3794 H   0  0  0  0  0  0  0  0  0  0  0  0
    0.6412   -0.1947   -1.6752 C   0  0  0  0  0  0  0  0  0  0  0  0
   -0.1621   -0.3636   -2.3965 H   0  0  0  0  0  0  0  0  0  0  0  0
    1.0220    0.8169   -1.8470 H   0  0  0  0  0  0  0  0  0  0  0  0
    1.7672   -1.1786   -1.9459 C   0  0  0  0  0  0  0  0  0  0  0  0
    2.9068   -0.7504   -1.9849 O   0  0  0  0  0  0  0  0  0  0  0  0
    1.4458   -2.4672   -2.1855 O   0  0  0  0  0  0  0  0  0  0  0  0
    2.2878   -2.9284   -2.3152 H   0  0  0  0  0  0  0  0  0  0  0  0
   -0.0411    1.0582    0.4018 C   0  0  0  0  0  0  0  0  0  0  0  0
   -0.9949    1.7603    0.0874 O   0  0  0  0  0  0  0  0  0  0  0  0
    0.8716    1.5190    1.3319 N   0  0  0  0  0  0  0  0  0  0  0  0
    1.6522    0.9133    1.5714 H   0  0  0  0  0  0  0  0  0  0  0  0
    0.7827    2.8344    1.9542 C   0  0  0  0  0  0  0  0  0  0  0  0
   -0.1628    2.9389    2.4968 H   0  0  0  0  0  0  0  0  0  0  0  0
    1.6047    2.9746    2.6629 H   0  0  0  0  0  0  0  0  0  0  0  0
    0.8425    3.6217    1.1953 H   0  0  0  0  0  0  0  0  0  0  0  0
  1  2  1  0  0  0  0
  2  3  1  0  0  0  0
  2  4  1  0  0  0  0
  2  5  1  0  0  0  0
  5  6  2  0  0  0  0
  5  7  1  0  0  0  0
  7  8  1  0  0  0  0
  7  9  1  0  0  0  0
  9 10  1  0  0  0  0
  9 11  1  0  0  0  0
  9 18  1  0  0  0  0
 11 12  1  0  0  0  0
 11 13  1  0  0  0  0
 11 14  1  0  0  0  0
 14 15  2  0  0  0  0
 14 16  1  0  0  0  0
 16 17  1  0  0  0  0
 18 19  2  0  0  0  0
 18 20  1  0  0  0  0
 20 21  1  0  0  0  0
 20 22  1  0  0  0  0
 22 23  1  0  0  0  0
 22 24  1  0  0  0  0
 22 25  1  0  0  0  0
M  END
$$$$

  -OEChem-03222214023D

 25 24  0     1  0  0  0  0  0999 V2000
   -2.7238   -3.9854    0.4241 H   0  0  0  0  0  0  0  0  0  0  0  0
   -2.7629   -2.9394    0.1073 C   0  0  0  0  0  0  0  0  0  0  0  0
   -3.3901   -2.3823    0.8075 H   0  0  0  0  0  0  0  0  0  0  0  0
   -3.2073   -2.8897   -0.8896 H   0  0  0  0  0  0  0  0  0  0  0  0
   -1.3658   -2.3489    0.0810 C   0  0  0  0  0  0  0  0  0  0  0  0
   -0.4068   -3.0340    0.3998 O   0  0  0  0  0  0  0  0  0  0  0  0
   -1.1867   -1.0274   -0.2739 N   0  0  0  0  0  0  0  0  0  0  0  0
   -2.0216   -0.4606   -0.4167 H   0  0  0  0  0  0  0  0  0  0  0  0
    0.1056   -0.3277   -0.2549 C   0  0  1  0  0  0  0  0  0  0  0  0
    0.8295   -0.8805    0.3555 H   0  0  0  0  0  0  0  0  0  0  0  0
    0.6336   -0.1869   -1.6960 C   0  0  0  0  0  0  0  0  0  0  0  0
   -0.1657   -0.3600   -2.4211 H   0  0  0  0  0  0  0  0  0  0  0  0
    1.0157    0.8235   -1.8702 H   0  0  0  0  0  0  0  0  0  0  0  0
    1.7633   -1.1708   -1.9459 C   0  0  0  0  0  0  0  0  0  0  0  0
    2.9007   -0.8065   -1.7051 O   0  0  0  0  0  0  0  0  0  0  0  0
    1.4572   -2.3862   -2.4474 O   0  0  0  0  0  0  0  0  0  0  0  0
    2.2968   -2.8679   -2.4927 H   0  0  0  0  0  0  0  0  0  0  0  0
   -0.0474    1.0615    0.3919 C   0  0  0  0  0  0  0  0  0  0  0  0
   -1.0109    1.7603    0.1006 O   0  0  0  0  0  0  0  0  0  0  0  0
    0.8710    1.5125    1.3211 N   0  0  0  0  0  0  0  0  0  0  0  0
    1.6705    0.9175    1.5235 H   0  0  0  0  0  0  0  0  0  0  0  0
    0.7851    2.8198    1.9609 C   0  0  0  0  0  0  0  0  0  0  0  0
   -0.1736    2.9323    2.4783 H   0  0  0  0  0  0  0  0  0  0  0  0
    1.5879    2.9350    2.6956 H   0  0  0  0  0  0  0  0  0  0  0  0
    0.8794    3.6171    1.2163 H   0  0  0  0  0  0  0  0  0  0  0  0
  1  2  1  0  0  0  0
  2  3  1  0  0  0  0
  2  4  1  0  0  0  0
  2  5  1  0  0  0  0
  5  6  2  0  0  0  0
  5  7  1  0  0  0  0
  7  8  1  0  0  0  0
  7  9  1  0  0  0  0
  9 10  1  0  0  0  0
  9 11  1  0  0  0  0
  9 18  1  0  0  0  0
 11 12  1  0  0  0  0
 11 13  1  0  0  0  0
 11 14  1  0  0  0  0
 14 15  2  0  0  0  0
 14 16  1  0  0  0  0
 16 17  1  0  0  0  0
 18 19  2  0  0  0  0
 18 20  1  0  0  0  0
 20 21  1  0  0  0  0
 20 22  1  0  0  0  0
 22 23  1  0  0  0  0
 22 24  1  0  0  0  0
 22 25  1  0  0  0  0
M  END
$$$$

  -OEChem-03222214023D

 25 24  0     1  0  0  0  0  0999 V2000
   -2.7142   -3.9850    0.4330 H   0  0  0  0  0  0  0  0  0  0  0  0
   -2.7615   -2.9396    0.1156 C   0  0  0  0  0  0  0  0  0  0  0  0
   -3.3765   -2.3833    0.8268 H   0  0  0  0  0  0  0  0  0  0  0  0
   -3.2255   -2.8922   -0.8724 H   0  0  0  0  0  0  0  0  0  0  0  0
   -1.3662   -2.3471    0.0606 C   0  0  0  0  0  0  0  0  0  0  0  0
   -0.3981   -3.0383    0.3351 O   0  0  0  0  0  0  0  0  0  0  0  0
   -1.1947   -1.0228   -0.2878 N   0  0  0  0  0  0  0  0  0  0  0  0
   -2.0330   -0.4546   -0.4036 H   0  0  0  0  0  0  0  0  0  0  0  0
    0.0950   -0.3178   -0.2673 C   0  0  1  0  0  0  0  0  0  0  0  0
    0.8153   -0.8710    0.3469 H   0  0  0  0  0  0  0  0  0  0  0  0
    0.6286   -0.1828   -1.7068 C   0  0  0  0  0  0  0  0  0  0  0  0
   -0.1678   -0.3624   -2.4337 H   0  0  0  0  0  0  0  0  0  0  0  0
    1.0092    0.8271   -1.8852 H   0  0  0  0  0  0  0  0  0  0  0  0
    1.7638   -1.1629   -1.9468 C   0  0  0  0  0  0  0  0  0  0  0  0
    2.8486   -0.9080   -1.4528 O   0  0  0  0  0  0  0  0  0  0  0  0
    1.5243   -2.2542   -2.7048 O   0  0  0  0  0  0  0  0  0  0  0  0
    2.3500   -2.7616   -2.6932 H   0  0  0  0  0  0  0  0  0  0  0  0
   -0.0528    1.0685    0.3848 C   0  0  0  0  0  0  0  0  0  0  0  0
   -1.0218    1.7662    0.1095 O   0  0  0  0  0  0  0  0  0  0  0  0
    0.8722    1.5111    1.3112 N   0  0  0  0  0  0  0  0  0  0  0  0
    1.6775    0.9172    1.4947 H   0  0  0  0  0  0  0  0  0  0  0  0
    0.7908    2.8111    1.9656 C   0  0  0  0  0  0  0  0  0  0  0  0
   -0.1663    2.9197    2.4866 H   0  0  0  0  0  0  0  0  0  0  0  0
    1.5955    2.9158    2.6998 H   0  0  0  0  0  0  0  0  0  0  0  0
    0.8853    3.6166    1.2297 H   0  0  0  0  0  0  0  0  0  0  0  0
  1  2  1  0  0  0  0
  2  3  1  0  0  0  0
  2  4  1  0  0  0  0
  2  5  1  0  0  0  0
  5  6  2  0  0  0  0
  5  7  1  0  0  0  0
  7  8  1  0  0  0  0
  7  9  1  0  0  0  0
  9 10  1  0  0  0  0
  9 11  1  0  0  0  0
  9 18  1  0  0  0  0
 11 12  1  0  0  0  0
 11 13  1  0  0  0  0
 11 14  1  0  0  0  0
 14 15  2  0  0  0  0
 14 16  1  0  0  0  0
 16 17  1  0  0  0  0
 18 19  2  0  0  0  0
 18 20  1  0  0  0  0
 20 21  1  0  0  0  0
 20 22  1  0  0  0  0
 22 23  1  0  0  0  0
 22 24  1  0  0  0  0
 22 25  1  0  0  0  0
M  END
$$$$

  -OEChem-03222214023D

 25 24  0     1  0  0  0  0  0999 V2000
   -2.7136   -3.9822    0.4436 H   0  0  0  0  0  0  0  0  0  0  0  0
   -2.7626   -2.9374    0.1242 C   0  0  0  0  0  0  0  0  0  0  0  0
   -3.3666   -2.3777    0.8424 H   0  0  0  0  0  0  0  0  0  0  0  0
   -3.2392   -2.8909   -0.8578 H   0  0  0  0  0  0  0  0  0  0  0  0
   -1.3666   -2.3484    0.0496 C   0  0  0  0  0  0  0  0  0  0  0  0
   -0.3958   -3.0465    0.2944 O   0  0  0  0  0  0  0  0  0  0  0  0
   -1.1975   -1.0230   -0.2952 N   0  0  0  0  0  0  0  0  0  0  0  0
   -2.0374   -0.4534   -0.3915 H   0  0  0  0  0  0  0  0  0  0  0  0
    0.0902   -0.3133   -0.2689 C   0  0  1  0  0  0  0  0  0  0  0  0
    0.8031   -0.8667    0.3535 H   0  0  0  0  0  0  0  0  0  0  0  0
    0.6313   -0.1856   -1.7080 C   0  0  0  0  0  0  0  0  0  0  0  0
   -0.1648   -0.3695   -2.4342 H   0  0  0  0  0  0  0  0  0  0  0  0
    1.0066    0.8254   -1.8889 H   0  0  0  0  0  0  0  0  0  0  0  0
    1.7748   -1.1560   -1.9579 C   0  0  0  0  0  0  0  0  0  0  0  0
    2.7718   -1.0601   -1.2619 O   0  0  0  0  0  0  0  0  0  0  0  0
    1.6378   -2.0679   -2.9444 O   0  0  0  0  0  0  0  0  0  0  0  0
    2.4434   -2.6057   -2.9068 H   0  0  0  0  0  0  0  0  0  0  0  0
   -0.0572    1.0720    0.3839 C   0  0  0  0  0  0  0  0  0  0  0  0
   -1.0255    1.7706    0.1092 O   0  0  0  0  0  0  0  0  0  0  0  0
    0.8679    1.5111    1.3117 N   0  0  0  0  0  0  0  0  0  0  0  0
    1.6711    0.9139    1.4948 H   0  0  0  0  0  0  0  0  0  0  0  0
    0.7898    2.8101    1.9685 C   0  0  0  0  0  0  0  0  0  0  0  0
   -0.1658    2.9189    2.4924 H   0  0  0  0  0  0  0  0  0  0  0  0
    1.5968    2.9125    2.7005 H   0  0  0  0  0  0  0  0  0  0  0  0
    0.8832    3.6168    1.2338 H   0  0  0  0  0  0  0  0  0  0  0  0
  1  2  1  0  0  0  0
  2  3  1  0  0  0  0
  2  4  1  0  0  0  0
  2  5  1  0  0  0  0
  5  6  2  0  0  0  0
  5  7  1  0  0  0  0
  7  8  1  0  0  0  0
  7  9  1  0  0  0  0
  9 10  1  0  0  0  0
  9 11  1  0  0  0  0
  9 18  1  0  0  0  0
 11 12  1  0  0  0  0
 11 13  1  0  0  0  0
 11 14  1  0  0  0  0
 14 15  2  0  0  0  0
 14 16  1  0  0  0  0
 16 17  1  0  0  0  0
 18 19  2  0  0  0  0
 18 20  1  0  0  0  0
 20 21  1  0  0  0  0
 20 22  1  0  0  0  0
 22 23  1  0  0  0  0
 22 24  1  0  0  0  0
 22 25  1  0  0  0  0
M  END
$$$$

  -OEChem-03222214023D

 25 24  0     1  0  0  0  0  0999 V2000
   -2.7242   -3.9769    0.4507 H   0  0  0  0  0  0  0  0  0  0  0  0
   -2.7671   -2.9317    0.1315 C   0  0  0  0  0  0  0  0  0  0  0  0
   -3.3692   -2.3692    0.8491 H   0  0  0  0  0  0  0  0  0  0  0  0
   -3.2425   -2.8827   -0.8511 H   0  0  0  0  0  0  0  0  0  0  0  0
   -1.3678   -2.3500    0.0589 C   0  0  0  0  0  0  0  0  0  0  0  0
   -0.4019   -3.0533    0.3059 O   0  0  0  0  0  0  0  0  0  0  0  0
   -1.1917   -1.0268   -0.2906 N   0  0  0  0  0  0  0  0  0  0  0  0
   -2.0299   -0.4556   -0.3916 H   0  0  0  0  0  0  0  0  0  0  0  0
    0.0961   -0.3167   -0.2593 C   0  0  1  0  0  0  0  0  0  0  0  0
    0.8003   -0.8674    0.3744 H   0  0  0  0  0  0  0  0  0  0  0  0
    0.6436   -0.1976   -1.6997 C   0  0  0  0  0  0  0  0  0  0  0  0
   -0.1559   -0.3808   -2.4222 H   0  0  0  0  0  0  0  0  0  0  0  0
    1.0133    0.8150   -1.8813 H   0  0  0  0  0  0  0  0  0  0  0  0
    1.7940   -1.1560   -1.9801 C   0  0  0  0  0  0  0  0  0  0  0  0
    2.6837   -1.2668   -1.1536 O   0  0  0  0  0  0  0  0  0  0  0  0
    1.7797   -1.8306   -3.1496 O   0  0  0  0  0  0  0  0  0  0  0  0
    2.5638   -2.4002   -3.1215 H   0  0  0  0  0  0  0  0  0  0  0  0
   -0.0557    1.0719    0.3853 C   0  0  0  0  0  0  0  0  0  0  0  0
   -1.0194    1.7713    0.0966 O   0  0  0  0  0  0  0  0  0  0  0  0
    0.8632    1.5156    1.3171 N   0  0  0  0  0  0  0  0  0  0  0  0
    1.6544    0.9101    1.5238 H   0  0  0  0  0  0  0  0  0  0  0  0
    0.7785    2.8158    1.9705 C   0  0  0  0  0  0  0  0  0  0  0  0
   -0.1785    2.9220    2.4923 H   0  0  0  0  0  0  0  0  0  0  0  0
    1.5840    2.9238    2.7033 H   0  0  0  0  0  0  0  0  0  0  0  0
    0.8695    3.6209    1.2338 H   0  0  0  0  0  0  0  0  0  0  0  0
  1  2  1  0  0  0  0
  2  3  1  0  0  0  0
  2  4  1  0  0  0  0
  2  5  1  0  0  0  0
  5  6  2  0  0  0  0
  5  7  1  0  0  0  0
  7  8  1  0  0  0  0
  7  9  1  0  0  0  0
  9 10  1  0  0  0  0
  9 11  1  0  0  0  0
  9 18  1  0  0  0  0
 11 12  1  0  0  0  0
 11 13  1  0  0  0  0
 11 14  1  0  0  0  0
 14 15  2  0  0  0  0
 14 16  1  0  0  0  0
 16 17  1  0  0  0  0
 18 19  2  0  0  0  0
 18 20  1  0  0  0  0
 20 21  1  0  0  0  0
 20 22  1  0  0  0  0
 22 23  1  0  0  0  0
 22 24  1  0  0  0  0
 22 25  1  0  0  0  0
M  END
$$$$

  -OEChem-03222214023D

 25 24  0     1  0  0  0  0  0999 V2000
   -2.7421   -3.9698    0.4503 H   0  0  0  0  0  0  0  0  0  0  0  0
   -2.7742   -2.9232    0.1347 C   0  0  0  0  0  0  0  0  0  0  0  0
   -3.3799   -2.3591    0.8480 H   0  0  0  0  0  0  0  0  0  0  0  0
   -3.2387   -2.8674   -0.8527 H   0  0  0  0  0  0  0  0  0  0  0  0
   -1.3701   -2.3511    0.0796 C   0  0  0  0  0  0  0  0  0  0  0  0
   -0.4144   -3.0567    0.3551 O   0  0  0  0  0  0  0  0  0  0  0  0
   -1.1814   -1.0326   -0.2801 N   0  0  0  0  0  0  0  0  0  0  0  0
   -2.0157   -0.4593   -0.3982 H   0  0  0  0  0  0  0  0  0  0  0  0
    0.1089   -0.3262   -0.2460 C   0  0  1  0  0  0  0  0  0  0  0  0
    0.8071   -0.8721    0.3974 H   0  0  0  0  0  0  0  0  0  0  0  0
    0.6612   -0.2120   -1.6882 C   0  0  0  0  0  0  0  0  0  0  0  0
   -0.1424   -0.3910   -2.4071 H   0  0  0  0  0  0  0  0  0  0  0  0
    1.0273    0.8023   -1.8674 H   0  0  0  0  0  0  0  0  0  0  0  0
    1.8139   -1.1607   -2.0036 C   0  0  0  0  0  0  0  0  0  0  0  0
    2.5767   -1.5056   -1.1180 O   0  0  0  0  0  0  0  0  0  0  0  0
    1.9448   -1.5606   -3.2863 O   0  0  0  0  0  0  0  0  0  0  0  0
    2.7048   -2.1630   -3.2839 H   0  0  0  0  0  0  0  0  0  0  0  0
   -0.0495    1.0679    0.3852 C   0  0  0  0  0  0  0  0  0  0  0  0
   -1.0061    1.7679    0.0750 O   0  0  0  0  0  0  0  0  0  0  0  0
    0.8601    1.5209    1.3217 N   0  0  0  0  0  0  0  0  0  0  0  0
    1.6353    0.9070    1.5611 H   0  0  0  0  0  0  0  0  0  0  0  0
    0.7619    2.8224    1.9708 C   0  0  0  0  0  0  0  0  0  0  0  0
   -0.1930    2.9171    2.4985 H   0  0  0  0  0  0  0  0  0  0  0  0
    1.5709    2.9443    2.6976 H   0  0  0  0  0  0  0  0  0  0  0  0
    0.8373    3.6260    1.2309 H   0  0  0  0  0  0  0  0  0  0  0  0
  1  2  1  0  0  0  0
  2  3  1  0  0  0  0
  2  4  1  0  0  0  0
  2  5  1  0  0  0  0
  5  6  2  0  0  0  0
  5  7  1  0  0  0  0
  7  8  1  0  0  0  0
  7  9  1  0  0  0  0
  9 10  1  0  0  0  0
  9 11  1  0  0  0  0
  9 18  1  0  0  0  0
 11 12  1  0  0  0  0
 11 13  1  0  0  0  0
 11 14  1  0  0  0  0
 14 15  2  0  0  0  0
 14 16  1  0  0  0  0
 16 17  1  0  0  0  0
 18 19  2  0  0  0  0
 18 20  1  0  0  0  0
 20 21  1  0  0  0  0
 20 22  1  0  0  0  0
 22 23  1  0  0  0  0
 22 24  1  0  0  0  0
 22 25  1  0  0  0  0
M  END
$$$$

  -OEChem-03222214023D

 25 24  0     1  0  0  0  0  0999 V2000
   -2.7563   -3.9631    0.4415 H   0  0  0  0  0  0  0  0  0  0  0  0
   -2.7775   -2.9156    0.1280 C   0  0  0  0  0  0  0  0  0  0  0  0
   -3.3944   -2.3501    0.8304 H   0  0  0  0  0  0  0  0  0  0  0  0
   -3.2224   -2.8555   -0.8680 H   0  0  0  0  0  0  0  0  0  0  0  0
   -1.3701   -2.3500    0.1016 C   0  0  0  0  0  0  0  0  0  0  0  0
   -0.4271   -3.0541    0.4198 O   0  0  0  0  0  0  0  0  0  0  0  0
   -1.1693   -1.0359   -0.2683 N   0  0  0  0  0  0  0  0  0  0  0  0
   -1.9993   -0.4627   -0.4148 H   0  0  0  0  0  0  0  0  0  0  0  0
    0.1238   -0.3343   -0.2340 C   0  0  1  0  0  0  0  0  0  0  0  0
    0.8218   -0.8755    0.4134 H   0  0  0  0  0  0  0  0  0  0  0  0
    0.6755   -0.2212   -1.6783 C   0  0  0  0  0  0  0  0  0  0  0  0
   -0.1318   -0.3923   -2.3950 H   0  0  0  0  0  0  0  0  0  0  0  0
    1.0428    0.7939   -1.8521 H   0  0  0  0  0  0  0  0  0  0  0  0
    1.8264   -1.1649   -2.0209 C   0  0  0  0  0  0  0  0  0  0  0  0
    2.4403   -1.7418   -1.1418 O   0  0  0  0  0  0  0  0  0  0  0  0
    2.1209   -1.2999   -3.3313 O   0  0  0  0  0  0  0  0  0  0  0  0
    2.8513   -1.9372   -3.3582 H   0  0  0  0  0  0  0  0  0  0  0  0
   -0.0406    1.0649    0.3852 C   0  0  0  0  0  0  0  0  0  0  0  0
   -0.9897    1.7659    0.0549 O   0  0  0  0  0  0  0  0  0  0  0  0
    0.8614    1.5269    1.3248 N   0  0  0  0  0  0  0  0  0  0  0  0
    1.6167    0.9034    1.5999 H   0  0  0  0  0  0  0  0  0  0  0  0
    0.7475    2.8278    1.9729 C   0  0  0  0  0  0  0  0  0  0  0  0
   -0.1918    2.8965    2.5317 H   0  0  0  0  0  0  0  0  0  0  0  0
    1.5770    2.9762    2.6710 H   0  0  0  0  0  0  0  0  0  0  0  0
    0.7747    3.6310    1.2288 H   0  0  0  0  0  0  0  0  0  0  0  0
  1  2  1  0  0  0  0
  2  3  1  0  0  0  0
  2  4  1  0  0  0  0
  2  5  1  0  0  0  0
  5  6  2  0  0  0  0
  5  7  1  0  0  0  0
  7  8  1  0  0  0  0
  7  9  1  0  0  0  0
  9 10  1  0  0  0  0
  9 11  1  0  0  0  0
  9 18  1  0  0  0  0
 11 12  1  0  0  0  0
 11 13  1  0  0  0  0
 11 14  1  0  0  0  0
 14 15  2  0  0  0  0
 14 16  1  0  0  0  0
 16 17  1  0  0  0  0
 18 19  2  0  0  0  0
 18 20  1  0  0  0  0
 20 21  1  0  0  0  0
 20 22  1  0  0  0  0
 22 23  1  0  0  0  0
 22 24  1  0  0  0  0
 22 25  1  0  0  0  0
M  END
$$$$

  -OEChem-03222214023D

 25 24  0     1  0  0  0  0  0999 V2000
   -2.7591   -3.9675    0.4199 H   0  0  0  0  0  0  0  0  0  0  0  0
   -2.7726   -2.9201    0.1053 C   0  0  0  0  0  0  0  0  0  0  0  0
   -3.4183   -2.3563    0.7829 H   0  0  0  0  0  0  0  0  0  0  0  0
   -3.1785   -2.8622   -0.9074 H   0  0  0  0  0  0  0  0  0  0  0  0
   -1.3677   -2.3485    0.1330 C   0  0  0  0  0  0  0  0  0  0  0  0
   -0.4401   -3.0399    0.5162 O   0  0  0  0  0  0  0  0  0  0  0  0
   -1.1582   -1.0384   -0.2458 N   0  0  0  0  0  0  0  0  0  0  0  0
   -1.9831   -0.4729   -0.4408 H   0  0  0  0  0  0  0  0  0  0  0  0
    0.1366   -0.3398   -0.2175 C   0  0  1  0  0  0  0  0  0  0  0  0
    0.8430   -0.8785    0.4235 H   0  0  0  0  0  0  0  0  0  0  0  0
    0.6761   -0.2222   -1.6670 C   0  0  0  0  0  0  0  0  0  0  0  0
   -0.1372   -0.3847   -2.3786 H   0  0  0  0  0  0  0  0  0  0  0  0
    1.0449    0.7932   -1.8365 H   0  0  0  0  0  0  0  0  0  0  0  0
    1.8214   -1.1638   -2.0322 C   0  0  0  0  0  0  0  0  0  0  0  0
    2.2705   -1.9503   -1.2199 O   0  0  0  0  0  0  0  0  0  0  0  0
    2.2932   -1.0631   -3.2927 O   0  0  0  0  0  0  0  0  0  0  0  0
    2.9904   -1.7346   -3.3525 H   0  0  0  0  0  0  0  0  0  0  0  0
   -0.0316    1.0633    0.3932 C   0  0  0  0  0  0  0  0  0  0  0  0
   -0.9742    1.7659    0.0477 O   0  0  0  0  0  0  0  0  0  0  0  0
    0.8677    1.5337    1.3313 N   0  0  0  0  0  0  0  0  0  0  0  0
    1.6076    0.9041    1.6318 H   0  0  0  0  0  0  0  0  0  0  0  0
    0.7463    2.8369    1.9733 C   0  0  0  0  0  0  0  0  0  0  0  0
   -0.1951    2.9044    2.5288 H   0  0  0  0  0  0  0  0  0  0  0  0
    1.5729    2.9916    2.6734 H   0  0  0  0  0  0  0  0  0  0  0  0
    0.7730    3.6370    1.2260 H   0  0  0  0  0  0  0  0  0  0  0  0
  1  2  1  0  0  0  0
  2  3  1  0  0  0  0
  2  4  1  0  0  0  0
  2  5  1  0  0  0  0
  5  6  2  0  0  0  0
  5  7  1  0  0  0  0
  7  8  1  0  0  0  0
  7  9  1  0  0  0  0
  9 10  1  0  0  0  0
  9 11  1  0  0  0  0
  9 18  1  0  0  0  0
 11 12  1  0  0  0  0
 11 13  1  0  0  0  0
 11 14  1  0  0  0  0
 14 15  2  0  0  0  0
 14 16  1  0  0  0  0
 16 17  1  0  0  0  0
 18 19  2  0  0  0  0
 18 20  1  0  0  0  0
 20 21  1  0  0  0  0
 20 22  1  0  0  0  0
 22 23  1  0  0  0  0
 22 24  1  0  0  0  0
 22 25  1  0  0  0  0
M  END
$$$$

  -OEChem-03222214023D

 25 24  0     1  0  0  0  0  0999 V2000
   -2.7483   -3.9799    0.3933 H   0  0  0  0  0  0  0  0  0  0  0  0
   -2.7628   -2.9319    0.0814 C   0  0  0  0  0  0  0  0  0  0  0  0
   -3.4388   -2.3781    0.7371 H   0  0  0  0  0  0  0  0  0  0  0  0
   -3.1330   -2.8760   -0.9450 H   0  0  0  0  0  0  0  0  0  0  0  0
   -1.3663   -2.3445    0.1604 C   0  0  0  0  0  0  0  0  0  0  0  0
   -0.4522   -3.0158    0.6070 O   0  0  0  0  0  0  0  0  0  0  0  0
   -1.1550   -1.0362   -0.2249 N   0  0  0  0  0  0  0  0  0  0  0  0
   -1.9753   -0.4818   -0.4650 H   0  0  0  0  0  0  0  0  0  0  0  0
    0.1415   -0.3405   -0.2066 C   0  0  1  0  0  0  0  0  0  0  0  0
    0.8589   -0.8802    0.4220 H   0  0  0  0  0  0  0  0  0  0  0  0
    0.6675   -0.2152   -1.6604 C   0  0  0  0  0  0  0  0  0  0  0  0
   -0.1506   -0.3694   -2.3680 H   0  0  0  0  0  0  0  0  0  0  0  0
    1.0396    0.8000   -1.8252 H   0  0  0  0  0  0  0  0  0  0  0  0
    1.8065   -1.1596   -2.0354 C   0  0  0  0  0  0  0  0  0  0  0  0
    2.0761   -2.1200   -1.3405 O   0  0  0  0  0  0  0  0  0  0  0  0
    2.4761   -0.8652   -3.1697 O   0  0  0  0  0  0  0  0  0  0  0  0
    3.1391   -1.5677   -3.2576 H   0  0  0  0  0  0  0  0  0  0  0  0
   -0.0263    1.0644    0.4011 C   0  0  0  0  0  0  0  0  0  0  0  0
   -0.9628    1.7709    0.0465 O   0  0  0  0  0  0  0  0  0  0  0  0
    0.8762    1.5386    1.3343 N   0  0  0  0  0  0  0  0  0  0  0  0
    1.6069    0.9045    1.6473 H   0  0  0  0  0  0  0  0  0  0  0  0
    0.7536    2.8431    1.9737 C   0  0  0  0  0  0  0  0  0  0  0  0
   -0.1916    2.9141    2.5223 H   0  0  0  0  0  0  0  0  0  0  0  0
    1.5754    2.9968    2.6796 H   0  0  0  0  0  0  0  0  0  0  0  0
    0.7875    3.6417    1.2252 H   0  0  0  0  0  0  0  0  0  0  0  0
  1  2  1  0  0  0  0
  2  3  1  0  0  0  0
  2  4  1  0  0  0  0
  2  5  1  0  0  0  0
  5  6  2  0  0  0  0
  5  7  1  0  0  0  0
  7  8  1  0  0  0  0
  7  9  1  0  0  0  0
  9 10  1  0  0  0  0
  9 11  1  0  0  0  0
  9 18  1  0  0  0  0
 11 12  1  0  0  0  0
 11 13  1  0  0  0  0
 11 14  1  0  0  0  0
 14 15  2  0  0  0  0
 14 16  1  0  0  0  0
 16 17  1  0  0  0  0
 18 19  2  0  0  0  0
 18 20  1  0  0  0  0
 20 21  1  0  0  0  0
 20 22  1  0  0  0  0
 22 23  1  0  0  0  0
 22 24  1  0  0  0  0
 22 25  1  0  0  0  0
M  END
$$$$

  -OEChem-03222214023D

 25 24  0     1  0  0  0  0  0999 V2000
   -2.7300   -3.9942    0.3721 H   0  0  0  0  0  0  0  0  0  0  0  0
   -2.7501   -2.9451    0.0634 C   0  0  0  0  0  0  0  0  0  0  0  0
   -3.4480   -2.4017    0.7049 H   0  0  0  0  0  0  0  0  0  0  0  0
   -3.0966   -2.8901   -0.9713 H   0  0  0  0  0  0  0  0  0  0  0  0
   -1.3632   -2.3408    0.1770 C   0  0  0  0  0  0  0  0  0  0  0  0
   -0.4581   -2.9917    0.6705 O   0  0  0  0  0  0  0  0  0  0  0  0
   -1.1561   -1.0324   -0.2110 N   0  0  0  0  0  0  0  0  0  0  0  0
   -1.9729   -0.4911   -0.4885 H   0  0  0  0  0  0  0  0  0  0  0  0
    0.1411   -0.3381   -0.2029 C   0  0  1  0  0  0  0  0  0  0  0  0
    0.8680   -0.8811    0.4118 H   0  0  0  0  0  0  0  0  0  0  0  0
    0.6541   -0.2023   -1.6598 C   0  0  0  0  0  0  0  0  0  0  0  0
   -0.1672   -0.3529   -2.3642 H   0  0  0  0  0  0  0  0  0  0  0  0
    1.0273    0.8131   -1.8223 H   0  0  0  0  0  0  0  0  0  0  0  0
    1.7874   -1.1521   -2.0332 C   0  0  0  0  0  0  0  0  0  0  0  0
    1.8761   -2.2420   -1.5028 O   0  0  0  0  0  0  0  0  0  0  0  0
    2.6601   -0.7166   -2.9665 O   0  0  0  0  0  0  0  0  0  0  0  0
    3.2890   -1.4464   -3.0796 H   0  0  0  0  0  0  0  0  0  0  0  0
   -0.0244    1.0666    0.4069 C   0  0  0  0  0  0  0  0  0  0  0  0
   -0.9586    1.7763    0.0524 O   0  0  0  0  0  0  0  0  0  0  0  0
    0.8838    1.5415    1.3343 N   0  0  0  0  0  0  0  0  0  0  0  0
    1.6096    0.9043    1.6518 H   0  0  0  0  0  0  0  0  0  0  0  0
    0.7635    2.8462    1.9738 C   0  0  0  0  0  0  0  0  0  0  0  0
   -0.1839    2.9207    2.5182 H   0  0  0  0  0  0  0  0  0  0  0  0
    1.5827    2.9965    2.6836 H   0  0  0  0  0  0  0  0  0  0  0  0
    0.8038    3.6451    1.2258 H   0  0  0  0  0  0  0  0  0  0  0  0
  1  2  1  0  0  0  0
  2  3  1  0  0  0  0
  2  4  1  0  0  0  0
  2  5  1  0  0  0  0
  5  6  2  0  0  0  0
  5  7  1  0  0  0  0
  7  8  1  0  0  0  0
  7  9  1  0  0  0  0
  9 10  1  0  0  0  0
  9 11  1  0  0  0  0
  9 18  1  0  0  0  0
 11 12  1  0  0  0  0
 11 13  1  0  0  0  0
 11 14  1  0  0  0  0
 14 15  2  0  0  0  0
 14 16  1  0  0  0  0
 16 17  1  0  0  0  0
 18 19  2  0  0  0  0
 18 20  1  0  0  0  0
 20 21  1  0  0  0  0
 20 22  1  0  0  0  0
 22 23  1  0  0  0  0
 22 24  1  0  0  0  0
 22 25  1  0  0  0  0
M  END
$$$$

  -OEChem-03222214023D

 25 24  0     1  0  0  0  0  0999 V2000
   -2.7053   -4.0077    0.3566 H   0  0  0  0  0  0  0  0  0  0  0  0
   -2.7344   -2.9588    0.0482 C   0  0  0  0  0  0  0  0  0  0  0  0
   -3.4480   -2.4240    0.6794 H   0  0  0  0  0  0  0  0  0  0  0  0
   -3.0670   -2.9078   -0.9912 H   0  0  0  0  0  0  0  0  0  0  0  0
   -1.3571   -2.3371    0.1822 C   0  0  0  0  0  0  0  0  0  0  0  0
   -0.4524   -2.9727    0.6975 O   0  0  0  0  0  0  0  0  0  0  0  0
   -1.1595   -1.0268   -0.2046 N   0  0  0  0  0  0  0  0  0  0  0  0
   -1.9758   -0.4969   -0.5043 H   0  0  0  0  0  0  0  0  0  0  0  0
    0.1369   -0.3319   -0.2036 C   0  0  1  0  0  0  0  0  0  0  0  0
    0.8723   -0.8780    0.3985 H   0  0  0  0  0  0  0  0  0  0  0  0
    0.6382   -0.1877   -1.6618 C   0  0  0  0  0  0  0  0  0  0  0  0
   -0.1848   -0.3395   -2.3643 H   0  0  0  0  0  0  0  0  0  0  0  0
    1.0109    0.8277   -1.8256 H   0  0  0  0  0  0  0  0  0  0  0  0
    1.7667   -1.1448   -2.0235 C   0  0  0  0  0  0  0  0  0  0  0  0
    1.6927   -2.3137   -1.6993 O   0  0  0  0  0  0  0  0  0  0  0  0
    2.8200   -0.6319   -2.6942 O   0  0  0  0  0  0  0  0  0  0  0  0
    3.4174   -1.3833   -2.8335 H   0  0  0  0  0  0  0  0  0  0  0  0
   -0.0253    1.0711    0.4120 C   0  0  0  0  0  0  0  0  0  0  0  0
   -0.9574    1.7847    0.0600 O   0  0  0  0  0  0  0  0  0  0  0  0
    0.8887    1.5445    1.3347 N   0  0  0  0  0  0  0  0  0  0  0  0
    1.6139    0.9058    1.6501 H   0  0  0  0  0  0  0  0  0  0  0  0
    0.7736    2.8498    1.9741 C   0  0  0  0  0  0  0  0  0  0  0  0
   -0.1701    2.9249    2.5246 H   0  0  0  0  0  0  0  0  0  0  0  0
    1.5976    3.0008    2.6782 H   0  0  0  0  0  0  0  0  0  0  0  0
    0.8089    3.6480    1.2253 H   0  0  0  0  0  0  0  0  0  0  0  0
  1  2  1  0  0  0  0
  2  3  1  0  0  0  0
  2  4  1  0  0  0  0
  2  5  1  0  0  0  0
  5  6  2  0  0  0  0
  5  7  1  0  0  0  0
  7  8  1  0  0  0  0
  7  9  1  0  0  0  0
  9 10  1  0  0  0  0
  9 11  1  0  0  0  0
  9 18  1  0  0  0  0
 11 12  1  0  0  0  0
 11 13  1  0  0  0  0
 11 14  1  0  0  0  0
 14 15  2  0  0  0  0
 14 16  1  0  0  0  0
 16 17  1  0  0  0  0
 18 19  2  0  0  0  0
 18 20  1  0  0  0  0
 20 21  1  0  0  0  0
 20 22  1  0  0  0  0
 22 23  1  0  0  0  0
 22 24  1  0  0  0  0
 22 25  1  0  0  0  0
M  END
$$$$

  -OEChem-03222214023D

 25 24  0     1  0  0  0  0  0999 V2000
   -2.6849   -4.0157    0.3531 H   0  0  0  0  0  0  0  0  0  0  0  0
   -2.7233   -2.9670    0.0458 C   0  0  0  0  0  0  0  0  0  0  0  0
   -3.4373   -2.4384    0.6819 H   0  0  0  0  0  0  0  0  0  0  0  0
   -3.0618   -2.9173   -0.9918 H   0  0  0  0  0  0  0  0  0  0  0  0
   -1.3497   -2.3359    0.1721 C   0  0  0  0  0  0  0  0  0  0  0  0
   -0.4340   -2.9683    0.6728 O   0  0  0  0  0  0  0  0  0  0  0  0
   -1.1630   -1.0223   -0.2095 N   0  0  0  0  0  0  0  0  0  0  0  0
   -1.9832   -0.4949   -0.5028 H   0  0  0  0  0  0  0  0  0  0  0  0
    0.1311   -0.3244   -0.2119 C   0  0  1  0  0  0  0  0  0  0  0  0
    0.8701   -0.8718    0.3843 H   0  0  0  0  0  0  0  0  0  0  0  0
    0.6273   -0.1751   -1.6693 C   0  0  0  0  0  0  0  0  0  0  0  0
   -0.1947   -0.3324   -2.3720 H   0  0  0  0  0  0  0  0  0  0  0  0
    0.9994    0.8399   -1.8374 H   0  0  0  0  0  0  0  0  0  0  0  0
    1.7546   -1.1383   -2.0105 C   0  0  0  0  0  0  0  0  0  0  0  0
    1.5572   -2.3348   -1.9258 O   0  0  0  0  0  0  0  0  0  0  0  0
    2.9443   -0.6087   -2.3672 O   0  0  0  0  0  0  0  0  0  0  0  0
    3.5175   -1.3739   -2.5318 H   0  0  0  0  0  0  0  0  0  0  0  0
   -0.0292    1.0753    0.4119 C   0  0  0  0  0  0  0  0  0  0  0  0
   -0.9672    1.7872    0.0725 O   0  0  0  0  0  0  0  0  0  0  0  0
    0.8891    1.5466    1.3315 N   0  0  0  0  0  0  0  0  0  0  0  0
    1.6274    0.9143    1.6288 H   0  0  0  0  0  0  0  0  0  0  0  0
    0.7781    2.8510    1.9737 C   0  0  0  0  0  0  0  0  0  0  0  0
   -0.1655    2.9285    2.5241 H   0  0  0  0  0  0  0  0  0  0  0  0
    1.6021    2.9973    2.6786 H   0  0  0  0  0  0  0  0  0  0  0  0
    0.8167    3.6506    1.2265 H   0  0  0  0  0  0  0  0  0  0  0  0
  1  2  1  0  0  0  0
  2  3  1  0  0  0  0
  2  4  1  0  0  0  0
  2  5  1  0  0  0  0
  5  6  2  0  0  0  0
  5  7  1  0  0  0  0
  7  8  1  0  0  0  0
  7  9  1  0  0  0  0
  9 10  1  0  0  0  0
  9 11  1  0  0  0  0
  9 18  1  0  0  0  0
 11 12  1  0  0  0  0
 11 13  1  0  0  0  0
 11 14  1  0  0  0  0
 14 15  2  0  0  0  0
 14 16  1  0  0  0  0
 16 17  1  0  0  0  0
 18 19  2  0  0  0  0
 18 20  1  0  0  0  0
 20 21  1  0  0  0  0
 20 22  1  0  0  0  0
 22 23  1  0  0  0  0
 22 24  1  0  0  0  0
 22 25  1  0  0  0  0
M  END
$$$$

  -OEChem-03222214023D

 25 24  0     1  0  0  0  0  0999 V2000
   -2.6712   -4.0191    0.3573 H   0  0  0  0  0  0  0  0  0  0  0  0
   -2.7164   -2.9707    0.0493 C   0  0  0  0  0  0  0  0  0  0  0  0
   -3.4221   -2.4426    0.6949 H   0  0  0  0  0  0  0  0  0  0  0  0
   -3.0702   -2.9232   -0.9833 H   0  0  0  0  0  0  0  0  0  0  0  0
   -1.3424   -2.3364    0.1539 C   0  0  0  0  0  0  0  0  0  0  0  0
   -0.4113   -2.9730    0.6205 O   0  0  0  0  0  0  0  0  0  0  0  0
   -1.1654   -1.0198   -0.2210 N   0  0  0  0  0  0  0  0  0  0  0  0
   -1.9913   -0.4900   -0.4935 H   0  0  0  0  0  0  0  0  0  0  0  0
    0.1258   -0.3174   -0.2211 C   0  0  1  0  0  0  0  0  0  0  0  0
    0.8664   -0.8638    0.3741 H   0  0  0  0  0  0  0  0  0  0  0  0
    0.6221   -0.1664   -1.6757 C   0  0  0  0  0  0  0  0  0  0  0  0
   -0.1965   -0.3278   -2.3818 H   0  0  0  0  0  0  0  0  0  0  0  0
    0.9964    0.8474   -1.8468 H   0  0  0  0  0  0  0  0  0  0  0  0
    1.7503   -1.1343   -1.9924 C   0  0  0  0  0  0  0  0  0  0  0  0
    1.4846   -2.3080   -2.1671 O   0  0  0  0  0  0  0  0  0  0  0  0
    3.0092   -0.6469   -2.0167 O   0  0  0  0  0  0  0  0  0  0  0  0
    3.5686   -1.4152   -2.2122 H   0  0  0  0  0  0  0  0  0  0  0  0
   -0.0341    1.0790    0.4096 C   0  0  0  0  0  0  0  0  0  0  0  0
   -0.9779    1.7883    0.0811 O   0  0  0  0  0  0  0  0  0  0  0  0
    0.8857    1.5472    1.3290 N   0  0  0  0  0  0  0  0  0  0  0  0
    1.6391    0.9230    1.6048 H   0  0  0  0  0  0  0  0  0  0  0  0
    0.7795    2.8515    1.9720 C   0  0  0  0  0  0  0  0  0  0  0  0
   -0.1615    2.9297    2.5267 H   0  0  0  0  0  0  0  0  0  0  0  0
    1.6069    2.9965    2.6733 H   0  0  0  0  0  0  0  0  0  0  0  0
    0.8161    3.6515    1.2250 H   0  0  0  0  0  0  0  0  0  0  0  0
  1  2  1  0  0  0  0
  2  3  1  0  0  0  0
  2  4  1  0  0  0  0
  2  5  1  0  0  0  0
  5  6  2  0  0  0  0
  5  7  1  0  0  0  0
  7  8  1  0  0  0  0
  7  9  1  0  0  0  0
  9 10  1  0  0  0  0
  9 11  1  0  0  0  0
  9 18  1  0  0  0  0
 11 12  1  0  0  0  0
 11 13  1  0  0  0  0
 11 14  1  0  0  0  0
 14 15  2  0  0  0  0
 14 16  1  0  0  0  0
 16 17  1  0  0  0  0
 18 19  2  0  0  0  0
 18 20  1  0  0  0  0
 20 21  1  0  0  0  0
 20 22  1  0  0  0  0
 22 23  1  0  0  0  0
 22 24  1  0  0  0  0
 22 25  1  0  0  0  0
M  END
$$$$

  -OEChem-03222214023D

 25 24  0     1  0  0  0  0  0999 V2000
   -2.6676   -4.0164    0.3705 H   0  0  0  0  0  0  0  0  0  0  0  0
   -2.7173   -2.9681    0.0625 C   0  0  0  0  0  0  0  0  0  0  0  0
   -3.4035   -2.4369    0.7265 H   0  0  0  0  0  0  0  0  0  0  0  0
   -3.0988   -2.9198   -0.9602 H   0  0  0  0  0  0  0  0  0  0  0  0
   -1.3386   -2.3386    0.1295 C   0  0  0  0  0  0  0  0  0  0  0  0
   -0.3923   -2.9850    0.5501 O   0  0  0  0  0  0  0  0  0  0  0  0
   -1.1673   -1.0194   -0.2386 N   0  0  0  0  0  0  0  0  0  0  0  0
   -1.9991   -0.4817   -0.4767 H   0  0  0  0  0  0  0  0  0  0  0  0
    0.1212   -0.3122   -0.2323 C   0  0  1  0  0  0  0  0  0  0  0  0
    0.8588   -0.8571    0.3683 H   0  0  0  0  0  0  0  0  0  0  0  0
    0.6267   -0.1628   -1.6819 C   0  0  0  0  0  0  0  0  0  0  0  0
   -0.1857   -0.3282   -2.3947 H   0  0  0  0  0  0  0  0  0  0  0  0
    1.0045    0.8492   -1.8536 H   0  0  0  0  0  0  0  0  0  0  0  0
    1.7590   -1.1331   -1.9714 C   0  0  0  0  0  0  0  0  0  0  0  0
    1.4881   -2.2362   -2.4067 O   0  0  0  0  0  0  0  0  0  0  0  0
    3.0168   -0.7368   -1.6802 O   0  0  0  0  0  0  0  0  0  0  0  0
    3.5738   -1.4983   -1.9077 H   0  0  0  0  0  0  0  0  0  0  0  0
   -0.0405    1.0812    0.4036 C   0  0  0  0  0  0  0  0  0  0  0  0
   -0.9925    1.7852    0.0878 O   0  0  0  0  0  0  0  0  0  0  0  0
    0.8787    1.5454    1.3255 N   0  0  0  0  0  0  0  0  0  0  0  0
    1.6498    0.9318    1.5755 H   0  0  0  0  0  0  0  0  0  0  0  0
    0.7760    2.8486    1.9707 C   0  0  0  0  0  0  0  0  0  0  0  0
   -0.1669    2.9300    2.5219 H   0  0  0  0  0  0  0  0  0  0  0  0
    1.6012    2.9878    2.6757 H   0  0  0  0  0  0  0  0  0  0  0  0
    0.8189    3.6498    1.2253 H   0  0  0  0  0  0  0  0  0  0  0  0
  1  2  1  0  0  0  0
  2  3  1  0  0  0  0
  2  4  1  0  0  0  0
  2  5  1  0  0  0  0
  5  6  2  0  0  0  0
  5  7  1  0  0  0  0
  7  8  1  0  0  0  0
  7  9  1  0  0  0  0
  9 10  1  0  0  0  0
  9 11  1  0  0  0  0
  9 18  1  0  0  0  0
 11 12  1  0  0  0  0
 11 13  1  0  0  0  0
 11 14  1  0  0  0  0
 14 15  2  0  0  0  0
 14 16  1  0  0  0  0
 16 17  1  0  0  0  0
 18 19  2  0  0  0  0
 18 20  1  0  0  0  0
 20 21  1  0  0  0  0
 20 22  1  0  0  0  0
 22 23  1  0  0  0  0
 22 24  1  0  0  0  0
 22 25  1  0  0  0  0
M  END
$$$$

  -OEChem-03222214023D

 25 24  0     1  0  0  0  0  0999 V2000
   -2.6734   -4.0069    0.3880 H   0  0  0  0  0  0  0  0  0  0  0  0
   -2.7229   -2.9584    0.0810 C   0  0  0  0  0  0  0  0  0  0  0  0
   -3.3835   -2.4209    0.7656 H   0  0  0  0  0  0  0  0  0  0  0  0
   -3.1352   -2.9066   -0.9296 H   0  0  0  0  0  0  0  0  0  0  0  0
   -1.3377   -2.3409    0.1059 C   0  0  0  0  0  0  0  0  0  0  0  0
   -0.3807   -3.0004    0.4795 O   0  0  0  0  0  0  0  0  0  0  0  0
   -1.1683   -1.0202   -0.2571 N   0  0  0  0  0  0  0  0  0  0  0  0
   -2.0047   -0.4725   -0.4539 H   0  0  0  0  0  0  0  0  0  0  0  0
    0.1184   -0.3107   -0.2408 C   0  0  1  0  0  0  0  0  0  0  0  0
    0.8487   -0.8550    0.3693 H   0  0  0  0  0  0  0  0  0  0  0  0
    0.6376   -0.1685   -1.6857 C   0  0  0  0  0  0  0  0  0  0  0  0
   -0.1681   -0.3375   -2.4057 H   0  0  0  0  0  0  0  0  0  0  0  0
    1.0190    0.8420   -1.8575 H   0  0  0  0  0  0  0  0  0  0  0  0
    1.7741   -1.1404   -1.9521 C   0  0  0  0  0  0  0  0  0  0  0  0
    1.5551   -2.1282   -2.6281 O   0  0  0  0  0  0  0  0  0  0  0  0
    2.9753   -0.8693   -1.3963 O   0  0  0  0  0  0  0  0  0  0  0  0
    3.5404   -1.6134   -1.6589 H   0  0  0  0  0  0  0  0  0  0  0  0
   -0.0457    1.0811    0.3975 C   0  0  0  0  0  0  0  0  0  0  0  0
   -1.0024    1.7811    0.0877 O   0  0  0  0  0  0  0  0  0  0  0  0
    0.8693    1.5423    1.3251 N   0  0  0  0  0  0  0  0  0  0  0  0
    1.6519    0.9367    1.5592 H   0  0  0  0  0  0  0  0  0  0  0  0
    0.7667    2.8448    1.9720 C   0  0  0  0  0  0  0  0  0  0  0  0
   -0.1863    2.9355    2.5040 H   0  0  0  0  0  0  0  0  0  0  0  0
    1.5782    2.9733    2.6949 H   0  0  0  0  0  0  0  0  0  0  0  0
    0.8337    3.6469    1.2296 H   0  0  0  0  0  0  0  0  0  0  0  0
  1  2  1  0  0  0  0
  2  3  1  0  0  0  0
  2  4  1  0  0  0  0
  2  5  1  0  0  0  0
  5  6  2  0  0  0  0
  5  7  1  0  0  0  0
  7  8  1  0  0  0  0
  7  9  1  0  0  0  0
  9 10  1  0  0  0  0
  9 11  1  0  0  0  0
  9 18  1  0  0  0  0
 11 12  1  0  0  0  0
 11 13  1  0  0  0  0
 11 14  1  0  0  0  0
 14 15  2  0  0  0  0
 14 16  1  0  0  0  0
 16 17  1  0  0  0  0
 18 19  2  0  0  0  0
 18 20  1  0  0  0  0
 20 21  1  0  0  0  0
 20 22  1  0  0  0  0
 22 23  1  0  0  0  0
 22 24  1  0  0  0  0
 22 25  1  0  0  0  0
M  END
$$$$

  -OEChem-03222214023D

 25 24  0     1  0  0  0  0  0999 V2000
   -2.6899   -3.9949    0.4059 H   0  0  0  0  0  0  0  0  0  0  0  0
   -2.7362   -2.9469    0.0967 C   0  0  0  0  0  0  0  0  0  0  0  0
   -3.3789   -2.4018    0.7922 H   0  0  0  0  0  0  0  0  0  0  0  0
   -3.1679   -2.8945   -0.9057 H   0  0  0  0  0  0  0  0  0  0  0  0
   -1.3453   -2.3416    0.0927 C   0  0  0  0  0  0  0  0  0  0  0  0
   -0.3836   -3.0154    0.4266 O   0  0  0  0  0  0  0  0  0  0  0  0
   -1.1718   -1.0210   -0.2683 N   0  0  0  0  0  0  0  0  0  0  0  0
   -2.0083   -0.4639   -0.4374 H   0  0  0  0  0  0  0  0  0  0  0  0
    0.1155   -0.3128   -0.2404 C   0  0  1  0  0  0  0  0  0  0  0  0
    0.8341   -0.8572    0.3830 H   0  0  0  0  0  0  0  0  0  0  0  0
    0.6512   -0.1832   -1.6810 C   0  0  0  0  0  0  0  0  0  0  0  0
   -0.1492   -0.3542   -2.4065 H   0  0  0  0  0  0  0  0  0  0  0  0
    1.0360    0.8254   -1.8539 H   0  0  0  0  0  0  0  0  0  0  0  0
    1.7913   -1.1561   -1.9350 C   0  0  0  0  0  0  0  0  0  0  0  0
    1.6646   -1.9856   -2.8167 O   0  0  0  0  0  0  0  0  0  0  0  0
    2.9077   -1.0334   -1.1825 O   0  0  0  0  0  0  0  0  0  0  0  0
    3.4899   -1.7463   -1.4903 H   0  0  0  0  0  0  0  0  0  0  0  0
   -0.0496    1.0793    0.3957 C   0  0  0  0  0  0  0  0  0  0  0  0
   -1.0070    1.7777    0.0848 O   0  0  0  0  0  0  0  0  0  0  0  0
    0.8595    1.5377    1.3302 N   0  0  0  0  0  0  0  0  0  0  0  0
    1.6423    0.9324    1.5647 H   0  0  0  0  0  0  0  0  0  0  0  0
    0.7579    2.8425    1.9722 C   0  0  0  0  0  0  0  0  0  0  0  0
   -0.2018    2.9418    2.4905 H   0  0  0  0  0  0  0  0  0  0  0  0
    1.5600    2.9666    2.7060 H   0  0  0  0  0  0  0  0  0  0  0  0
    0.8414    3.6421    1.2287 H   0  0  0  0  0  0  0  0  0  0  0  0
  1  2  1  0  0  0  0
  2  3  1  0  0  0  0
  2  4  1  0  0  0  0
  2  5  1  0  0  0  0
  5  6  2  0  0  0  0
  5  7  1  0  0  0  0
  7  8  1  0  0  0  0
  7  9  1  0  0  0  0
  9 10  1  0  0  0  0
  9 11  1  0  0  0  0
  9 18  1  0  0  0  0
 11 12  1  0  0  0  0
 11 13  1  0  0  0  0
 11 14  1  0  0  0  0
 14 15  2  0  0  0  0
 14 16  1  0  0  0  0
 16 17  1  0  0  0  0
 18 19  2  0  0  0  0
 18 20  1  0  0  0  0
 20 21  1  0  0  0  0
 20 22  1  0  0  0  0
 22 23  1  0  0  0  0
 22 24  1  0  0  0  0
 22 25  1  0  0  0  0
M  END
$$$$

  -OEChem-03222214023D

 25 24  0     1  0  0  0  0  0999 V2000
   -2.7137   -3.9829    0.4259 H   0  0  0  0  0  0  0  0  0  0  0  0
   -2.7547   -2.9364    0.1114 C   0  0  0  0  0  0  0  0  0  0  0  0
   -3.3834   -2.3821    0.8123 H   0  0  0  0  0  0  0  0  0  0  0  0
   -3.1993   -2.8857   -0.8855 H   0  0  0  0  0  0  0  0  0  0  0  0
   -1.3586   -2.3434    0.0863 C   0  0  0  0  0  0  0  0  0  0  0  0
   -0.3971   -3.0291    0.3958 O   0  0  0  0  0  0  0  0  0  0  0  0
   -1.1786   -1.0240   -0.2758 N   0  0  0  0  0  0  0  0  0  0  0  0
   -2.0138   -0.4601   -0.4284 H   0  0  0  0  0  0  0  0  0  0  0  0
    0.1105   -0.3180   -0.2374 C   0  0  1  0  0  0  0  0  0  0  0  0
    0.8144   -0.8632    0.4008 H   0  0  0  0  0  0  0  0  0  0  0  0
    0.6631   -0.2023   -1.6744 C   0  0  0  0  0  0  0  0  0  0  0  0
   -0.1323   -0.3744   -2.4053 H   0  0  0  0  0  0  0  0  0  0  0  0
    1.0501    0.8055   -1.8470 H   0  0  0  0  0  0  0  0  0  0  0  0
    1.8072   -1.1735   -1.9274 C   0  0  0  0  0  0  0  0  0  0  0  0
    1.8031   -1.8067   -2.9670 O   0  0  0  0  0  0  0  0  0  0  0  0
    2.8183   -1.2249   -1.0303 O   0  0  0  0  0  0  0  0  0  0  0  0
    3.4243   -1.8969   -1.3805 H   0  0  0  0  0  0  0  0  0  0  0  0
   -0.0523    1.0770    0.3929 C   0  0  0  0  0  0  0  0  0  0  0  0
   -1.0062    1.7772    0.0756 O   0  0  0  0  0  0  0  0  0  0  0  0
    0.8518    1.5335    1.3333 N   0  0  0  0  0  0  0  0  0  0  0  0
    1.6329    0.9270    1.5705 H   0  0  0  0  0  0  0  0  0  0  0  0
    0.7512    2.8396    1.9734 C   0  0  0  0  0  0  0  0  0  0  0  0
   -0.2152    2.9474    2.4773 H   0  0  0  0  0  0  0  0  0  0  0  0
    1.5431    2.9571    2.7194 H   0  0  0  0  0  0  0  0  0  0  0  0
    0.8526    3.6384    1.2311 H   0  0  0  0  0  0  0  0  0  0  0  0
  1  2  1  0  0  0  0
  2  3  1  0  0  0  0
  2  4  1  0  0  0  0
  2  5  1  0  0  0  0
  5  6  2  0  0  0  0
  5  7  1  0  0  0  0
  7  8  1  0  0  0  0
  7  9  1  0  0  0  0
  9 10  1  0  0  0  0
  9 11  1  0  0  0  0
  9 18  1  0  0  0  0
 11 12  1  0  0  0  0
 11 13  1  0  0  0  0
 11 14  1  0  0  0  0
 14 15  2  0  0  0  0
 14 16  1  0  0  0  0
 16 17  1  0  0  0  0
 18 19  2  0  0  0  0
 18 20  1  0  0  0  0
 20 21  1  0  0  0  0
 20 22  1  0  0  0  0
 22 23  1  0  0  0  0
 22 24  1  0  0  0  0
 22 25  1  0  0  0  0
M  END
$$$$

  -OEChem-03222214023D

 25 24  0     1  0  0  0  0  0999 V2000
   -2.7402   -3.9708    0.4379 H   0  0  0  0  0  0  0  0  0  0  0  0
   -2.7731   -2.9248    0.1204 C   0  0  0  0  0  0  0  0  0  0  0  0
   -3.3953   -2.3631    0.8212 H   0  0  0  0  0  0  0  0  0  0  0  0
   -3.2196   -2.8727   -0.8754 H   0  0  0  0  0  0  0  0  0  0  0  0
   -1.3722   -2.3436    0.0902 C   0  0  0  0  0  0  0  0  0  0  0  0
   -0.4155   -3.0395    0.3908 O   0  0  0  0  0  0  0  0  0  0  0  0
   -1.1827   -1.0267   -0.2755 N   0  0  0  0  0  0  0  0  0  0  0  0
   -2.0150   -0.4564   -0.4215 H   0  0  0  0  0  0  0  0  0  0  0  0
    0.1086   -0.3247   -0.2299 C   0  0  1  0  0  0  0  0  0  0  0  0
    0.7998   -0.8679    0.4225 H   0  0  0  0  0  0  0  0  0  0  0  0
    0.6728   -0.2231   -1.6659 C   0  0  0  0  0  0  0  0  0  0  0  0
   -0.1222   -0.3987   -2.3963 H   0  0  0  0  0  0  0  0  0  0  0  0
    1.0573    0.7850   -1.8420 H   0  0  0  0  0  0  0  0  0  0  0  0
    1.8199   -1.1903   -1.9339 C   0  0  0  0  0  0  0  0  0  0  0  0
    1.9544   -1.5971   -3.0733 O   0  0  0  0  0  0  0  0  0  0  0  0
    2.7073   -1.4513   -0.9469 O   0  0  0  0  0  0  0  0  0  0  0  0
    3.3396   -2.0740   -1.3388 H   0  0  0  0  0  0  0  0  0  0  0  0
   -0.0541    1.0735    0.3928 C   0  0  0  0  0  0  0  0  0  0  0  0
   -1.0046    1.7744    0.0674 O   0  0  0  0  0  0  0  0  0  0  0  0
    0.8448    1.5300    1.3383 N   0  0  0  0  0  0  0  0  0  0  0  0
    1.6155    0.9166    1.5919 H   0  0  0  0  0  0  0  0  0  0  0  0
    0.7454    2.8392    1.9721 C   0  0  0  0  0  0  0  0  0  0  0  0
   -0.2258    2.9549    2.4649 H   0  0  0  0  0  0  0  0  0  0  0  0
    1.5299    2.9549    2.7262 H   0  0  0  0  0  0  0  0  0  0  0  0
    0.8597    3.6341    1.2277 H   0  0  0  0  0  0  0  0  0  0  0  0
  1  2  1  0  0  0  0
  2  3  1  0  0  0  0
  2  4  1  0  0  0  0
  2  5  1  0  0  0  0
  5  6  2  0  0  0  0
  5  7  1  0  0  0  0
  7  8  1  0  0  0  0
  7  9  1  0  0  0  0
  9 10  1  0  0  0  0
  9 11  1  0  0  0  0
  9 18  1  0  0  0  0
 11 12  1  0  0  0  0
 11 13  1  0  0  0  0
 11 14  1  0  0  0  0
 14 15  2  0  0  0  0
 14 16  1  0  0  0  0
 16 17  1  0  0  0  0
 18 19  2  0  0  0  0
 18 20  1  0  0  0  0
 20 21  1  0  0  0  0
 20 22  1  0  0  0  0
 22 23  1  0  0  0  0
 22 24  1  0  0  0  0
 22 25  1  0  0  0  0
M  END
$$$$

  -OEChem-03222214023D

 25 24  0     1  0  0  0  0  0999 V2000
   -2.7668   -3.9594    0.4445 H   0  0  0  0  0  0  0  0  0  0  0  0
   -2.7895   -2.9129    0.1273 C   0  0  0  0  0  0  0  0  0  0  0  0
   -3.4104   -2.3468    0.8258 H   0  0  0  0  0  0  0  0  0  0  0  0
   -3.2314   -2.8569   -0.8703 H   0  0  0  0  0  0  0  0  0  0  0  0
   -1.3834   -2.3437    0.1036 C   0  0  0  0  0  0  0  0  0  0  0  0
   -0.4362   -3.0467    0.4160 O   0  0  0  0  0  0  0  0  0  0  0  0
   -1.1806   -1.0306   -0.2690 N   0  0  0  0  0  0  0  0  0  0  0  0
   -2.0080   -0.4561   -0.4260 H   0  0  0  0  0  0  0  0  0  0  0  0
    0.1145   -0.3346   -0.2203 C   0  0  1  0  0  0  0  0  0  0  0  0
    0.7999   -0.8748    0.4402 H   0  0  0  0  0  0  0  0  0  0  0  0
    0.6834   -0.2367   -1.6567 C   0  0  0  0  0  0  0  0  0  0  0  0
   -0.1136   -0.4058   -2.3860 H   0  0  0  0  0  0  0  0  0  0  0  0
    1.0680    0.7725   -1.8280 H   0  0  0  0  0  0  0  0  0  0  0  0
    1.8305   -1.1991   -1.9527 C   0  0  0  0  0  0  0  0  0  0  0  0
    2.1173   -1.3621   -3.1244 O   0  0  0  0  0  0  0  0  0  0  0  0
    2.5578   -1.7192   -0.9385 O   0  0  0  0  0  0  0  0  0  0  0  0
    3.2152   -2.2898   -1.3657 H   0  0  0  0  0  0  0  0  0  0  0  0
   -0.0505    1.0679    0.3927 C   0  0  0  0  0  0  0  0  0  0  0  0
   -0.9960    1.7694    0.0539 O   0  0  0  0  0  0  0  0  0  0  0  0
    0.8415    1.5297    1.3421 N   0  0  0  0  0  0  0  0  0  0  0  0
    1.6033    0.9134    1.6140 H   0  0  0  0  0  0  0  0  0  0  0  0
    0.7350    2.8413    1.9696 C   0  0  0  0  0  0  0  0  0  0  0  0
   -0.2356    2.9528    2.4643 H   0  0  0  0  0  0  0  0  0  0  0  0
    1.5208    2.9663    2.7208 H   0  0  0  0  0  0  0  0  0  0  0  0
    0.8419    3.6333    1.2211 H   0  0  0  0  0  0  0  0  0  0  0  0
  1  2  1  0  0  0  0
  2  3  1  0  0  0  0
  2  4  1  0  0  0  0
  2  5  1  0  0  0  0
  5  6  2  0  0  0  0
  5  7  1  0  0  0  0
  7  8  1  0  0  0  0
  7  9  1  0  0  0  0
  9 10  1  0  0  0  0
  9 11  1  0  0  0  0
  9 18  1  0  0  0  0
 11 12  1  0  0  0  0
 11 13  1  0  0  0  0
 11 14  1  0  0  0  0
 14 15  2  0  0  0  0
 14 16  1  0  0  0  0
 16 17  1  0  0  0  0
 18 19  2  0  0  0  0
 18 20  1  0  0  0  0
 20 21  1  0  0  0  0
 20 22  1  0  0  0  0
 22 23  1  0  0  0  0
 22 24  1  0  0  0  0
 22 25  1  0  0  0  0
M  END
$$$$

  -OEChem-03222214023D

 25 24  0     1  0  0  0  0  0999 V2000
   -2.8030   -3.9565    0.4342 H   0  0  0  0  0  0  0  0  0  0  0  0
   -2.7994   -2.9133    0.1058 C   0  0  0  0  0  0  0  0  0  0  0  0
   -3.4720   -2.3390    0.7476 H   0  0  0  0  0  0  0  0  0  0  0  0
   -3.1614   -2.8678   -0.9242 H   0  0  0  0  0  0  0  0  0  0  0  0
   -1.3951   -2.3448    0.1869 C   0  0  0  0  0  0  0  0  0  0  0  0
   -0.4941   -3.0235    0.6502 O   0  0  0  0  0  0  0  0  0  0  0  0
   -1.1632   -1.0446   -0.2139 N   0  0  0  0  0  0  0  0  0  0  0  0
   -1.9751   -0.4849   -0.4707 H   0  0  0  0  0  0  0  0  0  0  0  0
    0.1395   -0.3603   -0.1898 C   0  0  1  0  0  0  0  0  0  0  0  0
    0.8529   -0.8968    0.4456 H   0  0  0  0  0  0  0  0  0  0  0  0
    0.6744   -0.2421   -1.6363 C   0  0  0  0  0  0  0  0  0  0  0  0
   -0.1619   -0.1172   -2.3295 H   0  0  0  0  0  0  0  0  0  0  0  0
    1.2976    0.6534   -1.7140 H   0  0  0  0  0  0  0  0  0  0  0  0
    1.5359   -1.4088   -2.1091 C   0  0  0  0  0  0  0  0  0  0  0  0
    1.9673   -1.3397   -3.2454 O   0  0  0  0  0  0  0  0  0  0  0  0
    1.8682   -2.3991   -1.2554 O   0  0  0  0  0  0  0  0  0  0  0  0
    2.4099   -3.0183   -1.7667 H   0  0  0  0  0  0  0  0  0  0  0  0
   -0.0284    1.0540    0.3961 C   0  0  0  0  0  0  0  0  0  0  0  0
   -0.9612    1.7570    0.0258 O   0  0  0  0  0  0  0  0  0  0  0  0
    0.8636    1.5375    1.3349 N   0  0  0  0  0  0  0  0  0  0  0  0
    1.5944    0.9097    1.6592 H   0  0  0  0  0  0  0  0  0  0  0  0
    0.7408    2.8534    1.9509 C   0  0  0  0  0  0  0  0  0  0  0  0
   -0.2073    2.9361    2.4928 H   0  0  0  0  0  0  0  0  0  0  0  0
    1.5591    3.0175    2.6587 H   0  0  0  0  0  0  0  0  0  0  0  0
    0.7810    3.6391    1.1891 H   0  0  0  0  0  0  0  0  0  0  0  0
  1  2  1  0  0  0  0
  2  3  1  0  0  0  0
  2  4  1  0  0  0  0
  2  5  1  0  0  0  0
  5  6  2  0  0  0  0
  5  7  1  0  0  0  0
  7  8  1  0  0  0  0
  7  9  1  0  0  0  0
  9 10  1  0  0  0  0
  9 11  1  0  0  0  0
  9 18  1  0  0  0  0
 11 12  1  0  0  0  0
 11 13  1  0  0  0  0
 11 14  1  0  0  0  0
 14 15  2  0  0  0  0
 14 16  1  0  0  0  0
 16 17  1  0  0  0  0
 18 19  2  0  0  0  0
 18 20  1  0  0  0  0
 20 21  1  0  0  0  0
 20 22  1  0  0  0  0
 22 23  1  0  0  0  0
 22 24  1  0  0  0  0
 22 25  1  0  0  0  0
M  END
$$$$

  -OEChem-03222214023D

 25 24  0     1  0  0  0  0  0999 V2000
   -2.7862   -3.9760    0.4143 H   0  0  0  0  0  0  0  0  0  0  0  0
   -2.7849   -2.9345    0.0809 C   0  0  0  0  0  0  0  0  0  0  0  0
   -3.4984   -2.3694    0.6854 H   0  0  0  0  0  0  0  0  0  0  0  0
   -3.0963   -2.9003   -0.9657 H   0  0  0  0  0  0  0  0  0  0  0  0
   -1.3965   -2.3411    0.2276 C   0  0  0  0  0  0  0  0  0  0  0  0
   -0.5176   -2.9869    0.7742 O   0  0  0  0  0  0  0  0  0  0  0  0
   -1.1644   -1.0438   -0.1834 N   0  0  0  0  0  0  0  0  0  0  0  0
   -1.9670   -0.5046   -0.5036 H   0  0  0  0  0  0  0  0  0  0  0  0
    0.1408   -0.3642   -0.1731 C   0  0  1  0  0  0  0  0  0  0  0  0
    0.8634   -0.9044    0.4489 H   0  0  0  0  0  0  0  0  0  0  0  0
    0.6661   -0.2329   -1.6228 C   0  0  0  0  0  0  0  0  0  0  0  0
   -0.1757   -0.1042   -2.3076 H   0  0  0  0  0  0  0  0  0  0  0  0
    1.2867    0.6651   -1.6990 H   0  0  0  0  0  0  0  0  0  0  0  0
    1.5206   -1.3966   -2.1142 C   0  0  0  0  0  0  0  0  0  0  0  0
    2.1735   -1.2059   -3.1238 O   0  0  0  0  0  0  0  0  0  0  0  0
    1.5414   -2.5600   -1.4343 O   0  0  0  0  0  0  0  0  0  0  0  0
    2.1376   -3.1445   -1.9254 H   0  0  0  0  0  0  0  0  0  0  0  0
   -0.0241    1.0531    0.4077 C   0  0  0  0  0  0  0  0  0  0  0  0
   -0.9476    1.7625    0.0259 O   0  0  0  0  0  0  0  0  0  0  0  0
    0.8740    1.5402    1.3388 N   0  0  0  0  0  0  0  0  0  0  0  0
    1.5928    0.9062    1.6776 H   0  0  0  0  0  0  0  0  0  0  0  0
    0.7608    2.8630    1.9417 C   0  0  0  0  0  0  0  0  0  0  0  0
   -0.1823    2.9550    2.4906 H   0  0  0  0  0  0  0  0  0  0  0  0
    1.5859    3.0319    2.6405 H   0  0  0  0  0  0  0  0  0  0  0  0
    0.7972    3.6403    1.1711 H   0  0  0  0  0  0  0  0  0  0  0  0
  1  2  1  0  0  0  0
  2  3  1  0  0  0  0
  2  4  1  0  0  0  0
  2  5  1  0  0  0  0
  5  6  2  0  0  0  0
  5  7  1  0  0  0  0
  7  8  1  0  0  0  0
  7  9  1  0  0  0  0
  9 10  1  0  0  0  0
  9 11  1  0  0  0  0
  9 18  1  0  0  0  0
 11 12  1  0  0  0  0
 11 13  1  0  0  0  0
 11 14  1  0  0  0  0
 14 15  2  0  0  0  0
 14 16  1  0  0  0  0
 16 17  1  0  0  0  0
 18 19  2  0  0  0  0
 18 20  1  0  0  0  0
 20 21  1  0  0  0  0
 20 22  1  0  0  0  0
 22 23  1  0  0  0  0
 22 24  1  0  0  0  0
 22 25  1  0  0  0  0
M  END
$$$$

  -OEChem-03222214023D

 25 24  0     1  0  0  0  0  0999 V2000
   -2.7639   -3.9910    0.4022 H   0  0  0  0  0  0  0  0  0  0  0  0
   -2.7714   -2.9476    0.0746 C   0  0  0  0  0  0  0  0  0  0  0  0
   -3.4959   -2.3933    0.6760 H   0  0  0  0  0  0  0  0  0  0  0  0
   -3.0738   -2.9110   -0.9747 H   0  0  0  0  0  0  0  0  0  0  0  0
   -1.3912   -2.3396    0.2365 C   0  0  0  0  0  0  0  0  0  0  0  0
   -0.5132   -2.9704    0.8036 O   0  0  0  0  0  0  0  0  0  0  0  0
   -1.1663   -1.0411   -0.1754 N   0  0  0  0  0  0  0  0  0  0  0  0
   -1.9668   -0.5109   -0.5147 H   0  0  0  0  0  0  0  0  0  0  0  0
    0.1400   -0.3652   -0.1710 C   0  0  1  0  0  0  0  0  0  0  0  0
    0.8664   -0.9093    0.4432 H   0  0  0  0  0  0  0  0  0  0  0  0
    0.6646   -0.2235   -1.6195 C   0  0  0  0  0  0  0  0  0  0  0  0
   -0.1765   -0.0930   -2.3050 H   0  0  0  0  0  0  0  0  0  0  0  0
    1.2852    0.6751   -1.6929 H   0  0  0  0  0  0  0  0  0  0  0  0
    1.5130   -1.3937   -2.1042 C   0  0  0  0  0  0  0  0  0  0  0  0
    2.3787   -1.1472   -2.9240 O   0  0  0  0  0  0  0  0  0  0  0  0
    1.2407   -2.6417   -1.6747 O   0  0  0  0  0  0  0  0  0  0  0  0
    1.8826   -3.2192   -2.1136 H   0  0  0  0  0  0  0  0  0  0  0  0
   -0.0232    1.0508    0.4143 C   0  0  0  0  0  0  0  0  0  0  0  0
   -0.9445    1.7631    0.0326 O   0  0  0  0  0  0  0  0  0  0  0  0
    0.8773    1.5380    1.3431 N   0  0  0  0  0  0  0  0  0  0  0  0
    1.6005    0.9069    1.6776 H   0  0  0  0  0  0  0  0  0  0  0  0
    0.7702    2.8655    1.9370 C   0  0  0  0  0  0  0  0  0  0  0  0
   -0.1758    2.9680    2.4792 H   0  0  0  0  0  0  0  0  0  0  0  0
    1.5918    3.0339    2.6399 H   0  0  0  0  0  0  0  0  0  0  0  0
    0.8168    3.6370    1.1611 H   0  0  0  0  0  0  0  0  0  0  0  0
  1  2  1  0  0  0  0
  2  3  1  0  0  0  0
  2  4  1  0  0  0  0
  2  5  1  0  0  0  0
  5  6  2  0  0  0  0
  5  7  1  0  0  0  0
  7  8  1  0  0  0  0
  7  9  1  0  0  0  0
  9 10  1  0  0  0  0
  9 11  1  0  0  0  0
  9 18  1  0  0  0  0
 11 12  1  0  0  0  0
 11 13  1  0  0  0  0
 11 14  1  0  0  0  0
 14 15  2  0  0  0  0
 14 16  1  0  0  0  0
 16 17  1  0  0  0  0
 18 19  2  0  0  0  0
 18 20  1  0  0  0  0
 20 21  1  0  0  0  0
 20 22  1  0  0  0  0
 22 23  1  0  0  0  0
 22 24  1  0  0  0  0
 22 25  1  0  0  0  0
M  END
$$$$

  -OEChem-03222214023D

 25 24  0     1  0  0  0  0  0999 V2000
   -2.7492   -3.9956    0.4104 H   0  0  0  0  0  0  0  0  0  0  0  0
   -2.7651   -2.9541    0.0776 C   0  0  0  0  0  0  0  0  0  0  0  0
   -3.4835   -2.3998    0.6861 H   0  0  0  0  0  0  0  0  0  0  0  0
   -3.0817   -2.9242   -0.9677 H   0  0  0  0  0  0  0  0  0  0  0  0
   -1.3850   -2.3402    0.2178 C   0  0  0  0  0  0  0  0  0  0  0  0
   -0.4888   -2.9738    0.7536 O   0  0  0  0  0  0  0  0  0  0  0  0
   -1.1719   -1.0375   -0.1875 N   0  0  0  0  0  0  0  0  0  0  0  0
   -1.9784   -0.5056   -0.5099 H   0  0  0  0  0  0  0  0  0  0  0  0
    0.1326   -0.3591   -0.1835 C   0  0  1  0  0  0  0  0  0  0  0  0
    0.8603   -0.9045    0.4279 H   0  0  0  0  0  0  0  0  0  0  0  0
    0.6583   -0.2154   -1.6290 C   0  0  0  0  0  0  0  0  0  0  0  0
   -0.1798   -0.0917   -2.3192 H   0  0  0  0  0  0  0  0  0  0  0  0
    1.2776    0.6838   -1.7056 H   0  0  0  0  0  0  0  0  0  0  0  0
    1.5050   -1.3961   -2.0870 C   0  0  0  0  0  0  0  0  0  0  0  0
    2.5448   -1.1499   -2.6710 O   0  0  0  0  0  0  0  0  0  0  0  0
    1.0258   -2.6469   -1.9282 O   0  0  0  0  0  0  0  0  0  0  0  0
    1.7040   -3.2364   -2.2902 H   0  0  0  0  0  0  0  0  0  0  0  0
   -0.0274    1.0535    0.4110 C   0  0  0  0  0  0  0  0  0  0  0  0
   -0.9534    1.7662    0.0418 O   0  0  0  0  0  0  0  0  0  0  0  0
    0.8780    1.5342    1.3383 N   0  0  0  0  0  0  0  0  0  0  0  0
    1.6103    0.9046    1.6552 H   0  0  0  0  0  0  0  0  0  0  0  0
    0.7785    2.8588    1.9394 C   0  0  0  0  0  0  0  0  0  0  0  0
   -0.1636    2.9614    2.4880 H   0  0  0  0  0  0  0  0  0  0  0  0
    1.6047    3.0200    2.6385 H   0  0  0  0  0  0  0  0  0  0  0  0
    0.8233    3.6346    1.1678 H   0  0  0  0  0  0  0  0  0  0  0  0
  1  2  1  0  0  0  0
  2  3  1  0  0  0  0
  2  4  1  0  0  0  0
  2  5  1  0  0  0  0
  5  6  2  0  0  0  0
  5  7  1  0  0  0  0
  7  8  1  0  0  0  0
  7  9  1  0  0  0  0
  9 10  1  0  0  0  0
  9 11  1  0  0  0  0
  9 18  1  0  0  0  0
 11 12  1  0  0  0  0
 11 13  1  0  0  0  0
 11 14  1  0  0  0  0
 14 15  2  0  0  0  0
 14 16  1  0  0  0  0
 16 17  1  0  0  0  0
 18 19  2  0  0  0  0
 18 20  1  0  0  0  0
 20 21  1  0  0  0  0
 20 22  1  0  0  0  0
 22 23  1  0  0  0  0
 22 24  1  0  0  0  0
 22 25  1  0  0  0  0
M  END
$$$$

  -OEChem-03222214023D

 25 24  0     1  0  0  0  0  0999 V2000
   -2.7393   -3.9950    0.4089 H   0  0  0  0  0  0  0  0  0  0  0  0
   -2.7623   -2.9510    0.0842 C   0  0  0  0  0  0  0  0  0  0  0  0
   -3.4572   -2.3983    0.7208 H   0  0  0  0  0  0  0  0  0  0  0  0
   -3.1142   -2.9118   -0.9495 H   0  0  0  0  0  0  0  0  0  0  0  0
   -1.3760   -2.3430    0.1805 C   0  0  0  0  0  0  0  0  0  0  0  0
   -0.4563   -2.9930    0.6532 O   0  0  0  0  0  0  0  0  0  0  0  0
   -1.1743   -1.0345   -0.2108 N   0  0  0  0  0  0  0  0  0  0  0  0
   -1.9910   -0.4917   -0.4865 H   0  0  0  0  0  0  0  0  0  0  0  0
    0.1263   -0.3503   -0.2040 C   0  0  1  0  0  0  0  0  0  0  0  0
    0.8559   -0.8961    0.4049 H   0  0  0  0  0  0  0  0  0  0  0  0
    0.6484   -0.2080   -1.6483 C   0  0  0  0  0  0  0  0  0  0  0  0
   -0.1877   -0.0940   -2.3427 H   0  0  0  0  0  0  0  0  0  0  0  0
    1.2665    0.6913   -1.7328 H   0  0  0  0  0  0  0  0  0  0  0  0
    1.4939   -1.3993   -2.0754 C   0  0  0  0  0  0  0  0  0  0  0  0
    2.6499   -1.1906   -2.3973 O   0  0  0  0  0  0  0  0  0  0  0  0
    0.9021   -2.6082   -2.1770 O   0  0  0  0  0  0  0  0  0  0  0  0
    1.6027   -3.2183   -2.4523 H   0  0  0  0  0  0  0  0  0  0  0  0
   -0.0326    1.0551    0.4059 C   0  0  0  0  0  0  0  0  0  0  0  0
   -0.9688    1.7650    0.0578 O   0  0  0  0  0  0  0  0  0  0  0  0
    0.8766    1.5280    1.3336 N   0  0  0  0  0  0  0  0  0  0  0  0
    1.6255    0.9050    1.6237 H   0  0  0  0  0  0  0  0  0  0  0  0
    0.7810    2.8480    1.9453 C   0  0  0  0  0  0  0  0  0  0  0  0
   -0.1629    2.9506    2.4910 H   0  0  0  0  0  0  0  0  0  0  0  0
    1.6052    2.9999    2.6489 H   0  0  0  0  0  0  0  0  0  0  0  0
    0.8320    3.6296    1.1799 H   0  0  0  0  0  0  0  0  0  0  0  0
  1  2  1  0  0  0  0
  2  3  1  0  0  0  0
  2  4  1  0  0  0  0
  2  5  1  0  0  0  0
  5  6  2  0  0  0  0
  5  7  1  0  0  0  0
  7  8  1  0  0  0  0
  7  9  1  0  0  0  0
  9 10  1  0  0  0  0
  9 11  1  0  0  0  0
  9 18  1  0  0  0  0
 11 12  1  0  0  0  0
 11 13  1  0  0  0  0
 11 14  1  0  0  0  0
 14 15  2  0  0  0  0
 14 16  1  0  0  0  0
 16 17  1  0  0  0  0
 18 19  2  0  0  0  0
 18 20  1  0  0  0  0
 20 21  1  0  0  0  0
 20 22  1  0  0  0  0
 22 23  1  0  0  0  0
 22 24  1  0  0  0  0
 22 25  1  0  0  0  0
M  END
$$$$

  -OEChem-03222214023D

 25 24  0     1  0  0  0  0  0999 V2000
   -2.7265   -3.9928    0.4074 H   0  0  0  0  0  0  0  0  0  0  0  0
   -2.7585   -2.9474    0.0880 C   0  0  0  0  0  0  0  0  0  0  0  0
   -3.4271   -2.3954    0.7528 H   0  0  0  0  0  0  0  0  0  0  0  0
   -3.1492   -2.9028   -0.9314 H   0  0  0  0  0  0  0  0  0  0  0  0
   -1.3676   -2.3443    0.1345 C   0  0  0  0  0  0  0  0  0  0  0  0
   -0.4261   -3.0109    0.5361 O   0  0  0  0  0  0  0  0  0  0  0  0
   -1.1772   -1.0295   -0.2403 N   0  0  0  0  0  0  0  0  0  0  0  0
   -2.0032   -0.4756   -0.4616 H   0  0  0  0  0  0  0  0  0  0  0  0
    0.1196   -0.3387   -0.2277 C   0  0  1  0  0  0  0  0  0  0  0  0
    0.8506   -0.8868    0.3779 H   0  0  0  0  0  0  0  0  0  0  0  0
    0.6375   -0.1973   -1.6709 C   0  0  0  0  0  0  0  0  0  0  0  0
   -0.1966   -0.0892   -2.3689 H   0  0  0  0  0  0  0  0  0  0  0  0
    1.2575    0.7001   -1.7617 H   0  0  0  0  0  0  0  0  0  0  0  0
    1.4823   -1.3967   -2.0695 C   0  0  0  0  0  0  0  0  0  0  0  0
    2.6912   -1.2546   -2.1168 O   0  0  0  0  0  0  0  0  0  0  0  0
    0.8512   -2.5392   -2.4165 O   0  0  0  0  0  0  0  0  0  0  0  0
    1.5565   -3.1782   -2.5987 H   0  0  0  0  0  0  0  0  0  0  0  0
   -0.0369    1.0592    0.3990 C   0  0  0  0  0  0  0  0  0  0  0  0
   -0.9833    1.7661    0.0732 O   0  0  0  0  0  0  0  0  0  0  0  0
    0.8760    1.5224    1.3280 N   0  0  0  0  0  0  0  0  0  0  0  0
    1.6422    0.9068    1.5880 H   0  0  0  0  0  0  0  0  0  0  0  0
    0.7828    2.8357    1.9544 C   0  0  0  0  0  0  0  0  0  0  0  0
   -0.1605    2.9338    2.5021 H   0  0  0  0  0  0  0  0  0  0  0  0
    1.6076    2.9781    2.6594 H   0  0  0  0  0  0  0  0  0  0  0  0
    0.8349    3.6254    1.1974 H   0  0  0  0  0  0  0  0  0  0  0  0
  1  2  1  0  0  0  0
  2  3  1  0  0  0  0
  2  4  1  0  0  0  0
  2  5  1  0  0  0  0
  5  6  2  0  0  0  0
  5  7  1  0  0  0  0
  7  8  1  0  0  0  0
  7  9  1  0  0  0  0
  9 10  1  0  0  0  0
  9 11  1  0  0  0  0
  9 18  1  0  0  0  0
 11 12  1  0  0  0  0
 11 13  1  0  0  0  0
 11 14  1  0  0  0  0
 14 15  2  0  0  0  0
 14 16  1  0  0  0  0
 16 17  1  0  0  0  0
 18 19  2  0  0  0  0
 18 20  1  0  0  0  0
 20 21  1  0  0  0  0
 20 22  1  0  0  0  0
 22 23  1  0  0  0  0
 22 24  1  0  0  0  0
 22 25  1  0  0  0  0
M  END
$$$$

  -OEChem-03222214023D

 25 24  0     1  0  0  0  0  0999 V2000
   -2.7173   -3.9888    0.4093 H   0  0  0  0  0  0  0  0  0  0  0  0
   -2.7558   -2.9416    0.0960 C   0  0  0  0  0  0  0  0  0  0  0  0
   -3.3975   -2.3901    0.7873 H   0  0  0  0  0  0  0  0  0  0  0  0
   -3.1836   -2.8900   -0.9081 H   0  0  0  0  0  0  0  0  0  0  0  0
   -1.3613   -2.3447    0.0949 C   0  0  0  0  0  0  0  0  0  0  0  0
   -0.4052   -3.0254    0.4322 O   0  0  0  0  0  0  0  0  0  0  0  0
   -1.1791   -1.0253   -0.2666 N   0  0  0  0  0  0  0  0  0  0  0  0
   -2.0119   -0.4639   -0.4392 H   0  0  0  0  0  0  0  0  0  0  0  0
    0.1141   -0.3272   -0.2488 C   0  0  1  0  0  0  0  0  0  0  0  0
    0.8455   -0.8767    0.3555 H   0  0  0  0  0  0  0  0  0  0  0  0
    0.6309   -0.1883   -1.6908 C   0  0  0  0  0  0  0  0  0  0  0  0
   -0.2017   -0.0860   -2.3916 H   0  0  0  0  0  0  0  0  0  0  0  0
    1.2512    0.7077   -1.7865 H   0  0  0  0  0  0  0  0  0  0  0  0
    1.4794   -1.3894   -2.0709 C   0  0  0  0  0  0  0  0  0  0  0  0
    2.6762   -1.3355   -1.8492 O   0  0  0  0  0  0  0  0  0  0  0  0
    0.8741   -2.4438   -2.6593 O   0  0  0  0  0  0  0  0  0  0  0  0
    1.5707   -3.1090   -2.7670 H   0  0  0  0  0  0  0  0  0  0  0  0
   -0.0409    1.0646    0.3902 C   0  0  0  0  0  0  0  0  0  0  0  0
   -0.9954    1.7686    0.0828 O   0  0  0  0  0  0  0  0  0  0  0  0
    0.8755    1.5193    1.3197 N   0  0  0  0  0  0  0  0  0  0  0  0
    1.6522    0.9074    1.5574 H   0  0  0  0  0  0  0  0  0  0  0  0
    0.7823    2.8239    1.9639 C   0  0  0  0  0  0  0  0  0  0  0  0
   -0.1658    2.9185    2.5037 H   0  0  0  0  0  0  0  0  0  0  0  0
    1.6004    2.9517    2.6794 H   0  0  0  0  0  0  0  0  0  0  0  0
    0.8457    3.6243    1.2193 H   0  0  0  0  0  0  0  0  0  0  0  0
  1  2  1  0  0  0  0
  2  3  1  0  0  0  0
  2  4  1  0  0  0  0
  2  5  1  0  0  0  0
  5  6  2  0  0  0  0
  5  7  1  0  0  0  0
  7  8  1  0  0  0  0
  7  9  1  0  0  0  0
  9 10  1  0  0  0  0
  9 11  1  0  0  0  0
  9 18  1  0  0  0  0
 11 12  1  0  0  0  0
 11 13  1  0  0  0  0
 11 14  1  0  0  0  0
 14 15  2  0  0  0  0
 14 16  1  0  0  0  0
 16 17  1  0  0  0  0
 18 19  2  0  0  0  0
 18 20  1  0  0  0  0
 20 21  1  0  0  0  0
 20 22  1  0  0  0  0
 22 23  1  0  0  0  0
 22 24  1  0  0  0  0
 22 25  1  0  0  0  0
M  END
$$$$

  -OEChem-03222214023D

 25 24  0     1  0  0  0  0  0999 V2000
   -2.7127   -3.9847    0.4155 H   0  0  0  0  0  0  0  0  0  0  0  0
   -2.7558   -2.9374    0.1039 C   0  0  0  0  0  0  0  0  0  0  0  0
   -3.3775   -2.3845    0.8122 H   0  0  0  0  0  0  0  0  0  0  0  0
   -3.2095   -2.8842   -0.8886 H   0  0  0  0  0  0  0  0  0  0  0  0
   -1.3594   -2.3455    0.0666 C   0  0  0  0  0  0  0  0  0  0  0  0
   -0.3953   -3.0370    0.3536 O   0  0  0  0  0  0  0  0  0  0  0  0
   -1.1826   -1.0229   -0.2851 N   0  0  0  0  0  0  0  0  0  0  0  0
   -2.0196   -0.4577   -0.4212 H   0  0  0  0  0  0  0  0  0  0  0  0
    0.1070   -0.3174   -0.2622 C   0  0  1  0  0  0  0  0  0  0  0  0
    0.8351   -0.8677    0.3456 H   0  0  0  0  0  0  0  0  0  0  0  0
    0.6287   -0.1820   -1.7026 C   0  0  0  0  0  0  0  0  0  0  0  0
   -0.2021   -0.0857   -2.4065 H   0  0  0  0  0  0  0  0  0  0  0  0
    1.2465    0.7151   -1.8004 H   0  0  0  0  0  0  0  0  0  0  0  0
    1.4864   -1.3793   -2.0742 C   0  0  0  0  0  0  0  0  0  0  0  0
    2.6105   -1.4403   -1.6071 O   0  0  0  0  0  0  0  0  0  0  0  0
    0.9676   -2.3132   -2.9007 O   0  0  0  0  0  0  0  0  0  0  0  0
    1.6439   -3.0056   -2.9541 H   0  0  0  0  0  0  0  0  0  0  0  0
   -0.0459    1.0706    0.3842 C   0  0  0  0  0  0  0  0  0  0  0  0
   -1.0057    1.7733    0.0907 O   0  0  0  0  0  0  0  0  0  0  0  0
    0.8743    1.5175    1.3134 N   0  0  0  0  0  0  0  0  0  0  0  0
    1.6562    0.9065    1.5362 H   0  0  0  0  0  0  0  0  0  0  0  0
    0.7832    2.8154    1.9707 C   0  0  0  0  0  0  0  0  0  0  0  0
   -0.1628    2.9043    2.5152 H   0  0  0  0  0  0  0  0  0  0  0  0
    1.6043    2.9366    2.6838 H   0  0  0  0  0  0  0  0  0  0  0  0
    0.8432    3.6228    1.2334 H   0  0  0  0  0  0  0  0  0  0  0  0
  1  2  1  0  0  0  0
  2  3  1  0  0  0  0
  2  4  1  0  0  0  0
  2  5  1  0  0  0  0
  5  6  2  0  0  0  0
  5  7  1  0  0  0  0
  7  8  1  0  0  0  0
  7  9  1  0  0  0  0
  9 10  1  0  0  0  0
  9 11  1  0  0  0  0
  9 18  1  0  0  0  0
 11 12  1  0  0  0  0
 11 13  1  0  0  0  0
 11 14  1  0  0  0  0
 14 15  2  0  0  0  0
 14 16  1  0  0  0  0
 16 17  1  0  0  0  0
 18 19  2  0  0  0  0
 18 20  1  0  0  0  0
 20 21  1  0  0  0  0
 20 22  1  0  0  0  0
 22 23  1  0  0  0  0
 22 24  1  0  0  0  0
 22 25  1  0  0  0  0
M  END
$$$$

  -OEChem-03222214023D

 25 24  0     1  0  0  0  0  0999 V2000
   -2.7217   -3.9772    0.4292 H   0  0  0  0  0  0  0  0  0  0  0  0
   -2.7598   -2.9301    0.1159 C   0  0  0  0  0  0  0  0  0  0  0  0
   -3.3729   -2.3717    0.8275 H   0  0  0  0  0  0  0  0  0  0  0  0
   -3.2198   -2.8750   -0.8737 H   0  0  0  0  0  0  0  0  0  0  0  0
   -1.3597   -2.3478    0.0685 C   0  0  0  0  0  0  0  0  0  0  0  0
   -0.3989   -3.0468    0.3453 O   0  0  0  0  0  0  0  0  0  0  0  0
   -1.1776   -1.0267   -0.2853 N   0  0  0  0  0  0  0  0  0  0  0  0
   -2.0138   -0.4582   -0.4136 H   0  0  0  0  0  0  0  0  0  0  0  0
    0.1117   -0.3199   -0.2589 C   0  0  1  0  0  0  0  0  0  0  0  0
    0.8348   -0.8682    0.3564 H   0  0  0  0  0  0  0  0  0  0  0  0
    0.6366   -0.1888   -1.7009 C   0  0  0  0  0  0  0  0  0  0  0  0
   -0.1969   -0.0907   -2.4014 H   0  0  0  0  0  0  0  0  0  0  0  0
    1.2514    0.7099   -1.7979 H   0  0  0  0  0  0  0  0  0  0  0  0
    1.5019   -1.3761   -2.0937 C   0  0  0  0  0  0  0  0  0  0  0  0
    2.5084   -1.5957   -1.4422 O   0  0  0  0  0  0  0  0  0  0  0  0
    1.1159   -2.1297   -3.1456 O   0  0  0  0  0  0  0  0  0  0  0  0
    1.7675   -2.8464   -3.1918 H   0  0  0  0  0  0  0  0  0  0  0  0
   -0.0452    1.0696    0.3828 C   0  0  0  0  0  0  0  0  0  0  0  0
   -1.0048    1.7704    0.0841 O   0  0  0  0  0  0  0  0  0  0  0  0
    0.8709    1.5194    1.3146 N   0  0  0  0  0  0  0  0  0  0  0  0
    1.6485    0.9062    1.5467 H   0  0  0  0  0  0  0  0  0  0  0  0
    0.7734    2.8162    1.9730 C   0  0  0  0  0  0  0  0  0  0  0  0
   -0.1785    2.9051    2.5073 H   0  0  0  0  0  0  0  0  0  0  0  0
    1.5865    2.9356    2.6956 H   0  0  0  0  0  0  0  0  0  0  0  0
    0.8419    3.6248    1.2378 H   0  0  0  0  0  0  0  0  0  0  0  0
  1  2  1  0  0  0  0
  2  3  1  0  0  0  0
  2  4  1  0  0  0  0
  2  5  1  0  0  0  0
  5  6  2  0  0  0  0
  5  7  1  0  0  0  0
  7  8  1  0  0  0  0
  7  9  1  0  0  0  0
  9 10  1  0  0  0  0
  9 11  1  0  0  0  0
  9 18  1  0  0  0  0
 11 12  1  0  0  0  0
 11 13  1  0  0  0  0
 11 14  1  0  0  0  0
 14 15  2  0  0  0  0
 14 16  1  0  0  0  0
 16 17  1  0  0  0  0
 18 19  2  0  0  0  0
 18 20  1  0  0  0  0
 20 21  1  0  0  0  0
 20 22  1  0  0  0  0
 22 23  1  0  0  0  0
 22 24  1  0  0  0  0
 22 25  1  0  0  0  0
M  END
$$$$

  -OEChem-03222214023D

 25 24  0     1  0  0  0  0  0999 V2000
   -2.7427   -3.9697    0.4378 H   0  0  0  0  0  0  0  0  0  0  0  0
   -2.7682   -2.9225    0.1234 C   0  0  0  0  0  0  0  0  0  0  0  0
   -3.3832   -2.3580    0.8283 H   0  0  0  0  0  0  0  0  0  0  0  0
   -3.2179   -2.8639   -0.8706 H   0  0  0  0  0  0  0  0  0  0  0  0
   -1.3625   -2.3529    0.0895 C   0  0  0  0  0  0  0  0  0  0  0  0
   -0.4134   -3.0565    0.3915 O   0  0  0  0  0  0  0  0  0  0  0  0
   -1.1664   -1.0363   -0.2731 N   0  0  0  0  0  0  0  0  0  0  0  0
   -1.9977   -0.4645   -0.4168 H   0  0  0  0  0  0  0  0  0  0  0  0
    0.1258   -0.3342   -0.2425 C   0  0  1  0  0  0  0  0  0  0  0  0
    0.8433   -0.8799    0.3807 H   0  0  0  0  0  0  0  0  0  0  0  0
    0.6524   -0.2032   -1.6870 C   0  0  0  0  0  0  0  0  0  0  0  0
   -0.1853   -0.0948   -2.3812 H   0  0  0  0  0  0  0  0  0  0  0  0
    1.2663    0.6966   -1.7776 H   0  0  0  0  0  0  0  0  0  0  0  0
    1.5207   -1.3769   -2.1206 C   0  0  0  0  0  0  0  0  0  0  0  0
    2.3757   -1.7930   -1.3589 O   0  0  0  0  0  0  0  0  0  0  0  0
    1.3035   -1.8983   -3.3471 O   0  0  0  0  0  0  0  0  0  0  0  0
    1.9254   -2.6391   -3.4168 H   0  0  0  0  0  0  0  0  0  0  0  0
   -0.0387    1.0601    0.3874 C   0  0  0  0  0  0  0  0  0  0  0  0
   -0.9906    1.7611    0.0649 O   0  0  0  0  0  0  0  0  0  0  0  0
    0.8658    1.5205    1.3254 N   0  0  0  0  0  0  0  0  0  0  0  0
    1.6296    0.9026    1.5888 H   0  0  0  0  0  0  0  0  0  0  0  0
    0.7583    2.8250    1.9674 C   0  0  0  0  0  0  0  0  0  0  0  0
   -0.1934    2.9126    2.5022 H   0  0  0  0  0  0  0  0  0  0  0  0
    1.5719    2.9614    2.6864 H   0  0  0  0  0  0  0  0  0  0  0  0
    0.8182    3.6242    1.2211 H   0  0  0  0  0  0  0  0  0  0  0  0
  1  2  1  0  0  0  0
  2  3  1  0  0  0  0
  2  4  1  0  0  0  0
  2  5  1  0  0  0  0
  5  6  2  0  0  0  0
  5  7  1  0  0  0  0
  7  8  1  0  0  0  0
  7  9  1  0  0  0  0
  9 10  1  0  0  0  0
  9 11  1  0  0  0  0
  9 18  1  0  0  0  0
 11 12  1  0  0  0  0
 11 13  1  0  0  0  0
 11 14  1  0  0  0  0
 14 15  2  0  0  0  0
 14 16  1  0  0  0  0
 16 17  1  0  0  0  0
 18 19  2  0  0  0  0
 18 20  1  0  0  0  0
 20 21  1  0  0  0  0
 20 22  1  0  0  0  0
 22 23  1  0  0  0  0
 22 24  1  0  0  0  0
 22 25  1  0  0  0  0
M  END
$$$$

  -OEChem-03222214023D

 25 24  0     1  0  0  0  0  0999 V2000
   -2.7507   -3.9709    0.4335 H   0  0  0  0  0  0  0  0  0  0  0  0
   -2.7686   -2.9228    0.1217 C   0  0  0  0  0  0  0  0  0  0  0  0
   -3.4003   -2.3601    0.8130 H   0  0  0  0  0  0  0  0  0  0  0  0
   -3.1946   -2.8620   -0.8824 H   0  0  0  0  0  0  0  0  0  0  0  0
   -1.3626   -2.3532    0.1235 C   0  0  0  0  0  0  0  0  0  0  0  0
   -0.4277   -3.0479    0.4830 O   0  0  0  0  0  0  0  0  0  0  0  0
   -1.1570   -1.0420   -0.2535 N   0  0  0  0  0  0  0  0  0  0  0  0
   -1.9843   -0.4744   -0.4325 H   0  0  0  0  0  0  0  0  0  0  0  0
    0.1373   -0.3430   -0.2273 C   0  0  1  0  0  0  0  0  0  0  0  0
    0.8555   -0.8824    0.4006 H   0  0  0  0  0  0  0  0  0  0  0  0
    0.6610   -0.2154   -1.6761 C   0  0  0  0  0  0  0  0  0  0  0  0
   -0.1817   -0.1021   -2.3631 H   0  0  0  0  0  0  0  0  0  0  0  0
    1.2724    0.6863   -1.7654 H   0  0  0  0  0  0  0  0  0  0  0  0
    1.5306   -1.3774   -2.1444 C   0  0  0  0  0  0  0  0  0  0  0  0
    2.2073   -1.9925   -1.3407 O   0  0  0  0  0  0  0  0  0  0  0  0
    1.5113   -1.6642   -3.4635 O   0  0  0  0  0  0  0  0  0  0  0  0
    2.0984   -2.4302   -3.5596 H   0  0  0  0  0  0  0  0  0  0  0  0
   -0.0322    1.0578    0.3869 C   0  0  0  0  0  0  0  0  0  0  0  0
   -0.9766    1.7597    0.0448 O   0  0  0  0  0  0  0  0  0  0  0  0
    0.8683    1.5270    1.3243 N   0  0  0  0  0  0  0  0  0  0  0  0
    1.6146    0.9007    1.6161 H   0  0  0  0  0  0  0  0  0  0  0  0
    0.7506    2.8315    1.9642 C   0  0  0  0  0  0  0  0  0  0  0  0
   -0.2237    2.9325    2.4541 H   0  0  0  0  0  0  0  0  0  0  0  0
    1.5310    2.9531    2.7215 H   0  0  0  0  0  0  0  0  0  0  0  0
    0.8582    3.6314    1.2242 H   0  0  0  0  0  0  0  0  0  0  0  0
  1  2  1  0  0  0  0
  2  3  1  0  0  0  0
  2  4  1  0  0  0  0
  2  5  1  0  0  0  0
  5  6  2  0  0  0  0
  5  7  1  0  0  0  0
  7  8  1  0  0  0  0
  7  9  1  0  0  0  0
  9 10  1  0  0  0  0
  9 11  1  0  0  0  0
  9 18  1  0  0  0  0
 11 12  1  0  0  0  0
 11 13  1  0  0  0  0
 11 14  1  0  0  0  0
 14 15  2  0  0  0  0
 14 16  1  0  0  0  0
 16 17  1  0  0  0  0
 18 19  2  0  0  0  0
 18 20  1  0  0  0  0
 20 21  1  0  0  0  0
 20 22  1  0  0  0  0
 22 23  1  0  0  0  0
 22 24  1  0  0  0  0
 22 25  1  0  0  0  0
M  END
$$$$

  -OEChem-03222214023D

 25 24  0     1  0  0  0  0  0999 V2000
   -2.7631   -3.9769    0.4144 H   0  0  0  0  0  0  0  0  0  0  0  0
   -2.7722   -2.9304    0.0968 C   0  0  0  0  0  0  0  0  0  0  0  0
   -3.4409   -2.3685    0.7532 H   0  0  0  0  0  0  0  0  0  0  0  0
   -3.1477   -2.8773   -0.9278 H   0  0  0  0  0  0  0  0  0  0  0  0
   -1.3715   -2.3518    0.1647 C   0  0  0  0  0  0  0  0  0  0  0  0
   -0.4592   -3.0272    0.6085 O   0  0  0  0  0  0  0  0  0  0  0  0
   -1.1537   -1.0465   -0.2269 N   0  0  0  0  0  0  0  0  0  0  0  0
   -1.9725   -0.4883   -0.4632 H   0  0  0  0  0  0  0  0  0  0  0  0
    0.1446   -0.3540   -0.2065 C   0  0  1  0  0  0  0  0  0  0  0  0
    0.8652   -0.8921    0.4199 H   0  0  0  0  0  0  0  0  0  0  0  0
    0.6659   -0.2233   -1.6578 C   0  0  0  0  0  0  0  0  0  0  0  0
   -0.1790   -0.0995   -2.3403 H   0  0  0  0  0  0  0  0  0  0  0  0
    1.2794    0.6775   -1.7417 H   0  0  0  0  0  0  0  0  0  0  0  0
    1.5319   -1.3769   -2.1550 C   0  0  0  0  0  0  0  0  0  0  0  0
    2.0040   -2.1789   -1.3718 O   0  0  0  0  0  0  0  0  0  0  0  0
    1.7440   -1.4391   -3.4867 O   0  0  0  0  0  0  0  0  0  0  0  0
    2.2956   -2.2267   -3.6139 H   0  0  0  0  0  0  0  0  0  0  0  0
   -0.0243    1.0540    0.3923 C   0  0  0  0  0  0  0  0  0  0  0  0
   -0.9568    1.7608    0.0282 O   0  0  0  0  0  0  0  0  0  0  0  0
    0.8747    1.5309    1.3274 N   0  0  0  0  0  0  0  0  0  0  0  0
    1.6028    0.8967    1.6461 H   0  0  0  0  0  0  0  0  0  0  0  0
    0.7552    2.8402    1.9572 C   0  0  0  0  0  0  0  0  0  0  0  0
   -0.1912    2.9195    2.5026 H   0  0  0  0  0  0  0  0  0  0  0  0
    1.5756    2.9951    2.6646 H   0  0  0  0  0  0  0  0  0  0  0  0
    0.7954    3.6333    1.2031 H   0  0  0  0  0  0  0  0  0  0  0  0
  1  2  1  0  0  0  0
  2  3  1  0  0  0  0
  2  4  1  0  0  0  0
  2  5  1  0  0  0  0
  5  6  2  0  0  0  0
  5  7  1  0  0  0  0
  7  8  1  0  0  0  0
  7  9  1  0  0  0  0
  9 10  1  0  0  0  0
  9 11  1  0  0  0  0
  9 18  1  0  0  0  0
 11 12  1  0  0  0  0
 11 13  1  0  0  0  0
 11 14  1  0  0  0  0
 14 15  2  0  0  0  0
 14 16  1  0  0  0  0
 16 17  1  0  0  0  0
 18 19  2  0  0  0  0
 18 20  1  0  0  0  0
 20 21  1  0  0  0  0
 20 22  1  0  0  0  0
 22 23  1  0  0  0  0
 22 24  1  0  0  0  0
 22 25  1  0  0  0  0
M  END
$$$$

  -OEChem-03222214023D

 25 24  0     1  0  0  0  0  0999 V2000
   -2.7544   -3.9903    0.3849 H   0  0  0  0  0  0  0  0  0  0  0  0
   -2.7619   -2.9444    0.0651 C   0  0  0  0  0  0  0  0  0  0  0  0
   -3.4688   -2.3898    0.6868 H   0  0  0  0  0  0  0  0  0  0  0  0
   -3.0876   -2.8981   -0.9768 H   0  0  0  0  0  0  0  0  0  0  0  0
   -1.3739   -2.3473    0.2007 C   0  0  0  0  0  0  0  0  0  0  0  0
   -0.4849   -2.9964    0.7247 O   0  0  0  0  0  0  0  0  0  0  0  0
   -1.1512   -1.0456   -0.2006 N   0  0  0  0  0  0  0  0  0  0  0  0
   -1.9600   -0.5047   -0.5014 H   0  0  0  0  0  0  0  0  0  0  0  0
    0.1505   -0.3595   -0.1870 C   0  0  1  0  0  0  0  0  0  0  0  0
    0.8770   -0.8995    0.4310 H   0  0  0  0  0  0  0  0  0  0  0  0
    0.6614   -0.2234   -1.6423 C   0  0  0  0  0  0  0  0  0  0  0  0
   -0.1868   -0.0883   -2.3182 H   0  0  0  0  0  0  0  0  0  0  0  0
    1.2799    0.6749   -1.7215 H   0  0  0  0  0  0  0  0  0  0  0  0
    1.5182   -1.3746   -2.1606 C   0  0  0  0  0  0  0  0  0  0  0  0
    1.7724   -2.3308   -1.4544 O   0  0  0  0  0  0  0  0  0  0  0  0
    1.9674   -1.2597   -3.4280 O   0  0  0  0  0  0  0  0  0  0  0  0
    2.4749   -2.0710   -3.5865 H   0  0  0  0  0  0  0  0  0  0  0  0
   -0.0154    1.0528    0.4042 C   0  0  0  0  0  0  0  0  0  0  0  0
   -0.9359    1.7662    0.0224 O   0  0  0  0  0  0  0  0  0  0  0  0
    0.8839    1.5355    1.3364 N   0  0  0  0  0  0  0  0  0  0  0  0
    1.5959    0.8952    1.6781 H   0  0  0  0  0  0  0  0  0  0  0  0
    0.7654    2.8513    1.9533 C   0  0  0  0  0  0  0  0  0  0  0  0
   -0.1778    2.9329    2.5039 H   0  0  0  0  0  0  0  0  0  0  0  0
    1.5903    3.0168    2.6530 H   0  0  0  0  0  0  0  0  0  0  0  0
    0.7974    3.6368    1.1907 H   0  0  0  0  0  0  0  0  0  0  0  0
  1  2  1  0  0  0  0
  2  3  1  0  0  0  0
  2  4  1  0  0  0  0
  2  5  1  0  0  0  0
  5  6  2  0  0  0  0
  5  7  1  0  0  0  0
  7  8  1  0  0  0  0
  7  9  1  0  0  0  0
  9 10  1  0  0  0  0
  9 11  1  0  0  0  0
  9 18  1  0  0  0  0
 11 12  1  0  0  0  0
 11 13  1  0  0  0  0
 11 14  1  0  0  0  0
 14 15  2  0  0  0  0
 14 16  1  0  0  0  0
 16 17  1  0  0  0  0
 18 19  2  0  0  0  0
 18 20  1  0  0  0  0
 20 21  1  0  0  0  0
 20 22  1  0  0  0  0
 22 23  1  0  0  0  0
 22 24  1  0  0  0  0
 22 25  1  0  0  0  0
M  END
$$$$

  -OEChem-03222214023D

 25 24  0     1  0  0  0  0  0999 V2000
   -2.7332   -4.0037    0.3725 H   0  0  0  0  0  0  0  0  0  0  0  0
   -2.7487   -2.9607    0.0439 C   0  0  0  0  0  0  0  0  0  0  0  0
   -3.4853   -2.4141    0.6372 H   0  0  0  0  0  0  0  0  0  0  0  0
   -3.0400   -2.9288   -1.0085 H   0  0  0  0  0  0  0  0  0  0  0  0
   -1.3763   -2.3387    0.2207 C   0  0  0  0  0  0  0  0  0  0  0  0
   -0.5016   -2.9600    0.8008 O   0  0  0  0  0  0  0  0  0  0  0  0
   -1.1583   -1.0374   -0.1860 N   0  0  0  0  0  0  0  0  0  0  0  0
   -1.9596   -0.5133   -0.5321 H   0  0  0  0  0  0  0  0  0  0  0  0
    0.1458   -0.3564   -0.1802 C   0  0  1  0  0  0  0  0  0  0  0  0
    0.8765   -0.9002    0.4293 H   0  0  0  0  0  0  0  0  0  0  0  0
    0.6538   -0.2144   -1.6364 C   0  0  0  0  0  0  0  0  0  0  0  0
   -0.1932   -0.0712   -2.3119 H   0  0  0  0  0  0  0  0  0  0  0  0
    1.2763    0.6818   -1.7105 H   0  0  0  0  0  0  0  0  0  0  0  0
    1.5045   -1.3679   -2.1590 C   0  0  0  0  0  0  0  0  0  0  0  0
    1.5330   -2.4331   -1.5750 O   0  0  0  0  0  0  0  0  0  0  0  0
    2.2044   -1.1326   -3.2889 O   0  0  0  0  0  0  0  0  0  0  0  0
    2.6689   -1.9644   -3.4716 H   0  0  0  0  0  0  0  0  0  0  0  0
   -0.0149    1.0570    0.4103 C   0  0  0  0  0  0  0  0  0  0  0  0
   -0.9279    1.7776    0.0238 O   0  0  0  0  0  0  0  0  0  0  0  0
    0.8905    1.5366    1.3381 N   0  0  0  0  0  0  0  0  0  0  0  0
    1.5897    0.8881    1.6906 H   0  0  0  0  0  0  0  0  0  0  0  0
    0.7788    2.8535    1.9538 C   0  0  0  0  0  0  0  0  0  0  0  0
   -0.1619    2.9394    2.5079 H   0  0  0  0  0  0  0  0  0  0  0  0
    1.6069    3.0171    2.6502 H   0  0  0  0  0  0  0  0  0  0  0  0
    0.8109    3.6377    1.1900 H   0  0  0  0  0  0  0  0  0  0  0  0
  1  2  1  0  0  0  0
  2  3  1  0  0  0  0
  2  4  1  0  0  0  0
  2  5  1  0  0  0  0
  5  6  2  0  0  0  0
  5  7  1  0  0  0  0
  7  8  1  0  0  0  0
  7  9  1  0  0  0  0
  9 10  1  0  0  0  0
  9 11  1  0  0  0  0
  9 18  1  0  0  0  0
 11 12  1  0  0  0  0
 11 13  1  0  0  0  0
 11 14  1  0  0  0  0
 14 15  2  0  0  0  0
 14 16  1  0  0  0  0
 16 17  1  0  0  0  0
 18 19  2  0  0  0  0
 18 20  1  0  0  0  0
 20 21  1  0  0  0  0
 20 22  1  0  0  0  0
 22 23  1  0  0  0  0
 22 24  1  0  0  0  0
 22 25  1  0  0  0  0
M  END
$$$$

  -OEChem-03222214023D

 25 24  0     1  0  0  0  0  0999 V2000
   -2.7093   -4.0165    0.3608 H   0  0  0  0  0  0  0  0  0  0  0  0
   -2.7332   -2.9750    0.0279 C   0  0  0  0  0  0  0  0  0  0  0  0
   -3.4905   -2.4368    0.6028 H   0  0  0  0  0  0  0  0  0  0  0  0
   -3.0018   -2.9511   -1.0309 H   0  0  0  0  0  0  0  0  0  0  0  0
   -1.3743   -2.3320    0.2310 C   0  0  0  0  0  0  0  0  0  0  0  0
   -0.5036   -2.9343    0.8381 O   0  0  0  0  0  0  0  0  0  0  0  0
   -1.1650   -1.0296   -0.1772 N   0  0  0  0  0  0  0  0  0  0  0  0
   -1.9607   -0.5229   -0.5595 H   0  0  0  0  0  0  0  0  0  0  0  0
    0.1397   -0.3508   -0.1772 C   0  0  1  0  0  0  0  0  0  0  0  0
    0.8746   -0.8977    0.4243 H   0  0  0  0  0  0  0  0  0  0  0  0
    0.6431   -0.2023   -1.6335 C   0  0  0  0  0  0  0  0  0  0  0  0
   -0.2039   -0.0556   -2.3082 H   0  0  0  0  0  0  0  0  0  0  0  0
    1.2674    0.6930   -1.7058 H   0  0  0  0  0  0  0  0  0  0  0  0
    1.4881   -1.3610   -2.1519 C   0  0  0  0  0  0  0  0  0  0  0  0
    1.3059   -2.4882   -1.7359 O   0  0  0  0  0  0  0  0  0  0  0  0
    2.4232   -1.0625   -3.0789 O   0  0  0  0  0  0  0  0  0  0  0  0
    2.8476   -1.9096   -3.2870 H   0  0  0  0  0  0  0  0  0  0  0  0
   -0.0166    1.0622    0.4161 C   0  0  0  0  0  0  0  0  0  0  0  0
   -0.9230    1.7896    0.0270 O   0  0  0  0  0  0  0  0  0  0  0  0
    0.8944    1.5383    1.3404 N   0  0  0  0  0  0  0  0  0  0  0  0
    1.5865    0.8845    1.6969 H   0  0  0  0  0  0  0  0  0  0  0  0
    0.7899    2.8558    1.9560 C   0  0  0  0  0  0  0  0  0  0  0  0
   -0.1477    2.9443    2.5150 H   0  0  0  0  0  0  0  0  0  0  0  0
    1.6223    3.0173    2.6478 H   0  0  0  0  0  0  0  0  0  0  0  0
    0.8202    3.6395    1.1916 H   0  0  0  0  0  0  0  0  0  0  0  0
  1  2  1  0  0  0  0
  2  3  1  0  0  0  0
  2  4  1  0  0  0  0
  2  5  1  0  0  0  0
  5  6  2  0  0  0  0
  5  7  1  0  0  0  0
  7  8  1  0  0  0  0
  7  9  1  0  0  0  0
  9 10  1  0  0  0  0
  9 11  1  0  0  0  0
  9 18  1  0  0  0  0
 11 12  1  0  0  0  0
 11 13  1  0  0  0  0
 11 14  1  0  0  0  0
 14 15  2  0  0  0  0
 14 16  1  0  0  0  0
 16 17  1  0  0  0  0
 18 19  2  0  0  0  0
 18 20  1  0  0  0  0
 20 21  1  0  0  0  0
 20 22  1  0  0  0  0
 22 23  1  0  0  0  0
 22 24  1  0  0  0  0
 22 25  1  0  0  0  0
M  END
$$$$

  -OEChem-03222214023D

 25 24  0     1  0  0  0  0  0999 V2000
   -2.6947   -4.0209    0.3655 H   0  0  0  0  0  0  0  0  0  0  0  0
   -2.7204   -2.9847    0.0170 C   0  0  0  0  0  0  0  0  0  0  0  0
   -3.4876   -2.4424    0.5747 H   0  0  0  0  0  0  0  0  0  0  0  0
   -2.9766   -2.9780   -1.0451 H   0  0  0  0  0  0  0  0  0  0  0  0
   -1.3677   -2.3310    0.2260 C   0  0  0  0  0  0  0  0  0  0  0  0
   -0.4890   -2.9297    0.8263 O   0  0  0  0  0  0  0  0  0  0  0  0
   -1.1683   -1.0252   -0.1766 N   0  0  0  0  0  0  0  0  0  0  0  0
   -1.9649   -0.5242   -0.5646 H   0  0  0  0  0  0  0  0  0  0  0  0
    0.1349   -0.3444   -0.1793 C   0  0  1  0  0  0  0  0  0  0  0  0
    0.8735   -0.8935    0.4158 H   0  0  0  0  0  0  0  0  0  0  0  0
    0.6333   -0.1886   -1.6349 C   0  0  0  0  0  0  0  0  0  0  0  0
   -0.2139   -0.0445   -2.3099 H   0  0  0  0  0  0  0  0  0  0  0  0
    1.2563    0.7076   -1.7078 H   0  0  0  0  0  0  0  0  0  0  0  0
    1.4751   -1.3537   -2.1406 C   0  0  0  0  0  0  0  0  0  0  0  0
    1.1138   -2.4954   -1.9305 O   0  0  0  0  0  0  0  0  0  0  0  0
    2.6101   -1.0511   -2.8062 O   0  0  0  0  0  0  0  0  0  0  0  0
    2.9983   -1.9089   -3.0397 H   0  0  0  0  0  0  0  0  0  0  0  0
   -0.0204    1.0651    0.4230 C   0  0  0  0  0  0  0  0  0  0  0  0
   -0.9294    1.7932    0.0413 O   0  0  0  0  0  0  0  0  0  0  0  0
    0.8934    1.5398    1.3453 N   0  0  0  0  0  0  0  0  0  0  0  0
    1.5944    0.8898    1.6908 H   0  0  0  0  0  0  0  0  0  0  0  0
    0.7957    2.8595    1.9580 C   0  0  0  0  0  0  0  0  0  0  0  0
   -0.1341    2.9487    2.5295 H   0  0  0  0  0  0  0  0  0  0  0  0
    1.6376    3.0247    2.6372 H   0  0  0  0  0  0  0  0  0  0  0  0
    0.8140    3.6410    1.1910 H   0  0  0  0  0  0  0  0  0  0  0  0
  1  2  1  0  0  0  0
  2  3  1  0  0  0  0
  2  4  1  0  0  0  0
  2  5  1  0  0  0  0
  5  6  2  0  0  0  0
  5  7  1  0  0  0  0
  7  8  1  0  0  0  0
  7  9  1  0  0  0  0
  9 10  1  0  0  0  0
  9 11  1  0  0  0  0
  9 18  1  0  0  0  0
 11 12  1  0  0  0  0
 11 13  1  0  0  0  0
 11 14  1  0  0  0  0
 14 15  2  0  0  0  0
 14 16  1  0  0  0  0
 16 17  1  0  0  0  0
 18 19  2  0  0  0  0
 18 20  1  0  0  0  0
 20 21  1  0  0  0  0
 20 22  1  0  0  0  0
 22 23  1  0  0  0  0
 22 24  1  0  0  0  0
 22 25  1  0  0  0  0
M  END
$$$$

  -OEChem-03222214023D

 25 24  0     1  0  0  0  0  0999 V2000
   -2.6657   -4.0303    0.3478 H   0  0  0  0  0  0  0  0  0  0  0  0
   -2.7074   -2.9884    0.0185 C   0  0  0  0  0  0  0  0  0  0  0  0
   -3.4653   -2.4622    0.6035 H   0  0  0  0  0  0  0  0  0  0  0  0
   -2.9882   -2.9650   -1.0370 H   0  0  0  0  0  0  0  0  0  0  0  0
   -1.3550   -2.3280    0.2072 C   0  0  0  0  0  0  0  0  0  0  0  0
   -0.4556   -2.9318    0.7714 O   0  0  0  0  0  0  0  0  0  0  0  0
   -1.1687   -1.0181   -0.1881 N   0  0  0  0  0  0  0  0  0  0  0  0
   -1.9739   -0.5150   -0.5550 H   0  0  0  0  0  0  0  0  0  0  0  0
    0.1303   -0.3304   -0.1928 C   0  0  1  0  0  0  0  0  0  0  0  0
    0.8728   -0.8769    0.3993 H   0  0  0  0  0  0  0  0  0  0  0  0
    0.6238   -0.1768   -1.6480 C   0  0  0  0  0  0  0  0  0  0  0  0
   -0.2243   -0.0463   -2.3252 H   0  0  0  0  0  0  0  0  0  0  0  0
    1.2435    0.7207   -1.7322 H   0  0  0  0  0  0  0  0  0  0  0  0
    1.4658   -1.3526   -2.1228 C   0  0  0  0  0  0  0  0  0  0  0  0
    0.9755   -2.4658   -2.1383 O   0  0  0  0  0  0  0  0  0  0  0  0
    2.7429   -1.1020   -2.4831 O   0  0  0  0  0  0  0  0  0  0  0  0
    3.1053   -1.9672   -2.7307 H   0  0  0  0  0  0  0  0  0  0  0  0
   -0.0246    1.0752    0.4183 C   0  0  0  0  0  0  0  0  0  0  0  0
   -0.9408    1.8013    0.0505 O   0  0  0  0  0  0  0  0  0  0  0  0
    0.8942    1.5461    1.3375 N   0  0  0  0  0  0  0  0  0  0  0  0
    1.6044    0.8982    1.6678 H   0  0  0  0  0  0  0  0  0  0  0  0
    0.7945    2.8590    1.9638 C   0  0  0  0  0  0  0  0  0  0  0  0
   -0.1390    2.9435    2.5301 H   0  0  0  0  0  0  0  0  0  0  0  0
    1.6319    3.0148    2.6510 H   0  0  0  0  0  0  0  0  0  0  0  0
    0.8192    3.6488    1.2056 H   0  0  0  0  0  0  0  0  0  0  0  0
  1  2  1  0  0  0  0
  2  3  1  0  0  0  0
  2  4  1  0  0  0  0
  2  5  1  0  0  0  0
  5  6  2  0  0  0  0
  5  7  1  0  0  0  0
  7  8  1  0  0  0  0
  7  9  1  0  0  0  0
  9 10  1  0  0  0  0
  9 11  1  0  0  0  0
  9 18  1  0  0  0  0
 11 12  1  0  0  0  0
 11 13  1  0  0  0  0
 11 14  1  0  0  0  0
 14 15  2  0  0  0  0
 14 16  1  0  0  0  0
 16 17  1  0  0  0  0
 18 19  2  0  0  0  0
 18 20  1  0  0  0  0
 20 21  1  0  0  0  0
 20 22  1  0  0  0  0
 22 23  1  0  0  0  0
 22 24  1  0  0  0  0
 22 25  1  0  0  0  0
M  END
$$$$

  -OEChem-03222214023D

 25 24  0     1  0  0  0  0  0999 V2000
   -2.6542   -4.0285    0.3494 H   0  0  0  0  0  0  0  0  0  0  0  0
   -2.7018   -2.9844    0.0277 C   0  0  0  0  0  0  0  0  0  0  0  0
   -3.4377   -2.4586    0.6406 H   0  0  0  0  0  0  0  0  0  0  0  0
   -3.0173   -2.9535   -1.0180 H   0  0  0  0  0  0  0  0  0  0  0  0
   -1.3411   -2.3308    0.1755 C   0  0  0  0  0  0  0  0  0  0  0  0
   -0.4184   -2.9495    0.6833 O   0  0  0  0  0  0  0  0  0  0  0  0
   -1.1647   -1.0164   -0.2085 N   0  0  0  0  0  0  0  0  0  0  0  0
   -1.9816   -0.5025   -0.5333 H   0  0  0  0  0  0  0  0  0  0  0  0
    0.1290   -0.3198   -0.2085 C   0  0  1  0  0  0  0  0  0  0  0  0
    0.8733   -0.8641    0.3837 H   0  0  0  0  0  0  0  0  0  0  0  0
    0.6215   -0.1692   -1.6612 C   0  0  0  0  0  0  0  0  0  0  0  0
   -0.2251   -0.0510   -2.3428 H   0  0  0  0  0  0  0  0  0  0  0  0
    1.2395    0.7285   -1.7542 H   0  0  0  0  0  0  0  0  0  0  0  0
    1.4666   -1.3538   -2.1017 C   0  0  0  0  0  0  0  0  0  0  0  0
    0.9120   -2.4053   -2.3622 O   0  0  0  0  0  0  0  0  0  0  0  0
    2.8066   -1.1916   -2.1402 O   0  0  0  0  0  0  0  0  0  0  0  0
    3.1529   -2.0583   -2.4055 H   0  0  0  0  0  0  0  0  0  0  0  0
   -0.0289    1.0806    0.4129 C   0  0  0  0  0  0  0  0  0  0  0  0
   -0.9581    1.7992    0.0641 O   0  0  0  0  0  0  0  0  0  0  0  0
    0.8899    1.5494    1.3333 N   0  0  0  0  0  0  0  0  0  0  0  0
    1.6221    0.9126    1.6361 H   0  0  0  0  0  0  0  0  0  0  0  0
    0.7877    2.8579    1.9684 C   0  0  0  0  0  0  0  0  0  0  0  0
   -0.1486    2.9391    2.5307 H   0  0  0  0  0  0  0  0  0  0  0  0
    1.6214    3.0084    2.6610 H   0  0  0  0  0  0  0  0  0  0  0  0
    0.8166    3.6530    1.2157 H   0  0  0  0  0  0  0  0  0  0  0  0
  1  2  1  0  0  0  0
  2  3  1  0  0  0  0
  2  4  1  0  0  0  0
  2  5  1  0  0  0  0
  5  6  2  0  0  0  0
  5  7  1  0  0  0  0
  7  8  1  0  0  0  0
  7  9  1  0  0  0  0
  9 10  1  0  0  0  0
  9 11  1  0  0  0  0
  9 18  1  0  0  0  0
 11 12  1  0  0  0  0
 11 13  1  0  0  0  0
 11 14  1  0  0  0  0
 14 15  2  0  0  0  0
 14 16  1  0  0  0  0
 16 17  1  0  0  0  0
 18 19  2  0  0  0  0
 18 20  1  0  0  0  0
 20 21  1  0  0  0  0
 20 22  1  0  0  0  0
 22 23  1  0  0  0  0
 22 24  1  0  0  0  0
 22 25  1  0  0  0  0
M  END
$$$$

  -OEChem-03222214023D

 25 24  0     1  0  0  0  0  0999 V2000
   -2.6537   -4.0197    0.3649 H   0  0  0  0  0  0  0  0  0  0  0  0
   -2.7034   -2.9744    0.0473 C   0  0  0  0  0  0  0  0  0  0  0  0
   -3.4083   -2.4430    0.6911 H   0  0  0  0  0  0  0  0  0  0  0  0
   -3.0615   -2.9376   -0.9844 H   0  0  0  0  0  0  0  0  0  0  0  0
   -1.3314   -2.3341    0.1405 C   0  0  0  0  0  0  0  0  0  0  0  0
   -0.3878   -2.9715    0.5824 O   0  0  0  0  0  0  0  0  0  0  0  0
   -1.1605   -1.0163   -0.2337 N   0  0  0  0  0  0  0  0  0  0  0  0
   -1.9879   -0.4877   -0.5047 H   0  0  0  0  0  0  0  0  0  0  0  0
    0.1290   -0.3127   -0.2247 C   0  0  1  0  0  0  0  0  0  0  0  0
    0.8707   -0.8548    0.3729 H   0  0  0  0  0  0  0  0  0  0  0  0
    0.6284   -0.1674   -1.6732 C   0  0  0  0  0  0  0  0  0  0  0  0
   -0.2131   -0.0573   -2.3629 H   0  0  0  0  0  0  0  0  0  0  0  0
    1.2477    0.7286   -1.7693 H   0  0  0  0  0  0  0  0  0  0  0  0
    1.4784   -1.3589   -2.0806 C   0  0  0  0  0  0  0  0  0  0  0  0
    0.9308   -2.3192   -2.5906 O   0  0  0  0  0  0  0  0  0  0  0  0
    2.8014   -1.3105   -1.8138 O   0  0  0  0  0  0  0  0  0  0  0  0
    3.1426   -2.1712   -2.1043 H   0  0  0  0  0  0  0  0  0  0  0  0
   -0.0334    1.0835    0.4042 C   0  0  0  0  0  0  0  0  0  0  0  0
   -0.9745    1.7937    0.0708 O   0  0  0  0  0  0  0  0  0  0  0  0
    0.8824    1.5495    1.3290 N   0  0  0  0  0  0  0  0  0  0  0  0
    1.6301    0.9215    1.6118 H   0  0  0  0  0  0  0  0  0  0  0  0
    0.7767    2.8539    1.9715 C   0  0  0  0  0  0  0  0  0  0  0  0
   -0.1643    2.9332    2.5260 H   0  0  0  0  0  0  0  0  0  0  0  0
    1.6041    2.9984    2.6730 H   0  0  0  0  0  0  0  0  0  0  0  0
    0.8137    3.6534    1.2240 H   0  0  0  0  0  0  0  0  0  0  0  0
  1  2  1  0  0  0  0
  2  3  1  0  0  0  0
  2  4  1  0  0  0  0
  2  5  1  0  0  0  0
  5  6  2  0  0  0  0
  5  7  1  0  0  0  0
  7  8  1  0  0  0  0
  7  9  1  0  0  0  0
  9 10  1  0  0  0  0
  9 11  1  0  0  0  0
  9 18  1  0  0  0  0
 11 12  1  0  0  0  0
 11 13  1  0  0  0  0
 11 14  1  0  0  0  0
 14 15  2  0  0  0  0
 14 16  1  0  0  0  0
 16 17  1  0  0  0  0
 18 19  2  0  0  0  0
 18 20  1  0  0  0  0
 20 21  1  0  0  0  0
 20 22  1  0  0  0  0
 22 23  1  0  0  0  0
 22 24  1  0  0  0  0
 22 25  1  0  0  0  0
M  END
$$$$

  -OEChem-03222214023D

 25 24  0     1  0  0  0  0  0999 V2000
   -2.6628   -4.0089    0.3776 H   0  0  0  0  0  0  0  0  0  0  0  0
   -2.7112   -2.9621    0.0646 C   0  0  0  0  0  0  0  0  0  0  0  0
   -3.3916   -2.4254    0.7300 H   0  0  0  0  0  0  0  0  0  0  0  0
   -3.0993   -2.9183   -0.9560 H   0  0  0  0  0  0  0  0  0  0  0  0
   -1.3306   -2.3360    0.1190 C   0  0  0  0  0  0  0  0  0  0  0  0
   -0.3762   -2.9901    0.5100 O   0  0  0  0  0  0  0  0  0  0  0  0
   -1.1585   -1.0173   -0.2503 N   0  0  0  0  0  0  0  0  0  0  0  0
   -1.9905   -0.4765   -0.4811 H   0  0  0  0  0  0  0  0  0  0  0  0
    0.1296   -0.3108   -0.2320 C   0  0  1  0  0  0  0  0  0  0  0  0
    0.8655   -0.8518    0.3740 H   0  0  0  0  0  0  0  0  0  0  0  0
    0.6379   -0.1752   -1.6775 C   0  0  0  0  0  0  0  0  0  0  0  0
   -0.1988   -0.0687   -2.3738 H   0  0  0  0  0  0  0  0  0  0  0  0
    1.2606    0.7180   -1.7751 H   0  0  0  0  0  0  0  0  0  0  0  0
    1.4916   -1.3715   -2.0615 C   0  0  0  0  0  0  0  0  0  0  0  0
    1.0177   -2.2128   -2.8032 O   0  0  0  0  0  0  0  0  0  0  0  0
    2.7361   -1.4505   -1.5420 O   0  0  0  0  0  0  0  0  0  0  0  0
    3.0852   -2.2960   -1.8657 H   0  0  0  0  0  0  0  0  0  0  0  0
   -0.0345    1.0843    0.3979 C   0  0  0  0  0  0  0  0  0  0  0  0
   -0.9812    1.7896    0.0701 O   0  0  0  0  0  0  0  0  0  0  0  0
    0.8768    1.5491    1.3275 N   0  0  0  0  0  0  0  0  0  0  0  0
    1.6332    0.9271    1.6007 H   0  0  0  0  0  0  0  0  0  0  0  0
    0.7657    2.8513    1.9736 C   0  0  0  0  0  0  0  0  0  0  0  0
   -0.1769    2.9256    2.5262 H   0  0  0  0  0  0  0  0  0  0  0  0
    1.5909    2.9965    2.6774 H   0  0  0  0  0  0  0  0  0  0  0  0
    0.8020    3.6529    1.2284 H   0  0  0  0  0  0  0  0  0  0  0  0
  1  2  1  0  0  0  0
  2  3  1  0  0  0  0
  2  4  1  0  0  0  0
  2  5  1  0  0  0  0
  5  6  2  0  0  0  0
  5  7  1  0  0  0  0
  7  8  1  0  0  0  0
  7  9  1  0  0  0  0
  9 10  1  0  0  0  0
  9 11  1  0  0  0  0
  9 18  1  0  0  0  0
 11 12  1  0  0  0  0
 11 13  1  0  0  0  0
 11 14  1  0  0  0  0
 14 15  2  0  0  0  0
 14 16  1  0  0  0  0
 16 17  1  0  0  0  0
 18 19  2  0  0  0  0
 18 20  1  0  0  0  0
 20 21  1  0  0  0  0
 20 22  1  0  0  0  0
 22 23  1  0  0  0  0
 22 24  1  0  0  0  0
 22 25  1  0  0  0  0
M  END
$$$$

  -OEChem-03222214023D

 25 24  0     1  0  0  0  0  0999 V2000
   -2.6872   -3.9901    0.4053 H   0  0  0  0  0  0  0  0  0  0  0  0
   -2.7298   -2.9424    0.0950 C   0  0  0  0  0  0  0  0  0  0  0  0
   -3.3782   -2.3965    0.7846 H   0  0  0  0  0  0  0  0  0  0  0  0
   -3.1519   -2.8906   -0.9115 H   0  0  0  0  0  0  0  0  0  0  0  0
   -1.3385   -2.3385    0.1029 C   0  0  0  0  0  0  0  0  0  0  0  0
   -0.3807   -3.0125    0.4485 O   0  0  0  0  0  0  0  0  0  0  0  0
   -1.1587   -1.0209   -0.2654 N   0  0  0  0  0  0  0  0  0  0  0  0
   -1.9920   -0.4648   -0.4529 H   0  0  0  0  0  0  0  0  0  0  0  0
    0.1310   -0.3173   -0.2347 C   0  0  1  0  0  0  0  0  0  0  0  0
    0.8549   -0.8586    0.3853 H   0  0  0  0  0  0  0  0  0  0  0  0
    0.6558   -0.1914   -1.6763 C   0  0  0  0  0  0  0  0  0  0  0  0
   -0.1750   -0.0847   -2.3797 H   0  0  0  0  0  0  0  0  0  0  0  0
    1.2818    0.7000   -1.7691 H   0  0  0  0  0  0  0  0  0  0  0  0
    1.5137   -1.3882   -2.0548 C   0  0  0  0  0  0  0  0  0  0  0  0
    1.1669   -2.0759   -2.9979 O   0  0  0  0  0  0  0  0  0  0  0  0
    2.6448   -1.6076   -1.3483 O   0  0  0  0  0  0  0  0  0  0  0  0
    3.0146   -2.4231   -1.7219 H   0  0  0  0  0  0  0  0  0  0  0  0
   -0.0382    1.0782    0.3923 C   0  0  0  0  0  0  0  0  0  0  0  0
   -0.9877    1.7792    0.0636 O   0  0  0  0  0  0  0  0  0  0  0  0
    0.8634    1.5429    1.3311 N   0  0  0  0  0  0  0  0  0  0  0  0
    1.6249    0.9261    1.6020 H   0  0  0  0  0  0  0  0  0  0  0  0
    0.7475    2.8465    1.9737 C   0  0  0  0  0  0  0  0  0  0  0  0
   -0.2168    2.9385    2.4847 H   0  0  0  0  0  0  0  0  0  0  0  0
    1.5432    2.9761    2.7135 H   0  0  0  0  0  0  0  0  0  0  0  0
    0.8312    3.6472    1.2313 H   0  0  0  0  0  0  0  0  0  0  0  0
  1  2  1  0  0  0  0
  2  3  1  0  0  0  0
  2  4  1  0  0  0  0
  2  5  1  0  0  0  0
  5  6  2  0  0  0  0
  5  7  1  0  0  0  0
  7  8  1  0  0  0  0
  7  9  1  0  0  0  0
  9 10  1  0  0  0  0
  9 11  1  0  0  0  0
  9 18  1  0  0  0  0
 11 12  1  0  0  0  0
 11 13  1  0  0  0  0
 11 14  1  0  0  0  0
 14 15  2  0  0  0  0
 14 16  1  0  0  0  0
 16 17  1  0  0  0  0
 18 19  2  0  0  0  0
 18 20  1  0  0  0  0
 20 21  1  0  0  0  0
 20 22  1  0  0  0  0
 22 23  1  0  0  0  0
 22 24  1  0  0  0  0
 22 25  1  0  0  0  0
M  END
$$$$

  -OEChem-03222214023D

 25 24  0     1  0  0  0  0  0999 V2000
   -2.7216   -3.9731    0.4235 H   0  0  0  0  0  0  0  0  0  0  0  0
   -2.7532   -2.9265    0.1081 C   0  0  0  0  0  0  0  0  0  0  0  0
   -3.3899   -2.3690    0.7993 H   0  0  0  0  0  0  0  0  0  0  0  0
   -3.1822   -2.8742   -0.8955 H   0  0  0  0  0  0  0  0  0  0  0  0
   -1.3543   -2.3395    0.1042 C   0  0  0  0  0  0  0  0  0  0  0  0
   -0.4014   -3.0274    0.4342 O   0  0  0  0  0  0  0  0  0  0  0  0
   -1.1621   -1.0248   -0.2684 N   0  0  0  0  0  0  0  0  0  0  0  0
   -1.9922   -0.4596   -0.4426 H   0  0  0  0  0  0  0  0  0  0  0  0
    0.1302   -0.3252   -0.2303 C   0  0  1  0  0  0  0  0  0  0  0  0
    0.8422   -0.8652    0.4036 H   0  0  0  0  0  0  0  0  0  0  0  0
    0.6680   -0.2113   -1.6698 C   0  0  0  0  0  0  0  0  0  0  0  0
   -0.1588   -0.1029   -2.3777 H   0  0  0  0  0  0  0  0  0  0  0  0
    1.2963    0.6784   -1.7598 H   0  0  0  0  0  0  0  0  0  0  0  0
    1.5294   -1.4059   -2.0528 C   0  0  0  0  0  0  0  0  0  0  0  0
    1.3479   -1.9151   -3.1438 O   0  0  0  0  0  0  0  0  0  0  0  0
    2.5162   -1.7857   -1.2103 O   0  0  0  0  0  0  0  0  0  0  0  0
    2.9158   -2.5642   -1.6285 H   0  0  0  0  0  0  0  0  0  0  0  0
   -0.0374    1.0746    0.3874 C   0  0  0  0  0  0  0  0  0  0  0  0
   -0.9844    1.7752    0.0509 O   0  0  0  0  0  0  0  0  0  0  0  0
    0.8586    1.5408    1.3310 N   0  0  0  0  0  0  0  0  0  0  0  0
    1.6126    0.9204    1.6143 H   0  0  0  0  0  0  0  0  0  0  0  0
    0.7377    2.8442    1.9733 C   0  0  0  0  0  0  0  0  0  0  0  0
   -0.2089    2.9161    2.5193 H   0  0  0  0  0  0  0  0  0  0  0  0
    1.5578    2.9943    2.6822 H   0  0  0  0  0  0  0  0  0  0  0  0
    0.7757    3.6447    1.2268 H   0  0  0  0  0  0  0  0  0  0  0  0
  1  2  1  0  0  0  0
  2  3  1  0  0  0  0
  2  4  1  0  0  0  0
  2  5  1  0  0  0  0
  5  6  2  0  0  0  0
  5  7  1  0  0  0  0
  7  8  1  0  0  0  0
  7  9  1  0  0  0  0
  9 10  1  0  0  0  0
  9 11  1  0  0  0  0
  9 18  1  0  0  0  0
 11 12  1  0  0  0  0
 11 13  1  0  0  0  0
 11 14  1  0  0  0  0
 14 15  2  0  0  0  0
 14 16  1  0  0  0  0
 16 17  1  0  0  0  0
 18 19  2  0  0  0  0
 18 20  1  0  0  0  0
 20 21  1  0  0  0  0
 20 22  1  0  0  0  0
 22 23  1  0  0  0  0
 22 24  1  0  0  0  0
 22 25  1  0  0  0  0
M  END
$$$$

  -OEChem-03222214023D

 25 24  0     1  0  0  0  0  0999 V2000
   -2.7540   -3.9634    0.4391 H   0  0  0  0  0  0  0  0  0  0  0  0
   -2.7759   -2.9163    0.1242 C   0  0  0  0  0  0  0  0  0  0  0  0
   -3.4045   -2.3528    0.8180 H   0  0  0  0  0  0  0  0  0  0  0  0
   -3.2080   -2.8595   -0.8778 H   0  0  0  0  0  0  0  0  0  0  0  0
   -1.3708   -2.3444    0.1146 C   0  0  0  0  0  0  0  0  0  0  0  0
   -0.4263   -3.0423    0.4461 O   0  0  0  0  0  0  0  0  0  0  0  0
   -1.1666   -1.0328   -0.2624 N   0  0  0  0  0  0  0  0  0  0  0  0
   -1.9931   -0.4618   -0.4357 H   0  0  0  0  0  0  0  0  0  0  0  0
    0.1286   -0.3374   -0.2202 C   0  0  1  0  0  0  0  0  0  0  0  0
    0.8338   -0.8750    0.4227 H   0  0  0  0  0  0  0  0  0  0  0  0
    0.6731   -0.2287   -1.6597 C   0  0  0  0  0  0  0  0  0  0  0  0
   -0.1540   -0.1170   -2.3665 H   0  0  0  0  0  0  0  0  0  0  0  0
    1.2999    0.6628   -1.7449 H   0  0  0  0  0  0  0  0  0  0  0  0
    1.5386   -1.4149   -2.0667 C   0  0  0  0  0  0  0  0  0  0  0  0
    1.5471   -1.7229   -3.2447 O   0  0  0  0  0  0  0  0  0  0  0  0
    2.3562   -1.9782   -1.1494 O   0  0  0  0  0  0  0  0  0  0  0  0
    2.7978   -2.7046   -1.6153 H   0  0  0  0  0  0  0  0  0  0  0  0
   -0.0407    1.0657    0.3899 C   0  0  0  0  0  0  0  0  0  0  0  0
   -0.9838    1.7667    0.0437 O   0  0  0  0  0  0  0  0  0  0  0  0
    0.8502    1.5343    1.3372 N   0  0  0  0  0  0  0  0  0  0  0  0
    1.6035    0.9151    1.6251 H   0  0  0  0  0  0  0  0  0  0  0  0
    0.7340    2.8448    1.9656 C   0  0  0  0  0  0  0  0  0  0  0  0
   -0.2385    2.9507    2.4581 H   0  0  0  0  0  0  0  0  0  0  0  0
    1.5171    2.9739    2.7189 H   0  0  0  0  0  0  0  0  0  0  0  0
    0.8386    3.6380    1.2180 H   0  0  0  0  0  0  0  0  0  0  0  0
  1  2  1  0  0  0  0
  2  3  1  0  0  0  0
  2  4  1  0  0  0  0
  2  5  1  0  0  0  0
  5  6  2  0  0  0  0
  5  7  1  0  0  0  0
  7  8  1  0  0  0  0
  7  9  1  0  0  0  0
  9 10  1  0  0  0  0
  9 11  1  0  0  0  0
  9 18  1  0  0  0  0
 11 12  1  0  0  0  0
 11 13  1  0  0  0  0
 11 14  1  0  0  0  0
 14 15  2  0  0  0  0
 14 16  1  0  0  0  0
 16 17  1  0  0  0  0
 18 19  2  0  0  0  0
 18 20  1  0  0  0  0
 20 21  1  0  0  0  0
 20 22  1  0  0  0  0
 22 23  1  0  0  0  0
 22 24  1  0  0  0  0
 22 25  1  0  0  0  0
M  END
$$$$

  -OEChem-03222214023D

 25 24  0     1  0  0  0  0  0999 V2000
   -2.7857   -3.9544    0.4407 H   0  0  0  0  0  0  0  0  0  0  0  0
   -2.7931   -2.9069    0.1263 C   0  0  0  0  0  0  0  0  0  0  0  0
   -3.4277   -2.3379    0.8100 H   0  0  0  0  0  0  0  0  0  0  0  0
   -3.2081   -2.8455   -0.8827 H   0  0  0  0  0  0  0  0  0  0  0  0
   -1.3835   -2.3466    0.1411 C   0  0  0  0  0  0  0  0  0  0  0  0
   -0.4565   -3.0462    0.5137 O   0  0  0  0  0  0  0  0  0  0  0  0
   -1.1642   -1.0403   -0.2456 N   0  0  0  0  0  0  0  0  0  0  0  0
   -1.9851   -0.4683   -0.4402 H   0  0  0  0  0  0  0  0  0  0  0  0
    0.1346   -0.3505   -0.2080 C   0  0  1  0  0  0  0  0  0  0  0  0
    0.8396   -0.8864    0.4365 H   0  0  0  0  0  0  0  0  0  0  0  0
    0.6781   -0.2398   -1.6500 C   0  0  0  0  0  0  0  0  0  0  0  0
   -0.1522   -0.1209   -2.3518 H   0  0  0  0  0  0  0  0  0  0  0  0
    1.3041    0.6529   -1.7304 H   0  0  0  0  0  0  0  0  0  0  0  0
    1.5435   -1.4160   -2.0898 C   0  0  0  0  0  0  0  0  0  0  0  0
    1.7589   -1.5223   -3.2834 O   0  0  0  0  0  0  0  0  0  0  0  0
    2.1421   -2.1931   -1.1612 O   0  0  0  0  0  0  0  0  0  0  0  0
    2.6266   -2.8675   -1.6605 H   0  0  0  0  0  0  0  0  0  0  0  0
   -0.0363    1.0574    0.3909 C   0  0  0  0  0  0  0  0  0  0  0  0
   -0.9761    1.7576    0.0334 O   0  0  0  0  0  0  0  0  0  0  0  0
    0.8517    1.5334    1.3373 N   0  0  0  0  0  0  0  0  0  0  0  0
    1.5953    0.9112    1.6434 H   0  0  0  0  0  0  0  0  0  0  0  0
    0.7300    2.8472    1.9580 C   0  0  0  0  0  0  0  0  0  0  0  0
   -0.2405    2.9486    2.4554 H   0  0  0  0  0  0  0  0  0  0  0  0
    1.5169    2.9870    2.7055 H   0  0  0  0  0  0  0  0  0  0  0  0
    0.8243    3.6365    1.2047 H   0  0  0  0  0  0  0  0  0  0  0  0
  1  2  1  0  0  0  0
  2  3  1  0  0  0  0
  2  4  1  0  0  0  0
  2  5  1  0  0  0  0
  5  6  2  0  0  0  0
  5  7  1  0  0  0  0
  7  8  1  0  0  0  0
  7  9  1  0  0  0  0
  9 10  1  0  0  0  0
  9 11  1  0  0  0  0
  9 18  1  0  0  0  0
 11 12  1  0  0  0  0
 11 13  1  0  0  0  0
 11 14  1  0  0  0  0
 14 15  2  0  0  0  0
 14 16  1  0  0  0  0
 16 17  1  0  0  0  0
 18 19  2  0  0  0  0
 18 20  1  0  0  0  0
 20 21  1  0  0  0  0
 20 22  1  0  0  0  0
 22 23  1  0  0  0  0
 22 24  1  0  0  0  0
 22 25  1  0  0  0  0
M  END
$$$$

  -OEChem-03222214023D

 25 24  0     1  0  0  0  0  0999 V2000
   -2.8006   -3.9836    0.4307 H   0  0  0  0  0  0  0  0  0  0  0  0
   -2.7964   -2.9455    0.0870 C   0  0  0  0  0  0  0  0  0  0  0  0
   -3.5239   -2.3771    0.6713 H   0  0  0  0  0  0  0  0  0  0  0  0
   -3.0865   -2.9233   -0.9661 H   0  0  0  0  0  0  0  0  0  0  0  0
   -1.4136   -2.3445    0.2560 C   0  0  0  0  0  0  0  0  0  0  0  0
   -0.5470   -2.9756    0.8388 O   0  0  0  0  0  0  0  0  0  0  0  0
   -1.1775   -1.0510   -0.1658 N   0  0  0  0  0  0  0  0  0  0  0  0
   -1.9743   -0.5226   -0.5166 H   0  0  0  0  0  0  0  0  0  0  0  0
    0.1298   -0.3743   -0.1633 C   0  0  1  0  0  0  0  0  0  0  0  0
    0.8539   -0.9204    0.4514 H   0  0  0  0  0  0  0  0  0  0  0  0
    0.6542   -0.2407   -1.6118 C   0  0  0  0  0  0  0  0  0  0  0  0
   -0.1463    0.1471   -2.2481 H   0  0  0  0  0  0  0  0  0  0  0  0
    1.4683    0.4893   -1.6256 H   0  0  0  0  0  0  0  0  0  0  0  0
    1.1978   -1.5144   -2.2501 C   0  0  0  0  0  0  0  0  0  0  0  0
    1.6107   -1.4160   -3.3910 O   0  0  0  0  0  0  0  0  0  0  0  0
    1.2863   -2.6518   -1.5330 O   0  0  0  0  0  0  0  0  0  0  0  0
    1.6828   -3.3080   -2.1247 H   0  0  0  0  0  0  0  0  0  0  0  0
   -0.0229    1.0488    0.4060 C   0  0  0  0  0  0  0  0  0  0  0  0
   -0.9376    1.7651    0.0161 O   0  0  0  0  0  0  0  0  0  0  0  0
    0.8823    1.5366    1.3298 N   0  0  0  0  0  0  0  0  0  0  0  0
    1.5836    0.8934    1.6873 H   0  0  0  0  0  0  0  0  0  0  0  0
    0.7782    2.8647    1.9227 C   0  0  0  0  0  0  0  0  0  0  0  0
   -0.1599    2.9637    2.4789 H   0  0  0  0  0  0  0  0  0  0  0  0
    1.6100    3.0378    2.6124 H   0  0  0  0  0  0  0  0  0  0  0  0
    0.8097    3.6351    1.1450 H   0  0  0  0  0  0  0  0  0  0  0  0
  1  2  1  0  0  0  0
  2  3  1  0  0  0  0
  2  4  1  0  0  0  0
  2  5  1  0  0  0  0
  5  6  2  0  0  0  0
  5  7  1  0  0  0  0
  7  8  1  0  0  0  0
  7  9  1  0  0  0  0
  9 10  1  0  0  0  0
  9 11  1  0  0  0  0
  9 18  1  0  0  0  0
 11 12  1  0  0  0  0
 11 13  1  0  0  0  0
 11 14  1  0  0  0  0
 14 15  2  0  0  0  0
 14 16  1  0  0  0  0
 16 17  1  0  0  0  0
 18 19  2  0  0  0  0
 18 20  1  0  0  0  0
 20 21  1  0  0  0  0
 20 22  1  0  0  0  0
 22 23  1  0  0  0  0
 22 24  1  0  0  0  0
 22 25  1  0  0  0  0
M  END
$$$$

  -OEChem-03222214023D

 25 24  0     1  0  0  0  0  0999 V2000
   -2.7866   -3.9945    0.4390 H   0  0  0  0  0  0  0  0  0  0  0  0
   -2.7898   -2.9574    0.0923 C   0  0  0  0  0  0  0  0  0  0  0  0
   -3.5313   -2.3955    0.6651 H   0  0  0  0  0  0  0  0  0  0  0  0
   -3.0655   -2.9414   -0.9647 H   0  0  0  0  0  0  0  0  0  0  0  0
   -1.4164   -2.3407    0.2783 C   0  0  0  0  0  0  0  0  0  0  0  0
   -0.5545   -2.9527    0.8900 O   0  0  0  0  0  0  0  0  0  0  0  0
   -1.1848   -1.0490   -0.1518 N   0  0  0  0  0  0  0  0  0  0  0  0
   -1.9749   -0.5352   -0.5370 H   0  0  0  0  0  0  0  0  0  0  0  0
    0.1254   -0.3792   -0.1565 C   0  0  1  0  0  0  0  0  0  0  0  0
    0.8481   -0.9268    0.4584 H   0  0  0  0  0  0  0  0  0  0  0  0
    0.6630   -0.2377   -1.6004 C   0  0  0  0  0  0  0  0  0  0  0  0
   -0.1328    0.1546   -2.2392 H   0  0  0  0  0  0  0  0  0  0  0  0
    1.4755    0.4949   -1.6022 H   0  0  0  0  0  0  0  0  0  0  0  0
    1.2088   -1.5050   -2.2519 C   0  0  0  0  0  0  0  0  0  0  0  0
    1.8803   -1.3495   -3.2553 O   0  0  0  0  0  0  0  0  0  0  0  0
    0.9304   -2.7188   -1.7375 O   0  0  0  0  0  0  0  0  0  0  0  0
    1.3874   -3.3563   -2.3060 H   0  0  0  0  0  0  0  0  0  0  0  0
   -0.0250    1.0461    0.4090 C   0  0  0  0  0  0  0  0  0  0  0  0
   -0.9339    1.7661    0.0119 O   0  0  0  0  0  0  0  0  0  0  0  0
    0.8830    1.5350    1.3298 N   0  0  0  0  0  0  0  0  0  0  0  0
    1.5826    0.8914    1.6898 H   0  0  0  0  0  0  0  0  0  0  0  0
    0.7868    2.8672    1.9145 C   0  0  0  0  0  0  0  0  0  0  0  0
   -0.1523    2.9763    2.4671 H   0  0  0  0  0  0  0  0  0  0  0  0
    1.6173    3.0378    2.6063 H   0  0  0  0  0  0  0  0  0  0  0  0
    0.8271    3.6325    1.1321 H   0  0  0  0  0  0  0  0  0  0  0  0
  1  2  1  0  0  0  0
  2  3  1  0  0  0  0
  2  4  1  0  0  0  0
  2  5  1  0  0  0  0
  5  6  2  0  0  0  0
  5  7  1  0  0  0  0
  7  8  1  0  0  0  0
  7  9  1  0  0  0  0
  9 10  1  0  0  0  0
  9 11  1  0  0  0  0
  9 18  1  0  0  0  0
 11 12  1  0  0  0  0
 11 13  1  0  0  0  0
 11 14  1  0  0  0  0
 14 15  2  0  0  0  0
 14 16  1  0  0  0  0
 16 17  1  0  0  0  0
 18 19  2  0  0  0  0
 18 20  1  0  0  0  0
 20 21  1  0  0  0  0
 20 22  1  0  0  0  0
 22 23  1  0  0  0  0
 22 24  1  0  0  0  0
 22 25  1  0  0  0  0
M  END
$$$$

  -OEChem-03222214023D

 25 24  0     1  0  0  0  0  0999 V2000
   -2.7790   -3.9961    0.4533 H   0  0  0  0  0  0  0  0  0  0  0  0
   -2.7882   -2.9594    0.1057 C   0  0  0  0  0  0  0  0  0  0  0  0
   -3.5209   -2.3973    0.6895 H   0  0  0  0  0  0  0  0  0  0  0  0
   -3.0804   -2.9443   -0.9470 H   0  0  0  0  0  0  0  0  0  0  0  0
   -1.4124   -2.3415    0.2687 C   0  0  0  0  0  0  0  0  0  0  0  0
   -0.5312   -2.9612    0.8453 O   0  0  0  0  0  0  0  0  0  0  0  0
   -1.1891   -1.0471   -0.1579 N   0  0  0  0  0  0  0  0  0  0  0  0
   -1.9847   -0.5296   -0.5264 H   0  0  0  0  0  0  0  0  0  0  0  0
    0.1201   -0.3770   -0.1643 C   0  0  1  0  0  0  0  0  0  0  0  0
    0.8411   -0.9240    0.4528 H   0  0  0  0  0  0  0  0  0  0  0  0
    0.6693   -0.2353   -1.6028 C   0  0  0  0  0  0  0  0  0  0  0  0
   -0.1224    0.1506   -2.2503 H   0  0  0  0  0  0  0  0  0  0  0  0
    1.4789    0.5010   -1.6006 H   0  0  0  0  0  0  0  0  0  0  0  0
    1.2182   -1.5100   -2.2371 C   0  0  0  0  0  0  0  0  0  0  0  0
    2.1166   -1.3705   -3.0470 O   0  0  0  0  0  0  0  0  0  0  0  0
    0.6431   -2.7020   -1.9795 O   0  0  0  0  0  0  0  0  0  0  0  0
    1.1461   -3.3493   -2.4956 H   0  0  0  0  0  0  0  0  0  0  0  0
   -0.0297    1.0458    0.4073 C   0  0  0  0  0  0  0  0  0  0  0  0
   -0.9444    1.7644    0.0216 O   0  0  0  0  0  0  0  0  0  0  0  0
    0.8809    1.5317    1.3269 N   0  0  0  0  0  0  0  0  0  0  0  0
    1.5911    0.8914    1.6712 H   0  0  0  0  0  0  0  0  0  0  0  0
    0.7889    2.8627    1.9148 C   0  0  0  0  0  0  0  0  0  0  0  0
   -0.1509    2.9745    2.4656 H   0  0  0  0  0  0  0  0  0  0  0  0
    1.6188    3.0278    2.6087 H   0  0  0  0  0  0  0  0  0  0  0  0
    0.8336    3.6305    1.1351 H   0  0  0  0  0  0  0  0  0  0  0  0
  1  2  1  0  0  0  0
  2  3  1  0  0  0  0
  2  4  1  0  0  0  0
  2  5  1  0  0  0  0
  5  6  2  0  0  0  0
  5  7  1  0  0  0  0
  7  8  1  0  0  0  0
  7  9  1  0  0  0  0
  9 10  1  0  0  0  0
  9 11  1  0  0  0  0
  9 18  1  0  0  0  0
 11 12  1  0  0  0  0
 11 13  1  0  0  0  0
 11 14  1  0  0  0  0
 14 15  2  0  0  0  0
 14 16  1  0  0  0  0
 16 17  1  0  0  0  0
 18 19  2  0  0  0  0
 18 20  1  0  0  0  0
 20 21  1  0  0  0  0
 20 22  1  0  0  0  0
 22 23  1  0  0  0  0
 22 24  1  0  0  0  0
 22 25  1  0  0  0  0
M  END
$$$$

  -OEChem-03222214023D

 25 24  0     1  0  0  0  0  0999 V2000
   -2.7666   -3.9921    0.4646 H   0  0  0  0  0  0  0  0  0  0  0  0
   -2.7810   -2.9585    0.1077 C   0  0  0  0  0  0  0  0  0  0  0  0
   -3.5028   -2.3904    0.6992 H   0  0  0  0  0  0  0  0  0  0  0  0
   -3.0918   -2.9527   -0.9398 H   0  0  0  0  0  0  0  0  0  0  0  0
   -1.4016   -2.3414    0.2397 C   0  0  0  0  0  0  0  0  0  0  0  0
   -0.4964   -2.9764    0.7601 O   0  0  0  0  0  0  0  0  0  0  0  0
   -1.1890   -1.0414   -0.1751 N   0  0  0  0  0  0  0  0  0  0  0  0
   -1.9933   -0.5151   -0.5114 H   0  0  0  0  0  0  0  0  0  0  0  0
    0.1174   -0.3671   -0.1805 C   0  0  1  0  0  0  0  0  0  0  0  0
    0.8413   -0.9145    0.4329 H   0  0  0  0  0  0  0  0  0  0  0  0
    0.6615   -0.2302   -1.6190 C   0  0  0  0  0  0  0  0  0  0  0  0
   -0.1307    0.1465   -2.2710 H   0  0  0  0  0  0  0  0  0  0  0  0
    1.4700    0.5074   -1.6266 H   0  0  0  0  0  0  0  0  0  0  0  0
    1.2039   -1.5228   -2.2207 C   0  0  0  0  0  0  0  0  0  0  0  0
    2.2702   -1.4551   -2.8051 O   0  0  0  0  0  0  0  0  0  0  0  0
    0.4393   -2.6353   -2.2134 O   0  0  0  0  0  0  0  0  0  0  0  0
    0.9705   -3.3145   -2.6556 H   0  0  0  0  0  0  0  0  0  0  0  0
   -0.0305    1.0504    0.4050 C   0  0  0  0  0  0  0  0  0  0  0  0
   -0.9506    1.7690    0.0326 O   0  0  0  0  0  0  0  0  0  0  0  0
    0.8831    1.5312    1.3246 N   0  0  0  0  0  0  0  0  0  0  0  0
    1.6016    0.8926    1.6550 H   0  0  0  0  0  0  0  0  0  0  0  0
    0.7892    2.8562    1.9261 C   0  0  0  0  0  0  0  0  0  0  0  0
   -0.1459    2.9574    2.4869 H   0  0  0  0  0  0  0  0  0  0  0  0
    1.6246    3.0196    2.6138 H   0  0  0  0  0  0  0  0  0  0  0  0
    0.8223    3.6317    1.1535 H   0  0  0  0  0  0  0  0  0  0  0  0
  1  2  1  0  0  0  0
  2  3  1  0  0  0  0
  2  4  1  0  0  0  0
  2  5  1  0  0  0  0
  5  6  2  0  0  0  0
  5  7  1  0  0  0  0
  7  8  1  0  0  0  0
  7  9  1  0  0  0  0
  9 10  1  0  0  0  0
  9 11  1  0  0  0  0
  9 18  1  0  0  0  0
 11 12  1  0  0  0  0
 11 13  1  0  0  0  0
 11 14  1  0  0  0  0
 14 15  2  0  0  0  0
 14 16  1  0  0  0  0
 16 17  1  0  0  0  0
 18 19  2  0  0  0  0
 18 20  1  0  0  0  0
 20 21  1  0  0  0  0
 20 22  1  0  0  0  0
 22 23  1  0  0  0  0
 22 24  1  0  0  0  0
 22 25  1  0  0  0  0
M  END
$$$$

  -OEChem-03222214023D

 25 24  0     1  0  0  0  0  0999 V2000
   -2.7553   -3.9952    0.4425 H   0  0  0  0  0  0  0  0  0  0  0  0
   -2.7784   -2.9545    0.1072 C   0  0  0  0  0  0  0  0  0  0  0  0
   -3.4689   -2.3942    0.7421 H   0  0  0  0  0  0  0  0  0  0  0  0
   -3.1366   -2.9251   -0.9247 H   0  0  0  0  0  0  0  0  0  0  0  0
   -1.3906   -2.3478    0.1889 C   0  0  0  0  0  0  0  0  0  0  0  0
   -0.4621   -3.0043    0.6360 O   0  0  0  0  0  0  0  0  0  0  0  0
   -1.1895   -1.0399   -0.2048 N   0  0  0  0  0  0  0  0  0  0  0  0
   -2.0059   -0.5008   -0.4876 H   0  0  0  0  0  0  0  0  0  0  0  0
    0.1109   -0.3549   -0.2027 C   0  0  1  0  0  0  0  0  0  0  0  0
    0.8378   -0.9047    0.4054 H   0  0  0  0  0  0  0  0  0  0  0  0
    0.6494   -0.2164   -1.6396 C   0  0  0  0  0  0  0  0  0  0  0  0
   -0.1439    0.1493   -2.2965 H   0  0  0  0  0  0  0  0  0  0  0  0
    1.4560    0.5228   -1.6568 H   0  0  0  0  0  0  0  0  0  0  0  0
    1.1902   -1.5236   -2.2050 C   0  0  0  0  0  0  0  0  0  0  0  0
    2.3622   -1.5499   -2.5356 O   0  0  0  0  0  0  0  0  0  0  0  0
    0.3344   -2.5444   -2.4313 O   0  0  0  0  0  0  0  0  0  0  0  0
    0.8823   -3.2614   -2.7849 H   0  0  0  0  0  0  0  0  0  0  0  0
   -0.0380    1.0530    0.4035 C   0  0  0  0  0  0  0  0  0  0  0  0
   -0.9701    1.7679    0.0549 O   0  0  0  0  0  0  0  0  0  0  0  0
    0.8781    1.5243    1.3254 N   0  0  0  0  0  0  0  0  0  0  0  0
    1.6196    0.8950    1.6210 H   0  0  0  0  0  0  0  0  0  0  0  0
    0.7912    2.8463    1.9342 C   0  0  0  0  0  0  0  0  0  0  0  0
   -0.1454    2.9512    2.4918 H   0  0  0  0  0  0  0  0  0  0  0  0
    1.6246    2.9996    2.6265 H   0  0  0  0  0  0  0  0  0  0  0  0
    0.8332    3.6257    1.1659 H   0  0  0  0  0  0  0  0  0  0  0  0
  1  2  1  0  0  0  0
  2  3  1  0  0  0  0
  2  4  1  0  0  0  0
  2  5  1  0  0  0  0
  5  6  2  0  0  0  0
  5  7  1  0  0  0  0
  7  8  1  0  0  0  0
  7  9  1  0  0  0  0
  9 10  1  0  0  0  0
  9 11  1  0  0  0  0
  9 18  1  0  0  0  0
 11 12  1  0  0  0  0
 11 13  1  0  0  0  0
 11 14  1  0  0  0  0
 14 15  2  0  0  0  0
 14 16  1  0  0  0  0
 16 17  1  0  0  0  0
 18 19  2  0  0  0  0
 18 20  1  0  0  0  0
 20 21  1  0  0  0  0
 20 22  1  0  0  0  0
 22 23  1  0  0  0  0
 22 24  1  0  0  0  0
 22 25  1  0  0  0  0
M  END
$$$$

  -OEChem-03222214023D

 25 24  0     1  0  0  0  0  0999 V2000
   -2.7375   -3.9923    0.4227 H   0  0  0  0  0  0  0  0  0  0  0  0
   -2.7693   -2.9477    0.1006 C   0  0  0  0  0  0  0  0  0  0  0  0
   -3.4352   -2.3931    0.7662 H   0  0  0  0  0  0  0  0  0  0  0  0
   -3.1633   -2.9055   -0.9176 H   0  0  0  0  0  0  0  0  0  0  0  0
   -1.3773   -2.3467    0.1400 C   0  0  0  0  0  0  0  0  0  0  0  0
   -0.4318   -3.0193    0.5214 O   0  0  0  0  0  0  0  0  0  0  0  0
   -1.1861   -1.0324   -0.2357 N   0  0  0  0  0  0  0  0  0  0  0  0
   -2.0127   -0.4824   -0.4642 H   0  0  0  0  0  0  0  0  0  0  0  0
    0.1095   -0.3383   -0.2281 C   0  0  1  0  0  0  0  0  0  0  0  0
    0.8398   -0.8910    0.3738 H   0  0  0  0  0  0  0  0  0  0  0  0
    0.6363   -0.2024   -1.6668 C   0  0  0  0  0  0  0  0  0  0  0  0
   -0.1605    0.1530   -2.3252 H   0  0  0  0  0  0  0  0  0  0  0  0
    1.4429    0.5360   -1.6982 H   0  0  0  0  0  0  0  0  0  0  0  0
    1.1730   -1.5223   -2.2004 C   0  0  0  0  0  0  0  0  0  0  0  0
    2.3818   -1.6548   -2.2710 O   0  0  0  0  0  0  0  0  0  0  0  0
    0.2952   -2.4521   -2.6384 O   0  0  0  0  0  0  0  0  0  0  0  0
    0.8408   -3.2093   -2.9006 H   0  0  0  0  0  0  0  0  0  0  0  0
   -0.0386    1.0613    0.3957 C   0  0  0  0  0  0  0  0  0  0  0  0
   -0.9808    1.7731    0.0692 O   0  0  0  0  0  0  0  0  0  0  0  0
    0.8809    1.5236    1.3186 N   0  0  0  0  0  0  0  0  0  0  0  0
    1.6347    0.8983    1.5910 H   0  0  0  0  0  0  0  0  0  0  0  0
    0.7893    2.8343    1.9508 C   0  0  0  0  0  0  0  0  0  0  0  0
   -0.1524    2.9300    2.5018 H   0  0  0  0  0  0  0  0  0  0  0  0
    1.6163    2.9740    2.6537 H   0  0  0  0  0  0  0  0  0  0  0  0
    0.8389    3.6273    1.1971 H   0  0  0  0  0  0  0  0  0  0  0  0
  1  2  1  0  0  0  0
  2  3  1  0  0  0  0
  2  4  1  0  0  0  0
  2  5  1  0  0  0  0
  5  6  2  0  0  0  0
  5  7  1  0  0  0  0
  7  8  1  0  0  0  0
  7  9  1  0  0  0  0
  9 10  1  0  0  0  0
  9 11  1  0  0  0  0
  9 18  1  0  0  0  0
 11 12  1  0  0  0  0
 11 13  1  0  0  0  0
 11 14  1  0  0  0  0
 14 15  2  0  0  0  0
 14 16  1  0  0  0  0
 16 17  1  0  0  0  0
 18 19  2  0  0  0  0
 18 20  1  0  0  0  0
 20 21  1  0  0  0  0
 20 22  1  0  0  0  0
 22 23  1  0  0  0  0
 22 24  1  0  0  0  0
 22 25  1  0  0  0  0
M  END
$$$$

  -OEChem-03222214023D

 25 24  0     1  0  0  0  0  0999 V2000
   -2.7268   -3.9914    0.4045 H   0  0  0  0  0  0  0  0  0  0  0  0
   -2.7622   -2.9442    0.0917 C   0  0  0  0  0  0  0  0  0  0  0  0
   -3.4095   -2.3928    0.7779 H   0  0  0  0  0  0  0  0  0  0  0  0
   -3.1813   -2.8915   -0.9160 H   0  0  0  0  0  0  0  0  0  0  0  0
   -1.3674   -2.3482    0.1020 C   0  0  0  0  0  0  0  0  0  0  0  0
   -0.4129   -3.0321    0.4365 O   0  0  0  0  0  0  0  0  0  0  0  0
   -1.1820   -1.0293   -0.2587 N   0  0  0  0  0  0  0  0  0  0  0  0
   -2.0141   -0.4733   -0.4505 H   0  0  0  0  0  0  0  0  0  0  0  0
    0.1092   -0.3265   -0.2444 C   0  0  1  0  0  0  0  0  0  0  0  0
    0.8425   -0.8813    0.3525 H   0  0  0  0  0  0  0  0  0  0  0  0
    0.6280   -0.1885   -1.6838 C   0  0  0  0  0  0  0  0  0  0  0  0
   -0.1715    0.1619   -2.3418 H   0  0  0  0  0  0  0  0  0  0  0  0
    1.4352    0.5487   -1.7225 H   0  0  0  0  0  0  0  0  0  0  0  0
    1.1655   -1.5128   -2.2004 C   0  0  0  0  0  0  0  0  0  0  0  0
    2.3447   -1.7564   -2.0158 O   0  0  0  0  0  0  0  0  0  0  0  0
    0.3244   -2.3436   -2.8548 O   0  0  0  0  0  0  0  0  0  0  0  0
    0.8534   -3.1335   -3.0450 H   0  0  0  0  0  0  0  0  0  0  0  0
   -0.0394    1.0664    0.3926 C   0  0  0  0  0  0  0  0  0  0  0  0
   -0.9885    1.7756    0.0808 O   0  0  0  0  0  0  0  0  0  0  0  0
    0.8818    1.5216    1.3171 N   0  0  0  0  0  0  0  0  0  0  0  0
    1.6419    0.8978    1.5758 H   0  0  0  0  0  0  0  0  0  0  0  0
    0.7899    2.8268    1.9602 C   0  0  0  0  0  0  0  0  0  0  0  0
   -0.1507    2.9162    2.5138 H   0  0  0  0  0  0  0  0  0  0  0  0
    1.6180    2.9622    2.6624 H   0  0  0  0  0  0  0  0  0  0  0  0
    0.8364    3.6257    1.2126 H   0  0  0  0  0  0  0  0  0  0  0  0
  1  2  1  0  0  0  0
  2  3  1  0  0  0  0
  2  4  1  0  0  0  0
  2  5  1  0  0  0  0
  5  6  2  0  0  0  0
  5  7  1  0  0  0  0
  7  8  1  0  0  0  0
  7  9  1  0  0  0  0
  9 10  1  0  0  0  0
  9 11  1  0  0  0  0
  9 18  1  0  0  0  0
 11 12  1  0  0  0  0
 11 13  1  0  0  0  0
 11 14  1  0  0  0  0
 14 15  2  0  0  0  0
 14 16  1  0  0  0  0
 16 17  1  0  0  0  0
 18 19  2  0  0  0  0
 18 20  1  0  0  0  0
 20 21  1  0  0  0  0
 20 22  1  0  0  0  0
 22 23  1  0  0  0  0
 22 24  1  0  0  0  0
 22 25  1  0  0  0  0
M  END
$$$$

  -OEChem-03222214023D

 25 24  0     1  0  0  0  0  0999 V2000
   -2.7218   -3.9866    0.3978 H   0  0  0  0  0  0  0  0  0  0  0  0
   -2.7578   -2.9381    0.0894 C   0  0  0  0  0  0  0  0  0  0  0  0
   -3.3946   -2.3877    0.7860 H   0  0  0  0  0  0  0  0  0  0  0  0
   -3.1896   -2.8805   -0.9127 H   0  0  0  0  0  0  0  0  0  0  0  0
   -1.3608   -2.3470    0.0847 C   0  0  0  0  0  0  0  0  0  0  0  0
   -0.4054   -3.0378    0.3988 O   0  0  0  0  0  0  0  0  0  0  0  0
   -1.1754   -1.0269   -0.2714 N   0  0  0  0  0  0  0  0  0  0  0  0
   -2.0097   -0.4665   -0.4394 H   0  0  0  0  0  0  0  0  0  0  0  0
    0.1138   -0.3194   -0.2532 C   0  0  1  0  0  0  0  0  0  0  0  0
    0.8469   -0.8738    0.3443 H   0  0  0  0  0  0  0  0  0  0  0  0
    0.6291   -0.1840   -1.6947 C   0  0  0  0  0  0  0  0  0  0  0  0
   -0.1727    0.1649   -2.3512 H   0  0  0  0  0  0  0  0  0  0  0  0
    1.4360    0.5526   -1.7373 H   0  0  0  0  0  0  0  0  0  0  0  0
    1.1709   -1.5066   -2.2109 C   0  0  0  0  0  0  0  0  0  0  0  0
    2.2571   -1.8743   -1.7995 O   0  0  0  0  0  0  0  0  0  0  0  0
    0.4240   -2.2160   -3.0850 O   0  0  0  0  0  0  0  0  0  0  0  0
    0.9239   -3.0342   -3.2299 H   0  0  0  0  0  0  0  0  0  0  0  0
   -0.0377    1.0715    0.3867 C   0  0  0  0  0  0  0  0  0  0  0  0
   -0.9910    1.7775    0.0808 O   0  0  0  0  0  0  0  0  0  0  0  0
    0.8829    1.5248    1.3127 N   0  0  0  0  0  0  0  0  0  0  0  0
    1.6407    0.8983    1.5721 H   0  0  0  0  0  0  0  0  0  0  0  0
    0.7841    2.8224    1.9700 C   0  0  0  0  0  0  0  0  0  0  0  0
   -0.1527    2.8976    2.5322 H   0  0  0  0  0  0  0  0  0  0  0  0
    1.6169    2.9578    2.6668 H   0  0  0  0  0  0  0  0  0  0  0  0
    0.8175    3.6299    1.2310 H   0  0  0  0  0  0  0  0  0  0  0  0
  1  2  1  0  0  0  0
  2  3  1  0  0  0  0
  2  4  1  0  0  0  0
  2  5  1  0  0  0  0
  5  6  2  0  0  0  0
  5  7  1  0  0  0  0
  7  8  1  0  0  0  0
  7  9  1  0  0  0  0
  9 10  1  0  0  0  0
  9 11  1  0  0  0  0
  9 18  1  0  0  0  0
 11 12  1  0  0  0  0
 11 13  1  0  0  0  0
 11 14  1  0  0  0  0
 14 15  2  0  0  0  0
 14 16  1  0  0  0  0
 16 17  1  0  0  0  0
 18 19  2  0  0  0  0
 18 20  1  0  0  0  0
 20 21  1  0  0  0  0
 20 22  1  0  0  0  0
 22 23  1  0  0  0  0
 22 24  1  0  0  0  0
 22 25  1  0  0  0  0
M  END
$$$$

  -OEChem-03222214023D

 25 24  0     1  0  0  0  0  0999 V2000
   -2.7357   -3.9847    0.4041 H   0  0  0  0  0  0  0  0  0  0  0  0
   -2.7624   -2.9358    0.0957 C   0  0  0  0  0  0  0  0  0  0  0  0
   -3.4006   -2.3813    0.7878 H   0  0  0  0  0  0  0  0  0  0  0  0
   -3.1867   -2.8754   -0.9094 H   0  0  0  0  0  0  0  0  0  0  0  0
   -1.3619   -2.3529    0.1017 C   0  0  0  0  0  0  0  0  0  0  0  0
   -0.4160   -3.0448    0.4384 O   0  0  0  0  0  0  0  0  0  0  0  0
   -1.1680   -1.0359   -0.2616 N   0  0  0  0  0  0  0  0  0  0  0  0
   -1.9998   -0.4748   -0.4397 H   0  0  0  0  0  0  0  0  0  0  0  0
    0.1222   -0.3292   -0.2424 C   0  0  1  0  0  0  0  0  0  0  0  0
    0.8539   -0.8808    0.3595 H   0  0  0  0  0  0  0  0  0  0  0  0
    0.6362   -0.1913   -1.6862 C   0  0  0  0  0  0  0  0  0  0  0  0
   -0.1682    0.1649   -2.3357 H   0  0  0  0  0  0  0  0  0  0  0  0
    1.4422    0.5459   -1.7259 H   0  0  0  0  0  0  0  0  0  0  0  0
    1.1834   -1.5014   -2.2307 C   0  0  0  0  0  0  0  0  0  0  0  0
    2.1213   -2.0193   -1.6515 O   0  0  0  0  0  0  0  0  0  0  0  0
    0.5994   -2.0337   -3.3258 O   0  0  0  0  0  0  0  0  0  0  0  0
    1.0691   -2.8690   -3.4745 H   0  0  0  0  0  0  0  0  0  0  0  0
   -0.0342    1.0655    0.3882 C   0  0  0  0  0  0  0  0  0  0  0  0
   -0.9841    1.7705    0.0693 O   0  0  0  0  0  0  0  0  0  0  0  0
    0.8809    1.5256    1.3163 N   0  0  0  0  0  0  0  0  0  0  0  0
    1.6356    0.8998    1.5863 H   0  0  0  0  0  0  0  0  0  0  0  0
    0.7765    2.8269    1.9655 C   0  0  0  0  0  0  0  0  0  0  0  0
   -0.1661    2.9055    2.5174 H   0  0  0  0  0  0  0  0  0  0  0  0
    1.6019    2.9657    2.6703 H   0  0  0  0  0  0  0  0  0  0  0  0
    0.8179    3.6304    1.2226 H   0  0  0  0  0  0  0  0  0  0  0  0
  1  2  1  0  0  0  0
  2  3  1  0  0  0  0
  2  4  1  0  0  0  0
  2  5  1  0  0  0  0
  5  6  2  0  0  0  0
  5  7  1  0  0  0  0
  7  8  1  0  0  0  0
  7  9  1  0  0  0  0
  9 10  1  0  0  0  0
  9 11  1  0  0  0  0
  9 18  1  0  0  0  0
 11 12  1  0  0  0  0
 11 13  1  0  0  0  0
 11 14  1  0  0  0  0
 14 15  2  0  0  0  0
 14 16  1  0  0  0  0
 16 17  1  0  0  0  0
 18 19  2  0  0  0  0
 18 20  1  0  0  0  0
 20 21  1  0  0  0  0
 20 22  1  0  0  0  0
 22 23  1  0  0  0  0
 22 24  1  0  0  0  0
 22 25  1  0  0  0  0
M  END
$$$$

  -OEChem-03222214023D

 25 24  0     1  0  0  0  0  0999 V2000
   -2.7494   -3.9878    0.4048 H   0  0  0  0  0  0  0  0  0  0  0  0
   -2.7673   -2.9402    0.0912 C   0  0  0  0  0  0  0  0  0  0  0  0
   -3.4264   -2.3828    0.7610 H   0  0  0  0  0  0  0  0  0  0  0  0
   -3.1606   -2.8847   -0.9267 H   0  0  0  0  0  0  0  0  0  0  0  0
   -1.3677   -2.3569    0.1379 C   0  0  0  0  0  0  0  0  0  0  0  0
   -0.4400   -3.0378    0.5398 O   0  0  0  0  0  0  0  0  0  0  0  0
   -1.1625   -1.0455   -0.2398 N   0  0  0  0  0  0  0  0  0  0  0  0
   -1.9887   -0.4889   -0.4541 H   0  0  0  0  0  0  0  0  0  0  0  0
    0.1302   -0.3427   -0.2231 C   0  0  1  0  0  0  0  0  0  0  0  0
    0.8605   -0.8910    0.3834 H   0  0  0  0  0  0  0  0  0  0  0  0
    0.6428   -0.2030   -1.6703 C   0  0  0  0  0  0  0  0  0  0  0  0
   -0.1653    0.1613   -2.3107 H   0  0  0  0  0  0  0  0  0  0  0  0
    1.4465    0.5368   -1.7055 H   0  0  0  0  0  0  0  0  0  0  0  0
    1.1944   -1.4973   -2.2528 C   0  0  0  0  0  0  0  0  0  0  0  0
    1.9411   -2.1786   -1.5746 O   0  0  0  0  0  0  0  0  0  0  0  0
    0.8244   -1.8304   -3.5080 O   0  0  0  0  0  0  0  0  0  0  0  0
    1.2598   -2.6806   -3.6764 H   0  0  0  0  0  0  0  0  0  0  0  0
   -0.0285    1.0592    0.3909 C   0  0  0  0  0  0  0  0  0  0  0  0
   -0.9700    1.7664    0.0518 O   0  0  0  0  0  0  0  0  0  0  0  0
    0.8824    1.5278    1.3188 N   0  0  0  0  0  0  0  0  0  0  0  0
    1.6203    0.8947    1.6166 H   0  0  0  0  0  0  0  0  0  0  0  0
    0.7751    2.8352    1.9549 C   0  0  0  0  0  0  0  0  0  0  0  0
   -0.1622    2.9130    2.5158 H   0  0  0  0  0  0  0  0  0  0  0  0
    1.6072    2.9875    2.6489 H   0  0  0  0  0  0  0  0  0  0  0  0
    0.8030    3.6307    1.2028 H   0  0  0  0  0  0  0  0  0  0  0  0
  1  2  1  0  0  0  0
  2  3  1  0  0  0  0
  2  4  1  0  0  0  0
  2  5  1  0  0  0  0
  5  6  2  0  0  0  0
  5  7  1  0  0  0  0
  7  8  1  0  0  0  0
  7  9  1  0  0  0  0
  9 10  1  0  0  0  0
  9 11  1  0  0  0  0
  9 18  1  0  0  0  0
 11 12  1  0  0  0  0
 11 13  1  0  0  0  0
 11 14  1  0  0  0  0
 14 15  2  0  0  0  0
 14 16  1  0  0  0  0
 16 17  1  0  0  0  0
 18 19  2  0  0  0  0
 18 20  1  0  0  0  0
 20 21  1  0  0  0  0
 20 22  1  0  0  0  0
 22 23  1  0  0  0  0
 22 24  1  0  0  0  0
 22 25  1  0  0  0  0
M  END
$$$$

  -OEChem-03222214023D

 25 24  0     1  0  0  0  0  0999 V2000
   -2.7551   -3.9970    0.3974 H   0  0  0  0  0  0  0  0  0  0  0  0
   -2.7680   -2.9505    0.0799 C   0  0  0  0  0  0  0  0  0  0  0  0
   -3.4590   -2.3961    0.7196 H   0  0  0  0  0  0  0  0  0  0  0  0
   -3.1182   -2.9012   -0.9539 H   0  0  0  0  0  0  0  0  0  0  0  0
   -1.3759   -2.3564    0.1838 C   0  0  0  0  0  0  0  0  0  0  0  0
   -0.4723   -3.0138    0.6708 O   0  0  0  0  0  0  0  0  0  0  0  0
   -1.1614   -1.0514   -0.2117 N   0  0  0  0  0  0  0  0  0  0  0  0
   -1.9784   -0.5072   -0.4836 H   0  0  0  0  0  0  0  0  0  0  0  0
    0.1353   -0.3555   -0.2022 C   0  0  1  0  0  0  0  0  0  0  0  0
    0.8661   -0.9009    0.4063 H   0  0  0  0  0  0  0  0  0  0  0  0
    0.6459   -0.2157   -1.6528 C   0  0  0  0  0  0  0  0  0  0  0  0
   -0.1647    0.1570   -2.2851 H   0  0  0  0  0  0  0  0  0  0  0  0
    1.4496    0.5242   -1.6850 H   0  0  0  0  0  0  0  0  0  0  0  0
    1.1969   -1.4954   -2.2705 C   0  0  0  0  0  0  0  0  0  0  0  0
    1.7197   -2.3341   -1.5616 O   0  0  0  0  0  0  0  0  0  0  0  0
    1.0824   -1.6302   -3.6088 O   0  0  0  0  0  0  0  0  0  0  0  0
    1.4780   -2.4936   -3.8054 H   0  0  0  0  0  0  0  0  0  0  0  0
   -0.0225    1.0544    0.3939 C   0  0  0  0  0  0  0  0  0  0  0  0
   -0.9523    1.7663    0.0326 O   0  0  0  0  0  0  0  0  0  0  0  0
    0.8875    1.5305    1.3186 N   0  0  0  0  0  0  0  0  0  0  0  0
    1.6104    0.8915    1.6394 H   0  0  0  0  0  0  0  0  0  0  0  0
    0.7794    2.8431    1.9435 C   0  0  0  0  0  0  0  0  0  0  0  0
   -0.1616    2.9282    2.4973 H   0  0  0  0  0  0  0  0  0  0  0  0
    1.6071    2.9984    2.6422 H   0  0  0  0  0  0  0  0  0  0  0  0
    0.8149    3.6327    1.1855 H   0  0  0  0  0  0  0  0  0  0  0  0
  1  2  1  0  0  0  0
  2  3  1  0  0  0  0
  2  4  1  0  0  0  0
  2  5  1  0  0  0  0
  5  6  2  0  0  0  0
  5  7  1  0  0  0  0
  7  8  1  0  0  0  0
  7  9  1  0  0  0  0
  9 10  1  0  0  0  0
  9 11  1  0  0  0  0
  9 18  1  0  0  0  0
 11 12  1  0  0  0  0
 11 13  1  0  0  0  0
 11 14  1  0  0  0  0
 14 15  2  0  0  0  0
 14 16  1  0  0  0  0
 16 17  1  0  0  0  0
 18 19  2  0  0  0  0
 18 20  1  0  0  0  0
 20 21  1  0  0  0  0
 20 22  1  0  0  0  0
 22 23  1  0  0  0  0
 22 24  1  0  0  0  0
 22 25  1  0  0  0  0
M  END
$$$$

  -OEChem-03222214023D

 25 24  0     1  0  0  0  0  0999 V2000
   -2.7479   -4.0091    0.3884 H   0  0  0  0  0  0  0  0  0  0  0  0
   -2.7610   -2.9665    0.0586 C   0  0  0  0  0  0  0  0  0  0  0  0
   -3.4921   -2.4161    0.6556 H   0  0  0  0  0  0  0  0  0  0  0  0
   -3.0589   -2.9342   -0.9920 H   0  0  0  0  0  0  0  0  0  0  0  0
   -1.3851   -2.3497    0.2257 C   0  0  0  0  0  0  0  0  0  0  0  0
   -0.5085   -2.9743    0.7989 O   0  0  0  0  0  0  0  0  0  0  0  0
   -1.1659   -1.0498   -0.1849 N   0  0  0  0  0  0  0  0  0  0  0  0
   -1.9688   -0.5268   -0.5291 H   0  0  0  0  0  0  0  0  0  0  0  0
    0.1361   -0.3643   -0.1823 C   0  0  1  0  0  0  0  0  0  0  0  0
    0.8675   -0.9113    0.4235 H   0  0  0  0  0  0  0  0  0  0  0  0
    0.6452   -0.2236   -1.6356 C   0  0  0  0  0  0  0  0  0  0  0  0
   -0.1638    0.1606   -2.2631 H   0  0  0  0  0  0  0  0  0  0  0  0
    1.4529    0.5124   -1.6622 H   0  0  0  0  0  0  0  0  0  0  0  0
    1.1898   -1.4932   -2.2814 C   0  0  0  0  0  0  0  0  0  0  0  0
    1.4657   -2.4627   -1.6022 O   0  0  0  0  0  0  0  0  0  0  0  0
    1.3520   -1.4654   -3.6211 O   0  0  0  0  0  0  0  0  0  0  0  0
    1.7001   -2.3419   -3.8475 H   0  0  0  0  0  0  0  0  0  0  0  0
   -0.0162    1.0523    0.4012 C   0  0  0  0  0  0  0  0  0  0  0  0
   -0.9318    1.7724    0.0199 O   0  0  0  0  0  0  0  0  0  0  0  0
    0.8950    1.5322    1.3231 N   0  0  0  0  0  0  0  0  0  0  0  0
    1.5951    0.8831    1.6730 H   0  0  0  0  0  0  0  0  0  0  0  0
    0.7918    2.8521    1.9342 C   0  0  0  0  0  0  0  0  0  0  0  0
   -0.1445    2.9428    2.4949 H   0  0  0  0  0  0  0  0  0  0  0  0
    1.6258    3.0159    2.6236 H   0  0  0  0  0  0  0  0  0  0  0  0
    0.8204    3.6333    1.1671 H   0  0  0  0  0  0  0  0  0  0  0  0
  1  2  1  0  0  0  0
  2  3  1  0  0  0  0
  2  4  1  0  0  0  0
  2  5  1  0  0  0  0
  5  6  2  0  0  0  0
  5  7  1  0  0  0  0
  7  8  1  0  0  0  0
  7  9  1  0  0  0  0
  9 10  1  0  0  0  0
  9 11  1  0  0  0  0
  9 18  1  0  0  0  0
 11 12  1  0  0  0  0
 11 13  1  0  0  0  0
 11 14  1  0  0  0  0
 14 15  2  0  0  0  0
 14 16  1  0  0  0  0
 16 17  1  0  0  0  0
 18 19  2  0  0  0  0
 18 20  1  0  0  0  0
 20 21  1  0  0  0  0
 20 22  1  0  0  0  0
 22 23  1  0  0  0  0
 22 24  1  0  0  0  0
 22 25  1  0  0  0  0
M  END
$$$$

  -OEChem-03222214023D

 25 24  0     1  0  0  0  0  0999 V2000
   -2.7342   -4.0249    0.3689 H   0  0  0  0  0  0  0  0  0  0  0  0
   -2.7529   -2.9824    0.0391 C   0  0  0  0  0  0  0  0  0  0  0  0
   -3.5152   -2.4447    0.6079 H   0  0  0  0  0  0  0  0  0  0  0  0
   -3.0107   -2.9549   -1.0222 H   0  0  0  0  0  0  0  0  0  0  0  0
   -1.3952   -2.3421    0.2583 C   0  0  0  0  0  0  0  0  0  0  0  0
   -0.5393   -2.9386    0.8916 O   0  0  0  0  0  0  0  0  0  0  0  0
   -1.1752   -1.0454   -0.1633 N   0  0  0  0  0  0  0  0  0  0  0  0
   -1.9648   -0.5433   -0.5638 H   0  0  0  0  0  0  0  0  0  0  0  0
    0.1317   -0.3692   -0.1675 C   0  0  1  0  0  0  0  0  0  0  0  0
    0.8628   -0.9189    0.4361 H   0  0  0  0  0  0  0  0  0  0  0  0
    0.6425   -0.2258   -1.6209 C   0  0  0  0  0  0  0  0  0  0  0  0
   -0.1621    0.1696   -2.2465 H   0  0  0  0  0  0  0  0  0  0  0  0
    1.4554    0.5051   -1.6390 H   0  0  0  0  0  0  0  0  0  0  0  0
    1.1815   -1.4891   -2.2849 C   0  0  0  0  0  0  0  0  0  0  0  0
    1.2032   -2.5483   -1.6899 O   0  0  0  0  0  0  0  0  0  0  0  0
    1.6307   -1.3503   -3.5500 O   0  0  0  0  0  0  0  0  0  0  0  0
    1.9321   -2.2360   -3.8059 H   0  0  0  0  0  0  0  0  0  0  0  0
   -0.0138    1.0521    0.4077 C   0  0  0  0  0  0  0  0  0  0  0  0
   -0.9165    1.7807    0.0121 O   0  0  0  0  0  0  0  0  0  0  0  0
    0.9005    1.5330    1.3261 N   0  0  0  0  0  0  0  0  0  0  0  0
    1.5894    0.8790    1.6884 H   0  0  0  0  0  0  0  0  0  0  0  0
    0.8054    2.8580    1.9270 C   0  0  0  0  0  0  0  0  0  0  0  0
   -0.1292    2.9580    2.4889 H   0  0  0  0  0  0  0  0  0  0  0  0
    1.6417    3.0228    2.6132 H   0  0  0  0  0  0  0  0  0  0  0  0
    0.8364    3.6334    1.1541 H   0  0  0  0  0  0  0  0  0  0  0  0
  1  2  1  0  0  0  0
  2  3  1  0  0  0  0
  2  4  1  0  0  0  0
  2  5  1  0  0  0  0
  5  6  2  0  0  0  0
  5  7  1  0  0  0  0
  7  8  1  0  0  0  0
  7  9  1  0  0  0  0
  9 10  1  0  0  0  0
  9 11  1  0  0  0  0
  9 18  1  0  0  0  0
 11 12  1  0  0  0  0
 11 13  1  0  0  0  0
 11 14  1  0  0  0  0
 14 15  2  0  0  0  0
 14 16  1  0  0  0  0
 16 17  1  0  0  0  0
 18 19  2  0  0  0  0
 18 20  1  0  0  0  0
 20 21  1  0  0  0  0
 20 22  1  0  0  0  0
 22 23  1  0  0  0  0
 22 24  1  0  0  0  0
 22 25  1  0  0  0  0
M  END
$$$$

  -OEChem-03222214023D

 25 24  0     1  0  0  0  0  0999 V2000
   -2.7196   -4.0335    0.3633 H   0  0  0  0  0  0  0  0  0  0  0  0
   -2.7446   -2.9936    0.0258 C   0  0  0  0  0  0  0  0  0  0  0  0
   -3.5265   -2.4620    0.5735 H   0  0  0  0  0  0  0  0  0  0  0  0
   -2.9782   -2.9768   -1.0415 H   0  0  0  0  0  0  0  0  0  0  0  0
   -1.4005   -2.3347    0.2713 C   0  0  0  0  0  0  0  0  0  0  0  0
   -0.5502   -2.9154    0.9279 O   0  0  0  0  0  0  0  0  0  0  0  0
   -1.1860   -1.0379   -0.1535 N   0  0  0  0  0  0  0  0  0  0  0  0
   -1.9679   -0.5523   -0.5873 H   0  0  0  0  0  0  0  0  0  0  0  0
    0.1233   -0.3667   -0.1621 C   0  0  1  0  0  0  0  0  0  0  0  0
    0.8534   -0.9194    0.4395 H   0  0  0  0  0  0  0  0  0  0  0  0
    0.6397   -0.2221   -1.6138 C   0  0  0  0  0  0  0  0  0  0  0  0
   -0.1592    0.1801   -2.2421 H   0  0  0  0  0  0  0  0  0  0  0  0
    1.4552    0.5062   -1.6232 H   0  0  0  0  0  0  0  0  0  0  0  0
    1.1772   -1.4845   -2.2821 C   0  0  0  0  0  0  0  0  0  0  0  0
    0.9542   -2.5841   -1.8155 O   0  0  0  0  0  0  0  0  0  0  0  0
    1.9025   -1.2995   -3.4053 O   0  0  0  0  0  0  0  0  0  0  0  0
    2.1575   -2.1919   -3.6873 H   0  0  0  0  0  0  0  0  0  0  0  0
   -0.0161    1.0555    0.4136 C   0  0  0  0  0  0  0  0  0  0  0  0
   -0.9113    1.7911    0.0139 O   0  0  0  0  0  0  0  0  0  0  0  0
    0.9029    1.5330    1.3293 N   0  0  0  0  0  0  0  0  0  0  0  0
    1.5846    0.8745    1.6964 H   0  0  0  0  0  0  0  0  0  0  0  0
    0.8169    2.8601    1.9270 C   0  0  0  0  0  0  0  0  0  0  0  0
   -0.1145    2.9655    2.4934 H   0  0  0  0  0  0  0  0  0  0  0  0
    1.6575    3.0233    2.6085 H   0  0  0  0  0  0  0  0  0  0  0  0
    0.8473    3.6333    1.1520 H   0  0  0  0  0  0  0  0  0  0  0  0
  1  2  1  0  0  0  0
  2  3  1  0  0  0  0
  2  4  1  0  0  0  0
  2  5  1  0  0  0  0
  5  6  2  0  0  0  0
  5  7  1  0  0  0  0
  7  8  1  0  0  0  0
  7  9  1  0  0  0  0
  9 10  1  0  0  0  0
  9 11  1  0  0  0  0
  9 18  1  0  0  0  0
 11 12  1  0  0  0  0
 11 13  1  0  0  0  0
 11 14  1  0  0  0  0
 14 15  2  0  0  0  0
 14 16  1  0  0  0  0
 16 17  1  0  0  0  0
 18 19  2  0  0  0  0
 18 20  1  0  0  0  0
 20 21  1  0  0  0  0
 20 22  1  0  0  0  0
 22 23  1  0  0  0  0
 22 24  1  0  0  0  0
 22 25  1  0  0  0  0
M  END
$$$$

  -OEChem-03222214023D

 25 24  0     1  0  0  0  0  0999 V2000
   -2.7048   -4.0389    0.3608 H   0  0  0  0  0  0  0  0  0  0  0  0
   -2.7347   -3.0014    0.0164 C   0  0  0  0  0  0  0  0  0  0  0  0
   -3.5279   -2.4733    0.5507 H   0  0  0  0  0  0  0  0  0  0  0  0
   -2.9553   -2.9937   -1.0537 H   0  0  0  0  0  0  0  0  0  0  0  0
   -1.3994   -2.3291    0.2729 C   0  0  0  0  0  0  0  0  0  0  0  0
   -0.5422   -2.9056    0.9253 O   0  0  0  0  0  0  0  0  0  0  0  0
   -1.1925   -1.0304   -0.1497 N   0  0  0  0  0  0  0  0  0  0  0  0
   -1.9712   -0.5550   -0.5999 H   0  0  0  0  0  0  0  0  0  0  0  0
    0.1171   -0.3606   -0.1620 C   0  0  1  0  0  0  0  0  0  0  0  0
    0.8483   -0.9143    0.4370 H   0  0  0  0  0  0  0  0  0  0  0  0
    0.6356   -0.2135   -1.6126 C   0  0  0  0  0  0  0  0  0  0  0  0
   -0.1605    0.1902   -2.2437 H   0  0  0  0  0  0  0  0  0  0  0  0
    1.4520    0.5142   -1.6180 H   0  0  0  0  0  0  0  0  0  0  0  0
    1.1709   -1.4802   -2.2753 C   0  0  0  0  0  0  0  0  0  0  0  0
    0.7299   -2.5728   -1.9760 O   0  0  0  0  0  0  0  0  0  0  0  0
    2.1426   -1.3102   -3.1967 O   0  0  0  0  0  0  0  0  0  0  0  0
    2.3560   -2.2059   -3.5018 H   0  0  0  0  0  0  0  0  0  0  0  0
   -0.0192    1.0599    0.4192 C   0  0  0  0  0  0  0  0  0  0  0  0
   -0.9116    1.7993    0.0204 O   0  0  0  0  0  0  0  0  0  0  0  0
    0.9035    1.5344    1.3329 N   0  0  0  0  0  0  0  0  0  0  0  0
    1.5808    0.8724    1.7019 H   0  0  0  0  0  0  0  0  0  0  0  0
    0.8228    2.8618    1.9309 C   0  0  0  0  0  0  0  0  0  0  0  0
   -0.1046    2.9681    2.5035 H   0  0  0  0  0  0  0  0  0  0  0  0
    1.6679    3.0246    2.6066 H   0  0  0  0  0  0  0  0  0  0  0  0
    0.8486    3.6347    1.1556 H   0  0  0  0  0  0  0  0  0  0  0  0
  1  2  1  0  0  0  0
  2  3  1  0  0  0  0
  2  4  1  0  0  0  0
  2  5  1  0  0  0  0
  5  6  2  0  0  0  0
  5  7  1  0  0  0  0
  7  8  1  0  0  0  0
  7  9  1  0  0  0  0
  9 10  1  0  0  0  0
  9 11  1  0  0  0  0
  9 18  1  0  0  0  0
 11 12  1  0  0  0  0
 11 13  1  0  0  0  0
 11 14  1  0  0  0  0
 14 15  2  0  0  0  0
 14 16  1  0  0  0  0
 16 17  1  0  0  0  0
 18 19  2  0  0  0  0
 18 20  1  0  0  0  0
 20 21  1  0  0  0  0
 20 22  1  0  0  0  0
 22 23  1  0  0  0  0
 22 24  1  0  0  0  0
 22 25  1  0  0  0  0
M  END
$$$$

  -OEChem-03222214023D

 25 24  0     1  0  0  0  0  0999 V2000
   -2.6979   -4.0344    0.3699 H   0  0  0  0  0  0  0  0  0  0  0  0
   -2.7305   -2.9974    0.0243 C   0  0  0  0  0  0  0  0  0  0  0  0
   -3.5102   -2.4647    0.5738 H   0  0  0  0  0  0  0  0  0  0  0  0
   -2.9725   -2.9903   -1.0412 H   0  0  0  0  0  0  0  0  0  0  0  0
   -1.3876   -2.3299    0.2516 C   0  0  0  0  0  0  0  0  0  0  0  0
   -0.5091   -2.9184    0.8643 O   0  0  0  0  0  0  0  0  0  0  0  0
   -1.1892   -1.0270   -0.1618 N   0  0  0  0  0  0  0  0  0  0  0  0
   -1.9761   -0.5447   -0.5902 H   0  0  0  0  0  0  0  0  0  0  0  0
    0.1172   -0.3523   -0.1743 C   0  0  1  0  0  0  0  0  0  0  0  0
    0.8509   -0.9044    0.4227 H   0  0  0  0  0  0  0  0  0  0  0  0
    0.6365   -0.2014   -1.6227 C   0  0  0  0  0  0  0  0  0  0  0  0
   -0.1601    0.1951   -2.2576 H   0  0  0  0  0  0  0  0  0  0  0  0
    1.4497    0.5301   -1.6310 H   0  0  0  0  0  0  0  0  0  0  0  0
    1.1724   -1.4769   -2.2664 C   0  0  0  0  0  0  0  0  0  0  0  0
    0.5557   -2.5205   -2.1642 O   0  0  0  0  0  0  0  0  0  0  0  0
    2.3442   -1.3781   -2.9299 O   0  0  0  0  0  0  0  0  0  0  0  0
    2.5238   -2.2749   -3.2531 H   0  0  0  0  0  0  0  0  0  0  0  0
   -0.0239    1.0627    0.4182 C   0  0  0  0  0  0  0  0  0  0  0  0
   -0.9253    1.7983    0.0331 O   0  0  0  0  0  0  0  0  0  0  0  0
    0.8994    1.5354    1.3322 N   0  0  0  0  0  0  0  0  0  0  0  0
    1.5899    0.8784    1.6855 H   0  0  0  0  0  0  0  0  0  0  0  0
    0.8135    2.8582    1.9392 C   0  0  0  0  0  0  0  0  0  0  0  0
   -0.1176    2.9602    2.5066 H   0  0  0  0  0  0  0  0  0  0  0  0
    1.6541    3.0170    2.6216 H   0  0  0  0  0  0  0  0  0  0  0  0
    0.8437    3.6359    1.1688 H   0  0  0  0  0  0  0  0  0  0  0  0
  1  2  1  0  0  0  0
  2  3  1  0  0  0  0
  2  4  1  0  0  0  0
  2  5  1  0  0  0  0
  5  6  2  0  0  0  0
  5  7  1  0  0  0  0
  7  8  1  0  0  0  0
  7  9  1  0  0  0  0
  9 10  1  0  0  0  0
  9 11  1  0  0  0  0
  9 18  1  0  0  0  0
 11 12  1  0  0  0  0
 11 13  1  0  0  0  0
 11 14  1  0  0  0  0
 14 15  2  0  0  0  0
 14 16  1  0  0  0  0
 16 17  1  0  0  0  0
 18 19  2  0  0  0  0
 18 20  1  0  0  0  0
 20 21  1  0  0  0  0
 20 22  1  0  0  0  0
 22 23  1  0  0  0  0
 22 24  1  0  0  0  0
 22 25  1  0  0  0  0
M  END
$$$$

  -OEChem-03222214023D

 25 24  0     1  0  0  0  0  0999 V2000
   -2.6861   -4.0284    0.3888 H   0  0  0  0  0  0  0  0  0  0  0  0
   -2.7192   -2.9979    0.0248 C   0  0  0  0  0  0  0  0  0  0  0  0
   -3.4884   -2.4523    0.5763 H   0  0  0  0  0  0  0  0  0  0  0  0
   -2.9775   -3.0088   -1.0369 H   0  0  0  0  0  0  0  0  0  0  0  0
   -1.3703   -2.3323    0.2194 C   0  0  0  0  0  0  0  0  0  0  0  0
   -0.4669   -2.9342    0.7811 O   0  0  0  0  0  0  0  0  0  0  0  0
   -1.1847   -1.0233   -0.1804 N   0  0  0  0  0  0  0  0  0  0  0  0
   -1.9826   -0.5343   -0.5806 H   0  0  0  0  0  0  0  0  0  0  0  0
    0.1155   -0.3380   -0.1880 C   0  0  1  0  0  0  0  0  0  0  0  0
    0.8530   -0.8886    0.4061 H   0  0  0  0  0  0  0  0  0  0  0  0
    0.6307   -0.1862   -1.6347 C   0  0  0  0  0  0  0  0  0  0  0  0
   -0.1688    0.1974   -2.2739 H   0  0  0  0  0  0  0  0  0  0  0  0
    1.4407    0.5485   -1.6521 H   0  0  0  0  0  0  0  0  0  0  0  0
    1.1672   -1.4750   -2.2458 C   0  0  0  0  0  0  0  0  0  0  0  0
    0.4315   -2.4384   -2.3590 O   0  0  0  0  0  0  0  0  0  0  0  0
    2.4653   -1.4897   -2.6174 O   0  0  0  0  0  0  0  0  0  0  0  0
    2.6182   -2.3877   -2.9509 H   0  0  0  0  0  0  0  0  0  0  0  0
   -0.0292    1.0706    0.4177 C   0  0  0  0  0  0  0  0  0  0  0  0
   -0.9361    1.8048    0.0436 O   0  0  0  0  0  0  0  0  0  0  0  0
    0.8952    1.5387    1.3329 N   0  0  0  0  0  0  0  0  0  0  0  0
    1.5951    0.8841    1.6715 H   0  0  0  0  0  0  0  0  0  0  0  0
    0.8094    2.8572    1.9493 C   0  0  0  0  0  0  0  0  0  0  0  0
   -0.1172    2.9517    2.5253 H   0  0  0  0  0  0  0  0  0  0  0  0
    1.6552    3.0140    2.6255 H   0  0  0  0  0  0  0  0  0  0  0  0
    0.8302    3.6408    1.1845 H   0  0  0  0  0  0  0  0  0  0  0  0
  1  2  1  0  0  0  0
  2  3  1  0  0  0  0
  2  4  1  0  0  0  0
  2  5  1  0  0  0  0
  5  6  2  0  0  0  0
  5  7  1  0  0  0  0
  7  8  1  0  0  0  0
  7  9  1  0  0  0  0
  9 10  1  0  0  0  0
  9 11  1  0  0  0  0
  9 18  1  0  0  0  0
 11 12  1  0  0  0  0
 11 13  1  0  0  0  0
 11 14  1  0  0  0  0
 14 15  2  0  0  0  0
 14 16  1  0  0  0  0
 16 17  1  0  0  0  0
 18 19  2  0  0  0  0
 18 20  1  0  0  0  0
 20 21  1  0  0  0  0
 20 22  1  0  0  0  0
 22 23  1  0  0  0  0
 22 24  1  0  0  0  0
 22 25  1  0  0  0  0
M  END
$$$$

  -OEChem-03222214023D

 25 24  0     1  0  0  0  0  0999 V2000
   -2.6600   -4.0346    0.3499 H   0  0  0  0  0  0  0  0  0  0  0  0
   -2.7072   -2.9909    0.0269 C   0  0  0  0  0  0  0  0  0  0  0  0
   -3.4498   -2.4660    0.6324 H   0  0  0  0  0  0  0  0  0  0  0  0
   -3.0131   -2.9615   -1.0217 H   0  0  0  0  0  0  0  0  0  0  0  0
   -1.3495   -2.3334    0.1848 C   0  0  0  0  0  0  0  0  0  0  0  0
   -0.4228   -2.9533    0.6853 O   0  0  0  0  0  0  0  0  0  0  0  0
   -1.1730   -1.0197   -0.2024 N   0  0  0  0  0  0  0  0  0  0  0  0
   -1.9849   -0.5176   -0.5562 H   0  0  0  0  0  0  0  0  0  0  0  0
    0.1206   -0.3225   -0.2049 C   0  0  1  0  0  0  0  0  0  0  0  0
    0.8619   -0.8700    0.3879 H   0  0  0  0  0  0  0  0  0  0  0  0
    0.6270   -0.1789   -1.6522 C   0  0  0  0  0  0  0  0  0  0  0  0
   -0.1769    0.1882   -2.2961 H   0  0  0  0  0  0  0  0  0  0  0  0
    1.4350    0.5567   -1.6868 H   0  0  0  0  0  0  0  0  0  0  0  0
    1.1620   -1.4864   -2.2181 C   0  0  0  0  0  0  0  0  0  0  0  0
    0.3736   -2.3524   -2.5537 O   0  0  0  0  0  0  0  0  0  0  0  0
    2.5022   -1.6364   -2.2858 O   0  0  0  0  0  0  0  0  0  0  0  0
    2.6343   -2.5362   -2.6235 H   0  0  0  0  0  0  0  0  0  0  0  0
   -0.0285    1.0808    0.4113 C   0  0  0  0  0  0  0  0  0  0  0  0
   -0.9503    1.8058    0.0566 O   0  0  0  0  0  0  0  0  0  0  0  0
    0.8950    1.5488    1.3276 N   0  0  0  0  0  0  0  0  0  0  0  0
    1.6165    0.9052    1.6411 H   0  0  0  0  0  0  0  0  0  0  0  0
    0.7974    2.8588    1.9607 C   0  0  0  0  0  0  0  0  0  0  0  0
   -0.1390    2.9440    2.5222 H   0  0  0  0  0  0  0  0  0  0  0  0
    1.6311    3.0075    2.6538 H   0  0  0  0  0  0  0  0  0  0  0  0
    0.8298    3.6528    1.2071 H   0  0  0  0  0  0  0  0  0  0  0  0
  1  2  1  0  0  0  0
  2  3  1  0  0  0  0
  2  4  1  0  0  0  0
  2  5  1  0  0  0  0
  5  6  2  0  0  0  0
  5  7  1  0  0  0  0
  7  8  1  0  0  0  0
  7  9  1  0  0  0  0
  9 10  1  0  0  0  0
  9 11  1  0  0  0  0
  9 18  1  0  0  0  0
 11 12  1  0  0  0  0
 11 13  1  0  0  0  0
 11 14  1  0  0  0  0
 14 15  2  0  0  0  0
 14 16  1  0  0  0  0
 16 17  1  0  0  0  0
 18 19  2  0  0  0  0
 18 20  1  0  0  0  0
 20 21  1  0  0  0  0
 20 22  1  0  0  0  0
 22 23  1  0  0  0  0
 22 24  1  0  0  0  0
 22 25  1  0  0  0  0
M  END
$$$$

  -OEChem-03222214023D

 25 24  0     1  0  0  0  0  0999 V2000
   -2.6552   -4.0247    0.3573 H   0  0  0  0  0  0  0  0  0  0  0  0
   -2.7039   -2.9795    0.0394 C   0  0  0  0  0  0  0  0  0  0  0  0
   -3.4161   -2.4491    0.6760 H   0  0  0  0  0  0  0  0  0  0  0  0
   -3.0515   -2.9429   -0.9960 H   0  0  0  0  0  0  0  0  0  0  0  0
   -1.3343   -2.3367    0.1454 C   0  0  0  0  0  0  0  0  0  0  0  0
   -0.3892   -2.9755    0.5833 O   0  0  0  0  0  0  0  0  0  0  0  0
   -1.1631   -1.0192   -0.2295 N   0  0  0  0  0  0  0  0  0  0  0  0
   -1.9875   -0.5003   -0.5270 H   0  0  0  0  0  0  0  0  0  0  0  0
    0.1250   -0.3123   -0.2215 C   0  0  1  0  0  0  0  0  0  0  0  0
    0.8662   -0.8577    0.3736 H   0  0  0  0  0  0  0  0  0  0  0  0
    0.6304   -0.1759   -1.6669 C   0  0  0  0  0  0  0  0  0  0  0  0
   -0.1740    0.1794   -2.3172 H   0  0  0  0  0  0  0  0  0  0  0  0
    1.4390    0.5583   -1.7107 H   0  0  0  0  0  0  0  0  0  0  0  0
    1.1669   -1.4973   -2.1934 C   0  0  0  0  0  0  0  0  0  0  0  0
    0.4016   -2.2564   -2.7615 O   0  0  0  0  0  0  0  0  0  0  0  0
    2.4684   -1.7799   -1.9702 O   0  0  0  0  0  0  0  0  0  0  0  0
    2.5909   -2.6760   -2.3212 H   0  0  0  0  0  0  0  0  0  0  0  0
   -0.0298    1.0859    0.4037 C   0  0  0  0  0  0  0  0  0  0  0  0
   -0.9640    1.8026    0.0651 O   0  0  0  0  0  0  0  0  0  0  0  0
    0.8903    1.5510    1.3249 N   0  0  0  0  0  0  0  0  0  0  0  0
    1.6247    0.9142    1.6225 H   0  0  0  0  0  0  0  0  0  0  0  0
    0.7856    2.8555    1.9679 C   0  0  0  0  0  0  0  0  0  0  0  0
   -0.1542    2.9340    2.5247 H   0  0  0  0  0  0  0  0  0  0  0  0
    1.6147    3.0008    2.6672 H   0  0  0  0  0  0  0  0  0  0  0  0
    0.8203    3.6548    1.2202 H   0  0  0  0  0  0  0  0  0  0  0  0
  1  2  1  0  0  0  0
  2  3  1  0  0  0  0
  2  4  1  0  0  0  0
  2  5  1  0  0  0  0
  5  6  2  0  0  0  0
  5  7  1  0  0  0  0
  7  8  1  0  0  0  0
  7  9  1  0  0  0  0
  9 10  1  0  0  0  0
  9 11  1  0  0  0  0
  9 18  1  0  0  0  0
 11 12  1  0  0  0  0
 11 13  1  0  0  0  0
 11 14  1  0  0  0  0
 14 15  2  0  0  0  0
 14 16  1  0  0  0  0
 16 17  1  0  0  0  0
 18 19  2  0  0  0  0
 18 20  1  0  0  0  0
 20 21  1  0  0  0  0
 20 22  1  0  0  0  0
 22 23  1  0  0  0  0
 22 24  1  0  0  0  0
 22 25  1  0  0  0  0
M  END
$$$$

  -OEChem-03222214023D

 25 24  0     1  0  0  0  0  0999 V2000
   -2.6664   -4.0137    0.3691 H   0  0  0  0  0  0  0  0  0  0  0  0
   -2.7128   -2.9678    0.0535 C   0  0  0  0  0  0  0  0  0  0  0  0
   -3.4025   -2.4316    0.7097 H   0  0  0  0  0  0  0  0  0  0  0  0
   -3.0885   -2.9263   -0.9718 H   0  0  0  0  0  0  0  0  0  0  0  0
   -1.3342   -2.3389    0.1233 C   0  0  0  0  0  0  0  0  0  0  0  0
   -0.3811   -2.9948    0.5148 O   0  0  0  0  0  0  0  0  0  0  0  0
   -1.1599   -1.0204   -0.2465 N   0  0  0  0  0  0  0  0  0  0  0  0
   -1.9902   -0.4864   -0.4984 H   0  0  0  0  0  0  0  0  0  0  0  0
    0.1266   -0.3097   -0.2296 C   0  0  1  0  0  0  0  0  0  0  0  0
    0.8631   -0.8546    0.3722 H   0  0  0  0  0  0  0  0  0  0  0  0
    0.6382   -0.1824   -1.6724 C   0  0  0  0  0  0  0  0  0  0  0  0
   -0.1625    0.1671   -2.3307 H   0  0  0  0  0  0  0  0  0  0  0  0
    1.4489    0.5489   -1.7183 H   0  0  0  0  0  0  0  0  0  0  0  0
    1.1774   -1.5121   -2.1726 C   0  0  0  0  0  0  0  0  0  0  0  0
    0.5093   -2.1547   -2.9631 O   0  0  0  0  0  0  0  0  0  0  0  0
    2.3790   -1.9174   -1.7076 O   0  0  0  0  0  0  0  0  0  0  0  0
    2.5081   -2.7999   -2.0889 H   0  0  0  0  0  0  0  0  0  0  0  0
   -0.0304    1.0875    0.3966 C   0  0  0  0  0  0  0  0  0  0  0  0
   -0.9734    1.7969    0.0679 O   0  0  0  0  0  0  0  0  0  0  0  0
    0.8857    1.5514    1.3223 N   0  0  0  0  0  0  0  0  0  0  0  0
    1.6294    0.9204    1.6090 H   0  0  0  0  0  0  0  0  0  0  0  0
    0.7765    2.8527    1.9709 C   0  0  0  0  0  0  0  0  0  0  0  0
   -0.1596    2.9226    2.5350 H   0  0  0  0  0  0  0  0  0  0  0  0
    1.6099    3.0012    2.6645 H   0  0  0  0  0  0  0  0  0  0  0  0
    0.8000    3.6550    1.2259 H   0  0  0  0  0  0  0  0  0  0  0  0
  1  2  1  0  0  0  0
  2  3  1  0  0  0  0
  2  4  1  0  0  0  0
  2  5  1  0  0  0  0
  5  6  2  0  0  0  0
  5  7  1  0  0  0  0
  7  8  1  0  0  0  0
  7  9  1  0  0  0  0
  9 10  1  0  0  0  0
  9 11  1  0  0  0  0
  9 18  1  0  0  0  0
 11 12  1  0  0  0  0
 11 13  1  0  0  0  0
 11 14  1  0  0  0  0
 14 15  2  0  0  0  0
 14 16  1  0  0  0  0
 16 17  1  0  0  0  0
 18 19  2  0  0  0  0
 18 20  1  0  0  0  0
 20 21  1  0  0  0  0
 20 22  1  0  0  0  0
 22 23  1  0  0  0  0
 22 24  1  0  0  0  0
 22 25  1  0  0  0  0
M  END
$$$$

  -OEChem-03222214023D

 25 24  0     1  0  0  0  0  0999 V2000
   -2.6969   -3.9947    0.3956 H   0  0  0  0  0  0  0  0  0  0  0  0
   -2.7343   -2.9486    0.0792 C   0  0  0  0  0  0  0  0  0  0  0  0
   -3.3971   -2.4000    0.7526 H   0  0  0  0  0  0  0  0  0  0  0  0
   -3.1370   -2.9024   -0.9356 H   0  0  0  0  0  0  0  0  0  0  0  0
   -1.3441   -2.3426    0.1119 C   0  0  0  0  0  0  0  0  0  0  0  0
   -0.3912   -3.0170    0.4696 O   0  0  0  0  0  0  0  0  0  0  0  0
   -1.1601   -1.0258   -0.2578 N   0  0  0  0  0  0  0  0  0  0  0  0
   -1.9916   -0.4772   -0.4727 H   0  0  0  0  0  0  0  0  0  0  0  0
    0.1276   -0.3164   -0.2319 C   0  0  1  0  0  0  0  0  0  0  0  0
    0.8555   -0.8607    0.3807 H   0  0  0  0  0  0  0  0  0  0  0  0
    0.6511   -0.1966   -1.6719 C   0  0  0  0  0  0  0  0  0  0  0  0
   -0.1450    0.1529   -2.3360 H   0  0  0  0  0  0  0  0  0  0  0  0
    1.4639    0.5328   -1.7124 H   0  0  0  0  0  0  0  0  0  0  0  0
    1.1951   -1.5271   -2.1671 C   0  0  0  0  0  0  0  0  0  0  0  0
    0.6860   -2.0356   -3.1499 O   0  0  0  0  0  0  0  0  0  0  0  0
    2.2572   -2.0543   -1.5192 O   0  0  0  0  0  0  0  0  0  0  0  0
    2.4120   -2.9112   -1.9460 H   0  0  0  0  0  0  0  0  0  0  0  0
   -0.0329    1.0819    0.3903 C   0  0  0  0  0  0  0  0  0  0  0  0
   -0.9796    1.7864    0.0617 O   0  0  0  0  0  0  0  0  0  0  0  0
    0.8764    1.5462    1.3222 N   0  0  0  0  0  0  0  0  0  0  0  0
    1.6241    0.9190    1.6070 H   0  0  0  0  0  0  0  0  0  0  0  0
    0.7630    2.8475    1.9700 C   0  0  0  0  0  0  0  0  0  0  0  0
   -0.1754    2.9164    2.5305 H   0  0  0  0  0  0  0  0  0  0  0  0
    1.5934    2.9972    2.6668 H   0  0  0  0  0  0  0  0  0  0  0  0
    0.7885    3.6500    1.2253 H   0  0  0  0  0  0  0  0  0  0  0  0
  1  2  1  0  0  0  0
  2  3  1  0  0  0  0
  2  4  1  0  0  0  0
  2  5  1  0  0  0  0
  5  6  2  0  0  0  0
  5  7  1  0  0  0  0
  7  8  1  0  0  0  0
  7  9  1  0  0  0  0
  9 10  1  0  0  0  0
  9 11  1  0  0  0  0
  9 18  1  0  0  0  0
 11 12  1  0  0  0  0
 11 13  1  0  0  0  0
 11 14  1  0  0  0  0
 14 15  2  0  0  0  0
 14 16  1  0  0  0  0
 16 17  1  0  0  0  0
 18 19  2  0  0  0  0
 18 20  1  0  0  0  0
 20 21  1  0  0  0  0
 20 22  1  0  0  0  0
 22 23  1  0  0  0  0
 22 24  1  0  0  0  0
 22 25  1  0  0  0  0
M  END
$$$$

  -OEChem-03222214023D

 25 24  0     1  0  0  0  0  0999 V2000
   -2.7419   -3.9779    0.4177 H   0  0  0  0  0  0  0  0  0  0  0  0
   -2.7639   -2.9319    0.0991 C   0  0  0  0  0  0  0  0  0  0  0  0
   -3.4147   -2.3715    0.7746 H   0  0  0  0  0  0  0  0  0  0  0  0
   -3.1704   -2.8815   -0.9140 H   0  0  0  0  0  0  0  0  0  0  0  0
   -1.3640   -2.3478    0.1240 C   0  0  0  0  0  0  0  0  0  0  0  0
   -0.4223   -3.0364    0.4819 O   0  0  0  0  0  0  0  0  0  0  0  0
   -1.1633   -1.0353   -0.2523 N   0  0  0  0  0  0  0  0  0  0  0  0
   -1.9912   -0.4759   -0.4538 H   0  0  0  0  0  0  0  0  0  0  0  0
    0.1279   -0.3315   -0.2226 C   0  0  1  0  0  0  0  0  0  0  0  0
    0.8480   -0.8757    0.3992 H   0  0  0  0  0  0  0  0  0  0  0  0
    0.6603   -0.2152   -1.6616 C   0  0  0  0  0  0  0  0  0  0  0  0
   -0.1328    0.1410   -2.3256 H   0  0  0  0  0  0  0  0  0  0  0  0
    1.4743    0.5130   -1.6946 H   0  0  0  0  0  0  0  0  0  0  0  0
    1.2086   -1.5377   -2.1766 C   0  0  0  0  0  0  0  0  0  0  0  0
    0.9006   -1.8900   -3.3010 O   0  0  0  0  0  0  0  0  0  0  0  0
    2.1046   -2.1972   -1.4096 O   0  0  0  0  0  0  0  0  0  0  0  0
    2.3042   -3.0128   -1.8939 H   0  0  0  0  0  0  0  0  0  0  0  0
   -0.0337    1.0713    0.3891 C   0  0  0  0  0  0  0  0  0  0  0  0
   -0.9788    1.7738    0.0516 O   0  0  0  0  0  0  0  0  0  0  0  0
    0.8692    1.5402    1.3248 N   0  0  0  0  0  0  0  0  0  0  0  0
    1.6149    0.9143    1.6176 H   0  0  0  0  0  0  0  0  0  0  0  0
    0.7537    2.8465    1.9620 C   0  0  0  0  0  0  0  0  0  0  0  0
   -0.1855    2.9192    2.5205 H   0  0  0  0  0  0  0  0  0  0  0  0
    1.5830    3.0024    2.6586 H   0  0  0  0  0  0  0  0  0  0  0  0
    0.7798    3.6430    1.2109 H   0  0  0  0  0  0  0  0  0  0  0  0
  1  2  1  0  0  0  0
  2  3  1  0  0  0  0
  2  4  1  0  0  0  0
  2  5  1  0  0  0  0
  5  6  2  0  0  0  0
  5  7  1  0  0  0  0
  7  8  1  0  0  0  0
  7  9  1  0  0  0  0
  9 10  1  0  0  0  0
  9 11  1  0  0  0  0
  9 18  1  0  0  0  0
 11 12  1  0  0  0  0
 11 13  1  0  0  0  0
 11 14  1  0  0  0  0
 14 15  2  0  0  0  0
 14 16  1  0  0  0  0
 16 17  1  0  0  0  0
 18 19  2  0  0  0  0
 18 20  1  0  0  0  0
 20 21  1  0  0  0  0
 20 22  1  0  0  0  0
 22 23  1  0  0  0  0
 22 24  1  0  0  0  0
 22 25  1  0  0  0  0
M  END
$$$$

  -OEChem-03222214023D

 25 24  0     1  0  0  0  0  0999 V2000
   -2.7851   -3.9665    0.4330 H   0  0  0  0  0  0  0  0  0  0  0  0
   -2.7906   -2.9215    0.1108 C   0  0  0  0  0  0  0  0  0  0  0  0
   -3.4456   -2.3515    0.7741 H   0  0  0  0  0  0  0  0  0  0  0  0
   -3.1807   -2.8697   -0.9085 H   0  0  0  0  0  0  0  0  0  0  0  0
   -1.3853   -2.3520    0.1564 C   0  0  0  0  0  0  0  0  0  0  0  0
   -0.4633   -3.0406    0.5606 O   0  0  0  0  0  0  0  0  0  0  0  0
   -1.1667   -1.0459   -0.2321 N   0  0  0  0  0  0  0  0  0  0  0  0
   -1.9872   -0.4851   -0.4585 H   0  0  0  0  0  0  0  0  0  0  0  0
    0.1294   -0.3497   -0.2066 C   0  0  1  0  0  0  0  0  0  0  0  0
    0.8472   -0.8930    0.4182 H   0  0  0  0  0  0  0  0  0  0  0  0
    0.6621   -0.2320   -1.6483 C   0  0  0  0  0  0  0  0  0  0  0  0
   -0.1325    0.1335   -2.3055 H   0  0  0  0  0  0  0  0  0  0  0  0
    1.4762    0.4965   -1.6743 H   0  0  0  0  0  0  0  0  0  0  0  0
    1.2123   -1.5397   -2.2008 C   0  0  0  0  0  0  0  0  0  0  0  0
    1.1296   -1.7231   -3.4017 O   0  0  0  0  0  0  0  0  0  0  0  0
    1.9066   -2.3515   -1.3745 O   0  0  0  0  0  0  0  0  0  0  0  0
    2.1671   -3.1121   -1.9152 H   0  0  0  0  0  0  0  0  0  0  0  0
   -0.0322    1.0595    0.3908 C   0  0  0  0  0  0  0  0  0  0  0  0
   -0.9708    1.7633    0.0375 O   0  0  0  0  0  0  0  0  0  0  0  0
    0.8675    1.5355    1.3260 N   0  0  0  0  0  0  0  0  0  0  0  0
    1.6037    0.9068    1.6365 H   0  0  0  0  0  0  0  0  0  0  0  0
    0.7512    2.8480    1.9503 C   0  0  0  0  0  0  0  0  0  0  0  0
   -0.1954    2.9314    2.4945 H   0  0  0  0  0  0  0  0  0  0  0  0
    1.5714    3.0048    2.6574 H   0  0  0  0  0  0  0  0  0  0  0  0
    0.7928    3.6377    1.1927 H   0  0  0  0  0  0  0  0  0  0  0  0
  1  2  1  0  0  0  0
  2  3  1  0  0  0  0
  2  4  1  0  0  0  0
  2  5  1  0  0  0  0
  5  6  2  0  0  0  0
  5  7  1  0  0  0  0
  7  8  1  0  0  0  0
  7  9  1  0  0  0  0
  9 10  1  0  0  0  0
  9 11  1  0  0  0  0
  9 18  1  0  0  0  0
 11 12  1  0  0  0  0
 11 13  1  0  0  0  0
 11 14  1  0  0  0  0
 14 15  2  0  0  0  0
 14 16  1  0  0  0  0
 16 17  1  0  0  0  0
 18 19  2  0  0  0  0
 18 20  1  0  0  0  0
 20 21  1  0  0  0  0
 20 22  1  0  0  0  0
 22 23  1  0  0  0  0
 22 24  1  0  0  0  0
 22 25  1  0  0  0  0
M  END
$$$$

  -OEChem-03222214023D

 25 24  0     1  0  0  0  0  0999 V2000
   -2.8080   -3.9711    0.4305 H   0  0  0  0  0  0  0  0  0  0  0  0
   -2.8039   -2.9283    0.1009 C   0  0  0  0  0  0  0  0  0  0  0  0
   -3.4904   -2.3566    0.7301 H   0  0  0  0  0  0  0  0  0  0  0  0
   -3.1483   -2.8860   -0.9352 H   0  0  0  0  0  0  0  0  0  0  0  0
   -1.4043   -2.3521    0.2053 C   0  0  0  0  0  0  0  0  0  0  0  0
   -0.5105   -3.0209    0.6963 O   0  0  0  0  0  0  0  0  0  0  0  0
   -1.1715   -1.0529   -0.1992 N   0  0  0  0  0  0  0  0  0  0  0  0
   -1.9812   -0.5022   -0.4805 H   0  0  0  0  0  0  0  0  0  0  0  0
    0.1299   -0.3655   -0.1834 C   0  0  1  0  0  0  0  0  0  0  0  0
    0.8505   -0.9094    0.4377 H   0  0  0  0  0  0  0  0  0  0  0  0
    0.6578   -0.2399   -1.6289 C   0  0  0  0  0  0  0  0  0  0  0  0
   -0.1404    0.1374   -2.2748 H   0  0  0  0  0  0  0  0  0  0  0  0
    1.4715    0.4896   -1.6484 H   0  0  0  0  0  0  0  0  0  0  0  0
    1.2068   -1.5289   -2.2283 C   0  0  0  0  0  0  0  0  0  0  0  0
    1.3667   -1.5512   -3.4351 O   0  0  0  0  0  0  0  0  0  0  0  0
    1.6331   -2.5136   -1.4108 O   0  0  0  0  0  0  0  0  0  0  0  0
    1.9619   -3.2155   -1.9917 H   0  0  0  0  0  0  0  0  0  0  0  0
   -0.0291    1.0511    0.3985 C   0  0  0  0  0  0  0  0  0  0  0  0
   -0.9588    1.7584    0.0286 O   0  0  0  0  0  0  0  0  0  0  0  0
    0.8714    1.5345    1.3292 N   0  0  0  0  0  0  0  0  0  0  0  0
    1.5960    0.9020    1.6580 H   0  0  0  0  0  0  0  0  0  0  0  0
    0.7628    2.8565    1.9346 C   0  0  0  0  0  0  0  0  0  0  0  0
   -0.1783    2.9498    2.4868 H   0  0  0  0  0  0  0  0  0  0  0  0
    1.5903    3.0225    2.6311 H   0  0  0  0  0  0  0  0  0  0  0  0
    0.7988    3.6348    1.1649 H   0  0  0  0  0  0  0  0  0  0  0  0
  1  2  1  0  0  0  0
  2  3  1  0  0  0  0
  2  4  1  0  0  0  0
  2  5  1  0  0  0  0
  5  6  2  0  0  0  0
  5  7  1  0  0  0  0
  7  8  1  0  0  0  0
  7  9  1  0  0  0  0
  9 10  1  0  0  0  0
  9 11  1  0  0  0  0
  9 18  1  0  0  0  0
 11 12  1  0  0  0  0
 11 13  1  0  0  0  0
 11 14  1  0  0  0  0
 14 15  2  0  0  0  0
 14 16  1  0  0  0  0
 16 17  1  0  0  0  0
 18 19  2  0  0  0  0
 18 20  1  0  0  0  0
 20 21  1  0  0  0  0
 20 22  1  0  0  0  0
 22 23  1  0  0  0  0
 22 24  1  0  0  0  0
 22 25  1  0  0  0  0
M  END
$$$$

  -OEChem-03222214023D

 25 24  0     1  0  0  0  0  0999 V2000
   -2.8102   -3.9903    0.4886 H   0  0  0  0  0  0  0  0  0  0  0  0
   -2.8103   -2.9615    0.1179 C   0  0  0  0  0  0  0  0  0  0  0  0
   -3.5579   -2.3870    0.6700 H   0  0  0  0  0  0  0  0  0  0  0  0
   -3.0753   -2.9700   -0.9421 H   0  0  0  0  0  0  0  0  0  0  0  0
   -1.4387   -2.3402    0.3028 C   0  0  0  0  0  0  0  0  0  0  0  0
   -0.5729   -2.9497    0.9119 O   0  0  0  0  0  0  0  0  0  0  0  0
   -1.2082   -1.0506   -0.1348 N   0  0  0  0  0  0  0  0  0  0  0  0
   -2.0003   -0.5381   -0.5175 H   0  0  0  0  0  0  0  0  0  0  0  0
    0.1032   -0.3829   -0.1583 C   0  0  1  0  0  0  0  0  0  0  0  0
    0.8235   -0.9374    0.4530 H   0  0  0  0  0  0  0  0  0  0  0  0
    0.6484   -0.2508   -1.6019 C   0  0  0  0  0  0  0  0  0  0  0  0
   -0.0479    0.3638   -2.1802 H   0  0  0  0  0  0  0  0  0  0  0  0
    1.6034    0.2802   -1.5643 H   0  0  0  0  0  0  0  0  0  0  0  0
    0.8801   -1.5324   -2.3986 C   0  0  0  0  0  0  0  0  0  0  0  0
    1.3081   -1.3875   -3.5290 O   0  0  0  0  0  0  0  0  0  0  0  0
    0.6808   -2.7433   -1.8429 O   0  0  0  0  0  0  0  0  0  0  0  0
    0.9428   -3.3873   -2.5174 H   0  0  0  0  0  0  0  0  0  0  0  0
   -0.0294    1.0461    0.4027 C   0  0  0  0  0  0  0  0  0  0  0  0
   -0.9454    1.7669    0.0243 O   0  0  0  0  0  0  0  0  0  0  0  0
    0.8944    1.5344    1.3080 N   0  0  0  0  0  0  0  0  0  0  0  0
    1.5929    0.8872    1.6634 H   0  0  0  0  0  0  0  0  0  0  0  0
    0.8014    2.8630    1.9021 C   0  0  0  0  0  0  0  0  0  0  0  0
   -0.1266    2.9627    2.4751 H   0  0  0  0  0  0  0  0  0  0  0  0
    1.6452    3.0359    2.5771 H   0  0  0  0  0  0  0  0  0  0  0  0
    0.8190    3.6333    1.1238 H   0  0  0  0  0  0  0  0  0  0  0  0
  1  2  1  0  0  0  0
  2  3  1  0  0  0  0
  2  4  1  0  0  0  0
  2  5  1  0  0  0  0
  5  6  2  0  0  0  0
  5  7  1  0  0  0  0
  7  8  1  0  0  0  0
  7  9  1  0  0  0  0
  9 10  1  0  0  0  0
  9 11  1  0  0  0  0
  9 18  1  0  0  0  0
 11 12  1  0  0  0  0
 11 13  1  0  0  0  0
 11 14  1  0  0  0  0
 14 15  2  0  0  0  0
 14 16  1  0  0  0  0
 16 17  1  0  0  0  0
 18 19  2  0  0  0  0
 18 20  1  0  0  0  0
 20 21  1  0  0  0  0
 20 22  1  0  0  0  0
 22 23  1  0  0  0  0
 22 24  1  0  0  0  0
 22 25  1  0  0  0  0
M  END
$$$$

  -OEChem-03222214023D

 25 24  0     1  0  0  0  0  0999 V2000
   -2.8162   -3.9875    0.5229 H   0  0  0  0  0  0  0  0  0  0  0  0
   -2.8172   -2.9615    0.1447 C   0  0  0  0  0  0  0  0  0  0  0  0
   -3.5566   -2.3805    0.7009 H   0  0  0  0  0  0  0  0  0  0  0  0
   -3.0944   -2.9771   -0.9121 H   0  0  0  0  0  0  0  0  0  0  0  0
   -1.4419   -2.3425    0.3081 C   0  0  0  0  0  0  0  0  0  0  0  0
   -0.5617   -2.9587    0.8904 O   0  0  0  0  0  0  0  0  0  0  0  0
   -1.2158   -1.0524   -0.1310 N   0  0  0  0  0  0  0  0  0  0  0  0
   -2.0090   -0.5418   -0.5136 H   0  0  0  0  0  0  0  0  0  0  0  0
    0.0966   -0.3880   -0.1582 C   0  0  1  0  0  0  0  0  0  0  0  0
    0.8131   -0.9411    0.4584 H   0  0  0  0  0  0  0  0  0  0  0  0
    0.6622   -0.2543   -1.5944 C   0  0  0  0  0  0  0  0  0  0  0  0
   -0.0294    0.3587   -2.1796 H   0  0  0  0  0  0  0  0  0  0  0  0
    1.6132    0.2834   -1.5408 H   0  0  0  0  0  0  0  0  0  0  0  0
    0.9080   -1.5293   -2.4009 C   0  0  0  0  0  0  0  0  0  0  0  0
    1.6058   -1.4005   -3.3903 O   0  0  0  0  0  0  0  0  0  0  0  0
    0.3436   -2.7038   -2.0554 O   0  0  0  0  0  0  0  0  0  0  0  0
    0.6654   -3.3455   -2.7059 H   0  0  0  0  0  0  0  0  0  0  0  0
   -0.0352    1.0406    0.4039 C   0  0  0  0  0  0  0  0  0  0  0  0
   -0.9506    1.7624    0.0259 O   0  0  0  0  0  0  0  0  0  0  0  0
    0.8903    1.5286    1.3076 N   0  0  0  0  0  0  0  0  0  0  0  0
    1.5927    0.8832    1.6583 H   0  0  0  0  0  0  0  0  0  0  0  0
    0.8040    2.8608    1.8944 C   0  0  0  0  0  0  0  0  0  0  0  0
   -0.1223    2.9674    2.4687 H   0  0  0  0  0  0  0  0  0  0  0  0
    1.6502    3.0342    2.5663 H   0  0  0  0  0  0  0  0  0  0  0  0
    0.8231    3.6267    1.1117 H   0  0  0  0  0  0  0  0  0  0  0  0
  1  2  1  0  0  0  0
  2  3  1  0  0  0  0
  2  4  1  0  0  0  0
  2  5  1  0  0  0  0
  5  6  2  0  0  0  0
  5  7  1  0  0  0  0
  7  8  1  0  0  0  0
  7  9  1  0  0  0  0
  9 10  1  0  0  0  0
  9 11  1  0  0  0  0
  9 18  1  0  0  0  0
 11 12  1  0  0  0  0
 11 13  1  0  0  0  0
 11 14  1  0  0  0  0
 14 15  2  0  0  0  0
 14 16  1  0  0  0  0
 16 17  1  0  0  0  0
 18 19  2  0  0  0  0
 18 20  1  0  0  0  0
 20 21  1  0  0  0  0
 20 22  1  0  0  0  0
 22 23  1  0  0  0  0
 22 24  1  0  0  0  0
 22 25  1  0  0  0  0
M  END
$$$$

  -OEChem-03222214023D

 25 24  0     1  0  0  0  0  0999 V2000
   -2.8088   -3.9857    0.5360 H   0  0  0  0  0  0  0  0  0  0  0  0
   -2.8163   -2.9593    0.1589 C   0  0  0  0  0  0  0  0  0  0  0  0
   -3.5384   -2.3764    0.7356 H   0  0  0  0  0  0  0  0  0  0  0  0
   -3.1214   -2.9719   -0.8902 H   0  0  0  0  0  0  0  0  0  0  0  0
   -1.4348   -2.3459    0.2854 C   0  0  0  0  0  0  0  0  0  0  0  0
   -0.5307   -2.9797    0.8095 O   0  0  0  0  0  0  0  0  0  0  0  0
   -1.2183   -1.0509   -0.1432 N   0  0  0  0  0  0  0  0  0  0  0  0
   -2.0196   -0.5333   -0.4987 H   0  0  0  0  0  0  0  0  0  0  0  0
    0.0904   -0.3814   -0.1698 C   0  0  1  0  0  0  0  0  0  0  0  0
    0.8064   -0.9330    0.4486 H   0  0  0  0  0  0  0  0  0  0  0  0
    0.6646   -0.2524   -1.6016 C   0  0  0  0  0  0  0  0  0  0  0  0
   -0.0269    0.3500   -2.1972 H   0  0  0  0  0  0  0  0  0  0  0  0
    1.6114    0.2928   -1.5475 H   0  0  0  0  0  0  0  0  0  0  0  0
    0.9145   -1.5419   -2.3842 C   0  0  0  0  0  0  0  0  0  0  0  0
    1.8279   -1.5061   -3.1888 O   0  0  0  0  0  0  0  0  0  0  0  0
    0.0804   -2.5975   -2.2759 O   0  0  0  0  0  0  0  0  0  0  0  0
    0.4422   -3.2688   -2.8739 H   0  0  0  0  0  0  0  0  0  0  0  0
   -0.0420    1.0423    0.4039 C   0  0  0  0  0  0  0  0  0  0  0  0
   -0.9620    1.7637    0.0368 O   0  0  0  0  0  0  0  0  0  0  0  0
    0.8863    1.5257    1.3073 N   0  0  0  0  0  0  0  0  0  0  0  0
    1.5994    0.8832    1.6415 H   0  0  0  0  0  0  0  0  0  0  0  0
    0.8042    2.8551    1.9004 C   0  0  0  0  0  0  0  0  0  0  0  0
   -0.1196    2.9603    2.4789 H   0  0  0  0  0  0  0  0  0  0  0  0
    1.6533    3.0244    2.5697 H   0  0  0  0  0  0  0  0  0  0  0  0
    0.8211    3.6243    1.1210 H   0  0  0  0  0  0  0  0  0  0  0  0
  1  2  1  0  0  0  0
  2  3  1  0  0  0  0
  2  4  1  0  0  0  0
  2  5  1  0  0  0  0
  5  6  2  0  0  0  0
  5  7  1  0  0  0  0
  7  8  1  0  0  0  0
  7  9  1  0  0  0  0
  9 10  1  0  0  0  0
  9 11  1  0  0  0  0
  9 18  1  0  0  0  0
 11 12  1  0  0  0  0
 11 13  1  0  0  0  0
 11 14  1  0  0  0  0
 14 15  2  0  0  0  0
 14 16  1  0  0  0  0
 16 17  1  0  0  0  0
 18 19  2  0  0  0  0
 18 20  1  0  0  0  0
 20 21  1  0  0  0  0
 20 22  1  0  0  0  0
 22 23  1  0  0  0  0
 22 24  1  0  0  0  0
 22 25  1  0  0  0  0
M  END
$$$$

  -OEChem-03222214023D

 25 24  0     1  0  0  0  0  0999 V2000
   -2.7899   -3.9884    0.5156 H   0  0  0  0  0  0  0  0  0  0  0  0
   -2.8081   -2.9555    0.1571 C   0  0  0  0  0  0  0  0  0  0  0  0
   -3.5080   -2.3813    0.7687 H   0  0  0  0  0  0  0  0  0  0  0  0
   -3.1500   -2.9493   -0.8807 H   0  0  0  0  0  0  0  0  0  0  0  0
   -1.4217   -2.3467    0.2457 C   0  0  0  0  0  0  0  0  0  0  0  0
   -0.4956   -2.9987    0.7049 O   0  0  0  0  0  0  0  0  0  0  0  0
   -1.2164   -1.0451   -0.1670 N   0  0  0  0  0  0  0  0  0  0  0  0
   -2.0277   -0.5183   -0.4849 H   0  0  0  0  0  0  0  0  0  0  0  0
    0.0873   -0.3666   -0.1892 C   0  0  1  0  0  0  0  0  0  0  0  0
    0.8056   -0.9187    0.4261 H   0  0  0  0  0  0  0  0  0  0  0  0
    0.6560   -0.2430   -1.6205 C   0  0  0  0  0  0  0  0  0  0  0  0
   -0.0388    0.3475   -2.2239 H   0  0  0  0  0  0  0  0  0  0  0  0
    1.6020    0.3050   -1.5779 H   0  0  0  0  0  0  0  0  0  0  0  0
    0.8975   -1.5566   -2.3624 C   0  0  0  0  0  0  0  0  0  0  0  0
    1.9581   -1.6577   -2.9524 O   0  0  0  0  0  0  0  0  0  0  0  0
   -0.0941   -2.4676   -2.4782 O   0  0  0  0  0  0  0  0  0  0  0  0
    0.2871   -3.1862   -3.0053 H   0  0  0  0  0  0  0  0  0  0  0  0
   -0.0451    1.0501    0.4003 C   0  0  0  0  0  0  0  0  0  0  0  0
   -0.9731    1.7696    0.0506 O   0  0  0  0  0  0  0  0  0  0  0  0
    0.8861    1.5261    1.3046 N   0  0  0  0  0  0  0  0  0  0  0  0
    1.6107    0.8860    1.6181 H   0  0  0  0  0  0  0  0  0  0  0  0
    0.8025    2.8471    1.9159 C   0  0  0  0  0  0  0  0  0  0  0  0
   -0.1232    2.9448    2.4927 H   0  0  0  0  0  0  0  0  0  0  0  0
    1.6490    3.0058    2.5910 H   0  0  0  0  0  0  0  0  0  0  0  0
    0.8231    3.6271    1.1473 H   0  0  0  0  0  0  0  0  0  0  0  0
  1  2  1  0  0  0  0
  2  3  1  0  0  0  0
  2  4  1  0  0  0  0
  2  5  1  0  0  0  0
  5  6  2  0  0  0  0
  5  7  1  0  0  0  0
  7  8  1  0  0  0  0
  7  9  1  0  0  0  0
  9 10  1  0  0  0  0
  9 11  1  0  0  0  0
  9 18  1  0  0  0  0
 11 12  1  0  0  0  0
 11 13  1  0  0  0  0
 11 14  1  0  0  0  0
 14 15  2  0  0  0  0
 14 16  1  0  0  0  0
 16 17  1  0  0  0  0
 18 19  2  0  0  0  0
 18 20  1  0  0  0  0
 20 21  1  0  0  0  0
 20 22  1  0  0  0  0
 22 23  1  0  0  0  0
 22 24  1  0  0  0  0
 22 25  1  0  0  0  0
M  END
$$$$

  -OEChem-03222214023D

 25 24  0     1  0  0  0  0  0999 V2000
   -2.7740   -3.9941    0.4782 H   0  0  0  0  0  0  0  0  0  0  0  0
   -2.8013   -2.9530    0.1448 C   0  0  0  0  0  0  0  0  0  0  0  0
   -3.4738   -2.3911    0.7973 H   0  0  0  0  0  0  0  0  0  0  0  0
   -3.1848   -2.9203   -0.8779 H   0  0  0  0  0  0  0  0  0  0  0  0
   -1.4096   -2.3517    0.1920 C   0  0  0  0  0  0  0  0  0  0  0  0
   -0.4667   -3.0216    0.5852 O   0  0  0  0  0  0  0  0  0  0  0  0
   -1.2140   -1.0421   -0.1978 N   0  0  0  0  0  0  0  0  0  0  0  0
   -2.0360   -0.5028   -0.4641 H   0  0  0  0  0  0  0  0  0  0  0  0
    0.0835   -0.3512   -0.2097 C   0  0  1  0  0  0  0  0  0  0  0  0
    0.8055   -0.9072    0.3984 H   0  0  0  0  0  0  0  0  0  0  0  0
    0.6434   -0.2247   -1.6407 C   0  0  0  0  0  0  0  0  0  0  0  0
   -0.0560    0.3557   -2.2483 H   0  0  0  0  0  0  0  0  0  0  0  0
    1.5885    0.3252   -1.6103 H   0  0  0  0  0  0  0  0  0  0  0  0
    0.8778   -1.5569   -2.3460 C   0  0  0  0  0  0  0  0  0  0  0  0
    2.0175   -1.8027   -2.6984 O   0  0  0  0  0  0  0  0  0  0  0  0
   -0.1781   -2.3378   -2.6685 O   0  0  0  0  0  0  0  0  0  0  0  0
    0.2096   -3.1076   -3.1125 H   0  0  0  0  0  0  0  0  0  0  0  0
   -0.0505    1.0557    0.4011 C   0  0  0  0  0  0  0  0  0  0  0  0
   -0.9887    1.7723    0.0737 O   0  0  0  0  0  0  0  0  0  0  0  0
    0.8819    1.5222    1.3090 N   0  0  0  0  0  0  0  0  0  0  0  0
    1.6254    0.8896    1.5921 H   0  0  0  0  0  0  0  0  0  0  0  0
    0.8041    2.8401    1.9280 C   0  0  0  0  0  0  0  0  0  0  0  0
   -0.1282    2.9440    2.4932 H   0  0  0  0  0  0  0  0  0  0  0  0
    1.6429    2.9854    2.6155 H   0  0  0  0  0  0  0  0  0  0  0  0
    0.8434    3.6247    1.1649 H   0  0  0  0  0  0  0  0  0  0  0  0
  1  2  1  0  0  0  0
  2  3  1  0  0  0  0
  2  4  1  0  0  0  0
  2  5  1  0  0  0  0
  5  6  2  0  0  0  0
  5  7  1  0  0  0  0
  7  8  1  0  0  0  0
  7  9  1  0  0  0  0
  9 10  1  0  0  0  0
  9 11  1  0  0  0  0
  9 18  1  0  0  0  0
 11 12  1  0  0  0  0
 11 13  1  0  0  0  0
 11 14  1  0  0  0  0
 14 15  2  0  0  0  0
 14 16  1  0  0  0  0
 16 17  1  0  0  0  0
 18 19  2  0  0  0  0
 18 20  1  0  0  0  0
 20 21  1  0  0  0  0
 20 22  1  0  0  0  0
 22 23  1  0  0  0  0
 22 24  1  0  0  0  0
 22 25  1  0  0  0  0
M  END
$$$$

  -OEChem-03222214023D

 25 24  0     1  0  0  0  0  0999 V2000
   -2.7541   -3.9940    0.4395 H   0  0  0  0  0  0  0  0  0  0  0  0
   -2.7869   -2.9494    0.1176 C   0  0  0  0  0  0  0  0  0  0  0  0
   -3.4491   -2.3946    0.7866 H   0  0  0  0  0  0  0  0  0  0  0  0
   -3.1862   -2.9062   -0.8987 H   0  0  0  0  0  0  0  0  0  0  0  0
   -1.3948   -2.3485    0.1499 C   0  0  0  0  0  0  0  0  0  0  0  0
   -0.4438   -3.0263    0.5066 O   0  0  0  0  0  0  0  0  0  0  0  0
   -1.2063   -1.0335   -0.2238 N   0  0  0  0  0  0  0  0  0  0  0  0
   -2.0348   -0.4889   -0.4584 H   0  0  0  0  0  0  0  0  0  0  0  0
    0.0862   -0.3328   -0.2296 C   0  0  1  0  0  0  0  0  0  0  0  0
    0.8136   -0.8906    0.3706 H   0  0  0  0  0  0  0  0  0  0  0  0
    0.6303   -0.2069   -1.6641 C   0  0  0  0  0  0  0  0  0  0  0  0
   -0.0753    0.3660   -2.2718 H   0  0  0  0  0  0  0  0  0  0  0  0
    1.5764    0.3417   -1.6512 H   0  0  0  0  0  0  0  0  0  0  0  0
    0.8543   -1.5548   -2.3370 C   0  0  0  0  0  0  0  0  0  0  0  0
    2.0036   -1.9425   -2.4458 O   0  0  0  0  0  0  0  0  0  0  0  0
   -0.2058   -2.2224   -2.8464 O   0  0  0  0  0  0  0  0  0  0  0  0
    0.1692   -3.0410   -3.2062 H   0  0  0  0  0  0  0  0  0  0  0  0
   -0.0488    1.0669    0.3960 C   0  0  0  0  0  0  0  0  0  0  0  0
   -0.9947    1.7810    0.0859 O   0  0  0  0  0  0  0  0  0  0  0  0
    0.8864    1.5248    1.3052 N   0  0  0  0  0  0  0  0  0  0  0  0
    1.6369    0.8930    1.5717 H   0  0  0  0  0  0  0  0  0  0  0  0
    0.8043    2.8314    1.9468 C   0  0  0  0  0  0  0  0  0  0  0  0
   -0.1253    2.9202    2.5190 H   0  0  0  0  0  0  0  0  0  0  0  0
    1.6462    2.9699    2.6320 H   0  0  0  0  0  0  0  0  0  0  0  0
    0.8343    3.6293    1.1972 H   0  0  0  0  0  0  0  0  0  0  0  0
  1  2  1  0  0  0  0
  2  3  1  0  0  0  0
  2  4  1  0  0  0  0
  2  5  1  0  0  0  0
  5  6  2  0  0  0  0
  5  7  1  0  0  0  0
  7  8  1  0  0  0  0
  7  9  1  0  0  0  0
  9 10  1  0  0  0  0
  9 11  1  0  0  0  0
  9 18  1  0  0  0  0
 11 12  1  0  0  0  0
 11 13  1  0  0  0  0
 11 14  1  0  0  0  0
 14 15  2  0  0  0  0
 14 16  1  0  0  0  0
 16 17  1  0  0  0  0
 18 19  2  0  0  0  0
 18 20  1  0  0  0  0
 20 21  1  0  0  0  0
 20 22  1  0  0  0  0
 22 23  1  0  0  0  0
 22 24  1  0  0  0  0
 22 25  1  0  0  0  0
M  END
$$$$

  -OEChem-03222214023D

 25 24  0     1  0  0  0  0  0999 V2000
   -2.7424   -3.9954    0.4030 H   0  0  0  0  0  0  0  0  0  0  0  0
   -2.7756   -2.9477    0.0912 C   0  0  0  0  0  0  0  0  0  0  0  0
   -3.4348   -2.3989    0.7680 H   0  0  0  0  0  0  0  0  0  0  0  0
   -3.1788   -2.8943   -0.9230 H   0  0  0  0  0  0  0  0  0  0  0  0
   -1.3829   -2.3480    0.1244 C   0  0  0  0  0  0  0  0  0  0  0  0
   -0.4320   -3.0294    0.4718 O   0  0  0  0  0  0  0  0  0  0  0  0
   -1.1952   -1.0306   -0.2401 N   0  0  0  0  0  0  0  0  0  0  0  0
   -2.0263   -0.4828   -0.4580 H   0  0  0  0  0  0  0  0  0  0  0  0
    0.0945   -0.3233   -0.2393 C   0  0  1  0  0  0  0  0  0  0  0  0
    0.8261   -0.8828    0.3547 H   0  0  0  0  0  0  0  0  0  0  0  0
    0.6246   -0.1934   -1.6771 C   0  0  0  0  0  0  0  0  0  0  0  0
   -0.0859    0.3780   -2.2806 H   0  0  0  0  0  0  0  0  0  0  0  0
    1.5726    0.3517   -1.6758 H   0  0  0  0  0  0  0  0  0  0  0  0
    0.8421   -1.5466   -2.3372 C   0  0  0  0  0  0  0  0  0  0  0  0
    1.9359   -2.0667   -2.2104 O   0  0  0  0  0  0  0  0  0  0  0  0
   -0.1694   -2.1013   -3.0422 O   0  0  0  0  0  0  0  0  0  0  0  0
    0.1796   -2.9561   -3.3387 H   0  0  0  0  0  0  0  0  0  0  0  0
   -0.0435    1.0723    0.3934 C   0  0  0  0  0  0  0  0  0  0  0  0
   -0.9918    1.7851    0.0878 O   0  0  0  0  0  0  0  0  0  0  0  0
    0.8904    1.5271    1.3055 N   0  0  0  0  0  0  0  0  0  0  0  0
    1.6393    0.8933    1.5719 H   0  0  0  0  0  0  0  0  0  0  0  0
    0.8029    2.8283    1.9575 C   0  0  0  0  0  0  0  0  0  0  0  0
   -0.1175    2.9012    2.5463 H   0  0  0  0  0  0  0  0  0  0  0  0
    1.6551    2.9733    2.6284 H   0  0  0  0  0  0  0  0  0  0  0  0
    0.8095    3.6315    1.2130 H   0  0  0  0  0  0  0  0  0  0  0  0
  1  2  1  0  0  0  0
  2  3  1  0  0  0  0
  2  4  1  0  0  0  0
  2  5  1  0  0  0  0
  5  6  2  0  0  0  0
  5  7  1  0  0  0  0
  7  8  1  0  0  0  0
  7  9  1  0  0  0  0
  9 10  1  0  0  0  0
  9 11  1  0  0  0  0
  9 18  1  0  0  0  0
 11 12  1  0  0  0  0
 11 13  1  0  0  0  0
 11 14  1  0  0  0  0
 14 15  2  0  0  0  0
 14 16  1  0  0  0  0
 16 17  1  0  0  0  0
 18 19  2  0  0  0  0
 18 20  1  0  0  0  0
 20 21  1  0  0  0  0
 20 22  1  0  0  0  0
 22 23  1  0  0  0  0
 22 24  1  0  0  0  0
 22 25  1  0  0  0  0
M  END
$$$$

  -OEChem-03222214023D

 25 24  0     1  0  0  0  0  0999 V2000
   -2.7403   -4.0006    0.3885 H   0  0  0  0  0  0  0  0  0  0  0  0
   -2.7710   -2.9511    0.0823 C   0  0  0  0  0  0  0  0  0  0  0  0
   -3.4315   -2.4051    0.7601 H   0  0  0  0  0  0  0  0  0  0  0  0
   -3.1711   -2.8921   -0.9328 H   0  0  0  0  0  0  0  0  0  0  0  0
   -1.3775   -2.3535    0.1235 C   0  0  0  0  0  0  0  0  0  0  0  0
   -0.4337   -3.0327    0.4914 O   0  0  0  0  0  0  0  0  0  0  0  0
   -1.1863   -1.0367   -0.2418 N   0  0  0  0  0  0  0  0  0  0  0  0
   -2.0167   -0.4883   -0.4613 H   0  0  0  0  0  0  0  0  0  0  0  0
    0.1030   -0.3274   -0.2361 C   0  0  1  0  0  0  0  0  0  0  0  0
    0.8362   -0.8878    0.3554 H   0  0  0  0  0  0  0  0  0  0  0  0
    0.6261   -0.1886   -1.6760 C   0  0  0  0  0  0  0  0  0  0  0  0
   -0.0864    0.3891   -2.2714 H   0  0  0  0  0  0  0  0  0  0  0  0
    1.5746    0.3546   -1.6762 H   0  0  0  0  0  0  0  0  0  0  0  0
    0.8434   -1.5346   -2.3488 C   0  0  0  0  0  0  0  0  0  0  0  0
    1.8171   -2.1857   -2.0169 O   0  0  0  0  0  0  0  0  0  0  0  0
   -0.0515   -1.9512   -3.2714 O   0  0  0  0  0  0  0  0  0  0  0  0
    0.2646   -2.8277   -3.5407 H   0  0  0  0  0  0  0  0  0  0  0  0
   -0.0390    1.0691    0.3941 C   0  0  0  0  0  0  0  0  0  0  0  0
   -0.9860    1.7808    0.0819 O   0  0  0  0  0  0  0  0  0  0  0  0
    0.8901    1.5269    1.3096 N   0  0  0  0  0  0  0  0  0  0  0  0
    1.6370    0.8933    1.5823 H   0  0  0  0  0  0  0  0  0  0  0  0
    0.8006    2.8311    1.9554 C   0  0  0  0  0  0  0  0  0  0  0  0
   -0.1270    2.9112    2.5319 H   0  0  0  0  0  0  0  0  0  0  0  0
    1.6446    2.9744    2.6370 H   0  0  0  0  0  0  0  0  0  0  0  0
    0.8213    3.6311    1.2080 H   0  0  0  0  0  0  0  0  0  0  0  0
  1  2  1  0  0  0  0
  2  3  1  0  0  0  0
  2  4  1  0  0  0  0
  2  5  1  0  0  0  0
  5  6  2  0  0  0  0
  5  7  1  0  0  0  0
  7  8  1  0  0  0  0
  7  9  1  0  0  0  0
  9 10  1  0  0  0  0
  9 11  1  0  0  0  0
  9 18  1  0  0  0  0
 11 12  1  0  0  0  0
 11 13  1  0  0  0  0
 11 14  1  0  0  0  0
 14 15  2  0  0  0  0
 14 16  1  0  0  0  0
 16 17  1  0  0  0  0
 18 19  2  0  0  0  0
 18 20  1  0  0  0  0
 20 21  1  0  0  0  0
 20 22  1  0  0  0  0
 22 23  1  0  0  0  0
 22 24  1  0  0  0  0
 22 25  1  0  0  0  0
M  END
$$$$

  -OEChem-03222214023D

 25 24  0     1  0  0  0  0  0999 V2000
   -2.7427   -4.0064    0.3839 H   0  0  0  0  0  0  0  0  0  0  0  0
   -2.7682   -2.9581    0.0737 C   0  0  0  0  0  0  0  0  0  0  0  0
   -3.4476   -2.4117    0.7322 H   0  0  0  0  0  0  0  0  0  0  0  0
   -3.1417   -2.9035   -0.9516 H   0  0  0  0  0  0  0  0  0  0  0  0
   -1.3776   -2.3570    0.1503 C   0  0  0  0  0  0  0  0  0  0  0  0
   -0.4506   -3.0232    0.5784 O   0  0  0  0  0  0  0  0  0  0  0  0
   -1.1797   -1.0439   -0.2261 N   0  0  0  0  0  0  0  0  0  0  0  0
   -2.0052   -0.5015   -0.4755 H   0  0  0  0  0  0  0  0  0  0  0  0
    0.1110   -0.3366   -0.2232 C   0  0  1  0  0  0  0  0  0  0  0  0
    0.8456   -0.8948    0.3685 H   0  0  0  0  0  0  0  0  0  0  0  0
    0.6276   -0.1934   -1.6673 C   0  0  0  0  0  0  0  0  0  0  0  0
   -0.0886    0.3911   -2.2520 H   0  0  0  0  0  0  0  0  0  0  0  0
    1.5756    0.3503   -1.6682 H   0  0  0  0  0  0  0  0  0  0  0  0
    0.8469   -1.5266   -2.3657 C   0  0  0  0  0  0  0  0  0  0  0  0
    1.6432   -2.3083   -1.8804 O   0  0  0  0  0  0  0  0  0  0  0  0
    0.1405   -1.7871   -3.4869 O   0  0  0  0  0  0  0  0  0  0  0  0
    0.4179   -2.6779   -3.7515 H   0  0  0  0  0  0  0  0  0  0  0  0
   -0.0334    1.0650    0.3952 C   0  0  0  0  0  0  0  0  0  0  0  0
   -0.9731    1.7792    0.0665 O   0  0  0  0  0  0  0  0  0  0  0  0
    0.8935    1.5285    1.3099 N   0  0  0  0  0  0  0  0  0  0  0  0
    1.6269    0.8888    1.6040 H   0  0  0  0  0  0  0  0  0  0  0  0
    0.8009    2.8360    1.9481 C   0  0  0  0  0  0  0  0  0  0  0  0
   -0.1253    2.9156    2.5269 H   0  0  0  0  0  0  0  0  0  0  0  0
    1.6467    2.9868    2.6258 H   0  0  0  0  0  0  0  0  0  0  0  0
    0.8157    3.6315    1.1956 H   0  0  0  0  0  0  0  0  0  0  0  0
  1  2  1  0  0  0  0
  2  3  1  0  0  0  0
  2  4  1  0  0  0  0
  2  5  1  0  0  0  0
  5  6  2  0  0  0  0
  5  7  1  0  0  0  0
  7  8  1  0  0  0  0
  7  9  1  0  0  0  0
  9 10  1  0  0  0  0
  9 11  1  0  0  0  0
  9 18  1  0  0  0  0
 11 12  1  0  0  0  0
 11 13  1  0  0  0  0
 11 14  1  0  0  0  0
 14 15  2  0  0  0  0
 14 16  1  0  0  0  0
 16 17  1  0  0  0  0
 18 19  2  0  0  0  0
 18 20  1  0  0  0  0
 20 21  1  0  0  0  0
 20 22  1  0  0  0  0
 22 23  1  0  0  0  0
 22 24  1  0  0  0  0
 22 25  1  0  0  0  0
M  END
$$$$

  -OEChem-03222214023D

 25 24  0     1  0  0  0  0  0999 V2000
   -2.7442   -4.0177    0.3824 H   0  0  0  0  0  0  0  0  0  0  0  0
   -2.7665   -2.9708    0.0668 C   0  0  0  0  0  0  0  0  0  0  0  0
   -3.4757   -2.4272    0.6956 H   0  0  0  0  0  0  0  0  0  0  0  0
   -3.1002   -2.9242   -0.9725 H   0  0  0  0  0  0  0  0  0  0  0  0
   -1.3849   -2.3577    0.1950 C   0  0  0  0  0  0  0  0  0  0  0  0
   -0.4821   -2.9994    0.7049 O   0  0  0  0  0  0  0  0  0  0  0  0
   -1.1796   -1.0506   -0.1993 N   0  0  0  0  0  0  0  0  0  0  0  0
   -1.9957   -0.5209   -0.5006 H   0  0  0  0  0  0  0  0  0  0  0  0
    0.1155   -0.3512   -0.2030 C   0  0  1  0  0  0  0  0  0  0  0  0
    0.8502   -0.9076    0.3901 H   0  0  0  0  0  0  0  0  0  0  0  0
    0.6285   -0.2062   -1.6512 C   0  0  0  0  0  0  0  0  0  0  0  0
   -0.0890    0.3873   -2.2255 H   0  0  0  0  0  0  0  0  0  0  0  0
    1.5769    0.3364   -1.6504 H   0  0  0  0  0  0  0  0  0  0  0  0
    0.8478   -1.5220   -2.3851 C   0  0  0  0  0  0  0  0  0  0  0  0
    1.4181   -2.4314   -1.8135 O   0  0  0  0  0  0  0  0  0  0  0  0
    0.3972   -1.6146   -3.6546 O   0  0  0  0  0  0  0  0  0  0  0  0
    0.6314   -2.5127   -3.9356 H   0  0  0  0  0  0  0  0  0  0  0  0
   -0.0272    1.0583    0.3982 C   0  0  0  0  0  0  0  0  0  0  0  0
   -0.9562    1.7770    0.0487 O   0  0  0  0  0  0  0  0  0  0  0  0
    0.8980    1.5295    1.3106 N   0  0  0  0  0  0  0  0  0  0  0  0
    1.6172    0.8847    1.6280 H   0  0  0  0  0  0  0  0  0  0  0  0
    0.8052    2.8442    1.9340 C   0  0  0  0  0  0  0  0  0  0  0  0
   -0.1232    2.9313    2.5083 H   0  0  0  0  0  0  0  0  0  0  0  0
    1.6486    3.0014    2.6133 H   0  0  0  0  0  0  0  0  0  0  0  0
    0.8243    3.6312    1.1726 H   0  0  0  0  0  0  0  0  0  0  0  0
  1  2  1  0  0  0  0
  2  3  1  0  0  0  0
  2  4  1  0  0  0  0
  2  5  1  0  0  0  0
  5  6  2  0  0  0  0
  5  7  1  0  0  0  0
  7  8  1  0  0  0  0
  7  9  1  0  0  0  0
  9 10  1  0  0  0  0
  9 11  1  0  0  0  0
  9 18  1  0  0  0  0
 11 12  1  0  0  0  0
 11 13  1  0  0  0  0
 11 14  1  0  0  0  0
 14 15  2  0  0  0  0
 14 16  1  0  0  0  0
 16 17  1  0  0  0  0
 18 19  2  0  0  0  0
 18 20  1  0  0  0  0
 20 21  1  0  0  0  0
 20 22  1  0  0  0  0
 22 23  1  0  0  0  0
 22 24  1  0  0  0  0
 22 25  1  0  0  0  0
M  END
$$$$

  -OEChem-03222214023D

 25 24  0     1  0  0  0  0  0999 V2000
   -2.7395   -4.0247    0.3980 H   0  0  0  0  0  0  0  0  0  0  0  0
   -2.7602   -2.9866    0.0547 C   0  0  0  0  0  0  0  0  0  0  0  0
   -3.5095   -2.4385    0.6309 H   0  0  0  0  0  0  0  0  0  0  0  0
   -3.0384   -2.9716   -1.0018 H   0  0  0  0  0  0  0  0  0  0  0  0
   -1.3961   -2.3496    0.2401 C   0  0  0  0  0  0  0  0  0  0  0  0
   -0.5195   -2.9576    0.8320 O   0  0  0  0  0  0  0  0  0  0  0  0
   -1.1873   -1.0483   -0.1728 N   0  0  0  0  0  0  0  0  0  0  0  0
   -1.9894   -0.5393   -0.5389 H   0  0  0  0  0  0  0  0  0  0  0  0
    0.1143   -0.3614   -0.1850 C   0  0  1  0  0  0  0  0  0  0  0  0
    0.8472   -0.9181    0.4098 H   0  0  0  0  0  0  0  0  0  0  0  0
    0.6276   -0.2198   -1.6362 C   0  0  0  0  0  0  0  0  0  0  0  0
   -0.0865    0.3834   -2.2044 H   0  0  0  0  0  0  0  0  0  0  0  0
    1.5781    0.3192   -1.6305 H   0  0  0  0  0  0  0  0  0  0  0  0
    0.8444   -1.5203   -2.4011 C   0  0  0  0  0  0  0  0  0  0  0  0
    1.1552   -2.5330   -1.8049 O   0  0  0  0  0  0  0  0  0  0  0  0
    0.6877   -1.4750   -3.7411 O   0  0  0  0  0  0  0  0  0  0  0  0
    0.8720   -2.3777   -4.0440 H   0  0  0  0  0  0  0  0  0  0  0  0
   -0.0214    1.0562    0.4003 C   0  0  0  0  0  0  0  0  0  0  0  0
   -0.9371    1.7827    0.0320 O   0  0  0  0  0  0  0  0  0  0  0  0
    0.9060    1.5311    1.3088 N   0  0  0  0  0  0  0  0  0  0  0  0
    1.6039    0.8767    1.6528 H   0  0  0  0  0  0  0  0  0  0  0  0
    0.8157    2.8501    1.9235 C   0  0  0  0  0  0  0  0  0  0  0  0
   -0.1064    2.9384    2.5078 H   0  0  0  0  0  0  0  0  0  0  0  0
    1.6667    3.0154    2.5914 H   0  0  0  0  0  0  0  0  0  0  0  0
    0.8226    3.6317    1.1565 H   0  0  0  0  0  0  0  0  0  0  0  0
  1  2  1  0  0  0  0
  2  3  1  0  0  0  0
  2  4  1  0  0  0  0
  2  5  1  0  0  0  0
  5  6  2  0  0  0  0
  5  7  1  0  0  0  0
  7  8  1  0  0  0  0
  7  9  1  0  0  0  0
  9 10  1  0  0  0  0
  9 11  1  0  0  0  0
  9 18  1  0  0  0  0
 11 12  1  0  0  0  0
 11 13  1  0  0  0  0
 11 14  1  0  0  0  0
 14 15  2  0  0  0  0
 14 16  1  0  0  0  0
 16 17  1  0  0  0  0
 18 19  2  0  0  0  0
 18 20  1  0  0  0  0
 20 21  1  0  0  0  0
 20 22  1  0  0  0  0
 22 23  1  0  0  0  0
 22 24  1  0  0  0  0
 22 25  1  0  0  0  0
M  END
$$$$

  -OEChem-03222214023D

 25 24  0     1  0  0  0  0  0999 V2000
   -2.7385   -4.0387    0.3938 H   0  0  0  0  0  0  0  0  0  0  0  0
   -2.7640   -2.9996    0.0546 C   0  0  0  0  0  0  0  0  0  0  0  0
   -3.5328   -2.4630    0.6155 H   0  0  0  0  0  0  0  0  0  0  0  0
   -3.0178   -2.9837   -1.0079 H   0  0  0  0  0  0  0  0  0  0  0  0
   -1.4120   -2.3476    0.2738 C   0  0  0  0  0  0  0  0  0  0  0  0
   -0.5523   -2.9335    0.9128 O   0  0  0  0  0  0  0  0  0  0  0  0
   -1.2011   -1.0503   -0.1515 N   0  0  0  0  0  0  0  0  0  0  0  0
   -1.9910   -0.5607   -0.5662 H   0  0  0  0  0  0  0  0  0  0  0  0
    0.1052   -0.3721   -0.1703 C   0  0  1  0  0  0  0  0  0  0  0  0
    0.8347   -0.9298    0.4273 H   0  0  0  0  0  0  0  0  0  0  0  0
    0.6289   -0.2302   -1.6201 C   0  0  0  0  0  0  0  0  0  0  0  0
   -0.0789    0.3805   -2.1881 H   0  0  0  0  0  0  0  0  0  0  0  0
    1.5803    0.3071   -1.6022 H   0  0  0  0  0  0  0  0  0  0  0  0
    0.8525   -1.5142   -2.4134 C   0  0  0  0  0  0  0  0  0  0  0  0
    0.8918   -2.5938   -1.8567 O   0  0  0  0  0  0  0  0  0  0  0  0
    1.0157   -1.3708   -3.7456 O   0  0  0  0  0  0  0  0  0  0  0  0
    1.1547   -2.2710   -4.0787 H   0  0  0  0  0  0  0  0  0  0  0  0
   -0.0240    1.0510    0.4045 C   0  0  0  0  0  0  0  0  0  0  0  0
   -0.9288    1.7842    0.0226 O   0  0  0  0  0  0  0  0  0  0  0  0
    0.9060    1.5278    1.3095 N   0  0  0  0  0  0  0  0  0  0  0  0
    1.5938    0.8697    1.6663 H   0  0  0  0  0  0  0  0  0  0  0  0
    0.8287    2.8557    1.9066 C   0  0  0  0  0  0  0  0  0  0  0  0
   -0.0942    2.9622    2.4862 H   0  0  0  0  0  0  0  0  0  0  0  0
    1.6792    3.0199    2.5753 H   0  0  0  0  0  0  0  0  0  0  0  0
    0.8478    3.6270    1.1294 H   0  0  0  0  0  0  0  0  0  0  0  0
  1  2  1  0  0  0  0
  2  3  1  0  0  0  0
  2  4  1  0  0  0  0
  2  5  1  0  0  0  0
  5  6  2  0  0  0  0
  5  7  1  0  0  0  0
  7  8  1  0  0  0  0
  7  9  1  0  0  0  0
  9 10  1  0  0  0  0
  9 11  1  0  0  0  0
  9 18  1  0  0  0  0
 11 12  1  0  0  0  0
 11 13  1  0  0  0  0
 11 14  1  0  0  0  0
 14 15  2  0  0  0  0
 14 16  1  0  0  0  0
 16 17  1  0  0  0  0
 18 19  2  0  0  0  0
 18 20  1  0  0  0  0
 20 21  1  0  0  0  0
 20 22  1  0  0  0  0
 22 23  1  0  0  0  0
 22 24  1  0  0  0  0
 22 25  1  0  0  0  0
M  END
$$$$

  -OEChem-03222214023D

 25 24  0     1  0  0  0  0  0999 V2000
   -2.7539   -4.0212    0.4515 H   0  0  0  0  0  0  0  0  0  0  0  0
   -2.7632   -3.0023    0.0544 C   0  0  0  0  0  0  0  0  0  0  0  0
   -3.5574   -2.4373    0.5478 H   0  0  0  0  0  0  0  0  0  0  0  0
   -2.9658   -3.0456   -1.0183 H   0  0  0  0  0  0  0  0  0  0  0  0
   -1.4225   -2.3362    0.2987 C   0  0  0  0  0  0  0  0  0  0  0  0
   -0.5691   -2.9095    0.9586 O   0  0  0  0  0  0  0  0  0  0  0  0
   -1.2097   -1.0422   -0.1366 N   0  0  0  0  0  0  0  0  0  0  0  0
   -1.9896   -0.5664   -0.5846 H   0  0  0  0  0  0  0  0  0  0  0  0
    0.1023   -0.3757   -0.1652 C   0  0  1  0  0  0  0  0  0  0  0  0
    0.8289   -0.9342    0.4350 H   0  0  0  0  0  0  0  0  0  0  0  0
    0.6331   -0.2388   -1.6147 C   0  0  0  0  0  0  0  0  0  0  0  0
   -0.0649    0.3813   -2.1844 H   0  0  0  0  0  0  0  0  0  0  0  0
    1.5886    0.2913   -1.5860 H   0  0  0  0  0  0  0  0  0  0  0  0
    0.8564   -1.5139   -2.4252 C   0  0  0  0  0  0  0  0  0  0  0  0
    0.6282   -2.6122   -1.9575 O   0  0  0  0  0  0  0  0  0  0  0  0
    1.3238   -1.3367   -3.6791 O   0  0  0  0  0  0  0  0  0  0  0  0
    1.4117   -2.2318   -4.0422 H   0  0  0  0  0  0  0  0  0  0  0  0
   -0.0197    1.0509    0.4035 C   0  0  0  0  0  0  0  0  0  0  0  0
   -0.9199    1.7879    0.0180 O   0  0  0  0  0  0  0  0  0  0  0  0
    0.9145    1.5280    1.3038 N   0  0  0  0  0  0  0  0  0  0  0  0
    1.5941    0.8659    1.6684 H   0  0  0  0  0  0  0  0  0  0  0  0
    0.8314    2.8521    1.9084 C   0  0  0  0  0  0  0  0  0  0  0  0
   -0.0896    2.9490    2.4930 H   0  0  0  0  0  0  0  0  0  0  0  0
    1.6838    3.0187    2.5742 H   0  0  0  0  0  0  0  0  0  0  0  0
    0.8415    3.6280    1.1356 H   0  0  0  0  0  0  0  0  0  0  0  0
  1  2  1  0  0  0  0
  2  3  1  0  0  0  0
  2  4  1  0  0  0  0
  2  5  1  0  0  0  0
  5  6  2  0  0  0  0
  5  7  1  0  0  0  0
  7  8  1  0  0  0  0
  7  9  1  0  0  0  0
  9 10  1  0  0  0  0
  9 11  1  0  0  0  0
  9 18  1  0  0  0  0
 11 12  1  0  0  0  0
 11 13  1  0  0  0  0
 11 14  1  0  0  0  0
 14 15  2  0  0  0  0
 14 16  1  0  0  0  0
 16 17  1  0  0  0  0
 18 19  2  0  0  0  0
 18 20  1  0  0  0  0
 20 21  1  0  0  0  0
 20 22  1  0  0  0  0
 22 23  1  0  0  0  0
 22 24  1  0  0  0  0
 22 25  1  0  0  0  0
M  END
$$$$

  -OEChem-03222214023D

 25 24  0     1  0  0  0  0  0999 V2000
   -2.7614   -4.0197    0.4592 H   0  0  0  0  0  0  0  0  0  0  0  0
   -2.7691   -3.0018    0.0598 C   0  0  0  0  0  0  0  0  0  0  0  0
   -3.5623   -2.4340    0.5516 H   0  0  0  0  0  0  0  0  0  0  0  0
   -2.9718   -3.0476   -1.0129 H   0  0  0  0  0  0  0  0  0  0  0  0
   -1.4279   -2.3360    0.3011 C   0  0  0  0  0  0  0  0  0  0  0  0
   -0.5658   -2.9147    0.9456 O   0  0  0  0  0  0  0  0  0  0  0  0
   -1.2175   -1.0412   -0.1328 N   0  0  0  0  0  0  0  0  0  0  0  0
   -1.9960   -0.5688   -0.5866 H   0  0  0  0  0  0  0  0  0  0  0  0
    0.0953   -0.3777   -0.1640 C   0  0  1  0  0  0  0  0  0  0  0  0
    0.8191   -0.9365    0.4389 H   0  0  0  0  0  0  0  0  0  0  0  0
    0.6374   -0.2399   -1.6098 C   0  0  0  0  0  0  0  0  0  0  0  0
   -0.0543    0.3832   -2.1835 H   0  0  0  0  0  0  0  0  0  0  0  0
    1.5924    0.2904   -1.5685 H   0  0  0  0  0  0  0  0  0  0  0  0
    0.8679   -1.5105   -2.4281 C   0  0  0  0  0  0  0  0  0  0  0  0
    0.3976   -2.5805   -2.0937 O   0  0  0  0  0  0  0  0  0  0  0  0
    1.6208   -1.3601   -3.5385 O   0  0  0  0  0  0  0  0  0  0  0  0
    1.6695   -2.2463   -3.9297 H   0  0  0  0  0  0  0  0  0  0  0  0
   -0.0251    1.0479    0.4082 C   0  0  0  0  0  0  0  0  0  0  0  0
   -0.9229    1.7874    0.0219 O   0  0  0  0  0  0  0  0  0  0  0  0
    0.9107    1.5242    1.3078 N   0  0  0  0  0  0  0  0  0  0  0  0
    1.5921    0.8626    1.6701 H   0  0  0  0  0  0  0  0  0  0  0  0
    0.8349    2.8522    1.9057 C   0  0  0  0  0  0  0  0  0  0  0  0
   -0.0857    2.9575    2.4894 H   0  0  0  0  0  0  0  0  0  0  0  0
    1.6880    3.0174    2.5708 H   0  0  0  0  0  0  0  0  0  0  0  0
    0.8495    3.6244    1.1292 H   0  0  0  0  0  0  0  0  0  0  0  0
  1  2  1  0  0  0  0
  2  3  1  0  0  0  0
  2  4  1  0  0  0  0
  2  5  1  0  0  0  0
  5  6  2  0  0  0  0
  5  7  1  0  0  0  0
  7  8  1  0  0  0  0
  7  9  1  0  0  0  0
  9 10  1  0  0  0  0
  9 11  1  0  0  0  0
  9 18  1  0  0  0  0
 11 12  1  0  0  0  0
 11 13  1  0  0  0  0
 11 14  1  0  0  0  0
 14 15  2  0  0  0  0
 14 16  1  0  0  0  0
 16 17  1  0  0  0  0
 18 19  2  0  0  0  0
 18 20  1  0  0  0  0
 20 21  1  0  0  0  0
 20 22  1  0  0  0  0
 22 23  1  0  0  0  0
 22 24  1  0  0  0  0
 22 25  1  0  0  0  0
M  END
$$$$

  -OEChem-03222214023D

 25 24  0     1  0  0  0  0  0999 V2000
   -2.7434   -4.0372    0.4224 H   0  0  0  0  0  0  0  0  0  0  0  0
   -2.7706   -3.0056    0.0607 C   0  0  0  0  0  0  0  0  0  0  0  0
   -3.5544   -2.4633    0.5947 H   0  0  0  0  0  0  0  0  0  0  0  0
   -3.0027   -3.0143   -1.0071 H   0  0  0  0  0  0  0  0  0  0  0  0
   -1.4283   -2.3371    0.2885 C   0  0  0  0  0  0  0  0  0  0  0  0
   -0.5501   -2.9245    0.9032 O   0  0  0  0  0  0  0  0  0  0  0  0
   -1.2257   -1.0384   -0.1379 N   0  0  0  0  0  0  0  0  0  0  0  0
   -2.0064   -0.5683   -0.5902 H   0  0  0  0  0  0  0  0  0  0  0  0
    0.0844   -0.3704   -0.1680 C   0  0  1  0  0  0  0  0  0  0  0  0
    0.8082   -0.9290    0.4350 H   0  0  0  0  0  0  0  0  0  0  0  0
    0.6365   -0.2300   -1.6090 C   0  0  0  0  0  0  0  0  0  0  0  0
   -0.0517    0.3904   -2.1897 H   0  0  0  0  0  0  0  0  0  0  0  0
    1.5894    0.3038   -1.5593 H   0  0  0  0  0  0  0  0  0  0  0  0
    0.8748   -1.5053   -2.4180 C   0  0  0  0  0  0  0  0  0  0  0  0
    0.2007   -2.5032   -2.2459 O   0  0  0  0  0  0  0  0  0  0  0  0
    1.8728   -1.4464   -3.3253 O   0  0  0  0  0  0  0  0  0  0  0  0
    1.8916   -2.3266   -3.7323 H   0  0  0  0  0  0  0  0  0  0  0  0
   -0.0356    1.0515    0.4124 C   0  0  0  0  0  0  0  0  0  0  0  0
   -0.9300    1.7955    0.0273 O   0  0  0  0  0  0  0  0  0  0  0  0
    0.9035    1.5219    1.3115 N   0  0  0  0  0  0  0  0  0  0  0  0
    1.5847    0.8580    1.6698 H   0  0  0  0  0  0  0  0  0  0  0  0
    0.8410    2.8525    1.9044 C   0  0  0  0  0  0  0  0  0  0  0  0
   -0.0772    2.9687    2.4898 H   0  0  0  0  0  0  0  0  0  0  0  0
    1.6971    3.0119    2.5671 H   0  0  0  0  0  0  0  0  0  0  0  0
    0.8615    3.6211    1.1245 H   0  0  0  0  0  0  0  0  0  0  0  0
  1  2  1  0  0  0  0
  2  3  1  0  0  0  0
  2  4  1  0  0  0  0
  2  5  1  0  0  0  0
  5  6  2  0  0  0  0
  5  7  1  0  0  0  0
  7  8  1  0  0  0  0
  7  9  1  0  0  0  0
  9 10  1  0  0  0  0
  9 11  1  0  0  0  0
  9 18  1  0  0  0  0
 11 12  1  0  0  0  0
 11 13  1  0  0  0  0
 11 14  1  0  0  0  0
 14 15  2  0  0  0  0
 14 16  1  0  0  0  0
 16 17  1  0  0  0  0
 18 19  2  0  0  0  0
 18 20  1  0  0  0  0
 20 21  1  0  0  0  0
 20 22  1  0  0  0  0
 22 23  1  0  0  0  0
 22 24  1  0  0  0  0
 22 25  1  0  0  0  0
M  END
$$$$

  -OEChem-03222214023D

 25 24  0     1  0  0  0  0  0999 V2000
   -2.7289   -4.0374    0.4046 H   0  0  0  0  0  0  0  0  0  0  0  0
   -2.7623   -3.0016    0.0558 C   0  0  0  0  0  0  0  0  0  0  0  0
   -3.5334   -2.4647    0.6130 H   0  0  0  0  0  0  0  0  0  0  0  0
   -3.0178   -2.9972   -1.0067 H   0  0  0  0  0  0  0  0  0  0  0  0
   -1.4144   -2.3375    0.2625 C   0  0  0  0  0  0  0  0  0  0  0  0
   -0.5172   -2.9386    0.8354 O   0  0  0  0  0  0  0  0  0  0  0  0
   -1.2202   -1.0338   -0.1514 N   0  0  0  0  0  0  0  0  0  0  0  0
   -2.0088   -0.5585   -0.5844 H   0  0  0  0  0  0  0  0  0  0  0  0
    0.0851   -0.3574   -0.1786 C   0  0  1  0  0  0  0  0  0  0  0  0
    0.8108   -0.9144    0.4233 H   0  0  0  0  0  0  0  0  0  0  0  0
    0.6369   -0.2181   -1.6181 C   0  0  0  0  0  0  0  0  0  0  0  0
   -0.0547    0.3921   -2.2054 H   0  0  0  0  0  0  0  0  0  0  0  0
    1.5870    0.3213   -1.5739 H   0  0  0  0  0  0  0  0  0  0  0  0
    0.8747   -1.5089   -2.4011 C   0  0  0  0  0  0  0  0  0  0  0  0
    0.0438   -2.3988   -2.4068 O   0  0  0  0  0  0  0  0  0  0  0  0
    2.0456   -1.5962   -3.0677 O   0  0  0  0  0  0  0  0  0  0  0  0
    2.0304   -2.4721   -3.4841 H   0  0  0  0  0  0  0  0  0  0  0  0
   -0.0388    1.0589    0.4144 C   0  0  0  0  0  0  0  0  0  0  0  0
   -0.9424    1.7988    0.0439 O   0  0  0  0  0  0  0  0  0  0  0  0
    0.9005    1.5275    1.3144 N   0  0  0  0  0  0  0  0  0  0  0  0
    1.5957    0.8689    1.6549 H   0  0  0  0  0  0  0  0  0  0  0  0
    0.8335    2.8530    1.9184 C   0  0  0  0  0  0  0  0  0  0  0  0
   -0.0877    2.9627    2.5002 H   0  0  0  0  0  0  0  0  0  0  0  0
    1.6859    3.0080    2.5867 H   0  0  0  0  0  0  0  0  0  0  0  0
    0.8564    3.6285    1.1456 H   0  0  0  0  0  0  0  0  0  0  0  0
  1  2  1  0  0  0  0
  2  3  1  0  0  0  0
  2  4  1  0  0  0  0
  2  5  1  0  0  0  0
  5  6  2  0  0  0  0
  5  7  1  0  0  0  0
  7  8  1  0  0  0  0
  7  9  1  0  0  0  0
  9 10  1  0  0  0  0
  9 11  1  0  0  0  0
  9 18  1  0  0  0  0
 11 12  1  0  0  0  0
 11 13  1  0  0  0  0
 11 14  1  0  0  0  0
 14 15  2  0  0  0  0
 14 16  1  0  0  0  0
 16 17  1  0  0  0  0
 18 19  2  0  0  0  0
 18 20  1  0  0  0  0
 20 21  1  0  0  0  0
 20 22  1  0  0  0  0
 22 23  1  0  0  0  0
 22 24  1  0  0  0  0
 22 25  1  0  0  0  0
M  END
$$$$

  -OEChem-03222214023D

 25 24  0     1  0  0  0  0  0999 V2000
   -2.7037   -4.0404    0.3791 H   0  0  0  0  0  0  0  0  0  0  0  0
   -2.7435   -3.0016    0.0404 C   0  0  0  0  0  0  0  0  0  0  0  0
   -3.5060   -2.4706    0.6150 H   0  0  0  0  0  0  0  0  0  0  0  0
   -3.0163   -2.9875   -1.0177 H   0  0  0  0  0  0  0  0  0  0  0  0
   -1.3932   -2.3378    0.2307 C   0  0  0  0  0  0  0  0  0  0  0  0
   -0.4766   -2.9518    0.7574 O   0  0  0  0  0  0  0  0  0  0  0  0
   -1.2099   -1.0284   -0.1683 N   0  0  0  0  0  0  0  0  0  0  0  0
   -2.0076   -0.5480   -0.5794 H   0  0  0  0  0  0  0  0  0  0  0  0
    0.0886   -0.3395   -0.1888 C   0  0  1  0  0  0  0  0  0  0  0  0
    0.8190   -0.8948    0.4096 H   0  0  0  0  0  0  0  0  0  0  0  0
    0.6315   -0.2034   -1.6287 C   0  0  0  0  0  0  0  0  0  0  0  0
   -0.0684    0.3923   -2.2211 H   0  0  0  0  0  0  0  0  0  0  0  0
    1.5792    0.3408   -1.6009 H   0  0  0  0  0  0  0  0  0  0  0  0
    0.8626   -1.5169   -2.3712 C   0  0  0  0  0  0  0  0  0  0  0  0
   -0.0669   -2.2799   -2.5684 O   0  0  0  0  0  0  0  0  0  0  0  0
    2.1266   -1.7779   -2.7682 O   0  0  0  0  0  0  0  0  0  0  0  0
    2.0816   -2.6517   -3.1868 H   0  0  0  0  0  0  0  0  0  0  0  0
   -0.0400    1.0706    0.4172 C   0  0  0  0  0  0  0  0  0  0  0  0
   -0.9499    1.8080    0.0576 O   0  0  0  0  0  0  0  0  0  0  0  0
    0.8986    1.5362    1.3194 N   0  0  0  0  0  0  0  0  0  0  0  0
    1.6051    0.8819    1.6445 H   0  0  0  0  0  0  0  0  0  0  0  0
    0.8274    2.8568    1.9338 C   0  0  0  0  0  0  0  0  0  0  0  0
   -0.0922    2.9577    2.5198 H   0  0  0  0  0  0  0  0  0  0  0  0
    1.6815    3.0109    2.6002 H   0  0  0  0  0  0  0  0  0  0  0  0
    0.8440    3.6385    1.1669 H   0  0  0  0  0  0  0  0  0  0  0  0
  1  2  1  0  0  0  0
  2  3  1  0  0  0  0
  2  4  1  0  0  0  0
  2  5  1  0  0  0  0
  5  6  2  0  0  0  0
  5  7  1  0  0  0  0
  7  8  1  0  0  0  0
  7  9  1  0  0  0  0
  9 10  1  0  0  0  0
  9 11  1  0  0  0  0
  9 18  1  0  0  0  0
 11 12  1  0  0  0  0
 11 13  1  0  0  0  0
 11 14  1  0  0  0  0
 14 15  2  0  0  0  0
 14 16  1  0  0  0  0
 16 17  1  0  0  0  0
 18 19  2  0  0  0  0
 18 20  1  0  0  0  0
 20 21  1  0  0  0  0
 20 22  1  0  0  0  0
 22 23  1  0  0  0  0
 22 24  1  0  0  0  0
 22 25  1  0  0  0  0
M  END
$$$$

  -OEChem-03222214023D

 25 24  0     1  0  0  0  0  0999 V2000
   -2.6832   -4.0365    0.3642 H   0  0  0  0  0  0  0  0  0  0  0  0
   -2.7290   -2.9939    0.0379 C   0  0  0  0  0  0  0  0  0  0  0  0
   -3.4672   -2.4650    0.6452 H   0  0  0  0  0  0  0  0  0  0  0  0
   -3.0398   -2.9668   -1.0094 H   0  0  0  0  0  0  0  0  0  0  0  0
   -1.3689   -2.3394    0.1866 C   0  0  0  0  0  0  0  0  0  0  0  0
   -0.4325   -2.9702    0.6547 O   0  0  0  0  0  0  0  0  0  0  0  0
   -1.1936   -1.0247   -0.1969 N   0  0  0  0  0  0  0  0  0  0  0  0
   -2.0053   -0.5291   -0.5604 H   0  0  0  0  0  0  0  0  0  0  0  0
    0.0976   -0.3224   -0.2070 C   0  0  1  0  0  0  0  0  0  0  0  0
    0.8314   -0.8755    0.3894 H   0  0  0  0  0  0  0  0  0  0  0  0
    0.6318   -0.1910   -1.6469 C   0  0  0  0  0  0  0  0  0  0  0  0
   -0.0737    0.3917   -2.2463 H   0  0  0  0  0  0  0  0  0  0  0  0
    1.5797    0.3531   -1.6355 H   0  0  0  0  0  0  0  0  0  0  0  0
    0.8558   -1.5293   -2.3403 C   0  0  0  0  0  0  0  0  0  0  0  0
   -0.1047   -2.1628   -2.7440 O   0  0  0  0  0  0  0  0  0  0  0  0
    2.1297   -1.9634   -2.4504 O   0  0  0  0  0  0  0  0  0  0  0  0
    2.0605   -2.8381   -2.8638 H   0  0  0  0  0  0  0  0  0  0  0  0
   -0.0386    1.0811    0.4113 C   0  0  0  0  0  0  0  0  0  0  0  0
   -0.9618    1.8102    0.0694 O   0  0  0  0  0  0  0  0  0  0  0  0
    0.8969    1.5444    1.3179 N   0  0  0  0  0  0  0  0  0  0  0  0
    1.6188    0.8975    1.6237 H   0  0  0  0  0  0  0  0  0  0  0  0
    0.8132    2.8558    1.9501 C   0  0  0  0  0  0  0  0  0  0  0  0
   -0.1126    2.9439    2.5285 H   0  0  0  0  0  0  0  0  0  0  0  0
    1.6598    3.0043    2.6271 H   0  0  0  0  0  0  0  0  0  0  0  0
    0.8334    3.6481    1.1943 H   0  0  0  0  0  0  0  0  0  0  0  0
  1  2  1  0  0  0  0
  2  3  1  0  0  0  0
  2  4  1  0  0  0  0
  2  5  1  0  0  0  0
  5  6  2  0  0  0  0
  5  7  1  0  0  0  0
  7  8  1  0  0  0  0
  7  9  1  0  0  0  0
  9 10  1  0  0  0  0
  9 11  1  0  0  0  0
  9 18  1  0  0  0  0
 11 12  1  0  0  0  0
 11 13  1  0  0  0  0
 11 14  1  0  0  0  0
 14 15  2  0  0  0  0
 14 16  1  0  0  0  0
 16 17  1  0  0  0  0
 18 19  2  0  0  0  0
 18 20  1  0  0  0  0
 20 21  1  0  0  0  0
 20 22  1  0  0  0  0
 22 23  1  0  0  0  0
 22 24  1  0  0  0  0
 22 25  1  0  0  0  0
M  END
$$$$

  -OEChem-03222214023D

 25 24  0     1  0  0  0  0  0999 V2000
   -2.6778   -4.0282    0.3577 H   0  0  0  0  0  0  0  0  0  0  0  0
   -2.7235   -2.9826    0.0416 C   0  0  0  0  0  0  0  0  0  0  0  0
   -3.4368   -2.4523    0.6770 H   0  0  0  0  0  0  0  0  0  0  0  0
   -3.0677   -2.9429   -0.9949 H   0  0  0  0  0  0  0  0  0  0  0  0
   -1.3531   -2.3424    0.1524 C   0  0  0  0  0  0  0  0  0  0  0  0
   -0.4055   -2.9896    0.5717 O   0  0  0  0  0  0  0  0  0  0  0  0
   -1.1791   -1.0250   -0.2208 N   0  0  0  0  0  0  0  0  0  0  0  0
   -2.0019   -0.5126   -0.5339 H   0  0  0  0  0  0  0  0  0  0  0  0
    0.1071   -0.3124   -0.2207 C   0  0  1  0  0  0  0  0  0  0  0  0
    0.8418   -0.8644    0.3760 H   0  0  0  0  0  0  0  0  0  0  0  0
    0.6350   -0.1873   -1.6606 C   0  0  0  0  0  0  0  0  0  0  0  0
   -0.0747    0.3840   -2.2662 H   0  0  0  0  0  0  0  0  0  0  0  0
    1.5841    0.3547   -1.6618 H   0  0  0  0  0  0  0  0  0  0  0  0
    0.8537   -1.5448   -2.3115 C   0  0  0  0  0  0  0  0  0  0  0  0
   -0.0620   -2.0585   -2.9314 O   0  0  0  0  0  0  0  0  0  0  0  0
    2.0634   -2.1235   -2.1523 O   0  0  0  0  0  0  0  0  0  0  0  0
    1.9839   -2.9923   -2.5757 H   0  0  0  0  0  0  0  0  0  0  0  0
   -0.0358    1.0870    0.4035 C   0  0  0  0  0  0  0  0  0  0  0  0
   -0.9708    1.8067    0.0745 O   0  0  0  0  0  0  0  0  0  0  0  0
    0.8953    1.5492    1.3149 N   0  0  0  0  0  0  0  0  0  0  0  0
    1.6283    0.9088    1.6079 H   0  0  0  0  0  0  0  0  0  0  0  0
    0.8003    2.8535    1.9598 C   0  0  0  0  0  0  0  0  0  0  0  0
   -0.1294    2.9304    2.5336 H   0  0  0  0  0  0  0  0  0  0  0  0
    1.6420    2.9998    2.6436 H   0  0  0  0  0  0  0  0  0  0  0  0
    0.8200    3.6537    1.2122 H   0  0  0  0  0  0  0  0  0  0  0  0
  1  2  1  0  0  0  0
  2  3  1  0  0  0  0
  2  4  1  0  0  0  0
  2  5  1  0  0  0  0
  5  6  2  0  0  0  0
  5  7  1  0  0  0  0
  7  8  1  0  0  0  0
  7  9  1  0  0  0  0
  9 10  1  0  0  0  0
  9 11  1  0  0  0  0
  9 18  1  0  0  0  0
 11 12  1  0  0  0  0
 11 13  1  0  0  0  0
 11 14  1  0  0  0  0
 14 15  2  0  0  0  0
 14 16  1  0  0  0  0
 16 17  1  0  0  0  0
 18 19  2  0  0  0  0
 18 20  1  0  0  0  0
 20 21  1  0  0  0  0
 20 22  1  0  0  0  0
 22 23  1  0  0  0  0
 22 24  1  0  0  0  0
 22 25  1  0  0  0  0
M  END
$$$$

  -OEChem-03222214023D

 25 24  0     1  0  0  0  0  0999 V2000
   -2.6946   -4.0127    0.3765 H   0  0  0  0  0  0  0  0  0  0  0  0
   -2.7342   -2.9656    0.0640 C   0  0  0  0  0  0  0  0  0  0  0  0
   -3.4165   -2.4255    0.7246 H   0  0  0  0  0  0  0  0  0  0  0  0
   -3.1136   -2.9181   -0.9598 H   0  0  0  0  0  0  0  0  0  0  0  0
   -1.3508   -2.3475    0.1298 C   0  0  0  0  0  0  0  0  0  0  0  0
   -0.4003   -3.0128    0.5106 O   0  0  0  0  0  0  0  0  0  0  0  0
   -1.1701   -1.0301   -0.2397 N   0  0  0  0  0  0  0  0  0  0  0  0
   -1.9993   -0.4982   -0.5000 H   0  0  0  0  0  0  0  0  0  0  0  0
    0.1154   -0.3150   -0.2294 C   0  0  1  0  0  0  0  0  0  0  0  0
    0.8468   -0.8672    0.3715 H   0  0  0  0  0  0  0  0  0  0  0  0
    0.6465   -0.1920   -1.6673 C   0  0  0  0  0  0  0  0  0  0  0  0
   -0.0607    0.3784   -2.2769 H   0  0  0  0  0  0  0  0  0  0  0  0
    1.5977    0.3457   -1.6685 H   0  0  0  0  0  0  0  0  0  0  0  0
    0.8638   -1.5571   -2.3002 C   0  0  0  0  0  0  0  0  0  0  0  0
    0.0678   -1.9536   -3.1337 O   0  0  0  0  0  0  0  0  0  0  0  0
    1.9517   -2.2574   -1.9130 O   0  0  0  0  0  0  0  0  0  0  0  0
    1.8789   -3.1107   -2.3674 H   0  0  0  0  0  0  0  0  0  0  0  0
   -0.0345    1.0834    0.3948 C   0  0  0  0  0  0  0  0  0  0  0  0
   -0.9774    1.7948    0.0707 O   0  0  0  0  0  0  0  0  0  0  0  0
    0.8886    1.5471    1.3134 N   0  0  0  0  0  0  0  0  0  0  0  0
    1.6284    0.9126    1.6021 H   0  0  0  0  0  0  0  0  0  0  0  0
    0.7838    2.8488    1.9619 C   0  0  0  0  0  0  0  0  0  0  0  0
   -0.1546    2.9240    2.5216 H   0  0  0  0  0  0  0  0  0  0  0  0
    1.6147    2.9922    2.6594 H   0  0  0  0  0  0  0  0  0  0  0  0
    0.8153    3.6516    1.2176 H   0  0  0  0  0  0  0  0  0  0  0  0
  1  2  1  0  0  0  0
  2  3  1  0  0  0  0
  2  4  1  0  0  0  0
  2  5  1  0  0  0  0
  5  6  2  0  0  0  0
  5  7  1  0  0  0  0
  7  8  1  0  0  0  0
  7  9  1  0  0  0  0
  9 10  1  0  0  0  0
  9 11  1  0  0  0  0
  9 18  1  0  0  0  0
 11 12  1  0  0  0  0
 11 13  1  0  0  0  0
 11 14  1  0  0  0  0
 14 15  2  0  0  0  0
 14 16  1  0  0  0  0
 16 17  1  0  0  0  0
 18 19  2  0  0  0  0
 18 20  1  0  0  0  0
 20 21  1  0  0  0  0
 20 22  1  0  0  0  0
 22 23  1  0  0  0  0
 22 24  1  0  0  0  0
 22 25  1  0  0  0  0
M  END
$$$$

  -OEChem-03222214023D

 25 24  0     1  0  0  0  0  0999 V2000
   -2.7312   -4.0003    0.3948 H   0  0  0  0  0  0  0  0  0  0  0  0
   -2.7584   -2.9536    0.0794 C   0  0  0  0  0  0  0  0  0  0  0  0
   -3.4314   -2.4032    0.7412 H   0  0  0  0  0  0  0  0  0  0  0  0
   -3.1415   -2.9038   -0.9429 H   0  0  0  0  0  0  0  0  0  0  0  0
   -1.3669   -2.3526    0.1377 C   0  0  0  0  0  0  0  0  0  0  0  0
   -0.4250   -3.0286    0.5187 O   0  0  0  0  0  0  0  0  0  0  0  0
   -1.1734   -1.0382   -0.2363 N   0  0  0  0  0  0  0  0  0  0  0  0
   -2.0018   -0.4948   -0.4753 H   0  0  0  0  0  0  0  0  0  0  0  0
    0.1143   -0.3257   -0.2221 C   0  0  1  0  0  0  0  0  0  0  0  0
    0.8405   -0.8779    0.3852 H   0  0  0  0  0  0  0  0  0  0  0  0
    0.6510   -0.2061   -1.6592 C   0  0  0  0  0  0  0  0  0  0  0  0
   -0.0545    0.3668   -2.2689 H   0  0  0  0  0  0  0  0  0  0  0  0
    1.6029    0.3301   -1.6561 H   0  0  0  0  0  0  0  0  0  0  0  0
    0.8724   -1.5676   -2.2990 C   0  0  0  0  0  0  0  0  0  0  0  0
    0.2598   -1.8457   -3.3147 O   0  0  0  0  0  0  0  0  0  0  0  0
    1.8090   -2.3702   -1.7485 O   0  0  0  0  0  0  0  0  0  0  0  0
    1.7752   -3.1928   -2.2597 H   0  0  0  0  0  0  0  0  0  0  0  0
   -0.0364    1.0761    0.3942 C   0  0  0  0  0  0  0  0  0  0  0  0
   -0.9822    1.7832    0.0690 O   0  0  0  0  0  0  0  0  0  0  0  0
    0.8827    1.5425    1.3157 N   0  0  0  0  0  0  0  0  0  0  0  0
    1.6250    0.9111    1.6050 H   0  0  0  0  0  0  0  0  0  0  0  0
    0.7798    2.8492    1.9544 C   0  0  0  0  0  0  0  0  0  0  0  0
   -0.1527    2.9256    2.5235 H   0  0  0  0  0  0  0  0  0  0  0  0
    1.6179    3.0023    2.6413 H   0  0  0  0  0  0  0  0  0  0  0  0
    0.7999    3.6454    1.2028 H   0  0  0  0  0  0  0  0  0  0  0  0
  1  2  1  0  0  0  0
  2  3  1  0  0  0  0
  2  4  1  0  0  0  0
  2  5  1  0  0  0  0
  5  6  2  0  0  0  0
  5  7  1  0  0  0  0
  7  8  1  0  0  0  0
  7  9  1  0  0  0  0
  9 10  1  0  0  0  0
  9 11  1  0  0  0  0
  9 18  1  0  0  0  0
 11 12  1  0  0  0  0
 11 13  1  0  0  0  0
 11 14  1  0  0  0  0
 14 15  2  0  0  0  0
 14 16  1  0  0  0  0
 16 17  1  0  0  0  0
 18 19  2  0  0  0  0
 18 20  1  0  0  0  0
 20 21  1  0  0  0  0
 20 22  1  0  0  0  0
 22 23  1  0  0  0  0
 22 24  1  0  0  0  0
 22 25  1  0  0  0  0
M  END
$$$$

  -OEChem-03222214023D

 25 24  0     1  0  0  0  0  0999 V2000
   -2.7715   -3.9884    0.4199 H   0  0  0  0  0  0  0  0  0  0  0  0
   -2.7852   -2.9440    0.0955 C   0  0  0  0  0  0  0  0  0  0  0  0
   -3.4613   -2.3821    0.7444 H   0  0  0  0  0  0  0  0  0  0  0  0
   -3.1555   -2.8994   -0.9316 H   0  0  0  0  0  0  0  0  0  0  0  0
   -1.3886   -2.3559    0.1678 C   0  0  0  0  0  0  0  0  0  0  0  0
   -0.4663   -3.0314    0.5933 O   0  0  0  0  0  0  0  0  0  0  0  0
   -1.1782   -1.0476   -0.2188 N   0  0  0  0  0  0  0  0  0  0  0  0
   -1.9993   -0.5019   -0.4767 H   0  0  0  0  0  0  0  0  0  0  0  0
    0.1145   -0.3433   -0.2072 C   0  0  1  0  0  0  0  0  0  0  0  0
    0.8384   -0.8961    0.4023 H   0  0  0  0  0  0  0  0  0  0  0  0
    0.6509   -0.2214   -1.6462 C   0  0  0  0  0  0  0  0  0  0  0  0
   -0.0522    0.3621   -2.2487 H   0  0  0  0  0  0  0  0  0  0  0  0
    1.6046    0.3115   -1.6362 H   0  0  0  0  0  0  0  0  0  0  0  0
    0.8732   -1.5694   -2.3160 C   0  0  0  0  0  0  0  0  0  0  0  0
    0.4846   -1.7177   -3.4607 O   0  0  0  0  0  0  0  0  0  0  0  0
    1.6214   -2.4831   -1.6616 O   0  0  0  0  0  0  0  0  0  0  0  0
    1.6497   -3.2602   -2.2395 H   0  0  0  0  0  0  0  0  0  0  0  0
   -0.0352    1.0653    0.3948 C   0  0  0  0  0  0  0  0  0  0  0  0
   -0.9756    1.7732    0.0552 O   0  0  0  0  0  0  0  0  0  0  0  0
    0.8801    1.5381    1.3166 N   0  0  0  0  0  0  0  0  0  0  0  0
    1.6136    0.9042    1.6221 H   0  0  0  0  0  0  0  0  0  0  0  0
    0.7775    2.8509    1.9427 C   0  0  0  0  0  0  0  0  0  0  0  0
   -0.1541    2.9327    2.5125 H   0  0  0  0  0  0  0  0  0  0  0  0
    1.6166    3.0105    2.6268 H   0  0  0  0  0  0  0  0  0  0  0  0
    0.7968    3.6399    1.1834 H   0  0  0  0  0  0  0  0  0  0  0  0
  1  2  1  0  0  0  0
  2  3  1  0  0  0  0
  2  4  1  0  0  0  0
  2  5  1  0  0  0  0
  5  6  2  0  0  0  0
  5  7  1  0  0  0  0
  7  8  1  0  0  0  0
  7  9  1  0  0  0  0
  9 10  1  0  0  0  0
  9 11  1  0  0  0  0
  9 18  1  0  0  0  0
 11 12  1  0  0  0  0
 11 13  1  0  0  0  0
 11 14  1  0  0  0  0
 14 15  2  0  0  0  0
 14 16  1  0  0  0  0
 16 17  1  0  0  0  0
 18 19  2  0  0  0  0
 18 20  1  0  0  0  0
 20 21  1  0  0  0  0
 20 22  1  0  0  0  0
 22 23  1  0  0  0  0
 22 24  1  0  0  0  0
 22 25  1  0  0  0  0
M  END
$$$$

  -OEChem-03222214023D

 25 24  0     1  0  0  0  0  0999 V2000
   -2.8028   -3.9881    0.4296 H   0  0  0  0  0  0  0  0  0  0  0  0
   -2.8053   -2.9448    0.1019 C   0  0  0  0  0  0  0  0  0  0  0  0
   -3.4996   -2.3800    0.7288 H   0  0  0  0  0  0  0  0  0  0  0  0
   -3.1453   -2.9036   -0.9359 H   0  0  0  0  0  0  0  0  0  0  0  0
   -1.4110   -2.3572    0.2143 C   0  0  0  0  0  0  0  0  0  0  0  0
   -0.5138   -3.0167    0.7125 O   0  0  0  0  0  0  0  0  0  0  0  0
   -1.1869   -1.0558   -0.1891 N   0  0  0  0  0  0  0  0  0  0  0  0
   -1.9989   -0.5155   -0.4839 H   0  0  0  0  0  0  0  0  0  0  0  0
    0.1116   -0.3615   -0.1868 C   0  0  1  0  0  0  0  0  0  0  0  0
    0.8352   -0.9150    0.4223 H   0  0  0  0  0  0  0  0  0  0  0  0
    0.6449   -0.2336   -1.6295 C   0  0  0  0  0  0  0  0  0  0  0  0
   -0.0591    0.3606   -2.2203 H   0  0  0  0  0  0  0  0  0  0  0  0
    1.5988    0.2989   -1.6139 H   0  0  0  0  0  0  0  0  0  0  0  0
    0.8690   -1.5593   -2.3440 C   0  0  0  0  0  0  0  0  0  0  0  0
    0.7349   -1.5779   -3.5542 O   0  0  0  0  0  0  0  0  0  0  0  0
    1.3731   -2.5947   -1.6413 O   0  0  0  0  0  0  0  0  0  0  0  0
    1.4789   -3.3184   -2.2762 H   0  0  0  0  0  0  0  0  0  0  0  0
   -0.0335    1.0548    0.3989 C   0  0  0  0  0  0  0  0  0  0  0  0
   -0.9655    1.7663    0.0437 O   0  0  0  0  0  0  0  0  0  0  0  0
    0.8827    1.5344    1.3163 N   0  0  0  0  0  0  0  0  0  0  0  0
    1.6066    0.8977    1.6384 H   0  0  0  0  0  0  0  0  0  0  0  0
    0.7849    2.8556    1.9252 C   0  0  0  0  0  0  0  0  0  0  0  0
   -0.1502    2.9505    2.4874 H   0  0  0  0  0  0  0  0  0  0  0  0
    1.6201    3.0186    2.6132 H   0  0  0  0  0  0  0  0  0  0  0  0
    0.8145    3.6348    1.1561 H   0  0  0  0  0  0  0  0  0  0  0  0
  1  2  1  0  0  0  0
  2  3  1  0  0  0  0
  2  4  1  0  0  0  0
  2  5  1  0  0  0  0
  5  6  2  0  0  0  0
  5  7  1  0  0  0  0
  7  8  1  0  0  0  0
  7  9  1  0  0  0  0
  9 10  1  0  0  0  0
  9 11  1  0  0  0  0
  9 18  1  0  0  0  0
 11 12  1  0  0  0  0
 11 13  1  0  0  0  0
 11 14  1  0  0  0  0
 14 15  2  0  0  0  0
 14 16  1  0  0  0  0
 16 17  1  0  0  0  0
 18 19  2  0  0  0  0
 18 20  1  0  0  0  0
 20 21  1  0  0  0  0
 20 22  1  0  0  0  0
 22 23  1  0  0  0  0
 22 24  1  0  0  0  0
 22 25  1  0  0  0  0
M  END
$$$$

  -OEChem-03222214023D

 25 24  0     1  0  0  0  0  0999 V2000
   -2.8067   -3.9941    0.4483 H   0  0  0  0  0  0  0  0  0  0  0  0
   -2.8092   -2.9560    0.1041 C   0  0  0  0  0  0  0  0  0  0  0  0
   -3.5359   -2.3907    0.6926 H   0  0  0  0  0  0  0  0  0  0  0  0
   -3.1056   -2.9353   -0.9473 H   0  0  0  0  0  0  0  0  0  0  0  0
   -1.4282   -2.3489    0.2650 C   0  0  0  0  0  0  0  0  0  0  0  0
   -0.5553   -2.9760    0.8434 O   0  0  0  0  0  0  0  0  0  0  0  0
   -1.1996   -1.0543   -0.1582 N   0  0  0  0  0  0  0  0  0  0  0  0
   -1.9992   -0.5321   -0.5119 H   0  0  0  0  0  0  0  0  0  0  0  0
    0.1059   -0.3737   -0.1681 C   0  0  1  0  0  0  0  0  0  0  0  0
    0.8286   -0.9279    0.4410 H   0  0  0  0  0  0  0  0  0  0  0  0
    0.6416   -0.2415   -1.6126 C   0  0  0  0  0  0  0  0  0  0  0  0
   -0.0588    0.3660   -2.1938 H   0  0  0  0  0  0  0  0  0  0  0  0
    1.5970    0.2889   -1.5864 H   0  0  0  0  0  0  0  0  0  0  0  0
    0.8678   -1.5427   -2.3742 C   0  0  0  0  0  0  0  0  0  0  0  0
    1.0116   -1.4535   -3.5799 O   0  0  0  0  0  0  0  0  0  0  0  0
    1.0441   -2.6950   -1.6974 O   0  0  0  0  0  0  0  0  0  0  0  0
    1.2298   -3.3695   -2.3671 H   0  0  0  0  0  0  0  0  0  0  0  0
   -0.0323    1.0504    0.4020 C   0  0  0  0  0  0  0  0  0  0  0  0
   -0.9532    1.7686    0.0309 O   0  0  0  0  0  0  0  0  0  0  0  0
    0.8879    1.5334    1.3134 N   0  0  0  0  0  0  0  0  0  0  0  0
    1.5944    0.8883    1.6568 H   0  0  0  0  0  0  0  0  0  0  0  0
    0.7973    2.8605    1.9104 C   0  0  0  0  0  0  0  0  0  0  0  0
   -0.1323    2.9618    2.4804 H   0  0  0  0  0  0  0  0  0  0  0  0
    1.6395    3.0289    2.5884 H   0  0  0  0  0  0  0  0  0  0  0  0
    0.8206    3.6323    1.1336 H   0  0  0  0  0  0  0  0  0  0  0  0
  1  2  1  0  0  0  0
  2  3  1  0  0  0  0
  2  4  1  0  0  0  0
  2  5  1  0  0  0  0
  5  6  2  0  0  0  0
  5  7  1  0  0  0  0
  7  8  1  0  0  0  0
  7  9  1  0  0  0  0
  9 10  1  0  0  0  0
  9 11  1  0  0  0  0
  9 18  1  0  0  0  0
 11 12  1  0  0  0  0
 11 13  1  0  0  0  0
 11 14  1  0  0  0  0
 14 15  2  0  0  0  0
 14 16  1  0  0  0  0
 16 17  1  0  0  0  0
 18 19  2  0  0  0  0
 18 20  1  0  0  0  0
 20 21  1  0  0  0  0
 20 22  1  0  0  0  0
 22 23  1  0  0  0  0
 22 24  1  0  0  0  0
 22 25  1  0  0  0  0
M  END
$$$$

  -OEChem-03222214023D

 25 24  0     1  0  0  0  0  0999 V2000
   -2.8298   -3.9871    0.5774 H   0  0  0  0  0  0  0  0  0  0  0  0
   -2.8393   -2.9637    0.1922 C   0  0  0  0  0  0  0  0  0  0  0  0
   -3.5660   -2.3786    0.7605 H   0  0  0  0  0  0  0  0  0  0  0  0
   -3.1393   -2.9863   -0.8581 H   0  0  0  0  0  0  0  0  0  0  0  0
   -1.4606   -2.3446    0.3215 C   0  0  0  0  0  0  0  0  0  0  0  0
   -0.5639   -2.9653    0.8731 O   0  0  0  0  0  0  0  0  0  0  0  0
   -1.2456   -1.0523   -0.1177 N   0  0  0  0  0  0  0  0  0  0  0  0
   -2.0480   -0.5402   -0.4789 H   0  0  0  0  0  0  0  0  0  0  0  0
    0.0646   -0.3846   -0.1685 C   0  0  1  0  0  0  0  0  0  0  0  0
    0.7808   -0.9415    0.4447 H   0  0  0  0  0  0  0  0  0  0  0  0
    0.6405   -0.2609   -1.6052 C   0  0  0  0  0  0  0  0  0  0  0  0
    0.0973    0.5389   -2.1182 H   0  0  0  0  0  0  0  0  0  0  0  0
    1.6851    0.0511   -1.5274 H   0  0  0  0  0  0  0  0  0  0  0  0
    0.5942   -1.4626   -2.5510 C   0  0  0  0  0  0  0  0  0  0  0  0
    1.0682   -1.2724   -3.6563 O   0  0  0  0  0  0  0  0  0  0  0  0
    0.1019   -2.6579   -2.1679 O   0  0  0  0  0  0  0  0  0  0  0  0
    0.2411   -3.2465   -2.9248 H   0  0  0  0  0  0  0  0  0  0  0  0
   -0.0531    1.0432    0.3998 C   0  0  0  0  0  0  0  0  0  0  0  0
   -0.9804    1.7644    0.0510 O   0  0  0  0  0  0  0  0  0  0  0  0
    0.8926    1.5265    1.2850 N   0  0  0  0  0  0  0  0  0  0  0  0
    1.6025    0.8788    1.6158 H   0  0  0  0  0  0  0  0  0  0  0  0
    0.8185    2.8535    1.8849 C   0  0  0  0  0  0  0  0  0  0  0  0
   -0.0895    2.9513    2.4890 H   0  0  0  0  0  0  0  0  0  0  0  0
    1.6848    3.0255    2.5311 H   0  0  0  0  0  0  0  0  0  0  0  0
    0.8094    3.6257    1.1085 H   0  0  0  0  0  0  0  0  0  0  0  0
  1  2  1  0  0  0  0
  2  3  1  0  0  0  0
  2  4  1  0  0  0  0
  2  5  1  0  0  0  0
  5  6  2  0  0  0  0
  5  7  1  0  0  0  0
  7  8  1  0  0  0  0
  7  9  1  0  0  0  0
  9 10  1  0  0  0  0
  9 11  1  0  0  0  0
  9 18  1  0  0  0  0
 11 12  1  0  0  0  0
 11 13  1  0  0  0  0
 11 14  1  0  0  0  0
 14 15  2  0  0  0  0
 14 16  1  0  0  0  0
 16 17  1  0  0  0  0
 18 19  2  0  0  0  0
 18 20  1  0  0  0  0
 20 21  1  0  0  0  0
 20 22  1  0  0  0  0
 22 23  1  0  0  0  0
 22 24  1  0  0  0  0
 22 25  1  0  0  0  0
M  END
$$$$

  -OEChem-03222214023D

 25 24  0     1  0  0  0  0  0999 V2000
   -2.8277   -3.9881    0.5952 H   0  0  0  0  0  0  0  0  0  0  0  0
   -2.8440   -2.9607    0.2213 C   0  0  0  0  0  0  0  0  0  0  0  0
   -3.5490   -2.3779    0.8188 H   0  0  0  0  0  0  0  0  0  0  0  0
   -3.1772   -2.9703   -0.8193 H   0  0  0  0  0  0  0  0  0  0  0  0
   -1.4589   -2.3496    0.3129 C   0  0  0  0  0  0  0  0  0  0  0  0
   -0.5424   -2.9864    0.8114 O   0  0  0  0  0  0  0  0  0  0  0  0
   -1.2518   -1.0543   -0.1206 N   0  0  0  0  0  0  0  0  0  0  0  0
   -2.0598   -0.5384   -0.4634 H   0  0  0  0  0  0  0  0  0  0  0  0
    0.0557   -0.3841   -0.1738 C   0  0  1  0  0  0  0  0  0  0  0  0
    0.7688   -0.9385    0.4451 H   0  0  0  0  0  0  0  0  0  0  0  0
    0.6486   -0.2662   -1.6034 C   0  0  0  0  0  0  0  0  0  0  0  0
    0.1050    0.5261   -2.1264 H   0  0  0  0  0  0  0  0  0  0  0  0
    1.6893    0.0564   -1.5125 H   0  0  0  0  0  0  0  0  0  0  0  0
    0.6205   -1.4716   -2.5479 C   0  0  0  0  0  0  0  0  0  0  0  0
    1.3492   -1.3803   -3.5192 O   0  0  0  0  0  0  0  0  0  0  0  0
   -0.2085   -2.5202   -2.3603 O   0  0  0  0  0  0  0  0  0  0  0  0
   -0.0158   -3.1267   -3.0913 H   0  0  0  0  0  0  0  0  0  0  0  0
   -0.0619    1.0408    0.4015 C   0  0  0  0  0  0  0  0  0  0  0  0
   -0.9919    1.7619    0.0600 O   0  0  0  0  0  0  0  0  0  0  0  0
    0.8867    1.5223    1.2847 N   0  0  0  0  0  0  0  0  0  0  0  0
    1.6059    0.8782    1.6021 H   0  0  0  0  0  0  0  0  0  0  0  0
    0.8200    2.8507    1.8824 C   0  0  0  0  0  0  0  0  0  0  0  0
   -0.0931    2.9582    2.4772 H   0  0  0  0  0  0  0  0  0  0  0  0
    1.6811    3.0143    2.5375 H   0  0  0  0  0  0  0  0  0  0  0  0
    0.8274    3.6222    1.1051 H   0  0  0  0  0  0  0  0  0  0  0  0
  1  2  1  0  0  0  0
  2  3  1  0  0  0  0
  2  4  1  0  0  0  0
  2  5  1  0  0  0  0
  5  6  2  0  0  0  0
  5  7  1  0  0  0  0
  7  8  1  0  0  0  0
  7  9  1  0  0  0  0
  9 10  1  0  0  0  0
  9 11  1  0  0  0  0
  9 18  1  0  0  0  0
 11 12  1  0  0  0  0
 11 13  1  0  0  0  0
 11 14  1  0  0  0  0
 14 15  2  0  0  0  0
 14 16  1  0  0  0  0
 16 17  1  0  0  0  0
 18 19  2  0  0  0  0
 18 20  1  0  0  0  0
 20 21  1  0  0  0  0
 20 22  1  0  0  0  0
 22 23  1  0  0  0  0
 22 24  1  0  0  0  0
 22 25  1  0  0  0  0
M  END
$$$$

  -OEChem-03222214023D

 25 24  0     1  0  0  0  0  0999 V2000
   -2.8091   -3.9948    0.5767 H   0  0  0  0  0  0  0  0  0  0  0  0
   -2.8361   -2.9604    0.2229 C   0  0  0  0  0  0  0  0  0  0  0  0
   -3.5240   -2.3895    0.8510 H   0  0  0  0  0  0  0  0  0  0  0  0
   -3.1987   -2.9500   -0.8079 H   0  0  0  0  0  0  0  0  0  0  0  0
   -1.4490   -2.3502    0.2861 C   0  0  0  0  0  0  0  0  0  0  0  0
   -0.5144   -3.0023    0.7275 O   0  0  0  0  0  0  0  0  0  0  0  0
   -1.2517   -1.0496   -0.1339 N   0  0  0  0  0  0  0  0  0  0  0  0
   -2.0667   -0.5297   -0.4536 H   0  0  0  0  0  0  0  0  0  0  0  0
    0.0510   -0.3716   -0.1864 C   0  0  1  0  0  0  0  0  0  0  0  0
    0.7654   -0.9259    0.4312 H   0  0  0  0  0  0  0  0  0  0  0  0
    0.6448   -0.2608   -1.6140 C   0  0  0  0  0  0  0  0  0  0  0  0
    0.0960    0.5201   -2.1478 H   0  0  0  0  0  0  0  0  0  0  0  0
    1.6835    0.0705   -1.5282 H   0  0  0  0  0  0  0  0  0  0  0  0
    0.6117   -1.4896   -2.5274 C   0  0  0  0  0  0  0  0  0  0  0  0
    1.5218   -1.5650   -3.3329 O   0  0  0  0  0  0  0  0  0  0  0  0
   -0.4401   -2.3379   -2.5402 O   0  0  0  0  0  0  0  0  0  0  0  0
   -0.2219   -2.9927   -3.2208 H   0  0  0  0  0  0  0  0  0  0  0  0
   -0.0647    1.0474    0.4020 C   0  0  0  0  0  0  0  0  0  0  0  0
   -0.9992    1.7685    0.0741 O   0  0  0  0  0  0  0  0  0  0  0  0
    0.8887    1.5227    1.2833 N   0  0  0  0  0  0  0  0  0  0  0  0
    1.6168    0.8804    1.5837 H   0  0  0  0  0  0  0  0  0  0  0  0
    0.8209    2.8443    1.8956 C   0  0  0  0  0  0  0  0  0  0  0  0
   -0.0984    2.9484    2.4815 H   0  0  0  0  0  0  0  0  0  0  0  0
    1.6752    2.9965    2.5624 H   0  0  0  0  0  0  0  0  0  0  0  0
    0.8395    3.6248    1.1276 H   0  0  0  0  0  0  0  0  0  0  0  0
  1  2  1  0  0  0  0
  2  3  1  0  0  0  0
  2  4  1  0  0  0  0
  2  5  1  0  0  0  0
  5  6  2  0  0  0  0
  5  7  1  0  0  0  0
  7  8  1  0  0  0  0
  7  9  1  0  0  0  0
  9 10  1  0  0  0  0
  9 11  1  0  0  0  0
  9 18  1  0  0  0  0
 11 12  1  0  0  0  0
 11 13  1  0  0  0  0
 11 14  1  0  0  0  0
 14 15  2  0  0  0  0
 14 16  1  0  0  0  0
 16 17  1  0  0  0  0
 18 19  2  0  0  0  0
 18 20  1  0  0  0  0
 20 21  1  0  0  0  0
 20 22  1  0  0  0  0
 22 23  1  0  0  0  0
 22 24  1  0  0  0  0
 22 25  1  0  0  0  0
M  END
$$$$

  -OEChem-03222214023D

 25 24  0     1  0  0  0  0  0999 V2000
   -2.7942   -4.0008    0.5380 H   0  0  0  0  0  0  0  0  0  0  0  0
   -2.8255   -2.9595    0.2061 C   0  0  0  0  0  0  0  0  0  0  0  0
   -3.4935   -2.3989    0.8640 H   0  0  0  0  0  0  0  0  0  0  0  0
   -3.2164   -2.9267   -0.8137 H   0  0  0  0  0  0  0  0  0  0  0  0
   -1.4347   -2.3556    0.2435 C   0  0  0  0  0  0  0  0  0  0  0  0
   -0.4877   -3.0218    0.6330 O   0  0  0  0  0  0  0  0  0  0  0  0
   -1.2450   -1.0481   -0.1563 N   0  0  0  0  0  0  0  0  0  0  0  0
   -2.0673   -0.5215   -0.4457 H   0  0  0  0  0  0  0  0  0  0  0  0
    0.0517   -0.3584   -0.1995 C   0  0  1  0  0  0  0  0  0  0  0  0
    0.7697   -0.9157    0.4114 H   0  0  0  0  0  0  0  0  0  0  0  0
    0.6352   -0.2458   -1.6282 C   0  0  0  0  0  0  0  0  0  0  0  0
    0.0781    0.5255   -2.1672 H   0  0  0  0  0  0  0  0  0  0  0  0
    1.6737    0.0899   -1.5566 H   0  0  0  0  0  0  0  0  0  0  0  0
    0.5861   -1.4982   -2.5049 C   0  0  0  0  0  0  0  0  0  0  0  0
    1.6045   -1.7627   -3.1180 O   0  0  0  0  0  0  0  0  0  0  0  0
   -0.5797   -2.1539   -2.7085 O   0  0  0  0  0  0  0  0  0  0  0  0
   -0.3565   -2.8663   -3.3271 H   0  0  0  0  0  0  0  0  0  0  0  0
   -0.0666    1.0523    0.4071 C   0  0  0  0  0  0  0  0  0  0  0  0
   -1.0070    1.7717    0.0927 O   0  0  0  0  0  0  0  0  0  0  0  0
    0.8862    1.5218    1.2921 N   0  0  0  0  0  0  0  0  0  0  0  0
    1.6303    0.8869    1.5682 H   0  0  0  0  0  0  0  0  0  0  0  0
    0.8205    2.8409    1.9103 C   0  0  0  0  0  0  0  0  0  0  0  0
   -0.1082    2.9515    2.4802 H   0  0  0  0  0  0  0  0  0  0  0  0
    1.6638    2.9815    2.5933 H   0  0  0  0  0  0  0  0  0  0  0  0
    0.8605    3.6246    1.1463 H   0  0  0  0  0  0  0  0  0  0  0  0
  1  2  1  0  0  0  0
  2  3  1  0  0  0  0
  2  4  1  0  0  0  0
  2  5  1  0  0  0  0
  5  6  2  0  0  0  0
  5  7  1  0  0  0  0
  7  8  1  0  0  0  0
  7  9  1  0  0  0  0
  9 10  1  0  0  0  0
  9 11  1  0  0  0  0
  9 18  1  0  0  0  0
 11 12  1  0  0  0  0
 11 13  1  0  0  0  0
 11 14  1  0  0  0  0
 14 15  2  0  0  0  0
 14 16  1  0  0  0  0
 16 17  1  0  0  0  0
 18 19  2  0  0  0  0
 18 20  1  0  0  0  0
 20 21  1  0  0  0  0
 20 22  1  0  0  0  0
 22 23  1  0  0  0  0
 22 24  1  0  0  0  0
 22 25  1  0  0  0  0
M  END
$$$$

  -OEChem-03222214023D

 25 24  0     1  0  0  0  0  0999 V2000
   -2.7758   -4.0023    0.4937 H   0  0  0  0  0  0  0  0  0  0  0  0
   -2.8118   -2.9585    0.1694 C   0  0  0  0  0  0  0  0  0  0  0  0
   -3.4789   -2.4051    0.8347 H   0  0  0  0  0  0  0  0  0  0  0  0
   -3.2077   -2.9186   -0.8484 H   0  0  0  0  0  0  0  0  0  0  0  0
   -1.4223   -2.3511    0.2055 C   0  0  0  0  0  0  0  0  0  0  0  0
   -0.4703   -3.0212    0.5739 O   0  0  0  0  0  0  0  0  0  0  0  0
   -1.2371   -1.0392   -0.1799 N   0  0  0  0  0  0  0  0  0  0  0  0
   -2.0627   -0.5105   -0.4565 H   0  0  0  0  0  0  0  0  0  0  0  0
    0.0555   -0.3402   -0.2145 C   0  0  1  0  0  0  0  0  0  0  0  0
    0.7781   -0.9002    0.3889 H   0  0  0  0  0  0  0  0  0  0  0  0
    0.6241   -0.2270   -1.6463 C   0  0  0  0  0  0  0  0  0  0  0  0
    0.0597    0.5371   -2.1879 H   0  0  0  0  0  0  0  0  0  0  0  0
    1.6640    0.1081   -1.5942 H   0  0  0  0  0  0  0  0  0  0  0  0
    0.5547   -1.5005   -2.4857 C   0  0  0  0  0  0  0  0  0  0  0  0
    1.6122   -1.9537   -2.8847 O   0  0  0  0  0  0  0  0  0  0  0  0
   -0.6472   -1.9946   -2.8637 O   0  0  0  0  0  0  0  0  0  0  0  0
   -0.4331   -2.7668   -3.4098 H   0  0  0  0  0  0  0  0  0  0  0  0
   -0.0632    1.0646    0.4042 C   0  0  0  0  0  0  0  0  0  0  0  0
   -1.0077    1.7838    0.1021 O   0  0  0  0  0  0  0  0  0  0  0  0
    0.8911    1.5257    1.2919 N   0  0  0  0  0  0  0  0  0  0  0  0
    1.6345    0.8871    1.5615 H   0  0  0  0  0  0  0  0  0  0  0  0
    0.8220    2.8349    1.9300 C   0  0  0  0  0  0  0  0  0  0  0  0
   -0.0928    2.9238    2.5255 H   0  0  0  0  0  0  0  0  0  0  0  0
    1.6810    2.9787    2.5925 H   0  0  0  0  0  0  0  0  0  0  0  0
    0.8308    3.6294    1.1763 H   0  0  0  0  0  0  0  0  0  0  0  0
  1  2  1  0  0  0  0
  2  3  1  0  0  0  0
  2  4  1  0  0  0  0
  2  5  1  0  0  0  0
  5  6  2  0  0  0  0
  5  7  1  0  0  0  0
  7  8  1  0  0  0  0
  7  9  1  0  0  0  0
  9 10  1  0  0  0  0
  9 11  1  0  0  0  0
  9 18  1  0  0  0  0
 11 12  1  0  0  0  0
 11 13  1  0  0  0  0
 11 14  1  0  0  0  0
 14 15  2  0  0  0  0
 14 16  1  0  0  0  0
 16 17  1  0  0  0  0
 18 19  2  0  0  0  0
 18 20  1  0  0  0  0
 20 21  1  0  0  0  0
 20 22  1  0  0  0  0
 22 23  1  0  0  0  0
 22 24  1  0  0  0  0
 22 25  1  0  0  0  0
M  END
$$$$

  -OEChem-03222214023D

 25 24  0     1  0  0  0  0  0999 V2000
   -2.7621   -4.0037    0.4565 H   0  0  0  0  0  0  0  0  0  0  0  0
   -2.7990   -2.9564    0.1444 C   0  0  0  0  0  0  0  0  0  0  0  0
   -3.4547   -2.4083    0.8252 H   0  0  0  0  0  0  0  0  0  0  0  0
   -3.2092   -2.9045   -0.8671 H   0  0  0  0  0  0  0  0  0  0  0  0
   -1.4071   -2.3543    0.1686 C   0  0  0  0  0  0  0  0  0  0  0  0
   -0.4540   -3.0300    0.5215 O   0  0  0  0  0  0  0  0  0  0  0  0
   -1.2227   -1.0388   -0.2039 N   0  0  0  0  0  0  0  0  0  0  0  0
   -2.0522   -0.5026   -0.4538 H   0  0  0  0  0  0  0  0  0  0  0  0
    0.0672   -0.3329   -0.2265 C   0  0  1  0  0  0  0  0  0  0  0  0
    0.7942   -0.8959    0.3690 H   0  0  0  0  0  0  0  0  0  0  0  0
    0.6204   -0.2080   -1.6614 C   0  0  0  0  0  0  0  0  0  0  0  0
    0.0514    0.5568   -2.1973 H   0  0  0  0  0  0  0  0  0  0  0  0
    1.6620    0.1225   -1.6240 H   0  0  0  0  0  0  0  0  0  0  0  0
    0.5340   -1.4887   -2.4829 C   0  0  0  0  0  0  0  0  0  0  0  0
    1.5656   -2.1101   -2.6616 O   0  0  0  0  0  0  0  0  0  0  0  0
   -0.6488   -1.8413   -3.0371 O   0  0  0  0  0  0  0  0  0  0  0  0
   -0.4582   -2.6611   -3.5188 H   0  0  0  0  0  0  0  0  0  0  0  0
   -0.0590    1.0661    0.4032 C   0  0  0  0  0  0  0  0  0  0  0  0
   -1.0050    1.7839    0.1029 O   0  0  0  0  0  0  0  0  0  0  0  0
    0.8896    1.5238    1.2986 N   0  0  0  0  0  0  0  0  0  0  0  0
    1.6342    0.8861    1.5669 H   0  0  0  0  0  0  0  0  0  0  0  0
    0.8171    2.8316    1.9392 C   0  0  0  0  0  0  0  0  0  0  0  0
   -0.1186    2.9340    2.4991 H   0  0  0  0  0  0  0  0  0  0  0  0
    1.6516    2.9589    2.6355 H   0  0  0  0  0  0  0  0  0  0  0  0
    0.8679    3.6281    1.1893 H   0  0  0  0  0  0  0  0  0  0  0  0
  1  2  1  0  0  0  0
  2  3  1  0  0  0  0
  2  4  1  0  0  0  0
  2  5  1  0  0  0  0
  5  6  2  0  0  0  0
  5  7  1  0  0  0  0
  7  8  1  0  0  0  0
  7  9  1  0  0  0  0
  9 10  1  0  0  0  0
  9 11  1  0  0  0  0
  9 18  1  0  0  0  0
 11 12  1  0  0  0  0
 11 13  1  0  0  0  0
 11 14  1  0  0  0  0
 14 15  2  0  0  0  0
 14 16  1  0  0  0  0
 16 17  1  0  0  0  0
 18 19  2  0  0  0  0
 18 20  1  0  0  0  0
 20 21  1  0  0  0  0
 20 22  1  0  0  0  0
 22 23  1  0  0  0  0
 22 24  1  0  0  0  0
 22 25  1  0  0  0  0
M  END
$$$$

  -OEChem-03222214023D

 25 24  0     1  0  0  0  0  0999 V2000
   -2.7511   -4.0099    0.4065 H   0  0  0  0  0  0  0  0  0  0  0  0
   -2.7876   -2.9603    0.1015 C   0  0  0  0  0  0  0  0  0  0  0  0
   -3.4599   -2.4210    0.7730 H   0  0  0  0  0  0  0  0  0  0  0  0
   -3.1777   -2.9030   -0.9176 H   0  0  0  0  0  0  0  0  0  0  0  0
   -1.3996   -2.3510    0.1581 C   0  0  0  0  0  0  0  0  0  0  0  0
   -0.4535   -3.0206    0.5388 O   0  0  0  0  0  0  0  0  0  0  0  0
   -1.2137   -1.0350   -0.2128 N   0  0  0  0  0  0  0  0  0  0  0  0
   -2.0419   -0.5003   -0.4703 H   0  0  0  0  0  0  0  0  0  0  0  0
    0.0757   -0.3261   -0.2291 C   0  0  1  0  0  0  0  0  0  0  0  0
    0.8050   -0.8906    0.3623 H   0  0  0  0  0  0  0  0  0  0  0  0
    0.6181   -0.1964   -1.6666 C   0  0  0  0  0  0  0  0  0  0  0  0
    0.0484    0.5709   -2.1986 H   0  0  0  0  0  0  0  0  0  0  0  0
    1.6616    0.1278   -1.6388 H   0  0  0  0  0  0  0  0  0  0  0  0
    0.5208   -1.4806   -2.4775 C   0  0  0  0  0  0  0  0  0  0  0  0
    1.4638   -2.2492   -2.4371 O   0  0  0  0  0  0  0  0  0  0  0  0
   -0.5894   -1.7051   -3.2157 O   0  0  0  0  0  0  0  0  0  0  0  0
   -0.4319   -2.5634   -3.6387 H   0  0  0  0  0  0  0  0  0  0  0  0
   -0.0502    1.0729    0.3999 C   0  0  0  0  0  0  0  0  0  0  0  0
   -0.9953    1.7914    0.0982 O   0  0  0  0  0  0  0  0  0  0  0  0
    0.8970    1.5284    1.2978 N   0  0  0  0  0  0  0  0  0  0  0  0
    1.6377    0.8874    1.5700 H   0  0  0  0  0  0  0  0  0  0  0  0
    0.8193    2.8318    1.9466 C   0  0  0  0  0  0  0  0  0  0  0  0
   -0.0921    2.9060    2.5492 H   0  0  0  0  0  0  0  0  0  0  0  0
    1.6819    2.9798    2.6036 H   0  0  0  0  0  0  0  0  0  0  0  0
    0.8139    3.6319    1.1987 H   0  0  0  0  0  0  0  0  0  0  0  0
  1  2  1  0  0  0  0
  2  3  1  0  0  0  0
  2  4  1  0  0  0  0
  2  5  1  0  0  0  0
  5  6  2  0  0  0  0
  5  7  1  0  0  0  0
  7  8  1  0  0  0  0
  7  9  1  0  0  0  0
  9 10  1  0  0  0  0
  9 11  1  0  0  0  0
  9 18  1  0  0  0  0
 11 12  1  0  0  0  0
 11 13  1  0  0  0  0
 11 14  1  0  0  0  0
 14 15  2  0  0  0  0
 14 16  1  0  0  0  0
 16 17  1  0  0  0  0
 18 19  2  0  0  0  0
 18 20  1  0  0  0  0
 20 21  1  0  0  0  0
 20 22  1  0  0  0  0
 22 23  1  0  0  0  0
 22 24  1  0  0  0  0
 22 25  1  0  0  0  0
M  END
$$$$

  -OEChem-03222214023D

 25 24  0     1  0  0  0  0  0999 V2000
   -2.7427   -4.0155    0.3935 H   0  0  0  0  0  0  0  0  0  0  0  0
   -2.7787   -2.9662    0.0873 C   0  0  0  0  0  0  0  0  0  0  0  0
   -3.4627   -2.4288    0.7485 H   0  0  0  0  0  0  0  0  0  0  0  0
   -3.1537   -2.9112   -0.9375 H   0  0  0  0  0  0  0  0  0  0  0  0
   -1.3937   -2.3524    0.1649 C   0  0  0  0  0  0  0  0  0  0  0  0
   -0.4598   -3.0099    0.5930 O   0  0  0  0  0  0  0  0  0  0  0  0
   -1.2050   -1.0380   -0.2121 N   0  0  0  0  0  0  0  0  0  0  0  0
   -2.0313   -0.5054   -0.4802 H   0  0  0  0  0  0  0  0  0  0  0  0
    0.0857   -0.3302   -0.2270 C   0  0  1  0  0  0  0  0  0  0  0  0
    0.8170   -0.8954    0.3615 H   0  0  0  0  0  0  0  0  0  0  0  0
    0.6201   -0.1938   -1.6678 C   0  0  0  0  0  0  0  0  0  0  0  0
    0.0503    0.5797   -2.1912 H   0  0  0  0  0  0  0  0  0  0  0  0
    1.6649    0.1260   -1.6446 H   0  0  0  0  0  0  0  0  0  0  0  0
    0.5185   -1.4706   -2.4886 C   0  0  0  0  0  0  0  0  0  0  0  0
    1.3115   -2.3643   -2.2581 O   0  0  0  0  0  0  0  0  0  0  0  0
   -0.4477   -1.5596   -3.4290 O   0  0  0  0  0  0  0  0  0  0  0  0
   -0.3301   -2.4393   -3.8199 H   0  0  0  0  0  0  0  0  0  0  0  0
   -0.0432    1.0714    0.3959 C   0  0  0  0  0  0  0  0  0  0  0  0
   -0.9853    1.7901    0.0851 O   0  0  0  0  0  0  0  0  0  0  0  0
    0.9005    1.5300    1.2959 N   0  0  0  0  0  0  0  0  0  0  0  0
    1.6336    0.8856    1.5805 H   0  0  0  0  0  0  0  0  0  0  0  0
    0.8165    2.8325    1.9456 C   0  0  0  0  0  0  0  0  0  0  0  0
   -0.1055    2.9100    2.5315 H   0  0  0  0  0  0  0  0  0  0  0  0
    1.6672    2.9749    2.6191 H   0  0  0  0  0  0  0  0  0  0  0  0
    0.8287    3.6343    1.1997 H   0  0  0  0  0  0  0  0  0  0  0  0
  1  2  1  0  0  0  0
  2  3  1  0  0  0  0
  2  4  1  0  0  0  0
  2  5  1  0  0  0  0
  5  6  2  0  0  0  0
  5  7  1  0  0  0  0
  7  8  1  0  0  0  0
  7  9  1  0  0  0  0
  9 10  1  0  0  0  0
  9 11  1  0  0  0  0
  9 18  1  0  0  0  0
 11 12  1  0  0  0  0
 11 13  1  0  0  0  0
 11 14  1  0  0  0  0
 14 15  2  0  0  0  0
 14 16  1  0  0  0  0
 16 17  1  0  0  0  0
 18 19  2  0  0  0  0
 18 20  1  0  0  0  0
 20 21  1  0  0  0  0
 20 22  1  0  0  0  0
 22 23  1  0  0  0  0
 22 24  1  0  0  0  0
 22 25  1  0  0  0  0
M  END
$$$$

  -OEChem-03222214023D

 25 24  0     1  0  0  0  0  0999 V2000
   -2.7387   -4.0267    0.3884 H   0  0  0  0  0  0  0  0  0  0  0  0
   -2.7732   -2.9788    0.0773 C   0  0  0  0  0  0  0  0  0  0  0  0
   -3.4816   -2.4441    0.7146 H   0  0  0  0  0  0  0  0  0  0  0  0
   -3.1162   -2.9310   -0.9590 H   0  0  0  0  0  0  0  0  0  0  0  0
   -1.3958   -2.3542    0.1957 C   0  0  0  0  0  0  0  0  0  0  0  0
   -0.4809   -2.9910    0.6910 O   0  0  0  0  0  0  0  0  0  0  0  0
   -1.2034   -1.0435   -0.1942 N   0  0  0  0  0  0  0  0  0  0  0  0
   -2.0232   -0.5200   -0.4966 H   0  0  0  0  0  0  0  0  0  0  0  0
    0.0905   -0.3415   -0.2138 C   0  0  1  0  0  0  0  0  0  0  0  0
    0.8231   -0.9054    0.3740 H   0  0  0  0  0  0  0  0  0  0  0  0
    0.6194   -0.2003   -1.6583 C   0  0  0  0  0  0  0  0  0  0  0  0
    0.0514    0.5818   -2.1710 H   0  0  0  0  0  0  0  0  0  0  0  0
    1.6651    0.1156   -1.6361 H   0  0  0  0  0  0  0  0  0  0  0  0
    0.5166   -1.4627   -2.5025 C   0  0  0  0  0  0  0  0  0  0  0  0
    1.1020   -2.4622   -2.1312 O   0  0  0  0  0  0  0  0  0  0  0  0
   -0.2233   -1.4147   -3.6316 O   0  0  0  0  0  0  0  0  0  0  0  0
   -0.1497   -2.3026   -4.0143 H   0  0  0  0  0  0  0  0  0  0  0  0
   -0.0384    1.0653    0.3976 C   0  0  0  0  0  0  0  0  0  0  0  0
   -0.9751    1.7857    0.0738 O   0  0  0  0  0  0  0  0  0  0  0  0
    0.9037    1.5296    1.2962 N   0  0  0  0  0  0  0  0  0  0  0  0
    1.6279    0.8825    1.5966 H   0  0  0  0  0  0  0  0  0  0  0  0
    0.8197    2.8380    1.9340 C   0  0  0  0  0  0  0  0  0  0  0  0
   -0.1025    2.9211    2.5189 H   0  0  0  0  0  0  0  0  0  0  0  0
    1.6701    2.9866    2.6062 H   0  0  0  0  0  0  0  0  0  0  0  0
    0.8324    3.6329    1.1806 H   0  0  0  0  0  0  0  0  0  0  0  0
  1  2  1  0  0  0  0
  2  3  1  0  0  0  0
  2  4  1  0  0  0  0
  2  5  1  0  0  0  0
  5  6  2  0  0  0  0
  5  7  1  0  0  0  0
  7  8  1  0  0  0  0
  7  9  1  0  0  0  0
  9 10  1  0  0  0  0
  9 11  1  0  0  0  0
  9 18  1  0  0  0  0
 11 12  1  0  0  0  0
 11 13  1  0  0  0  0
 11 14  1  0  0  0  0
 14 15  2  0  0  0  0
 14 16  1  0  0  0  0
 16 17  1  0  0  0  0
 18 19  2  0  0  0  0
 18 20  1  0  0  0  0
 20 21  1  0  0  0  0
 20 22  1  0  0  0  0
 22 23  1  0  0  0  0
 22 24  1  0  0  0  0
 22 25  1  0  0  0  0
M  END
$$$$

  -OEChem-03222214023D

 25 24  0     1  0  0  0  0  0999 V2000
   -2.7344   -4.0339    0.4053 H   0  0  0  0  0  0  0  0  0  0  0  0
   -2.7669   -2.9937    0.0692 C   0  0  0  0  0  0  0  0  0  0  0  0
   -3.5103   -2.4542    0.6607 H   0  0  0  0  0  0  0  0  0  0  0  0
   -3.0618   -2.9740   -0.9826 H   0  0  0  0  0  0  0  0  0  0  0  0
   -1.4043   -2.3485    0.2367 C   0  0  0  0  0  0  0  0  0  0  0  0
   -0.5111   -2.9564    0.8043 O   0  0  0  0  0  0  0  0  0  0  0  0
   -1.2104   -1.0426   -0.1701 N   0  0  0  0  0  0  0  0  0  0  0  0
   -2.0198   -0.5374   -0.5258 H   0  0  0  0  0  0  0  0  0  0  0  0
    0.0883   -0.3498   -0.1994 C   0  0  1  0  0  0  0  0  0  0  0  0
    0.8206   -0.9125    0.3901 H   0  0  0  0  0  0  0  0  0  0  0  0
    0.6148   -0.2133   -1.6485 C   0  0  0  0  0  0  0  0  0  0  0  0
    0.0477    0.5744   -2.1541 H   0  0  0  0  0  0  0  0  0  0  0  0
    1.6608    0.1008   -1.6260 H   0  0  0  0  0  0  0  0  0  0  0  0
    0.5147   -1.4604   -2.5192 C   0  0  0  0  0  0  0  0  0  0  0  0
    0.8494   -2.5375   -2.0647 O   0  0  0  0  0  0  0  0  0  0  0  0
    0.0628   -1.3023   -3.7820 O   0  0  0  0  0  0  0  0  0  0  0  0
    0.0869   -2.1912   -4.1689 H   0  0  0  0  0  0  0  0  0  0  0  0
   -0.0349    1.0641    0.3978 C   0  0  0  0  0  0  0  0  0  0  0  0
   -0.9628    1.7901    0.0612 O   0  0  0  0  0  0  0  0  0  0  0  0
    0.9106    1.5318    1.2914 N   0  0  0  0  0  0  0  0  0  0  0  0
    1.6188    0.8765    1.6115 H   0  0  0  0  0  0  0  0  0  0  0  0
    0.8288    2.8425    1.9248 C   0  0  0  0  0  0  0  0  0  0  0  0
   -0.0844    2.9224    2.5239 H   0  0  0  0  0  0  0  0  0  0  0  0
    1.6894    2.9991    2.5824 H   0  0  0  0  0  0  0  0  0  0  0  0
    0.8246    3.6345    1.1684 H   0  0  0  0  0  0  0  0  0  0  0  0
  1  2  1  0  0  0  0
  2  3  1  0  0  0  0
  2  4  1  0  0  0  0
  2  5  1  0  0  0  0
  5  6  2  0  0  0  0
  5  7  1  0  0  0  0
  7  8  1  0  0  0  0
  7  9  1  0  0  0  0
  9 10  1  0  0  0  0
  9 11  1  0  0  0  0
  9 18  1  0  0  0  0
 11 12  1  0  0  0  0
 11 13  1  0  0  0  0
 11 14  1  0  0  0  0
 14 15  2  0  0  0  0
 14 16  1  0  0  0  0
 16 17  1  0  0  0  0
 18 19  2  0  0  0  0
 18 20  1  0  0  0  0
 20 21  1  0  0  0  0
 20 22  1  0  0  0  0
 22 23  1  0  0  0  0
 22 24  1  0  0  0  0
 22 25  1  0  0  0  0
M  END
$$$$

  -OEChem-03222214023D

 25 24  0     1  0  0  0  0  0999 V2000
   -2.7434   -4.0350    0.4418 H   0  0  0  0  0  0  0  0  0  0  0  0
   -2.7691   -3.0054    0.0744 C   0  0  0  0  0  0  0  0  0  0  0  0
   -3.5392   -2.4544    0.6193 H   0  0  0  0  0  0  0  0  0  0  0  0
   -3.0207   -3.0188   -0.9887 H   0  0  0  0  0  0  0  0  0  0  0  0
   -1.4183   -2.3458    0.2764 C   0  0  0  0  0  0  0  0  0  0  0  0
   -0.5391   -2.9342    0.8863 O   0  0  0  0  0  0  0  0  0  0  0  0
   -1.2218   -1.0446   -0.1450 N   0  0  0  0  0  0  0  0  0  0  0  0
   -2.0219   -0.5545   -0.5395 H   0  0  0  0  0  0  0  0  0  0  0  0
    0.0817   -0.3618   -0.1863 C   0  0  1  0  0  0  0  0  0  0  0  0
    0.8125   -0.9236    0.4055 H   0  0  0  0  0  0  0  0  0  0  0  0
    0.6130   -0.2283   -1.6365 C   0  0  0  0  0  0  0  0  0  0  0  0
    0.0497    0.5648   -2.1376 H   0  0  0  0  0  0  0  0  0  0  0  0
    1.6586    0.0864   -1.6053 H   0  0  0  0  0  0  0  0  0  0  0  0
    0.5232   -1.4557   -2.5399 C   0  0  0  0  0  0  0  0  0  0  0  0
    0.5838   -2.5757   -2.0706 O   0  0  0  0  0  0  0  0  0  0  0  0
    0.3951   -1.2220   -3.8636 O   0  0  0  0  0  0  0  0  0  0  0  0
    0.3694   -2.1013   -4.2718 H   0  0  0  0  0  0  0  0  0  0  0  0
   -0.0351    1.0580    0.3994 C   0  0  0  0  0  0  0  0  0  0  0  0
   -0.9546    1.7894    0.0508 O   0  0  0  0  0  0  0  0  0  0  0  0
    0.9146    1.5296    1.2866 N   0  0  0  0  0  0  0  0  0  0  0  0
    1.6088    0.8685    1.6247 H   0  0  0  0  0  0  0  0  0  0  0  0
    0.8380    2.8460    1.9088 C   0  0  0  0  0  0  0  0  0  0  0  0
   -0.0691    2.9305    2.5165 H   0  0  0  0  0  0  0  0  0  0  0  0
    1.7052    3.0096    2.5559 H   0  0  0  0  0  0  0  0  0  0  0  0
    0.8253    3.6312    1.1455 H   0  0  0  0  0  0  0  0  0  0  0  0
  1  2  1  0  0  0  0
  2  3  1  0  0  0  0
  2  4  1  0  0  0  0
  2  5  1  0  0  0  0
  5  6  2  0  0  0  0
  5  7  1  0  0  0  0
  7  8  1  0  0  0  0
  7  9  1  0  0  0  0
  9 10  1  0  0  0  0
  9 11  1  0  0  0  0
  9 18  1  0  0  0  0
 11 12  1  0  0  0  0
 11 13  1  0  0  0  0
 11 14  1  0  0  0  0
 14 15  2  0  0  0  0
 14 16  1  0  0  0  0
 16 17  1  0  0  0  0
 18 19  2  0  0  0  0
 18 20  1  0  0  0  0
 20 21  1  0  0  0  0
 20 22  1  0  0  0  0
 22 23  1  0  0  0  0
 22 24  1  0  0  0  0
 22 25  1  0  0  0  0
M  END
$$$$

  -OEChem-03222214023D

 25 24  0     1  0  0  0  0  0999 V2000
   -2.7585   -4.0350    0.4750 H   0  0  0  0  0  0  0  0  0  0  0  0
   -2.7822   -3.0107    0.0929 C   0  0  0  0  0  0  0  0  0  0  0  0
   -3.5618   -2.4547    0.6188 H   0  0  0  0  0  0  0  0  0  0  0  0
   -3.0178   -3.0397   -0.9735 H   0  0  0  0  0  0  0  0  0  0  0  0
   -1.4361   -2.3441    0.3038 C   0  0  0  0  0  0  0  0  0  0  0  0
   -0.5590   -2.9256    0.9247 O   0  0  0  0  0  0  0  0  0  0  0  0
   -1.2371   -1.0463   -0.1278 N   0  0  0  0  0  0  0  0  0  0  0  0
   -2.0294   -0.5683   -0.5511 H   0  0  0  0  0  0  0  0  0  0  0  0
    0.0710   -0.3733   -0.1781 C   0  0  1  0  0  0  0  0  0  0  0  0
    0.7972   -0.9349    0.4190 H   0  0  0  0  0  0  0  0  0  0  0  0
    0.6161   -0.2426   -1.6259 C   0  0  0  0  0  0  0  0  0  0  0  0
    0.0616    0.5558   -2.1279 H   0  0  0  0  0  0  0  0  0  0  0  0
    1.6617    0.0705   -1.5775 H   0  0  0  0  0  0  0  0  0  0  0  0
    0.5426   -1.4504   -2.5596 C   0  0  0  0  0  0  0  0  0  0  0  0
    0.3259   -2.5699   -2.1379 O   0  0  0  0  0  0  0  0  0  0  0  0
    0.7492   -1.1913   -3.8681 O   0  0  0  0  0  0  0  0  0  0  0  0
    0.6810   -2.0527   -4.3083 H   0  0  0  0  0  0  0  0  0  0  0  0
   -0.0401    1.0506    0.4002 C   0  0  0  0  0  0  0  0  0  0  0  0
   -0.9527    1.7866    0.0434 O   0  0  0  0  0  0  0  0  0  0  0  0
    0.9130    1.5237    1.2829 N   0  0  0  0  0  0  0  0  0  0  0  0
    1.6024    0.8610    1.6275 H   0  0  0  0  0  0  0  0  0  0  0  0
    0.8459    2.8464    1.8925 C   0  0  0  0  0  0  0  0  0  0  0  0
   -0.0600    2.9424    2.5000 H   0  0  0  0  0  0  0  0  0  0  0  0
    1.7147    3.0107    2.5370 H   0  0  0  0  0  0  0  0  0  0  0  0
    0.8377    3.6241    1.1215 H   0  0  0  0  0  0  0  0  0  0  0  0
  1  2  1  0  0  0  0
  2  3  1  0  0  0  0
  2  4  1  0  0  0  0
  2  5  1  0  0  0  0
  5  6  2  0  0  0  0
  5  7  1  0  0  0  0
  7  8  1  0  0  0  0
  7  9  1  0  0  0  0
  9 10  1  0  0  0  0
  9 11  1  0  0  0  0
  9 18  1  0  0  0  0
 11 12  1  0  0  0  0
 11 13  1  0  0  0  0
 11 14  1  0  0  0  0
 14 15  2  0  0  0  0
 14 16  1  0  0  0  0
 16 17  1  0  0  0  0
 18 19  2  0  0  0  0
 18 20  1  0  0  0  0
 20 21  1  0  0  0  0
 20 22  1  0  0  0  0
 22 23  1  0  0  0  0
 22 24  1  0  0  0  0
 22 25  1  0  0  0  0
M  END
$$$$

  -OEChem-03222214023D

 25 24  0     1  0  0  0  0  0999 V2000
   -2.7758   -4.0292    0.5041 H   0  0  0  0  0  0  0  0  0  0  0  0
   -2.7939   -3.0109    0.1063 C   0  0  0  0  0  0  0  0  0  0  0  0
   -3.5760   -2.4449    0.6174 H   0  0  0  0  0  0  0  0  0  0  0  0
   -3.0214   -3.0553   -0.9615 H   0  0  0  0  0  0  0  0  0  0  0  0
   -1.4478   -2.3442    0.3170 C   0  0  0  0  0  0  0  0  0  0  0  0
   -0.5656   -2.9292    0.9281 O   0  0  0  0  0  0  0  0  0  0  0  0
   -1.2491   -1.0472   -0.1175 N   0  0  0  0  0  0  0  0  0  0  0  0
   -2.0370   -0.5777   -0.5577 H   0  0  0  0  0  0  0  0  0  0  0  0
    0.0610   -0.3795   -0.1741 C   0  0  1  0  0  0  0  0  0  0  0  0
    0.7841   -0.9411    0.4268 H   0  0  0  0  0  0  0  0  0  0  0  0
    0.6184   -0.2510   -1.6189 C   0  0  0  0  0  0  0  0  0  0  0  0
    0.0718    0.5512   -2.1234 H   0  0  0  0  0  0  0  0  0  0  0  0
    1.6637    0.0612   -1.5558 H   0  0  0  0  0  0  0  0  0  0  0  0
    0.5594   -1.4473   -2.5713 C   0  0  0  0  0  0  0  0  0  0  0  0
    0.0857   -2.5176   -2.2413 O   0  0  0  0  0  0  0  0  0  0  0  0
    1.0771   -1.2287   -3.7987 O   0  0  0  0  0  0  0  0  0  0  0  0
    0.9715   -2.0704   -4.2687 H   0  0  0  0  0  0  0  0  0  0  0  0
   -0.0455    1.0454    0.4035 C   0  0  0  0  0  0  0  0  0  0  0  0
   -0.9530    1.7858    0.0423 O   0  0  0  0  0  0  0  0  0  0  0  0
    0.9111    1.5182    1.2829 N   0  0  0  0  0  0  0  0  0  0  0  0
    1.5990    0.8549    1.6291 H   0  0  0  0  0  0  0  0  0  0  0  0
    0.8529    2.8458    1.8834 C   0  0  0  0  0  0  0  0  0  0  0  0
   -0.0490    2.9505    2.4957 H   0  0  0  0  0  0  0  0  0  0  0  0
    1.7262    3.0114    2.5214 H   0  0  0  0  0  0  0  0  0  0  0  0
    0.8430    3.6180    1.1068 H   0  0  0  0  0  0  0  0  0  0  0  0
  1  2  1  0  0  0  0
  2  3  1  0  0  0  0
  2  4  1  0  0  0  0
  2  5  1  0  0  0  0
  5  6  2  0  0  0  0
  5  7  1  0  0  0  0
  7  8  1  0  0  0  0
  7  9  1  0  0  0  0
  9 10  1  0  0  0  0
  9 11  1  0  0  0  0
  9 18  1  0  0  0  0
 11 12  1  0  0  0  0
 11 13  1  0  0  0  0
 11 14  1  0  0  0  0
 14 15  2  0  0  0  0
 14 16  1  0  0  0  0
 16 17  1  0  0  0  0
 18 19  2  0  0  0  0
 18 20  1  0  0  0  0
 20 21  1  0  0  0  0
 20 22  1  0  0  0  0
 22 23  1  0  0  0  0
 22 24  1  0  0  0  0
 22 25  1  0  0  0  0
M  END
$$$$

  -OEChem-03222214023D

 25 24  0     1  0  0  0  0  0999 V2000
   -2.7811   -4.0224    0.5123 H   0  0  0  0  0  0  0  0  0  0  0  0
   -2.7997   -3.0036    0.1158 C   0  0  0  0  0  0  0  0  0  0  0  0
   -3.5756   -2.4356    0.6345 H   0  0  0  0  0  0  0  0  0  0  0  0
   -3.0366   -3.0457   -0.9501 H   0  0  0  0  0  0  0  0  0  0  0  0
   -1.4498   -2.3410    0.3141 C   0  0  0  0  0  0  0  0  0  0  0  0
   -0.5564   -2.9354    0.9000 O   0  0  0  0  0  0  0  0  0  0  0  0
   -1.2530   -1.0431   -0.1178 N   0  0  0  0  0  0  0  0  0  0  0  0
   -2.0402   -0.5766   -0.5625 H   0  0  0  0  0  0  0  0  0  0  0  0
    0.0573   -0.3774   -0.1780 C   0  0  1  0  0  0  0  0  0  0  0  0
    0.7788   -0.9382    0.4253 H   0  0  0  0  0  0  0  0  0  0  0  0
    0.6233   -0.2530   -1.6202 C   0  0  0  0  0  0  0  0  0  0  0  0
    0.0829    0.5496   -2.1302 H   0  0  0  0  0  0  0  0  0  0  0  0
    1.6684    0.0581   -1.5477 H   0  0  0  0  0  0  0  0  0  0  0  0
    0.5713   -1.4500   -2.5744 C   0  0  0  0  0  0  0  0  0  0  0  0
   -0.1274   -2.4234   -2.3631 O   0  0  0  0  0  0  0  0  0  0  0  0
    1.3557   -1.3430   -3.6679 O   0  0  0  0  0  0  0  0  0  0  0  0
    1.2157   -2.1682   -4.1579 H   0  0  0  0  0  0  0  0  0  0  0  0
   -0.0479    1.0458    0.4038 C   0  0  0  0  0  0  0  0  0  0  0  0
   -0.9556    1.7872    0.0457 O   0  0  0  0  0  0  0  0  0  0  0  0
    0.9107    1.5175    1.2815 N   0  0  0  0  0  0  0  0  0  0  0  0
    1.5995    0.8538    1.6250 H   0  0  0  0  0  0  0  0  0  0  0  0
    0.8502    2.8423    1.8880 C   0  0  0  0  0  0  0  0  0  0  0  0
   -0.0570    2.9458    2.4928 H   0  0  0  0  0  0  0  0  0  0  0  0
    1.7180    3.0029    2.5350 H   0  0  0  0  0  0  0  0  0  0  0  0
    0.8489    3.6181    1.1151 H   0  0  0  0  0  0  0  0  0  0  0  0
  1  2  1  0  0  0  0
  2  3  1  0  0  0  0
  2  4  1  0  0  0  0
  2  5  1  0  0  0  0
  5  6  2  0  0  0  0
  5  7  1  0  0  0  0
  7  8  1  0  0  0  0
  7  9  1  0  0  0  0
  9 10  1  0  0  0  0
  9 11  1  0  0  0  0
  9 18  1  0  0  0  0
 11 12  1  0  0  0  0
 11 13  1  0  0  0  0
 11 14  1  0  0  0  0
 14 15  2  0  0  0  0
 14 16  1  0  0  0  0
 16 17  1  0  0  0  0
 18 19  2  0  0  0  0
 18 20  1  0  0  0  0
 20 21  1  0  0  0  0
 20 22  1  0  0  0  0
 22 23  1  0  0  0  0
 22 24  1  0  0  0  0
 22 25  1  0  0  0  0
M  END
$$$$

  -OEChem-03222214023D

 25 24  0     1  0  0  0  0  0999 V2000
   -2.7725   -4.0245    0.4940 H   0  0  0  0  0  0  0  0  0  0  0  0
   -2.7975   -3.0018    0.1079 C   0  0  0  0  0  0  0  0  0  0  0  0
   -3.5675   -2.4402    0.6419 H   0  0  0  0  0  0  0  0  0  0  0  0
   -3.0477   -3.0336   -0.9554 H   0  0  0  0  0  0  0  0  0  0  0  0
   -1.4462   -2.3392    0.2961 C   0  0  0  0  0  0  0  0  0  0  0  0
   -0.5391   -2.9444    0.8490 O   0  0  0  0  0  0  0  0  0  0  0  0
   -1.2560   -1.0372   -0.1255 N   0  0  0  0  0  0  0  0  0  0  0  0
   -2.0460   -0.5716   -0.5662 H   0  0  0  0  0  0  0  0  0  0  0  0
    0.0506   -0.3655   -0.1831 C   0  0  1  0  0  0  0  0  0  0  0  0
    0.7714   -0.9259    0.4211 H   0  0  0  0  0  0  0  0  0  0  0  0
    0.6234   -0.2442   -1.6216 C   0  0  0  0  0  0  0  0  0  0  0  0
    0.0837    0.5536   -2.1399 H   0  0  0  0  0  0  0  0  0  0  0  0
    1.6670    0.0713   -1.5442 H   0  0  0  0  0  0  0  0  0  0  0  0
    0.5758   -1.4539   -2.5602 C   0  0  0  0  0  0  0  0  0  0  0  0
   -0.3024   -2.2942   -2.4885 O   0  0  0  0  0  0  0  0  0  0  0  0
    1.5699   -1.5170   -3.4718 O   0  0  0  0  0  0  0  0  0  0  0  0
    1.4001   -2.3309   -3.9712 H   0  0  0  0  0  0  0  0  0  0  0  0
   -0.0533    1.0535    0.4079 C   0  0  0  0  0  0  0  0  0  0  0  0
   -0.9608    1.7976    0.0559 O   0  0  0  0  0  0  0  0  0  0  0  0
    0.9086    1.5193    1.2853 N   0  0  0  0  0  0  0  0  0  0  0  0
    1.6032    0.8556    1.6168 H   0  0  0  0  0  0  0  0  0  0  0  0
    0.8521    2.8412    1.8979 C   0  0  0  0  0  0  0  0  0  0  0  0
   -0.0543    2.9440    2.5040 H   0  0  0  0  0  0  0  0  0  0  0  0
    1.7209    2.9960    2.5450 H   0  0  0  0  0  0  0  0  0  0  0  0
    0.8519    3.6205    1.1284 H   0  0  0  0  0  0  0  0  0  0  0  0
  1  2  1  0  0  0  0
  2  3  1  0  0  0  0
  2  4  1  0  0  0  0
  2  5  1  0  0  0  0
  5  6  2  0  0  0  0
  5  7  1  0  0  0  0
  7  8  1  0  0  0  0
  7  9  1  0  0  0  0
  9 10  1  0  0  0  0
  9 11  1  0  0  0  0
  9 18  1  0  0  0  0
 11 12  1  0  0  0  0
 11 13  1  0  0  0  0
 11 14  1  0  0  0  0
 14 15  2  0  0  0  0
 14 16  1  0  0  0  0
 16 17  1  0  0  0  0
 18 19  2  0  0  0  0
 18 20  1  0  0  0  0
 20 21  1  0  0  0  0
 20 22  1  0  0  0  0
 22 23  1  0  0  0  0
 22 24  1  0  0  0  0
 22 25  1  0  0  0  0
M  END
$$$$

  -OEChem-03222214023D

 25 24  0     1  0  0  0  0  0999 V2000
   -2.7511   -4.0341    0.4482 H   0  0  0  0  0  0  0  0  0  0  0  0
   -2.7880   -2.9996    0.0960 C   0  0  0  0  0  0  0  0  0  0  0  0
   -3.5401   -2.4558    0.6723 H   0  0  0  0  0  0  0  0  0  0  0  0
   -3.0729   -2.9975   -0.9591 H   0  0  0  0  0  0  0  0  0  0  0  0
   -1.4317   -2.3416    0.2615 C   0  0  0  0  0  0  0  0  0  0  0  0
   -0.5079   -2.9607    0.7696 O   0  0  0  0  0  0  0  0  0  0  0  0
   -1.2500   -1.0338   -0.1439 N   0  0  0  0  0  0  0  0  0  0  0  0
   -2.0464   -0.5628   -0.5682 H   0  0  0  0  0  0  0  0  0  0  0  0
    0.0503   -0.3503   -0.1917 C   0  0  1  0  0  0  0  0  0  0  0  0
    0.7722   -0.9102    0.4120 H   0  0  0  0  0  0  0  0  0  0  0  0
    0.6250   -0.2288   -1.6271 C   0  0  0  0  0  0  0  0  0  0  0  0
    0.0791    0.5590   -2.1538 H   0  0  0  0  0  0  0  0  0  0  0  0
    1.6667    0.0942   -1.5540 H   0  0  0  0  0  0  0  0  0  0  0  0
    0.5751   -1.4590   -2.5367 C   0  0  0  0  0  0  0  0  0  0  0  0
   -0.4299   -2.1427   -2.6246 O   0  0  0  0  0  0  0  0  0  0  0  0
    1.7058   -1.7307   -3.2231 O   0  0  0  0  0  0  0  0  0  0  0  0
    1.5081   -2.5393   -3.7207 H   0  0  0  0  0  0  0  0  0  0  0  0
   -0.0590    1.0620    0.4130 C   0  0  0  0  0  0  0  0  0  0  0  0
   -0.9705    1.8050    0.0696 O   0  0  0  0  0  0  0  0  0  0  0  0
    0.9010    1.5231    1.2948 N   0  0  0  0  0  0  0  0  0  0  0  0
    1.6033    0.8617    1.6145 H   0  0  0  0  0  0  0  0  0  0  0  0
    0.8484    2.8438    1.9103 C   0  0  0  0  0  0  0  0  0  0  0  0
   -0.0617    2.9514    2.5097 H   0  0  0  0  0  0  0  0  0  0  0  0
    1.7132    2.9914    2.5643 H   0  0  0  0  0  0  0  0  0  0  0  0
    0.8593    3.6249    1.1428 H   0  0  0  0  0  0  0  0  0  0  0  0
  1  2  1  0  0  0  0
  2  3  1  0  0  0  0
  2  4  1  0  0  0  0
  2  5  1  0  0  0  0
  5  6  2  0  0  0  0
  5  7  1  0  0  0  0
  7  8  1  0  0  0  0
  7  9  1  0  0  0  0
  9 10  1  0  0  0  0
  9 11  1  0  0  0  0
  9 18  1  0  0  0  0
 11 12  1  0  0  0  0
 11 13  1  0  0  0  0
 11 14  1  0  0  0  0
 14 15  2  0  0  0  0
 14 16  1  0  0  0  0
 16 17  1  0  0  0  0
 18 19  2  0  0  0  0
 18 20  1  0  0  0  0
 20 21  1  0  0  0  0
 20 22  1  0  0  0  0
 22 23  1  0  0  0  0
 22 24  1  0  0  0  0
 22 25  1  0  0  0  0
M  END
$$$$

  -OEChem-03222214023D

 25 24  0     1  0  0  0  0  0999 V2000
   -2.7286   -4.0373    0.4112 H   0  0  0  0  0  0  0  0  0  0  0  0
   -2.7719   -2.9971    0.0766 C   0  0  0  0  0  0  0  0  0  0  0  0
   -3.5120   -2.4628    0.6769 H   0  0  0  0  0  0  0  0  0  0  0  0
   -3.0784   -2.9772   -0.9723 H   0  0  0  0  0  0  0  0  0  0  0  0
   -1.4120   -2.3424    0.2257 C   0  0  0  0  0  0  0  0  0  0  0  0
   -0.4759   -2.9735    0.6941 O   0  0  0  0  0  0  0  0  0  0  0  0
   -1.2351   -1.0301   -0.1655 N   0  0  0  0  0  0  0  0  0  0  0  0
   -2.0398   -0.5495   -0.5632 H   0  0  0  0  0  0  0  0  0  0  0  0
    0.0591   -0.3340   -0.2011 C   0  0  1  0  0  0  0  0  0  0  0  0
    0.7827   -0.8928    0.4015 H   0  0  0  0  0  0  0  0  0  0  0  0
    0.6290   -0.2147   -1.6354 C   0  0  0  0  0  0  0  0  0  0  0  0
    0.0744    0.5612   -2.1711 H   0  0  0  0  0  0  0  0  0  0  0  0
    1.6702    0.1125   -1.5756 H   0  0  0  0  0  0  0  0  0  0  0  0
    0.5675   -1.4713   -2.5028 C   0  0  0  0  0  0  0  0  0  0  0  0
   -0.5051   -1.9890   -2.7654 O   0  0  0  0  0  0  0  0  0  0  0  0
    1.7473   -1.9602   -2.9419 O   0  0  0  0  0  0  0  0  0  0  0  0
    1.5174   -2.7600   -3.4398 H   0  0  0  0  0  0  0  0  0  0  0  0
   -0.0568    1.0731    0.4136 C   0  0  0  0  0  0  0  0  0  0  0  0
   -0.9761    1.8108    0.0806 O   0  0  0  0  0  0  0  0  0  0  0  0
    0.8989    1.5326    1.3009 N   0  0  0  0  0  0  0  0  0  0  0  0
    1.6127    0.8771    1.6067 H   0  0  0  0  0  0  0  0  0  0  0  0
    0.8380    2.8479    1.9273 C   0  0  0  0  0  0  0  0  0  0  0  0
   -0.0752    2.9467    2.5236 H   0  0  0  0  0  0  0  0  0  0  0  0
    1.6993    2.9931    2.5863 H   0  0  0  0  0  0  0  0  0  0  0  0
    0.8495    3.6357    1.1667 H   0  0  0  0  0  0  0  0  0  0  0  0
  1  2  1  0  0  0  0
  2  3  1  0  0  0  0
  2  4  1  0  0  0  0
  2  5  1  0  0  0  0
  5  6  2  0  0  0  0
  5  7  1  0  0  0  0
  7  8  1  0  0  0  0
  7  9  1  0  0  0  0
  9 10  1  0  0  0  0
  9 11  1  0  0  0  0
  9 18  1  0  0  0  0
 11 12  1  0  0  0  0
 11 13  1  0  0  0  0
 11 14  1  0  0  0  0
 14 15  2  0  0  0  0
 14 16  1  0  0  0  0
 16 17  1  0  0  0  0
 18 19  2  0  0  0  0
 18 20  1  0  0  0  0
 20 21  1  0  0  0  0
 20 22  1  0  0  0  0
 22 23  1  0  0  0  0
 22 24  1  0  0  0  0
 22 25  1  0  0  0  0
M  END
$$$$

  -OEChem-03222214023D

 25 24  0     1  0  0  0  0  0999 V2000
   -2.7106   -4.0358    0.3789 H   0  0  0  0  0  0  0  0  0  0  0  0
   -2.7552   -2.9915    0.0580 C   0  0  0  0  0  0  0  0  0  0  0  0
   -3.4798   -2.4609    0.6800 H   0  0  0  0  0  0  0  0  0  0  0  0
   -3.0836   -2.9568   -0.9840 H   0  0  0  0  0  0  0  0  0  0  0  0
   -1.3892   -2.3455    0.1869 C   0  0  0  0  0  0  0  0  0  0  0  0
   -0.4431   -2.9897    0.6144 O   0  0  0  0  0  0  0  0  0  0  0  0
   -1.2159   -1.0291   -0.1898 N   0  0  0  0  0  0  0  0  0  0  0  0
   -2.0307   -0.5356   -0.5500 H   0  0  0  0  0  0  0  0  0  0  0  0
    0.0716   -0.3195   -0.2115 C   0  0  1  0  0  0  0  0  0  0  0  0
    0.7977   -0.8775    0.3890 H   0  0  0  0  0  0  0  0  0  0  0  0
    0.6320   -0.2026   -1.6463 C   0  0  0  0  0  0  0  0  0  0  0  0
    0.0696    0.5627   -2.1894 H   0  0  0  0  0  0  0  0  0  0  0  0
    1.6740    0.1245   -1.6036 H   0  0  0  0  0  0  0  0  0  0  0  0
    0.5553   -1.4865   -2.4657 C   0  0  0  0  0  0  0  0  0  0  0  0
   -0.5177   -1.8502   -2.9183 O   0  0  0  0  0  0  0  0  0  0  0  0
    1.7048   -2.1728   -2.6417 O   0  0  0  0  0  0  0  0  0  0  0  0
    1.4508   -2.9683   -3.1343 H   0  0  0  0  0  0  0  0  0  0  0  0
   -0.0534    1.0820    0.4131 C   0  0  0  0  0  0  0  0  0  0  0  0
   -0.9838    1.8113    0.0929 O   0  0  0  0  0  0  0  0  0  0  0  0
    0.8963    1.5405    1.3072 N   0  0  0  0  0  0  0  0  0  0  0  0
    1.6235    0.8928    1.5979 H   0  0  0  0  0  0  0  0  0  0  0  0
    0.8267    2.8516    1.9414 C   0  0  0  0  0  0  0  0  0  0  0  0
   -0.0872    2.9410    2.5382 H   0  0  0  0  0  0  0  0  0  0  0  0
    1.6868    2.9991    2.6015 H   0  0  0  0  0  0  0  0  0  0  0  0
    0.8328    3.6440    1.1855 H   0  0  0  0  0  0  0  0  0  0  0  0
  1  2  1  0  0  0  0
  2  3  1  0  0  0  0
  2  4  1  0  0  0  0
  2  5  1  0  0  0  0
  5  6  2  0  0  0  0
  5  7  1  0  0  0  0
  7  8  1  0  0  0  0
  7  9  1  0  0  0  0
  9 10  1  0  0  0  0
  9 11  1  0  0  0  0
  9 18  1  0  0  0  0
 11 12  1  0  0  0  0
 11 13  1  0  0  0  0
 11 14  1  0  0  0  0
 14 15  2  0  0  0  0
 14 16  1  0  0  0  0
 16 17  1  0  0  0  0
 18 19  2  0  0  0  0
 18 20  1  0  0  0  0
 20 21  1  0  0  0  0
 20 22  1  0  0  0  0
 22 23  1  0  0  0  0
 22 24  1  0  0  0  0
 22 25  1  0  0  0  0
M  END
$$$$

  -OEChem-03222214023D

 25 24  0     1  0  0  0  0  0999 V2000
   -2.7107   -4.0259    0.3781 H   0  0  0  0  0  0  0  0  0  0  0  0
   -2.7531   -2.9793    0.0643 C   0  0  0  0  0  0  0  0  0  0  0  0
   -3.4532   -2.4442    0.7102 H   0  0  0  0  0  0  0  0  0  0  0  0
   -3.1118   -2.9348   -0.9672 H   0  0  0  0  0  0  0  0  0  0  0  0
   -1.3767   -2.3492    0.1575 C   0  0  0  0  0  0  0  0  0  0  0  0
   -0.4260   -3.0074    0.5505 O   0  0  0  0  0  0  0  0  0  0  0  0
   -1.2000   -1.0318   -0.2136 N   0  0  0  0  0  0  0  0  0  0  0  0
   -2.0242   -0.5188   -0.5231 H   0  0  0  0  0  0  0  0  0  0  0  0
    0.0848   -0.3150   -0.2230 C   0  0  1  0  0  0  0  0  0  0  0  0
    0.8103   -0.8730    0.3787 H   0  0  0  0  0  0  0  0  0  0  0  0
    0.6418   -0.1998   -1.6565 C   0  0  0  0  0  0  0  0  0  0  0  0
    0.0780    0.5611   -2.2048 H   0  0  0  0  0  0  0  0  0  0  0  0
    1.6852    0.1227   -1.6222 H   0  0  0  0  0  0  0  0  0  0  0  0
    0.5544   -1.5011   -2.4420 C   0  0  0  0  0  0  0  0  0  0  0  0
   -0.4450   -1.7318   -3.1018 O   0  0  0  0  0  0  0  0  0  0  0  0
    1.6091   -2.3411   -2.3687 O   0  0  0  0  0  0  0  0  0  0  0  0
    1.3482   -3.1227   -2.8792 H   0  0  0  0  0  0  0  0  0  0  0  0
   -0.0481    1.0850    0.4026 C   0  0  0  0  0  0  0  0  0  0  0  0
   -0.9880    1.8050    0.0895 O   0  0  0  0  0  0  0  0  0  0  0  0
    0.8939    1.5448    1.3041 N   0  0  0  0  0  0  0  0  0  0  0  0
    1.6292    0.9034    1.5882 H   0  0  0  0  0  0  0  0  0  0  0  0
    0.8096    2.8492    1.9505 C   0  0  0  0  0  0  0  0  0  0  0  0
   -0.1120    2.9279    2.5368 H   0  0  0  0  0  0  0  0  0  0  0  0
    1.6607    2.9941    2.6228 H   0  0  0  0  0  0  0  0  0  0  0  0
    0.8208    3.6495    1.2030 H   0  0  0  0  0  0  0  0  0  0  0  0
  1  2  1  0  0  0  0
  2  3  1  0  0  0  0
  2  4  1  0  0  0  0
  2  5  1  0  0  0  0
  5  6  2  0  0  0  0
  5  7  1  0  0  0  0
  7  8  1  0  0  0  0
  7  9  1  0  0  0  0
  9 10  1  0  0  0  0
  9 11  1  0  0  0  0
  9 18  1  0  0  0  0
 11 12  1  0  0  0  0
 11 13  1  0  0  0  0
 11 14  1  0  0  0  0
 14 15  2  0  0  0  0
 14 16  1  0  0  0  0
 16 17  1  0  0  0  0
 18 19  2  0  0  0  0
 18 20  1  0  0  0  0
 20 21  1  0  0  0  0
 20 22  1  0  0  0  0
 22 23  1  0  0  0  0
 22 24  1  0  0  0  0
 22 25  1  0  0  0  0
M  END
$$$$

  -OEChem-03222214023D

 25 24  0     1  0  0  0  0  0999 V2000
   -2.7319   -4.0149    0.3932 H   0  0  0  0  0  0  0  0  0  0  0  0
   -2.7657   -2.9676    0.0804 C   0  0  0  0  0  0  0  0  0  0  0  0
   -3.4495   -2.4251    0.7378 H   0  0  0  0  0  0  0  0  0  0  0  0
   -3.1403   -2.9185   -0.9452 H   0  0  0  0  0  0  0  0  0  0  0  0
   -1.3803   -2.3541    0.1532 C   0  0  0  0  0  0  0  0  0  0  0  0
   -0.4349   -3.0229    0.5395 O   0  0  0  0  0  0  0  0  0  0  0  0
   -1.1934   -1.0386   -0.2200 N   0  0  0  0  0  0  0  0  0  0  0  0
   -2.0204   -0.5093   -0.4931 H   0  0  0  0  0  0  0  0  0  0  0  0
    0.0931   -0.3229   -0.2223 C   0  0  1  0  0  0  0  0  0  0  0  0
    0.8158   -0.8818    0.3821 H   0  0  0  0  0  0  0  0  0  0  0  0
    0.6500   -0.2061   -1.6554 C   0  0  0  0  0  0  0  0  0  0  0  0
    0.0885    0.5579   -2.2022 H   0  0  0  0  0  0  0  0  0  0  0  0
    1.6951    0.1103   -1.6219 H   0  0  0  0  0  0  0  0  0  0  0  0
    0.5576   -1.5092   -2.4351 C   0  0  0  0  0  0  0  0  0  0  0  0
   -0.2967   -1.6243   -3.2968 O   0  0  0  0  0  0  0  0  0  0  0  0
    1.4732   -2.4626   -2.1603 O   0  0  0  0  0  0  0  0  0  0  0  0
    1.2325   -3.2195   -2.7154 H   0  0  0  0  0  0  0  0  0  0  0  0
   -0.0453    1.0785    0.3986 C   0  0  0  0  0  0  0  0  0  0  0  0
   -0.9905    1.7913    0.0847 O   0  0  0  0  0  0  0  0  0  0  0  0
    0.8889    1.5420    1.3062 N   0  0  0  0  0  0  0  0  0  0  0  0
    1.6284    0.9056    1.5913 H   0  0  0  0  0  0  0  0  0  0  0  0
    0.7981    2.8488    1.9464 C   0  0  0  0  0  0  0  0  0  0  0  0
   -0.1274    2.9281    2.5265 H   0  0  0  0  0  0  0  0  0  0  0  0
    1.6446    2.9985    2.6235 H   0  0  0  0  0  0  0  0  0  0  0  0
    0.8121    3.6450    1.1946 H   0  0  0  0  0  0  0  0  0  0  0  0
  1  2  1  0  0  0  0
  2  3  1  0  0  0  0
  2  4  1  0  0  0  0
  2  5  1  0  0  0  0
  5  6  2  0  0  0  0
  5  7  1  0  0  0  0
  7  8  1  0  0  0  0
  7  9  1  0  0  0  0
  9 10  1  0  0  0  0
  9 11  1  0  0  0  0
  9 18  1  0  0  0  0
 11 12  1  0  0  0  0
 11 13  1  0  0  0  0
 11 14  1  0  0  0  0
 14 15  2  0  0  0  0
 14 16  1  0  0  0  0
 16 17  1  0  0  0  0
 18 19  2  0  0  0  0
 18 20  1  0  0  0  0
 20 21  1  0  0  0  0
 20 22  1  0  0  0  0
 22 23  1  0  0  0  0
 22 24  1  0  0  0  0
 22 25  1  0  0  0  0
M  END
$$$$

  -OEChem-03222214023D

 25 24  0     1  0  0  0  0  0999 V2000
   -2.7616   -4.0045    0.4192 H   0  0  0  0  0  0  0  0  0  0  0  0
   -2.7859   -2.9585    0.1012 C   0  0  0  0  0  0  0  0  0  0  0  0
   -3.4659   -2.4067    0.7547 H   0  0  0  0  0  0  0  0  0  0  0  0
   -3.1585   -2.9112   -0.9251 H   0  0  0  0  0  0  0  0  0  0  0  0
   -1.3952   -2.3571    0.1740 C   0  0  0  0  0  0  0  0  0  0  0  0
   -0.4635   -3.0255    0.5911 O   0  0  0  0  0  0  0  0  0  0  0  0
   -1.1968   -1.0461   -0.2100 N   0  0  0  0  0  0  0  0  0  0  0  0
   -2.0214   -0.5095   -0.4763 H   0  0  0  0  0  0  0  0  0  0  0  0
    0.0935   -0.3361   -0.2143 C   0  0  1  0  0  0  0  0  0  0  0  0
    0.8144   -0.8953    0.3923 H   0  0  0  0  0  0  0  0  0  0  0  0
    0.6501   -0.2171   -1.6485 C   0  0  0  0  0  0  0  0  0  0  0  0
    0.0918    0.5537   -2.1893 H   0  0  0  0  0  0  0  0  0  0  0  0
    1.6964    0.0944   -1.6117 H   0  0  0  0  0  0  0  0  0  0  0  0
    0.5583   -1.5110   -2.4439 C   0  0  0  0  0  0  0  0  0  0  0  0
   -0.0921   -1.5228   -3.4741 O   0  0  0  0  0  0  0  0  0  0  0  0
    1.2989   -2.5568   -2.0195 O   0  0  0  0  0  0  0  0  0  0  0  0
    1.1105   -3.2788   -2.6370 H   0  0  0  0  0  0  0  0  0  0  0  0
   -0.0453    1.0705    0.3949 C   0  0  0  0  0  0  0  0  0  0  0  0
   -0.9904    1.7808    0.0752 O   0  0  0  0  0  0  0  0  0  0  0  0
    0.8862    1.5384    1.3029 N   0  0  0  0  0  0  0  0  0  0  0  0
    1.6249    0.9034    1.5928 H   0  0  0  0  0  0  0  0  0  0  0  0
    0.7936    2.8477    1.9376 C   0  0  0  0  0  0  0  0  0  0  0  0
   -0.1366    2.9320    2.5094 H   0  0  0  0  0  0  0  0  0  0  0  0
    1.6347    2.9973    2.6216 H   0  0  0  0  0  0  0  0  0  0  0  0
    0.8166    3.6410    1.1830 H   0  0  0  0  0  0  0  0  0  0  0  0
  1  2  1  0  0  0  0
  2  3  1  0  0  0  0
  2  4  1  0  0  0  0
  2  5  1  0  0  0  0
  5  6  2  0  0  0  0
  5  7  1  0  0  0  0
  7  8  1  0  0  0  0
  7  9  1  0  0  0  0
  9 10  1  0  0  0  0
  9 11  1  0  0  0  0
  9 18  1  0  0  0  0
 11 12  1  0  0  0  0
 11 13  1  0  0  0  0
 11 14  1  0  0  0  0
 14 15  2  0  0  0  0
 14 16  1  0  0  0  0
 16 17  1  0  0  0  0
 18 19  2  0  0  0  0
 18 20  1  0  0  0  0
 20 21  1  0  0  0  0
 20 22  1  0  0  0  0
 22 23  1  0  0  0  0
 22 24  1  0  0  0  0
 22 25  1  0  0  0  0
M  END
$$$$

  -OEChem-03222214023D

 25 24  0     1  0  0  0  0  0999 V2000
   -2.7869   -3.9998    0.4418 H   0  0  0  0  0  0  0  0  0  0  0  0
   -2.8041   -2.9561    0.1159 C   0  0  0  0  0  0  0  0  0  0  0  0
   -3.4977   -2.3996    0.7508 H   0  0  0  0  0  0  0  0  0  0  0  0
   -3.1549   -2.9165   -0.9183 H   0  0  0  0  0  0  0  0  0  0  0  0
   -1.4147   -2.3551    0.2156 C   0  0  0  0  0  0  0  0  0  0  0  0
   -0.5041   -3.0089    0.6975 O   0  0  0  0  0  0  0  0  0  0  0  0
   -1.2046   -1.0507   -0.1855 N   0  0  0  0  0  0  0  0  0  0  0  0
   -2.0209   -0.5178   -0.4822 H   0  0  0  0  0  0  0  0  0  0  0  0
    0.0916   -0.3517   -0.1989 C   0  0  1  0  0  0  0  0  0  0  0  0
    0.8130   -0.9110    0.4070 H   0  0  0  0  0  0  0  0  0  0  0  0
    0.6426   -0.2304   -1.6373 C   0  0  0  0  0  0  0  0  0  0  0  0
    0.0871    0.5506   -2.1665 H   0  0  0  0  0  0  0  0  0  0  0  0
    1.6905    0.0761   -1.5977 H   0  0  0  0  0  0  0  0  0  0  0  0
    0.5499   -1.5056   -2.4646 C   0  0  0  0  0  0  0  0  0  0  0  0
    0.1446   -1.4203   -3.6099 O   0  0  0  0  0  0  0  0  0  0  0  0
    1.0683   -2.6384   -1.9466 O   0  0  0  0  0  0  0  0  0  0  0  0
    0.9564   -3.3158   -2.6296 H   0  0  0  0  0  0  0  0  0  0  0  0
   -0.0424    1.0627    0.3947 C   0  0  0  0  0  0  0  0  0  0  0  0
   -0.9840    1.7739    0.0657 O   0  0  0  0  0  0  0  0  0  0  0  0
    0.8898    1.5370    1.2986 N   0  0  0  0  0  0  0  0  0  0  0  0
    1.6182    0.8979    1.6050 H   0  0  0  0  0  0  0  0  0  0  0  0
    0.7970    2.8506    1.9247 C   0  0  0  0  0  0  0  0  0  0  0  0
   -0.1335    2.9385    2.4957 H   0  0  0  0  0  0  0  0  0  0  0  0
    1.6379    3.0044    2.6079 H   0  0  0  0  0  0  0  0  0  0  0  0
    0.8202    3.6399    1.1658 H   0  0  0  0  0  0  0  0  0  0  0  0
  1  2  1  0  0  0  0
  2  3  1  0  0  0  0
  2  4  1  0  0  0  0
  2  5  1  0  0  0  0
  5  6  2  0  0  0  0
  5  7  1  0  0  0  0
  7  8  1  0  0  0  0
  7  9  1  0  0  0  0
  9 10  1  0  0  0  0
  9 11  1  0  0  0  0
  9 18  1  0  0  0  0
 11 12  1  0  0  0  0
 11 13  1  0  0  0  0
 11 14  1  0  0  0  0
 14 15  2  0  0  0  0
 14 16  1  0  0  0  0
 16 17  1  0  0  0  0
 18 19  2  0  0  0  0
 18 20  1  0  0  0  0
 20 21  1  0  0  0  0
 20 22  1  0  0  0  0
 22 23  1  0  0  0  0
 22 24  1  0  0  0  0
 22 25  1  0  0  0  0
M  END
$$$$

  -OEChem-03222214023D

 25 24  0     1  0  0  0  0  0999 V2000
   -2.8046   -3.9965    0.4750 H   0  0  0  0  0  0  0  0  0  0  0  0
   -2.8143   -2.9609    0.1240 C   0  0  0  0  0  0  0  0  0  0  0  0
   -3.5351   -2.3937    0.7177 H   0  0  0  0  0  0  0  0  0  0  0  0
   -3.1234   -2.9476   -0.9240 H   0  0  0  0  0  0  0  0  0  0  0  0
   -1.4334   -2.3490    0.2638 C   0  0  0  0  0  0  0  0  0  0  0  0
   -0.5422   -2.9799    0.8097 O   0  0  0  0  0  0  0  0  0  0  0  0
   -1.2180   -1.0507   -0.1547 N   0  0  0  0  0  0  0  0  0  0  0  0
   -2.0266   -0.5287   -0.4883 H   0  0  0  0  0  0  0  0  0  0  0  0
    0.0841   -0.3638   -0.1824 C   0  0  1  0  0  0  0  0  0  0  0  0
    0.8062   -0.9228    0.4225 H   0  0  0  0  0  0  0  0  0  0  0  0
    0.6317   -0.2408   -1.6253 C   0  0  0  0  0  0  0  0  0  0  0  0
    0.0789    0.5495   -2.1437 H   0  0  0  0  0  0  0  0  0  0  0  0
    1.6799    0.0635   -1.5818 H   0  0  0  0  0  0  0  0  0  0  0  0
    0.5433   -1.4919   -2.4927 C   0  0  0  0  0  0  0  0  0  0  0  0
    0.4160   -1.3307   -3.6930 O   0  0  0  0  0  0  0  0  0  0  0  0
    0.7785   -2.6970   -1.9350 O   0  0  0  0  0  0  0  0  0  0  0  0
    0.7527   -3.3337   -2.6643 H   0  0  0  0  0  0  0  0  0  0  0  0
   -0.0423    1.0573    0.3979 C   0  0  0  0  0  0  0  0  0  0  0  0
   -0.9758    1.7739    0.0573 O   0  0  0  0  0  0  0  0  0  0  0  0
    0.8953    1.5353    1.2943 N   0  0  0  0  0  0  0  0  0  0  0  0
    1.6092    0.8888    1.6189 H   0  0  0  0  0  0  0  0  0  0  0  0
    0.8080    2.8535    1.9114 C   0  0  0  0  0  0  0  0  0  0  0  0
   -0.1077    2.9385    2.5060 H   0  0  0  0  0  0  0  0  0  0  0  0
    1.6655    3.0206    2.5703 H   0  0  0  0  0  0  0  0  0  0  0  0
    0.8043    3.6361    1.1453 H   0  0  0  0  0  0  0  0  0  0  0  0
  1  2  1  0  0  0  0
  2  3  1  0  0  0  0
  2  4  1  0  0  0  0
  2  5  1  0  0  0  0
  5  6  2  0  0  0  0
  5  7  1  0  0  0  0
  7  8  1  0  0  0  0
  7  9  1  0  0  0  0
  9 10  1  0  0  0  0
  9 11  1  0  0  0  0
  9 18  1  0  0  0  0
 11 12  1  0  0  0  0
 11 13  1  0  0  0  0
 11 14  1  0  0  0  0
 14 15  2  0  0  0  0
 14 16  1  0  0  0  0
 16 17  1  0  0  0  0
 18 19  2  0  0  0  0
 18 20  1  0  0  0  0
 20 21  1  0  0  0  0
 20 22  1  0  0  0  0
 22 23  1  0  0  0  0
 22 24  1  0  0  0  0
 22 25  1  0  0  0  0
M  END
$$$$

  -OEChem-03222214023D

 25 24  0     1  0  0  0  0  0999 V2000
   -2.8194   -3.9947    0.5225 H   0  0  0  0  0  0  0  0  0  0  0  0
   -2.8283   -2.9650    0.1545 C   0  0  0  0  0  0  0  0  0  0  0  0
   -3.5586   -2.3904    0.7293 H   0  0  0  0  0  0  0  0  0  0  0  0
   -3.1237   -2.9705   -0.8975 H   0  0  0  0  0  0  0  0  0  0  0  0
   -1.4513   -2.3461    0.3011 C   0  0  0  0  0  0  0  0  0  0  0  0
   -0.5648   -2.9645    0.8701 O   0  0  0  0  0  0  0  0  0  0  0  0
   -1.2339   -1.0520   -0.1310 N   0  0  0  0  0  0  0  0  0  0  0  0
   -2.0370   -0.5363   -0.4863 H   0  0  0  0  0  0  0  0  0  0  0  0
    0.0738   -0.3772   -0.1709 C   0  0  1  0  0  0  0  0  0  0  0  0
    0.7933   -0.9359    0.4372 H   0  0  0  0  0  0  0  0  0  0  0  0
    0.6322   -0.2506   -1.6121 C   0  0  0  0  0  0  0  0  0  0  0  0
    0.0852    0.5481   -2.1232 H   0  0  0  0  0  0  0  0  0  0  0  0
    1.6796    0.0543   -1.5517 H   0  0  0  0  0  0  0  0  0  0  0  0
    0.5623   -1.4711   -2.5278 C   0  0  0  0  0  0  0  0  0  0  0  0
    0.7395   -1.2622   -3.7142 O   0  0  0  0  0  0  0  0  0  0  0  0
    0.4494   -2.7126   -2.0149 O   0  0  0  0  0  0  0  0  0  0  0  0
    0.5121   -3.3140   -2.7717 H   0  0  0  0  0  0  0  0  0  0  0  0
   -0.0475    1.0486    0.4005 C   0  0  0  0  0  0  0  0  0  0  0  0
   -0.9756    1.7688    0.0519 O   0  0  0  0  0  0  0  0  0  0  0  0
    0.8938    1.5300    1.2912 N   0  0  0  0  0  0  0  0  0  0  0  0
    1.6022    0.8815    1.6240 H   0  0  0  0  0  0  0  0  0  0  0  0
    0.8155    2.8554    1.8940 C   0  0  0  0  0  0  0  0  0  0  0  0
   -0.0961    2.9508    2.4933 H   0  0  0  0  0  0  0  0  0  0  0  0
    1.6782    3.0264    2.5451 H   0  0  0  0  0  0  0  0  0  0  0  0
    0.8102    3.6294    1.1192 H   0  0  0  0  0  0  0  0  0  0  0  0
  1  2  1  0  0  0  0
  2  3  1  0  0  0  0
  2  4  1  0  0  0  0
  2  5  1  0  0  0  0
  5  6  2  0  0  0  0
  5  7  1  0  0  0  0
  7  8  1  0  0  0  0
  7  9  1  0  0  0  0
  9 10  1  0  0  0  0
  9 11  1  0  0  0  0
  9 18  1  0  0  0  0
 11 12  1  0  0  0  0
 11 13  1  0  0  0  0
 11 14  1  0  0  0  0
 14 15  2  0  0  0  0
 14 16  1  0  0  0  0
 16 17  1  0  0  0  0
 18 19  2  0  0  0  0
 18 20  1  0  0  0  0
 20 21  1  0  0  0  0
 20 22  1  0  0  0  0
 22 23  1  0  0  0  0
 22 24  1  0  0  0  0
 22 25  1  0  0  0  0
M  END
$$$$

  -OEChem-03222214023D

 25 24  0     1  0  0  0  0  0999 V2000
   -2.8223   -3.9971    0.6349 H   0  0  0  0  0  0  0  0  0  0  0  0
   -2.8522   -2.9664    0.2707 C   0  0  0  0  0  0  0  0  0  0  0  0
   -3.5371   -2.3896    0.8970 H   0  0  0  0  0  0  0  0  0  0  0  0
   -3.2206   -2.9671   -0.7580 H   0  0  0  0  0  0  0  0  0  0  0  0
   -1.4652   -2.3545    0.3199 C   0  0  0  0  0  0  0  0  0  0  0  0
   -0.5302   -2.9980    0.7732 O   0  0  0  0  0  0  0  0  0  0  0  0
   -1.2748   -1.0537   -0.1050 N   0  0  0  0  0  0  0  0  0  0  0  0
   -2.0949   -0.5354   -0.4137 H   0  0  0  0  0  0  0  0  0  0  0  0
    0.0278   -0.3767   -0.1862 C   0  0  1  0  0  0  0  0  0  0  0  0
    0.7476   -0.9337    0.4226 H   0  0  0  0  0  0  0  0  0  0  0  0
    0.6175   -0.2591   -1.6215 C   0  0  0  0  0  0  0  0  0  0  0  0
    0.2645    0.6839   -2.0507 H   0  0  0  0  0  0  0  0  0  0  0  0
    1.7045   -0.1886   -1.5324 H   0  0  0  0  0  0  0  0  0  0  0  0
    0.3171   -1.3131   -2.6930 C   0  0  0  0  0  0  0  0  0  0  0  0
    0.8397   -1.1031   -3.7727 O   0  0  0  0  0  0  0  0  0  0  0  0
   -0.4519   -2.3980   -2.4609 O   0  0  0  0  0  0  0  0  0  0  0  0
   -0.4324   -2.9001   -3.2896 H   0  0  0  0  0  0  0  0  0  0  0  0
   -0.0814    1.0417    0.4071 C   0  0  0  0  0  0  0  0  0  0  0  0
   -1.0262    1.7592    0.1011 O   0  0  0  0  0  0  0  0  0  0  0  0
    0.8875    1.5200    1.2696 N   0  0  0  0  0  0  0  0  0  0  0  0
    1.6240    0.8805    1.5547 H   0  0  0  0  0  0  0  0  0  0  0  0
    0.8302    2.8437    1.8787 C   0  0  0  0  0  0  0  0  0  0  0  0
   -0.0727    2.9464    2.4899 H   0  0  0  0  0  0  0  0  0  0  0  0
    1.7020    3.0035    2.5205 H   0  0  0  0  0  0  0  0  0  0  0  0
    0.8231    3.6206    1.1068 H   0  0  0  0  0  0  0  0  0  0  0  0
  1  2  1  0  0  0  0
  2  3  1  0  0  0  0
  2  4  1  0  0  0  0
  2  5  1  0  0  0  0
  5  6  2  0  0  0  0
  5  7  1  0  0  0  0
  7  8  1  0  0  0  0
  7  9  1  0  0  0  0
  9 10  1  0  0  0  0
  9 11  1  0  0  0  0
  9 18  1  0  0  0  0
 11 12  1  0  0  0  0
 11 13  1  0  0  0  0
 11 14  1  0  0  0  0
 14 15  2  0  0  0  0
 14 16  1  0  0  0  0
 16 17  1  0  0  0  0
 18 19  2  0  0  0  0
 18 20  1  0  0  0  0
 20 21  1  0  0  0  0
 20 22  1  0  0  0  0
 22 23  1  0  0  0  0
 22 24  1  0  0  0  0
 22 25  1  0  0  0  0
M  END
$$$$

  -OEChem-03222214023D

 25 24  0     1  0  0  0  0  0999 V2000
   -2.8110   -4.0025    0.6346 H   0  0  0  0  0  0  0  0  0  0  0  0
   -2.8466   -2.9699    0.2766 C   0  0  0  0  0  0  0  0  0  0  0  0
   -3.5241   -2.3978    0.9149 H   0  0  0  0  0  0  0  0  0  0  0  0
   -3.2285   -2.9648   -0.7472 H   0  0  0  0  0  0  0  0  0  0  0  0
   -1.4600   -2.3560    0.3104 C   0  0  0  0  0  0  0  0  0  0  0  0
   -0.5121   -3.0091    0.7211 O   0  0  0  0  0  0  0  0  0  0  0  0
   -1.2780   -1.0517   -0.1052 N   0  0  0  0  0  0  0  0  0  0  0  0
   -2.1011   -0.5387   -0.4150 H   0  0  0  0  0  0  0  0  0  0  0  0
    0.0199   -0.3687   -0.1893 C   0  0  1  0  0  0  0  0  0  0  0  0
    0.7401   -0.9243    0.4202 H   0  0  0  0  0  0  0  0  0  0  0  0
    0.6152   -0.2602   -1.6221 C   0  0  0  0  0  0  0  0  0  0  0  0
    0.2532    0.6736   -2.0623 H   0  0  0  0  0  0  0  0  0  0  0  0
    1.7010   -0.1744   -1.5286 H   0  0  0  0  0  0  0  0  0  0  0  0
    0.3226   -1.3289   -2.6827 C   0  0  0  0  0  0  0  0  0  0  0  0
    1.0586   -1.2949   -3.6524 O   0  0  0  0  0  0  0  0  0  0  0  0
   -0.7276   -2.1758   -2.6025 O   0  0  0  0  0  0  0  0  0  0  0  0
   -0.6719   -2.7152   -3.4060 H   0  0  0  0  0  0  0  0  0  0  0  0
   -0.0854    1.0459    0.4126 C   0  0  0  0  0  0  0  0  0  0  0  0
   -1.0290    1.7672    0.1125 O   0  0  0  0  0  0  0  0  0  0  0  0
    0.8900    1.5193    1.2706 N   0  0  0  0  0  0  0  0  0  0  0  0
    1.6264    0.8772    1.5503 H   0  0  0  0  0  0  0  0  0  0  0  0
    0.8374    2.8403    1.8854 C   0  0  0  0  0  0  0  0  0  0  0  0
   -0.0554    2.9361    2.5123 H   0  0  0  0  0  0  0  0  0  0  0  0
    1.7197    3.0016    2.5123 H   0  0  0  0  0  0  0  0  0  0  0  0
    0.8135    3.6202    1.1169 H   0  0  0  0  0  0  0  0  0  0  0  0
  1  2  1  0  0  0  0
  2  3  1  0  0  0  0
  2  4  1  0  0  0  0
  2  5  1  0  0  0  0
  5  6  2  0  0  0  0
  5  7  1  0  0  0  0
  7  8  1  0  0  0  0
  7  9  1  0  0  0  0
  9 10  1  0  0  0  0
  9 11  1  0  0  0  0
  9 18  1  0  0  0  0
 11 12  1  0  0  0  0
 11 13  1  0  0  0  0
 11 14  1  0  0  0  0
 14 15  2  0  0  0  0
 14 16  1  0  0  0  0
 16 17  1  0  0  0  0
 18 19  2  0  0  0  0
 18 20  1  0  0  0  0
 20 21  1  0  0  0  0
 20 22  1  0  0  0  0
 22 23  1  0  0  0  0
 22 24  1  0  0  0  0
 22 25  1  0  0  0  0
M  END
$$$$

  -OEChem-03222214023D

 25 24  0     1  0  0  0  0  0999 V2000
   -2.7913   -4.0144    0.5960 H   0  0  0  0  0  0  0  0  0  0  0  0
   -2.8350   -2.9757    0.2569 C   0  0  0  0  0  0  0  0  0  0  0  0
   -3.5063   -2.4179    0.9142 H   0  0  0  0  0  0  0  0  0  0  0  0
   -3.2303   -2.9534   -0.7616 H   0  0  0  0  0  0  0  0  0  0  0  0
   -1.4501   -2.3575    0.2851 C   0  0  0  0  0  0  0  0  0  0  0  0
   -0.4937   -3.0171    0.6633 O   0  0  0  0  0  0  0  0  0  0  0  0
   -1.2747   -1.0487   -0.1168 N   0  0  0  0  0  0  0  0  0  0  0  0
   -2.1002   -0.5395   -0.4272 H   0  0  0  0  0  0  0  0  0  0  0  0
    0.0182   -0.3559   -0.1953 C   0  0  1  0  0  0  0  0  0  0  0  0
    0.7400   -0.9124    0.4116 H   0  0  0  0  0  0  0  0  0  0  0  0
    0.6088   -0.2523   -1.6280 C   0  0  0  0  0  0  0  0  0  0  0  0
    0.2376    0.6727   -2.0784 H   0  0  0  0  0  0  0  0  0  0  0  0
    1.6950   -0.1584   -1.5426 H   0  0  0  0  0  0  0  0  0  0  0  0
    0.3011   -1.3460   -2.6569 C   0  0  0  0  0  0  0  0  0  0  0  0
    1.1716   -1.5351   -3.4874 O   0  0  0  0  0  0  0  0  0  0  0  0
   -0.9162   -1.9310   -2.7377 O   0  0  0  0  0  0  0  0  0  0  0  0
   -0.8507   -2.5266   -3.4999 H   0  0  0  0  0  0  0  0  0  0  0  0
   -0.0853    1.0539    0.4176 C   0  0  0  0  0  0  0  0  0  0  0  0
   -1.0306    1.7763    0.1261 O   0  0  0  0  0  0  0  0  0  0  0  0
    0.8924    1.5224    1.2759 N   0  0  0  0  0  0  0  0  0  0  0  0
    1.6339    0.8810    1.5436 H   0  0  0  0  0  0  0  0  0  0  0  0
    0.8423    2.8393    1.9001 C   0  0  0  0  0  0  0  0  0  0  0  0
   -0.0508    2.9327    2.5269 H   0  0  0  0  0  0  0  0  0  0  0  0
    1.7244    2.9939    2.5290 H   0  0  0  0  0  0  0  0  0  0  0  0
    0.8212    3.6250    1.1375 H   0  0  0  0  0  0  0  0  0  0  0  0
  1  2  1  0  0  0  0
  2  3  1  0  0  0  0
  2  4  1  0  0  0  0
  2  5  1  0  0  0  0
  5  6  2  0  0  0  0
  5  7  1  0  0  0  0
  7  8  1  0  0  0  0
  7  9  1  0  0  0  0
  9 10  1  0  0  0  0
  9 11  1  0  0  0  0
  9 18  1  0  0  0  0
 11 12  1  0  0  0  0
 11 13  1  0  0  0  0
 11 14  1  0  0  0  0
 14 15  2  0  0  0  0
 14 16  1  0  0  0  0
 16 17  1  0  0  0  0
 18 19  2  0  0  0  0
 18 20  1  0  0  0  0
 20 21  1  0  0  0  0
 20 22  1  0  0  0  0
 22 23  1  0  0  0  0
 22 24  1  0  0  0  0
 22 25  1  0  0  0  0
M  END
$$$$

  -OEChem-03222214023D

 25 24  0     1  0  0  0  0  0999 V2000
   -2.7748   -4.0193    0.5431 H   0  0  0  0  0  0  0  0  0  0  0  0
   -2.8209   -2.9753    0.2211 C   0  0  0  0  0  0  0  0  0  0  0  0
   -3.4888   -2.4282    0.8907 H   0  0  0  0  0  0  0  0  0  0  0  0
   -3.2222   -2.9369   -0.7945 H   0  0  0  0  0  0  0  0  0  0  0  0
   -1.4365   -2.3565    0.2526 C   0  0  0  0  0  0  0  0  0  0  0  0
   -0.4776   -3.0188    0.6177 O   0  0  0  0  0  0  0  0  0  0  0  0
   -1.2636   -1.0441   -0.1365 N   0  0  0  0  0  0  0  0  0  0  0  0
   -2.0899   -0.5353   -0.4460 H   0  0  0  0  0  0  0  0  0  0  0  0
    0.0258   -0.3428   -0.2042 C   0  0  1  0  0  0  0  0  0  0  0  0
    0.7512   -0.9015    0.3965 H   0  0  0  0  0  0  0  0  0  0  0  0
    0.6033   -0.2371   -1.6396 C   0  0  0  0  0  0  0  0  0  0  0  0
    0.2239    0.6820   -2.0949 H   0  0  0  0  0  0  0  0  0  0  0  0
    1.6909   -0.1425   -1.5721 H   0  0  0  0  0  0  0  0  0  0  0  0
    0.2668   -1.3530   -2.6314 C   0  0  0  0  0  0  0  0  0  0  0  0
    1.1945   -1.7765   -3.2970 O   0  0  0  0  0  0  0  0  0  0  0  0
   -1.0192   -1.7062   -2.8641 O   0  0  0  0  0  0  0  0  0  0  0  0
   -0.9662   -2.3677   -3.5710 H   0  0  0  0  0  0  0  0  0  0  0  0
   -0.0804    1.0622    0.4184 C   0  0  0  0  0  0  0  0  0  0  0  0
   -1.0282    1.7837    0.1334 O   0  0  0  0  0  0  0  0  0  0  0  0
    0.8953    1.5255    1.2818 N   0  0  0  0  0  0  0  0  0  0  0  0
    1.6393    0.8843    1.5430 H   0  0  0  0  0  0  0  0  0  0  0  0
    0.8408    2.8366    1.9177 C   0  0  0  0  0  0  0  0  0  0  0  0
   -0.0535    2.9227    2.5440 H   0  0  0  0  0  0  0  0  0  0  0  0
    1.7212    2.9877    2.5498 H   0  0  0  0  0  0  0  0  0  0  0  0
    0.8189    3.6284    1.1613 H   0  0  0  0  0  0  0  0  0  0  0  0
  1  2  1  0  0  0  0
  2  3  1  0  0  0  0
  2  4  1  0  0  0  0
  2  5  1  0  0  0  0
  5  6  2  0  0  0  0
  5  7  1  0  0  0  0
  7  8  1  0  0  0  0
  7  9  1  0  0  0  0
  9 10  1  0  0  0  0
  9 11  1  0  0  0  0
  9 18  1  0  0  0  0
 11 12  1  0  0  0  0
 11 13  1  0  0  0  0
 11 14  1  0  0  0  0
 14 15  2  0  0  0  0
 14 16  1  0  0  0  0
 16 17  1  0  0  0  0
 18 19  2  0  0  0  0
 18 20  1  0  0  0  0
 20 21  1  0  0  0  0
 20 22  1  0  0  0  0
 22 23  1  0  0  0  0
 22 24  1  0  0  0  0
 22 25  1  0  0  0  0
M  END
$$$$

  -OEChem-03222214023D

 25 24  0     1  0  0  0  0  0999 V2000
   -2.7639   -4.0204    0.4891 H   0  0  0  0  0  0  0  0  0  0  0  0
   -2.8097   -2.9725    0.1801 C   0  0  0  0  0  0  0  0  0  0  0  0
   -3.4780   -2.4339    0.8562 H   0  0  0  0  0  0  0  0  0  0  0  0
   -3.2105   -2.9215   -0.8351 H   0  0  0  0  0  0  0  0  0  0  0  0
   -1.4253   -2.3544    0.2199 C   0  0  0  0  0  0  0  0  0  0  0  0
   -0.4682   -3.0183    0.5851 O   0  0  0  0  0  0  0  0  0  0  0  0
   -1.2507   -1.0397   -0.1598 N   0  0  0  0  0  0  0  0  0  0  0  0
   -2.0778   -0.5250   -0.4582 H   0  0  0  0  0  0  0  0  0  0  0  0
    0.0376   -0.3335   -0.2138 C   0  0  1  0  0  0  0  0  0  0  0  0
    0.7648   -0.8954    0.3819 H   0  0  0  0  0  0  0  0  0  0  0  0
    0.6026   -0.2198   -1.6511 C   0  0  0  0  0  0  0  0  0  0  0  0
    0.2220    0.6987   -2.1065 H   0  0  0  0  0  0  0  0  0  0  0  0
    1.6914   -0.1312   -1.6003 H   0  0  0  0  0  0  0  0  0  0  0  0
    0.2383   -1.3479   -2.6138 C   0  0  0  0  0  0  0  0  0  0  0  0
    1.1582   -1.9879   -3.0899 O   0  0  0  0  0  0  0  0  0  0  0  0
   -1.0492   -1.5128   -2.9981 O   0  0  0  0  0  0  0  0  0  0  0  0
   -1.0199   -2.2345   -3.6451 H   0  0  0  0  0  0  0  0  0  0  0  0
   -0.0734    1.0679    0.4154 C   0  0  0  0  0  0  0  0  0  0  0  0
   -1.0219    1.7890    0.1318 O   0  0  0  0  0  0  0  0  0  0  0  0
    0.8966    1.5271    1.2873 N   0  0  0  0  0  0  0  0  0  0  0  0
    1.6407    0.8857    1.5477 H   0  0  0  0  0  0  0  0  0  0  0  0
    0.8369    2.8342    1.9313 C   0  0  0  0  0  0  0  0  0  0  0  0
   -0.0563    2.9111    2.5603 H   0  0  0  0  0  0  0  0  0  0  0  0
    1.7186    2.9863    2.5614 H   0  0  0  0  0  0  0  0  0  0  0  0
    0.8087    3.6309    1.1803 H   0  0  0  0  0  0  0  0  0  0  0  0
  1  2  1  0  0  0  0
  2  3  1  0  0  0  0
  2  4  1  0  0  0  0
  2  5  1  0  0  0  0
  5  6  2  0  0  0  0
  5  7  1  0  0  0  0
  7  8  1  0  0  0  0
  7  9  1  0  0  0  0
  9 10  1  0  0  0  0
  9 11  1  0  0  0  0
  9 18  1  0  0  0  0
 11 12  1  0  0  0  0
 11 13  1  0  0  0  0
 11 14  1  0  0  0  0
 14 15  2  0  0  0  0
 14 16  1  0  0  0  0
 16 17  1  0  0  0  0
 18 19  2  0  0  0  0
 18 20  1  0  0  0  0
 20 21  1  0  0  0  0
 20 22  1  0  0  0  0
 22 23  1  0  0  0  0
 22 24  1  0  0  0  0
 22 25  1  0  0  0  0
M  END
$$$$

  -OEChem-03222214023D

 25 24  0     1  0  0  0  0  0999 V2000
   -2.7528   -4.0189    0.4448 H   0  0  0  0  0  0  0  0  0  0  0  0
   -2.7975   -2.9688    0.1424 C   0  0  0  0  0  0  0  0  0  0  0  0
   -3.4696   -2.4350    0.8186 H   0  0  0  0  0  0  0  0  0  0  0  0
   -3.1930   -2.9110   -0.8746 H   0  0  0  0  0  0  0  0  0  0  0  0
   -1.4133   -2.3508    0.1935 C   0  0  0  0  0  0  0  0  0  0  0  0
   -0.4609   -3.0136    0.5715 O   0  0  0  0  0  0  0  0  0  0  0  0
   -1.2365   -1.0347   -0.1812 N   0  0  0  0  0  0  0  0  0  0  0  0
   -2.0635   -0.5149   -0.4716 H   0  0  0  0  0  0  0  0  0  0  0  0
    0.0523   -0.3266   -0.2237 C   0  0  1  0  0  0  0  0  0  0  0  0
    0.7811   -0.8915    0.3675 H   0  0  0  0  0  0  0  0  0  0  0  0
    0.6063   -0.2053   -1.6633 C   0  0  0  0  0  0  0  0  0  0  0  0
    0.2260    0.7153   -2.1157 H   0  0  0  0  0  0  0  0  0  0  0  0
    1.6961   -0.1255   -1.6267 H   0  0  0  0  0  0  0  0  0  0  0  0
    0.2199   -1.3390   -2.6062 C   0  0  0  0  0  0  0  0  0  0  0  0
    1.0723   -2.1644   -2.8783 O   0  0  0  0  0  0  0  0  0  0  0  0
   -1.0199   -1.3491   -3.1478 O   0  0  0  0  0  0  0  0  0  0  0  0
   -1.0270   -2.1241   -3.7304 H   0  0  0  0  0  0  0  0  0  0  0  0
   -0.0633    1.0729    0.4087 C   0  0  0  0  0  0  0  0  0  0  0  0
   -1.0124    1.7926    0.1237 O   0  0  0  0  0  0  0  0  0  0  0  0
    0.9003    1.5301    1.2886 N   0  0  0  0  0  0  0  0  0  0  0  0
    1.6437    0.8888    1.5513 H   0  0  0  0  0  0  0  0  0  0  0  0
    0.8298    2.8314    1.9428 C   0  0  0  0  0  0  0  0  0  0  0  0
   -0.0755    2.9043    2.5547 H   0  0  0  0  0  0  0  0  0  0  0  0
    1.6986    2.9764    2.5922 H   0  0  0  0  0  0  0  0  0  0  0  0
    0.8178    3.6344    1.1983 H   0  0  0  0  0  0  0  0  0  0  0  0
  1  2  1  0  0  0  0
  2  3  1  0  0  0  0
  2  4  1  0  0  0  0
  2  5  1  0  0  0  0
  5  6  2  0  0  0  0
  5  7  1  0  0  0  0
  7  8  1  0  0  0  0
  7  9  1  0  0  0  0
  9 10  1  0  0  0  0
  9 11  1  0  0  0  0
  9 18  1  0  0  0  0
 11 12  1  0  0  0  0
 11 13  1  0  0  0  0
 11 14  1  0  0  0  0
 14 15  2  0  0  0  0
 14 16  1  0  0  0  0
 16 17  1  0  0  0  0
 18 19  2  0  0  0  0
 18 20  1  0  0  0  0
 20 21  1  0  0  0  0
 20 22  1  0  0  0  0
 22 23  1  0  0  0  0
 22 24  1  0  0  0  0
 22 25  1  0  0  0  0
M  END
$$$$

  -OEChem-03222214023D

 25 24  0     1  0  0  0  0  0999 V2000
   -2.7462   -4.0201    0.4110 H   0  0  0  0  0  0  0  0  0  0  0  0
   -2.7877   -2.9702    0.1078 C   0  0  0  0  0  0  0  0  0  0  0  0
   -3.4719   -2.4375    0.7726 H   0  0  0  0  0  0  0  0  0  0  0  0
   -3.1665   -2.9143   -0.9155 H   0  0  0  0  0  0  0  0  0  0  0  0
   -1.4056   -2.3494    0.1816 C   0  0  0  0  0  0  0  0  0  0  0  0
   -0.4617   -3.0059    0.5899 O   0  0  0  0  0  0  0  0  0  0  0  0
   -1.2257   -1.0332   -0.1929 N   0  0  0  0  0  0  0  0  0  0  0  0
   -2.0525   -0.5085   -0.4747 H   0  0  0  0  0  0  0  0  0  0  0  0
    0.0646   -0.3255   -0.2268 C   0  0  1  0  0  0  0  0  0  0  0  0
    0.7941   -0.8920    0.3622 H   0  0  0  0  0  0  0  0  0  0  0  0
    0.6124   -0.1968   -1.6677 C   0  0  0  0  0  0  0  0  0  0  0  0
    0.2372    0.7280   -2.1155 H   0  0  0  0  0  0  0  0  0  0  0  0
    1.7028   -0.1268   -1.6392 H   0  0  0  0  0  0  0  0  0  0  0  0
    0.2130   -1.3295   -2.6037 C   0  0  0  0  0  0  0  0  0  0  0  0
    0.9422   -2.3013   -2.6713 O   0  0  0  0  0  0  0  0  0  0  0  0
   -0.9234   -1.2033   -3.3251 O   0  0  0  0  0  0  0  0  0  0  0  0
   -0.9733   -2.0160   -3.8514 H   0  0  0  0  0  0  0  0  0  0  0  0
   -0.0555    1.0738    0.4046 C   0  0  0  0  0  0  0  0  0  0  0  0
   -1.0034    1.7930    0.1135 O   0  0  0  0  0  0  0  0  0  0  0  0
    0.9019    1.5308    1.2910 N   0  0  0  0  0  0  0  0  0  0  0  0
    1.6414    0.8880    1.5611 H   0  0  0  0  0  0  0  0  0  0  0  0
    0.8261    2.8317    1.9451 C   0  0  0  0  0  0  0  0  0  0  0  0
   -0.0762    2.8984    2.5623 H   0  0  0  0  0  0  0  0  0  0  0  0
    1.6981    2.9834    2.5888 H   0  0  0  0  0  0  0  0  0  0  0  0
    0.8039    3.6344    1.2002 H   0  0  0  0  0  0  0  0  0  0  0  0
  1  2  1  0  0  0  0
  2  3  1  0  0  0  0
  2  4  1  0  0  0  0
  2  5  1  0  0  0  0
  5  6  2  0  0  0  0
  5  7  1  0  0  0  0
  7  8  1  0  0  0  0
  7  9  1  0  0  0  0
  9 10  1  0  0  0  0
  9 11  1  0  0  0  0
  9 18  1  0  0  0  0
 11 12  1  0  0  0  0
 11 13  1  0  0  0  0
 11 14  1  0  0  0  0
 14 15  2  0  0  0  0
 14 16  1  0  0  0  0
 16 17  1  0  0  0  0
 18 19  2  0  0  0  0
 18 20  1  0  0  0  0
 20 21  1  0  0  0  0
 20 22  1  0  0  0  0
 22 23  1  0  0  0  0
 22 24  1  0  0  0  0
 22 25  1  0  0  0  0
M  END
$$$$

  -OEChem-03222214023D

 25 24  0     1  0  0  0  0  0999 V2000
   -2.7384   -4.0217    0.4072 H   0  0  0  0  0  0  0  0  0  0  0  0
   -2.7792   -2.9737    0.0973 C   0  0  0  0  0  0  0  0  0  0  0  0
   -3.4762   -2.4398    0.7477 H   0  0  0  0  0  0  0  0  0  0  0  0
   -3.1410   -2.9255   -0.9326 H   0  0  0  0  0  0  0  0  0  0  0  0
   -1.4006   -2.3479    0.1901 C   0  0  0  0  0  0  0  0  0  0  0  0
   -0.4678   -2.9918    0.6419 O   0  0  0  0  0  0  0  0  0  0  0  0
   -1.2188   -1.0334   -0.1920 N   0  0  0  0  0  0  0  0  0  0  0  0
   -2.0443   -0.5081   -0.4759 H   0  0  0  0  0  0  0  0  0  0  0  0
    0.0739   -0.3299   -0.2274 C   0  0  1  0  0  0  0  0  0  0  0  0
    0.8044   -0.8966    0.3601 H   0  0  0  0  0  0  0  0  0  0  0  0
    0.6159   -0.1985   -1.6714 C   0  0  0  0  0  0  0  0  0  0  0  0
    0.2443    0.7313   -2.1127 H   0  0  0  0  0  0  0  0  0  0  0  0
    1.7064   -0.1352   -1.6479 H   0  0  0  0  0  0  0  0  0  0  0  0
    0.2121   -1.3235   -2.6148 C   0  0  0  0  0  0  0  0  0  0  0  0
    0.7638   -2.4019   -2.5007 O   0  0  0  0  0  0  0  0  0  0  0  0
   -0.7471   -1.0759   -3.5337 O   0  0  0  0  0  0  0  0  0  0  0  0
   -0.8415   -1.9062   -4.0254 H   0  0  0  0  0  0  0  0  0  0  0  0
   -0.0479    1.0721    0.3981 C   0  0  0  0  0  0  0  0  0  0  0  0
   -0.9954    1.7897    0.1017 O   0  0  0  0  0  0  0  0  0  0  0  0
    0.9067    1.5330    1.2855 N   0  0  0  0  0  0  0  0  0  0  0  0
    1.6418    0.8890    1.5649 H   0  0  0  0  0  0  0  0  0  0  0  0
    0.8203    2.8306    1.9449 C   0  0  0  0  0  0  0  0  0  0  0  0
   -0.0989    2.8999    2.5362 H   0  0  0  0  0  0  0  0  0  0  0  0
    1.6738    2.9722    2.6149 H   0  0  0  0  0  0  0  0  0  0  0  0
    0.8247    3.6376    1.2047 H   0  0  0  0  0  0  0  0  0  0  0  0
  1  2  1  0  0  0  0
  2  3  1  0  0  0  0
  2  4  1  0  0  0  0
  2  5  1  0  0  0  0
  5  6  2  0  0  0  0
  5  7  1  0  0  0  0
  7  8  1  0  0  0  0
  7  9  1  0  0  0  0
  9 10  1  0  0  0  0
  9 11  1  0  0  0  0
  9 18  1  0  0  0  0
 11 12  1  0  0  0  0
 11 13  1  0  0  0  0
 11 14  1  0  0  0  0
 14 15  2  0  0  0  0
 14 16  1  0  0  0  0
 16 17  1  0  0  0  0
 18 19  2  0  0  0  0
 18 20  1  0  0  0  0
 20 21  1  0  0  0  0
 20 22  1  0  0  0  0
 22 23  1  0  0  0  0
 22 24  1  0  0  0  0
 22 25  1  0  0  0  0
M  END
$$$$

  -OEChem-03222214023D

 25 24  0     1  0  0  0  0  0999 V2000
   -2.7338   -4.0309    0.4203 H   0  0  0  0  0  0  0  0  0  0  0  0
   -2.7741   -2.9887    0.0912 C   0  0  0  0  0  0  0  0  0  0  0  0
   -3.4982   -2.4509    0.7078 H   0  0  0  0  0  0  0  0  0  0  0  0
   -3.1007   -2.9614   -0.9510 H   0  0  0  0  0  0  0  0  0  0  0  0
   -1.4055   -2.3474    0.2203 C   0  0  0  0  0  0  0  0  0  0  0  0
   -0.4880   -2.9688    0.7323 O   0  0  0  0  0  0  0  0  0  0  0  0
   -1.2242   -1.0359   -0.1745 N   0  0  0  0  0  0  0  0  0  0  0  0
   -2.0435   -0.5243   -0.4977 H   0  0  0  0  0  0  0  0  0  0  0  0
    0.0715   -0.3384   -0.2169 C   0  0  1  0  0  0  0  0  0  0  0  0
    0.8030   -0.9036    0.3705 H   0  0  0  0  0  0  0  0  0  0  0  0
    0.6114   -0.2051   -1.6635 C   0  0  0  0  0  0  0  0  0  0  0  0
    0.2436    0.7305   -2.0957 H   0  0  0  0  0  0  0  0  0  0  0  0
    1.7020   -0.1445   -1.6391 H   0  0  0  0  0  0  0  0  0  0  0  0
    0.2129   -1.3153   -2.6290 C   0  0  0  0  0  0  0  0  0  0  0  0
    0.5377   -2.4610   -2.3798 O   0  0  0  0  0  0  0  0  0  0  0  0
   -0.4900   -0.9704   -3.7299 O   0  0  0  0  0  0  0  0  0  0  0  0
   -0.6290   -1.8017   -4.2090 H   0  0  0  0  0  0  0  0  0  0  0  0
   -0.0479    1.0686    0.3985 C   0  0  0  0  0  0  0  0  0  0  0  0
   -0.9884    1.7909    0.0905 O   0  0  0  0  0  0  0  0  0  0  0  0
    0.9090    1.5315    1.2825 N   0  0  0  0  0  0  0  0  0  0  0  0
    1.6301    0.8796    1.5795 H   0  0  0  0  0  0  0  0  0  0  0  0
    0.8280    2.8338    1.9333 C   0  0  0  0  0  0  0  0  0  0  0  0
   -0.0810    2.9028    2.5401 H   0  0  0  0  0  0  0  0  0  0  0  0
    1.6928    2.9848    2.5867 H   0  0  0  0  0  0  0  0  0  0  0  0
    0.8154    3.6353    1.1870 H   0  0  0  0  0  0  0  0  0  0  0  0
  1  2  1  0  0  0  0
  2  3  1  0  0  0  0
  2  4  1  0  0  0  0
  2  5  1  0  0  0  0
  5  6  2  0  0  0  0
  5  7  1  0  0  0  0
  7  8  1  0  0  0  0
  7  9  1  0  0  0  0
  9 10  1  0  0  0  0
  9 11  1  0  0  0  0
  9 18  1  0  0  0  0
 11 12  1  0  0  0  0
 11 13  1  0  0  0  0
 11 14  1  0  0  0  0
 14 15  2  0  0  0  0
 14 16  1  0  0  0  0
 16 17  1  0  0  0  0
 18 19  2  0  0  0  0
 18 20  1  0  0  0  0
 20 21  1  0  0  0  0
 20 22  1  0  0  0  0
 22 23  1  0  0  0  0
 22 24  1  0  0  0  0
 22 25  1  0  0  0  0
M  END
$$$$

  -OEChem-03222214023D

 25 24  0     1  0  0  0  0  0999 V2000
   -2.7378   -4.0396    0.4505 H   0  0  0  0  0  0  0  0  0  0  0  0
   -2.7763   -3.0055    0.0970 C   0  0  0  0  0  0  0  0  0  0  0  0
   -3.5262   -2.4613    0.6759 H   0  0  0  0  0  0  0  0  0  0  0  0
   -3.0658   -3.0055   -0.9565 H   0  0  0  0  0  0  0  0  0  0  0  0
   -1.4188   -2.3484    0.2587 C   0  0  0  0  0  0  0  0  0  0  0  0
   -0.5118   -2.9518    0.8110 O   0  0  0  0  0  0  0  0  0  0  0  0
   -1.2378   -1.0401   -0.1481 N   0  0  0  0  0  0  0  0  0  0  0  0
   -2.0505   -0.5436   -0.5077 H   0  0  0  0  0  0  0  0  0  0  0  0
    0.0614   -0.3498   -0.2034 C   0  0  1  0  0  0  0  0  0  0  0  0
    0.7930   -0.9143    0.3845 H   0  0  0  0  0  0  0  0  0  0  0  0
    0.6027   -0.2171   -1.6527 C   0  0  0  0  0  0  0  0  0  0  0  0
    0.2374    0.7236   -2.0765 H   0  0  0  0  0  0  0  0  0  0  0  0
    1.6927   -0.1550   -1.6221 H   0  0  0  0  0  0  0  0  0  0  0  0
    0.2193   -1.3075   -2.6503 C   0  0  0  0  0  0  0  0  0  0  0  0
    0.2836   -2.4792   -2.3288 O   0  0  0  0  0  0  0  0  0  0  0  0
   -0.1665   -0.9042   -3.8800 O   0  0  0  0  0  0  0  0  0  0  0  0
   -0.3492   -1.7224   -4.3671 H   0  0  0  0  0  0  0  0  0  0  0  0
   -0.0519    1.0619    0.4035 C   0  0  0  0  0  0  0  0  0  0  0  0
   -0.9858    1.7890    0.0866 O   0  0  0  0  0  0  0  0  0  0  0  0
    0.9101    1.5286    1.2799 N   0  0  0  0  0  0  0  0  0  0  0  0
    1.6244    0.8735    1.5863 H   0  0  0  0  0  0  0  0  0  0  0  0
    0.8398    2.8392    1.9153 C   0  0  0  0  0  0  0  0  0  0  0  0
   -0.0566    2.9148    2.5399 H   0  0  0  0  0  0  0  0  0  0  0  0
    1.7178    3.0007    2.5481 H   0  0  0  0  0  0  0  0  0  0  0  0
    0.8100    3.6311    1.1593 H   0  0  0  0  0  0  0  0  0  0  0  0
  1  2  1  0  0  0  0
  2  3  1  0  0  0  0
  2  4  1  0  0  0  0
  2  5  1  0  0  0  0
  5  6  2  0  0  0  0
  5  7  1  0  0  0  0
  7  8  1  0  0  0  0
  7  9  1  0  0  0  0
  9 10  1  0  0  0  0
  9 11  1  0  0  0  0
  9 18  1  0  0  0  0
 11 12  1  0  0  0  0
 11 13  1  0  0  0  0
 11 14  1  0  0  0  0
 14 15  2  0  0  0  0
 14 16  1  0  0  0  0
 16 17  1  0  0  0  0
 18 19  2  0  0  0  0
 18 20  1  0  0  0  0
 20 21  1  0  0  0  0
 20 22  1  0  0  0  0
 22 23  1  0  0  0  0
 22 24  1  0  0  0  0
 22 25  1  0  0  0  0
M  END
$$$$

  -OEChem-03222214023D

 25 24  0     1  0  0  0  0  0999 V2000
   -2.7512   -4.0436    0.4935 H   0  0  0  0  0  0  0  0  0  0  0  0
   -2.7891   -3.0148    0.1250 C   0  0  0  0  0  0  0  0  0  0  0  0
   -3.5458   -2.4643    0.6887 H   0  0  0  0  0  0  0  0  0  0  0  0
   -3.0677   -3.0307   -0.9314 H   0  0  0  0  0  0  0  0  0  0  0  0
   -1.4348   -2.3521    0.2895 C   0  0  0  0  0  0  0  0  0  0  0  0
   -0.5281   -2.9493    0.8503 O   0  0  0  0  0  0  0  0  0  0  0  0
   -1.2548   -1.0463   -0.1265 N   0  0  0  0  0  0  0  0  0  0  0  0
   -2.0637   -0.5612   -0.5086 H   0  0  0  0  0  0  0  0  0  0  0  0
    0.0468   -0.3626   -0.1953 C   0  0  1  0  0  0  0  0  0  0  0  0
    0.7777   -0.9254    0.3949 H   0  0  0  0  0  0  0  0  0  0  0  0
    0.5975   -0.2305   -1.6441 C   0  0  0  0  0  0  0  0  0  0  0  0
    0.2342    0.7133   -2.0625 H   0  0  0  0  0  0  0  0  0  0  0  0
    1.6867   -0.1632   -1.6000 H   0  0  0  0  0  0  0  0  0  0  0  0
    0.2402   -1.2986   -2.6789 C   0  0  0  0  0  0  0  0  0  0  0  0
    0.0324   -2.4517   -2.3512 O   0  0  0  0  0  0  0  0  0  0  0  0
    0.1978   -0.8866   -3.9643 O   0  0  0  0  0  0  0  0  0  0  0  0
   -0.0224   -1.6804   -4.4758 H   0  0  0  0  0  0  0  0  0  0  0  0
   -0.0621    1.0520    0.4063 C   0  0  0  0  0  0  0  0  0  0  0  0
   -0.9905    1.7835    0.0832 O   0  0  0  0  0  0  0  0  0  0  0  0
    0.9058    1.5209    1.2751 N   0  0  0  0  0  0  0  0  0  0  0  0
    1.6145    0.8632    1.5889 H   0  0  0  0  0  0  0  0  0  0  0  0
    0.8491    2.8403    1.8933 C   0  0  0  0  0  0  0  0  0  0  0  0
   -0.0438    2.9313    2.5207 H   0  0  0  0  0  0  0  0  0  0  0  0
    1.7313    3.0032    2.5197 H   0  0  0  0  0  0  0  0  0  0  0  0
    0.8221    3.6220    1.1268 H   0  0  0  0  0  0  0  0  0  0  0  0
  1  2  1  0  0  0  0
  2  3  1  0  0  0  0
  2  4  1  0  0  0  0
  2  5  1  0  0  0  0
  5  6  2  0  0  0  0
  5  7  1  0  0  0  0
  7  8  1  0  0  0  0
  7  9  1  0  0  0  0
  9 10  1  0  0  0  0
  9 11  1  0  0  0  0
  9 18  1  0  0  0  0
 11 12  1  0  0  0  0
 11 13  1  0  0  0  0
 11 14  1  0  0  0  0
 14 15  2  0  0  0  0
 14 16  1  0  0  0  0
 16 17  1  0  0  0  0
 18 19  2  0  0  0  0
 18 20  1  0  0  0  0
 20 21  1  0  0  0  0
 20 22  1  0  0  0  0
 22 23  1  0  0  0  0
 22 24  1  0  0  0  0
 22 25  1  0  0  0  0
M  END
$$$$

  -OEChem-03222214023D

 25 24  0     1  0  0  0  0  0999 V2000
   -2.7645   -4.0374    0.5322 H   0  0  0  0  0  0  0  0  0  0  0  0
   -2.7993   -3.0144    0.1479 C   0  0  0  0  0  0  0  0  0  0  0  0
   -3.5621   -2.4561    0.6954 H   0  0  0  0  0  0  0  0  0  0  0  0
   -3.0674   -3.0466   -0.9109 H   0  0  0  0  0  0  0  0  0  0  0  0
   -1.4475   -2.3473    0.3144 C   0  0  0  0  0  0  0  0  0  0  0  0
   -0.5372   -2.9428    0.8722 O   0  0  0  0  0  0  0  0  0  0  0  0
   -1.2685   -1.0441   -0.1104 N   0  0  0  0  0  0  0  0  0  0  0  0
   -2.0729   -0.5709   -0.5156 H   0  0  0  0  0  0  0  0  0  0  0  0
    0.0353   -0.3675   -0.1940 C   0  0  1  0  0  0  0  0  0  0  0  0
    0.7646   -0.9284    0.3996 H   0  0  0  0  0  0  0  0  0  0  0  0
    0.5933   -0.2447   -1.6429 C   0  0  0  0  0  0  0  0  0  0  0  0
    0.2349    0.6997   -2.0637 H   0  0  0  0  0  0  0  0  0  0  0  0
    1.6821   -0.1766   -1.5868 H   0  0  0  0  0  0  0  0  0  0  0  0
    0.2558   -1.3006   -2.6999 C   0  0  0  0  0  0  0  0  0  0  0  0
   -0.2146   -2.3847   -2.4102 O   0  0  0  0  0  0  0  0  0  0  0  0
    0.5381   -0.9483   -3.9723 O   0  0  0  0  0  0  0  0  0  0  0  0
    0.2850   -1.7164   -4.5074 H   0  0  0  0  0  0  0  0  0  0  0  0
   -0.0649    1.0505    0.4016 C   0  0  0  0  0  0  0  0  0  0  0  0
   -0.9893    1.7865    0.0768 O   0  0  0  0  0  0  0  0  0  0  0  0
    0.9115    1.5202    1.2608 N   0  0  0  0  0  0  0  0  0  0  0  0
    1.6150    0.8588    1.5782 H   0  0  0  0  0  0  0  0  0  0  0  0
    0.8542    2.8363    1.8860 C   0  0  0  0  0  0  0  0  0  0  0  0
   -0.0390    2.9235    2.5136 H   0  0  0  0  0  0  0  0  0  0  0  0
    1.7360    2.9960    2.5139 H   0  0  0  0  0  0  0  0  0  0  0  0
    0.8273    3.6224    1.1239 H   0  0  0  0  0  0  0  0  0  0  0  0
  1  2  1  0  0  0  0
  2  3  1  0  0  0  0
  2  4  1  0  0  0  0
  2  5  1  0  0  0  0
  5  6  2  0  0  0  0
  5  7  1  0  0  0  0
  7  8  1  0  0  0  0
  7  9  1  0  0  0  0
  9 10  1  0  0  0  0
  9 11  1  0  0  0  0
  9 18  1  0  0  0  0
 11 12  1  0  0  0  0
 11 13  1  0  0  0  0
 11 14  1  0  0  0  0
 14 15  2  0  0  0  0
 14 16  1  0  0  0  0
 16 17  1  0  0  0  0
 18 19  2  0  0  0  0
 18 20  1  0  0  0  0
 20 21  1  0  0  0  0
 20 22  1  0  0  0  0
 22 23  1  0  0  0  0
 22 24  1  0  0  0  0
 22 25  1  0  0  0  0
M  END
$$$$

  -OEChem-03222214023D

 25 24  0     1  0  0  0  0  0999 V2000
   -2.7707   -4.0392    0.5371 H   0  0  0  0  0  0  0  0  0  0  0  0
   -2.8110   -3.0121    0.1646 C   0  0  0  0  0  0  0  0  0  0  0  0
   -3.5669   -2.4605    0.7281 H   0  0  0  0  0  0  0  0  0  0  0  0
   -3.0926   -3.0320   -0.8912 H   0  0  0  0  0  0  0  0  0  0  0  0
   -1.4573   -2.3463    0.3212 C   0  0  0  0  0  0  0  0  0  0  0  0
   -0.5388   -2.9480    0.8589 O   0  0  0  0  0  0  0  0  0  0  0  0
   -1.2803   -1.0430   -0.1035 N   0  0  0  0  0  0  0  0  0  0  0  0
   -2.0821   -0.5789   -0.5244 H   0  0  0  0  0  0  0  0  0  0  0  0
    0.0234   -0.3681   -0.1944 C   0  0  1  0  0  0  0  0  0  0  0  0
    0.7508   -0.9286    0.4016 H   0  0  0  0  0  0  0  0  0  0  0  0
    0.5920   -0.2507   -1.6404 C   0  0  0  0  0  0  0  0  0  0  0  0
    0.2392    0.6935   -2.0656 H   0  0  0  0  0  0  0  0  0  0  0  0
    1.6801   -0.1819   -1.5702 H   0  0  0  0  0  0  0  0  0  0  0  0
    0.2727   -1.3019   -2.7097 C   0  0  0  0  0  0  0  0  0  0  0  0
   -0.4310   -2.2714   -2.4946 O   0  0  0  0  0  0  0  0  0  0  0  0
    0.8452   -1.0747   -3.9111 O   0  0  0  0  0  0  0  0  0  0  0  0
    0.5637   -1.8175   -4.4673 H   0  0  0  0  0  0  0  0  0  0  0  0
   -0.0712    1.0497    0.4024 C   0  0  0  0  0  0  0  0  0  0  0  0
   -0.9939    1.7889    0.0807 O   0  0  0  0  0  0  0  0  0  0  0  0
    0.9110    1.5174    1.2559 N   0  0  0  0  0  0  0  0  0  0  0  0
    1.6165    0.8555    1.5673 H   0  0  0  0  0  0  0  0  0  0  0  0
    0.8603    2.8341    1.8803 C   0  0  0  0  0  0  0  0  0  0  0  0
   -0.0384    2.9302    2.4988 H   0  0  0  0  0  0  0  0  0  0  0  0
    1.7371    2.9851    2.5175 H   0  0  0  0  0  0  0  0  0  0  0  0
    0.8488    3.6200    1.1178 H   0  0  0  0  0  0  0  0  0  0  0  0
  1  2  1  0  0  0  0
  2  3  1  0  0  0  0
  2  4  1  0  0  0  0
  2  5  1  0  0  0  0
  5  6  2  0  0  0  0
  5  7  1  0  0  0  0
  7  8  1  0  0  0  0
  7  9  1  0  0  0  0
  9 10  1  0  0  0  0
  9 11  1  0  0  0  0
  9 18  1  0  0  0  0
 11 12  1  0  0  0  0
 11 13  1  0  0  0  0
 11 14  1  0  0  0  0
 14 15  2  0  0  0  0
 14 16  1  0  0  0  0
 16 17  1  0  0  0  0
 18 19  2  0  0  0  0
 18 20  1  0  0  0  0
 20 21  1  0  0  0  0
 20 22  1  0  0  0  0
 22 23  1  0  0  0  0
 22 24  1  0  0  0  0
 22 25  1  0  0  0  0
M  END
$$$$

  -OEChem-03222214023D

 25 24  0     1  0  0  0  0  0999 V2000
   -2.7751   -4.0410    0.5276 H   0  0  0  0  0  0  0  0  0  0  0  0
   -2.8154   -3.0134    0.1562 C   0  0  0  0  0  0  0  0  0  0  0  0
   -3.5709   -2.4617    0.7204 H   0  0  0  0  0  0  0  0  0  0  0  0
   -3.0975   -3.0319   -0.8996 H   0  0  0  0  0  0  0  0  0  0  0  0
   -1.4618   -2.3474    0.3126 C   0  0  0  0  0  0  0  0  0  0  0  0
   -0.5356   -2.9569    0.8278 O   0  0  0  0  0  0  0  0  0  0  0  0
   -1.2888   -1.0413   -0.1031 N   0  0  0  0  0  0  0  0  0  0  0  0
   -2.0889   -0.5834   -0.5340 H   0  0  0  0  0  0  0  0  0  0  0  0
    0.0121   -0.3625   -0.1913 C   0  0  1  0  0  0  0  0  0  0  0  0
    0.7373   -0.9232    0.4069 H   0  0  0  0  0  0  0  0  0  0  0  0
    0.5899   -0.2485   -1.6334 C   0  0  0  0  0  0  0  0  0  0  0  0
    0.2387    0.6932   -2.0653 H   0  0  0  0  0  0  0  0  0  0  0  0
    1.6773   -0.1768   -1.5524 H   0  0  0  0  0  0  0  0  0  0  0  0
    0.2816   -1.3058   -2.7013 C   0  0  0  0  0  0  0  0  0  0  0  0
   -0.6145   -2.1224   -2.5859 O   0  0  0  0  0  0  0  0  0  0  0  0
    1.0844   -1.2601   -3.7859 O   0  0  0  0  0  0  0  0  0  0  0  0
    0.7761   -1.9815   -4.3560 H   0  0  0  0  0  0  0  0  0  0  0  0
   -0.0792    1.0522    0.4130 C   0  0  0  0  0  0  0  0  0  0  0  0
   -0.9978    1.7965    0.0921 O   0  0  0  0  0  0  0  0  0  0  0  0
    0.9061    1.5145    1.2661 N   0  0  0  0  0  0  0  0  0  0  0  0
    1.6148    0.8522    1.5693 H   0  0  0  0  0  0  0  0  0  0  0  0
    0.8724    2.8369    1.8795 C   0  0  0  0  0  0  0  0  0  0  0  0
   -0.0150    2.9438    2.5121 H   0  0  0  0  0  0  0  0  0  0  0  0
    1.7608    2.9890    2.5000 H   0  0  0  0  0  0  0  0  0  0  0  0
    0.8522    3.6161    1.1102 H   0  0  0  0  0  0  0  0  0  0  0  0
  1  2  1  0  0  0  0
  2  3  1  0  0  0  0
  2  4  1  0  0  0  0
  2  5  1  0  0  0  0
  5  6  2  0  0  0  0
  5  7  1  0  0  0  0
  7  8  1  0  0  0  0
  7  9  1  0  0  0  0
  9 10  1  0  0  0  0
  9 11  1  0  0  0  0
  9 18  1  0  0  0  0
 11 12  1  0  0  0  0
 11 13  1  0  0  0  0
 11 14  1  0  0  0  0
 14 15  2  0  0  0  0
 14 16  1  0  0  0  0
 16 17  1  0  0  0  0
 18 19  2  0  0  0  0
 18 20  1  0  0  0  0
 20 21  1  0  0  0  0
 20 22  1  0  0  0  0
 22 23  1  0  0  0  0
 22 24  1  0  0  0  0
 22 25  1  0  0  0  0
M  END
$$$$

  -OEChem-03222214023D

 25 24  0     1  0  0  0  0  0999 V2000
   -2.7673   -4.0411    0.4979 H   0  0  0  0  0  0  0  0  0  0  0  0
   -2.8117   -3.0075    0.1442 C   0  0  0  0  0  0  0  0  0  0  0  0
   -3.5586   -2.4650    0.7284 H   0  0  0  0  0  0  0  0  0  0  0  0
   -3.1096   -3.0080   -0.9073 H   0  0  0  0  0  0  0  0  0  0  0  0
   -1.4556   -2.3452    0.2923 C   0  0  0  0  0  0  0  0  0  0  0  0
   -0.5213   -2.9653    0.7794 O   0  0  0  0  0  0  0  0  0  0  0  0
   -1.2843   -1.0364   -0.1137 N   0  0  0  0  0  0  0  0  0  0  0  0
   -2.0838   -0.5794   -0.5473 H   0  0  0  0  0  0  0  0  0  0  0  0
    0.0137   -0.3524   -0.1945 C   0  0  1  0  0  0  0  0  0  0  0  0
    0.7371   -0.9131    0.4059 H   0  0  0  0  0  0  0  0  0  0  0  0
    0.5959   -0.2423   -1.6339 C   0  0  0  0  0  0  0  0  0  0  0  0
    0.2428    0.6945   -2.0742 H   0  0  0  0  0  0  0  0  0  0  0  0
    1.6830   -0.1660   -1.5507 H   0  0  0  0  0  0  0  0  0  0  0  0
    0.2844   -1.3149   -2.6852 C   0  0  0  0  0  0  0  0  0  0  0  0
   -0.7580   -1.9462   -2.6855 O   0  0  0  0  0  0  0  0  0  0  0  0
    1.2463   -1.5013   -3.6144 O   0  0  0  0  0  0  0  0  0  0  0  0
    0.9068   -2.2047   -4.1892 H   0  0  0  0  0  0  0  0  0  0  0  0
   -0.0798    1.0589    0.4170 C   0  0  0  0  0  0  0  0  0  0  0  0
   -0.9970    1.8051    0.0971 O   0  0  0  0  0  0  0  0  0  0  0  0
    0.9038    1.5177    1.2740 N   0  0  0  0  0  0  0  0  0  0  0  0
    1.6133    0.8550    1.5742 H   0  0  0  0  0  0  0  0  0  0  0  0
    0.8696    2.8379    1.8921 C   0  0  0  0  0  0  0  0  0  0  0  0
   -0.0233    2.9458    2.5170 H   0  0  0  0  0  0  0  0  0  0  0  0
    1.7527    2.9839    2.5215 H   0  0  0  0  0  0  0  0  0  0  0  0
    0.8597    3.6200    1.1256 H   0  0  0  0  0  0  0  0  0  0  0  0
  1  2  1  0  0  0  0
  2  3  1  0  0  0  0
  2  4  1  0  0  0  0
  2  5  1  0  0  0  0
  5  6  2  0  0  0  0
  5  7  1  0  0  0  0
  7  8  1  0  0  0  0
  7  9  1  0  0  0  0
  9 10  1  0  0  0  0
  9 11  1  0  0  0  0
  9 18  1  0  0  0  0
 11 12  1  0  0  0  0
 11 13  1  0  0  0  0
 11 14  1  0  0  0  0
 14 15  2  0  0  0  0
 14 16  1  0  0  0  0
 16 17  1  0  0  0  0
 18 19  2  0  0  0  0
 18 20  1  0  0  0  0
 20 21  1  0  0  0  0
 20 22  1  0  0  0  0
 22 23  1  0  0  0  0
 22 24  1  0  0  0  0
 22 25  1  0  0  0  0
M  END
$$$$

  -OEChem-03222214023D

 25 24  0     1  0  0  0  0  0999 V2000
   -2.7517   -4.0429    0.4564 H   0  0  0  0  0  0  0  0  0  0  0  0
   -2.8002   -3.0038    0.1196 C   0  0  0  0  0  0  0  0  0  0  0  0
   -3.5406   -2.4708    0.7207 H   0  0  0  0  0  0  0  0  0  0  0  0
   -3.1100   -2.9872   -0.9284 H   0  0  0  0  0  0  0  0  0  0  0  0
   -1.4423   -2.3435    0.2634 C   0  0  0  0  0  0  0  0  0  0  0  0
   -0.5007   -2.9733    0.7225 O   0  0  0  0  0  0  0  0  0  0  0  0
   -1.2727   -1.0315   -0.1309 N   0  0  0  0  0  0  0  0  0  0  0  0
   -2.0741   -0.5703   -0.5575 H   0  0  0  0  0  0  0  0  0  0  0  0
    0.0213   -0.3385   -0.1987 C   0  0  1  0  0  0  0  0  0  0  0  0
    0.7440   -0.8996    0.4026 H   0  0  0  0  0  0  0  0  0  0  0  0
    0.6039   -0.2308   -1.6356 C   0  0  0  0  0  0  0  0  0  0  0  0
    0.2454    0.6993   -2.0859 H   0  0  0  0  0  0  0  0  0  0  0  0
    1.6911   -0.1508   -1.5581 H   0  0  0  0  0  0  0  0  0  0  0  0
    0.2791   -1.3268   -2.6557 C   0  0  0  0  0  0  0  0  0  0  0  0
   -0.8541   -1.7573   -2.7896 O   0  0  0  0  0  0  0  0  0  0  0  0
    1.3207   -1.7709   -3.3919 O   0  0  0  0  0  0  0  0  0  0  0  0
    0.9489   -2.4608   -3.9630 H   0  0  0  0  0  0  0  0  0  0  0  0
   -0.0767    1.0689    0.4203 C   0  0  0  0  0  0  0  0  0  0  0  0
   -0.9974    1.8129    0.1060 O   0  0  0  0  0  0  0  0  0  0  0  0
    0.9023    1.5251    1.2838 N   0  0  0  0  0  0  0  0  0  0  0  0
    1.6174    0.8651    1.5768 H   0  0  0  0  0  0  0  0  0  0  0  0
    0.8626    2.8421    1.9084 C   0  0  0  0  0  0  0  0  0  0  0  0
   -0.0341    2.9455    2.5286 H   0  0  0  0  0  0  0  0  0  0  0  0
    1.7418    2.9862    2.5438 H   0  0  0  0  0  0  0  0  0  0  0  0
    0.8561    3.6279    1.1455 H   0  0  0  0  0  0  0  0  0  0  0  0
  1  2  1  0  0  0  0
  2  3  1  0  0  0  0
  2  4  1  0  0  0  0
  2  5  1  0  0  0  0
  5  6  2  0  0  0  0
  5  7  1  0  0  0  0
  7  8  1  0  0  0  0
  7  9  1  0  0  0  0
  9 10  1  0  0  0  0
  9 11  1  0  0  0  0
  9 18  1  0  0  0  0
 11 12  1  0  0  0  0
 11 13  1  0  0  0  0
 11 14  1  0  0  0  0
 14 15  2  0  0  0  0
 14 16  1  0  0  0  0
 16 17  1  0  0  0  0
 18 19  2  0  0  0  0
 18 20  1  0  0  0  0
 20 21  1  0  0  0  0
 20 22  1  0  0  0  0
 22 23  1  0  0  0  0
 22 24  1  0  0  0  0
 22 25  1  0  0  0  0
M  END
$$$$

  -OEChem-03222214023D

 25 24  0     1  0  0  0  0  0999 V2000
   -2.7374   -4.0417    0.4124 H   0  0  0  0  0  0  0  0  0  0  0  0
   -2.7855   -2.9964    0.0954 C   0  0  0  0  0  0  0  0  0  0  0  0
   -3.5110   -2.4699    0.7200 H   0  0  0  0  0  0  0  0  0  0  0  0
   -3.1152   -2.9588   -0.9461 H   0  0  0  0  0  0  0  0  0  0  0  0
   -1.4215   -2.3467    0.2258 C   0  0  0  0  0  0  0  0  0  0  0  0
   -0.4730   -2.9897    0.6501 O   0  0  0  0  0  0  0  0  0  0  0  0
   -1.2515   -1.0314   -0.1551 N   0  0  0  0  0  0  0  0  0  0  0  0
   -2.0606   -0.5548   -0.5500 H   0  0  0  0  0  0  0  0  0  0  0  0
    0.0370   -0.3265   -0.2057 C   0  0  1  0  0  0  0  0  0  0  0  0
    0.7597   -0.8870    0.3963 H   0  0  0  0  0  0  0  0  0  0  0  0
    0.6160   -0.2189   -1.6409 C   0  0  0  0  0  0  0  0  0  0  0  0
    0.2482    0.7032   -2.1005 H   0  0  0  0  0  0  0  0  0  0  0  0
    1.7039   -0.1361   -1.5764 H   0  0  0  0  0  0  0  0  0  0  0  0
    0.2714   -1.3419   -2.6197 C   0  0  0  0  0  0  0  0  0  0  0  0
   -0.8910   -1.5761   -2.9080 O   0  0  0  0  0  0  0  0  0  0  0  0
    1.3107   -2.0355   -3.1324 O   0  0  0  0  0  0  0  0  0  0  0  0
    0.9085   -2.7124   -3.6981 H   0  0  0  0  0  0  0  0  0  0  0  0
   -0.0720    1.0761    0.4213 C   0  0  0  0  0  0  0  0  0  0  0  0
   -1.0012    1.8123    0.1142 O   0  0  0  0  0  0  0  0  0  0  0  0
    0.8977    1.5327    1.2950 N   0  0  0  0  0  0  0  0  0  0  0  0
    1.6234    0.8803    1.5787 H   0  0  0  0  0  0  0  0  0  0  0  0
    0.8484    2.8476    1.9236 C   0  0  0  0  0  0  0  0  0  0  0  0
   -0.0554    2.9473    2.5339 H   0  0  0  0  0  0  0  0  0  0  0  0
    1.7198    2.9915    2.5695 H   0  0  0  0  0  0  0  0  0  0  0  0
    0.8489    3.6359    1.1634 H   0  0  0  0  0  0  0  0  0  0  0  0
  1  2  1  0  0  0  0
  2  3  1  0  0  0  0
  2  4  1  0  0  0  0
  2  5  1  0  0  0  0
  5  6  2  0  0  0  0
  5  7  1  0  0  0  0
  7  8  1  0  0  0  0
  7  9  1  0  0  0  0
  9 10  1  0  0  0  0
  9 11  1  0  0  0  0
  9 18  1  0  0  0  0
 11 12  1  0  0  0  0
 11 13  1  0  0  0  0
 11 14  1  0  0  0  0
 14 15  2  0  0  0  0
 14 16  1  0  0  0  0
 16 17  1  0  0  0  0
 18 19  2  0  0  0  0
 18 20  1  0  0  0  0
 20 21  1  0  0  0  0
 20 22  1  0  0  0  0
 22 23  1  0  0  0  0
 22 24  1  0  0  0  0
 22 25  1  0  0  0  0
M  END
$$$$

  -OEChem-03222214023D

 25 24  0     1  0  0  0  0  0999 V2000
   -2.7287   -4.0361    0.3924 H   0  0  0  0  0  0  0  0  0  0  0  0
   -2.7750   -2.9882    0.0836 C   0  0  0  0  0  0  0  0  0  0  0  0
   -3.4853   -2.4616    0.7253 H   0  0  0  0  0  0  0  0  0  0  0  0
   -3.1236   -2.9404   -0.9511 H   0  0  0  0  0  0  0  0  0  0  0  0
   -1.4043   -2.3486    0.1942 C   0  0  0  0  0  0  0  0  0  0  0  0
   -0.4534   -3.0000    0.5984 O   0  0  0  0  0  0  0  0  0  0  0  0
   -1.2317   -1.0321   -0.1809 N   0  0  0  0  0  0  0  0  0  0  0  0
   -2.0475   -0.5406   -0.5433 H   0  0  0  0  0  0  0  0  0  0  0  0
    0.0540   -0.3186   -0.2144 C   0  0  1  0  0  0  0  0  0  0  0  0
    0.7759   -0.8784    0.3893 H   0  0  0  0  0  0  0  0  0  0  0  0
    0.6294   -0.2119   -1.6477 C   0  0  0  0  0  0  0  0  0  0  0  0
    0.2567    0.7043   -2.1154 H   0  0  0  0  0  0  0  0  0  0  0  0
    1.7178   -0.1309   -1.5954 H   0  0  0  0  0  0  0  0  0  0  0  0
    0.2646   -1.3576   -2.5863 C   0  0  0  0  0  0  0  0  0  0  0  0
   -0.8605   -1.4179   -3.0545 O   0  0  0  0  0  0  0  0  0  0  0  0
    1.2310   -2.2599   -2.8609 O   0  0  0  0  0  0  0  0  0  0  0  0
    0.8109   -2.9161   -3.4373 H   0  0  0  0  0  0  0  0  0  0  0  0
   -0.0644    1.0827    0.4129 C   0  0  0  0  0  0  0  0  0  0  0  0
   -0.9997    1.8115    0.1074 O   0  0  0  0  0  0  0  0  0  0  0  0
    0.8957    1.5397    1.2969 N   0  0  0  0  0  0  0  0  0  0  0  0
    1.6257    0.8914    1.5787 H   0  0  0  0  0  0  0  0  0  0  0  0
    0.8317    2.8485    1.9367 C   0  0  0  0  0  0  0  0  0  0  0  0
   -0.0753    2.9345    2.5444 H   0  0  0  0  0  0  0  0  0  0  0  0
    1.6993    2.9950    2.5873 H   0  0  0  0  0  0  0  0  0  0  0  0
    0.8277    3.6435    1.1833 H   0  0  0  0  0  0  0  0  0  0  0  0
  1  2  1  0  0  0  0
  2  3  1  0  0  0  0
  2  4  1  0  0  0  0
  2  5  1  0  0  0  0
  5  6  2  0  0  0  0
  5  7  1  0  0  0  0
  7  8  1  0  0  0  0
  7  9  1  0  0  0  0
  9 10  1  0  0  0  0
  9 11  1  0  0  0  0
  9 18  1  0  0  0  0
 11 12  1  0  0  0  0
 11 13  1  0  0  0  0
 11 14  1  0  0  0  0
 14 15  2  0  0  0  0
 14 16  1  0  0  0  0
 16 17  1  0  0  0  0
 18 19  2  0  0  0  0
 18 20  1  0  0  0  0
 20 21  1  0  0  0  0
 20 22  1  0  0  0  0
 22 23  1  0  0  0  0
 22 24  1  0  0  0  0
 22 25  1  0  0  0  0
M  END
$$$$

  -OEChem-03222214023D

 25 24  0     1  0  0  0  0  0999 V2000
   -2.7347   -4.0256    0.3994 H   0  0  0  0  0  0  0  0  0  0  0  0
   -2.7767   -2.9771    0.0918 C   0  0  0  0  0  0  0  0  0  0  0  0
   -3.4669   -2.4433    0.7496 H   0  0  0  0  0  0  0  0  0  0  0  0
   -3.1481   -2.9250   -0.9348 H   0  0  0  0  0  0  0  0  0  0  0  0
   -1.3969   -2.3527    0.1727 C   0  0  0  0  0  0  0  0  0  0  0  0
   -0.4469   -3.0139    0.5612 O   0  0  0  0  0  0  0  0  0  0  0  0
   -1.2184   -1.0364   -0.2008 N   0  0  0  0  0  0  0  0  0  0  0  0
   -2.0424   -0.5225   -0.5106 H   0  0  0  0  0  0  0  0  0  0  0  0
    0.0674   -0.3203   -0.2217 C   0  0  1  0  0  0  0  0  0  0  0  0
    0.7871   -0.8805    0.3848 H   0  0  0  0  0  0  0  0  0  0  0  0
    0.6431   -0.2116   -1.6528 C   0  0  0  0  0  0  0  0  0  0  0  0
    0.2728    0.7049   -2.1227 H   0  0  0  0  0  0  0  0  0  0  0  0
    1.7322   -0.1387   -1.6049 H   0  0  0  0  0  0  0  0  0  0  0  0
    0.2652   -1.3678   -2.5693 C   0  0  0  0  0  0  0  0  0  0  0  0
   -0.7526   -1.2889   -3.2361 O   0  0  0  0  0  0  0  0  0  0  0  0
    1.1055   -2.4235   -2.6165 O   0  0  0  0  0  0  0  0  0  0  0  0
    0.6903   -3.0562   -3.2214 H   0  0  0  0  0  0  0  0  0  0  0  0
   -0.0594    1.0809    0.4038 C   0  0  0  0  0  0  0  0  0  0  0  0
   -1.0040    1.7997    0.1030 O   0  0  0  0  0  0  0  0  0  0  0  0
    0.8908    1.5406    1.2969 N   0  0  0  0  0  0  0  0  0  0  0  0
    1.6292    0.8996    1.5742 H   0  0  0  0  0  0  0  0  0  0  0  0
    0.8144    2.8469    1.9403 C   0  0  0  0  0  0  0  0  0  0  0  0
   -0.0978    2.9259    2.5411 H   0  0  0  0  0  0  0  0  0  0  0  0
    1.6761    2.9956    2.5983 H   0  0  0  0  0  0  0  0  0  0  0  0
    0.8123    3.6441    1.1895 H   0  0  0  0  0  0  0  0  0  0  0  0
  1  2  1  0  0  0  0
  2  3  1  0  0  0  0
  2  4  1  0  0  0  0
  2  5  1  0  0  0  0
  5  6  2  0  0  0  0
  5  7  1  0  0  0  0
  7  8  1  0  0  0  0
  7  9  1  0  0  0  0
  9 10  1  0  0  0  0
  9 11  1  0  0  0  0
  9 18  1  0  0  0  0
 11 12  1  0  0  0  0
 11 13  1  0  0  0  0
 11 14  1  0  0  0  0
 14 15  2  0  0  0  0
 14 16  1  0  0  0  0
 16 17  1  0  0  0  0
 18 19  2  0  0  0  0
 18 20  1  0  0  0  0
 20 21  1  0  0  0  0
 20 22  1  0  0  0  0
 22 23  1  0  0  0  0
 22 24  1  0  0  0  0
 22 25  1  0  0  0  0
M  END
$$$$

  -OEChem-03222214023D

 25 24  0     1  0  0  0  0  0999 V2000
   -2.7520   -4.0130    0.4265 H   0  0  0  0  0  0  0  0  0  0  0  0
   -2.7869   -2.9655    0.1141 C   0  0  0  0  0  0  0  0  0  0  0  0
   -3.4651   -2.4223    0.7766 H   0  0  0  0  0  0  0  0  0  0  0  0
   -3.1691   -2.9154   -0.9085 H   0  0  0  0  0  0  0  0  0  0  0  0
   -1.4004   -2.3536    0.1783 C   0  0  0  0  0  0  0  0  0  0  0  0
   -0.4575   -3.0170    0.5791 O   0  0  0  0  0  0  0  0  0  0  0  0
   -1.2144   -1.0402   -0.2028 N   0  0  0  0  0  0  0  0  0  0  0  0
   -2.0407   -0.5134   -0.4834 H   0  0  0  0  0  0  0  0  0  0  0  0
    0.0742   -0.3280   -0.2226 C   0  0  1  0  0  0  0  0  0  0  0  0
    0.7925   -0.8881    0.3856 H   0  0  0  0  0  0  0  0  0  0  0  0
    0.6477   -0.2200   -1.6548 C   0  0  0  0  0  0  0  0  0  0  0  0
    0.2819    0.6999   -2.1218 H   0  0  0  0  0  0  0  0  0  0  0  0
    1.7373   -0.1548   -1.6090 H   0  0  0  0  0  0  0  0  0  0  0  0
    0.2640   -1.3746   -2.5703 C   0  0  0  0  0  0  0  0  0  0  0  0
   -0.5828   -1.1916   -3.4273 O   0  0  0  0  0  0  0  0  0  0  0  0
    0.9414   -2.5340   -2.4306 O   0  0  0  0  0  0  0  0  0  0  0  0
    0.5643   -3.1362   -3.0888 H   0  0  0  0  0  0  0  0  0  0  0  0
   -0.0559    1.0767    0.3950 C   0  0  0  0  0  0  0  0  0  0  0  0
   -1.0064    1.7882    0.0952 O   0  0  0  0  0  0  0  0  0  0  0  0
    0.8895    1.5409    1.2909 N   0  0  0  0  0  0  0  0  0  0  0  0
    1.6318    0.9042    1.5672 H   0  0  0  0  0  0  0  0  0  0  0  0
    0.8019    2.8437    1.9400 C   0  0  0  0  0  0  0  0  0  0  0  0
   -0.1212    2.9204    2.5243 H   0  0  0  0  0  0  0  0  0  0  0  0
    1.6510    2.9877    2.6151 H   0  0  0  0  0  0  0  0  0  0  0  0
    0.8142    3.6455    1.1940 H   0  0  0  0  0  0  0  0  0  0  0  0
  1  2  1  0  0  0  0
  2  3  1  0  0  0  0
  2  4  1  0  0  0  0
  2  5  1  0  0  0  0
  5  6  2  0  0  0  0
  5  7  1  0  0  0  0
  7  8  1  0  0  0  0
  7  9  1  0  0  0  0
  9 10  1  0  0  0  0
  9 11  1  0  0  0  0
  9 18  1  0  0  0  0
 11 12  1  0  0  0  0
 11 13  1  0  0  0  0
 11 14  1  0  0  0  0
 14 15  2  0  0  0  0
 14 16  1  0  0  0  0
 16 17  1  0  0  0  0
 18 19  2  0  0  0  0
 18 20  1  0  0  0  0
 20 21  1  0  0  0  0
 20 22  1  0  0  0  0
 22 23  1  0  0  0  0
 22 24  1  0  0  0  0
 22 25  1  0  0  0  0
M  END
$$$$

  -OEChem-03222214023D

 25 24  0     1  0  0  0  0  0999 V2000
   -2.7702   -4.0064    0.4560 H   0  0  0  0  0  0  0  0  0  0  0  0
   -2.7994   -2.9629    0.1305 C   0  0  0  0  0  0  0  0  0  0  0  0
   -3.4872   -2.4112    0.7758 H   0  0  0  0  0  0  0  0  0  0  0  0
   -3.1656   -2.9254   -0.8984 H   0  0  0  0  0  0  0  0  0  0  0  0
   -1.4131   -2.3521    0.2086 C   0  0  0  0  0  0  0  0  0  0  0  0
   -0.4835   -3.0064    0.6527 O   0  0  0  0  0  0  0  0  0  0  0  0
   -1.2196   -1.0432   -0.1862 N   0  0  0  0  0  0  0  0  0  0  0  0
   -2.0425   -0.5127   -0.4696 H   0  0  0  0  0  0  0  0  0  0  0  0
    0.0743   -0.3404   -0.2126 C   0  0  1  0  0  0  0  0  0  0  0  0
    0.7929   -0.9002    0.3957 H   0  0  0  0  0  0  0  0  0  0  0  0
    0.6434   -0.2293   -1.6482 C   0  0  0  0  0  0  0  0  0  0  0  0
    0.2856    0.6992   -2.1051 H   0  0  0  0  0  0  0  0  0  0  0  0
    1.7331   -0.1736   -1.6021 H   0  0  0  0  0  0  0  0  0  0  0  0
    0.2573   -1.3691   -2.5826 C   0  0  0  0  0  0  0  0  0  0  0  0
   -0.3659   -1.1055   -3.5955 O   0  0  0  0  0  0  0  0  0  0  0  0
    0.7262   -2.6034   -2.3026 O   0  0  0  0  0  0  0  0  0  0  0  0
    0.4102   -3.1716   -3.0205 H   0  0  0  0  0  0  0  0  0  0  0  0
   -0.0542    1.0696    0.3936 C   0  0  0  0  0  0  0  0  0  0  0  0
   -1.0029    1.7808    0.0866 O   0  0  0  0  0  0  0  0  0  0  0  0
    0.8905    1.5384    1.2875 N   0  0  0  0  0  0  0  0  0  0  0  0
    1.6230    0.8975    1.5798 H   0  0  0  0  0  0  0  0  0  0  0  0
    0.8018    2.8447    1.9294 C   0  0  0  0  0  0  0  0  0  0  0  0
   -0.1110    2.9154    2.5305 H   0  0  0  0  0  0  0  0  0  0  0  0
    1.6622    3.0024    2.5869 H   0  0  0  0  0  0  0  0  0  0  0  0
    0.7914    3.6413    1.1779 H   0  0  0  0  0  0  0  0  0  0  0  0
  1  2  1  0  0  0  0
  2  3  1  0  0  0  0
  2  4  1  0  0  0  0
  2  5  1  0  0  0  0
  5  6  2  0  0  0  0
  5  7  1  0  0  0  0
  7  8  1  0  0  0  0
  7  9  1  0  0  0  0
  9 10  1  0  0  0  0
  9 11  1  0  0  0  0
  9 18  1  0  0  0  0
 11 12  1  0  0  0  0
 11 13  1  0  0  0  0
 11 14  1  0  0  0  0
 14 15  2  0  0  0  0
 14 16  1  0  0  0  0
 16 17  1  0  0  0  0
 18 19  2  0  0  0  0
 18 20  1  0  0  0  0
 20 21  1  0  0  0  0
 20 22  1  0  0  0  0
 22 23  1  0  0  0  0
 22 24  1  0  0  0  0
 22 25  1  0  0  0  0
M  END
$$$$

  -OEChem-03222214023D

 25 24  0     1  0  0  0  0  0999 V2000
   -2.7899   -4.0018    0.4928 H   0  0  0  0  0  0  0  0  0  0  0  0
   -2.8145   -2.9623    0.1543 C   0  0  0  0  0  0  0  0  0  0  0  0
   -3.5129   -2.4033    0.7817 H   0  0  0  0  0  0  0  0  0  0  0  0
   -3.1640   -2.9374   -0.8807 H   0  0  0  0  0  0  0  0  0  0  0  0
   -1.4299   -2.3497    0.2471 C   0  0  0  0  0  0  0  0  0  0  0  0
   -0.5122   -2.9915    0.7334 O   0  0  0  0  0  0  0  0  0  0  0  0
   -1.2314   -1.0454   -0.1615 N   0  0  0  0  0  0  0  0  0  0  0  0
   -2.0506   -0.5171   -0.4583 H   0  0  0  0  0  0  0  0  0  0  0  0
    0.0674   -0.3531   -0.2014 C   0  0  1  0  0  0  0  0  0  0  0  0
    0.7875   -0.9133    0.4046 H   0  0  0  0  0  0  0  0  0  0  0  0
    0.6314   -0.2385   -1.6411 C   0  0  0  0  0  0  0  0  0  0  0  0
    0.2794    0.6983   -2.0855 H   0  0  0  0  0  0  0  0  0  0  0  0
    1.7213   -0.1882   -1.5926 H   0  0  0  0  0  0  0  0  0  0  0  0
    0.2510   -1.3565   -2.6067 C   0  0  0  0  0  0  0  0  0  0  0  0
   -0.1080   -1.0415   -3.7270 O   0  0  0  0  0  0  0  0  0  0  0  0
    0.4762   -2.6353   -2.2394 O   0  0  0  0  0  0  0  0  0  0  0  0
    0.2457   -3.1726   -3.0115 H   0  0  0  0  0  0  0  0  0  0  0  0
   -0.0550    1.0623    0.3949 C   0  0  0  0  0  0  0  0  0  0  0  0
   -1.0015    1.7749    0.0836 O   0  0  0  0  0  0  0  0  0  0  0  0
    0.8939    1.5359    1.2820 N   0  0  0  0  0  0  0  0  0  0  0  0
    1.6236    0.8944    1.5800 H   0  0  0  0  0  0  0  0  0  0  0  0
    0.8068    2.8455    1.9173 C   0  0  0  0  0  0  0  0  0  0  0  0
   -0.1048    2.9195    2.5196 H   0  0  0  0  0  0  0  0  0  0  0  0
    1.6684    3.0067    2.5723 H   0  0  0  0  0  0  0  0  0  0  0  0
    0.7951    3.6385    1.1620 H   0  0  0  0  0  0  0  0  0  0  0  0
  1  2  1  0  0  0  0
  2  3  1  0  0  0  0
  2  4  1  0  0  0  0
  2  5  1  0  0  0  0
  5  6  2  0  0  0  0
  5  7  1  0  0  0  0
  7  8  1  0  0  0  0
  7  9  1  0  0  0  0
  9 10  1  0  0  0  0
  9 11  1  0  0  0  0
  9 18  1  0  0  0  0
 11 12  1  0  0  0  0
 11 13  1  0  0  0  0
 11 14  1  0  0  0  0
 14 15  2  0  0  0  0
 14 16  1  0  0  0  0
 16 17  1  0  0  0  0
 18 19  2  0  0  0  0
 18 20  1  0  0  0  0
 20 21  1  0  0  0  0
 20 22  1  0  0  0  0
 22 23  1  0  0  0  0
 22 24  1  0  0  0  0
 22 25  1  0  0  0  0
M  END
$$$$

  -OEChem-03222214023D

 25 24  0     1  0  0  0  0  0999 V2000
   -2.8086   -3.9983    0.5431 H   0  0  0  0  0  0  0  0  0  0  0  0
   -2.8320   -2.9634    0.1907 C   0  0  0  0  0  0  0  0  0  0  0  0
   -3.5341   -2.3965    0.8064 H   0  0  0  0  0  0  0  0  0  0  0  0
   -3.1752   -2.9529   -0.8465 H   0  0  0  0  0  0  0  0  0  0  0  0
   -1.4483   -2.3489    0.2832 C   0  0  0  0  0  0  0  0  0  0  0  0
   -0.5342   -2.9829    0.7878 O   0  0  0  0  0  0  0  0  0  0  0  0
   -1.2479   -1.0480   -0.1369 N   0  0  0  0  0  0  0  0  0  0  0  0
   -2.0651   -0.5215   -0.4411 H   0  0  0  0  0  0  0  0  0  0  0  0
    0.0553   -0.3656   -0.1917 C   0  0  1  0  0  0  0  0  0  0  0  0
    0.7756   -0.9259    0.4135 H   0  0  0  0  0  0  0  0  0  0  0  0
    0.6223   -0.2452   -1.6326 C   0  0  0  0  0  0  0  0  0  0  0  0
    0.2740    0.6987   -2.0649 H   0  0  0  0  0  0  0  0  0  0  0  0
    1.7119   -0.1949   -1.5739 H   0  0  0  0  0  0  0  0  0  0  0  0
    0.2610   -1.3345   -2.6414 C   0  0  0  0  0  0  0  0  0  0  0  0
    0.1990   -0.9974   -3.8100 O   0  0  0  0  0  0  0  0  0  0  0  0
    0.1929   -2.6238   -2.2499 O   0  0  0  0  0  0  0  0  0  0  0  0
    0.0572   -3.1333   -3.0625 H   0  0  0  0  0  0  0  0  0  0  0  0
   -0.0625    1.0529    0.3985 C   0  0  0  0  0  0  0  0  0  0  0  0
   -1.0064    1.7678    0.0838 O   0  0  0  0  0  0  0  0  0  0  0  0
    0.8919    1.5292    1.2779 N   0  0  0  0  0  0  0  0  0  0  0  0
    1.6178    0.8856    1.5808 H   0  0  0  0  0  0  0  0  0  0  0  0
    0.8145    2.8456    1.9001 C   0  0  0  0  0  0  0  0  0  0  0  0
   -0.0937    2.9301    2.5061 H   0  0  0  0  0  0  0  0  0  0  0  0
    1.6805    3.0094    2.5487 H   0  0  0  0  0  0  0  0  0  0  0  0
    0.8022    3.6304    1.1363 H   0  0  0  0  0  0  0  0  0  0  0  0
  1  2  1  0  0  0  0
  2  3  1  0  0  0  0
  2  4  1  0  0  0  0
  2  5  1  0  0  0  0
  5  6  2  0  0  0  0
  5  7  1  0  0  0  0
  7  8  1  0  0  0  0
  7  9  1  0  0  0  0
  9 10  1  0  0  0  0
  9 11  1  0  0  0  0
  9 18  1  0  0  0  0
 11 12  1  0  0  0  0
 11 13  1  0  0  0  0
 11 14  1  0  0  0  0
 14 15  2  0  0  0  0
 14 16  1  0  0  0  0
 16 17  1  0  0  0  0
 18 19  2  0  0  0  0
 18 20  1  0  0  0  0
 20 21  1  0  0  0  0
 20 22  1  0  0  0  0
 22 23  1  0  0  0  0
 22 24  1  0  0  0  0
 22 25  1  0  0  0  0
M  END
$$$$

  -OEChem-03222214023D

 25 24  0     1  0  0  0  0  0999 V2000
   -2.8225   -3.9939    0.6021 H   0  0  0  0  0  0  0  0  0  0  0  0
   -2.8466   -2.9644    0.2343 C   0  0  0  0  0  0  0  0  0  0  0  0
   -3.5451   -2.3872    0.8448 H   0  0  0  0  0  0  0  0  0  0  0  0
   -3.1944   -2.9693   -0.8015 H   0  0  0  0  0  0  0  0  0  0  0  0
   -1.4617   -2.3501    0.3101 C   0  0  0  0  0  0  0  0  0  0  0  0
   -0.5402   -2.9844    0.8017 O   0  0  0  0  0  0  0  0  0  0  0  0
   -1.2639   -1.0507   -0.1164 N   0  0  0  0  0  0  0  0  0  0  0  0
   -2.0813   -0.5277   -0.4250 H   0  0  0  0  0  0  0  0  0  0  0  0
    0.0408   -0.3741   -0.1870 C   0  0  1  0  0  0  0  0  0  0  0  0
    0.7612   -0.9328    0.4196 H   0  0  0  0  0  0  0  0  0  0  0  0
    0.6179   -0.2527   -1.6263 C   0  0  0  0  0  0  0  0  0  0  0  0
    0.2695    0.6936   -2.0527 H   0  0  0  0  0  0  0  0  0  0  0  0
    1.7064   -0.1947   -1.5523 H   0  0  0  0  0  0  0  0  0  0  0  0
    0.2884   -1.3163   -2.6764 C   0  0  0  0  0  0  0  0  0  0  0  0
    0.5329   -1.0072   -3.8286 O   0  0  0  0  0  0  0  0  0  0  0  0
   -0.1252   -2.5529   -2.3299 O   0  0  0  0  0  0  0  0  0  0  0  0
   -0.1718   -3.0472   -3.1619 H   0  0  0  0  0  0  0  0  0  0  0  0
   -0.0728    1.0457    0.4020 C   0  0  0  0  0  0  0  0  0  0  0  0
   -1.0178    1.7609    0.0913 O   0  0  0  0  0  0  0  0  0  0  0  0
    0.8890    1.5243    1.2722 N   0  0  0  0  0  0  0  0  0  0  0  0
    1.6198    0.8829    1.5673 H   0  0  0  0  0  0  0  0  0  0  0  0
    0.8218    2.8449    1.8870 C   0  0  0  0  0  0  0  0  0  0  0  0
   -0.0785    2.9357    2.5039 H   0  0  0  0  0  0  0  0  0  0  0  0
    1.6960    3.0110    2.5239 H   0  0  0  0  0  0  0  0  0  0  0  0
    0.8022    3.6247    1.1183 H   0  0  0  0  0  0  0  0  0  0  0  0
  1  2  1  0  0  0  0
  2  3  1  0  0  0  0
  2  4  1  0  0  0  0
  2  5  1  0  0  0  0
  5  6  2  0  0  0  0
  5  7  1  0  0  0  0
  7  8  1  0  0  0  0
  7  9  1  0  0  0  0
  9 10  1  0  0  0  0
  9 11  1  0  0  0  0
  9 18  1  0  0  0  0
 11 12  1  0  0  0  0
 11 13  1  0  0  0  0
 11 14  1  0  0  0  0
 14 15  2  0  0  0  0
 14 16  1  0  0  0  0
 16 17  1  0  0  0  0
 18 19  2  0  0  0  0
 18 20  1  0  0  0  0
 20 21  1  0  0  0  0
 20 22  1  0  0  0  0
 22 23  1  0  0  0  0
 22 24  1  0  0  0  0
 22 25  1  0  0  0  0
M  END
$$$$

  -OEChem-03222214023D

 25 24  0     1  0  0  0  0  0999 V2000
   -2.7818   -4.0170    0.6538 H   0  0  0  0  0  0  0  0  0  0  0  0
   -2.8331   -2.9808    0.3083 C   0  0  0  0  0  0  0  0  0  0  0  0
   -3.5006   -2.4212    0.9676 H   0  0  0  0  0  0  0  0  0  0  0  0
   -3.2375   -2.9671   -0.7067 H   0  0  0  0  0  0  0  0  0  0  0  0
   -1.4504   -2.3572    0.3189 C   0  0  0  0  0  0  0  0  0  0  0  0
   -0.4891   -3.0083    0.7005 O   0  0  0  0  0  0  0  0  0  0  0  0
   -1.2856   -1.0480   -0.0879 N   0  0  0  0  0  0  0  0  0  0  0  0
   -2.1169   -0.5398   -0.3834 H   0  0  0  0  0  0  0  0  0  0  0  0
    0.0068   -0.3597   -0.2001 C   0  0  1  0  0  0  0  0  0  0  0  0
    0.7411   -0.9128    0.3948 H   0  0  0  0  0  0  0  0  0  0  0  0
    0.5805   -0.2440   -1.6454 C   0  0  0  0  0  0  0  0  0  0  0  0
    0.4611    0.7931   -1.9743 H   0  0  0  0  0  0  0  0  0  0  0  0
    1.6542   -0.4409   -1.5890 H   0  0  0  0  0  0  0  0  0  0  0  0
    0.0342   -1.0891   -2.8051 C   0  0  0  0  0  0  0  0  0  0  0  0
    0.5833   -0.8877   -3.8732 O   0  0  0  0  0  0  0  0  0  0  0  0
   -0.9748   -1.9784   -2.6696 O   0  0  0  0  0  0  0  0  0  0  0  0
   -1.0825   -2.3650   -3.5520 H   0  0  0  0  0  0  0  0  0  0  0  0
   -0.0983    1.0473    0.4215 C   0  0  0  0  0  0  0  0  0  0  0  0
   -1.0563    1.7617    0.1523 O   0  0  0  0  0  0  0  0  0  0  0  0
    0.8919    1.5224    1.2617 N   0  0  0  0  0  0  0  0  0  0  0  0
    1.6433    0.8866    1.5142 H   0  0  0  0  0  0  0  0  0  0  0  0
    0.8394    2.8354    1.8940 C   0  0  0  0  0  0  0  0  0  0  0  0
   -0.0472    2.9188    2.5315 H   0  0  0  0  0  0  0  0  0  0  0  0
    1.7275    2.9932    2.5138 H   0  0  0  0  0  0  0  0  0  0  0  0
    0.8037    3.6252    1.1361 H   0  0  0  0  0  0  0  0  0  0  0  0
  1  2  1  0  0  0  0
  2  3  1  0  0  0  0
  2  4  1  0  0  0  0
  2  5  1  0  0  0  0
  5  6  2  0  0  0  0
  5  7  1  0  0  0  0
  7  8  1  0  0  0  0
  7  9  1  0  0  0  0
  9 10  1  0  0  0  0
  9 11  1  0  0  0  0
  9 18  1  0  0  0  0
 11 12  1  0  0  0  0
 11 13  1  0  0  0  0
 11 14  1  0  0  0  0
 14 15  2  0  0  0  0
 14 16  1  0  0  0  0
 16 17  1  0  0  0  0
 18 19  2  0  0  0  0
 18 20  1  0  0  0  0
 20 21  1  0  0  0  0
 20 22  1  0  0  0  0
 22 23  1  0  0  0  0
 22 24  1  0  0  0  0
 22 25  1  0  0  0  0
M  END
$$$$

  -OEChem-03222214023D

 25 24  0     1  0  0  0  0  0999 V2000
   -2.7646   -4.0334    0.6265 H   0  0  0  0  0  0  0  0  0  0  0  0
   -2.8213   -2.9937    0.2923 C   0  0  0  0  0  0  0  0  0  0  0  0
   -3.4938   -2.4454    0.9561 H   0  0  0  0  0  0  0  0  0  0  0  0
   -3.2236   -2.9712   -0.7234 H   0  0  0  0  0  0  0  0  0  0  0  0
   -1.4428   -2.3614    0.3140 C   0  0  0  0  0  0  0  0  0  0  0  0
   -0.4768   -3.0124    0.6825 O   0  0  0  0  0  0  0  0  0  0  0  0
   -1.2843   -1.0500   -0.0853 N   0  0  0  0  0  0  0  0  0  0  0  0
   -2.1134   -0.5581   -0.4137 H   0  0  0  0  0  0  0  0  0  0  0  0
    0.0032   -0.3535   -0.1957 C   0  0  1  0  0  0  0  0  0  0  0  0
    0.7388   -0.9059    0.3979 H   0  0  0  0  0  0  0  0  0  0  0  0
    0.5748   -0.2426   -1.6409 C   0  0  0  0  0  0  0  0  0  0  0  0
    0.4410    0.7889   -1.9803 H   0  0  0  0  0  0  0  0  0  0  0  0
    1.6513   -0.4258   -1.5851 H   0  0  0  0  0  0  0  0  0  0  0  0
    0.0232   -1.1035   -2.7860 C   0  0  0  0  0  0  0  0  0  0  0  0
    0.7299   -1.1370   -3.7771 O   0  0  0  0  0  0  0  0  0  0  0  0
   -1.2021   -1.6765   -2.7542 O   0  0  0  0  0  0  0  0  0  0  0  0
   -1.2926   -2.1054   -3.6191 H   0  0  0  0  0  0  0  0  0  0  0  0
   -0.0988    1.0512    0.4306 C   0  0  0  0  0  0  0  0  0  0  0  0
   -1.0515    1.7718    0.1595 O   0  0  0  0  0  0  0  0  0  0  0  0
    0.8955    1.5223    1.2681 N   0  0  0  0  0  0  0  0  0  0  0  0
    1.6446    0.8834    1.5197 H   0  0  0  0  0  0  0  0  0  0  0  0
    0.8499    2.8361    1.8990 C   0  0  0  0  0  0  0  0  0  0  0  0
   -0.0303    2.9208    2.5451 H   0  0  0  0  0  0  0  0  0  0  0  0
    1.7439    2.9939    2.5098 H   0  0  0  0  0  0  0  0  0  0  0  0
    0.8073    3.6245    1.1401 H   0  0  0  0  0  0  0  0  0  0  0  0
  1  2  1  0  0  0  0
  2  3  1  0  0  0  0
  2  4  1  0  0  0  0
  2  5  1  0  0  0  0
  5  6  2  0  0  0  0
  5  7  1  0  0  0  0
  7  8  1  0  0  0  0
  7  9  1  0  0  0  0
  9 10  1  0  0  0  0
  9 11  1  0  0  0  0
  9 18  1  0  0  0  0
 11 12  1  0  0  0  0
 11 13  1  0  0  0  0
 11 14  1  0  0  0  0
 14 15  2  0  0  0  0
 14 16  1  0  0  0  0
 16 17  1  0  0  0  0
 18 19  2  0  0  0  0
 18 20  1  0  0  0  0
 20 21  1  0  0  0  0
 20 22  1  0  0  0  0
 22 23  1  0  0  0  0
 22 24  1  0  0  0  0
 22 25  1  0  0  0  0
M  END
$$$$

  -OEChem-03222214023D

 25 24  0     1  0  0  0  0  0999 V2000
   -2.7506   -4.0444    0.5795 H   0  0  0  0  0  0  0  0  0  0  0  0
   -2.8093   -3.0009    0.2576 C   0  0  0  0  0  0  0  0  0  0  0  0
   -3.4870   -2.4632    0.9249 H   0  0  0  0  0  0  0  0  0  0  0  0
   -3.2073   -2.9674   -0.7596 H   0  0  0  0  0  0  0  0  0  0  0  0
   -1.4332   -2.3637    0.2945 C   0  0  0  0  0  0  0  0  0  0  0  0
   -0.4673   -3.0139    0.6636 O   0  0  0  0  0  0  0  0  0  0  0  0
   -1.2750   -1.0505   -0.0973 N   0  0  0  0  0  0  0  0  0  0  0  0
   -2.1011   -0.5640   -0.4422 H   0  0  0  0  0  0  0  0  0  0  0  0
    0.0102   -0.3469   -0.1966 C   0  0  1  0  0  0  0  0  0  0  0  0
    0.7476   -0.8998    0.3948 H   0  0  0  0  0  0  0  0  0  0  0  0
    0.5741   -0.2341   -1.6427 C   0  0  0  0  0  0  0  0  0  0  0  0
    0.4318    0.7934   -1.9897 H   0  0  0  0  0  0  0  0  0  0  0  0
    1.6521   -0.4129   -1.5989 H   0  0  0  0  0  0  0  0  0  0  0  0
   -0.0061   -1.1132   -2.7566 C   0  0  0  0  0  0  0  0  0  0  0  0
    0.7724   -1.4123   -3.6439 O   0  0  0  0  0  0  0  0  0  0  0  0
   -1.3319   -1.3770   -2.8362 O   0  0  0  0  0  0  0  0  0  0  0  0
   -1.4330   -1.8647   -3.6683 H   0  0  0  0  0  0  0  0  0  0  0  0
   -0.0944    1.0559    0.4331 C   0  0  0  0  0  0  0  0  0  0  0  0
   -1.0446    1.7785    0.1595 O   0  0  0  0  0  0  0  0  0  0  0  0
    0.8970    1.5238    1.2760 N   0  0  0  0  0  0  0  0  0  0  0  0
    1.6448    0.8835    1.5280 H   0  0  0  0  0  0  0  0  0  0  0  0
    0.8516    2.8362    1.9099 C   0  0  0  0  0  0  0  0  0  0  0  0
   -0.0303    2.9207    2.5536 H   0  0  0  0  0  0  0  0  0  0  0  0
    1.7442    2.9914    2.5236 H   0  0  0  0  0  0  0  0  0  0  0  0
    0.8123    3.6267    1.1530 H   0  0  0  0  0  0  0  0  0  0  0  0
  1  2  1  0  0  0  0
  2  3  1  0  0  0  0
  2  4  1  0  0  0  0
  2  5  1  0  0  0  0
  5  6  2  0  0  0  0
  5  7  1  0  0  0  0
  7  8  1  0  0  0  0
  7  9  1  0  0  0  0
  9 10  1  0  0  0  0
  9 11  1  0  0  0  0
  9 18  1  0  0  0  0
 11 12  1  0  0  0  0
 11 13  1  0  0  0  0
 11 14  1  0  0  0  0
 14 15  2  0  0  0  0
 14 16  1  0  0  0  0
 16 17  1  0  0  0  0
 18 19  2  0  0  0  0
 18 20  1  0  0  0  0
 20 21  1  0  0  0  0
 20 22  1  0  0  0  0
 22 23  1  0  0  0  0
 22 24  1  0  0  0  0
 22 25  1  0  0  0  0
M  END
$$$$

  -OEChem-03222214023D

 25 24  0     1  0  0  0  0  0999 V2000
   -2.7435   -4.0416    0.5303 H   0  0  0  0  0  0  0  0  0  0  0  0
   -2.7996   -2.9952    0.2179 C   0  0  0  0  0  0  0  0  0  0  0  0
   -3.4753   -2.4615    0.8905 H   0  0  0  0  0  0  0  0  0  0  0  0
   -3.1985   -2.9512   -0.7983 H   0  0  0  0  0  0  0  0  0  0  0  0
   -1.4219   -2.3620    0.2596 C   0  0  0  0  0  0  0  0  0  0  0  0
   -0.4573   -3.0160    0.6239 O   0  0  0  0  0  0  0  0  0  0  0  0
   -1.2615   -1.0466   -0.1227 N   0  0  0  0  0  0  0  0  0  0  0  0
   -2.0864   -0.5551   -0.4645 H   0  0  0  0  0  0  0  0  0  0  0  0
    0.0232   -0.3380   -0.2049 C   0  0  1  0  0  0  0  0  0  0  0  0
    0.7605   -0.8938    0.3835 H   0  0  0  0  0  0  0  0  0  0  0  0
    0.5784   -0.2202   -1.6513 C   0  0  0  0  0  0  0  0  0  0  0  0
    0.4315    0.8048   -2.0032 H   0  0  0  0  0  0  0  0  0  0  0  0
    1.6566   -0.4008   -1.6232 H   0  0  0  0  0  0  0  0  0  0  0  0
   -0.0358   -1.1144   -2.7298 C   0  0  0  0  0  0  0  0  0  0  0  0
    0.7430   -1.6744   -3.4797 O   0  0  0  0  0  0  0  0  0  0  0  0
   -1.3759   -1.1273   -2.9250 O   0  0  0  0  0  0  0  0  0  0  0  0
   -1.5038   -1.6838   -3.7086 H   0  0  0  0  0  0  0  0  0  0  0  0
   -0.0868    1.0615    0.4308 C   0  0  0  0  0  0  0  0  0  0  0  0
   -1.0365    1.7841    0.1558 O   0  0  0  0  0  0  0  0  0  0  0  0
    0.8972    1.5250    1.2846 N   0  0  0  0  0  0  0  0  0  0  0  0
    1.6433    0.8836    1.5390 H   0  0  0  0  0  0  0  0  0  0  0  0
    0.8458    2.8340    1.9251 C   0  0  0  0  0  0  0  0  0  0  0  0
   -0.0429    2.9159    2.5596 H   0  0  0  0  0  0  0  0  0  0  0  0
    1.7318    2.9852    2.5494 H   0  0  0  0  0  0  0  0  0  0  0  0
    0.8151    3.6282    1.1716 H   0  0  0  0  0  0  0  0  0  0  0  0
  1  2  1  0  0  0  0
  2  3  1  0  0  0  0
  2  4  1  0  0  0  0
  2  5  1  0  0  0  0
  5  6  2  0  0  0  0
  5  7  1  0  0  0  0
  7  8  1  0  0  0  0
  7  9  1  0  0  0  0
  9 10  1  0  0  0  0
  9 11  1  0  0  0  0
  9 18  1  0  0  0  0
 11 12  1  0  0  0  0
 11 13  1  0  0  0  0
 11 14  1  0  0  0  0
 14 15  2  0  0  0  0
 14 16  1  0  0  0  0
 16 17  1  0  0  0  0
 18 19  2  0  0  0  0
 18 20  1  0  0  0  0
 20 21  1  0  0  0  0
 20 22  1  0  0  0  0
 22 23  1  0  0  0  0
 22 24  1  0  0  0  0
 22 25  1  0  0  0  0
M  END
$$$$

  -OEChem-03222214023D

 25 24  0     1  0  0  0  0  0999 V2000
   -2.7407   -4.0333    0.4881 H   0  0  0  0  0  0  0  0  0  0  0  0
   -2.7934   -2.9852    0.1804 C   0  0  0  0  0  0  0  0  0  0  0  0
   -3.4670   -2.4525    0.8559 H   0  0  0  0  0  0  0  0  0  0  0  0
   -3.1924   -2.9358   -0.8355 H   0  0  0  0  0  0  0  0  0  0  0  0
   -1.4137   -2.3568    0.2240 C   0  0  0  0  0  0  0  0  0  0  0  0
   -0.4526   -3.0132    0.5921 O   0  0  0  0  0  0  0  0  0  0  0  0
   -1.2489   -1.0398   -0.1517 N   0  0  0  0  0  0  0  0  0  0  0  0
   -2.0765   -0.5327   -0.4635 H   0  0  0  0  0  0  0  0  0  0  0  0
    0.0374   -0.3303   -0.2173 C   0  0  1  0  0  0  0  0  0  0  0  0
    0.7729   -0.8897    0.3705 H   0  0  0  0  0  0  0  0  0  0  0  0
    0.5888   -0.2067   -1.6628 C   0  0  0  0  0  0  0  0  0  0  0  0
    0.4433    0.8178   -2.0170 H   0  0  0  0  0  0  0  0  0  0  0  0
    1.6659   -0.3940   -1.6466 H   0  0  0  0  0  0  0  0  0  0  0  0
   -0.0518   -1.1090   -2.7148 C   0  0  0  0  0  0  0  0  0  0  0  0
    0.6721   -1.8986   -3.2931 O   0  0  0  0  0  0  0  0  0  0  0  0
   -1.3529   -0.9264   -3.0414 O   0  0  0  0  0  0  0  0  0  0  0  0
   -1.5147   -1.5479   -3.7677 H   0  0  0  0  0  0  0  0  0  0  0  0
   -0.0786    1.0668    0.4225 C   0  0  0  0  0  0  0  0  0  0  0  0
   -1.0311    1.7864    0.1494 O   0  0  0  0  0  0  0  0  0  0  0  0
    0.8967    1.5267    1.2882 N   0  0  0  0  0  0  0  0  0  0  0  0
    1.6444    0.8867    1.5411 H   0  0  0  0  0  0  0  0  0  0  0  0
    0.8365    2.8304    1.9384 C   0  0  0  0  0  0  0  0  0  0  0  0
   -0.0648    2.9109    2.5553 H   0  0  0  0  0  0  0  0  0  0  0  0
    1.7098    2.9730    2.5822 H   0  0  0  0  0  0  0  0  0  0  0  0
    0.8245    3.6305    1.1908 H   0  0  0  0  0  0  0  0  0  0  0  0
  1  2  1  0  0  0  0
  2  3  1  0  0  0  0
  2  4  1  0  0  0  0
  2  5  1  0  0  0  0
  5  6  2  0  0  0  0
  5  7  1  0  0  0  0
  7  8  1  0  0  0  0
  7  9  1  0  0  0  0
  9 10  1  0  0  0  0
  9 11  1  0  0  0  0
  9 18  1  0  0  0  0
 11 12  1  0  0  0  0
 11 13  1  0  0  0  0
 11 14  1  0  0  0  0
 14 15  2  0  0  0  0
 14 16  1  0  0  0  0
 16 17  1  0  0  0  0
 18 19  2  0  0  0  0
 18 20  1  0  0  0  0
 20 21  1  0  0  0  0
 20 22  1  0  0  0  0
 22 23  1  0  0  0  0
 22 24  1  0  0  0  0
 22 25  1  0  0  0  0
M  END
$$$$

  -OEChem-03222214023D

 25 24  0     1  0  0  0  0  0999 V2000
   -2.7379   -4.0222    0.4520 H   0  0  0  0  0  0  0  0  0  0  0  0
   -2.7872   -2.9740    0.1443 C   0  0  0  0  0  0  0  0  0  0  0  0
   -3.4653   -2.4404    0.8145 H   0  0  0  0  0  0  0  0  0  0  0  0
   -3.1781   -2.9239   -0.8748 H   0  0  0  0  0  0  0  0  0  0  0  0
   -1.4068   -2.3484    0.1994 C   0  0  0  0  0  0  0  0  0  0  0  0
   -0.4525   -3.0038    0.5863 O   0  0  0  0  0  0  0  0  0  0  0  0
   -1.2366   -1.0313   -0.1752 N   0  0  0  0  0  0  0  0  0  0  0  0
   -2.0643   -0.5137   -0.4690 H   0  0  0  0  0  0  0  0  0  0  0  0
    0.0527   -0.3245   -0.2284 C   0  0  1  0  0  0  0  0  0  0  0  0
    0.7858   -0.8864    0.3600 H   0  0  0  0  0  0  0  0  0  0  0  0
    0.6017   -0.1993   -1.6732 C   0  0  0  0  0  0  0  0  0  0  0  0
    0.4636    0.8258   -2.0290 H   0  0  0  0  0  0  0  0  0  0  0  0
    1.6767   -0.3983   -1.6657 H   0  0  0  0  0  0  0  0  0  0  0  0
   -0.0582   -1.1050   -2.7070 C   0  0  0  0  0  0  0  0  0  0  0  0
    0.5588   -2.0812   -3.0916 O   0  0  0  0  0  0  0  0  0  0  0  0
   -1.2760   -0.7632   -3.1860 O   0  0  0  0  0  0  0  0  0  0  0  0
   -1.4806   -1.4392   -3.8500 H   0  0  0  0  0  0  0  0  0  0  0  0
   -0.0667    1.0724    0.4106 C   0  0  0  0  0  0  0  0  0  0  0  0
   -1.0209    1.7894    0.1361 O   0  0  0  0  0  0  0  0  0  0  0  0
    0.9008    1.5305    1.2858 N   0  0  0  0  0  0  0  0  0  0  0  0
    1.6450    0.8889    1.5455 H   0  0  0  0  0  0  0  0  0  0  0  0
    0.8256    2.8266    1.9497 C   0  0  0  0  0  0  0  0  0  0  0  0
   -0.0729    2.8865    2.5731 H   0  0  0  0  0  0  0  0  0  0  0  0
    1.7010    2.9760    2.5892 H   0  0  0  0  0  0  0  0  0  0  0  0
    0.7963    3.6347    1.2110 H   0  0  0  0  0  0  0  0  0  0  0  0
  1  2  1  0  0  0  0
  2  3  1  0  0  0  0
  2  4  1  0  0  0  0
  2  5  1  0  0  0  0
  5  6  2  0  0  0  0
  5  7  1  0  0  0  0
  7  8  1  0  0  0  0
  7  9  1  0  0  0  0
  9 10  1  0  0  0  0
  9 11  1  0  0  0  0
  9 18  1  0  0  0  0
 11 12  1  0  0  0  0
 11 13  1  0  0  0  0
 11 14  1  0  0  0  0
 14 15  2  0  0  0  0
 14 16  1  0  0  0  0
 16 17  1  0  0  0  0
 18 19  2  0  0  0  0
 18 20  1  0  0  0  0
 20 21  1  0  0  0  0
 20 22  1  0  0  0  0
 22 23  1  0  0  0  0
 22 24  1  0  0  0  0
 22 25  1  0  0  0  0
M  END
$$$$

  -OEChem-03222214023D

 25 24  0     1  0  0  0  0  0999 V2000
   -2.7351   -4.0200    0.4397 H   0  0  0  0  0  0  0  0  0  0  0  0
   -2.7827   -2.9747    0.1221 C   0  0  0  0  0  0  0  0  0  0  0  0
   -3.4694   -2.4368    0.7802 H   0  0  0  0  0  0  0  0  0  0  0  0
   -3.1624   -2.9347   -0.9016 H   0  0  0  0  0  0  0  0  0  0  0  0
   -1.4036   -2.3464    0.1863 C   0  0  0  0  0  0  0  0  0  0  0  0
   -0.4553   -2.9952    0.5984 O   0  0  0  0  0  0  0  0  0  0  0  0
   -1.2327   -1.0285   -0.1883 N   0  0  0  0  0  0  0  0  0  0  0  0
   -2.0614   -0.5048   -0.4675 H   0  0  0  0  0  0  0  0  0  0  0  0
    0.0588   -0.3238   -0.2331 C   0  0  1  0  0  0  0  0  0  0  0  0
    0.7894   -0.8875    0.3566 H   0  0  0  0  0  0  0  0  0  0  0  0
    0.6109   -0.1941   -1.6764 C   0  0  0  0  0  0  0  0  0  0  0  0
    0.4815    0.8334   -2.0289 H   0  0  0  0  0  0  0  0  0  0  0  0
    1.6839   -0.4022   -1.6709 H   0  0  0  0  0  0  0  0  0  0  0  0
   -0.0537   -1.0967   -2.7080 C   0  0  0  0  0  0  0  0  0  0  0  0
    0.4127   -2.2052   -2.8951 O   0  0  0  0  0  0  0  0  0  0  0  0
   -1.1304   -0.6240   -3.3740 O   0  0  0  0  0  0  0  0  0  0  0  0
   -1.3797   -1.3348   -3.9840 H   0  0  0  0  0  0  0  0  0  0  0  0
   -0.0634    1.0729    0.4053 C   0  0  0  0  0  0  0  0  0  0  0  0
   -1.0158    1.7902    0.1253 O   0  0  0  0  0  0  0  0  0  0  0  0
    0.8988    1.5291    1.2871 N   0  0  0  0  0  0  0  0  0  0  0  0
    1.6392    0.8856    1.5529 H   0  0  0  0  0  0  0  0  0  0  0  0
    0.8225    2.8257    1.9497 C   0  0  0  0  0  0  0  0  0  0  0  0
   -0.0744    2.8844    2.5753 H   0  0  0  0  0  0  0  0  0  0  0  0
    1.6993    2.9779    2.5865 H   0  0  0  0  0  0  0  0  0  0  0  0
    0.7894    3.6328    1.2101 H   0  0  0  0  0  0  0  0  0  0  0  0
  1  2  1  0  0  0  0
  2  3  1  0  0  0  0
  2  4  1  0  0  0  0
  2  5  1  0  0  0  0
  5  6  2  0  0  0  0
  5  7  1  0  0  0  0
  7  8  1  0  0  0  0
  7  9  1  0  0  0  0
  9 10  1  0  0  0  0
  9 11  1  0  0  0  0
  9 18  1  0  0  0  0
 11 12  1  0  0  0  0
 11 13  1  0  0  0  0
 11 14  1  0  0  0  0
 14 15  2  0  0  0  0
 14 16  1  0  0  0  0
 16 17  1  0  0  0  0
 18 19  2  0  0  0  0
 18 20  1  0  0  0  0
 20 21  1  0  0  0  0
 20 22  1  0  0  0  0
 22 23  1  0  0  0  0
 22 24  1  0  0  0  0
 22 25  1  0  0  0  0
M  END
$$$$

  -OEChem-03222214023D

 25 24  0     1  0  0  0  0  0999 V2000
   -2.7334   -4.0224    0.4391 H   0  0  0  0  0  0  0  0  0  0  0  0
   -2.7772   -2.9806    0.1096 C   0  0  0  0  0  0  0  0  0  0  0  0
   -3.4815   -2.4385    0.7450 H   0  0  0  0  0  0  0  0  0  0  0  0
   -3.1316   -2.9534   -0.9235 H   0  0  0  0  0  0  0  0  0  0  0  0
   -1.4027   -2.3460    0.1996 C   0  0  0  0  0  0  0  0  0  0  0  0
   -0.4636   -2.9833    0.6498 O   0  0  0  0  0  0  0  0  0  0  0  0
   -1.2305   -1.0298   -0.1820 N   0  0  0  0  0  0  0  0  0  0  0  0
   -2.0580   -0.5075   -0.4658 H   0  0  0  0  0  0  0  0  0  0  0  0
    0.0634   -0.3300   -0.2302 C   0  0  1  0  0  0  0  0  0  0  0  0
    0.7952   -0.8932    0.3588 H   0  0  0  0  0  0  0  0  0  0  0  0
    0.6118   -0.1981   -1.6758 C   0  0  0  0  0  0  0  0  0  0  0  0
    0.4905    0.8330   -2.0216 H   0  0  0  0  0  0  0  0  0  0  0  0
    1.6830   -0.4136   -1.6737 H   0  0  0  0  0  0  0  0  0  0  0  0
   -0.0536   -1.0913   -2.7164 C   0  0  0  0  0  0  0  0  0  0  0  0
    0.2141   -2.2787   -2.7297 O   0  0  0  0  0  0  0  0  0  0  0  0
   -0.9188   -0.5191   -3.5818 O   0  0  0  0  0  0  0  0  0  0  0  0
   -1.2146   -1.2412   -4.1568 H   0  0  0  0  0  0  0  0  0  0  0  0
   -0.0595    1.0693    0.4032 C   0  0  0  0  0  0  0  0  0  0  0  0
   -1.0101    1.7866    0.1161 O   0  0  0  0  0  0  0  0  0  0  0  0
    0.9009    1.5297    1.2849 N   0  0  0  0  0  0  0  0  0  0  0  0
    1.6373    0.8852    1.5593 H   0  0  0  0  0  0  0  0  0  0  0  0
    0.8210    2.8278    1.9444 C   0  0  0  0  0  0  0  0  0  0  0  0
   -0.0760    2.8858    2.5700 H   0  0  0  0  0  0  0  0  0  0  0  0
    1.6975    2.9835    2.5806 H   0  0  0  0  0  0  0  0  0  0  0  0
    0.7861    3.6332    1.2031 H   0  0  0  0  0  0  0  0  0  0  0  0
  1  2  1  0  0  0  0
  2  3  1  0  0  0  0
  2  4  1  0  0  0  0
  2  5  1  0  0  0  0
  5  6  2  0  0  0  0
  5  7  1  0  0  0  0
  7  8  1  0  0  0  0
  7  9  1  0  0  0  0
  9 10  1  0  0  0  0
  9 11  1  0  0  0  0
  9 18  1  0  0  0  0
 11 12  1  0  0  0  0
 11 13  1  0  0  0  0
 11 14  1  0  0  0  0
 14 15  2  0  0  0  0
 14 16  1  0  0  0  0
 16 17  1  0  0  0  0
 18 19  2  0  0  0  0
 18 20  1  0  0  0  0
 20 21  1  0  0  0  0
 20 22  1  0  0  0  0
 22 23  1  0  0  0  0
 22 24  1  0  0  0  0
 22 25  1  0  0  0  0
M  END
$$$$

  -OEChem-03222214023D

 25 24  0     1  0  0  0  0  0999 V2000
   -2.7319   -4.0298    0.4623 H   0  0  0  0  0  0  0  0  0  0  0  0
   -2.7766   -2.9931    0.1173 C   0  0  0  0  0  0  0  0  0  0  0  0
   -3.4985   -2.4473    0.7294 H   0  0  0  0  0  0  0  0  0  0  0  0
   -3.1083   -2.9834   -0.9238 H   0  0  0  0  0  0  0  0  0  0  0  0
   -1.4087   -2.3471    0.2279 C   0  0  0  0  0  0  0  0  0  0  0  0
   -0.4762   -2.9715    0.7102 O   0  0  0  0  0  0  0  0  0  0  0  0
   -1.2377   -1.0329   -0.1628 N   0  0  0  0  0  0  0  0  0  0  0  0
   -2.0624   -0.5210   -0.4706 H   0  0  0  0  0  0  0  0  0  0  0  0
    0.0583   -0.3383   -0.2235 C   0  0  1  0  0  0  0  0  0  0  0  0
    0.7919   -0.9002    0.3639 H   0  0  0  0  0  0  0  0  0  0  0  0
    0.6046   -0.2048   -1.6725 C   0  0  0  0  0  0  0  0  0  0  0  0
    0.4875    0.8301   -2.0083 H   0  0  0  0  0  0  0  0  0  0  0  0
    1.6755   -0.4212   -1.6693 H   0  0  0  0  0  0  0  0  0  0  0  0
   -0.0479   -1.0829   -2.7371 C   0  0  0  0  0  0  0  0  0  0  0  0
   -0.0143   -2.2945   -2.6210 O   0  0  0  0  0  0  0  0  0  0  0  0
   -0.6351   -0.4598   -3.7816 O   0  0  0  0  0  0  0  0  0  0  0  0
   -0.9750   -1.1729   -4.3432 H   0  0  0  0  0  0  0  0  0  0  0  0
   -0.0617    1.0637    0.4045 C   0  0  0  0  0  0  0  0  0  0  0  0
   -1.0083    1.7835    0.1105 O   0  0  0  0  0  0  0  0  0  0  0  0
    0.9031    1.5279    1.2794 N   0  0  0  0  0  0  0  0  0  0  0  0
    1.6344    0.8809    1.5617 H   0  0  0  0  0  0  0  0  0  0  0  0
    0.8251    2.8293    1.9327 C   0  0  0  0  0  0  0  0  0  0  0  0
   -0.0735    2.8922    2.5554 H   0  0  0  0  0  0  0  0  0  0  0  0
    1.7003    2.9861    2.5705 H   0  0  0  0  0  0  0  0  0  0  0  0
    0.7936    3.6309    1.1871 H   0  0  0  0  0  0  0  0  0  0  0  0
  1  2  1  0  0  0  0
  2  3  1  0  0  0  0
  2  4  1  0  0  0  0
  2  5  1  0  0  0  0
  5  6  2  0  0  0  0
  5  7  1  0  0  0  0
  7  8  1  0  0  0  0
  7  9  1  0  0  0  0
  9 10  1  0  0  0  0
  9 11  1  0  0  0  0
  9 18  1  0  0  0  0
 11 12  1  0  0  0  0
 11 13  1  0  0  0  0
 11 14  1  0  0  0  0
 14 15  2  0  0  0  0
 14 16  1  0  0  0  0
 16 17  1  0  0  0  0
 18 19  2  0  0  0  0
 18 20  1  0  0  0  0
 20 21  1  0  0  0  0
 20 22  1  0  0  0  0
 22 23  1  0  0  0  0
 22 24  1  0  0  0  0
 22 25  1  0  0  0  0
M  END
$$$$

  -OEChem-03222214023D

 25 24  0     1  0  0  0  0  0999 V2000
   -2.7358   -4.0354    0.5044 H   0  0  0  0  0  0  0  0  0  0  0  0
   -2.7808   -3.0055    0.1400 C   0  0  0  0  0  0  0  0  0  0  0  0
   -3.5178   -2.4533    0.7277 H   0  0  0  0  0  0  0  0  0  0  0  0
   -3.0913   -3.0169   -0.9076 H   0  0  0  0  0  0  0  0  0  0  0  0
   -1.4196   -2.3484    0.2643 C   0  0  0  0  0  0  0  0  0  0  0  0
   -0.4879   -2.9624    0.7625 O   0  0  0  0  0  0  0  0  0  0  0  0
   -1.2525   -1.0367   -0.1370 N   0  0  0  0  0  0  0  0  0  0  0  0
   -2.0742   -0.5397   -0.4749 H   0  0  0  0  0  0  0  0  0  0  0  0
    0.0448   -0.3475   -0.2165 C   0  0  1  0  0  0  0  0  0  0  0  0
    0.7814   -0.9073    0.3694 H   0  0  0  0  0  0  0  0  0  0  0  0
    0.5910   -0.2151   -1.6688 C   0  0  0  0  0  0  0  0  0  0  0  0
    0.4761    0.8232   -1.9953 H   0  0  0  0  0  0  0  0  0  0  0  0
    1.6623   -0.4284   -1.6589 H   0  0  0  0  0  0  0  0  0  0  0  0
   -0.0372   -1.0751   -2.7668 C   0  0  0  0  0  0  0  0  0  0  0  0
   -0.2592   -2.2578   -2.5805 O   0  0  0  0  0  0  0  0  0  0  0  0
   -0.3025   -0.4571   -3.9380 O   0  0  0  0  0  0  0  0  0  0  0  0
   -0.6761   -1.1463   -4.5082 H   0  0  0  0  0  0  0  0  0  0  0  0
   -0.0690    1.0580    0.4058 C   0  0  0  0  0  0  0  0  0  0  0  0
   -1.0113    1.7820    0.1080 O   0  0  0  0  0  0  0  0  0  0  0  0
    0.9046    1.5257    1.2690 N   0  0  0  0  0  0  0  0  0  0  0  0
    1.6273    0.8733    1.5607 H   0  0  0  0  0  0  0  0  0  0  0  0
    0.8329    2.8298    1.9174 C   0  0  0  0  0  0  0  0  0  0  0  0
   -0.0589    2.8947    2.5498 H   0  0  0  0  0  0  0  0  0  0  0  0
    1.7149    2.9899    2.5452 H   0  0  0  0  0  0  0  0  0  0  0  0
    0.7929    3.6285    1.1691 H   0  0  0  0  0  0  0  0  0  0  0  0
  1  2  1  0  0  0  0
  2  3  1  0  0  0  0
  2  4  1  0  0  0  0
  2  5  1  0  0  0  0
  5  6  2  0  0  0  0
  5  7  1  0  0  0  0
  7  8  1  0  0  0  0
  7  9  1  0  0  0  0
  9 10  1  0  0  0  0
  9 11  1  0  0  0  0
  9 18  1  0  0  0  0
 11 12  1  0  0  0  0
 11 13  1  0  0  0  0
 11 14  1  0  0  0  0
 14 15  2  0  0  0  0
 14 16  1  0  0  0  0
 16 17  1  0  0  0  0
 18 19  2  0  0  0  0
 18 20  1  0  0  0  0
 20 21  1  0  0  0  0
 20 22  1  0  0  0  0
 22 23  1  0  0  0  0
 22 24  1  0  0  0  0
 22 25  1  0  0  0  0
M  END
$$$$

  -OEChem-03222214023D

 25 24  0     1  0  0  0  0  0999 V2000
   -2.7437   -4.0425    0.5415 H   0  0  0  0  0  0  0  0  0  0  0  0
   -2.7916   -3.0148    0.1711 C   0  0  0  0  0  0  0  0  0  0  0  0
   -3.5316   -2.4624    0.7547 H   0  0  0  0  0  0  0  0  0  0  0  0
   -3.1008   -3.0328   -0.8769 H   0  0  0  0  0  0  0  0  0  0  0  0
   -1.4329   -2.3518    0.2928 C   0  0  0  0  0  0  0  0  0  0  0  0
   -0.4965   -2.9624    0.7875 O   0  0  0  0  0  0  0  0  0  0  0  0
   -1.2703   -1.0415   -0.1146 N   0  0  0  0  0  0  0  0  0  0  0  0
   -2.0890   -0.5608   -0.4810 H   0  0  0  0  0  0  0  0  0  0  0  0
    0.0267   -0.3549   -0.2116 C   0  0  1  0  0  0  0  0  0  0  0  0
    0.7651   -0.9127    0.3736 H   0  0  0  0  0  0  0  0  0  0  0  0
    0.5773   -0.2251   -1.6652 C   0  0  0  0  0  0  0  0  0  0  0  0
    0.4604    0.8146   -1.9864 H   0  0  0  0  0  0  0  0  0  0  0  0
    1.6498   -0.4303   -1.6439 H   0  0  0  0  0  0  0  0  0  0  0  0
   -0.0198   -1.0696   -2.7961 C   0  0  0  0  0  0  0  0  0  0  0  0
   -0.4953   -2.1723   -2.5943 O   0  0  0  0  0  0  0  0  0  0  0  0
    0.0441   -0.5199   -4.0280 O   0  0  0  0  0  0  0  0  0  0  0  0
   -0.3568   -1.1766   -4.6180 H   0  0  0  0  0  0  0  0  0  0  0  0
   -0.0805    1.0525    0.4086 C   0  0  0  0  0  0  0  0  0  0  0  0
   -1.0183    1.7819    0.1090 O   0  0  0  0  0  0  0  0  0  0  0  0
    0.9030    1.5216    1.2598 N   0  0  0  0  0  0  0  0  0  0  0  0
    1.6242    0.8673    1.5503 H   0  0  0  0  0  0  0  0  0  0  0  0
    0.8433    2.8301    1.9007 C   0  0  0  0  0  0  0  0  0  0  0  0
   -0.0474    2.9069    2.5331 H   0  0  0  0  0  0  0  0  0  0  0  0
    1.7270    2.9853    2.5271 H   0  0  0  0  0  0  0  0  0  0  0  0
    0.8106    3.6249    1.1480 H   0  0  0  0  0  0  0  0  0  0  0  0
  1  2  1  0  0  0  0
  2  3  1  0  0  0  0
  2  4  1  0  0  0  0
  2  5  1  0  0  0  0
  5  6  2  0  0  0  0
  5  7  1  0  0  0  0
  7  8  1  0  0  0  0
  7  9  1  0  0  0  0
  9 10  1  0  0  0  0
  9 11  1  0  0  0  0
  9 18  1  0  0  0  0
 11 12  1  0  0  0  0
 11 13  1  0  0  0  0
 11 14  1  0  0  0  0
 14 15  2  0  0  0  0
 14 16  1  0  0  0  0
 16 17  1  0  0  0  0
 18 19  2  0  0  0  0
 18 20  1  0  0  0  0
 20 21  1  0  0  0  0
 20 22  1  0  0  0  0
 22 23  1  0  0  0  0
 22 24  1  0  0  0  0
 22 25  1  0  0  0  0
M  END
$$$$

  -OEChem-03222214023D

 25 24  0     1  0  0  0  0  0999 V2000
   -2.7475   -4.0499    0.5491 H   0  0  0  0  0  0  0  0  0  0  0  0
   -2.7998   -3.0194    0.1876 C   0  0  0  0  0  0  0  0  0  0  0  0
   -3.5412   -2.4744    0.7764 H   0  0  0  0  0  0  0  0  0  0  0  0
   -3.1100   -3.0297   -0.8603 H   0  0  0  0  0  0  0  0  0  0  0  0
   -1.4439   -2.3516    0.3135 C   0  0  0  0  0  0  0  0  0  0  0  0
   -0.5045   -2.9618    0.8034 O   0  0  0  0  0  0  0  0  0  0  0  0
   -1.2848   -1.0420   -0.0964 N   0  0  0  0  0  0  0  0  0  0  0  0
   -2.0978   -0.5792   -0.4969 H   0  0  0  0  0  0  0  0  0  0  0  0
    0.0117   -0.3582   -0.2065 C   0  0  1  0  0  0  0  0  0  0  0  0
    0.7510   -0.9147    0.3786 H   0  0  0  0  0  0  0  0  0  0  0  0
    0.5659   -0.2337   -1.6608 C   0  0  0  0  0  0  0  0  0  0  0  0
    0.4495    0.8058   -1.9822 H   0  0  0  0  0  0  0  0  0  0  0  0
    1.6390   -0.4355   -1.6292 H   0  0  0  0  0  0  0  0  0  0  0  0
   -0.0092   -1.0693   -2.8122 C   0  0  0  0  0  0  0  0  0  0  0  0
   -0.7189   -2.0426   -2.6326 O   0  0  0  0  0  0  0  0  0  0  0  0
    0.3531   -0.6556   -4.0454 O   0  0  0  0  0  0  0  0  0  0  0  0
   -0.0718   -1.2792   -4.6545 H   0  0  0  0  0  0  0  0  0  0  0  0
   -0.0891    1.0496    0.4138 C   0  0  0  0  0  0  0  0  0  0  0  0
   -1.0237    1.7835    0.1153 O   0  0  0  0  0  0  0  0  0  0  0  0
    0.9025    1.5183    1.2557 N   0  0  0  0  0  0  0  0  0  0  0  0
    1.6244    0.8632    1.5428 H   0  0  0  0  0  0  0  0  0  0  0  0
    0.8554    2.8315    1.8878 C   0  0  0  0  0  0  0  0  0  0  0  0
   -0.0331    2.9200    2.5219 H   0  0  0  0  0  0  0  0  0  0  0  0
    1.7421    2.9835    2.5108 H   0  0  0  0  0  0  0  0  0  0  0  0
    0.8274    3.6214    1.1297 H   0  0  0  0  0  0  0  0  0  0  0  0
  1  2  1  0  0  0  0
  2  3  1  0  0  0  0
  2  4  1  0  0  0  0
  2  5  1  0  0  0  0
  5  6  2  0  0  0  0
  5  7  1  0  0  0  0
  7  8  1  0  0  0  0
  7  9  1  0  0  0  0
  9 10  1  0  0  0  0
  9 11  1  0  0  0  0
  9 18  1  0  0  0  0
 11 12  1  0  0  0  0
 11 13  1  0  0  0  0
 11 14  1  0  0  0  0
 14 15  2  0  0  0  0
 14 16  1  0  0  0  0
 16 17  1  0  0  0  0
 18 19  2  0  0  0  0
 18 20  1  0  0  0  0
 20 21  1  0  0  0  0
 20 22  1  0  0  0  0
 22 23  1  0  0  0  0
 22 24  1  0  0  0  0
 22 25  1  0  0  0  0
M  END
$$$$

  -OEChem-03222214023D

 25 24  0     1  0  0  0  0  0999 V2000
   -2.7520   -4.0535    0.5481 H   0  0  0  0  0  0  0  0  0  0  0  0
   -2.8069   -3.0221    0.1896 C   0  0  0  0  0  0  0  0  0  0  0  0
   -3.5511   -2.4817    0.7789 H   0  0  0  0  0  0  0  0  0  0  0  0
   -3.1160   -3.0300   -0.8587 H   0  0  0  0  0  0  0  0  0  0  0  0
   -1.4534   -2.3502    0.3195 C   0  0  0  0  0  0  0  0  0  0  0  0
   -0.5099   -2.9627    0.7986 O   0  0  0  0  0  0  0  0  0  0  0  0
   -1.2970   -1.0400   -0.0881 N   0  0  0  0  0  0  0  0  0  0  0  0
   -2.1042   -0.5916   -0.5161 H   0  0  0  0  0  0  0  0  0  0  0  0
   -0.0017   -0.3555   -0.2020 C   0  0  1  0  0  0  0  0  0  0  0  0
    0.7361   -0.9122    0.3849 H   0  0  0  0  0  0  0  0  0  0  0  0
    0.5593   -0.2367   -1.6549 C   0  0  0  0  0  0  0  0  0  0  0  0
    0.4446    0.8011   -1.9813 H   0  0  0  0  0  0  0  0  0  0  0  0
    1.6326   -0.4370   -1.6119 H   0  0  0  0  0  0  0  0  0  0  0  0
   -0.0004   -1.0732   -2.8144 C   0  0  0  0  0  0  0  0  0  0  0  0
   -0.9078   -1.8753   -2.6833 O   0  0  0  0  0  0  0  0  0  0  0  0
    0.6052   -0.8545   -4.0012 O   0  0  0  0  0  0  0  0  0  0  0  0
    0.1582   -1.4476   -4.6247 H   0  0  0  0  0  0  0  0  0  0  0  0
   -0.0946    1.0522    0.4196 C   0  0  0  0  0  0  0  0  0  0  0  0
   -1.0219    1.7940    0.1187 O   0  0  0  0  0  0  0  0  0  0  0  0
    0.9038    1.5162    1.2564 N   0  0  0  0  0  0  0  0  0  0  0  0
    1.6189    0.8551    1.5468 H   0  0  0  0  0  0  0  0  0  0  0  0
    0.8701    2.8330    1.8818 C   0  0  0  0  0  0  0  0  0  0  0  0
   -0.0105    2.9289    2.5258 H   0  0  0  0  0  0  0  0  0  0  0  0
    1.7646    2.9847    2.4934 H   0  0  0  0  0  0  0  0  0  0  0  0
    0.8366    3.6187    1.1196 H   0  0  0  0  0  0  0  0  0  0  0  0
  1  2  1  0  0  0  0
  2  3  1  0  0  0  0
  2  4  1  0  0  0  0
  2  5  1  0  0  0  0
  5  6  2  0  0  0  0
  5  7  1  0  0  0  0
  7  8  1  0  0  0  0
  7  9  1  0  0  0  0
  9 10  1  0  0  0  0
  9 11  1  0  0  0  0
  9 18  1  0  0  0  0
 11 12  1  0  0  0  0
 11 13  1  0  0  0  0
 11 14  1  0  0  0  0
 14 15  2  0  0  0  0
 14 16  1  0  0  0  0
 16 17  1  0  0  0  0
 18 19  2  0  0  0  0
 18 20  1  0  0  0  0
 20 21  1  0  0  0  0
 20 22  1  0  0  0  0
 22 23  1  0  0  0  0
 22 24  1  0  0  0  0
 22 25  1  0  0  0  0
M  END
$$$$

  -OEChem-03222214023D

 25 24  0     1  0  0  0  0  0999 V2000
   -2.7522   -4.0549    0.5221 H   0  0  0  0  0  0  0  0  0  0  0  0
   -2.8084   -3.0183    0.1787 C   0  0  0  0  0  0  0  0  0  0  0  0
   -3.5510   -2.4864    0.7781 H   0  0  0  0  0  0  0  0  0  0  0  0
   -3.1209   -3.0108   -0.8686 H   0  0  0  0  0  0  0  0  0  0  0  0
   -1.4550   -2.3471    0.3148 C   0  0  0  0  0  0  0  0  0  0  0  0
   -0.5090   -2.9652    0.7815 O   0  0  0  0  0  0  0  0  0  0  0  0
   -1.2982   -1.0363   -0.0889 N   0  0  0  0  0  0  0  0  0  0  0  0
   -2.0998   -0.5971   -0.5374 H   0  0  0  0  0  0  0  0  0  0  0  0
   -0.0046   -0.3492   -0.1997 C   0  0  1  0  0  0  0  0  0  0  0  0
    0.7308   -0.9058    0.3900 H   0  0  0  0  0  0  0  0  0  0  0  0
    0.5606   -0.2373   -1.6506 C   0  0  0  0  0  0  0  0  0  0  0  0
    0.4467    0.7978   -1.9854 H   0  0  0  0  0  0  0  0  0  0  0  0
    1.6339   -0.4366   -1.6007 H   0  0  0  0  0  0  0  0  0  0  0  0
    0.0027   -1.0839   -2.8038 C   0  0  0  0  0  0  0  0  0  0  0  0
   -1.0579   -1.6810   -2.7396 O   0  0  0  0  0  0  0  0  0  0  0  0
    0.7829   -1.1111   -3.9056 O   0  0  0  0  0  0  0  0  0  0  0  0
    0.3095   -1.6763   -4.5355 H   0  0  0  0  0  0  0  0  0  0  0  0
   -0.0943    1.0581    0.4231 C   0  0  0  0  0  0  0  0  0  0  0  0
   -1.0197    1.8027    0.1238 O   0  0  0  0  0  0  0  0  0  0  0  0
    0.9058    1.5190    1.2598 N   0  0  0  0  0  0  0  0  0  0  0  0
    1.6247    0.8587    1.5426 H   0  0  0  0  0  0  0  0  0  0  0  0
    0.8746    2.8346    1.8880 C   0  0  0  0  0  0  0  0  0  0  0  0
   -0.0104    2.9341    2.5253 H   0  0  0  0  0  0  0  0  0  0  0  0
    1.7649    2.9795    2.5075 H   0  0  0  0  0  0  0  0  0  0  0  0
    0.8521    3.6224    1.1276 H   0  0  0  0  0  0  0  0  0  0  0  0
  1  2  1  0  0  0  0
  2  3  1  0  0  0  0
  2  4  1  0  0  0  0
  2  5  1  0  0  0  0
  5  6  2  0  0  0  0
  5  7  1  0  0  0  0
  7  8  1  0  0  0  0
  7  9  1  0  0  0  0
  9 10  1  0  0  0  0
  9 11  1  0  0  0  0
  9 18  1  0  0  0  0
 11 12  1  0  0  0  0
 11 13  1  0  0  0  0
 11 14  1  0  0  0  0
 14 15  2  0  0  0  0
 14 16  1  0  0  0  0
 16 17  1  0  0  0  0
 18 19  2  0  0  0  0
 18 20  1  0  0  0  0
 20 21  1  0  0  0  0
 20 22  1  0  0  0  0
 22 23  1  0  0  0  0
 22 24  1  0  0  0  0
 22 25  1  0  0  0  0
M  END
$$$$

  -OEChem-03222214023D

 25 24  0     1  0  0  0  0  0999 V2000
   -2.7472   -4.0541    0.4859 H   0  0  0  0  0  0  0  0  0  0  0  0
   -2.8035   -3.0132    0.1560 C   0  0  0  0  0  0  0  0  0  0  0  0
   -3.5429   -2.4881    0.7652 H   0  0  0  0  0  0  0  0  0  0  0  0
   -3.1203   -2.9911   -0.8898 H   0  0  0  0  0  0  0  0  0  0  0  0
   -1.4491   -2.3452    0.2961 C   0  0  0  0  0  0  0  0  0  0  0  0
   -0.5012   -2.9705    0.7484 O   0  0  0  0  0  0  0  0  0  0  0  0
   -1.2902   -1.0332   -0.1002 N   0  0  0  0  0  0  0  0  0  0  0  0
   -2.0884   -0.5936   -0.5557 H   0  0  0  0  0  0  0  0  0  0  0  0
    0.0013   -0.3410   -0.1983 C   0  0  1  0  0  0  0  0  0  0  0  0
    0.7339   -0.8976    0.3950 H   0  0  0  0  0  0  0  0  0  0  0  0
    0.5701   -0.2332   -1.6466 C   0  0  0  0  0  0  0  0  0  0  0  0
    0.4536    0.7984   -1.9909 H   0  0  0  0  0  0  0  0  0  0  0  0
    1.6438   -0.4305   -1.5952 H   0  0  0  0  0  0  0  0  0  0  0  0
    0.0016   -1.0965   -2.7810 C   0  0  0  0  0  0  0  0  0  0  0  0
   -1.1605   -1.4660   -2.8022 O   0  0  0  0  0  0  0  0  0  0  0  0
    0.8791   -1.4039   -3.7604 O   0  0  0  0  0  0  0  0  0  0  0  0
    0.3757   -1.9435   -4.3894 H   0  0  0  0  0  0  0  0  0  0  0  0
   -0.0913    1.0647    0.4275 C   0  0  0  0  0  0  0  0  0  0  0  0
   -1.0144    1.8105    0.1250 O   0  0  0  0  0  0  0  0  0  0  0  0
    0.9040    1.5230    1.2713 N   0  0  0  0  0  0  0  0  0  0  0  0
    1.6218    0.8623    1.5555 H   0  0  0  0  0  0  0  0  0  0  0  0
    0.8725    2.8388    1.8991 C   0  0  0  0  0  0  0  0  0  0  0  0
   -0.0151    2.9406    2.5324 H   0  0  0  0  0  0  0  0  0  0  0  0
    1.7606    2.9820    2.5222 H   0  0  0  0  0  0  0  0  0  0  0  0
    0.8546    3.6263    1.1382 H   0  0  0  0  0  0  0  0  0  0  0  0
  1  2  1  0  0  0  0
  2  3  1  0  0  0  0
  2  4  1  0  0  0  0
  2  5  1  0  0  0  0
  5  6  2  0  0  0  0
  5  7  1  0  0  0  0
  7  8  1  0  0  0  0
  7  9  1  0  0  0  0
  9 10  1  0  0  0  0
  9 11  1  0  0  0  0
  9 18  1  0  0  0  0
 11 12  1  0  0  0  0
 11 13  1  0  0  0  0
 11 14  1  0  0  0  0
 14 15  2  0  0  0  0
 14 16  1  0  0  0  0
 16 17  1  0  0  0  0
 18 19  2  0  0  0  0
 18 20  1  0  0  0  0
 20 21  1  0  0  0  0
 20 22  1  0  0  0  0
 22 23  1  0  0  0  0
 22 24  1  0  0  0  0
 22 25  1  0  0  0  0
M  END
$$$$

  -OEChem-03222214023D

 25 24  0     1  0  0  0  0  0999 V2000
   -2.7386   -4.0481    0.4479 H   0  0  0  0  0  0  0  0  0  0  0  0
   -2.7942   -3.0018    0.1351 C   0  0  0  0  0  0  0  0  0  0  0  0
   -3.5213   -2.4823    0.7637 H   0  0  0  0  0  0  0  0  0  0  0  0
   -3.1276   -2.9614   -0.9050 H   0  0  0  0  0  0  0  0  0  0  0  0
   -1.4343   -2.3434    0.2648 C   0  0  0  0  0  0  0  0  0  0  0  0
   -0.4839   -2.9783    0.6969 O   0  0  0  0  0  0  0  0  0  0  0  0
   -1.2719   -1.0301   -0.1240 N   0  0  0  0  0  0  0  0  0  0  0  0
   -2.0718   -0.5808   -0.5683 H   0  0  0  0  0  0  0  0  0  0  0  0
    0.0171   -0.3301   -0.2044 C   0  0  1  0  0  0  0  0  0  0  0  0
    0.7467   -0.8863    0.3932 H   0  0  0  0  0  0  0  0  0  0  0  0
    0.5882   -0.2266   -1.6492 C   0  0  0  0  0  0  0  0  0  0  0  0
    0.4650    0.7999   -2.0062 H   0  0  0  0  0  0  0  0  0  0  0  0
    1.6628   -0.4202   -1.6023 H   0  0  0  0  0  0  0  0  0  0  0  0
   -0.0009   -1.1144   -2.7505 C   0  0  0  0  0  0  0  0  0  0  0  0
   -1.2069   -1.2512   -2.8780 O   0  0  0  0  0  0  0  0  0  0  0  0
    0.8927   -1.7128   -3.5675 O   0  0  0  0  0  0  0  0  0  0  0  0
    0.3591   -2.2306   -4.1897 H   0  0  0  0  0  0  0  0  0  0  0  0
   -0.0835    1.0740    0.4233 C   0  0  0  0  0  0  0  0  0  0  0  0
   -1.0117    1.8148    0.1248 O   0  0  0  0  0  0  0  0  0  0  0  0
    0.9030    1.5313    1.2778 N   0  0  0  0  0  0  0  0  0  0  0  0
    1.6265    0.8746    1.5569 H   0  0  0  0  0  0  0  0  0  0  0  0
    0.8573    2.8406    1.9179 C   0  0  0  0  0  0  0  0  0  0  0  0
   -0.0448    2.9364    2.5316 H   0  0  0  0  0  0  0  0  0  0  0  0
    1.7304    2.9770    2.5633 H   0  0  0  0  0  0  0  0  0  0  0  0
    0.8572    3.6357    1.1647 H   0  0  0  0  0  0  0  0  0  0  0  0
  1  2  1  0  0  0  0
  2  3  1  0  0  0  0
  2  4  1  0  0  0  0
  2  5  1  0  0  0  0
  5  6  2  0  0  0  0
  5  7  1  0  0  0  0
  7  8  1  0  0  0  0
  7  9  1  0  0  0  0
  9 10  1  0  0  0  0
  9 11  1  0  0  0  0
  9 18  1  0  0  0  0
 11 12  1  0  0  0  0
 11 13  1  0  0  0  0
 11 14  1  0  0  0  0
 14 15  2  0  0  0  0
 14 16  1  0  0  0  0
 16 17  1  0  0  0  0
 18 19  2  0  0  0  0
 18 20  1  0  0  0  0
 20 21  1  0  0  0  0
 20 22  1  0  0  0  0
 22 23  1  0  0  0  0
 22 24  1  0  0  0  0
 22 25  1  0  0  0  0
M  END
$$$$

  -OEChem-03222214023D

 25 24  0     1  0  0  0  0  0999 V2000
   -2.7338   -4.0450    0.4157 H   0  0  0  0  0  0  0  0  0  0  0  0
   -2.7865   -2.9954    0.1137 C   0  0  0  0  0  0  0  0  0  0  0  0
   -3.5012   -2.4776    0.7579 H   0  0  0  0  0  0  0  0  0  0  0  0
   -3.1346   -2.9425   -0.9210 H   0  0  0  0  0  0  0  0  0  0  0  0
   -1.4204   -2.3473    0.2303 C   0  0  0  0  0  0  0  0  0  0  0  0
   -0.4683   -2.9922    0.6424 O   0  0  0  0  0  0  0  0  0  0  0  0
   -1.2529   -1.0323   -0.1505 N   0  0  0  0  0  0  0  0  0  0  0  0
   -2.0609   -0.5605   -0.5558 H   0  0  0  0  0  0  0  0  0  0  0  0
    0.0340   -0.3239   -0.2095 C   0  0  1  0  0  0  0  0  0  0  0  0
    0.7594   -0.8804    0.3929 H   0  0  0  0  0  0  0  0  0  0  0  0
    0.6091   -0.2195   -1.6494 C   0  0  0  0  0  0  0  0  0  0  0  0
    0.4784    0.8029   -2.0163 H   0  0  0  0  0  0  0  0  0  0  0  0
    1.6845   -0.4110   -1.6097 H   0  0  0  0  0  0  0  0  0  0  0  0
   -0.0019   -1.1293   -2.7148 C   0  0  0  0  0  0  0  0  0  0  0  0
   -1.1901   -1.0492   -2.9817 O   0  0  0  0  0  0  0  0  0  0  0  0
    0.8358   -1.9889   -3.3340 O   0  0  0  0  0  0  0  0  0  0  0  0
    0.2807   -2.4795   -3.9591 H   0  0  0  0  0  0  0  0  0  0  0  0
   -0.0774    1.0781    0.4200 C   0  0  0  0  0  0  0  0  0  0  0  0
   -1.0122    1.8110    0.1233 O   0  0  0  0  0  0  0  0  0  0  0  0
    0.8967    1.5361    1.2880 N   0  0  0  0  0  0  0  0  0  0  0  0
    1.6271    0.8858    1.5639 H   0  0  0  0  0  0  0  0  0  0  0  0
    0.8430    2.8456    1.9272 C   0  0  0  0  0  0  0  0  0  0  0  0
   -0.0598    2.9360    2.5406 H   0  0  0  0  0  0  0  0  0  0  0  0
    1.7155    2.9878    2.5723 H   0  0  0  0  0  0  0  0  0  0  0  0
    0.8380    3.6402    1.1735 H   0  0  0  0  0  0  0  0  0  0  0  0
  1  2  1  0  0  0  0
  2  3  1  0  0  0  0
  2  4  1  0  0  0  0
  2  5  1  0  0  0  0
  5  6  2  0  0  0  0
  5  7  1  0  0  0  0
  7  8  1  0  0  0  0
  7  9  1  0  0  0  0
  9 10  1  0  0  0  0
  9 11  1  0  0  0  0
  9 18  1  0  0  0  0
 11 12  1  0  0  0  0
 11 13  1  0  0  0  0
 11 14  1  0  0  0  0
 14 15  2  0  0  0  0
 14 16  1  0  0  0  0
 16 17  1  0  0  0  0
 18 19  2  0  0  0  0
 18 20  1  0  0  0  0
 20 21  1  0  0  0  0
 20 22  1  0  0  0  0
 22 23  1  0  0  0  0
 22 24  1  0  0  0  0
 22 25  1  0  0  0  0
M  END
$$$$

  -OEChem-03222214023D

 25 24  0     1  0  0  0  0  0999 V2000
   -2.7346   -4.0336    0.4094 H   0  0  0  0  0  0  0  0  0  0  0  0
   -2.7826   -2.9833    0.1092 C   0  0  0  0  0  0  0  0  0  0  0  0
   -3.4769   -2.4583    0.7696 H   0  0  0  0  0  0  0  0  0  0  0  0
   -3.1530   -2.9263   -0.9173 H   0  0  0  0  0  0  0  0  0  0  0  0
   -1.4074   -2.3499    0.1962 C   0  0  0  0  0  0  0  0  0  0  0  0
   -0.4530   -3.0057    0.5839 O   0  0  0  0  0  0  0  0  0  0  0  0
   -1.2350   -1.0339   -0.1794 N   0  0  0  0  0  0  0  0  0  0  0  0
   -2.0542   -0.5344   -0.5252 H   0  0  0  0  0  0  0  0  0  0  0  0
    0.0513   -0.3208   -0.2197 C   0  0  1  0  0  0  0  0  0  0  0  0
    0.7728   -0.8775    0.3874 H   0  0  0  0  0  0  0  0  0  0  0  0
    0.6303   -0.2168   -1.6552 C   0  0  0  0  0  0  0  0  0  0  0  0
    0.4972    0.8027   -2.0296 H   0  0  0  0  0  0  0  0  0  0  0  0
    1.7050   -0.4119   -1.6222 H   0  0  0  0  0  0  0  0  0  0  0  0
   -0.0004   -1.1438   -2.6892 C   0  0  0  0  0  0  0  0  0  0  0  0
   -1.1082   -0.8835   -3.1283 O   0  0  0  0  0  0  0  0  0  0  0  0
    0.7208   -2.2147   -3.0852 O   0  0  0  0  0  0  0  0  0  0  0  0
    0.1593   -2.6801   -3.7233 H   0  0  0  0  0  0  0  0  0  0  0  0
   -0.0708    1.0798    0.4104 C   0  0  0  0  0  0  0  0  0  0  0  0
   -1.0152    1.8022    0.1187 O   0  0  0  0  0  0  0  0  0  0  0  0
    0.8909    1.5391    1.2916 N   0  0  0  0  0  0  0  0  0  0  0  0
    1.6302    0.8966    1.5622 H   0  0  0  0  0  0  0  0  0  0  0  0
    0.8229    2.8450    1.9368 C   0  0  0  0  0  0  0  0  0  0  0  0
   -0.0803    2.9226    2.5512 H   0  0  0  0  0  0  0  0  0  0  0  0
    1.6941    2.9947    2.5817 H   0  0  0  0  0  0  0  0  0  0  0  0
    0.8084    3.6425    1.1864 H   0  0  0  0  0  0  0  0  0  0  0  0
  1  2  1  0  0  0  0
  2  3  1  0  0  0  0
  2  4  1  0  0  0  0
  2  5  1  0  0  0  0
  5  6  2  0  0  0  0
  5  7  1  0  0  0  0
  7  8  1  0  0  0  0
  7  9  1  0  0  0  0
  9 10  1  0  0  0  0
  9 11  1  0  0  0  0
  9 18  1  0  0  0  0
 11 12  1  0  0  0  0
 11 13  1  0  0  0  0
 11 14  1  0  0  0  0
 14 15  2  0  0  0  0
 14 16  1  0  0  0  0
 16 17  1  0  0  0  0
 18 19  2  0  0  0  0
 18 20  1  0  0  0  0
 20 21  1  0  0  0  0
 20 22  1  0  0  0  0
 22 23  1  0  0  0  0
 22 24  1  0  0  0  0
 22 25  1  0  0  0  0
M  END
$$$$

  -OEChem-03222214023D

 25 24  0     1  0  0  0  0  0999 V2000
   -2.7442   -4.0207    0.4334 H   0  0  0  0  0  0  0  0  0  0  0  0
   -2.7877   -2.9716    0.1278 C   0  0  0  0  0  0  0  0  0  0  0  0
   -3.4623   -2.4360    0.8000 H   0  0  0  0  0  0  0  0  0  0  0  0
   -3.1801   -2.9171   -0.8907 H   0  0  0  0  0  0  0  0  0  0  0  0
   -1.4040   -2.3527    0.1821 C   0  0  0  0  0  0  0  0  0  0  0  0
   -0.4519   -3.0147    0.5637 O   0  0  0  0  0  0  0  0  0  0  0  0
   -1.2263   -1.0375   -0.1952 N   0  0  0  0  0  0  0  0  0  0  0  0
   -2.0529   -0.5154   -0.4855 H   0  0  0  0  0  0  0  0  0  0  0  0
    0.0621   -0.3261   -0.2268 C   0  0  1  0  0  0  0  0  0  0  0  0
    0.7807   -0.8831    0.3837 H   0  0  0  0  0  0  0  0  0  0  0  0
    0.6444   -0.2211   -1.6597 C   0  0  0  0  0  0  0  0  0  0  0  0
    0.5174    0.7994   -2.0338 H   0  0  0  0  0  0  0  0  0  0  0  0
    1.7173   -0.4248   -1.6289 H   0  0  0  0  0  0  0  0  0  0  0  0
    0.0041   -1.1511   -2.6829 C   0  0  0  0  0  0  0  0  0  0  0  0
   -0.9612   -0.7576   -3.3143 O   0  0  0  0  0  0  0  0  0  0  0  0
    0.5691   -2.3632   -2.8700 O   0  0  0  0  0  0  0  0  0  0  0  0
    0.0314   -2.7953   -3.5502 H   0  0  0  0  0  0  0  0  0  0  0  0
   -0.0671    1.0753    0.4004 C   0  0  0  0  0  0  0  0  0  0  0  0
   -1.0210    1.7874    0.1140 O   0  0  0  0  0  0  0  0  0  0  0  0
    0.8856    1.5380    1.2897 N   0  0  0  0  0  0  0  0  0  0  0  0
    1.6309    0.9019    1.5587 H   0  0  0  0  0  0  0  0  0  0  0  0
    0.8053    2.8417    1.9382 C   0  0  0  0  0  0  0  0  0  0  0  0
   -0.1024    2.9123    2.5468 H   0  0  0  0  0  0  0  0  0  0  0  0
    1.6713    2.9947    2.5894 H   0  0  0  0  0  0  0  0  0  0  0  0
    0.7909    3.6413    1.1900 H   0  0  0  0  0  0  0  0  0  0  0  0
  1  2  1  0  0  0  0
  2  3  1  0  0  0  0
  2  4  1  0  0  0  0
  2  5  1  0  0  0  0
  5  6  2  0  0  0  0
  5  7  1  0  0  0  0
  7  8  1  0  0  0  0
  7  9  1  0  0  0  0
  9 10  1  0  0  0  0
  9 11  1  0  0  0  0
  9 18  1  0  0  0  0
 11 12  1  0  0  0  0
 11 13  1  0  0  0  0
 11 14  1  0  0  0  0
 14 15  2  0  0  0  0
 14 16  1  0  0  0  0
 16 17  1  0  0  0  0
 18 19  2  0  0  0  0
 18 20  1  0  0  0  0
 20 21  1  0  0  0  0
 20 22  1  0  0  0  0
 22 23  1  0  0  0  0
 22 24  1  0  0  0  0
 22 25  1  0  0  0  0
M  END
$$$$

  -OEChem-03222214023D

 25 24  0     1  0  0  0  0  0999 V2000
   -2.7554   -4.0091    0.4666 H   0  0  0  0  0  0  0  0  0  0  0  0
   -2.7949   -2.9630    0.1508 C   0  0  0  0  0  0  0  0  0  0  0  0
   -3.4650   -2.4176    0.8195 H   0  0  0  0  0  0  0  0  0  0  0  0
   -3.1896   -2.9167   -0.8670 H   0  0  0  0  0  0  0  0  0  0  0  0
   -1.4077   -2.3513    0.1952 C   0  0  0  0  0  0  0  0  0  0  0  0
   -0.4610   -3.0112    0.5933 O   0  0  0  0  0  0  0  0  0  0  0  0
   -1.2263   -1.0389   -0.1916 N   0  0  0  0  0  0  0  0  0  0  0  0
   -2.0547   -0.5066   -0.4568 H   0  0  0  0  0  0  0  0  0  0  0  0
    0.0656   -0.3341   -0.2269 C   0  0  1  0  0  0  0  0  0  0  0  0
    0.7845   -0.8909    0.3837 H   0  0  0  0  0  0  0  0  0  0  0  0
    0.6456   -0.2278   -1.6610 C   0  0  0  0  0  0  0  0  0  0  0  0
    0.5291    0.7967   -2.0290 H   0  0  0  0  0  0  0  0  0  0  0  0
    1.7162   -0.4429   -1.6318 H   0  0  0  0  0  0  0  0  0  0  0  0
    0.0009   -1.1502   -2.6886 C   0  0  0  0  0  0  0  0  0  0  0  0
   -0.7692   -0.6717   -3.5020 O   0  0  0  0  0  0  0  0  0  0  0  0
    0.3745   -2.4478   -2.6968 O   0  0  0  0  0  0  0  0  0  0  0  0
   -0.1121   -2.8522   -3.4303 H   0  0  0  0  0  0  0  0  0  0  0  0
   -0.0650    1.0703    0.3930 C   0  0  0  0  0  0  0  0  0  0  0  0
   -1.0232    1.7769    0.1066 O   0  0  0  0  0  0  0  0  0  0  0  0
    0.8857    1.5367    1.2821 N   0  0  0  0  0  0  0  0  0  0  0  0
    1.6295    0.9007    1.5559 H   0  0  0  0  0  0  0  0  0  0  0  0
    0.7956    2.8372    1.9353 C   0  0  0  0  0  0  0  0  0  0  0  0
   -0.1090    2.8962    2.5495 H   0  0  0  0  0  0  0  0  0  0  0  0
    1.6639    2.9973    2.5817 H   0  0  0  0  0  0  0  0  0  0  0  0
    0.7681    3.6392    1.1900 H   0  0  0  0  0  0  0  0  0  0  0  0
  1  2  1  0  0  0  0
  2  3  1  0  0  0  0
  2  4  1  0  0  0  0
  2  5  1  0  0  0  0
  5  6  2  0  0  0  0
  5  7  1  0  0  0  0
  7  8  1  0  0  0  0
  7  9  1  0  0  0  0
  9 10  1  0  0  0  0
  9 11  1  0  0  0  0
  9 18  1  0  0  0  0
 11 12  1  0  0  0  0
 11 13  1  0  0  0  0
 11 14  1  0  0  0  0
 14 15  2  0  0  0  0
 14 16  1  0  0  0  0
 16 17  1  0  0  0  0
 18 19  2  0  0  0  0
 18 20  1  0  0  0  0
 20 21  1  0  0  0  0
 20 22  1  0  0  0  0
 22 23  1  0  0  0  0
 22 24  1  0  0  0  0
 22 25  1  0  0  0  0
M  END
$$$$

  -OEChem-03222214023D

 25 24  0     1  0  0  0  0  0999 V2000
   -2.7687   -4.0040    0.5081 H   0  0  0  0  0  0  0  0  0  0  0  0
   -2.8058   -2.9618    0.1792 C   0  0  0  0  0  0  0  0  0  0  0  0
   -3.4781   -2.4072    0.8382 H   0  0  0  0  0  0  0  0  0  0  0  0
   -3.1961   -2.9284   -0.8407 H   0  0  0  0  0  0  0  0  0  0  0  0
   -1.4182   -2.3506    0.2216 C   0  0  0  0  0  0  0  0  0  0  0  0
   -0.4764   -3.0044    0.6420 O   0  0  0  0  0  0  0  0  0  0  0  0
   -1.2346   -1.0409   -0.1758 N   0  0  0  0  0  0  0  0  0  0  0  0
   -2.0632   -0.5043   -0.4301 H   0  0  0  0  0  0  0  0  0  0  0  0
    0.0614   -0.3443   -0.2212 C   0  0  1  0  0  0  0  0  0  0  0  0
    0.7819   -0.9002    0.3879 H   0  0  0  0  0  0  0  0  0  0  0  0
    0.6371   -0.2336   -1.6583 C   0  0  0  0  0  0  0  0  0  0  0  0
    0.5310    0.7962   -2.0147 H   0  0  0  0  0  0  0  0  0  0  0  0
    1.7058   -0.4578   -1.6291 H   0  0  0  0  0  0  0  0  0  0  0  0
   -0.0039   -1.1393   -2.7054 C   0  0  0  0  0  0  0  0  0  0  0  0
   -0.5349   -0.6177   -3.6695 O   0  0  0  0  0  0  0  0  0  0  0  0
    0.1477   -2.4755   -2.5810 O   0  0  0  0  0  0  0  0  0  0  0  0
   -0.2682   -2.8557   -3.3689 H   0  0  0  0  0  0  0  0  0  0  0  0
   -0.0668    1.0635    0.3919 C   0  0  0  0  0  0  0  0  0  0  0  0
   -1.0264    1.7683    0.1052 O   0  0  0  0  0  0  0  0  0  0  0  0
    0.8858    1.5342    1.2766 N   0  0  0  0  0  0  0  0  0  0  0  0
    1.6292    0.8988    1.5528 H   0  0  0  0  0  0  0  0  0  0  0  0
    0.7957    2.8363    1.9267 C   0  0  0  0  0  0  0  0  0  0  0  0
   -0.1093    2.8965    2.5404 H   0  0  0  0  0  0  0  0  0  0  0  0
    1.6638    2.9977    2.5731 H   0  0  0  0  0  0  0  0  0  0  0  0
    0.7689    3.6367    1.1797 H   0  0  0  0  0  0  0  0  0  0  0  0
  1  2  1  0  0  0  0
  2  3  1  0  0  0  0
  2  4  1  0  0  0  0
  2  5  1  0  0  0  0
  5  6  2  0  0  0  0
  5  7  1  0  0  0  0
  7  8  1  0  0  0  0
  7  9  1  0  0  0  0
  9 10  1  0  0  0  0
  9 11  1  0  0  0  0
  9 18  1  0  0  0  0
 11 12  1  0  0  0  0
 11 13  1  0  0  0  0
 11 14  1  0  0  0  0
 14 15  2  0  0  0  0
 14 16  1  0  0  0  0
 16 17  1  0  0  0  0
 18 19  2  0  0  0  0
 18 20  1  0  0  0  0
 20 21  1  0  0  0  0
 20 22  1  0  0  0  0
 22 23  1  0  0  0  0
 22 24  1  0  0  0  0
 22 25  1  0  0  0  0
M  END
$$$$

  -OEChem-03222214023D

 25 24  0     1  0  0  0  0  0999 V2000
   -2.7836   -3.9979    0.5579 H   0  0  0  0  0  0  0  0  0  0  0  0
   -2.8196   -2.9605    0.2140 C   0  0  0  0  0  0  0  0  0  0  0  0
   -3.4961   -2.3972    0.8611 H   0  0  0  0  0  0  0  0  0  0  0  0
   -3.2039   -2.9424   -0.8086 H   0  0  0  0  0  0  0  0  0  0  0  0
   -1.4323   -2.3487    0.2551 C   0  0  0  0  0  0  0  0  0  0  0  0
   -0.4928   -2.9978    0.6887 O   0  0  0  0  0  0  0  0  0  0  0  0
   -1.2475   -1.0416   -0.1517 N   0  0  0  0  0  0  0  0  0  0  0  0
   -2.0754   -0.5053   -0.4073 H   0  0  0  0  0  0  0  0  0  0  0  0
    0.0516   -0.3531   -0.2148 C   0  0  1  0  0  0  0  0  0  0  0  0
    0.7756   -0.9089    0.3903 H   0  0  0  0  0  0  0  0  0  0  0  0
    0.6219   -0.2378   -1.6561 C   0  0  0  0  0  0  0  0  0  0  0  0
    0.5225    0.7973   -1.9991 H   0  0  0  0  0  0  0  0  0  0  0  0
    1.6895   -0.4664   -1.6256 H   0  0  0  0  0  0  0  0  0  0  0  0
   -0.0064   -1.1223   -2.7322 C   0  0  0  0  0  0  0  0  0  0  0  0
   -0.2664   -0.6005   -3.8014 O   0  0  0  0  0  0  0  0  0  0  0  0
   -0.1015   -2.4535   -2.5258 O   0  0  0  0  0  0  0  0  0  0  0  0
   -0.4311   -2.8187   -3.3604 H   0  0  0  0  0  0  0  0  0  0  0  0
   -0.0715    1.0572    0.3948 C   0  0  0  0  0  0  0  0  0  0  0  0
   -1.0319    1.7621    0.1101 O   0  0  0  0  0  0  0  0  0  0  0  0
    0.8880    1.5316    1.2698 N   0  0  0  0  0  0  0  0  0  0  0  0
    1.6338    0.8974    1.5426 H   0  0  0  0  0  0  0  0  0  0  0  0
    0.8003    2.8346    1.9183 C   0  0  0  0  0  0  0  0  0  0  0  0
   -0.0988    2.8933    2.5407 H   0  0  0  0  0  0  0  0  0  0  0  0
    1.6740    2.9997    2.5559 H   0  0  0  0  0  0  0  0  0  0  0  0
    0.7632    3.6336    1.1703 H   0  0  0  0  0  0  0  0  0  0  0  0
  1  2  1  0  0  0  0
  2  3  1  0  0  0  0
  2  4  1  0  0  0  0
  2  5  1  0  0  0  0
  5  6  2  0  0  0  0
  5  7  1  0  0  0  0
  7  8  1  0  0  0  0
  7  9  1  0  0  0  0
  9 10  1  0  0  0  0
  9 11  1  0  0  0  0
  9 18  1  0  0  0  0
 11 12  1  0  0  0  0
 11 13  1  0  0  0  0
 11 14  1  0  0  0  0
 14 15  2  0  0  0  0
 14 16  1  0  0  0  0
 16 17  1  0  0  0  0
 18 19  2  0  0  0  0
 18 20  1  0  0  0  0
 20 21  1  0  0  0  0
 20 22  1  0  0  0  0
 22 23  1  0  0  0  0
 22 24  1  0  0  0  0
 22 25  1  0  0  0  0
M  END
$$$$

  -OEChem-03222214023D

 25 24  0     1  0  0  0  0  0999 V2000
   -2.7979   -3.9949    0.6221 H   0  0  0  0  0  0  0  0  0  0  0  0
   -2.8337   -2.9630    0.2619 C   0  0  0  0  0  0  0  0  0  0  0  0
   -3.5040   -2.3875    0.9047 H   0  0  0  0  0  0  0  0  0  0  0  0
   -3.2247   -2.9595   -0.7582 H   0  0  0  0  0  0  0  0  0  0  0  0
   -1.4449   -2.3537    0.2829 C   0  0  0  0  0  0  0  0  0  0  0  0
   -0.5006   -3.0026    0.7074 O   0  0  0  0  0  0  0  0  0  0  0  0
   -1.2643   -1.0472   -0.1280 N   0  0  0  0  0  0  0  0  0  0  0  0
   -2.0933   -0.5144   -0.3856 H   0  0  0  0  0  0  0  0  0  0  0  0
    0.0352   -0.3633   -0.2081 C   0  0  1  0  0  0  0  0  0  0  0  0
    0.7624   -0.9197    0.3925 H   0  0  0  0  0  0  0  0  0  0  0  0
    0.6066   -0.2376   -1.6508 C   0  0  0  0  0  0  0  0  0  0  0  0
    0.5067    0.8027   -1.9780 H   0  0  0  0  0  0  0  0  0  0  0  0
    1.6750   -0.4615   -1.6122 H   0  0  0  0  0  0  0  0  0  0  0  0
    0.0078   -1.0943   -2.7693 C   0  0  0  0  0  0  0  0  0  0  0  0
    0.0407   -0.6126   -3.8873 O   0  0  0  0  0  0  0  0  0  0  0  0
   -0.3739   -2.3692   -2.5394 O   0  0  0  0  0  0  0  0  0  0  0  0
   -0.6110   -2.7224   -3.4100 H   0  0  0  0  0  0  0  0  0  0  0  0
   -0.0850    1.0463    0.4036 C   0  0  0  0  0  0  0  0  0  0  0  0
   -1.0425    1.7550    0.1172 O   0  0  0  0  0  0  0  0  0  0  0  0
    0.8825    1.5221    1.2690 N   0  0  0  0  0  0  0  0  0  0  0  0
    1.6239    0.8846    1.5456 H   0  0  0  0  0  0  0  0  0  0  0  0
    0.8106    2.8338    1.9017 C   0  0  0  0  0  0  0  0  0  0  0  0
   -0.0778    2.9042    2.5382 H   0  0  0  0  0  0  0  0  0  0  0  0
    1.6960    3.0033    2.5221 H   0  0  0  0  0  0  0  0  0  0  0  0
    0.7647    3.6231    1.1437 H   0  0  0  0  0  0  0  0  0  0  0  0
  1  2  1  0  0  0  0
  2  3  1  0  0  0  0
  2  4  1  0  0  0  0
  2  5  1  0  0  0  0
  5  6  2  0  0  0  0
  5  7  1  0  0  0  0
  7  8  1  0  0  0  0
  7  9  1  0  0  0  0
  9 10  1  0  0  0  0
  9 11  1  0  0  0  0
  9 18  1  0  0  0  0
 11 12  1  0  0  0  0
 11 13  1  0  0  0  0
 11 14  1  0  0  0  0
 14 15  2  0  0  0  0
 14 16  1  0  0  0  0
 16 17  1  0  0  0  0
 18 19  2  0  0  0  0
 18 20  1  0  0  0  0
 20 21  1  0  0  0  0
 20 22  1  0  0  0  0
 22 23  1  0  0  0  0
 22 24  1  0  0  0  0
 22 25  1  0  0  0  0
M  END
$$$$

  -OEChem-03222214023D

 25 24  0     1  0  0  0  0  0999 V2000
   -2.7994   -3.9986    0.6589 H   0  0  0  0  0  0  0  0  0  0  0  0
   -2.8390   -2.9677    0.2964 C   0  0  0  0  0  0  0  0  0  0  0  0
   -3.5059   -2.3916    0.9422 H   0  0  0  0  0  0  0  0  0  0  0  0
   -3.2368   -2.9672   -0.7213 H   0  0  0  0  0  0  0  0  0  0  0  0
   -1.4510   -2.3560    0.3063 C   0  0  0  0  0  0  0  0  0  0  0  0
   -0.4991   -3.0070    0.7106 O   0  0  0  0  0  0  0  0  0  0  0  0
   -1.2770   -1.0488   -0.1047 N   0  0  0  0  0  0  0  0  0  0  0  0
   -2.1075   -0.5266   -0.3776 H   0  0  0  0  0  0  0  0  0  0  0  0
    0.0197   -0.3646   -0.2041 C   0  0  1  0  0  0  0  0  0  0  0  0
    0.7510   -0.9194    0.3928 H   0  0  0  0  0  0  0  0  0  0  0  0
    0.5912   -0.2402   -1.6490 C   0  0  0  0  0  0  0  0  0  0  0  0
    0.4825    0.8005   -1.9715 H   0  0  0  0  0  0  0  0  0  0  0  0
    1.6623   -0.4508   -1.6017 H   0  0  0  0  0  0  0  0  0  0  0  0
    0.0242   -1.0820   -2.7987 C   0  0  0  0  0  0  0  0  0  0  0  0
    0.3377   -0.7048   -3.9134 O   0  0  0  0  0  0  0  0  0  0  0  0
   -0.6753   -2.2190   -2.5911 O   0  0  0  0  0  0  0  0  0  0  0  0
   -0.8339   -2.5794   -3.4766 H   0  0  0  0  0  0  0  0  0  0  0  0
   -0.0926    1.0442    0.4120 C   0  0  0  0  0  0  0  0  0  0  0  0
   -1.0504    1.7557    0.1336 O   0  0  0  0  0  0  0  0  0  0  0  0
    0.8869    1.5211    1.2635 N   0  0  0  0  0  0  0  0  0  0  0  0
    1.6338    0.8850    1.5287 H   0  0  0  0  0  0  0  0  0  0  0  0
    0.8227    2.8334    1.8961 C   0  0  0  0  0  0  0  0  0  0  0  0
   -0.0587    2.9045    2.5422 H   0  0  0  0  0  0  0  0  0  0  0  0
    1.7147    3.0034    2.5067 H   0  0  0  0  0  0  0  0  0  0  0  0
    0.7689    3.6221    1.1380 H   0  0  0  0  0  0  0  0  0  0  0  0
  1  2  1  0  0  0  0
  2  3  1  0  0  0  0
  2  4  1  0  0  0  0
  2  5  1  0  0  0  0
  5  6  2  0  0  0  0
  5  7  1  0  0  0  0
  7  8  1  0  0  0  0
  7  9  1  0  0  0  0
  9 10  1  0  0  0  0
  9 11  1  0  0  0  0
  9 18  1  0  0  0  0
 11 12  1  0  0  0  0
 11 13  1  0  0  0  0
 11 14  1  0  0  0  0
 14 15  2  0  0  0  0
 14 16  1  0  0  0  0
 16 17  1  0  0  0  0
 18 19  2  0  0  0  0
 18 20  1  0  0  0  0
 20 21  1  0  0  0  0
 20 22  1  0  0  0  0
 22 23  1  0  0  0  0
 22 24  1  0  0  0  0
 22 25  1  0  0  0  0
M  END
$$$$

  -OEChem-03222214023D

 25 24  0     1  0  0  0  0  0999 V2000
   -2.7255   -4.0513    0.6278 H   0  0  0  0  0  0  0  0  0  0  0  0
   -2.7914   -3.0114    0.2963 C   0  0  0  0  0  0  0  0  0  0  0  0
   -3.4760   -2.4727    0.9558 H   0  0  0  0  0  0  0  0  0  0  0  0
   -3.1852   -2.9906   -0.7226 H   0  0  0  0  0  0  0  0  0  0  0  0
   -1.4206   -2.3631    0.3311 C   0  0  0  0  0  0  0  0  0  0  0  0
   -0.4495   -3.0035    0.7051 O   0  0  0  0  0  0  0  0  0  0  0  0
   -1.2733   -1.0511   -0.0682 N   0  0  0  0  0  0  0  0  0  0  0  0
   -2.1005   -0.5784   -0.4287 H   0  0  0  0  0  0  0  0  0  0  0  0
    0.0116   -0.3547   -0.1990 C   0  0  1  0  0  0  0  0  0  0  0  0
    0.7668   -0.8978    0.3787 H   0  0  0  0  0  0  0  0  0  0  0  0
    0.5457   -0.2219   -1.6590 C   0  0  0  0  0  0  0  0  0  0  0  0
    0.7049    0.8386   -1.8779 H   0  0  0  0  0  0  0  0  0  0  0  0
    1.5272   -0.7022   -1.6831 H   0  0  0  0  0  0  0  0  0  0  0  0
   -0.2287   -0.7822   -2.8619 C   0  0  0  0  0  0  0  0  0  0  0  0
    0.3174   -0.6012   -3.9351 O   0  0  0  0  0  0  0  0  0  0  0  0
   -1.4354   -1.3863   -2.7602 O   0  0  0  0  0  0  0  0  0  0  0  0
   -1.6728   -1.6096   -3.6736 H   0  0  0  0  0  0  0  0  0  0  0  0
   -0.1010    1.0455    0.4375 C   0  0  0  0  0  0  0  0  0  0  0  0
   -1.0582    1.7621    0.1716 O   0  0  0  0  0  0  0  0  0  0  0  0
    0.8972    1.5235    1.2666 N   0  0  0  0  0  0  0  0  0  0  0  0
    1.6517    0.8888    1.5127 H   0  0  0  0  0  0  0  0  0  0  0  0
    0.8421    2.8321    1.9077 C   0  0  0  0  0  0  0  0  0  0  0  0
   -0.0417    2.9075    2.5499 H   0  0  0  0  0  0  0  0  0  0  0  0
    1.7320    2.9893    2.5248 H   0  0  0  0  0  0  0  0  0  0  0  0
    0.7995    3.6261    1.1547 H   0  0  0  0  0  0  0  0  0  0  0  0
  1  2  1  0  0  0  0
  2  3  1  0  0  0  0
  2  4  1  0  0  0  0
  2  5  1  0  0  0  0
  5  6  2  0  0  0  0
  5  7  1  0  0  0  0
  7  8  1  0  0  0  0
  7  9  1  0  0  0  0
  9 10  1  0  0  0  0
  9 11  1  0  0  0  0
  9 18  1  0  0  0  0
 11 12  1  0  0  0  0
 11 13  1  0  0  0  0
 11 14  1  0  0  0  0
 14 15  2  0  0  0  0
 14 16  1  0  0  0  0
 16 17  1  0  0  0  0
 18 19  2  0  0  0  0
 18 20  1  0  0  0  0
 20 21  1  0  0  0  0
 20 22  1  0  0  0  0
 22 23  1  0  0  0  0
 22 24  1  0  0  0  0
 22 25  1  0  0  0  0
M  END
$$$$

  -OEChem-03222214023D

 25 24  0     1  0  0  0  0  0999 V2000
   -2.7126   -4.0671    0.5920 H   0  0  0  0  0  0  0  0  0  0  0  0
   -2.7803   -3.0253    0.2663 C   0  0  0  0  0  0  0  0  0  0  0  0
   -3.4747   -2.4944    0.9220 H   0  0  0  0  0  0  0  0  0  0  0  0
   -3.1639   -2.9995   -0.7565 H   0  0  0  0  0  0  0  0  0  0  0  0
   -1.4132   -2.3705    0.3209 C   0  0  0  0  0  0  0  0  0  0  0  0
   -0.4438   -3.0078    0.7034 O   0  0  0  0  0  0  0  0  0  0  0  0
   -1.2662   -1.0575   -0.0744 N   0  0  0  0  0  0  0  0  0  0  0  0
   -2.0850   -0.5970   -0.4705 H   0  0  0  0  0  0  0  0  0  0  0  0
    0.0171   -0.3556   -0.1926 C   0  0  1  0  0  0  0  0  0  0  0  0
    0.7723   -0.8988    0.3850 H   0  0  0  0  0  0  0  0  0  0  0  0
    0.5465   -0.2212   -1.6528 C   0  0  0  0  0  0  0  0  0  0  0  0
    0.6965    0.8386   -1.8798 H   0  0  0  0  0  0  0  0  0  0  0  0
    1.5309   -0.6962   -1.6823 H   0  0  0  0  0  0  0  0  0  0  0  0
   -0.2492   -0.7914   -2.8353 C   0  0  0  0  0  0  0  0  0  0  0  0
    0.3798   -0.8874   -3.8736 O   0  0  0  0  0  0  0  0  0  0  0  0
   -1.5817   -1.0260   -2.7734 O   0  0  0  0  0  0  0  0  0  0  0  0
   -1.8238   -1.2921   -3.6741 H   0  0  0  0  0  0  0  0  0  0  0  0
   -0.0986    1.0444    0.4436 C   0  0  0  0  0  0  0  0  0  0  0  0
   -1.0468    1.7675    0.1641 O   0  0  0  0  0  0  0  0  0  0  0  0
    0.8950    1.5202    1.2795 N   0  0  0  0  0  0  0  0  0  0  0  0
    1.6416    0.8811    1.5376 H   0  0  0  0  0  0  0  0  0  0  0  0
    0.8470    2.8352    1.9080 C   0  0  0  0  0  0  0  0  0  0  0  0
   -0.0354    2.9210    2.5508 H   0  0  0  0  0  0  0  0  0  0  0  0
    1.7390    2.9941    2.5216 H   0  0  0  0  0  0  0  0  0  0  0  0
    0.8071    3.6223    1.1478 H   0  0  0  0  0  0  0  0  0  0  0  0
  1  2  1  0  0  0  0
  2  3  1  0  0  0  0
  2  4  1  0  0  0  0
  2  5  1  0  0  0  0
  5  6  2  0  0  0  0
  5  7  1  0  0  0  0
  7  8  1  0  0  0  0
  7  9  1  0  0  0  0
  9 10  1  0  0  0  0
  9 11  1  0  0  0  0
  9 18  1  0  0  0  0
 11 12  1  0  0  0  0
 11 13  1  0  0  0  0
 11 14  1  0  0  0  0
 14 15  2  0  0  0  0
 14 16  1  0  0  0  0
 16 17  1  0  0  0  0
 18 19  2  0  0  0  0
 18 20  1  0  0  0  0
 20 21  1  0  0  0  0
 20 22  1  0  0  0  0
 22 23  1  0  0  0  0
 22 24  1  0  0  0  0
 22 25  1  0  0  0  0
M  END
$$$$

  -OEChem-03222214023D

 25 24  0     1  0  0  0  0  0999 V2000
   -2.7130   -4.0607    0.5487 H   0  0  0  0  0  0  0  0  0  0  0  0
   -2.7768   -3.0166    0.2300 C   0  0  0  0  0  0  0  0  0  0  0  0
   -3.4695   -2.4880    0.8891 H   0  0  0  0  0  0  0  0  0  0  0  0
   -3.1598   -2.9824   -0.7927 H   0  0  0  0  0  0  0  0  0  0  0  0
   -1.4075   -2.3670    0.2904 C   0  0  0  0  0  0  0  0  0  0  0  0
   -0.4407   -3.0086    0.6714 O   0  0  0  0  0  0  0  0  0  0  0  0
   -1.2547   -1.0531   -0.0988 N   0  0  0  0  0  0  0  0  0  0  0  0
   -2.0737   -0.5799   -0.4805 H   0  0  0  0  0  0  0  0  0  0  0  0
    0.0288   -0.3472   -0.2005 C   0  0  1  0  0  0  0  0  0  0  0  0
    0.7811   -0.8925    0.3790 H   0  0  0  0  0  0  0  0  0  0  0  0
    0.5567   -0.2159   -1.6589 C   0  0  0  0  0  0  0  0  0  0  0  0
    0.6955    0.8422   -1.8983 H   0  0  0  0  0  0  0  0  0  0  0  0
    1.5437   -0.6853   -1.6955 H   0  0  0  0  0  0  0  0  0  0  0  0
   -0.2701   -0.8045   -2.8071 C   0  0  0  0  0  0  0  0  0  0  0  0
    0.3632   -1.1922   -3.7721 O   0  0  0  0  0  0  0  0  0  0  0  0
   -1.6228   -0.7280   -2.8077 O   0  0  0  0  0  0  0  0  0  0  0  0
   -1.8869   -1.0630   -3.6786 H   0  0  0  0  0  0  0  0  0  0  0  0
   -0.0900    1.0519    0.4367 C   0  0  0  0  0  0  0  0  0  0  0  0
   -1.0418    1.7720    0.1624 O   0  0  0  0  0  0  0  0  0  0  0  0
    0.8975    1.5236    1.2821 N   0  0  0  0  0  0  0  0  0  0  0  0
    1.6460    0.8852    1.5370 H   0  0  0  0  0  0  0  0  0  0  0  0
    0.8394    2.8311    1.9251 C   0  0  0  0  0  0  0  0  0  0  0  0
   -0.0423    2.9020    2.5707 H   0  0  0  0  0  0  0  0  0  0  0  0
    1.7314    2.9910    2.5385 H   0  0  0  0  0  0  0  0  0  0  0  0
    0.7908    3.6264    1.1738 H   0  0  0  0  0  0  0  0  0  0  0  0
  1  2  1  0  0  0  0
  2  3  1  0  0  0  0
  2  4  1  0  0  0  0
  2  5  1  0  0  0  0
  5  6  2  0  0  0  0
  5  7  1  0  0  0  0
  7  8  1  0  0  0  0
  7  9  1  0  0  0  0
  9 10  1  0  0  0  0
  9 11  1  0  0  0  0
  9 18  1  0  0  0  0
 11 12  1  0  0  0  0
 11 13  1  0  0  0  0
 11 14  1  0  0  0  0
 14 15  2  0  0  0  0
 14 16  1  0  0  0  0
 16 17  1  0  0  0  0
 18 19  2  0  0  0  0
 18 20  1  0  0  0  0
 20 21  1  0  0  0  0
 20 22  1  0  0  0  0
 22 23  1  0  0  0  0
 22 24  1  0  0  0  0
 22 25  1  0  0  0  0
M  END
$$$$

  -OEChem-03222214023D

 25 24  0     1  0  0  0  0  0999 V2000
   -2.7198   -4.0439    0.5140 H   0  0  0  0  0  0  0  0  0  0  0  0
   -2.7773   -2.9982    0.1990 C   0  0  0  0  0  0  0  0  0  0  0  0
   -3.4598   -2.4656    0.8657 H   0  0  0  0  0  0  0  0  0  0  0  0
   -3.1687   -2.9580   -0.8204 H   0  0  0  0  0  0  0  0  0  0  0  0
   -1.4021   -2.3601    0.2489 C   0  0  0  0  0  0  0  0  0  0  0  0
   -0.4369   -3.0105    0.6179 O   0  0  0  0  0  0  0  0  0  0  0  0
   -1.2427   -1.0446   -0.1324 N   0  0  0  0  0  0  0  0  0  0  0  0
   -2.0668   -0.5485   -0.4723 H   0  0  0  0  0  0  0  0  0  0  0  0
    0.0426   -0.3371   -0.2155 C   0  0  1  0  0  0  0  0  0  0  0  0
    0.7905   -0.8856    0.3668 H   0  0  0  0  0  0  0  0  0  0  0  0
    0.5739   -0.2060   -1.6703 C   0  0  0  0  0  0  0  0  0  0  0  0
    0.7083    0.8505   -1.9181 H   0  0  0  0  0  0  0  0  0  0  0  0
    1.5610   -0.6752   -1.7135 H   0  0  0  0  0  0  0  0  0  0  0  0
   -0.2805   -0.8077   -2.7869 C   0  0  0  0  0  0  0  0  0  0  0  0
    0.2984   -1.4647   -3.6329 O   0  0  0  0  0  0  0  0  0  0  0  0
   -1.5934   -0.4881   -2.8778 O   0  0  0  0  0  0  0  0  0  0  0  0
   -1.8920   -0.8998   -3.7032 H   0  0  0  0  0  0  0  0  0  0  0  0
   -0.0812    1.0594    0.4257 C   0  0  0  0  0  0  0  0  0  0  0  0
   -1.0372    1.7759    0.1570 O   0  0  0  0  0  0  0  0  0  0  0  0
    0.8977    1.5259    1.2838 N   0  0  0  0  0  0  0  0  0  0  0  0
    1.6484    0.8890    1.5357 H   0  0  0  0  0  0  0  0  0  0  0  0
    0.8271    2.8249    1.9424 C   0  0  0  0  0  0  0  0  0  0  0  0
   -0.0657    2.8870    2.5736 H   0  0  0  0  0  0  0  0  0  0  0  0
    1.7079    2.9780    2.5733 H   0  0  0  0  0  0  0  0  0  0  0  0
    0.7904    3.6292    1.2001 H   0  0  0  0  0  0  0  0  0  0  0  0
  1  2  1  0  0  0  0
  2  3  1  0  0  0  0
  2  4  1  0  0  0  0
  2  5  1  0  0  0  0
  5  6  2  0  0  0  0
  5  7  1  0  0  0  0
  7  8  1  0  0  0  0
  7  9  1  0  0  0  0
  9 10  1  0  0  0  0
  9 11  1  0  0  0  0
  9 18  1  0  0  0  0
 11 12  1  0  0  0  0
 11 13  1  0  0  0  0
 11 14  1  0  0  0  0
 14 15  2  0  0  0  0
 14 16  1  0  0  0  0
 16 17  1  0  0  0  0
 18 19  2  0  0  0  0
 18 20  1  0  0  0  0
 20 21  1  0  0  0  0
 20 22  1  0  0  0  0
 22 23  1  0  0  0  0
 22 24  1  0  0  0  0
 22 25  1  0  0  0  0
M  END
$$$$

  -OEChem-03222214023D

 25 24  0     1  0  0  0  0  0999 V2000
   -2.7294   -4.0257    0.4908 H   0  0  0  0  0  0  0  0  0  0  0  0
   -2.7804   -2.9809    0.1718 C   0  0  0  0  0  0  0  0  0  0  0  0
   -3.4525   -2.4397    0.8419 H   0  0  0  0  0  0  0  0  0  0  0  0
   -3.1804   -2.9418   -0.8442 H   0  0  0  0  0  0  0  0  0  0  0  0
   -1.3994   -2.3544    0.2074 C   0  0  0  0  0  0  0  0  0  0  0  0
   -0.4368   -3.0114    0.5711 O   0  0  0  0  0  0  0  0  0  0  0  0
   -1.2342   -1.0369   -0.1664 N   0  0  0  0  0  0  0  0  0  0  0  0
   -2.0627   -0.5192   -0.4597 H   0  0  0  0  0  0  0  0  0  0  0  0
    0.0540   -0.3302   -0.2296 C   0  0  1  0  0  0  0  0  0  0  0  0
    0.7949   -0.8833    0.3572 H   0  0  0  0  0  0  0  0  0  0  0  0
    0.5944   -0.1968   -1.6789 C   0  0  0  0  0  0  0  0  0  0  0  0
    0.7299    0.8590   -1.9298 H   0  0  0  0  0  0  0  0  0  0  0  0
    1.5798   -0.6693   -1.7252 H   0  0  0  0  0  0  0  0  0  0  0  0
   -0.2757   -0.8042   -2.7765 C   0  0  0  0  0  0  0  0  0  0  0  0
    0.2068   -1.6865   -3.4630 O   0  0  0  0  0  0  0  0  0  0  0  0
   -1.5092   -0.2919   -2.9926 O   0  0  0  0  0  0  0  0  0  0  0  0
   -1.8480   -0.7712   -3.7639 H   0  0  0  0  0  0  0  0  0  0  0  0
   -0.0744    1.0640    0.4156 C   0  0  0  0  0  0  0  0  0  0  0  0
   -1.0344    1.7763    0.1506 O   0  0  0  0  0  0  0  0  0  0  0  0
    0.8942    1.5259    1.2878 N   0  0  0  0  0  0  0  0  0  0  0  0
    1.6455    0.8900    1.5403 H   0  0  0  0  0  0  0  0  0  0  0  0
    0.8158    2.8214    1.9527 C   0  0  0  0  0  0  0  0  0  0  0  0
   -0.0714    2.8709    2.5928 H   0  0  0  0  0  0  0  0  0  0  0  0
    1.7013    2.9820    2.5751 H   0  0  0  0  0  0  0  0  0  0  0  0
    0.7629    3.6284    1.2141 H   0  0  0  0  0  0  0  0  0  0  0  0
  1  2  1  0  0  0  0
  2  3  1  0  0  0  0
  2  4  1  0  0  0  0
  2  5  1  0  0  0  0
  5  6  2  0  0  0  0
  5  7  1  0  0  0  0
  7  8  1  0  0  0  0
  7  9  1  0  0  0  0
  9 10  1  0  0  0  0
  9 11  1  0  0  0  0
  9 18  1  0  0  0  0
 11 12  1  0  0  0  0
 11 13  1  0  0  0  0
 11 14  1  0  0  0  0
 14 15  2  0  0  0  0
 14 16  1  0  0  0  0
 16 17  1  0  0  0  0
 18 19  2  0  0  0  0
 18 20  1  0  0  0  0
 20 21  1  0  0  0  0
 20 22  1  0  0  0  0
 22 23  1  0  0  0  0
 22 24  1  0  0  0  0
 22 25  1  0  0  0  0
M  END
$$$$

  -OEChem-03222214023D

 25 24  0     1  0  0  0  0  0999 V2000
   -2.7316   -4.0117    0.4765 H   0  0  0  0  0  0  0  0  0  0  0  0
   -2.7799   -2.9686    0.1516 C   0  0  0  0  0  0  0  0  0  0  0  0
   -3.4503   -2.4217    0.8187 H   0  0  0  0  0  0  0  0  0  0  0  0
   -3.1797   -2.9345   -0.8646 H   0  0  0  0  0  0  0  0  0  0  0  0
   -1.3969   -2.3468    0.1832 C   0  0  0  0  0  0  0  0  0  0  0  0
   -0.4378   -3.0049    0.5540 O   0  0  0  0  0  0  0  0  0  0  0  0
   -1.2281   -1.0289   -0.1894 N   0  0  0  0  0  0  0  0  0  0  0  0
   -2.0593   -0.4977   -0.4475 H   0  0  0  0  0  0  0  0  0  0  0  0
    0.0632   -0.3257   -0.2412 C   0  0  1  0  0  0  0  0  0  0  0  0
    0.7993   -0.8810    0.3497 H   0  0  0  0  0  0  0  0  0  0  0  0
    0.6109   -0.1931   -1.6869 C   0  0  0  0  0  0  0  0  0  0  0  0
    0.7536    0.8613   -1.9398 H   0  0  0  0  0  0  0  0  0  0  0  0
    1.5922   -0.6730   -1.7347 H   0  0  0  0  0  0  0  0  0  0  0  0
   -0.2678   -0.8019   -2.7741 C   0  0  0  0  0  0  0  0  0  0  0  0
    0.0773   -1.8567   -3.2748 O   0  0  0  0  0  0  0  0  0  0  0  0
   -1.3773   -0.1301   -3.1543 O   0  0  0  0  0  0  0  0  0  0  0  0
   -1.7624   -0.6611   -3.8677 H   0  0  0  0  0  0  0  0  0  0  0  0
   -0.0677    1.0682    0.4035 C   0  0  0  0  0  0  0  0  0  0  0  0
   -1.0311    1.7765    0.1401 O   0  0  0  0  0  0  0  0  0  0  0  0
    0.8941    1.5276    1.2844 N   0  0  0  0  0  0  0  0  0  0  0  0
    1.6442    0.8912    1.5395 H   0  0  0  0  0  0  0  0  0  0  0  0
    0.8058    2.8172    1.9592 C   0  0  0  0  0  0  0  0  0  0  0  0
   -0.0856    2.8571    2.5941 H   0  0  0  0  0  0  0  0  0  0  0  0
    1.6867    2.9765    2.5885 H   0  0  0  0  0  0  0  0  0  0  0  0
    0.7535    3.6304    1.2274 H   0  0  0  0  0  0  0  0  0  0  0  0
  1  2  1  0  0  0  0
  2  3  1  0  0  0  0
  2  4  1  0  0  0  0
  2  5  1  0  0  0  0
  5  6  2  0  0  0  0
  5  7  1  0  0  0  0
  7  8  1  0  0  0  0
  7  9  1  0  0  0  0
  9 10  1  0  0  0  0
  9 11  1  0  0  0  0
  9 18  1  0  0  0  0
 11 12  1  0  0  0  0
 11 13  1  0  0  0  0
 11 14  1  0  0  0  0
 14 15  2  0  0  0  0
 14 16  1  0  0  0  0
 16 17  1  0  0  0  0
 18 19  2  0  0  0  0
 18 20  1  0  0  0  0
 20 21  1  0  0  0  0
 20 22  1  0  0  0  0
 22 23  1  0  0  0  0
 22 24  1  0  0  0  0
 22 25  1  0  0  0  0
M  END
$$$$

  -OEChem-03222214023D

 25 24  0     1  0  0  0  0  0999 V2000
   -2.7322   -4.0076    0.4677 H   0  0  0  0  0  0  0  0  0  0  0  0
   -2.7771   -2.9662    0.1368 C   0  0  0  0  0  0  0  0  0  0  0  0
   -3.4553   -2.4160    0.7932 H   0  0  0  0  0  0  0  0  0  0  0  0
   -3.1649   -2.9382   -0.8844 H   0  0  0  0  0  0  0  0  0  0  0  0
   -1.3944   -2.3441    0.1799 C   0  0  0  0  0  0  0  0  0  0  0  0
   -0.4400   -2.9983    0.5700 O   0  0  0  0  0  0  0  0  0  0  0  0
   -1.2234   -1.0266   -0.1949 N   0  0  0  0  0  0  0  0  0  0  0  0
   -2.0556   -0.4894   -0.4353 H   0  0  0  0  0  0  0  0  0  0  0  0
    0.0705   -0.3276   -0.2450 C   0  0  1  0  0  0  0  0  0  0  0  0
    0.8056   -0.8835    0.3465 H   0  0  0  0  0  0  0  0  0  0  0  0
    0.6183   -0.1945   -1.6908 C   0  0  0  0  0  0  0  0  0  0  0  0
    0.7695    0.8595   -1.9410 H   0  0  0  0  0  0  0  0  0  0  0  0
    1.5954   -0.6821   -1.7427 H   0  0  0  0  0  0  0  0  0  0  0  0
   -0.2640   -0.7986   -2.7771 C   0  0  0  0  0  0  0  0  0  0  0  0
   -0.0950   -1.9638   -3.0883 O   0  0  0  0  0  0  0  0  0  0  0  0
   -1.1943   -0.0065   -3.3526 O   0  0  0  0  0  0  0  0  0  0  0  0
   -1.6266   -0.5643   -4.0166 H   0  0  0  0  0  0  0  0  0  0  0  0
   -0.0627    1.0667    0.3985 C   0  0  0  0  0  0  0  0  0  0  0  0
   -1.0268    1.7730    0.1313 O   0  0  0  0  0  0  0  0  0  0  0  0
    0.8948    1.5284    1.2829 N   0  0  0  0  0  0  0  0  0  0  0  0
    1.6445    0.8933    1.5423 H   0  0  0  0  0  0  0  0  0  0  0  0
    0.7998    2.8173    1.9580 C   0  0  0  0  0  0  0  0  0  0  0  0
   -0.1001    2.8584    2.5807 H   0  0  0  0  0  0  0  0  0  0  0  0
    1.6723    2.9743    2.5995 H   0  0  0  0  0  0  0  0  0  0  0  0
    0.7588    3.6312    1.2264 H   0  0  0  0  0  0  0  0  0  0  0  0
  1  2  1  0  0  0  0
  2  3  1  0  0  0  0
  2  4  1  0  0  0  0
  2  5  1  0  0  0  0
  5  6  2  0  0  0  0
  5  7  1  0  0  0  0
  7  8  1  0  0  0  0
  7  9  1  0  0  0  0
  9 10  1  0  0  0  0
  9 11  1  0  0  0  0
  9 18  1  0  0  0  0
 11 12  1  0  0  0  0
 11 13  1  0  0  0  0
 11 14  1  0  0  0  0
 14 15  2  0  0  0  0
 14 16  1  0  0  0  0
 16 17  1  0  0  0  0
 18 19  2  0  0  0  0
 18 20  1  0  0  0  0
 20 21  1  0  0  0  0
 20 22  1  0  0  0  0
 22 23  1  0  0  0  0
 22 24  1  0  0  0  0
 22 25  1  0  0  0  0
M  END
$$$$

  -OEChem-03222214023D

 25 24  0     1  0  0  0  0  0999 V2000
   -2.7280   -4.0153    0.4764 H   0  0  0  0  0  0  0  0  0  0  0  0
   -2.7749   -2.9783    0.1324 C   0  0  0  0  0  0  0  0  0  0  0  0
   -3.4700   -2.4259    0.7690 H   0  0  0  0  0  0  0  0  0  0  0  0
   -3.1425   -2.9658   -0.8966 H   0  0  0  0  0  0  0  0  0  0  0  0
   -1.3980   -2.3450    0.1943 C   0  0  0  0  0  0  0  0  0  0  0  0
   -0.4468   -2.9895    0.6091 O   0  0  0  0  0  0  0  0  0  0  0  0
   -1.2302   -1.0277   -0.1845 N   0  0  0  0  0  0  0  0  0  0  0  0
   -2.0621   -0.4982   -0.4410 H   0  0  0  0  0  0  0  0  0  0  0  0
    0.0652   -0.3319   -0.2398 C   0  0  1  0  0  0  0  0  0  0  0  0
    0.8012   -0.8876    0.3508 H   0  0  0  0  0  0  0  0  0  0  0  0
    0.6133   -0.1956   -1.6868 C   0  0  0  0  0  0  0  0  0  0  0  0
    0.7739    0.8592   -1.9288 H   0  0  0  0  0  0  0  0  0  0  0  0
    1.5872   -0.6886   -1.7388 H   0  0  0  0  0  0  0  0  0  0  0  0
   -0.2588   -0.7896   -2.7885 C   0  0  0  0  0  0  0  0  0  0  0  0
   -0.2957   -1.9991   -2.9298 O   0  0  0  0  0  0  0  0  0  0  0  0
   -0.9525    0.0666   -3.5692 O   0  0  0  0  0  0  0  0  0  0  0  0
   -1.4283   -0.4930   -4.2014 H   0  0  0  0  0  0  0  0  0  0  0  0
   -0.0660    1.0632    0.4021 C   0  0  0  0  0  0  0  0  0  0  0  0
   -1.0244    1.7736    0.1246 O   0  0  0  0  0  0  0  0  0  0  0  0
    0.8933    1.5260    1.2839 N   0  0  0  0  0  0  0  0  0  0  0  0
    1.6377    0.8875    1.5502 H   0  0  0  0  0  0  0  0  0  0  0  0
    0.8054    2.8209    1.9485 C   0  0  0  0  0  0  0  0  0  0  0  0
   -0.0888    2.8683    2.5789 H   0  0  0  0  0  0  0  0  0  0  0  0
    1.6839    2.9826    2.5806 H   0  0  0  0  0  0  0  0  0  0  0  0
    0.7589    3.6285    1.2102 H   0  0  0  0  0  0  0  0  0  0  0  0
  1  2  1  0  0  0  0
  2  3  1  0  0  0  0
  2  4  1  0  0  0  0
  2  5  1  0  0  0  0
  5  6  2  0  0  0  0
  5  7  1  0  0  0  0
  7  8  1  0  0  0  0
  7  9  1  0  0  0  0
  9 10  1  0  0  0  0
  9 11  1  0  0  0  0
  9 18  1  0  0  0  0
 11 12  1  0  0  0  0
 11 13  1  0  0  0  0
 11 14  1  0  0  0  0
 14 15  2  0  0  0  0
 14 16  1  0  0  0  0
 16 17  1  0  0  0  0
 18 19  2  0  0  0  0
 18 20  1  0  0  0  0
 20 21  1  0  0  0  0
 20 22  1  0  0  0  0
 22 23  1  0  0  0  0
 22 24  1  0  0  0  0
 22 25  1  0  0  0  0
M  END
$$$$

  -OEChem-03222214023D

 25 24  0     1  0  0  0  0  0999 V2000
   -2.7277   -4.0271    0.4923 H   0  0  0  0  0  0  0  0  0  0  0  0
   -2.7741   -2.9929    0.1400 C   0  0  0  0  0  0  0  0  0  0  0  0
   -3.4880   -2.4411    0.7558 H   0  0  0  0  0  0  0  0  0  0  0  0
   -3.1175   -2.9903   -0.8975 H   0  0  0  0  0  0  0  0  0  0  0  0
   -1.4041   -2.3482    0.2289 C   0  0  0  0  0  0  0  0  0  0  0  0
   -0.4568   -2.9816    0.6702 O   0  0  0  0  0  0  0  0  0  0  0  0
   -1.2391   -1.0329   -0.1578 N   0  0  0  0  0  0  0  0  0  0  0  0
   -2.0676   -0.5199   -0.4532 H   0  0  0  0  0  0  0  0  0  0  0  0
    0.0563   -0.3407   -0.2310 C   0  0  1  0  0  0  0  0  0  0  0  0
    0.7970   -0.8943    0.3555 H   0  0  0  0  0  0  0  0  0  0  0  0
    0.5989   -0.2002   -1.6825 C   0  0  0  0  0  0  0  0  0  0  0  0
    0.7666    0.8565   -1.9123 H   0  0  0  0  0  0  0  0  0  0  0  0
    1.5717   -0.6952   -1.7348 H   0  0  0  0  0  0  0  0  0  0  0  0
   -0.2550   -0.7790   -2.8102 C   0  0  0  0  0  0  0  0  0  0  0  0
   -0.5223   -1.9679   -2.8243 O   0  0  0  0  0  0  0  0  0  0  0  0
   -0.6675    0.0779   -3.7688 O   0  0  0  0  0  0  0  0  0  0  0  0
   -1.1807   -0.4622   -4.3887 H   0  0  0  0  0  0  0  0  0  0  0  0
   -0.0718    1.0563    0.4076 C   0  0  0  0  0  0  0  0  0  0  0  0
   -1.0259    1.7702    0.1236 O   0  0  0  0  0  0  0  0  0  0  0  0
    0.8944    1.5245    1.2789 N   0  0  0  0  0  0  0  0  0  0  0  0
    1.6370    0.8854    1.5489 H   0  0  0  0  0  0  0  0  0  0  0  0
    0.8125    2.8245    1.9342 C   0  0  0  0  0  0  0  0  0  0  0  0
   -0.0781    2.8781    2.5692 H   0  0  0  0  0  0  0  0  0  0  0  0
    1.6949    2.9893    2.5601 H   0  0  0  0  0  0  0  0  0  0  0  0
    0.7633    3.6264    1.1900 H   0  0  0  0  0  0  0  0  0  0  0  0
  1  2  1  0  0  0  0
  2  3  1  0  0  0  0
  2  4  1  0  0  0  0
  2  5  1  0  0  0  0
  5  6  2  0  0  0  0
  5  7  1  0  0  0  0
  7  8  1  0  0  0  0
  7  9  1  0  0  0  0
  9 10  1  0  0  0  0
  9 11  1  0  0  0  0
  9 18  1  0  0  0  0
 11 12  1  0  0  0  0
 11 13  1  0  0  0  0
 11 14  1  0  0  0  0
 14 15  2  0  0  0  0
 14 16  1  0  0  0  0
 16 17  1  0  0  0  0
 18 19  2  0  0  0  0
 18 20  1  0  0  0  0
 20 21  1  0  0  0  0
 20 22  1  0  0  0  0
 22 23  1  0  0  0  0
 22 24  1  0  0  0  0
 22 25  1  0  0  0  0
M  END
$$$$

  -OEChem-03222214023D

 25 24  0     1  0  0  0  0  0999 V2000
   -2.7242   -4.0441    0.5200 H   0  0  0  0  0  0  0  0  0  0  0  0
   -2.7768   -3.0122    0.1622 C   0  0  0  0  0  0  0  0  0  0  0  0
   -3.5044   -2.4646    0.7657 H   0  0  0  0  0  0  0  0  0  0  0  0
   -3.1057   -3.0173   -0.8801 H   0  0  0  0  0  0  0  0  0  0  0  0
   -1.4148   -2.3531    0.2661 C   0  0  0  0  0  0  0  0  0  0  0  0
   -0.4658   -2.9762    0.7191 O   0  0  0  0  0  0  0  0  0  0  0  0
   -1.2578   -1.0389   -0.1271 N   0  0  0  0  0  0  0  0  0  0  0  0
   -2.0813   -0.5516   -0.4742 H   0  0  0  0  0  0  0  0  0  0  0  0
    0.0364   -0.3487   -0.2209 C   0  0  1  0  0  0  0  0  0  0  0  0
    0.7822   -0.9001    0.3610 H   0  0  0  0  0  0  0  0  0  0  0  0
    0.5772   -0.2040   -1.6759 C   0  0  0  0  0  0  0  0  0  0  0  0
    0.7469    0.8551   -1.8926 H   0  0  0  0  0  0  0  0  0  0  0  0
    1.5519   -0.6949   -1.7229 H   0  0  0  0  0  0  0  0  0  0  0  0
   -0.2469   -0.7662   -2.8380 C   0  0  0  0  0  0  0  0  0  0  0  0
   -0.7513   -1.8742   -2.7770 O   0  0  0  0  0  0  0  0  0  0  0  0
   -0.3525    0.0247   -3.9278 O   0  0  0  0  0  0  0  0  0  0  0  0
   -0.8908   -0.4800   -4.5564 H   0  0  0  0  0  0  0  0  0  0  0  0
   -0.0860    1.0494    0.4166 C   0  0  0  0  0  0  0  0  0  0  0  0
   -1.0314    1.7717    0.1247 O   0  0  0  0  0  0  0  0  0  0  0  0
    0.8915    1.5193    1.2742 N   0  0  0  0  0  0  0  0  0  0  0  0
    1.6273    0.8746    1.5496 H   0  0  0  0  0  0  0  0  0  0  0  0
    0.8274    2.8281    1.9135 C   0  0  0  0  0  0  0  0  0  0  0  0
   -0.0545    2.8965    2.5590 H   0  0  0  0  0  0  0  0  0  0  0  0
    1.7189    2.9948    2.5257 H   0  0  0  0  0  0  0  0  0  0  0  0
    0.7744    3.6205    1.1594 H   0  0  0  0  0  0  0  0  0  0  0  0
  1  2  1  0  0  0  0
  2  3  1  0  0  0  0
  2  4  1  0  0  0  0
  2  5  1  0  0  0  0
  5  6  2  0  0  0  0
  5  7  1  0  0  0  0
  7  8  1  0  0  0  0
  7  9  1  0  0  0  0
  9 10  1  0  0  0  0
  9 11  1  0  0  0  0
  9 18  1  0  0  0  0
 11 12  1  0  0  0  0
 11 13  1  0  0  0  0
 11 14  1  0  0  0  0
 14 15  2  0  0  0  0
 14 16  1  0  0  0  0
 16 17  1  0  0  0  0
 18 19  2  0  0  0  0
 18 20  1  0  0  0  0
 20 21  1  0  0  0  0
 20 22  1  0  0  0  0
 22 23  1  0  0  0  0
 22 24  1  0  0  0  0
 22 25  1  0  0  0  0
M  END
$$$$

  -OEChem-03222214023D

 25 24  0     1  0  0  0  0  0999 V2000
   -2.7208   -4.0599    0.5346 H   0  0  0  0  0  0  0  0  0  0  0  0
   -2.7814   -3.0253    0.1861 C   0  0  0  0  0  0  0  0  0  0  0  0
   -3.5134   -2.4890    0.7944 H   0  0  0  0  0  0  0  0  0  0  0  0
   -3.1102   -3.0236   -0.8562 H   0  0  0  0  0  0  0  0  0  0  0  0
   -1.4246   -2.3564    0.2957 C   0  0  0  0  0  0  0  0  0  0  0  0
   -0.4725   -2.9738    0.7503 O   0  0  0  0  0  0  0  0  0  0  0  0
   -1.2736   -1.0429   -0.1017 N   0  0  0  0  0  0  0  0  0  0  0  0
   -2.0903   -0.5807   -0.4959 H   0  0  0  0  0  0  0  0  0  0  0  0
    0.0192   -0.3538   -0.2140 C   0  0  1  0  0  0  0  0  0  0  0  0
    0.7701   -0.9034    0.3629 H   0  0  0  0  0  0  0  0  0  0  0  0
    0.5560   -0.2086   -1.6732 C   0  0  0  0  0  0  0  0  0  0  0  0
    0.7233    0.8522   -1.8833 H   0  0  0  0  0  0  0  0  0  0  0  0
    1.5337   -0.6938   -1.7152 H   0  0  0  0  0  0  0  0  0  0  0  0
   -0.2425   -0.7584   -2.8624 C   0  0  0  0  0  0  0  0  0  0  0  0
   -0.9709   -1.7307   -2.7651 O   0  0  0  0  0  0  0  0  0  0  0  0
   -0.0535   -0.1076   -4.0307 O   0  0  0  0  0  0  0  0  0  0  0  0
   -0.6103   -0.5737   -4.6732 H   0  0  0  0  0  0  0  0  0  0  0  0
   -0.0964    1.0453    0.4235 C   0  0  0  0  0  0  0  0  0  0  0  0
   -1.0345    1.7753    0.1273 O   0  0  0  0  0  0  0  0  0  0  0  0
    0.8917    1.5166    1.2683 N   0  0  0  0  0  0  0  0  0  0  0  0
    1.6219    0.8675    1.5478 H   0  0  0  0  0  0  0  0  0  0  0  0
    0.8415    2.8311    1.8977 C   0  0  0  0  0  0  0  0  0  0  0  0
   -0.0454    2.9178    2.5345 H   0  0  0  0  0  0  0  0  0  0  0  0
    1.7298    2.9883    2.5172 H   0  0  0  0  0  0  0  0  0  0  0  0
    0.8079    3.6187    1.1372 H   0  0  0  0  0  0  0  0  0  0  0  0
  1  2  1  0  0  0  0
  2  3  1  0  0  0  0
  2  4  1  0  0  0  0
  2  5  1  0  0  0  0
  5  6  2  0  0  0  0
  5  7  1  0  0  0  0
  7  8  1  0  0  0  0
  7  9  1  0  0  0  0
  9 10  1  0  0  0  0
  9 11  1  0  0  0  0
  9 18  1  0  0  0  0
 11 12  1  0  0  0  0
 11 13  1  0  0  0  0
 11 14  1  0  0  0  0
 14 15  2  0  0  0  0
 14 16  1  0  0  0  0
 16 17  1  0  0  0  0
 18 19  2  0  0  0  0
 18 20  1  0  0  0  0
 20 21  1  0  0  0  0
 20 22  1  0  0  0  0
 22 23  1  0  0  0  0
 22 24  1  0  0  0  0
 22 25  1  0  0  0  0
M  END
$$$$

  -OEChem-03222214023D

 25 24  0     1  0  0  0  0  0999 V2000
   -2.7199   -4.0679    0.5345 H   0  0  0  0  0  0  0  0  0  0  0  0
   -2.7848   -3.0310    0.1936 C   0  0  0  0  0  0  0  0  0  0  0  0
   -3.5233   -2.5037    0.8019 H   0  0  0  0  0  0  0  0  0  0  0  0
   -3.1082   -3.0224   -0.8503 H   0  0  0  0  0  0  0  0  0  0  0  0
   -1.4330   -2.3546    0.3167 C   0  0  0  0  0  0  0  0  0  0  0  0
   -0.4798   -2.9688    0.7738 O   0  0  0  0  0  0  0  0  0  0  0  0
   -1.2854   -1.0423   -0.0840 N   0  0  0  0  0  0  0  0  0  0  0  0
   -2.0924   -0.6047   -0.5245 H   0  0  0  0  0  0  0  0  0  0  0  0
    0.0063   -0.3542   -0.2073 C   0  0  1  0  0  0  0  0  0  0  0  0
    0.7586   -0.9026    0.3687 H   0  0  0  0  0  0  0  0  0  0  0  0
    0.5417   -0.2139   -1.6689 C   0  0  0  0  0  0  0  0  0  0  0  0
    0.7092    0.8466   -1.8805 H   0  0  0  0  0  0  0  0  0  0  0  0
    1.5205   -0.6978   -1.7039 H   0  0  0  0  0  0  0  0  0  0  0  0
   -0.2404   -0.7600   -2.8728 C   0  0  0  0  0  0  0  0  0  0  0  0
   -1.1627   -1.5497   -2.7657 O   0  0  0  0  0  0  0  0  0  0  0  0
    0.1918   -0.3115   -4.0710 O   0  0  0  0  0  0  0  0  0  0  0  0
   -0.3844   -0.7390   -4.7232 H   0  0  0  0  0  0  0  0  0  0  0  0
   -0.1017    1.0466    0.4280 C   0  0  0  0  0  0  0  0  0  0  0  0
   -1.0326    1.7844    0.1286 O   0  0  0  0  0  0  0  0  0  0  0  0
    0.8953    1.5159    1.2634 N   0  0  0  0  0  0  0  0  0  0  0  0
    1.6199    0.8617    1.5456 H   0  0  0  0  0  0  0  0  0  0  0  0
    0.8556    2.8326    1.8886 C   0  0  0  0  0  0  0  0  0  0  0  0
   -0.0294    2.9280    2.5263 H   0  0  0  0  0  0  0  0  0  0  0  0
    1.7456    2.9856    2.5066 H   0  0  0  0  0  0  0  0  0  0  0  0
    0.8265    3.6182    1.1263 H   0  0  0  0  0  0  0  0  0  0  0  0
  1  2  1  0  0  0  0
  2  3  1  0  0  0  0
  2  4  1  0  0  0  0
  2  5  1  0  0  0  0
  5  6  2  0  0  0  0
  5  7  1  0  0  0  0
  7  8  1  0  0  0  0
  7  9  1  0  0  0  0
  9 10  1  0  0  0  0
  9 11  1  0  0  0  0
  9 18  1  0  0  0  0
 11 12  1  0  0  0  0
 11 13  1  0  0  0  0
 11 14  1  0  0  0  0
 14 15  2  0  0  0  0
 14 16  1  0  0  0  0
 16 17  1  0  0  0  0
 18 19  2  0  0  0  0
 18 20  1  0  0  0  0
 20 21  1  0  0  0  0
 20 22  1  0  0  0  0
 22 23  1  0  0  0  0
 22 24  1  0  0  0  0
 22 25  1  0  0  0  0
M  END
$$$$

  -OEChem-03222214023D

 25 24  0     1  0  0  0  0  0999 V2000
   -2.7229   -4.0734    0.5176 H   0  0  0  0  0  0  0  0  0  0  0  0
   -2.7882   -3.0336    0.1860 C   0  0  0  0  0  0  0  0  0  0  0  0
   -3.5329   -2.5145    0.7938 H   0  0  0  0  0  0  0  0  0  0  0  0
   -3.1050   -3.0164   -0.8599 H   0  0  0  0  0  0  0  0  0  0  0  0
   -1.4398   -2.3532    0.3252 C   0  0  0  0  0  0  0  0  0  0  0  0
   -0.4881   -2.9675    0.7848 O   0  0  0  0  0  0  0  0  0  0  0  0
   -1.2912   -1.0416   -0.0760 N   0  0  0  0  0  0  0  0  0  0  0  0
   -2.0881   -0.6192   -0.5501 H   0  0  0  0  0  0  0  0  0  0  0  0
    0.0002   -0.3536   -0.1995 C   0  0  1  0  0  0  0  0  0  0  0  0
    0.7518   -0.9023    0.3776 H   0  0  0  0  0  0  0  0  0  0  0  0
    0.5360   -0.2177   -1.6613 C   0  0  0  0  0  0  0  0  0  0  0  0
    0.7061    0.8411   -1.8774 H   0  0  0  0  0  0  0  0  0  0  0  0
    1.5142   -0.7036   -1.6897 H   0  0  0  0  0  0  0  0  0  0  0  0
   -0.2401   -0.7647   -2.8692 C   0  0  0  0  0  0  0  0  0  0  0  0
   -1.3138   -1.3347   -2.7745 O   0  0  0  0  0  0  0  0  0  0  0  0
    0.3722   -0.5689   -4.0567 O   0  0  0  0  0  0  0  0  0  0  0  0
   -0.2227   -0.9600   -4.7151 H   0  0  0  0  0  0  0  0  0  0  0  0
   -0.1023    1.0489    0.4334 C   0  0  0  0  0  0  0  0  0  0  0  0
   -1.0280    1.7918    0.1311 O   0  0  0  0  0  0  0  0  0  0  0  0
    0.8975    1.5163    1.2668 N   0  0  0  0  0  0  0  0  0  0  0  0
    1.6215    0.8610    1.5478 H   0  0  0  0  0  0  0  0  0  0  0  0
    0.8671    2.8369    1.8845 C   0  0  0  0  0  0  0  0  0  0  0  0
   -0.0139    2.9393    2.5268 H   0  0  0  0  0  0  0  0  0  0  0  0
    1.7615    2.9891    2.4962 H   0  0  0  0  0  0  0  0  0  0  0  0
    0.8371    3.6183    1.1177 H   0  0  0  0  0  0  0  0  0  0  0  0
  1  2  1  0  0  0  0
  2  3  1  0  0  0  0
  2  4  1  0  0  0  0
  2  5  1  0  0  0  0
  5  6  2  0  0  0  0
  5  7  1  0  0  0  0
  7  8  1  0  0  0  0
  7  9  1  0  0  0  0
  9 10  1  0  0  0  0
  9 11  1  0  0  0  0
  9 18  1  0  0  0  0
 11 12  1  0  0  0  0
 11 13  1  0  0  0  0
 11 14  1  0  0  0  0
 14 15  2  0  0  0  0
 14 16  1  0  0  0  0
 16 17  1  0  0  0  0
 18 19  2  0  0  0  0
 18 20  1  0  0  0  0
 20 21  1  0  0  0  0
 20 22  1  0  0  0  0
 22 23  1  0  0  0  0
 22 24  1  0  0  0  0
 22 25  1  0  0  0  0
M  END
$$$$

  -OEChem-03222214023D

 25 24  0     1  0  0  0  0  0999 V2000
   -2.7247   -4.0722    0.4934 H   0  0  0  0  0  0  0  0  0  0  0  0
   -2.7899   -3.0289    0.1728 C   0  0  0  0  0  0  0  0  0  0  0  0
   -3.5328   -2.5155    0.7878 H   0  0  0  0  0  0  0  0  0  0  0  0
   -3.1095   -3.0003   -0.8721 H   0  0  0  0  0  0  0  0  0  0  0  0
   -1.4404   -2.3514    0.3165 C   0  0  0  0  0  0  0  0  0  0  0  0
   -0.4891   -2.9706    0.7696 O   0  0  0  0  0  0  0  0  0  0  0  0
   -1.2878   -1.0400   -0.0825 N   0  0  0  0  0  0  0  0  0  0  0  0
   -2.0788   -0.6190   -0.5693 H   0  0  0  0  0  0  0  0  0  0  0  0
    0.0031   -0.3492   -0.1964 C   0  0  1  0  0  0  0  0  0  0  0  0
    0.7511   -0.8977    0.3851 H   0  0  0  0  0  0  0  0  0  0  0  0
    0.5432   -0.2200   -1.6561 C   0  0  0  0  0  0  0  0  0  0  0  0
    0.7136    0.8366   -1.8814 H   0  0  0  0  0  0  0  0  0  0  0  0
    1.5214   -0.7070   -1.6778 H   0  0  0  0  0  0  0  0  0  0  0  0
   -0.2373   -0.7785   -2.8551 C   0  0  0  0  0  0  0  0  0  0  0  0
   -1.4111   -1.1044   -2.7905 O   0  0  0  0  0  0  0  0  0  0  0  0
    0.4782   -0.8705   -3.9968 O   0  0  0  0  0  0  0  0  0  0  0  0
   -0.1399   -1.2256   -4.6542 H   0  0  0  0  0  0  0  0  0  0  0  0
   -0.0985    1.0544    0.4345 C   0  0  0  0  0  0  0  0  0  0  0  0
   -1.0194    1.8010    0.1274 O   0  0  0  0  0  0  0  0  0  0  0  0
    0.8991    1.5191    1.2723 N   0  0  0  0  0  0  0  0  0  0  0  0
    1.6193    0.8615    1.5577 H   0  0  0  0  0  0  0  0  0  0  0  0
    0.8687    2.8396    1.8903 C   0  0  0  0  0  0  0  0  0  0  0  0
   -0.0149    2.9435    2.5288 H   0  0  0  0  0  0  0  0  0  0  0  0
    1.7608    2.9902    2.5059 H   0  0  0  0  0  0  0  0  0  0  0  0
    0.8428    3.6214    1.1238 H   0  0  0  0  0  0  0  0  0  0  0  0
  1  2  1  0  0  0  0
  2  3  1  0  0  0  0
  2  4  1  0  0  0  0
  2  5  1  0  0  0  0
  5  6  2  0  0  0  0
  5  7  1  0  0  0  0
  7  8  1  0  0  0  0
  7  9  1  0  0  0  0
  9 10  1  0  0  0  0
  9 11  1  0  0  0  0
  9 18  1  0  0  0  0
 11 12  1  0  0  0  0
 11 13  1  0  0  0  0
 11 14  1  0  0  0  0
 14 15  2  0  0  0  0
 14 16  1  0  0  0  0
 16 17  1  0  0  0  0
 18 19  2  0  0  0  0
 18 20  1  0  0  0  0
 20 21  1  0  0  0  0
 20 22  1  0  0  0  0
 22 23  1  0  0  0  0
 22 24  1  0  0  0  0
 22 25  1  0  0  0  0
M  END
$$$$

  -OEChem-03222214023D

 25 24  0     1  0  0  0  0  0999 V2000
   -2.7284   -4.0620    0.4663 H   0  0  0  0  0  0  0  0  0  0  0  0
   -2.7885   -3.0144    0.1592 C   0  0  0  0  0  0  0  0  0  0  0  0
   -3.5160   -2.5014    0.7927 H   0  0  0  0  0  0  0  0  0  0  0  0
   -3.1252   -2.9698   -0.8797 H   0  0  0  0  0  0  0  0  0  0  0  0
   -1.4311   -2.3504    0.2897 C   0  0  0  0  0  0  0  0  0  0  0  0
   -0.4788   -2.9796    0.7262 O   0  0  0  0  0  0  0  0  0  0  0  0
   -1.2726   -1.0386   -0.1035 N   0  0  0  0  0  0  0  0  0  0  0  0
   -2.0660   -0.6028   -0.5743 H   0  0  0  0  0  0  0  0  0  0  0  0
    0.0165   -0.3422   -0.2009 C   0  0  1  0  0  0  0  0  0  0  0  0
    0.7600   -0.8903    0.3868 H   0  0  0  0  0  0  0  0  0  0  0  0
    0.5627   -0.2201   -1.6570 C   0  0  0  0  0  0  0  0  0  0  0  0
    0.7271    0.8348   -1.8951 H   0  0  0  0  0  0  0  0  0  0  0  0
    1.5427   -0.7038   -1.6752 H   0  0  0  0  0  0  0  0  0  0  0  0
   -0.2329   -0.7990   -2.8343 C   0  0  0  0  0  0  0  0  0  0  0  0
   -1.4510   -0.8704   -2.8212 O   0  0  0  0  0  0  0  0  0  0  0  0
    0.5083   -1.2015   -3.8892 O   0  0  0  0  0  0  0  0  0  0  0  0
   -0.1330   -1.5262   -4.5399 H   0  0  0  0  0  0  0  0  0  0  0  0
   -0.0918    1.0606    0.4303 C   0  0  0  0  0  0  0  0  0  0  0  0
   -1.0184    1.8020    0.1289 O   0  0  0  0  0  0  0  0  0  0  0  0
    0.8974    1.5245    1.2784 N   0  0  0  0  0  0  0  0  0  0  0  0
    1.6221    0.8703    1.5602 H   0  0  0  0  0  0  0  0  0  0  0  0
    0.8558    2.8402    1.9058 C   0  0  0  0  0  0  0  0  0  0  0  0
   -0.0423    2.9420    2.5242 H   0  0  0  0  0  0  0  0  0  0  0  0
    1.7332    2.9839    2.5438 H   0  0  0  0  0  0  0  0  0  0  0  0
    0.8504    3.6274    1.1445 H   0  0  0  0  0  0  0  0  0  0  0  0
  1  2  1  0  0  0  0
  2  3  1  0  0  0  0
  2  4  1  0  0  0  0
  2  5  1  0  0  0  0
  5  6  2  0  0  0  0
  5  7  1  0  0  0  0
  7  8  1  0  0  0  0
  7  9  1  0  0  0  0
  9 10  1  0  0  0  0
  9 11  1  0  0  0  0
  9 18  1  0  0  0  0
 11 12  1  0  0  0  0
 11 13  1  0  0  0  0
 11 14  1  0  0  0  0
 14 15  2  0  0  0  0
 14 16  1  0  0  0  0
 16 17  1  0  0  0  0
 18 19  2  0  0  0  0
 18 20  1  0  0  0  0
 20 21  1  0  0  0  0
 20 22  1  0  0  0  0
 22 23  1  0  0  0  0
 22 24  1  0  0  0  0
 22 25  1  0  0  0  0
M  END
$$$$

  -OEChem-03222214023D

 25 24  0     1  0  0  0  0  0999 V2000
   -2.7310   -4.0513    0.4428 H   0  0  0  0  0  0  0  0  0  0  0  0
   -2.7861   -3.0013    0.1426 C   0  0  0  0  0  0  0  0  0  0  0  0
   -3.4974   -2.4846    0.7912 H   0  0  0  0  0  0  0  0  0  0  0  0
   -3.1404   -2.9471   -0.8898 H   0  0  0  0  0  0  0  0  0  0  0  0
   -1.4198   -2.3523    0.2542 C   0  0  0  0  0  0  0  0  0  0  0  0
   -0.4662   -2.9939    0.6684 O   0  0  0  0  0  0  0  0  0  0  0  0
   -1.2538   -1.0396   -0.1325 N   0  0  0  0  0  0  0  0  0  0  0  0
   -2.0557   -0.5777   -0.5631 H   0  0  0  0  0  0  0  0  0  0  0  0
    0.0337   -0.3358   -0.2071 C   0  0  1  0  0  0  0  0  0  0  0  0
    0.7708   -0.8839    0.3889 H   0  0  0  0  0  0  0  0  0  0  0  0
    0.5893   -0.2182   -1.6566 C   0  0  0  0  0  0  0  0  0  0  0  0
    0.7423    0.8354   -1.9072 H   0  0  0  0  0  0  0  0  0  0  0  0
    1.5727   -0.6948   -1.6744 H   0  0  0  0  0  0  0  0  0  0  0  0
   -0.2271   -0.8200   -2.8039 C   0  0  0  0  0  0  0  0  0  0  0  0
   -1.4325   -0.6432   -2.8750 O   0  0  0  0  0  0  0  0  0  0  0  0
    0.4659   -1.5227   -3.7261 O   0  0  0  0  0  0  0  0  0  0  0  0
   -0.1953   -1.8149   -4.3720 H   0  0  0  0  0  0  0  0  0  0  0  0
   -0.0849    1.0661    0.4234 C   0  0  0  0  0  0  0  0  0  0  0  0
   -1.0182    1.8000    0.1251 O   0  0  0  0  0  0  0  0  0  0  0  0
    0.8922    1.5291    1.2857 N   0  0  0  0  0  0  0  0  0  0  0  0
    1.6215    0.8794    1.5656 H   0  0  0  0  0  0  0  0  0  0  0  0
    0.8393    2.8420    1.9178 C   0  0  0  0  0  0  0  0  0  0  0  0
   -0.0639    2.9376    2.5297 H   0  0  0  0  0  0  0  0  0  0  0  0
    1.7109    2.9869    2.5631 H   0  0  0  0  0  0  0  0  0  0  0  0
    0.8362    3.6320    1.1593 H   0  0  0  0  0  0  0  0  0  0  0  0
  1  2  1  0  0  0  0
  2  3  1  0  0  0  0
  2  4  1  0  0  0  0
  2  5  1  0  0  0  0
  5  6  2  0  0  0  0
  5  7  1  0  0  0  0
  7  8  1  0  0  0  0
  7  9  1  0  0  0  0
  9 10  1  0  0  0  0
  9 11  1  0  0  0  0
  9 18  1  0  0  0  0
 11 12  1  0  0  0  0
 11 13  1  0  0  0  0
 11 14  1  0  0  0  0
 14 15  2  0  0  0  0
 14 16  1  0  0  0  0
 16 17  1  0  0  0  0
 18 19  2  0  0  0  0
 18 20  1  0  0  0  0
 20 21  1  0  0  0  0
 20 22  1  0  0  0  0
 22 23  1  0  0  0  0
 22 24  1  0  0  0  0
 22 25  1  0  0  0  0
M  END
$$$$

  -OEChem-03222214023D

 25 24  0     1  0  0  0  0  0999 V2000
   -2.7312   -4.0339    0.4330 H   0  0  0  0  0  0  0  0  0  0  0  0
   -2.7820   -2.9841    0.1313 C   0  0  0  0  0  0  0  0  0  0  0  0
   -3.4738   -2.4589    0.7941 H   0  0  0  0  0  0  0  0  0  0  0  0
   -3.1581   -2.9291   -0.8933 H   0  0  0  0  0  0  0  0  0  0  0  0
   -1.4068   -2.3490    0.2119 C   0  0  0  0  0  0  0  0  0  0  0  0
   -0.4500   -3.0021    0.5990 O   0  0  0  0  0  0  0  0  0  0  0  0
   -1.2363   -1.0346   -0.1678 N   0  0  0  0  0  0  0  0  0  0  0  0
   -2.0509   -0.5416   -0.5353 H   0  0  0  0  0  0  0  0  0  0  0  0
    0.0507   -0.3258   -0.2216 C   0  0  1  0  0  0  0  0  0  0  0  0
    0.7810   -0.8742    0.3827 H   0  0  0  0  0  0  0  0  0  0  0  0
    0.6166   -0.2188   -1.6648 C   0  0  0  0  0  0  0  0  0  0  0  0
    0.7613    0.8320   -1.9313 H   0  0  0  0  0  0  0  0  0  0  0  0
    1.6011   -0.6932   -1.6827 H   0  0  0  0  0  0  0  0  0  0  0  0
   -0.2213   -0.8460   -2.7776 C   0  0  0  0  0  0  0  0  0  0  0  0
   -1.3575   -0.4495   -2.9771 O   0  0  0  0  0  0  0  0  0  0  0  0
    0.3601   -1.8182   -3.5134 O   0  0  0  0  0  0  0  0  0  0  0  0
   -0.3117   -2.0846   -4.1593 H   0  0  0  0  0  0  0  0  0  0  0  0
   -0.0751    1.0752    0.4103 C   0  0  0  0  0  0  0  0  0  0  0  0
   -1.0215    1.7974    0.1257 O   0  0  0  0  0  0  0  0  0  0  0  0
    0.8904    1.5378    1.2861 N   0  0  0  0  0  0  0  0  0  0  0  0
    1.6303    0.8959    1.5559 H   0  0  0  0  0  0  0  0  0  0  0  0
    0.8174    2.8404    1.9379 C   0  0  0  0  0  0  0  0  0  0  0  0
   -0.0863    2.9119    2.5523 H   0  0  0  0  0  0  0  0  0  0  0  0
    1.6878    2.9901    2.5839 H   0  0  0  0  0  0  0  0  0  0  0  0
    0.7998    3.6418    1.1916 H   0  0  0  0  0  0  0  0  0  0  0  0
  1  2  1  0  0  0  0
  2  3  1  0  0  0  0
  2  4  1  0  0  0  0
  2  5  1  0  0  0  0
  5  6  2  0  0  0  0
  5  7  1  0  0  0  0
  7  8  1  0  0  0  0
  7  9  1  0  0  0  0
  9 10  1  0  0  0  0
  9 11  1  0  0  0  0
  9 18  1  0  0  0  0
 11 12  1  0  0  0  0
 11 13  1  0  0  0  0
 11 14  1  0  0  0  0
 14 15  2  0  0  0  0
 14 16  1  0  0  0  0
 16 17  1  0  0  0  0
 18 19  2  0  0  0  0
 18 20  1  0  0  0  0
 20 21  1  0  0  0  0
 20 22  1  0  0  0  0
 22 23  1  0  0  0  0
 22 24  1  0  0  0  0
 22 25  1  0  0  0  0
M  END
$$$$

  -OEChem-03222214023D

 25 24  0     1  0  0  0  0  0999 V2000
   -2.7374   -4.0169    0.4492 H   0  0  0  0  0  0  0  0  0  0  0  0
   -2.7841   -2.9682    0.1429 C   0  0  0  0  0  0  0  0  0  0  0  0
   -3.4516   -2.4313    0.8211 H   0  0  0  0  0  0  0  0  0  0  0  0
   -3.1868   -2.9143   -0.8716 H   0  0  0  0  0  0  0  0  0  0  0  0
   -1.3997   -2.3496    0.1832 C   0  0  0  0  0  0  0  0  0  0  0  0
   -0.4410   -3.0133    0.5460 O   0  0  0  0  0  0  0  0  0  0  0  0
   -1.2255   -1.0348   -0.1948 N   0  0  0  0  0  0  0  0  0  0  0  0
   -2.0516   -0.5125   -0.4880 H   0  0  0  0  0  0  0  0  0  0  0  0
    0.0629   -0.3260   -0.2347 C   0  0  1  0  0  0  0  0  0  0  0  0
    0.7867   -0.8749    0.3768 H   0  0  0  0  0  0  0  0  0  0  0  0
    0.6397   -0.2218   -1.6714 C   0  0  0  0  0  0  0  0  0  0  0  0
    0.7859    0.8278   -1.9430 H   0  0  0  0  0  0  0  0  0  0  0  0
    1.6222   -0.7001   -1.6891 H   0  0  0  0  0  0  0  0  0  0  0  0
   -0.2100   -0.8588   -2.7657 C   0  0  0  0  0  0  0  0  0  0  0  0
   -1.2221   -0.2897   -3.1358 O   0  0  0  0  0  0  0  0  0  0  0  0
    0.2181   -2.0263   -3.2930 O   0  0  0  0  0  0  0  0  0  0  0  0
   -0.4399   -2.2592   -3.9650 H   0  0  0  0  0  0  0  0  0  0  0  0
   -0.0707    1.0743    0.3961 C   0  0  0  0  0  0  0  0  0  0  0  0
   -1.0316    1.7820    0.1242 O   0  0  0  0  0  0  0  0  0  0  0  0
    0.8844    1.5382    1.2825 N   0  0  0  0  0  0  0  0  0  0  0  0
    1.6333    0.9041    1.5457 H   0  0  0  0  0  0  0  0  0  0  0  0
    0.7954    2.8347    1.9445 C   0  0  0  0  0  0  0  0  0  0  0  0
   -0.1037    2.8861    2.5673 H   0  0  0  0  0  0  0  0  0  0  0  0
    1.6692    2.9944    2.5837 H   0  0  0  0  0  0  0  0  0  0  0  0
    0.7573    3.6413    1.2047 H   0  0  0  0  0  0  0  0  0  0  0  0
  1  2  1  0  0  0  0
  2  3  1  0  0  0  0
  2  4  1  0  0  0  0
  2  5  1  0  0  0  0
  5  6  2  0  0  0  0
  5  7  1  0  0  0  0
  7  8  1  0  0  0  0
  7  9  1  0  0  0  0
  9 10  1  0  0  0  0
  9 11  1  0  0  0  0
  9 18  1  0  0  0  0
 11 12  1  0  0  0  0
 11 13  1  0  0  0  0
 11 14  1  0  0  0  0
 14 15  2  0  0  0  0
 14 16  1  0  0  0  0
 16 17  1  0  0  0  0
 18 19  2  0  0  0  0
 18 20  1  0  0  0  0
 20 21  1  0  0  0  0
 20 22  1  0  0  0  0
 22 23  1  0  0  0  0
 22 24  1  0  0  0  0
 22 25  1  0  0  0  0
M  END
$$$$

  -OEChem-03222214023D

 25 24  0     1  0  0  0  0  0999 V2000
   -2.7414   -4.0061    0.4812 H   0  0  0  0  0  0  0  0  0  0  0  0
   -2.7866   -2.9596    0.1672 C   0  0  0  0  0  0  0  0  0  0  0  0
   -3.4390   -2.4131    0.8525 H   0  0  0  0  0  0  0  0  0  0  0  0
   -3.2064   -2.9116   -0.8404 H   0  0  0  0  0  0  0  0  0  0  0  0
   -1.3975   -2.3506    0.1779 C   0  0  0  0  0  0  0  0  0  0  0  0
   -0.4387   -3.0181    0.5331 O   0  0  0  0  0  0  0  0  0  0  0  0
   -1.2217   -1.0364   -0.2038 N   0  0  0  0  0  0  0  0  0  0  0  0
   -2.0533   -0.4961   -0.4431 H   0  0  0  0  0  0  0  0  0  0  0  0
    0.0697   -0.3323   -0.2411 C   0  0  1  0  0  0  0  0  0  0  0  0
    0.7917   -0.8809    0.3728 H   0  0  0  0  0  0  0  0  0  0  0  0
    0.6491   -0.2268   -1.6762 C   0  0  0  0  0  0  0  0  0  0  0  0
    0.8037    0.8229   -1.9439 H   0  0  0  0  0  0  0  0  0  0  0  0
    1.6273   -0.7132   -1.6968 H   0  0  0  0  0  0  0  0  0  0  0  0
   -0.2061   -0.8597   -2.7678 C   0  0  0  0  0  0  0  0  0  0  0  0
   -1.0454   -0.1750   -3.3242 O   0  0  0  0  0  0  0  0  0  0  0  0
    0.0345   -2.1479   -3.0954 O   0  0  0  0  0  0  0  0  0  0  0  0
   -0.5867   -2.3495   -3.8110 H   0  0  0  0  0  0  0  0  0  0  0  0
   -0.0695    1.0684    0.3874 C   0  0  0  0  0  0  0  0  0  0  0  0
   -1.0394    1.7661    0.1211 O   0  0  0  0  0  0  0  0  0  0  0  0
    0.8795    1.5357    1.2784 N   0  0  0  0  0  0  0  0  0  0  0  0
    1.6366    0.9090    1.5359 H   0  0  0  0  0  0  0  0  0  0  0  0
    0.7797    2.8294    1.9441 C   0  0  0  0  0  0  0  0  0  0  0  0
   -0.1302    2.8797    2.5514 H   0  0  0  0  0  0  0  0  0  0  0  0
    1.6418    2.9855    2.5997 H   0  0  0  0  0  0  0  0  0  0  0  0
    0.7559    3.6389    1.2068 H   0  0  0  0  0  0  0  0  0  0  0  0
  1  2  1  0  0  0  0
  2  3  1  0  0  0  0
  2  4  1  0  0  0  0
  2  5  1  0  0  0  0
  5  6  2  0  0  0  0
  5  7  1  0  0  0  0
  7  8  1  0  0  0  0
  7  9  1  0  0  0  0
  9 10  1  0  0  0  0
  9 11  1  0  0  0  0
  9 18  1  0  0  0  0
 11 12  1  0  0  0  0
 11 13  1  0  0  0  0
 11 14  1  0  0  0  0
 14 15  2  0  0  0  0
 14 16  1  0  0  0  0
 16 17  1  0  0  0  0
 18 19  2  0  0  0  0
 18 20  1  0  0  0  0
 20 21  1  0  0  0  0
 20 22  1  0  0  0  0
 22 23  1  0  0  0  0
 22 24  1  0  0  0  0
 22 25  1  0  0  0  0
M  END
$$$$

  -OEChem-03222214023D

 25 24  0     1  0  0  0  0  0999 V2000
   -2.7494   -4.0002    0.5200 H   0  0  0  0  0  0  0  0  0  0  0  0
   -2.7919   -2.9572    0.1944 C   0  0  0  0  0  0  0  0  0  0  0  0
   -3.4379   -2.3999    0.8771 H   0  0  0  0  0  0  0  0  0  0  0  0
   -3.2166   -2.9191   -0.8116 H   0  0  0  0  0  0  0  0  0  0  0  0
   -1.4005   -2.3537    0.1908 C   0  0  0  0  0  0  0  0  0  0  0  0
   -0.4433   -3.0204    0.5522 O   0  0  0  0  0  0  0  0  0  0  0  0
   -1.2248   -1.0407   -0.1962 N   0  0  0  0  0  0  0  0  0  0  0  0
   -2.0586   -0.4942   -0.4106 H   0  0  0  0  0  0  0  0  0  0  0  0
    0.0691   -0.3416   -0.2394 C   0  0  1  0  0  0  0  0  0  0  0  0
    0.7931   -0.8904    0.3720 H   0  0  0  0  0  0  0  0  0  0  0  0
    0.6452   -0.2290   -1.6758 C   0  0  0  0  0  0  0  0  0  0  0  0
    0.8101    0.8220   -1.9331 H   0  0  0  0  0  0  0  0  0  0  0  0
    1.6188   -0.7239   -1.7006 H   0  0  0  0  0  0  0  0  0  0  0  0
   -0.2097   -0.8495   -2.7757 C   0  0  0  0  0  0  0  0  0  0  0  0
   -0.8389   -0.1079   -3.5083 O   0  0  0  0  0  0  0  0  0  0  0  0
   -0.1747   -2.1908   -2.9351 O   0  0  0  0  0  0  0  0  0  0  0  0
   -0.7390   -2.3706   -3.7017 H   0  0  0  0  0  0  0  0  0  0  0  0
   -0.0718    1.0596    0.3871 C   0  0  0  0  0  0  0  0  0  0  0  0
   -1.0450    1.7529    0.1206 O   0  0  0  0  0  0  0  0  0  0  0  0
    0.8763    1.5307    1.2767 N   0  0  0  0  0  0  0  0  0  0  0  0
    1.6340    0.9055    1.5367 H   0  0  0  0  0  0  0  0  0  0  0  0
    0.7752    2.8273    1.9363 C   0  0  0  0  0  0  0  0  0  0  0  0
   -0.1354    2.8790    2.5426 H   0  0  0  0  0  0  0  0  0  0  0  0
    1.6369    2.9877    2.5917 H   0  0  0  0  0  0  0  0  0  0  0  0
    0.7507    3.6330    1.1949 H   0  0  0  0  0  0  0  0  0  0  0  0
  1  2  1  0  0  0  0
  2  3  1  0  0  0  0
  2  4  1  0  0  0  0
  2  5  1  0  0  0  0
  5  6  2  0  0  0  0
  5  7  1  0  0  0  0
  7  8  1  0  0  0  0
  7  9  1  0  0  0  0
  9 10  1  0  0  0  0
  9 11  1  0  0  0  0
  9 18  1  0  0  0  0
 11 12  1  0  0  0  0
 11 13  1  0  0  0  0
 11 14  1  0  0  0  0
 14 15  2  0  0  0  0
 14 16  1  0  0  0  0
 16 17  1  0  0  0  0
 18 19  2  0  0  0  0
 18 20  1  0  0  0  0
 20 21  1  0  0  0  0
 20 22  1  0  0  0  0
 22 23  1  0  0  0  0
 22 24  1  0  0  0  0
 22 25  1  0  0  0  0
M  END
$$$$

  -OEChem-03222214023D

 25 24  0     1  0  0  0  0  0999 V2000
   -2.7557   -3.9956    0.5619 H   0  0  0  0  0  0  0  0  0  0  0  0
   -2.7994   -2.9560    0.2258 C   0  0  0  0  0  0  0  0  0  0  0  0
   -3.4497   -2.3938    0.9001 H   0  0  0  0  0  0  0  0  0  0  0  0
   -3.2195   -2.9293   -0.7824 H   0  0  0  0  0  0  0  0  0  0  0  0
   -1.4090   -2.3500    0.2207 C   0  0  0  0  0  0  0  0  0  0  0  0
   -0.4523   -3.0121    0.5927 O   0  0  0  0  0  0  0  0  0  0  0  0
   -1.2344   -1.0392   -0.1754 N   0  0  0  0  0  0  0  0  0  0  0  0
   -2.0686   -0.4924   -0.3855 H   0  0  0  0  0  0  0  0  0  0  0  0
    0.0618   -0.3469   -0.2360 C   0  0  1  0  0  0  0  0  0  0  0  0
    0.7903   -0.8944    0.3713 H   0  0  0  0  0  0  0  0  0  0  0  0
    0.6296   -0.2315   -1.6770 C   0  0  0  0  0  0  0  0  0  0  0  0
    0.8050    0.8207   -1.9239 H   0  0  0  0  0  0  0  0  0  0  0  0
    1.5990   -0.7344   -1.7048 H   0  0  0  0  0  0  0  0  0  0  0  0
   -0.2186   -0.8379   -2.7925 C   0  0  0  0  0  0  0  0  0  0  0  0
   -0.6068   -0.0966   -3.6769 O   0  0  0  0  0  0  0  0  0  0  0  0
   -0.4010   -2.1769   -2.8230 O   0  0  0  0  0  0  0  0  0  0  0  0
   -0.8911   -2.3464   -3.6414 H   0  0  0  0  0  0  0  0  0  0  0  0
   -0.0747    1.0563    0.3868 C   0  0  0  0  0  0  0  0  0  0  0  0
   -1.0492    1.7490    0.1218 O   0  0  0  0  0  0  0  0  0  0  0  0
    0.8804    1.5311    1.2667 N   0  0  0  0  0  0  0  0  0  0  0  0
    1.6397    0.9064    1.5232 H   0  0  0  0  0  0  0  0  0  0  0  0
    0.7768    2.8234    1.9344 C   0  0  0  0  0  0  0  0  0  0  0  0
   -0.1268    2.8641    2.5517 H   0  0  0  0  0  0  0  0  0  0  0  0
    1.6449    2.9865    2.5803 H   0  0  0  0  0  0  0  0  0  0  0  0
    0.7375    3.6336    1.1984 H   0  0  0  0  0  0  0  0  0  0  0  0
  1  2  1  0  0  0  0
  2  3  1  0  0  0  0
  2  4  1  0  0  0  0
  2  5  1  0  0  0  0
  5  6  2  0  0  0  0
  5  7  1  0  0  0  0
  7  8  1  0  0  0  0
  7  9  1  0  0  0  0
  9 10  1  0  0  0  0
  9 11  1  0  0  0  0
  9 18  1  0  0  0  0
 11 12  1  0  0  0  0
 11 13  1  0  0  0  0
 11 14  1  0  0  0  0
 14 15  2  0  0  0  0
 14 16  1  0  0  0  0
 16 17  1  0  0  0  0
 18 19  2  0  0  0  0
 18 20  1  0  0  0  0
 20 21  1  0  0  0  0
 20 22  1  0  0  0  0
 22 23  1  0  0  0  0
 22 24  1  0  0  0  0
 22 25  1  0  0  0  0
M  END
$$$$

  -OEChem-03222214023D

 25 24  0     1  0  0  0  0  0999 V2000
   -2.7592   -4.0014    0.6023 H   0  0  0  0  0  0  0  0  0  0  0  0
   -2.8060   -2.9637    0.2605 C   0  0  0  0  0  0  0  0  0  0  0  0
   -3.4583   -2.3997    0.9314 H   0  0  0  0  0  0  0  0  0  0  0  0
   -3.2257   -2.9440   -0.7482 H   0  0  0  0  0  0  0  0  0  0  0  0
   -1.4177   -2.3529    0.2523 C   0  0  0  0  0  0  0  0  0  0  0  0
   -0.4580   -3.0113    0.6241 O   0  0  0  0  0  0  0  0  0  0  0  0
   -1.2481   -1.0420   -0.1465 N   0  0  0  0  0  0  0  0  0  0  0  0
   -2.0836   -0.5009   -0.3640 H   0  0  0  0  0  0  0  0  0  0  0  0
    0.0479   -0.3530   -0.2276 C   0  0  1  0  0  0  0  0  0  0  0  0
    0.7841   -0.9007    0.3701 H   0  0  0  0  0  0  0  0  0  0  0  0
    0.6049   -0.2272   -1.6747 C   0  0  0  0  0  0  0  0  0  0  0  0
    0.7832    0.8280   -1.9057 H   0  0  0  0  0  0  0  0  0  0  0  0
    1.5740   -0.7302   -1.7060 H   0  0  0  0  0  0  0  0  0  0  0  0
   -0.2266   -0.8132   -2.8176 C   0  0  0  0  0  0  0  0  0  0  0  0
   -0.3552   -0.1224   -3.8121 O   0  0  0  0  0  0  0  0  0  0  0  0
   -0.6439   -2.0982   -2.7630 O   0  0  0  0  0  0  0  0  0  0  0  0
   -1.0519   -2.2658   -3.6258 H   0  0  0  0  0  0  0  0  0  0  0  0
   -0.0831    1.0492    0.3995 C   0  0  0  0  0  0  0  0  0  0  0  0
   -1.0548    1.7459    0.1335 O   0  0  0  0  0  0  0  0  0  0  0  0
    0.8818    1.5269    1.2671 N   0  0  0  0  0  0  0  0  0  0  0  0
    1.6422    0.9021    1.5202 H   0  0  0  0  0  0  0  0  0  0  0  0
    0.7889    2.8252    1.9247 C   0  0  0  0  0  0  0  0  0  0  0  0
   -0.1192    2.8823    2.5340 H   0  0  0  0  0  0  0  0  0  0  0  0
    1.6532    2.9824    2.5770 H   0  0  0  0  0  0  0  0  0  0  0  0
    0.7658    3.6298    1.1821 H   0  0  0  0  0  0  0  0  0  0  0  0
  1  2  1  0  0  0  0
  2  3  1  0  0  0  0
  2  4  1  0  0  0  0
  2  5  1  0  0  0  0
  5  6  2  0  0  0  0
  5  7  1  0  0  0  0
  7  8  1  0  0  0  0
  7  9  1  0  0  0  0
  9 10  1  0  0  0  0
  9 11  1  0  0  0  0
  9 18  1  0  0  0  0
 11 12  1  0  0  0  0
 11 13  1  0  0  0  0
 11 14  1  0  0  0  0
 14 15  2  0  0  0  0
 14 16  1  0  0  0  0
 16 17  1  0  0  0  0
 18 19  2  0  0  0  0
 18 20  1  0  0  0  0
 20 21  1  0  0  0  0
 20 22  1  0  0  0  0
 22 23  1  0  0  0  0
 22 24  1  0  0  0  0
 22 25  1  0  0  0  0
M  END
$$$$

  -OEChem-03222214023D

 25 24  0     1  0  0  0  0  0999 V2000
   -2.7617   -4.0056    0.6509 H   0  0  0  0  0  0  0  0  0  0  0  0
   -2.8124   -2.9711    0.3003 C   0  0  0  0  0  0  0  0  0  0  0  0
   -3.4631   -2.4029    0.9692 H   0  0  0  0  0  0  0  0  0  0  0  0
   -3.2361   -2.9609   -0.7067 H   0  0  0  0  0  0  0  0  0  0  0  0
   -1.4257   -2.3569    0.2802 C   0  0  0  0  0  0  0  0  0  0  0  0
   -0.4606   -3.0133    0.6422 O   0  0  0  0  0  0  0  0  0  0  0  0
   -1.2631   -1.0455   -0.1195 N   0  0  0  0  0  0  0  0  0  0  0  0
   -2.1002   -0.5160   -0.3570 H   0  0  0  0  0  0  0  0  0  0  0  0
    0.0303   -0.3568   -0.2218 C   0  0  1  0  0  0  0  0  0  0  0  0
    0.7735   -0.9034    0.3684 H   0  0  0  0  0  0  0  0  0  0  0  0
    0.5824   -0.2202   -1.6725 C   0  0  0  0  0  0  0  0  0  0  0  0
    0.7624    0.8381   -1.8881 H   0  0  0  0  0  0  0  0  0  0  0  0
    1.5528   -0.7209   -1.7005 H   0  0  0  0  0  0  0  0  0  0  0  0
   -0.2190   -0.7852   -2.8510 C   0  0  0  0  0  0  0  0  0  0  0  0
   -0.0810   -0.1994   -3.9096 O   0  0  0  0  0  0  0  0  0  0  0  0
   -0.8993   -1.9497   -2.7515 O   0  0  0  0  0  0  0  0  0  0  0  0
   -1.2234   -2.1246   -3.6480 H   0  0  0  0  0  0  0  0  0  0  0  0
   -0.0962    1.0435    0.4108 C   0  0  0  0  0  0  0  0  0  0  0  0
   -1.0653    1.7452    0.1478 O   0  0  0  0  0  0  0  0  0  0  0  0
    0.8811    1.5213    1.2645 N   0  0  0  0  0  0  0  0  0  0  0  0
    1.6359    0.8903    1.5190 H   0  0  0  0  0  0  0  0  0  0  0  0
    0.8032    2.8235    1.9159 C   0  0  0  0  0  0  0  0  0  0  0  0
   -0.0802    2.8770    2.5606 H   0  0  0  0  0  0  0  0  0  0  0  0
    1.6921    2.9929    2.5311 H   0  0  0  0  0  0  0  0  0  0  0  0
    0.7435    3.6226    1.1695 H   0  0  0  0  0  0  0  0  0  0  0  0
  1  2  1  0  0  0  0
  2  3  1  0  0  0  0
  2  4  1  0  0  0  0
  2  5  1  0  0  0  0
  5  6  2  0  0  0  0
  5  7  1  0  0  0  0
  7  8  1  0  0  0  0
  7  9  1  0  0  0  0
  9 10  1  0  0  0  0
  9 11  1  0  0  0  0
  9 18  1  0  0  0  0
 11 12  1  0  0  0  0
 11 13  1  0  0  0  0
 11 14  1  0  0  0  0
 14 15  2  0  0  0  0
 14 16  1  0  0  0  0
 16 17  1  0  0  0  0
 18 19  2  0  0  0  0
 18 20  1  0  0  0  0
 20 21  1  0  0  0  0
 20 22  1  0  0  0  0
 22 23  1  0  0  0  0
 22 24  1  0  0  0  0
 22 25  1  0  0  0  0
M  END
$$$$

  -OEChem-03222214023D

 25 24  0     1  0  0  0  0  0999 V2000
   -2.7484   -4.0262    0.6572 H   0  0  0  0  0  0  0  0  0  0  0  0
   -2.8071   -2.9896    0.3141 C   0  0  0  0  0  0  0  0  0  0  0  0
   -3.4688   -2.4328    0.9820 H   0  0  0  0  0  0  0  0  0  0  0  0
   -3.2231   -2.9756   -0.6961 H   0  0  0  0  0  0  0  0  0  0  0  0
   -1.4267   -2.3613    0.3092 C   0  0  0  0  0  0  0  0  0  0  0  0
   -0.4563   -3.0127    0.6659 O   0  0  0  0  0  0  0  0  0  0  0  0
   -1.2730   -1.0490   -0.0890 N   0  0  0  0  0  0  0  0  0  0  0  0
   -2.1094   -0.5417   -0.3720 H   0  0  0  0  0  0  0  0  0  0  0  0
    0.0157   -0.3572   -0.2110 C   0  0  1  0  0  0  0  0  0  0  0  0
    0.7655   -0.9032    0.3709 H   0  0  0  0  0  0  0  0  0  0  0  0
    0.5601   -0.2173   -1.6660 C   0  0  0  0  0  0  0  0  0  0  0  0
    0.7315    0.8434   -1.8760 H   0  0  0  0  0  0  0  0  0  0  0  0
    1.5361   -0.7077   -1.6906 H   0  0  0  0  0  0  0  0  0  0  0  0
   -0.2161   -0.7715   -2.8694 C   0  0  0  0  0  0  0  0  0  0  0  0
    0.1595   -0.3541   -3.9499 O   0  0  0  0  0  0  0  0  0  0  0  0
   -1.1800   -1.7133   -2.7557 O   0  0  0  0  0  0  0  0  0  0  0  0
   -1.4423   -1.9069   -3.6687 H   0  0  0  0  0  0  0  0  0  0  0  0
   -0.1029    1.0414    0.4270 C   0  0  0  0  0  0  0  0  0  0  0  0
   -1.0677    1.7497    0.1659 O   0  0  0  0  0  0  0  0  0  0  0  0
    0.8873    1.5196    1.2653 N   0  0  0  0  0  0  0  0  0  0  0  0
    1.6440    0.8880    1.5123 H   0  0  0  0  0  0  0  0  0  0  0  0
    0.8242    2.8273    1.9072 C   0  0  0  0  0  0  0  0  0  0  0  0
   -0.0540    2.8929    2.5581 H   0  0  0  0  0  0  0  0  0  0  0  0
    1.7187    2.9945    2.5148 H   0  0  0  0  0  0  0  0  0  0  0  0
    0.7648    3.6210    1.1548 H   0  0  0  0  0  0  0  0  0  0  0  0
  1  2  1  0  0  0  0
  2  3  1  0  0  0  0
  2  4  1  0  0  0  0
  2  5  1  0  0  0  0
  5  6  2  0  0  0  0
  5  7  1  0  0  0  0
  7  8  1  0  0  0  0
  7  9  1  0  0  0  0
  9 10  1  0  0  0  0
  9 11  1  0  0  0  0
  9 18  1  0  0  0  0
 11 12  1  0  0  0  0
 11 13  1  0  0  0  0
 11 14  1  0  0  0  0
 14 15  2  0  0  0  0
 14 16  1  0  0  0  0
 16 17  1  0  0  0  0
 18 19  2  0  0  0  0
 18 20  1  0  0  0  0
 20 21  1  0  0  0  0
 20 22  1  0  0  0  0
 22 23  1  0  0  0  0
 22 24  1  0  0  0  0
 22 25  1  0  0  0  0
M  END
$$$$

  -OEChem-03222214023D

 25 24  0     1  0  0  0  0  0999 V2000
   -2.6859   -4.0821    0.5720 H   0  0  0  0  0  0  0  0  0  0  0  0
   -2.7556   -3.0406    0.2462 C   0  0  0  0  0  0  0  0  0  0  0  0
   -3.4648   -2.5154    0.8905 H   0  0  0  0  0  0  0  0  0  0  0  0
   -3.1220   -3.0165   -0.7830 H   0  0  0  0  0  0  0  0  0  0  0  0
   -1.3950   -2.3750    0.3245 C   0  0  0  0  0  0  0  0  0  0  0  0
   -0.4268   -3.0040    0.7235 O   0  0  0  0  0  0  0  0  0  0  0  0
   -1.2509   -1.0629   -0.0733 N   0  0  0  0  0  0  0  0  0  0  0  0
   -2.0622   -0.6166   -0.5015 H   0  0  0  0  0  0  0  0  0  0  0  0
    0.0323   -0.3622   -0.1947 C   0  0  1  0  0  0  0  0  0  0  0  0
    0.8015   -0.8981    0.3709 H   0  0  0  0  0  0  0  0  0  0  0  0
    0.5315   -0.2006   -1.6607 C   0  0  0  0  0  0  0  0  0  0  0  0
    0.9697    0.7944   -1.7836 H   0  0  0  0  0  0  0  0  0  0  0  0
    1.3398   -0.9242   -1.7954 H   0  0  0  0  0  0  0  0  0  0  0  0
   -0.4165   -0.4206   -2.8490 C   0  0  0  0  0  0  0  0  0  0  0  0
    0.0989   -0.2647   -3.9411 O   0  0  0  0  0  0  0  0  0  0  0  0
   -1.7365   -0.6884   -2.7040 O   0  0  0  0  0  0  0  0  0  0  0  0
   -2.0810   -0.7097   -3.6107 H   0  0  0  0  0  0  0  0  0  0  0  0
   -0.0957    1.0363    0.4432 C   0  0  0  0  0  0  0  0  0  0  0  0
   -1.0433    1.7573    0.1560 O   0  0  0  0  0  0  0  0  0  0  0  0
    0.8933    1.5176    1.2816 N   0  0  0  0  0  0  0  0  0  0  0  0
    1.6400    0.8810    1.5457 H   0  0  0  0  0  0  0  0  0  0  0  0
    0.8356    2.8322    1.9098 C   0  0  0  0  0  0  0  0  0  0  0  0
   -0.0452    2.9101    2.5559 H   0  0  0  0  0  0  0  0  0  0  0  0
    1.7283    2.9999    2.5200 H   0  0  0  0  0  0  0  0  0  0  0  0
    0.7852    3.6186    1.1491 H   0  0  0  0  0  0  0  0  0  0  0  0
  1  2  1  0  0  0  0
  2  3  1  0  0  0  0
  2  4  1  0  0  0  0
  2  5  1  0  0  0  0
  5  6  2  0  0  0  0
  5  7  1  0  0  0  0
  7  8  1  0  0  0  0
  7  9  1  0  0  0  0
  9 10  1  0  0  0  0
  9 11  1  0  0  0  0
  9 18  1  0  0  0  0
 11 12  1  0  0  0  0
 11 13  1  0  0  0  0
 11 14  1  0  0  0  0
 14 15  2  0  0  0  0
 14 16  1  0  0  0  0
 16 17  1  0  0  0  0
 18 19  2  0  0  0  0
 18 20  1  0  0  0  0
 20 21  1  0  0  0  0
 20 22  1  0  0  0  0
 22 23  1  0  0  0  0
 22 24  1  0  0  0  0
 22 25  1  0  0  0  0
M  END
$$$$

  -OEChem-03222214023D

 25 24  0     1  0  0  0  0  0999 V2000
   -2.6887   -4.0735    0.5470 H   0  0  0  0  0  0  0  0  0  0  0  0
   -2.7557   -3.0299    0.2270 C   0  0  0  0  0  0  0  0  0  0  0  0
   -3.4530   -2.5033    0.8831 H   0  0  0  0  0  0  0  0  0  0  0  0
   -3.1355   -2.9982   -0.7972 H   0  0  0  0  0  0  0  0  0  0  0  0
   -1.3893   -2.3745    0.2917 C   0  0  0  0  0  0  0  0  0  0  0  0
   -0.4200   -3.0120    0.6734 O   0  0  0  0  0  0  0  0  0  0  0  0
   -1.2409   -1.0609   -0.0984 N   0  0  0  0  0  0  0  0  0  0  0  0
   -2.0570   -0.5943   -0.4966 H   0  0  0  0  0  0  0  0  0  0  0  0
    0.0408   -0.3538   -0.2035 C   0  0  1  0  0  0  0  0  0  0  0  0
    0.8066   -0.8906    0.3662 H   0  0  0  0  0  0  0  0  0  0  0  0
    0.5421   -0.2008   -1.6677 C   0  0  0  0  0  0  0  0  0  0  0  0
    0.9656    0.7982   -1.8053 H   0  0  0  0  0  0  0  0  0  0  0  0
    1.3581   -0.9168   -1.8003 H   0  0  0  0  0  0  0  0  0  0  0  0
   -0.4275   -0.4407   -2.8322 C   0  0  0  0  0  0  0  0  0  0  0  0
    0.0967   -0.5839   -3.9218 O   0  0  0  0  0  0  0  0  0  0  0  0
   -1.7713   -0.3624   -2.6772 O   0  0  0  0  0  0  0  0  0  0  0  0
   -2.1278   -0.4464   -3.5753 H   0  0  0  0  0  0  0  0  0  0  0  0
   -0.0902    1.0434    0.4364 C   0  0  0  0  0  0  0  0  0  0  0  0
   -1.0406    1.7631    0.1562 O   0  0  0  0  0  0  0  0  0  0  0  0
    0.8938    1.5197    1.2834 N   0  0  0  0  0  0  0  0  0  0  0  0
    1.6400    0.8819    1.5459 H   0  0  0  0  0  0  0  0  0  0  0  0
    0.8279    2.8268    1.9265 C   0  0  0  0  0  0  0  0  0  0  0  0
   -0.0637    2.8983    2.5586 H   0  0  0  0  0  0  0  0  0  0  0  0
    1.7105    2.9849    2.5538 H   0  0  0  0  0  0  0  0  0  0  0  0
    0.7916    3.6226    1.1749 H   0  0  0  0  0  0  0  0  0  0  0  0
  1  2  1  0  0  0  0
  2  3  1  0  0  0  0
  2  4  1  0  0  0  0
  2  5  1  0  0  0  0
  5  6  2  0  0  0  0
  5  7  1  0  0  0  0
  7  8  1  0  0  0  0
  7  9  1  0  0  0  0
  9 10  1  0  0  0  0
  9 11  1  0  0  0  0
  9 18  1  0  0  0  0
 11 12  1  0  0  0  0
 11 13  1  0  0  0  0
 11 14  1  0  0  0  0
 14 15  2  0  0  0  0
 14 16  1  0  0  0  0
 16 17  1  0  0  0  0
 18 19  2  0  0  0  0
 18 20  1  0  0  0  0
 20 21  1  0  0  0  0
 20 22  1  0  0  0  0
 22 23  1  0  0  0  0
 22 24  1  0  0  0  0
 22 25  1  0  0  0  0
M  END
$$$$

  -OEChem-03222214023D

 25 24  0     1  0  0  0  0  0999 V2000
   -2.7029   -4.0539    0.5275 H   0  0  0  0  0  0  0  0  0  0  0  0
   -2.7624   -3.0102    0.2069 C   0  0  0  0  0  0  0  0  0  0  0  0
   -3.4389   -2.4735    0.8764 H   0  0  0  0  0  0  0  0  0  0  0  0
   -3.1628   -2.9753   -0.8092 H   0  0  0  0  0  0  0  0  0  0  0  0
   -1.3870   -2.3719    0.2422 C   0  0  0  0  0  0  0  0  0  0  0  0
   -0.4165   -3.0217    0.5988 O   0  0  0  0  0  0  0  0  0  0  0  0
   -1.2329   -1.0551   -0.1354 N   0  0  0  0  0  0  0  0  0  0  0  0
   -2.0572   -0.5598   -0.4781 H   0  0  0  0  0  0  0  0  0  0  0  0
    0.0490   -0.3430   -0.2166 C   0  0  1  0  0  0  0  0  0  0  0  0
    0.8073   -0.8841    0.3590 H   0  0  0  0  0  0  0  0  0  0  0  0
    0.5615   -0.1944   -1.6751 C   0  0  0  0  0  0  0  0  0  0  0  0
    0.9717    0.8084   -1.8222 H   0  0  0  0  0  0  0  0  0  0  0  0
    1.3840   -0.9035   -1.8049 H   0  0  0  0  0  0  0  0  0  0  0  0
   -0.4283   -0.4511   -2.8153 C   0  0  0  0  0  0  0  0  0  0  0  0
    0.0432   -0.8833   -3.8514 O   0  0  0  0  0  0  0  0  0  0  0  0
   -1.7279   -0.0878   -2.6991 O   0  0  0  0  0  0  0  0  0  0  0  0
   -2.1119   -0.2516   -3.5741 H   0  0  0  0  0  0  0  0  0  0  0  0
   -0.0862    1.0509    0.4300 C   0  0  0  0  0  0  0  0  0  0  0  0
   -1.0419    1.7672    0.1608 O   0  0  0  0  0  0  0  0  0  0  0  0
    0.8891    1.5195    1.2913 N   0  0  0  0  0  0  0  0  0  0  0  0
    1.6415    0.8850    1.5439 H   0  0  0  0  0  0  0  0  0  0  0  0
    0.8182    2.8219    1.9437 C   0  0  0  0  0  0  0  0  0  0  0  0
   -0.0760    2.8881    2.5726 H   0  0  0  0  0  0  0  0  0  0  0  0
    1.6979    2.9773    2.5758 H   0  0  0  0  0  0  0  0  0  0  0  0
    0.7840    3.6227    1.1975 H   0  0  0  0  0  0  0  0  0  0  0  0
  1  2  1  0  0  0  0
  2  3  1  0  0  0  0
  2  4  1  0  0  0  0
  2  5  1  0  0  0  0
  5  6  2  0  0  0  0
  5  7  1  0  0  0  0
  7  8  1  0  0  0  0
  7  9  1  0  0  0  0
  9 10  1  0  0  0  0
  9 11  1  0  0  0  0
  9 18  1  0  0  0  0
 11 12  1  0  0  0  0
 11 13  1  0  0  0  0
 11 14  1  0  0  0  0
 14 15  2  0  0  0  0
 14 16  1  0  0  0  0
 16 17  1  0  0  0  0
 18 19  2  0  0  0  0
 18 20  1  0  0  0  0
 20 21  1  0  0  0  0
 20 22  1  0  0  0  0
 22 23  1  0  0  0  0
 22 24  1  0  0  0  0
 22 25  1  0  0  0  0
M  END
$$$$

  -OEChem-03222214023D

 25 24  0     1  0  0  0  0  0999 V2000
   -2.7142   -4.0243    0.5089 H   0  0  0  0  0  0  0  0  0  0  0  0
   -2.7696   -2.9807    0.1871 C   0  0  0  0  0  0  0  0  0  0  0  0
   -3.4311   -2.4366    0.8655 H   0  0  0  0  0  0  0  0  0  0  0  0
   -3.1848   -2.9453   -0.8230 H   0  0  0  0  0  0  0  0  0  0  0  0
   -1.3877   -2.3557    0.2008 C   0  0  0  0  0  0  0  0  0  0  0  0
   -0.4187   -3.0155    0.5429 O   0  0  0  0  0  0  0  0  0  0  0  0
   -1.2257   -1.0382   -0.1724 N   0  0  0  0  0  0  0  0  0  0  0  0
   -2.0564   -0.5145   -0.4502 H   0  0  0  0  0  0  0  0  0  0  0  0
    0.0603   -0.3296   -0.2365 C   0  0  1  0  0  0  0  0  0  0  0  0
    0.8088   -0.8742    0.3484 H   0  0  0  0  0  0  0  0  0  0  0  0
    0.5877   -0.1934   -1.6885 C   0  0  0  0  0  0  0  0  0  0  0  0
    0.9965    0.8083   -1.8459 H   0  0  0  0  0  0  0  0  0  0  0  0
    1.4102   -0.9036   -1.8118 H   0  0  0  0  0  0  0  0  0  0  0  0
   -0.4193   -0.4637   -2.8067 C   0  0  0  0  0  0  0  0  0  0  0  0
   -0.0509   -1.1601   -3.7353 O   0  0  0  0  0  0  0  0  0  0  0  0
   -1.6308    0.1379   -2.7743 O   0  0  0  0  0  0  0  0  0  0  0  0
   -2.0581   -0.1092   -3.6083 H   0  0  0  0  0  0  0  0  0  0  0  0
   -0.0751    1.0639    0.4106 C   0  0  0  0  0  0  0  0  0  0  0  0
   -1.0446    1.7693    0.1629 O   0  0  0  0  0  0  0  0  0  0  0  0
    0.8929    1.5266    1.2834 N   0  0  0  0  0  0  0  0  0  0  0  0
    1.6495    0.8943    1.5289 H   0  0  0  0  0  0  0  0  0  0  0  0
    0.8017    2.8123    1.9657 C   0  0  0  0  0  0  0  0  0  0  0  0
   -0.0836    2.8421    2.6096 H   0  0  0  0  0  0  0  0  0  0  0  0
    1.6877    2.9750    2.5870 H   0  0  0  0  0  0  0  0  0  0  0  0
    0.7358    3.6287    1.2386 H   0  0  0  0  0  0  0  0  0  0  0  0
  1  2  1  0  0  0  0
  2  3  1  0  0  0  0
  2  4  1  0  0  0  0
  2  5  1  0  0  0  0
  5  6  2  0  0  0  0
  5  7  1  0  0  0  0
  7  8  1  0  0  0  0
  7  9  1  0  0  0  0
  9 10  1  0  0  0  0
  9 11  1  0  0  0  0
  9 18  1  0  0  0  0
 11 12  1  0  0  0  0
 11 13  1  0  0  0  0
 11 14  1  0  0  0  0
 14 15  2  0  0  0  0
 14 16  1  0  0  0  0
 16 17  1  0  0  0  0
 18 19  2  0  0  0  0
 18 20  1  0  0  0  0
 20 21  1  0  0  0  0
 20 22  1  0  0  0  0
 22 23  1  0  0  0  0
 22 24  1  0  0  0  0
 22 25  1  0  0  0  0
M  END
$$$$

  -OEChem-03222214023D

 25 24  0     1  0  0  0  0  0999 V2000
   -2.7227   -4.0055    0.4991 H   0  0  0  0  0  0  0  0  0  0  0  0
   -2.7736   -2.9623    0.1749 C   0  0  0  0  0  0  0  0  0  0  0  0
   -3.4226   -2.4113    0.8597 H   0  0  0  0  0  0  0  0  0  0  0  0
   -3.2010   -2.9267   -0.8301 H   0  0  0  0  0  0  0  0  0  0  0  0
   -1.3865   -2.3486    0.1683 C   0  0  0  0  0  0  0  0  0  0  0  0
   -0.4186   -3.0169    0.4963 O   0  0  0  0  0  0  0  0  0  0  0  0
   -1.2197   -1.0300   -0.2007 N   0  0  0  0  0  0  0  0  0  0  0  0
   -2.0547   -0.4857   -0.4177 H   0  0  0  0  0  0  0  0  0  0  0  0
    0.0700   -0.3251   -0.2507 C   0  0  1  0  0  0  0  0  0  0  0  0
    0.8113   -0.8729    0.3406 H   0  0  0  0  0  0  0  0  0  0  0  0
    0.6100   -0.1919   -1.6972 C   0  0  0  0  0  0  0  0  0  0  0  0
    1.0198    0.8089   -1.8573 H   0  0  0  0  0  0  0  0  0  0  0  0
    1.4314   -0.9036   -1.8205 H   0  0  0  0  0  0  0  0  0  0  0  0
   -0.4068   -0.4646   -2.8023 C   0  0  0  0  0  0  0  0  0  0  0  0
   -0.1775   -1.3704   -3.5834 O   0  0  0  0  0  0  0  0  0  0  0  0
   -1.4887    0.3387   -2.9009 O   0  0  0  0  0  0  0  0  0  0  0  0
   -1.9647    0.0303   -3.6862 H   0  0  0  0  0  0  0  0  0  0  0  0
   -0.0695    1.0666    0.3987 C   0  0  0  0  0  0  0  0  0  0  0  0
   -1.0482    1.7626    0.1613 O   0  0  0  0  0  0  0  0  0  0  0  0
    0.8893    1.5271    1.2825 N   0  0  0  0  0  0  0  0  0  0  0  0
    1.6536    0.9014    1.5205 H   0  0  0  0  0  0  0  0  0  0  0  0
    0.7874    2.8080    1.9721 C   0  0  0  0  0  0  0  0  0  0  0  0
   -0.1094    2.8352    2.6001 H   0  0  0  0  0  0  0  0  0  0  0  0
    1.6618    2.9655    2.6107 H   0  0  0  0  0  0  0  0  0  0  0  0
    0.7358    3.6290    1.2492 H   0  0  0  0  0  0  0  0  0  0  0  0
  1  2  1  0  0  0  0
  2  3  1  0  0  0  0
  2  4  1  0  0  0  0
  2  5  1  0  0  0  0
  5  6  2  0  0  0  0
  5  7  1  0  0  0  0
  7  8  1  0  0  0  0
  7  9  1  0  0  0  0
  9 10  1  0  0  0  0
  9 11  1  0  0  0  0
  9 18  1  0  0  0  0
 11 12  1  0  0  0  0
 11 13  1  0  0  0  0
 11 14  1  0  0  0  0
 14 15  2  0  0  0  0
 14 16  1  0  0  0  0
 16 17  1  0  0  0  0
 18 19  2  0  0  0  0
 18 20  1  0  0  0  0
 20 21  1  0  0  0  0
 20 22  1  0  0  0  0
 22 23  1  0  0  0  0
 22 24  1  0  0  0  0
 22 25  1  0  0  0  0
M  END
$$$$

  -OEChem-03222214023D

 25 24  0     1  0  0  0  0  0999 V2000
   -2.7258   -3.9929    0.4910 H   0  0  0  0  0  0  0  0  0  0  0  0
   -2.7734   -2.9509    0.1625 C   0  0  0  0  0  0  0  0  0  0  0  0
   -3.4218   -2.3953    0.8441 H   0  0  0  0  0  0  0  0  0  0  0  0
   -3.1989   -2.9180   -0.8434 H   0  0  0  0  0  0  0  0  0  0  0  0
   -1.3846   -2.3414    0.1552 C   0  0  0  0  0  0  0  0  0  0  0  0
   -0.4195   -3.0097    0.4920 O   0  0  0  0  0  0  0  0  0  0  0  0
   -1.2152   -1.0232   -0.2152 N   0  0  0  0  0  0  0  0  0  0  0  0
   -2.0509   -0.4722   -0.4105 H   0  0  0  0  0  0  0  0  0  0  0  0
    0.0777   -0.3234   -0.2591 C   0  0  1  0  0  0  0  0  0  0  0  0
    0.8147   -0.8720    0.3368 H   0  0  0  0  0  0  0  0  0  0  0  0
    0.6241   -0.1934   -1.7029 C   0  0  0  0  0  0  0  0  0  0  0  0
    1.0410    0.8044   -1.8640 H   0  0  0  0  0  0  0  0  0  0  0  0
    1.4398   -0.9111   -1.8269 H   0  0  0  0  0  0  0  0  0  0  0  0
   -0.3979   -0.4646   -2.8019 C   0  0  0  0  0  0  0  0  0  0  0  0
   -0.3377   -1.5203   -3.4066 O   0  0  0  0  0  0  0  0  0  0  0  0
   -1.3092    0.4935   -3.0753 O   0  0  0  0  0  0  0  0  0  0  0  0
   -1.8384    0.1435   -3.8073 H   0  0  0  0  0  0  0  0  0  0  0  0
   -0.0655    1.0684    0.3890 C   0  0  0  0  0  0  0  0  0  0  0  0
   -1.0489    1.7585    0.1527 O   0  0  0  0  0  0  0  0  0  0  0  0
    0.8876    1.5285    1.2791 N   0  0  0  0  0  0  0  0  0  0  0  0
    1.6531    0.9042    1.5175 H   0  0  0  0  0  0  0  0  0  0  0  0
    0.7780    2.8051    1.9753 C   0  0  0  0  0  0  0  0  0  0  0  0
   -0.1231    2.8264    2.5974 H   0  0  0  0  0  0  0  0  0  0  0  0
    1.6479    2.9603    2.6208 H   0  0  0  0  0  0  0  0  0  0  0  0
    0.7295    3.6304    1.2571 H   0  0  0  0  0  0  0  0  0  0  0  0
  1  2  1  0  0  0  0
  2  3  1  0  0  0  0
  2  4  1  0  0  0  0
  2  5  1  0  0  0  0
  5  6  2  0  0  0  0
  5  7  1  0  0  0  0
  7  8  1  0  0  0  0
  7  9  1  0  0  0  0
  9 10  1  0  0  0  0
  9 11  1  0  0  0  0
  9 18  1  0  0  0  0
 11 12  1  0  0  0  0
 11 13  1  0  0  0  0
 11 14  1  0  0  0  0
 14 15  2  0  0  0  0
 14 16  1  0  0  0  0
 16 17  1  0  0  0  0
 18 19  2  0  0  0  0
 18 20  1  0  0  0  0
 20 21  1  0  0  0  0
 20 22  1  0  0  0  0
 22 23  1  0  0  0  0
 22 24  1  0  0  0  0
 22 25  1  0  0  0  0
M  END
$$$$

  -OEChem-03222214023D

 25 24  0     1  0  0  0  0  0999 V2000
   -2.7284   -3.9956    0.4865 H   0  0  0  0  0  0  0  0  0  0  0  0
   -2.7729   -2.9557    0.1510 C   0  0  0  0  0  0  0  0  0  0  0  0
   -3.4354   -2.3983    0.8174 H   0  0  0  0  0  0  0  0  0  0  0  0
   -3.1801   -2.9306   -0.8628 H   0  0  0  0  0  0  0  0  0  0  0  0
   -1.3859   -2.3416    0.1637 C   0  0  0  0  0  0  0  0  0  0  0  0
   -0.4249   -3.0043    0.5238 O   0  0  0  0  0  0  0  0  0  0  0  0
   -1.2150   -1.0244   -0.2105 N   0  0  0  0  0  0  0  0  0  0  0  0
   -2.0497   -0.4778   -0.4186 H   0  0  0  0  0  0  0  0  0  0  0  0
    0.0802   -0.3289   -0.2564 C   0  0  1  0  0  0  0  0  0  0  0  0
    0.8177   -0.8776    0.3387 H   0  0  0  0  0  0  0  0  0  0  0  0
    0.6259   -0.1937   -1.7004 C   0  0  0  0  0  0  0  0  0  0  0  0
    1.0521    0.8014   -1.8554 H   0  0  0  0  0  0  0  0  0  0  0  0
    1.4355   -0.9169   -1.8310 H   0  0  0  0  0  0  0  0  0  0  0  0
   -0.3947   -0.4549   -2.8026 C   0  0  0  0  0  0  0  0  0  0  0  0
   -0.5273   -1.5896   -3.2265 O   0  0  0  0  0  0  0  0  0  0  0  0
   -1.0922    0.5989   -3.2777 O   0  0  0  0  0  0  0  0  0  0  0  0
   -1.6676    0.2366   -3.9678 H   0  0  0  0  0  0  0  0  0  0  0  0
   -0.0639    1.0637    0.3888 C   0  0  0  0  0  0  0  0  0  0  0  0
   -1.0421    1.7564    0.1378 O   0  0  0  0  0  0  0  0  0  0  0  0
    0.8869    1.5269    1.2797 N   0  0  0  0  0  0  0  0  0  0  0  0
    1.6480    0.9010    1.5276 H   0  0  0  0  0  0  0  0  0  0  0  0
    0.7777    2.8083    1.9667 C   0  0  0  0  0  0  0  0  0  0  0  0
   -0.1163    2.8293    2.5988 H   0  0  0  0  0  0  0  0  0  0  0  0
    1.6542    2.9738    2.6006 H   0  0  0  0  0  0  0  0  0  0  0  0
    0.7163    3.6277    1.2426 H   0  0  0  0  0  0  0  0  0  0  0  0
  1  2  1  0  0  0  0
  2  3  1  0  0  0  0
  2  4  1  0  0  0  0
  2  5  1  0  0  0  0
  5  6  2  0  0  0  0
  5  7  1  0  0  0  0
  7  8  1  0  0  0  0
  7  9  1  0  0  0  0
  9 10  1  0  0  0  0
  9 11  1  0  0  0  0
  9 18  1  0  0  0  0
 11 12  1  0  0  0  0
 11 13  1  0  0  0  0
 11 14  1  0  0  0  0
 14 15  2  0  0  0  0
 14 16  1  0  0  0  0
 16 17  1  0  0  0  0
 18 19  2  0  0  0  0
 18 20  1  0  0  0  0
 20 21  1  0  0  0  0
 20 22  1  0  0  0  0
 22 23  1  0  0  0  0
 22 24  1  0  0  0  0
 22 25  1  0  0  0  0
M  END
$$$$

  -OEChem-03222214023D

 25 24  0     1  0  0  0  0  0999 V2000
   -2.7258   -4.0099    0.4807 H   0  0  0  0  0  0  0  0  0  0  0  0
   -2.7704   -2.9719    0.1397 C   0  0  0  0  0  0  0  0  0  0  0  0
   -3.4573   -2.4175    0.7834 H   0  0  0  0  0  0  0  0  0  0  0  0
   -3.1470   -2.9541   -0.8861 H   0  0  0  0  0  0  0  0  0  0  0  0
   -1.3901   -2.3451    0.1905 C   0  0  0  0  0  0  0  0  0  0  0  0
   -0.4342   -2.9970    0.5830 O   0  0  0  0  0  0  0  0  0  0  0  0
   -1.2203   -1.0292   -0.1888 N   0  0  0  0  0  0  0  0  0  0  0  0
   -2.0519   -0.4994   -0.4449 H   0  0  0  0  0  0  0  0  0  0  0  0
    0.0754   -0.3364   -0.2457 C   0  0  1  0  0  0  0  0  0  0  0  0
    0.8168   -0.8847    0.3448 H   0  0  0  0  0  0  0  0  0  0  0  0
    0.6153   -0.1935   -1.6933 C   0  0  0  0  0  0  0  0  0  0  0  0
    1.0500    0.7996   -1.8387 H   0  0  0  0  0  0  0  0  0  0  0  0
    1.4205   -0.9201   -1.8297 H   0  0  0  0  0  0  0  0  0  0  0  0
   -0.3948   -0.4424   -2.8100 C   0  0  0  0  0  0  0  0  0  0  0  0
   -0.7357   -1.5845   -3.0667 O   0  0  0  0  0  0  0  0  0  0  0  0
   -0.8521    0.6340   -3.4847 O   0  0  0  0  0  0  0  0  0  0  0  0
   -1.4705    0.2817   -4.1422 H   0  0  0  0  0  0  0  0  0  0  0  0
   -0.0665    1.0574    0.3973 C   0  0  0  0  0  0  0  0  0  0  0  0
   -1.0340    1.7583    0.1270 O   0  0  0  0  0  0  0  0  0  0  0  0
    0.8876    1.5252    1.2822 N   0  0  0  0  0  0  0  0  0  0  0  0
    1.6411    0.8949    1.5424 H   0  0  0  0  0  0  0  0  0  0  0  0
    0.7881    2.8171    1.9515 C   0  0  0  0  0  0  0  0  0  0  0  0
   -0.1019    2.8508    2.5887 H   0  0  0  0  0  0  0  0  0  0  0  0
    1.6693    2.9881    2.5775 H   0  0  0  0  0  0  0  0  0  0  0  0
    0.7261    3.6262    1.2159 H   0  0  0  0  0  0  0  0  0  0  0  0
  1  2  1  0  0  0  0
  2  3  1  0  0  0  0
  2  4  1  0  0  0  0
  2  5  1  0  0  0  0
  5  6  2  0  0  0  0
  5  7  1  0  0  0  0
  7  8  1  0  0  0  0
  7  9  1  0  0  0  0
  9 10  1  0  0  0  0
  9 11  1  0  0  0  0
  9 18  1  0  0  0  0
 11 12  1  0  0  0  0
 11 13  1  0  0  0  0
 11 14  1  0  0  0  0
 14 15  2  0  0  0  0
 14 16  1  0  0  0  0
 16 17  1  0  0  0  0
 18 19  2  0  0  0  0
 18 20  1  0  0  0  0
 20 21  1  0  0  0  0
 20 22  1  0  0  0  0
 22 23  1  0  0  0  0
 22 24  1  0  0  0  0
 22 25  1  0  0  0  0
M  END
$$$$

  -OEChem-03222214023D

 25 24  0     1  0  0  0  0  0999 V2000
   -2.7156   -4.0328    0.4815 H   0  0  0  0  0  0  0  0  0  0  0  0
   -2.7662   -2.9950    0.1412 C   0  0  0  0  0  0  0  0  0  0  0  0
   -3.4796   -2.4521    0.7655 H   0  0  0  0  0  0  0  0  0  0  0  0
   -3.1128   -2.9811   -0.8952 H   0  0  0  0  0  0  0  0  0  0  0  0
   -1.3977   -2.3478    0.2324 C   0  0  0  0  0  0  0  0  0  0  0  0
   -0.4442   -2.9850    0.6549 O   0  0  0  0  0  0  0  0  0  0  0  0
   -1.2339   -1.0337   -0.1546 N   0  0  0  0  0  0  0  0  0  0  0  0
   -2.0581   -0.5346   -0.4841 H   0  0  0  0  0  0  0  0  0  0  0  0
    0.0612   -0.3436   -0.2325 C   0  0  1  0  0  0  0  0  0  0  0  0
    0.8095   -0.8894    0.3513 H   0  0  0  0  0  0  0  0  0  0  0  0
    0.5928   -0.1935   -1.6853 C   0  0  0  0  0  0  0  0  0  0  0  0
    1.0352    0.7981   -1.8183 H   0  0  0  0  0  0  0  0  0  0  0  0
    1.3962   -0.9211   -1.8243 H   0  0  0  0  0  0  0  0  0  0  0  0
   -0.3971   -0.4284   -2.8272 C   0  0  0  0  0  0  0  0  0  0  0  0
   -0.9545   -1.5064   -2.9492 O   0  0  0  0  0  0  0  0  0  0  0  0
   -0.5890    0.5984   -3.6829 O   0  0  0  0  0  0  0  0  0  0  0  0
   -1.2392    0.2774   -4.3259 H   0  0  0  0  0  0  0  0  0  0  0  0
   -0.0749    1.0518    0.4081 C   0  0  0  0  0  0  0  0  0  0  0  0
   -1.0296    1.7638    0.1215 O   0  0  0  0  0  0  0  0  0  0  0  0
    0.8894    1.5235    1.2798 N   0  0  0  0  0  0  0  0  0  0  0  0
    1.6337    0.8868    1.5504 H   0  0  0  0  0  0  0  0  0  0  0  0
    0.8047    2.8246    1.9328 C   0  0  0  0  0  0  0  0  0  0  0  0
   -0.0866    2.8781    2.5666 H   0  0  0  0  0  0  0  0  0  0  0  0
    1.6859    2.9919    2.5594 H   0  0  0  0  0  0  0  0  0  0  0  0
    0.7555    3.6253    1.1872 H   0  0  0  0  0  0  0  0  0  0  0  0
  1  2  1  0  0  0  0
  2  3  1  0  0  0  0
  2  4  1  0  0  0  0
  2  5  1  0  0  0  0
  5  6  2  0  0  0  0
  5  7  1  0  0  0  0
  7  8  1  0  0  0  0
  7  9  1  0  0  0  0
  9 10  1  0  0  0  0
  9 11  1  0  0  0  0
  9 18  1  0  0  0  0
 11 12  1  0  0  0  0
 11 13  1  0  0  0  0
 11 14  1  0  0  0  0
 14 15  2  0  0  0  0
 14 16  1  0  0  0  0
 16 17  1  0  0  0  0
 18 19  2  0  0  0  0
 18 20  1  0  0  0  0
 20 21  1  0  0  0  0
 20 22  1  0  0  0  0
 22 23  1  0  0  0  0
 22 24  1  0  0  0  0
 22 25  1  0  0  0  0
M  END
$$$$

  -OEChem-03222214023D

 25 24  0     1  0  0  0  0  0999 V2000
   -2.7041   -4.0590    0.4884 H   0  0  0  0  0  0  0  0  0  0  0  0
   -2.7632   -3.0197    0.1536 C   0  0  0  0  0  0  0  0  0  0  0  0
   -3.4955   -2.4909    0.7681 H   0  0  0  0  0  0  0  0  0  0  0  0
   -3.0909   -3.0033   -0.8890 H   0  0  0  0  0  0  0  0  0  0  0  0
   -1.4065   -2.3528    0.2746 C   0  0  0  0  0  0  0  0  0  0  0  0
   -0.4545   -2.9751    0.7222 O   0  0  0  0  0  0  0  0  0  0  0  0
   -1.2513   -1.0401   -0.1196 N   0  0  0  0  0  0  0  0  0  0  0  0
   -2.0622   -0.5807   -0.5303 H   0  0  0  0  0  0  0  0  0  0  0  0
    0.0427   -0.3521   -0.2185 C   0  0  1  0  0  0  0  0  0  0  0  0
    0.7990   -0.8960    0.3570 H   0  0  0  0  0  0  0  0  0  0  0  0
    0.5644   -0.1925   -1.6773 C   0  0  0  0  0  0  0  0  0  0  0  0
    1.0123    0.7985   -1.7972 H   0  0  0  0  0  0  0  0  0  0  0  0
    1.3671   -0.9200   -1.8189 H   0  0  0  0  0  0  0  0  0  0  0  0
   -0.4019   -0.4099   -2.8471 C   0  0  0  0  0  0  0  0  0  0  0  0
   -1.1677   -1.3588   -2.8740 O   0  0  0  0  0  0  0  0  0  0  0  0
   -0.3240    0.4926   -3.8486 O   0  0  0  0  0  0  0  0  0  0  0  0
   -0.9913    0.2148   -4.4945 H   0  0  0  0  0  0  0  0  0  0  0  0
   -0.0868    1.0450    0.4206 C   0  0  0  0  0  0  0  0  0  0  0  0
   -1.0252    1.7710    0.1157 O   0  0  0  0  0  0  0  0  0  0  0  0
    0.8888    1.5190    1.2785 N   0  0  0  0  0  0  0  0  0  0  0  0
    1.6208    0.8741    1.5630 H   0  0  0  0  0  0  0  0  0  0  0  0
    0.8243    2.8317    1.9103 C   0  0  0  0  0  0  0  0  0  0  0  0
   -0.0679    2.9106    2.5405 H   0  0  0  0  0  0  0  0  0  0  0  0
    1.7065    2.9940    2.5371 H   0  0  0  0  0  0  0  0  0  0  0  0
    0.7908    3.6207    1.1517 H   0  0  0  0  0  0  0  0  0  0  0  0
  1  2  1  0  0  0  0
  2  3  1  0  0  0  0
  2  4  1  0  0  0  0
  2  5  1  0  0  0  0
  5  6  2  0  0  0  0
  5  7  1  0  0  0  0
  7  8  1  0  0  0  0
  7  9  1  0  0  0  0
  9 10  1  0  0  0  0
  9 11  1  0  0  0  0
  9 18  1  0  0  0  0
 11 12  1  0  0  0  0
 11 13  1  0  0  0  0
 11 14  1  0  0  0  0
 14 15  2  0  0  0  0
 14 16  1  0  0  0  0
 16 17  1  0  0  0  0
 18 19  2  0  0  0  0
 18 20  1  0  0  0  0
 20 21  1  0  0  0  0
 20 22  1  0  0  0  0
 22 23  1  0  0  0  0
 22 24  1  0  0  0  0
 22 25  1  0  0  0  0
M  END
$$$$

  -OEChem-03222214023D

 25 24  0     1  0  0  0  0  0999 V2000
   -2.6960   -4.0759    0.4879 H   0  0  0  0  0  0  0  0  0  0  0  0
   -2.7617   -3.0353    0.1590 C   0  0  0  0  0  0  0  0  0  0  0  0
   -3.5108   -2.5196    0.7643 H   0  0  0  0  0  0  0  0  0  0  0  0
   -3.0725   -3.0154   -0.8886 H   0  0  0  0  0  0  0  0  0  0  0  0
   -1.4154   -2.3531    0.3076 C   0  0  0  0  0  0  0  0  0  0  0  0
   -0.4649   -2.9649    0.7731 O   0  0  0  0  0  0  0  0  0  0  0  0
   -1.2666   -1.0418   -0.0929 N   0  0  0  0  0  0  0  0  0  0  0  0
   -2.0626   -0.6170   -0.5666 H   0  0  0  0  0  0  0  0  0  0  0  0
    0.0261   -0.3548   -0.2072 C   0  0  1  0  0  0  0  0  0  0  0  0
    0.7871   -0.8969    0.3634 H   0  0  0  0  0  0  0  0  0  0  0  0
    0.5409   -0.1941   -1.6705 C   0  0  0  0  0  0  0  0  0  0  0  0
    0.9892    0.7972   -1.7858 H   0  0  0  0  0  0  0  0  0  0  0  0
    1.3454   -0.9202   -1.8097 H   0  0  0  0  0  0  0  0  0  0  0  0
   -0.4065   -0.4034   -2.8603 C   0  0  0  0  0  0  0  0  0  0  0  0
   -1.3538   -1.1705   -2.8168 O   0  0  0  0  0  0  0  0  0  0  0  0
   -0.0950    0.3028   -3.9685 O   0  0  0  0  0  0  0  0  0  0  0  0
   -0.7765    0.0695   -4.6175 H   0  0  0  0  0  0  0  0  0  0  0  0
   -0.0952    1.0450    0.4284 C   0  0  0  0  0  0  0  0  0  0  0  0
   -1.0236    1.7808    0.1170 O   0  0  0  0  0  0  0  0  0  0  0  0
    0.8915    1.5182    1.2740 N   0  0  0  0  0  0  0  0  0  0  0  0
    1.6176    0.8679    1.5608 H   0  0  0  0  0  0  0  0  0  0  0  0
    0.8428    2.8360    1.8963 C   0  0  0  0  0  0  0  0  0  0  0  0
   -0.0444    2.9277    2.5316 H   0  0  0  0  0  0  0  0  0  0  0  0
    1.7304    2.9949    2.5159 H   0  0  0  0  0  0  0  0  0  0  0  0
    0.8114    3.6198    1.1321 H   0  0  0  0  0  0  0  0  0  0  0  0
  1  2  1  0  0  0  0
  2  3  1  0  0  0  0
  2  4  1  0  0  0  0
  2  5  1  0  0  0  0
  5  6  2  0  0  0  0
  5  7  1  0  0  0  0
  7  8  1  0  0  0  0
  7  9  1  0  0  0  0
  9 10  1  0  0  0  0
  9 11  1  0  0  0  0
  9 18  1  0  0  0  0
 11 12  1  0  0  0  0
 11 13  1  0  0  0  0
 11 14  1  0  0  0  0
 14 15  2  0  0  0  0
 14 16  1  0  0  0  0
 16 17  1  0  0  0  0
 18 19  2  0  0  0  0
 18 20  1  0  0  0  0
 20 21  1  0  0  0  0
 20 22  1  0  0  0  0
 22 23  1  0  0  0  0
 22 24  1  0  0  0  0
 22 25  1  0  0  0  0
M  END
$$$$

  -OEChem-03222214023D

 25 24  0     1  0  0  0  0  0999 V2000
   -2.6973   -4.0825    0.4844 H   0  0  0  0  0  0  0  0  0  0  0  0
   -2.7651   -3.0388    0.1655 C   0  0  0  0  0  0  0  0  0  0  0  0
   -3.5129   -2.5293    0.7780 H   0  0  0  0  0  0  0  0  0  0  0  0
   -3.0796   -3.0091   -0.8809 H   0  0  0  0  0  0  0  0  0  0  0  0
   -1.4195   -2.3553    0.3173 C   0  0  0  0  0  0  0  0  0  0  0  0
   -0.4687   -2.9675    0.7810 O   0  0  0  0  0  0  0  0  0  0  0  0
   -1.2716   -1.0445   -0.0837 N   0  0  0  0  0  0  0  0  0  0  0  0
   -2.0592   -0.6339   -0.5850 H   0  0  0  0  0  0  0  0  0  0  0  0
    0.0191   -0.3550   -0.2019 C   0  0  1  0  0  0  0  0  0  0  0  0
    0.7821   -0.8964    0.3668 H   0  0  0  0  0  0  0  0  0  0  0  0
    0.5297   -0.1960   -1.6679 C   0  0  0  0  0  0  0  0  0  0  0  0
    0.9760    0.7960   -1.7851 H   0  0  0  0  0  0  0  0  0  0  0  0
    1.3364   -0.9204   -1.8024 H   0  0  0  0  0  0  0  0  0  0  0  0
   -0.4063   -0.4056   -2.8683 C   0  0  0  0  0  0  0  0  0  0  0  0
   -1.4928   -0.9527   -2.7782 O   0  0  0  0  0  0  0  0  0  0  0  0
    0.0801    0.0482   -4.0434 O   0  0  0  0  0  0  0  0  0  0  0  0
   -0.6119   -0.1448   -4.6946 H   0  0  0  0  0  0  0  0  0  0  0  0
   -0.0985    1.0459    0.4326 C   0  0  0  0  0  0  0  0  0  0  0  0
   -1.0215    1.7872    0.1185 O   0  0  0  0  0  0  0  0  0  0  0  0
    0.8930    1.5180    1.2737 N   0  0  0  0  0  0  0  0  0  0  0  0
    1.6158    0.8649    1.5628 H   0  0  0  0  0  0  0  0  0  0  0  0
    0.8520    2.8382    1.8918 C   0  0  0  0  0  0  0  0  0  0  0  0
   -0.0374    2.9388    2.5226 H   0  0  0  0  0  0  0  0  0  0  0  0
    1.7380    2.9916    2.5154 H   0  0  0  0  0  0  0  0  0  0  0  0
    0.8306    3.6199    1.1251 H   0  0  0  0  0  0  0  0  0  0  0  0
  1  2  1  0  0  0  0
  2  3  1  0  0  0  0
  2  4  1  0  0  0  0
  2  5  1  0  0  0  0
  5  6  2  0  0  0  0
  5  7  1  0  0  0  0
  7  8  1  0  0  0  0
  7  9  1  0  0  0  0
  9 10  1  0  0  0  0
  9 11  1  0  0  0  0
  9 18  1  0  0  0  0
 11 12  1  0  0  0  0
 11 13  1  0  0  0  0
 11 14  1  0  0  0  0
 14 15  2  0  0  0  0
 14 16  1  0  0  0  0
 16 17  1  0  0  0  0
 18 19  2  0  0  0  0
 18 20  1  0  0  0  0
 20 21  1  0  0  0  0
 20 22  1  0  0  0  0
 22 23  1  0  0  0  0
 22 24  1  0  0  0  0
 22 25  1  0  0  0  0
M  END
$$$$

  -OEChem-03222214023D

 25 24  0     1  0  0  0  0  0999 V2000
   -2.7019   -4.0785    0.4794 H   0  0  0  0  0  0  0  0  0  0  0  0
   -2.7692   -3.0328    0.1673 C   0  0  0  0  0  0  0  0  0  0  0  0
   -3.5083   -2.5241    0.7907 H   0  0  0  0  0  0  0  0  0  0  0  0
   -3.0952   -2.9955   -0.8752 H   0  0  0  0  0  0  0  0  0  0  0  0
   -1.4198   -2.3554    0.3093 C   0  0  0  0  0  0  0  0  0  0  0  0
   -0.4661   -2.9736    0.7587 O   0  0  0  0  0  0  0  0  0  0  0  0
   -1.2695   -1.0445   -0.0892 N   0  0  0  0  0  0  0  0  0  0  0  0
   -2.0570   -0.6277   -0.5876 H   0  0  0  0  0  0  0  0  0  0  0  0
    0.0198   -0.3522   -0.2020 C   0  0  1  0  0  0  0  0  0  0  0  0
    0.7805   -0.8939    0.3695 H   0  0  0  0  0  0  0  0  0  0  0  0
    0.5323   -0.1991   -1.6673 C   0  0  0  0  0  0  0  0  0  0  0  0
    0.9779    0.7921   -1.7910 H   0  0  0  0  0  0  0  0  0  0  0  0
    1.3393   -0.9249   -1.7946 H   0  0  0  0  0  0  0  0  0  0  0  0
   -0.4016   -0.4166   -2.8679 C   0  0  0  0  0  0  0  0  0  0  0  0
   -1.5787   -0.7157   -2.7519 O   0  0  0  0  0  0  0  0  0  0  0  0
    0.1889   -0.2547   -4.0715 O   0  0  0  0  0  0  0  0  0  0  0  0
   -0.5144   -0.4111   -4.7206 H   0  0  0  0  0  0  0  0  0  0  0  0
   -0.0967    1.0491    0.4320 C   0  0  0  0  0  0  0  0  0  0  0  0
   -1.0167    1.7934    0.1173 O   0  0  0  0  0  0  0  0  0  0  0  0
    0.8944    1.5188    1.2749 N   0  0  0  0  0  0  0  0  0  0  0  0
    1.6125    0.8625    1.5683 H   0  0  0  0  0  0  0  0  0  0  0  0
    0.8520    2.8375    1.8961 C   0  0  0  0  0  0  0  0  0  0  0  0
   -0.0393    2.9372    2.5247 H   0  0  0  0  0  0  0  0  0  0  0  0
    1.7361    2.9895    2.5227 H   0  0  0  0  0  0  0  0  0  0  0  0
    0.8329    3.6210    1.1312 H   0  0  0  0  0  0  0  0  0  0  0  0
  1  2  1  0  0  0  0
  2  3  1  0  0  0  0
  2  4  1  0  0  0  0
  2  5  1  0  0  0  0
  5  6  2  0  0  0  0
  5  7  1  0  0  0  0
  7  8  1  0  0  0  0
  7  9  1  0  0  0  0
  9 10  1  0  0  0  0
  9 11  1  0  0  0  0
  9 18  1  0  0  0  0
 11 12  1  0  0  0  0
 11 13  1  0  0  0  0
 11 14  1  0  0  0  0
 14 15  2  0  0  0  0
 14 16  1  0  0  0  0
 16 17  1  0  0  0  0
 18 19  2  0  0  0  0
 18 20  1  0  0  0  0
 20 21  1  0  0  0  0
 20 22  1  0  0  0  0
 22 23  1  0  0  0  0
 22 24  1  0  0  0  0
 22 25  1  0  0  0  0
M  END
$$$$

  -OEChem-03222214023D

 25 24  0     1  0  0  0  0  0999 V2000
   -2.7141   -4.0704    0.4687 H   0  0  0  0  0  0  0  0  0  0  0  0
   -2.7765   -3.0218    0.1653 C   0  0  0  0  0  0  0  0  0  0  0  0
   -3.4975   -2.5097    0.8070 H   0  0  0  0  0  0  0  0  0  0  0  0
   -3.1227   -2.9732   -0.8703 H   0  0  0  0  0  0  0  0  0  0  0  0
   -1.4171   -2.3598    0.2849 C   0  0  0  0  0  0  0  0  0  0  0  0
   -0.4609   -2.9906    0.7105 O   0  0  0  0  0  0  0  0  0  0  0  0
   -1.2601   -1.0481   -0.1076 N   0  0  0  0  0  0  0  0  0  0  0  0
   -2.0548   -0.6083   -0.5749 H   0  0  0  0  0  0  0  0  0  0  0  0
    0.0272   -0.3492   -0.2046 C   0  0  1  0  0  0  0  0  0  0  0  0
    0.7827   -0.8902    0.3742 H   0  0  0  0  0  0  0  0  0  0  0  0
    0.5489   -0.2027   -1.6653 C   0  0  0  0  0  0  0  0  0  0  0  0
    0.9888    0.7897   -1.7981 H   0  0  0  0  0  0  0  0  0  0  0  0
    1.3597   -0.9260   -1.7833 H   0  0  0  0  0  0  0  0  0  0  0  0
   -0.3902   -0.4363   -2.8573 C   0  0  0  0  0  0  0  0  0  0  0  0
   -1.6042   -0.4756   -2.7404 O   0  0  0  0  0  0  0  0  0  0  0  0
    0.2295   -0.5795   -4.0485 O   0  0  0  0  0  0  0  0  0  0  0  0
   -0.4859   -0.6994   -4.6921 H   0  0  0  0  0  0  0  0  0  0  0  0
   -0.0940    1.0516    0.4294 C   0  0  0  0  0  0  0  0  0  0  0  0
   -1.0191    1.7919    0.1217 O   0  0  0  0  0  0  0  0  0  0  0  0
    0.8902    1.5201    1.2809 N   0  0  0  0  0  0  0  0  0  0  0  0
    1.6172    0.8696    1.5646 H   0  0  0  0  0  0  0  0  0  0  0  0
    0.8443    2.8383    1.9027 C   0  0  0  0  0  0  0  0  0  0  0  0
   -0.0541    2.9392    2.5209 H   0  0  0  0  0  0  0  0  0  0  0  0
    1.7214    2.9875    2.5396 H   0  0  0  0  0  0  0  0  0  0  0  0
    0.8356    3.6223    1.1381 H   0  0  0  0  0  0  0  0  0  0  0  0
  1  2  1  0  0  0  0
  2  3  1  0  0  0  0
  2  4  1  0  0  0  0
  2  5  1  0  0  0  0
  5  6  2  0  0  0  0
  5  7  1  0  0  0  0
  7  8  1  0  0  0  0
  7  9  1  0  0  0  0
  9 10  1  0  0  0  0
  9 11  1  0  0  0  0
  9 18  1  0  0  0  0
 11 12  1  0  0  0  0
 11 13  1  0  0  0  0
 11 14  1  0  0  0  0
 14 15  2  0  0  0  0
 14 16  1  0  0  0  0
 16 17  1  0  0  0  0
 18 19  2  0  0  0  0
 18 20  1  0  0  0  0
 20 21  1  0  0  0  0
 20 22  1  0  0  0  0
 22 23  1  0  0  0  0
 22 24  1  0  0  0  0
 22 25  1  0  0  0  0
M  END
$$$$

  -OEChem-03222214023D

 25 24  0     1  0  0  0  0  0999 V2000
   -2.7213   -4.0516    0.4538 H   0  0  0  0  0  0  0  0  0  0  0  0
   -2.7767   -3.0028    0.1497 C   0  0  0  0  0  0  0  0  0  0  0  0
   -3.4836   -2.4825    0.8005 H   0  0  0  0  0  0  0  0  0  0  0  0
   -3.1369   -2.9526   -0.8809 H   0  0  0  0  0  0  0  0  0  0  0  0
   -1.4094   -2.3539    0.2504 C   0  0  0  0  0  0  0  0  0  0  0  0
   -0.4507   -2.9961    0.6521 O   0  0  0  0  0  0  0  0  0  0  0  0
   -1.2471   -1.0409   -0.1351 N   0  0  0  0  0  0  0  0  0  0  0  0
   -2.0504   -0.5760   -0.5620 H   0  0  0  0  0  0  0  0  0  0  0  0
    0.0382   -0.3350   -0.2132 C   0  0  1  0  0  0  0  0  0  0  0  0
    0.7866   -0.8757    0.3753 H   0  0  0  0  0  0  0  0  0  0  0  0
    0.5715   -0.2067   -1.6688 C   0  0  0  0  0  0  0  0  0  0  0  0
    1.0017    0.7870   -1.8198 H   0  0  0  0  0  0  0  0  0  0  0  0
    1.3877   -0.9263   -1.7743 H   0  0  0  0  0  0  0  0  0  0  0  0
   -0.3832   -0.4697   -2.8393 C   0  0  0  0  0  0  0  0  0  0  0  0
   -1.5797   -0.2475   -2.7517 O   0  0  0  0  0  0  0  0  0  0  0  0
    0.1906   -0.9406   -3.9675 O   0  0  0  0  0  0  0  0  0  0  0  0
   -0.5376   -1.0352   -4.6006 H   0  0  0  0  0  0  0  0  0  0  0  0
   -0.0861    1.0659    0.4208 C   0  0  0  0  0  0  0  0  0  0  0  0
   -1.0233    1.7977    0.1312 O   0  0  0  0  0  0  0  0  0  0  0  0
    0.8918    1.5303    1.2820 N   0  0  0  0  0  0  0  0  0  0  0  0
    1.6251    0.8828    1.5564 H   0  0  0  0  0  0  0  0  0  0  0  0
    0.8313    2.8374    1.9258 C   0  0  0  0  0  0  0  0  0  0  0  0
   -0.0640    2.9159    2.5516 H   0  0  0  0  0  0  0  0  0  0  0  0
    1.7106    2.9886    2.5591 H   0  0  0  0  0  0  0  0  0  0  0  0
    0.8070    3.6339    1.1746 H   0  0  0  0  0  0  0  0  0  0  0  0
  1  2  1  0  0  0  0
  2  3  1  0  0  0  0
  2  4  1  0  0  0  0
  2  5  1  0  0  0  0
  5  6  2  0  0  0  0
  5  7  1  0  0  0  0
  7  8  1  0  0  0  0
  7  9  1  0  0  0  0
  9 10  1  0  0  0  0
  9 11  1  0  0  0  0
  9 18  1  0  0  0  0
 11 12  1  0  0  0  0
 11 13  1  0  0  0  0
 11 14  1  0  0  0  0
 14 15  2  0  0  0  0
 14 16  1  0  0  0  0
 16 17  1  0  0  0  0
 18 19  2  0  0  0  0
 18 20  1  0  0  0  0
 20 21  1  0  0  0  0
 20 22  1  0  0  0  0
 22 23  1  0  0  0  0
 22 24  1  0  0  0  0
 22 25  1  0  0  0  0
M  END
$$$$

  -OEChem-03222214023D

 25 24  0     1  0  0  0  0  0999 V2000
   -2.7270   -4.0317    0.4542 H   0  0  0  0  0  0  0  0  0  0  0  0
   -2.7787   -2.9829    0.1488 C   0  0  0  0  0  0  0  0  0  0  0  0
   -3.4612   -2.4535    0.8179 H   0  0  0  0  0  0  0  0  0  0  0  0
   -3.1669   -2.9310   -0.8714 H   0  0  0  0  0  0  0  0  0  0  0  0
   -1.4012   -2.3507    0.2095 C   0  0  0  0  0  0  0  0  0  0  0  0
   -0.4398   -3.0063    0.5808 O   0  0  0  0  0  0  0  0  0  0  0  0
   -1.2327   -1.0366   -0.1709 N   0  0  0  0  0  0  0  0  0  0  0  0
   -2.0494   -0.5380   -0.5283 H   0  0  0  0  0  0  0  0  0  0  0  0
    0.0529   -0.3271   -0.2276 C   0  0  1  0  0  0  0  0  0  0  0  0
    0.7914   -0.8683    0.3730 H   0  0  0  0  0  0  0  0  0  0  0  0
    0.6032   -0.2130   -1.6749 C   0  0  0  0  0  0  0  0  0  0  0  0
    1.0248    0.7821   -1.8402 H   0  0  0  0  0  0  0  0  0  0  0  0
    1.4235   -0.9290   -1.7716 H   0  0  0  0  0  0  0  0  0  0  0  0
   -0.3694   -0.4995   -2.8208 C   0  0  0  0  0  0  0  0  0  0  0  0
   -1.4952   -0.0309   -2.8085 O   0  0  0  0  0  0  0  0  0  0  0  0
    0.0962   -1.2625   -3.8332 O   0  0  0  0  0  0  0  0  0  0  0  0
   -0.6377   -1.3197   -4.4641 H   0  0  0  0  0  0  0  0  0  0  0  0
   -0.0778    1.0738    0.4051 C   0  0  0  0  0  0  0  0  0  0  0  0
   -1.0314    1.7914    0.1350 O   0  0  0  0  0  0  0  0  0  0  0  0
    0.8888    1.5367    1.2798 N   0  0  0  0  0  0  0  0  0  0  0  0
    1.6330    0.8974    1.5435 H   0  0  0  0  0  0  0  0  0  0  0  0
    0.8091    2.8336    1.9421 C   0  0  0  0  0  0  0  0  0  0  0  0
   -0.0920    2.8928    2.5617 H   0  0  0  0  0  0  0  0  0  0  0  0
    1.6817    2.9846    2.5851 H   0  0  0  0  0  0  0  0  0  0  0  0
    0.7819    3.6410    1.2026 H   0  0  0  0  0  0  0  0  0  0  0  0
  1  2  1  0  0  0  0
  2  3  1  0  0  0  0
  2  4  1  0  0  0  0
  2  5  1  0  0  0  0
  5  6  2  0  0  0  0
  5  7  1  0  0  0  0
  7  8  1  0  0  0  0
  7  9  1  0  0  0  0
  9 10  1  0  0  0  0
  9 11  1  0  0  0  0
  9 18  1  0  0  0  0
 11 12  1  0  0  0  0
 11 13  1  0  0  0  0
 11 14  1  0  0  0  0
 14 15  2  0  0  0  0
 14 16  1  0  0  0  0
 16 17  1  0  0  0  0
 18 19  2  0  0  0  0
 18 20  1  0  0  0  0
 20 21  1  0  0  0  0
 20 22  1  0  0  0  0
 22 23  1  0  0  0  0
 22 24  1  0  0  0  0
 22 25  1  0  0  0  0
M  END
$$$$

  -OEChem-03222214023D

 25 24  0     1  0  0  0  0  0999 V2000
   -2.7340   -4.0088    0.4709 H   0  0  0  0  0  0  0  0  0  0  0  0
   -2.7816   -2.9614    0.1604 C   0  0  0  0  0  0  0  0  0  0  0  0
   -3.4368   -2.4194    0.8467 H   0  0  0  0  0  0  0  0  0  0  0  0
   -3.2000   -2.9111   -0.8478 H   0  0  0  0  0  0  0  0  0  0  0  0
   -1.3946   -2.3475    0.1757 C   0  0  0  0  0  0  0  0  0  0  0  0
   -0.4309   -3.0147    0.5192 O   0  0  0  0  0  0  0  0  0  0  0  0
   -1.2215   -1.0333   -0.2033 N   0  0  0  0  0  0  0  0  0  0  0  0
   -2.0492   -0.5034   -0.4801 H   0  0  0  0  0  0  0  0  0  0  0  0
    0.0663   -0.3248   -0.2445 C   0  0  1  0  0  0  0  0  0  0  0  0
    0.7963   -0.8653    0.3668 H   0  0  0  0  0  0  0  0  0  0  0  0
    0.6331   -0.2201   -1.6839 C   0  0  0  0  0  0  0  0  0  0  0  0
    1.0511    0.7752   -1.8565 H   0  0  0  0  0  0  0  0  0  0  0  0
    1.4543   -0.9357   -1.7755 H   0  0  0  0  0  0  0  0  0  0  0  0
   -0.3520   -0.5190   -2.8115 C   0  0  0  0  0  0  0  0  0  0  0  0
   -1.3568    0.1603   -2.9257 O   0  0  0  0  0  0  0  0  0  0  0  0
   -0.0417   -1.5247   -3.6584 O   0  0  0  0  0  0  0  0  0  0  0  0
   -0.7665   -1.5460   -4.3015 H   0  0  0  0  0  0  0  0  0  0  0  0
   -0.0725    1.0759    0.3869 C   0  0  0  0  0  0  0  0  0  0  0  0
   -1.0460    1.7749    0.1402 O   0  0  0  0  0  0  0  0  0  0  0  0
    0.8832    1.5388    1.2734 N   0  0  0  0  0  0  0  0  0  0  0  0
    1.6412    0.9100    1.5232 H   0  0  0  0  0  0  0  0  0  0  0  0
    0.7829    2.8248    1.9541 C   0  0  0  0  0  0  0  0  0  0  0  0
   -0.1139    2.8574    2.5818 H   0  0  0  0  0  0  0  0  0  0  0  0
    1.6578    2.9851    2.5915 H   0  0  0  0  0  0  0  0  0  0  0  0
    0.7328    3.6414    1.2260 H   0  0  0  0  0  0  0  0  0  0  0  0
  1  2  1  0  0  0  0
  2  3  1  0  0  0  0
  2  4  1  0  0  0  0
  2  5  1  0  0  0  0
  5  6  2  0  0  0  0
  5  7  1  0  0  0  0
  7  8  1  0  0  0  0
  7  9  1  0  0  0  0
  9 10  1  0  0  0  0
  9 11  1  0  0  0  0
  9 18  1  0  0  0  0
 11 12  1  0  0  0  0
 11 13  1  0  0  0  0
 11 14  1  0  0  0  0
 14 15  2  0  0  0  0
 14 16  1  0  0  0  0
 16 17  1  0  0  0  0
 18 19  2  0  0  0  0
 18 20  1  0  0  0  0
 20 21  1  0  0  0  0
 20 22  1  0  0  0  0
 22 23  1  0  0  0  0
 22 24  1  0  0  0  0
 22 25  1  0  0  0  0
M  END
$$$$

  -OEChem-03222214023D

 25 24  0     1  0  0  0  0  0999 V2000
   -2.7347   -3.9908    0.4940 H   0  0  0  0  0  0  0  0  0  0  0  0
   -2.7803   -2.9452    0.1767 C   0  0  0  0  0  0  0  0  0  0  0  0
   -3.4153   -2.3919    0.8729 H   0  0  0  0  0  0  0  0  0  0  0  0
   -3.2200   -2.8981   -0.8225 H   0  0  0  0  0  0  0  0  0  0  0  0
   -1.3880   -2.3440    0.1569 C   0  0  0  0  0  0  0  0  0  0  0  0
   -0.4230   -3.0190    0.4803 O   0  0  0  0  0  0  0  0  0  0  0  0
   -1.2138   -1.0300   -0.2231 N   0  0  0  0  0  0  0  0  0  0  0  0
   -2.0474   -0.4803   -0.4344 H   0  0  0  0  0  0  0  0  0  0  0  0
    0.0766   -0.3257   -0.2578 C   0  0  1  0  0  0  0  0  0  0  0  0
    0.8014   -0.8668    0.3593 H   0  0  0  0  0  0  0  0  0  0  0  0
    0.6514   -0.2264   -1.6927 C   0  0  0  0  0  0  0  0  0  0  0  0
    1.0710    0.7682   -1.8675 H   0  0  0  0  0  0  0  0  0  0  0  0
    1.4697   -0.9451   -1.7846 H   0  0  0  0  0  0  0  0  0  0  0  0
   -0.3421   -0.5277   -2.8094 C   0  0  0  0  0  0  0  0  0  0  0  0
   -1.1843    0.3058   -3.0886 O   0  0  0  0  0  0  0  0  0  0  0  0
   -0.2277   -1.7087   -3.4556 O   0  0  0  0  0  0  0  0  0  0  0  0
   -0.9289   -1.6998   -4.1245 H   0  0  0  0  0  0  0  0  0  0  0  0
   -0.0688    1.0742    0.3729 C   0  0  0  0  0  0  0  0  0  0  0  0
   -1.0571    1.7573    0.1392 O   0  0  0  0  0  0  0  0  0  0  0  0
    0.8790    1.5393    1.2666 N   0  0  0  0  0  0  0  0  0  0  0  0
    1.6478    0.9199    1.5063 H   0  0  0  0  0  0  0  0  0  0  0  0
    0.7612    2.8161    1.9613 C   0  0  0  0  0  0  0  0  0  0  0  0
   -0.1428    2.8346    2.5791 H   0  0  0  0  0  0  0  0  0  0  0  0
    1.6273    2.9752    2.6108 H   0  0  0  0  0  0  0  0  0  0  0  0
    0.7128    3.6406    1.2421 H   0  0  0  0  0  0  0  0  0  0  0  0
  1  2  1  0  0  0  0
  2  3  1  0  0  0  0
  2  4  1  0  0  0  0
  2  5  1  0  0  0  0
  5  6  2  0  0  0  0
  5  7  1  0  0  0  0
  7  8  1  0  0  0  0
  7  9  1  0  0  0  0
  9 10  1  0  0  0  0
  9 11  1  0  0  0  0
  9 18  1  0  0  0  0
 11 12  1  0  0  0  0
 11 13  1  0  0  0  0
 11 14  1  0  0  0  0
 14 15  2  0  0  0  0
 14 16  1  0  0  0  0
 16 17  1  0  0  0  0
 18 19  2  0  0  0  0
 18 20  1  0  0  0  0
 20 21  1  0  0  0  0
 20 22  1  0  0  0  0
 22 23  1  0  0  0  0
 22 24  1  0  0  0  0
 22 25  1  0  0  0  0
M  END
$$$$

  -OEChem-03222214023D

 25 24  0     1  0  0  0  0  0999 V2000
   -2.7364   -3.9847    0.5257 H   0  0  0  0  0  0  0  0  0  0  0  0
   -2.7817   -2.9423    0.1986 C   0  0  0  0  0  0  0  0  0  0  0  0
   -3.4084   -2.3804    0.8953 H   0  0  0  0  0  0  0  0  0  0  0  0
   -3.2307   -2.9042   -0.7968 H   0  0  0  0  0  0  0  0  0  0  0  0
   -1.3876   -2.3464    0.1592 C   0  0  0  0  0  0  0  0  0  0  0  0
   -0.4222   -3.0228    0.4787 O   0  0  0  0  0  0  0  0  0  0  0  0
   -1.2135   -1.0328   -0.2244 N   0  0  0  0  0  0  0  0  0  0  0  0
   -2.0491   -0.4744   -0.4002 H   0  0  0  0  0  0  0  0  0  0  0  0
    0.0797   -0.3333   -0.2606 C   0  0  1  0  0  0  0  0  0  0  0  0
    0.8045   -0.8743    0.3568 H   0  0  0  0  0  0  0  0  0  0  0  0
    0.6550   -0.2298   -1.6948 C   0  0  0  0  0  0  0  0  0  0  0  0
    1.0829    0.7627   -1.8637 H   0  0  0  0  0  0  0  0  0  0  0  0
    1.4673   -0.9545   -1.7920 H   0  0  0  0  0  0  0  0  0  0  0  0
   -0.3406   -0.5226   -2.8114 C   0  0  0  0  0  0  0  0  0  0  0  0
   -0.9882    0.4002   -3.2699 O   0  0  0  0  0  0  0  0  0  0  0  0
   -0.4348   -1.7910   -3.2677 O   0  0  0  0  0  0  0  0  0  0  0  0
   -1.0917   -1.7548   -3.9792 H   0  0  0  0  0  0  0  0  0  0  0  0
   -0.0689    1.0666    0.3686 C   0  0  0  0  0  0  0  0  0  0  0  0
   -1.0627    1.7424    0.1358 O   0  0  0  0  0  0  0  0  0  0  0  0
    0.8750    1.5356    1.2640 N   0  0  0  0  0  0  0  0  0  0  0  0
    1.6484    0.9213    1.5023 H   0  0  0  0  0  0  0  0  0  0  0  0
    0.7509    2.8125    1.9574 C   0  0  0  0  0  0  0  0  0  0  0  0
   -0.1520    2.8260    2.5770 H   0  0  0  0  0  0  0  0  0  0  0  0
    1.6172    2.9781    2.6050 H   0  0  0  0  0  0  0  0  0  0  0  0
    0.6962    3.6357    1.2372 H   0  0  0  0  0  0  0  0  0  0  0  0
  1  2  1  0  0  0  0
  2  3  1  0  0  0  0
  2  4  1  0  0  0  0
  2  5  1  0  0  0  0
  5  6  2  0  0  0  0
  5  7  1  0  0  0  0
  7  8  1  0  0  0  0
  7  9  1  0  0  0  0
  9 10  1  0  0  0  0
  9 11  1  0  0  0  0
  9 18  1  0  0  0  0
 11 12  1  0  0  0  0
 11 13  1  0  0  0  0
 11 14  1  0  0  0  0
 14 15  2  0  0  0  0
 14 16  1  0  0  0  0
 16 17  1  0  0  0  0
 18 19  2  0  0  0  0
 18 20  1  0  0  0  0
 20 21  1  0  0  0  0
 20 22  1  0  0  0  0
 22 23  1  0  0  0  0
 22 24  1  0  0  0  0
 22 25  1  0  0  0  0
M  END
$$$$

  -OEChem-03222214023D

 25 24  0     1  0  0  0  0  0999 V2000
   -2.7367   -3.9887    0.5547 H   0  0  0  0  0  0  0  0  0  0  0  0
   -2.7831   -2.9485    0.2203 C   0  0  0  0  0  0  0  0  0  0  0  0
   -3.4130   -2.3832    0.9113 H   0  0  0  0  0  0  0  0  0  0  0  0
   -3.2291   -2.9187   -0.7768 H   0  0  0  0  0  0  0  0  0  0  0  0
   -1.3902   -2.3494    0.1809 C   0  0  0  0  0  0  0  0  0  0  0  0
   -0.4246   -3.0213    0.5099 O   0  0  0  0  0  0  0  0  0  0  0  0
   -1.2181   -1.0367   -0.2073 N   0  0  0  0  0  0  0  0  0  0  0  0
   -2.0546   -0.4792   -0.3790 H   0  0  0  0  0  0  0  0  0  0  0  0
    0.0764   -0.3407   -0.2556 C   0  0  1  0  0  0  0  0  0  0  0  0
    0.8070   -0.8811    0.3555 H   0  0  0  0  0  0  0  0  0  0  0  0
    0.6422   -0.2286   -1.6940 C   0  0  0  0  0  0  0  0  0  0  0  0
    1.0784    0.7619   -1.8537 H   0  0  0  0  0  0  0  0  0  0  0  0
    1.4485   -0.9584   -1.7998 H   0  0  0  0  0  0  0  0  0  0  0  0
   -0.3529   -0.5090   -2.8158 C   0  0  0  0  0  0  0  0  0  0  0  0
   -0.7857    0.4366   -3.4483 O   0  0  0  0  0  0  0  0  0  0  0  0
   -0.6549   -1.7940   -3.1092 O   0  0  0  0  0  0  0  0  0  0  0  0
   -1.2526   -1.7439   -3.8703 H   0  0  0  0  0  0  0  0  0  0  0  0
   -0.0718    1.0592    0.3733 C   0  0  0  0  0  0  0  0  0  0  0  0
   -1.0650    1.7345    0.1355 O   0  0  0  0  0  0  0  0  0  0  0  0
    0.8753    1.5328    1.2628 N   0  0  0  0  0  0  0  0  0  0  0  0
    1.6512    0.9210    1.4992 H   0  0  0  0  0  0  0  0  0  0  0  0
    0.7531    2.8125    1.9511 C   0  0  0  0  0  0  0  0  0  0  0  0
   -0.1540    2.8330    2.5644 H   0  0  0  0  0  0  0  0  0  0  0  0
    1.6158    2.9753    2.6043 H   0  0  0  0  0  0  0  0  0  0  0  0
    0.7078    3.6335    1.2277 H   0  0  0  0  0  0  0  0  0  0  0  0
  1  2  1  0  0  0  0
  2  3  1  0  0  0  0
  2  4  1  0  0  0  0
  2  5  1  0  0  0  0
  5  6  2  0  0  0  0
  5  7  1  0  0  0  0
  7  8  1  0  0  0  0
  7  9  1  0  0  0  0
  9 10  1  0  0  0  0
  9 11  1  0  0  0  0
  9 18  1  0  0  0  0
 11 12  1  0  0  0  0
 11 13  1  0  0  0  0
 11 14  1  0  0  0  0
 14 15  2  0  0  0  0
 14 16  1  0  0  0  0
 16 17  1  0  0  0  0
 18 19  2  0  0  0  0
 18 20  1  0  0  0  0
 20 21  1  0  0  0  0
 20 22  1  0  0  0  0
 22 23  1  0  0  0  0
 22 24  1  0  0  0  0
 22 25  1  0  0  0  0
M  END
$$$$

  -OEChem-03222214023D

 25 24  0     1  0  0  0  0  0999 V2000
   -2.7412   -3.9942    0.5960 H   0  0  0  0  0  0  0  0  0  0  0  0
   -2.7880   -2.9570    0.2530 C   0  0  0  0  0  0  0  0  0  0  0  0
   -3.4191   -2.3866    0.9387 H   0  0  0  0  0  0  0  0  0  0  0  0
   -3.2325   -2.9355   -0.7449 H   0  0  0  0  0  0  0  0  0  0  0  0
   -1.3955   -2.3571    0.2090 C   0  0  0  0  0  0  0  0  0  0  0  0
   -0.4283   -3.0278    0.5365 O   0  0  0  0  0  0  0  0  0  0  0  0
   -1.2268   -1.0445   -0.1810 N   0  0  0  0  0  0  0  0  0  0  0  0
   -2.0644   -0.4929   -0.3628 H   0  0  0  0  0  0  0  0  0  0  0  0
    0.0674   -0.3510   -0.2469 C   0  0  1  0  0  0  0  0  0  0  0  0
    0.8061   -0.8920    0.3536 H   0  0  0  0  0  0  0  0  0  0  0  0
    0.6211   -0.2208   -1.6902 C   0  0  0  0  0  0  0  0  0  0  0  0
    1.0656    0.7690   -1.8327 H   0  0  0  0  0  0  0  0  0  0  0  0
    1.4227   -0.9537   -1.8074 H   0  0  0  0  0  0  0  0  0  0  0  0
   -0.3649   -0.4807   -2.8278 C   0  0  0  0  0  0  0  0  0  0  0  0
   -0.5676    0.4286   -3.6114 O   0  0  0  0  0  0  0  0  0  0  0  0
   -0.8714   -1.7235   -2.9983 O   0  0  0  0  0  0  0  0  0  0  0  0
   -1.3980   -1.6682   -3.8100 H   0  0  0  0  0  0  0  0  0  0  0  0
   -0.0794    1.0468    0.3863 C   0  0  0  0  0  0  0  0  0  0  0  0
   -1.0689    1.7256    0.1415 O   0  0  0  0  0  0  0  0  0  0  0  0
    0.8739    1.5254    1.2663 N   0  0  0  0  0  0  0  0  0  0  0  0
    1.6481    0.9126    1.5064 H   0  0  0  0  0  0  0  0  0  0  0  0
    0.7613    2.8143    1.9392 C   0  0  0  0  0  0  0  0  0  0  0  0
   -0.1373    2.8428    2.5646 H   0  0  0  0  0  0  0  0  0  0  0  0
    1.6328    2.9858    2.5782 H   0  0  0  0  0  0  0  0  0  0  0  0
    0.7062    3.6261    1.2063 H   0  0  0  0  0  0  0  0  0  0  0  0
  1  2  1  0  0  0  0
  2  3  1  0  0  0  0
  2  4  1  0  0  0  0
  2  5  1  0  0  0  0
  5  6  2  0  0  0  0
  5  7  1  0  0  0  0
  7  8  1  0  0  0  0
  7  9  1  0  0  0  0
  9 10  1  0  0  0  0
  9 11  1  0  0  0  0
  9 18  1  0  0  0  0
 11 12  1  0  0  0  0
 11 13  1  0  0  0  0
 11 14  1  0  0  0  0
 14 15  2  0  0  0  0
 14 16  1  0  0  0  0
 16 17  1  0  0  0  0
 18 19  2  0  0  0  0
 18 20  1  0  0  0  0
 20 21  1  0  0  0  0
 20 22  1  0  0  0  0
 22 23  1  0  0  0  0
 22 24  1  0  0  0  0
 22 25  1  0  0  0  0
M  END
$$$$

  -OEChem-03222214023D

 25 24  0     1  0  0  0  0  0999 V2000
   -2.7360   -4.0092    0.6250 H   0  0  0  0  0  0  0  0  0  0  0  0
   -2.7884   -2.9729    0.2801 C   0  0  0  0  0  0  0  0  0  0  0  0
   -3.4290   -2.4067    0.9604 H   0  0  0  0  0  0  0  0  0  0  0  0
   -3.2256   -2.9561   -0.7210 H   0  0  0  0  0  0  0  0  0  0  0  0
   -1.4004   -2.3625    0.2447 C   0  0  0  0  0  0  0  0  0  0  0  0
   -0.4299   -3.0267    0.5762 O   0  0  0  0  0  0  0  0  0  0  0  0
   -1.2385   -1.0496   -0.1469 N   0  0  0  0  0  0  0  0  0  0  0  0
   -2.0772   -0.5128   -0.3622 H   0  0  0  0  0  0  0  0  0  0  0  0
    0.0534   -0.3569   -0.2355 C   0  0  1  0  0  0  0  0  0  0  0  0
    0.8026   -0.8976    0.3523 H   0  0  0  0  0  0  0  0  0  0  0  0
    0.5921   -0.2083   -1.6853 C   0  0  0  0  0  0  0  0  0  0  0  0
    1.0424    0.7816   -1.8110 H   0  0  0  0  0  0  0  0  0  0  0  0
    1.3917   -0.9420   -1.8118 H   0  0  0  0  0  0  0  0  0  0  0  0
   -0.3771   -0.4465   -2.8464 C   0  0  0  0  0  0  0  0  0  0  0  0
   -0.3449    0.3665   -3.7523 O   0  0  0  0  0  0  0  0  0  0  0  0
   -1.1013   -1.5873   -2.9173 O   0  0  0  0  0  0  0  0  0  0  0  0
   -1.5525   -1.5394   -3.7740 H   0  0  0  0  0  0  0  0  0  0  0  0
   -0.0898    1.0386    0.4036 C   0  0  0  0  0  0  0  0  0  0  0  0
   -1.0712    1.7264    0.1503 O   0  0  0  0  0  0  0  0  0  0  0  0
    0.8747    1.5198    1.2697 N   0  0  0  0  0  0  0  0  0  0  0  0
    1.6451    0.9029    1.5114 H   0  0  0  0  0  0  0  0  0  0  0  0
    0.7779    2.8166    1.9296 C   0  0  0  0  0  0  0  0  0  0  0  0
   -0.1104    2.8561    2.5689 H   0  0  0  0  0  0  0  0  0  0  0  0
    1.6606    2.9914    2.5523 H   0  0  0  0  0  0  0  0  0  0  0  0
    0.7147    3.6201    1.1881 H   0  0  0  0  0  0  0  0  0  0  0  0
  1  2  1  0  0  0  0
  2  3  1  0  0  0  0
  2  4  1  0  0  0  0
  2  5  1  0  0  0  0
  5  6  2  0  0  0  0
  5  7  1  0  0  0  0
  7  8  1  0  0  0  0
  7  9  1  0  0  0  0
  9 10  1  0  0  0  0
  9 11  1  0  0  0  0
  9 18  1  0  0  0  0
 11 12  1  0  0  0  0
 11 13  1  0  0  0  0
 11 14  1  0  0  0  0
 14 15  2  0  0  0  0
 14 16  1  0  0  0  0
 16 17  1  0  0  0  0
 18 19  2  0  0  0  0
 18 20  1  0  0  0  0
 20 21  1  0  0  0  0
 20 22  1  0  0  0  0
 22 23  1  0  0  0  0
 22 24  1  0  0  0  0
 22 25  1  0  0  0  0
M  END
$$$$

  -OEChem-03222214023D

 25 24  0     1  0  0  0  0  0999 V2000
   -2.7221   -4.0348    0.6275 H   0  0  0  0  0  0  0  0  0  0  0  0
   -2.7816   -2.9975    0.2867 C   0  0  0  0  0  0  0  0  0  0  0  0
   -3.4445   -2.4435    0.9554 H   0  0  0  0  0  0  0  0  0  0  0  0
   -3.1969   -2.9815   -0.7239 H   0  0  0  0  0  0  0  0  0  0  0  0
   -1.4022   -2.3669    0.2857 C   0  0  0  0  0  0  0  0  0  0  0  0
   -0.4299   -3.0184    0.6370 O   0  0  0  0  0  0  0  0  0  0  0  0
   -1.2488   -1.0539   -0.1075 N   0  0  0  0  0  0  0  0  0  0  0  0
   -2.0848   -0.5468   -0.3929 H   0  0  0  0  0  0  0  0  0  0  0  0
    0.0392   -0.3595   -0.2201 C   0  0  1  0  0  0  0  0  0  0  0  0
    0.7990   -0.8993    0.3545 H   0  0  0  0  0  0  0  0  0  0  0  0
    0.5613   -0.1973   -1.6770 C   0  0  0  0  0  0  0  0  0  0  0  0
    1.0125    0.7935   -1.7908 H   0  0  0  0  0  0  0  0  0  0  0  0
    1.3621   -0.9288   -1.8092 H   0  0  0  0  0  0  0  0  0  0  0  0
   -0.3880   -0.4180   -2.8619 C   0  0  0  0  0  0  0  0  0  0  0  0
   -0.1364    0.2359   -3.8578 O   0  0  0  0  0  0  0  0  0  0  0  0
   -1.3500   -1.3695   -2.8457 O   0  0  0  0  0  0  0  0  0  0  0  0
   -1.7385   -1.3381   -3.7336 H   0  0  0  0  0  0  0  0  0  0  0  0
   -0.0968    1.0348    0.4233 C   0  0  0  0  0  0  0  0  0  0  0  0
   -1.0681    1.7340    0.1621 O   0  0  0  0  0  0  0  0  0  0  0  0
    0.8818    1.5177    1.2725 N   0  0  0  0  0  0  0  0  0  0  0  0
    1.6463    0.8946    1.5172 H   0  0  0  0  0  0  0  0  0  0  0  0
    0.8028    2.8222    1.9192 C   0  0  0  0  0  0  0  0  0  0  0  0
   -0.0757    2.8745    2.5709 H   0  0  0  0  0  0  0  0  0  0  0  0
    1.6958    2.9980    2.5268 H   0  0  0  0  0  0  0  0  0  0  0  0
    0.7336    3.6180    1.1699 H   0  0  0  0  0  0  0  0  0  0  0  0
  1  2  1  0  0  0  0
  2  3  1  0  0  0  0
  2  4  1  0  0  0  0
  2  5  1  0  0  0  0
  5  6  2  0  0  0  0
  5  7  1  0  0  0  0
  7  8  1  0  0  0  0
  7  9  1  0  0  0  0
  9 10  1  0  0  0  0
  9 11  1  0  0  0  0
  9 18  1  0  0  0  0
 11 12  1  0  0  0  0
 11 13  1  0  0  0  0
 11 14  1  0  0  0  0
 14 15  2  0  0  0  0
 14 16  1  0  0  0  0
 16 17  1  0  0  0  0
 18 19  2  0  0  0  0
 18 20  1  0  0  0  0
 20 21  1  0  0  0  0
 20 22  1  0  0  0  0
 22 23  1  0  0  0  0
 22 24  1  0  0  0  0
 22 25  1  0  0  0  0
M  END
$$$$

  -OEChem-03222214023D

 25 24  0     1  0  0  0  0  0999 V2000
   -2.6992   -4.0681    0.6016 H   0  0  0  0  0  0  0  0  0  0  0  0
   -2.7657   -3.0290    0.2677 C   0  0  0  0  0  0  0  0  0  0  0  0
   -3.4636   -2.4937    0.9161 H   0  0  0  0  0  0  0  0  0  0  0  0
   -3.1443   -3.0113   -0.7572 H   0  0  0  0  0  0  0  0  0  0  0  0
   -1.3995   -2.3722    0.3233 C   0  0  0  0  0  0  0  0  0  0  0  0
   -0.4293   -3.0065    0.7095 O   0  0  0  0  0  0  0  0  0  0  0  0
   -1.2541   -1.0600   -0.0743 N   0  0  0  0  0  0  0  0  0  0  0  0
   -2.0748   -0.5990   -0.4648 H   0  0  0  0  0  0  0  0  0  0  0  0
    0.0309   -0.3633   -0.2002 C   0  0  1  0  0  0  0  0  0  0  0  0
    0.7989   -0.9007    0.3661 H   0  0  0  0  0  0  0  0  0  0  0  0
    0.5373   -0.1961   -1.6637 C   0  0  0  0  0  0  0  0  0  0  0  0
    0.9855    0.7961   -1.7762 H   0  0  0  0  0  0  0  0  0  0  0  0
    1.3404   -0.9246   -1.7996 H   0  0  0  0  0  0  0  0  0  0  0  0
   -0.4028   -0.4076   -2.8600 C   0  0  0  0  0  0  0  0  0  0  0  0
    0.0205    0.0242   -3.9170 O   0  0  0  0  0  0  0  0  0  0  0  0
   -1.5915   -1.0485   -2.7660 O   0  0  0  0  0  0  0  0  0  0  0  0
   -1.9455   -1.0354   -3.6690 H   0  0  0  0  0  0  0  0  0  0  0  0
   -0.0987    1.0334    0.4407 C   0  0  0  0  0  0  0  0  0  0  0  0
   -1.0550    1.7466    0.1622 O   0  0  0  0  0  0  0  0  0  0  0  0
    0.8892    1.5173    1.2787 N   0  0  0  0  0  0  0  0  0  0  0  0
    1.6447    0.8870    1.5327 H   0  0  0  0  0  0  0  0  0  0  0  0
    0.8285    2.8321    1.9064 C   0  0  0  0  0  0  0  0  0  0  0  0
   -0.0464    2.9043    2.5612 H   0  0  0  0  0  0  0  0  0  0  0  0
    1.7262    3.0067    2.5072 H   0  0  0  0  0  0  0  0  0  0  0  0
    0.7649    3.6177    1.1459 H   0  0  0  0  0  0  0  0  0  0  0  0
  1  2  1  0  0  0  0
  2  3  1  0  0  0  0
  2  4  1  0  0  0  0
  2  5  1  0  0  0  0
  5  6  2  0  0  0  0
  5  7  1  0  0  0  0
  7  8  1  0  0  0  0
  7  9  1  0  0  0  0
  9 10  1  0  0  0  0
  9 11  1  0  0  0  0
  9 18  1  0  0  0  0
 11 12  1  0  0  0  0
 11 13  1  0  0  0  0
 11 14  1  0  0  0  0
 14 15  2  0  0  0  0
 14 16  1  0  0  0  0
 16 17  1  0  0  0  0
 18 19  2  0  0  0  0
 18 20  1  0  0  0  0
 20 21  1  0  0  0  0
 20 22  1  0  0  0  0
 22 23  1  0  0  0  0
 22 24  1  0  0  0  0
 22 25  1  0  0  0  0
M  END
$$$$

  -OEChem-03222214023D

 25 24  0     1  0  0  0  0  0999 V2000
   -2.6771   -4.0799    0.5112 H   0  0  0  0  0  0  0  0  0  0  0  0
   -2.7457   -3.0349    0.1965 C   0  0  0  0  0  0  0  0  0  0  0  0
   -3.4450   -2.5130    0.8542 H   0  0  0  0  0  0  0  0  0  0  0  0
   -3.1242   -2.9990   -0.8279 H   0  0  0  0  0  0  0  0  0  0  0  0
   -1.3808   -2.3768    0.2669 C   0  0  0  0  0  0  0  0  0  0  0  0
   -0.4105   -3.0148    0.6458 O   0  0  0  0  0  0  0  0  0  0  0  0
   -1.2338   -1.0607   -0.1151 N   0  0  0  0  0  0  0  0  0  0  0  0
   -2.0490   -0.5912   -0.5129 H   0  0  0  0  0  0  0  0  0  0  0  0
    0.0457   -0.3477   -0.2060 C   0  0  1  0  0  0  0  0  0  0  0  0
    0.8150   -0.8857    0.3578 H   0  0  0  0  0  0  0  0  0  0  0  0
    0.5363   -0.1814   -1.6679 C   0  0  0  0  0  0  0  0  0  0  0  0
    1.1946    0.6899   -1.7304 H   0  0  0  0  0  0  0  0  0  0  0  0
    1.1405   -1.0620   -1.9011 H   0  0  0  0  0  0  0  0  0  0  0  0
   -0.4923   -0.0697   -2.8013 C   0  0  0  0  0  0  0  0  0  0  0  0
   -0.0162    0.0574   -3.9147 O   0  0  0  0  0  0  0  0  0  0  0  0
   -1.8283   -0.0601   -2.5760 O   0  0  0  0  0  0  0  0  0  0  0  0
   -2.2232    0.1008   -3.4472 H   0  0  0  0  0  0  0  0  0  0  0  0
   -0.0877    1.0477    0.4382 C   0  0  0  0  0  0  0  0  0  0  0  0
   -1.0369    1.7690    0.1585 O   0  0  0  0  0  0  0  0  0  0  0  0
    0.8920    1.5203    1.2927 N   0  0  0  0  0  0  0  0  0  0  0  0
    1.6404    0.8838    1.5523 H   0  0  0  0  0  0  0  0  0  0  0  0
    0.8274    2.8285    1.9339 C   0  0  0  0  0  0  0  0  0  0  0  0
   -0.0606    2.8994    2.5709 H   0  0  0  0  0  0  0  0  0  0  0  0
    1.7132    2.9897    2.5558 H   0  0  0  0  0  0  0  0  0  0  0  0
    0.7854    3.6230    1.1812 H   0  0  0  0  0  0  0  0  0  0  0  0
  1  2  1  0  0  0  0
  2  3  1  0  0  0  0
  2  4  1  0  0  0  0
  2  5  1  0  0  0  0
  5  6  2  0  0  0  0
  5  7  1  0  0  0  0
  7  8  1  0  0  0  0
  7  9  1  0  0  0  0
  9 10  1  0  0  0  0
  9 11  1  0  0  0  0
  9 18  1  0  0  0  0
 11 12  1  0  0  0  0
 11 13  1  0  0  0  0
 11 14  1  0  0  0  0
 14 15  2  0  0  0  0
 14 16  1  0  0  0  0
 16 17  1  0  0  0  0
 18 19  2  0  0  0  0
 18 20  1  0  0  0  0
 20 21  1  0  0  0  0
 20 22  1  0  0  0  0
 22 23  1  0  0  0  0
 22 24  1  0  0  0  0
 22 25  1  0  0  0  0
M  END
$$$$

  -OEChem-03222214023D

 25 24  0     1  0  0  0  0  0999 V2000
   -2.6841   -4.0574    0.5017 H   0  0  0  0  0  0  0  0  0  0  0  0
   -2.7513   -3.0119    0.1881 C   0  0  0  0  0  0  0  0  0  0  0  0
   -3.4288   -2.4839    0.8635 H   0  0  0  0  0  0  0  0  0  0  0  0
   -3.1560   -2.9734   -0.8262 H   0  0  0  0  0  0  0  0  0  0  0  0
   -1.3792   -2.3661    0.2227 C   0  0  0  0  0  0  0  0  0  0  0  0
   -0.4040   -3.0149    0.5689 O   0  0  0  0  0  0  0  0  0  0  0  0
   -1.2313   -1.0466   -0.1476 N   0  0  0  0  0  0  0  0  0  0  0  0
   -2.0581   -0.5493   -0.4821 H   0  0  0  0  0  0  0  0  0  0  0  0
    0.0461   -0.3267   -0.2208 C   0  0  1  0  0  0  0  0  0  0  0  0
    0.8078   -0.8663    0.3515 H   0  0  0  0  0  0  0  0  0  0  0  0
    0.5503   -0.1803   -1.6782 C   0  0  0  0  0  0  0  0  0  0  0  0
    1.1952    0.6993   -1.7543 H   0  0  0  0  0  0  0  0  0  0  0  0
    1.1665   -1.0572   -1.8951 H   0  0  0  0  0  0  0  0  0  0  0  0
   -0.4889   -0.0957   -2.8017 C   0  0  0  0  0  0  0  0  0  0  0  0
   -0.0608   -0.2678   -3.9285 O   0  0  0  0  0  0  0  0  0  0  0  0
   -1.7820    0.2192   -2.5520 O   0  0  0  0  0  0  0  0  0  0  0  0
   -2.1938    0.2962   -3.4263 H   0  0  0  0  0  0  0  0  0  0  0  0
   -0.0844    1.0666    0.4291 C   0  0  0  0  0  0  0  0  0  0  0  0
   -1.0447    1.7835    0.1797 O   0  0  0  0  0  0  0  0  0  0  0  0
    0.8952    1.5271    1.2903 N   0  0  0  0  0  0  0  0  0  0  0  0
    1.6467    0.8888    1.5356 H   0  0  0  0  0  0  0  0  0  0  0  0
    0.8223    2.8187    1.9635 C   0  0  0  0  0  0  0  0  0  0  0  0
   -0.0682    2.8699    2.5989 H   0  0  0  0  0  0  0  0  0  0  0  0
    1.7053    2.9683    2.5922 H   0  0  0  0  0  0  0  0  0  0  0  0
    0.7795    3.6314    1.2305 H   0  0  0  0  0  0  0  0  0  0  0  0
  1  2  1  0  0  0  0
  2  3  1  0  0  0  0
  2  4  1  0  0  0  0
  2  5  1  0  0  0  0
  5  6  2  0  0  0  0
  5  7  1  0  0  0  0
  7  8  1  0  0  0  0
  7  9  1  0  0  0  0
  9 10  1  0  0  0  0
  9 11  1  0  0  0  0
  9 18  1  0  0  0  0
 11 12  1  0  0  0  0
 11 13  1  0  0  0  0
 11 14  1  0  0  0  0
 14 15  2  0  0  0  0
 14 16  1  0  0  0  0
 16 17  1  0  0  0  0
 18 19  2  0  0  0  0
 18 20  1  0  0  0  0
 20 21  1  0  0  0  0
 20 22  1  0  0  0  0
 22 23  1  0  0  0  0
 22 24  1  0  0  0  0
 22 25  1  0  0  0  0
M  END
$$$$

  -OEChem-03222214023D

 25 24  0     1  0  0  0  0  0999 V2000
   -2.6985   -4.0234    0.4954 H   0  0  0  0  0  0  0  0  0  0  0  0
   -2.7609   -2.9773    0.1828 C   0  0  0  0  0  0  0  0  0  0  0  0
   -3.4116   -2.4399    0.8768 H   0  0  0  0  0  0  0  0  0  0  0  0
   -3.1936   -2.9338   -0.8196 H   0  0  0  0  0  0  0  0  0  0  0  0
   -1.3797   -2.3502    0.1770 C   0  0  0  0  0  0  0  0  0  0  0  0
   -0.4024   -3.0140    0.4860 O   0  0  0  0  0  0  0  0  0  0  0  0
   -1.2268   -1.0287   -0.1849 N   0  0  0  0  0  0  0  0  0  0  0  0
   -2.0635   -0.5007   -0.4361 H   0  0  0  0  0  0  0  0  0  0  0  0
    0.0519   -0.3082   -0.2415 C   0  0  1  0  0  0  0  0  0  0  0  0
    0.8025   -0.8504    0.3430 H   0  0  0  0  0  0  0  0  0  0  0  0
    0.5764   -0.1836   -1.6917 C   0  0  0  0  0  0  0  0  0  0  0  0
    1.2139    0.6999   -1.7783 H   0  0  0  0  0  0  0  0  0  0  0  0
    1.1994   -1.0602   -1.8912 H   0  0  0  0  0  0  0  0  0  0  0  0
   -0.4726   -0.1205   -2.8041 C   0  0  0  0  0  0  0  0  0  0  0  0
   -0.1474   -0.5755   -3.8858 O   0  0  0  0  0  0  0  0  0  0  0  0
   -1.6685    0.4725   -2.5878 O   0  0  0  0  0  0  0  0  0  0  0  0
   -2.1195    0.4579   -3.4453 H   0  0  0  0  0  0  0  0  0  0  0  0
   -0.0783    1.0834    0.4128 C   0  0  0  0  0  0  0  0  0  0  0  0
   -1.0620    1.7819    0.2077 O   0  0  0  0  0  0  0  0  0  0  0  0
    0.8971    1.5355    1.2830 N   0  0  0  0  0  0  0  0  0  0  0  0
    1.6637    0.9060    1.5025 H   0  0  0  0  0  0  0  0  0  0  0  0
    0.8061    2.8063    1.9922 C   0  0  0  0  0  0  0  0  0  0  0  0
   -0.0725    2.8182    2.6457 H   0  0  0  0  0  0  0  0  0  0  0  0
    1.6975    2.9612    2.6076 H   0  0  0  0  0  0  0  0  0  0  0  0
    0.7285    3.6365    1.2822 H   0  0  0  0  0  0  0  0  0  0  0  0
  1  2  1  0  0  0  0
  2  3  1  0  0  0  0
  2  4  1  0  0  0  0
  2  5  1  0  0  0  0
  5  6  2  0  0  0  0
  5  7  1  0  0  0  0
  7  8  1  0  0  0  0
  7  9  1  0  0  0  0
  9 10  1  0  0  0  0
  9 11  1  0  0  0  0
  9 18  1  0  0  0  0
 11 12  1  0  0  0  0
 11 13  1  0  0  0  0
 11 14  1  0  0  0  0
 14 15  2  0  0  0  0
 14 16  1  0  0  0  0
 16 17  1  0  0  0  0
 18 19  2  0  0  0  0
 18 20  1  0  0  0  0
 20 21  1  0  0  0  0
 20 22  1  0  0  0  0
 22 23  1  0  0  0  0
 22 24  1  0  0  0  0
 22 25  1  0  0  0  0
M  END
$$$$

  -OEChem-03222214023D

 25 24  0     1  0  0  0  0  0999 V2000
   -2.7072   -3.9906    0.5008 H   0  0  0  0  0  0  0  0  0  0  0  0
   -2.7668   -2.9446    0.1878 C   0  0  0  0  0  0  0  0  0  0  0  0
   -3.3902   -2.3985    0.8996 H   0  0  0  0  0  0  0  0  0  0  0  0
   -3.2286   -2.8984   -0.8013 H   0  0  0  0  0  0  0  0  0  0  0  0
   -1.3794   -2.3336    0.1388 C   0  0  0  0  0  0  0  0  0  0  0  0
   -0.4008   -3.0082    0.4193 O   0  0  0  0  0  0  0  0  0  0  0  0
   -1.2233   -1.0112   -0.2199 N   0  0  0  0  0  0  0  0  0  0  0  0
   -2.0649   -0.4600   -0.3910 H   0  0  0  0  0  0  0  0  0  0  0  0
    0.0596   -0.2957   -0.2644 C   0  0  1  0  0  0  0  0  0  0  0  0
    0.7995   -0.8404    0.3314 H   0  0  0  0  0  0  0  0  0  0  0  0
    0.6029   -0.1905   -1.7081 C   0  0  0  0  0  0  0  0  0  0  0  0
    1.2395    0.6925   -1.8034 H   0  0  0  0  0  0  0  0  0  0  0  0
    1.2273   -1.0692   -1.8950 H   0  0  0  0  0  0  0  0  0  0  0  0
   -0.4530   -0.1393   -2.8113 C   0  0  0  0  0  0  0  0  0  0  0  0
   -0.2740   -0.8377   -3.7929 O   0  0  0  0  0  0  0  0  0  0  0  0
   -1.4985    0.7070   -2.6919 O   0  0  0  0  0  0  0  0  0  0  0  0
   -1.9989    0.6168   -3.5163 H   0  0  0  0  0  0  0  0  0  0  0  0
   -0.0724    1.0949    0.3923 C   0  0  0  0  0  0  0  0  0  0  0  0
   -1.0789    1.7711    0.2248 O   0  0  0  0  0  0  0  0  0  0  0  0
    0.8969    1.5423    1.2720 N   0  0  0  0  0  0  0  0  0  0  0  0
    1.6764    0.9223    1.4726 H   0  0  0  0  0  0  0  0  0  0  0  0
    0.7829    2.7914    2.0163 C   0  0  0  0  0  0  0  0  0  0  0  0
   -0.0866    2.7627    2.6816 H   0  0  0  0  0  0  0  0  0  0  0  0
    1.6787    2.9535    2.6234 H   0  0  0  0  0  0  0  0  0  0  0  0
    0.6734    3.6383    1.3305 H   0  0  0  0  0  0  0  0  0  0  0  0
  1  2  1  0  0  0  0
  2  3  1  0  0  0  0
  2  4  1  0  0  0  0
  2  5  1  0  0  0  0
  5  6  2  0  0  0  0
  5  7  1  0  0  0  0
  7  8  1  0  0  0  0
  7  9  1  0  0  0  0
  9 10  1  0  0  0  0
  9 11  1  0  0  0  0
  9 18  1  0  0  0  0
 11 12  1  0  0  0  0
 11 13  1  0  0  0  0
 11 14  1  0  0  0  0
 14 15  2  0  0  0  0
 14 16  1  0  0  0  0
 16 17  1  0  0  0  0
 18 19  2  0  0  0  0
 18 20  1  0  0  0  0
 20 21  1  0  0  0  0
 20 22  1  0  0  0  0
 22 23  1  0  0  0  0
 22 24  1  0  0  0  0
 22 25  1  0  0  0  0
M  END
$$$$

  -OEChem-03222214023D

 25 24  0     1  0  0  0  0  0999 V2000
   -2.7155   -3.9738    0.5099 H   0  0  0  0  0  0  0  0  0  0  0  0
   -2.7704   -2.9296    0.1898 C   0  0  0  0  0  0  0  0  0  0  0  0
   -3.3810   -2.3732    0.9052 H   0  0  0  0  0  0  0  0  0  0  0  0
   -3.2434   -2.8874   -0.7944 H   0  0  0  0  0  0  0  0  0  0  0  0
   -1.3787   -2.3302    0.1194 C   0  0  0  0  0  0  0  0  0  0  0  0
   -0.4022   -3.0110    0.3921 O   0  0  0  0  0  0  0  0  0  0  0  0
   -1.2174   -1.0086   -0.2406 N   0  0  0  0  0  0  0  0  0  0  0  0
   -2.0584   -0.4457   -0.3681 H   0  0  0  0  0  0  0  0  0  0  0  0
    0.0704   -0.3005   -0.2762 C   0  0  1  0  0  0  0  0  0  0  0  0
    0.8048   -0.8464    0.3253 H   0  0  0  0  0  0  0  0  0  0  0  0
    0.6233   -0.1942   -1.7151 C   0  0  0  0  0  0  0  0  0  0  0  0
    1.2637    0.6866   -1.8076 H   0  0  0  0  0  0  0  0  0  0  0  0
    1.2441   -1.0746   -1.9057 H   0  0  0  0  0  0  0  0  0  0  0  0
   -0.4401   -0.1340   -2.8075 C   0  0  0  0  0  0  0  0  0  0  0  0
   -0.4438   -1.0084   -3.6555 O   0  0  0  0  0  0  0  0  0  0  0  0
   -1.2864    0.9166   -2.8275 O   0  0  0  0  0  0  0  0  0  0  0  0
   -1.8442    0.7864   -3.6084 H   0  0  0  0  0  0  0  0  0  0  0  0
   -0.0702    1.0891    0.3795 C   0  0  0  0  0  0  0  0  0  0  0  0
   -1.0870    1.7515    0.2173 O   0  0  0  0  0  0  0  0  0  0  0  0
    0.8885    1.5382    1.2697 N   0  0  0  0  0  0  0  0  0  0  0  0
    1.6768    0.9277    1.4652 H   0  0  0  0  0  0  0  0  0  0  0  0
    0.7631    2.7853    2.0150 C   0  0  0  0  0  0  0  0  0  0  0  0
   -0.1122    2.7524    2.6722 H   0  0  0  0  0  0  0  0  0  0  0  0
    1.6527    2.9495    2.6305 H   0  0  0  0  0  0  0  0  0  0  0  0
    0.6571    3.6328    1.3295 H   0  0  0  0  0  0  0  0  0  0  0  0
  1  2  1  0  0  0  0
  2  3  1  0  0  0  0
  2  4  1  0  0  0  0
  2  5  1  0  0  0  0
  5  6  2  0  0  0  0
  5  7  1  0  0  0  0
  7  8  1  0  0  0  0
  7  9  1  0  0  0  0
  9 10  1  0  0  0  0
  9 11  1  0  0  0  0
  9 18  1  0  0  0  0
 11 12  1  0  0  0  0
 11 13  1  0  0  0  0
 11 14  1  0  0  0  0
 14 15  2  0  0  0  0
 14 16  1  0  0  0  0
 16 17  1  0  0  0  0
 18 19  2  0  0  0  0
 18 20  1  0  0  0  0
 20 21  1  0  0  0  0
 20 22  1  0  0  0  0
 22 23  1  0  0  0  0
 22 24  1  0  0  0  0
 22 25  1  0  0  0  0
M  END
$$$$

  -OEChem-03222214023D

 25 24  0     1  0  0  0  0  0999 V2000
   -2.7217   -3.9725    0.4940 H   0  0  0  0  0  0  0  0  0  0  0  0
   -2.7703   -2.9288    0.1715 C   0  0  0  0  0  0  0  0  0  0  0  0
   -3.3931   -2.3708    0.8748 H   0  0  0  0  0  0  0  0  0  0  0  0
   -3.2252   -2.8877   -0.8213 H   0  0  0  0  0  0  0  0  0  0  0  0
   -1.3773   -2.3306    0.1245 C   0  0  0  0  0  0  0  0  0  0  0  0
   -0.4066   -3.0097    0.4222 O   0  0  0  0  0  0  0  0  0  0  0  0
   -1.2090   -1.0112   -0.2410 N   0  0  0  0  0  0  0  0  0  0  0  0
   -2.0476   -0.4482   -0.3806 H   0  0  0  0  0  0  0  0  0  0  0  0
    0.0834   -0.3110   -0.2743 C   0  0  1  0  0  0  0  0  0  0  0  0
    0.8175   -0.8578    0.3267 H   0  0  0  0  0  0  0  0  0  0  0  0
    0.6320   -0.1974   -1.7141 C   0  0  0  0  0  0  0  0  0  0  0  0
    1.2807    0.6776   -1.8039 H   0  0  0  0  0  0  0  0  0  0  0  0
    1.2424   -1.0816   -1.9186 H   0  0  0  0  0  0  0  0  0  0  0  0
   -0.4413   -0.1213   -2.7943 C   0  0  0  0  0  0  0  0  0  0  0  0
   -0.6506   -1.1059   -3.4808 O   0  0  0  0  0  0  0  0  0  0  0  0
   -1.0688    1.0584   -2.9818 O   0  0  0  0  0  0  0  0  0  0  0  0
   -1.6883    0.9103   -3.7115 H   0  0  0  0  0  0  0  0  0  0  0  0
   -0.0627    1.0797    0.3766 C   0  0  0  0  0  0  0  0  0  0  0  0
   -1.0738    1.7443    0.1879 O   0  0  0  0  0  0  0  0  0  0  0  0
    0.8867    1.5354    1.2730 N   0  0  0  0  0  0  0  0  0  0  0  0
    1.6708    0.9248    1.4847 H   0  0  0  0  0  0  0  0  0  0  0  0
    0.7563    2.7916    2.0020 C   0  0  0  0  0  0  0  0  0  0  0  0
   -0.1286    2.7703    2.6468 H   0  0  0  0  0  0  0  0  0  0  0  0
    1.6376    2.9592    2.6285 H   0  0  0  0  0  0  0  0  0  0  0  0
    0.6639    3.6314    1.3052 H   0  0  0  0  0  0  0  0  0  0  0  0
  1  2  1  0  0  0  0
  2  3  1  0  0  0  0
  2  4  1  0  0  0  0
  2  5  1  0  0  0  0
  5  6  2  0  0  0  0
  5  7  1  0  0  0  0
  7  8  1  0  0  0  0
  7  9  1  0  0  0  0
  9 10  1  0  0  0  0
  9 11  1  0  0  0  0
  9 18  1  0  0  0  0
 11 12  1  0  0  0  0
 11 13  1  0  0  0  0
 11 14  1  0  0  0  0
 14 15  2  0  0  0  0
 14 16  1  0  0  0  0
 16 17  1  0  0  0  0
 18 19  2  0  0  0  0
 18 20  1  0  0  0  0
 20 21  1  0  0  0  0
 20 22  1  0  0  0  0
 22 23  1  0  0  0  0
 22 24  1  0  0  0  0
 22 25  1  0  0  0  0
M  END
$$$$

  -OEChem-03222214023D

 25 24  0     1  0  0  0  0  0999 V2000
   -2.7265   -3.9852    0.4682 H   0  0  0  0  0  0  0  0  0  0  0  0
   -2.7696   -2.9419    0.1435 C   0  0  0  0  0  0  0  0  0  0  0  0
   -3.4214   -2.3871    0.8226 H   0  0  0  0  0  0  0  0  0  0  0  0
   -3.1879   -2.9039   -0.8654 H   0  0  0  0  0  0  0  0  0  0  0  0
   -1.3796   -2.3350    0.1468 C   0  0  0  0  0  0  0  0  0  0  0  0
   -0.4170   -3.0056    0.4877 O   0  0  0  0  0  0  0  0  0  0  0  0
   -1.2054   -1.0182   -0.2252 N   0  0  0  0  0  0  0  0  0  0  0  0
   -2.0402   -0.4684   -0.4242 H   0  0  0  0  0  0  0  0  0  0  0  0
    0.0898   -0.3235   -0.2619 C   0  0  1  0  0  0  0  0  0  0  0  0
    0.8266   -0.8708    0.3353 H   0  0  0  0  0  0  0  0  0  0  0  0
    0.6308   -0.1973   -1.7045 C   0  0  0  0  0  0  0  0  0  0  0  0
    1.2883    0.6721   -1.7880 H   0  0  0  0  0  0  0  0  0  0  0  0
    1.2316   -1.0842   -1.9243 H   0  0  0  0  0  0  0  0  0  0  0  0
   -0.4456   -0.1043   -2.7804 C   0  0  0  0  0  0  0  0  0  0  0  0
   -0.8633   -1.1298   -3.2904 O   0  0  0  0  0  0  0  0  0  0  0  0
   -0.8521    1.1275   -3.1534 O   0  0  0  0  0  0  0  0  0  0  0  0
   -1.5256    0.9829   -3.8344 H   0  0  0  0  0  0  0  0  0  0  0  0
   -0.0574    1.0695    0.3827 C   0  0  0  0  0  0  0  0  0  0  0  0
   -1.0508    1.7480    0.1528 O   0  0  0  0  0  0  0  0  0  0  0  0
    0.8877    1.5326    1.2799 N   0  0  0  0  0  0  0  0  0  0  0  0
    1.6576    0.9140    1.5189 H   0  0  0  0  0  0  0  0  0  0  0  0
    0.7645    2.8059    1.9798 C   0  0  0  0  0  0  0  0  0  0  0  0
   -0.1175    2.8023    2.6289 H   0  0  0  0  0  0  0  0  0  0  0  0
    1.6492    2.9857    2.5980 H   0  0  0  0  0  0  0  0  0  0  0  0
    0.6717    3.6295    1.2639 H   0  0  0  0  0  0  0  0  0  0  0  0
  1  2  1  0  0  0  0
  2  3  1  0  0  0  0
  2  4  1  0  0  0  0
  2  5  1  0  0  0  0
  5  6  2  0  0  0  0
  5  7  1  0  0  0  0
  7  8  1  0  0  0  0
  7  9  1  0  0  0  0
  9 10  1  0  0  0  0
  9 11  1  0  0  0  0
  9 18  1  0  0  0  0
 11 12  1  0  0  0  0
 11 13  1  0  0  0  0
 11 14  1  0  0  0  0
 14 15  2  0  0  0  0
 14 16  1  0  0  0  0
 16 17  1  0  0  0  0
 18 19  2  0  0  0  0
 18 20  1  0  0  0  0
 20 21  1  0  0  0  0
 20 22  1  0  0  0  0
 22 23  1  0  0  0  0
 22 24  1  0  0  0  0
 22 25  1  0  0  0  0
M  END
$$$$

  -OEChem-03222214023D

 25 24  0     1  0  0  0  0  0999 V2000
   -2.7176   -4.0130    0.4396 H   0  0  0  0  0  0  0  0  0  0  0  0
   -2.7629   -2.9685    0.1194 C   0  0  0  0  0  0  0  0  0  0  0  0
   -3.4527   -2.4281    0.7718 H   0  0  0  0  0  0  0  0  0  0  0  0
   -3.1361   -2.9304   -0.9072 H   0  0  0  0  0  0  0  0  0  0  0  0
   -1.3844   -2.3399    0.1879 C   0  0  0  0  0  0  0  0  0  0  0  0
   -0.4293   -2.9934    0.5803 O   0  0  0  0  0  0  0  0  0  0  0  0
   -1.2115   -1.0256   -0.1921 N   0  0  0  0  0  0  0  0  0  0  0  0
   -2.0375   -0.5086   -0.4893 H   0  0  0  0  0  0  0  0  0  0  0  0
    0.0836   -0.3329   -0.2434 C   0  0  1  0  0  0  0  0  0  0  0  0
    0.8273   -0.8791    0.3462 H   0  0  0  0  0  0  0  0  0  0  0  0
    0.6132   -0.1933   -1.6914 C   0  0  0  0  0  0  0  0  0  0  0  0
    1.2775    0.6721   -1.7669 H   0  0  0  0  0  0  0  0  0  0  0  0
    1.2085   -1.0806   -1.9221 H   0  0  0  0  0  0  0  0  0  0  0  0
   -0.4566   -0.0868   -2.7754 C   0  0  0  0  0  0  0  0  0  0  0  0
   -1.0764   -1.0822   -3.1112 O   0  0  0  0  0  0  0  0  0  0  0  0
   -0.6395    1.1243   -3.3432 O   0  0  0  0  0  0  0  0  0  0  0  0
   -1.3533    1.0023   -3.9869 H   0  0  0  0  0  0  0  0  0  0  0  0
   -0.0605    1.0623    0.3960 C   0  0  0  0  0  0  0  0  0  0  0  0
   -1.0303    1.7603    0.1267 O   0  0  0  0  0  0  0  0  0  0  0  0
    0.8901    1.5305    1.2845 N   0  0  0  0  0  0  0  0  0  0  0  0
    1.6460    0.9026    1.5433 H   0  0  0  0  0  0  0  0  0  0  0  0
    0.7873    2.8216    1.9543 C   0  0  0  0  0  0  0  0  0  0  0  0
   -0.1185    2.8637    2.5685 H   0  0  0  0  0  0  0  0  0  0  0  0
    1.6536    2.9813    2.6035 H   0  0  0  0  0  0  0  0  0  0  0  0
    0.7525    3.6330    1.2195 H   0  0  0  0  0  0  0  0  0  0  0  0
  1  2  1  0  0  0  0
  2  3  1  0  0  0  0
  2  4  1  0  0  0  0
  2  5  1  0  0  0  0
  5  6  2  0  0  0  0
  5  7  1  0  0  0  0
  7  8  1  0  0  0  0
  7  9  1  0  0  0  0
  9 10  1  0  0  0  0
  9 11  1  0  0  0  0
  9 18  1  0  0  0  0
 11 12  1  0  0  0  0
 11 13  1  0  0  0  0
 11 14  1  0  0  0  0
 14 15  2  0  0  0  0
 14 16  1  0  0  0  0
 16 17  1  0  0  0  0
 18 19  2  0  0  0  0
 18 20  1  0  0  0  0
 20 21  1  0  0  0  0
 20 22  1  0  0  0  0
 22 23  1  0  0  0  0
 22 24  1  0  0  0  0
 22 25  1  0  0  0  0
M  END
$$$$

  -OEChem-03222214023D

 25 24  0     1  0  0  0  0  0999 V2000
   -2.7046   -4.0478    0.4213 H   0  0  0  0  0  0  0  0  0  0  0  0
   -2.7570   -3.0020    0.1065 C   0  0  0  0  0  0  0  0  0  0  0  0
   -3.4838   -2.4796    0.7331 H   0  0  0  0  0  0  0  0  0  0  0  0
   -3.0881   -2.9633   -0.9346 H   0  0  0  0  0  0  0  0  0  0  0  0
   -1.3952   -2.3470    0.2366 C   0  0  0  0  0  0  0  0  0  0  0  0
   -0.4476   -2.9804    0.6774 O   0  0  0  0  0  0  0  0  0  0  0  0
   -1.2277   -1.0349   -0.1526 N   0  0  0  0  0  0  0  0  0  0  0  0
   -2.0343   -0.5654   -0.5613 H   0  0  0  0  0  0  0  0  0  0  0  0
    0.0674   -0.3445   -0.2216 C   0  0  1  0  0  0  0  0  0  0  0  0
    0.8186   -0.8896    0.3593 H   0  0  0  0  0  0  0  0  0  0  0  0
    0.5865   -0.1881   -1.6748 C   0  0  0  0  0  0  0  0  0  0  0  0
    1.2579    0.6732   -1.7367 H   0  0  0  0  0  0  0  0  0  0  0  0
    1.1784   -1.0747   -1.9157 H   0  0  0  0  0  0  0  0  0  0  0  0
   -0.4660   -0.0639   -2.7782 C   0  0  0  0  0  0  0  0  0  0  0  0
   -1.2770   -0.9564   -2.9649 O   0  0  0  0  0  0  0  0  0  0  0  0
   -0.4185    1.0556   -3.5319 O   0  0  0  0  0  0  0  0  0  0  0  0
   -1.1559    0.9762   -4.1558 H   0  0  0  0  0  0  0  0  0  0  0  0
   -0.0695    1.0540    0.4124 C   0  0  0  0  0  0  0  0  0  0  0  0
   -1.0129    1.7733    0.1072 O   0  0  0  0  0  0  0  0  0  0  0  0
    0.8903    1.5258    1.2890 N   0  0  0  0  0  0  0  0  0  0  0  0
    1.6291    0.8873    1.5700 H   0  0  0  0  0  0  0  0  0  0  0  0
    0.8141    2.8365    1.9234 C   0  0  0  0  0  0  0  0  0  0  0  0
   -0.0887    2.9126    2.5386 H   0  0  0  0  0  0  0  0  0  0  0  0
    1.6854    2.9979    2.5655 H   0  0  0  0  0  0  0  0  0  0  0  0
    0.7928    3.6280    1.1667 H   0  0  0  0  0  0  0  0  0  0  0  0
  1  2  1  0  0  0  0
  2  3  1  0  0  0  0
  2  4  1  0  0  0  0
  2  5  1  0  0  0  0
  5  6  2  0  0  0  0
  5  7  1  0  0  0  0
  7  8  1  0  0  0  0
  7  9  1  0  0  0  0
  9 10  1  0  0  0  0
  9 11  1  0  0  0  0
  9 18  1  0  0  0  0
 11 12  1  0  0  0  0
 11 13  1  0  0  0  0
 11 14  1  0  0  0  0
 14 15  2  0  0  0  0
 14 16  1  0  0  0  0
 16 17  1  0  0  0  0
 18 19  2  0  0  0  0
 18 20  1  0  0  0  0
 20 21  1  0  0  0  0
 20 22  1  0  0  0  0
 22 23  1  0  0  0  0
 22 24  1  0  0  0  0
 22 25  1  0  0  0  0
M  END
$$$$

  -OEChem-03222214023D

 25 24  0     1  0  0  0  0  0999 V2000
   -2.6907   -4.0700    0.4265 H   0  0  0  0  0  0  0  0  0  0  0  0
   -2.7529   -3.0228    0.1179 C   0  0  0  0  0  0  0  0  0  0  0  0
   -3.4942   -2.5143    0.7390 H   0  0  0  0  0  0  0  0  0  0  0  0
   -3.0721   -2.9811   -0.9267 H   0  0  0  0  0  0  0  0  0  0  0  0
   -1.4020   -2.3503    0.2704 C   0  0  0  0  0  0  0  0  0  0  0  0
   -0.4560   -2.9699    0.7340 O   0  0  0  0  0  0  0  0  0  0  0  0
   -1.2427   -1.0395   -0.1262 N   0  0  0  0  0  0  0  0  0  0  0  0
   -2.0309   -0.6091   -0.6096 H   0  0  0  0  0  0  0  0  0  0  0  0
    0.0514   -0.3500   -0.2115 C   0  0  1  0  0  0  0  0  0  0  0  0
    0.8096   -0.8930    0.3622 H   0  0  0  0  0  0  0  0  0  0  0  0
    0.5613   -0.1844   -1.6696 C   0  0  0  0  0  0  0  0  0  0  0  0
    1.2354    0.6755   -1.7215 H   0  0  0  0  0  0  0  0  0  0  0  0
    1.1541   -1.0692   -1.9131 H   0  0  0  0  0  0  0  0  0  0  0  0
   -0.4713   -0.0494   -2.7952 C   0  0  0  0  0  0  0  0  0  0  0  0
   -1.4482   -0.7783   -2.8562 O   0  0  0  0  0  0  0  0  0  0  0  0
   -0.2104    0.9013   -3.7181 O   0  0  0  0  0  0  0  0  0  0  0  0
   -0.9573    0.8692   -4.3352 H   0  0  0  0  0  0  0  0  0  0  0  0
   -0.0790    1.0510    0.4193 C   0  0  0  0  0  0  0  0  0  0  0  0
   -1.0044    1.7853    0.0958 O   0  0  0  0  0  0  0  0  0  0  0  0
    0.8912    1.5235    1.2844 N   0  0  0  0  0  0  0  0  0  0  0  0
    1.6172    0.8761    1.5777 H   0  0  0  0  0  0  0  0  0  0  0  0
    0.8300    2.8400    1.9089 C   0  0  0  0  0  0  0  0  0  0  0  0
   -0.0779    2.9360    2.5137 H   0  0  0  0  0  0  0  0  0  0  0  0
    1.6966    2.9909    2.5597 H   0  0  0  0  0  0  0  0  0  0  0  0
    0.8301    3.6264    1.1467 H   0  0  0  0  0  0  0  0  0  0  0  0
  1  2  1  0  0  0  0
  2  3  1  0  0  0  0
  2  4  1  0  0  0  0
  2  5  1  0  0  0  0
  5  6  2  0  0  0  0
  5  7  1  0  0  0  0
  7  8  1  0  0  0  0
  7  9  1  0  0  0  0
  9 10  1  0  0  0  0
  9 11  1  0  0  0  0
  9 18  1  0  0  0  0
 11 12  1  0  0  0  0
 11 13  1  0  0  0  0
 11 14  1  0  0  0  0
 14 15  2  0  0  0  0
 14 16  1  0  0  0  0
 16 17  1  0  0  0  0
 18 19  2  0  0  0  0
 18 20  1  0  0  0  0
 20 21  1  0  0  0  0
 20 22  1  0  0  0  0
 22 23  1  0  0  0  0
 22 24  1  0  0  0  0
 22 25  1  0  0  0  0
M  END
$$$$

  -OEChem-03222214023D

 25 24  0     1  0  0  0  0  0999 V2000
   -2.6885   -4.0807    0.4312 H   0  0  0  0  0  0  0  0  0  0  0  0
   -2.7542   -3.0322    0.1282 C   0  0  0  0  0  0  0  0  0  0  0  0
   -3.4958   -2.5286    0.7528 H   0  0  0  0  0  0  0  0  0  0  0  0
   -3.0757   -2.9863   -0.9153 H   0  0  0  0  0  0  0  0  0  0  0  0
   -1.4051   -2.3562    0.2816 C   0  0  0  0  0  0  0  0  0  0  0  0
   -0.4566   -2.9744    0.7417 O   0  0  0  0  0  0  0  0  0  0  0  0
   -1.2502   -1.0451   -0.1137 N   0  0  0  0  0  0  0  0  0  0  0  0
   -2.0342   -0.6246   -0.6144 H   0  0  0  0  0  0  0  0  0  0  0  0
    0.0401   -0.3509   -0.2054 C   0  0  1  0  0  0  0  0  0  0  0  0
    0.8022   -0.8929    0.3639 H   0  0  0  0  0  0  0  0  0  0  0  0
    0.5452   -0.1809   -1.6662 C   0  0  0  0  0  0  0  0  0  0  0  0
    1.2162    0.6817   -1.7140 H   0  0  0  0  0  0  0  0  0  0  0  0
    1.1436   -1.0628   -1.9070 H   0  0  0  0  0  0  0  0  0  0  0  0
   -0.4708   -0.0460   -2.8098 C   0  0  0  0  0  0  0  0  0  0  0  0
   -1.5729   -0.5686   -2.7695 O   0  0  0  0  0  0  0  0  0  0  0  0
   -0.0455    0.6724   -3.8711 O   0  0  0  0  0  0  0  0  0  0  0  0
   -0.7948    0.6809   -4.4863 H   0  0  0  0  0  0  0  0  0  0  0  0
   -0.0873    1.0498    0.4270 C   0  0  0  0  0  0  0  0  0  0  0  0
   -1.0049    1.7916    0.0991 O   0  0  0  0  0  0  0  0  0  0  0  0
    0.8896    1.5204    1.2855 N   0  0  0  0  0  0  0  0  0  0  0  0
    1.6110    0.8689    1.5817 H   0  0  0  0  0  0  0  0  0  0  0  0
    0.8399    2.8415    1.9008 C   0  0  0  0  0  0  0  0  0  0  0  0
   -0.0635    2.9467    2.5107 H   0  0  0  0  0  0  0  0  0  0  0  0
    1.7119    2.9927    2.5445 H   0  0  0  0  0  0  0  0  0  0  0  0
    0.8386    3.6220    1.1324 H   0  0  0  0  0  0  0  0  0  0  0  0
  1  2  1  0  0  0  0
  2  3  1  0  0  0  0
  2  4  1  0  0  0  0
  2  5  1  0  0  0  0
  5  6  2  0  0  0  0
  5  7  1  0  0  0  0
  7  8  1  0  0  0  0
  7  9  1  0  0  0  0
  9 10  1  0  0  0  0
  9 11  1  0  0  0  0
  9 18  1  0  0  0  0
 11 12  1  0  0  0  0
 11 13  1  0  0  0  0
 11 14  1  0  0  0  0
 14 15  2  0  0  0  0
 14 16  1  0  0  0  0
 16 17  1  0  0  0  0
 18 19  2  0  0  0  0
 18 20  1  0  0  0  0
 20 21  1  0  0  0  0
 20 22  1  0  0  0  0
 22 23  1  0  0  0  0
 22 24  1  0  0  0  0
 22 25  1  0  0  0  0
M  END
$$$$

  -OEChem-03222214023D

 25 24  0     1  0  0  0  0  0999 V2000
   -2.6916   -4.0806    0.4393 H   0  0  0  0  0  0  0  0  0  0  0  0
   -2.7585   -3.0315    0.1383 C   0  0  0  0  0  0  0  0  0  0  0  0
   -3.4903   -2.5272    0.7739 H   0  0  0  0  0  0  0  0  0  0  0  0
   -3.0948   -2.9830   -0.9004 H   0  0  0  0  0  0  0  0  0  0  0  0
   -1.4054   -2.3595    0.2746 C   0  0  0  0  0  0  0  0  0  0  0  0
   -0.4508   -2.9828    0.7148 O   0  0  0  0  0  0  0  0  0  0  0  0
   -1.2519   -1.0468   -0.1159 N   0  0  0  0  0  0  0  0  0  0  0  0
   -2.0407   -0.6159   -0.6019 H   0  0  0  0  0  0  0  0  0  0  0  0
    0.0351   -0.3465   -0.2063 C   0  0  1  0  0  0  0  0  0  0  0  0
    0.7975   -0.8879    0.3633 H   0  0  0  0  0  0  0  0  0  0  0  0
    0.5402   -0.1805   -1.6673 C   0  0  0  0  0  0  0  0  0  0  0  0
    1.2074    0.6846   -1.7182 H   0  0  0  0  0  0  0  0  0  0  0  0
    1.1434   -1.0612   -1.9001 H   0  0  0  0  0  0  0  0  0  0  0  0
   -0.4658   -0.0549   -2.8213 C   0  0  0  0  0  0  0  0  0  0  0  0
   -1.6463   -0.3400   -2.7028 O   0  0  0  0  0  0  0  0  0  0  0  0
    0.0614    0.3841   -3.9843 O   0  0  0  0  0  0  0  0  0  0  0  0
   -0.6875    0.4285   -4.5988 H   0  0  0  0  0  0  0  0  0  0  0  0
   -0.0907    1.0531    0.4291 C   0  0  0  0  0  0  0  0  0  0  0  0
   -1.0095    1.7964    0.1096 O   0  0  0  0  0  0  0  0  0  0  0  0
    0.8894    1.5208    1.2856 N   0  0  0  0  0  0  0  0  0  0  0  0
    1.6087    0.8667    1.5808 H   0  0  0  0  0  0  0  0  0  0  0  0
    0.8423    2.8405    1.9042 C   0  0  0  0  0  0  0  0  0  0  0  0
   -0.0572    2.9434    2.5205 H   0  0  0  0  0  0  0  0  0  0  0  0
    1.7183    2.9910    2.5422 H   0  0  0  0  0  0  0  0  0  0  0  0
    0.8355    3.6227    1.1377 H   0  0  0  0  0  0  0  0  0  0  0  0
  1  2  1  0  0  0  0
  2  3  1  0  0  0  0
  2  4  1  0  0  0  0
  2  5  1  0  0  0  0
  5  6  2  0  0  0  0
  5  7  1  0  0  0  0
  7  8  1  0  0  0  0
  7  9  1  0  0  0  0
  9 10  1  0  0  0  0
  9 11  1  0  0  0  0
  9 18  1  0  0  0  0
 11 12  1  0  0  0  0
 11 13  1  0  0  0  0
 11 14  1  0  0  0  0
 14 15  2  0  0  0  0
 14 16  1  0  0  0  0
 16 17  1  0  0  0  0
 18 19  2  0  0  0  0
 18 20  1  0  0  0  0
 20 21  1  0  0  0  0
 20 22  1  0  0  0  0
 22 23  1  0  0  0  0
 22 24  1  0  0  0  0
 22 25  1  0  0  0  0
M  END
$$$$

  -OEChem-03222214023D

 25 24  0     1  0  0  0  0  0999 V2000
   -2.6976   -4.0688    0.4414 H   0  0  0  0  0  0  0  0  0  0  0  0
   -2.7625   -3.0199    0.1399 C   0  0  0  0  0  0  0  0  0  0  0  0
   -3.4800   -2.5101    0.7873 H   0  0  0  0  0  0  0  0  0  0  0  0
   -3.1157   -2.9706   -0.8932 H   0  0  0  0  0  0  0  0  0  0  0  0
   -1.4030   -2.3570    0.2531 C   0  0  0  0  0  0  0  0  0  0  0  0
   -0.4433   -2.9897    0.6675 O   0  0  0  0  0  0  0  0  0  0  0  0
   -1.2486   -1.0426   -0.1305 N   0  0  0  0  0  0  0  0  0  0  0  0
   -2.0475   -0.5910   -0.5806 H   0  0  0  0  0  0  0  0  0  0  0  0
    0.0347   -0.3346   -0.2119 C   0  0  1  0  0  0  0  0  0  0  0  0
    0.7939   -0.8753    0.3625 H   0  0  0  0  0  0  0  0  0  0  0  0
    0.5456   -0.1844   -1.6711 C   0  0  0  0  0  0  0  0  0  0  0  0
    1.2075    0.6838   -1.7338 H   0  0  0  0  0  0  0  0  0  0  0  0
    1.1530   -1.0665   -1.8880 H   0  0  0  0  0  0  0  0  0  0  0  0
   -0.4594   -0.0811   -2.8274 C   0  0  0  0  0  0  0  0  0  0  0  0
   -1.6670   -0.1115   -2.6557 O   0  0  0  0  0  0  0  0  0  0  0  0
    0.0970    0.0487   -4.0507 O   0  0  0  0  0  0  0  0  0  0  0  0
   -0.6531    0.1200   -4.6612 H   0  0  0  0  0  0  0  0  0  0  0  0
   -0.0884    1.0648    0.4256 C   0  0  0  0  0  0  0  0  0  0  0  0
   -1.0163    1.8047    0.1268 O   0  0  0  0  0  0  0  0  0  0  0  0
    0.8929    1.5277    1.2840 N   0  0  0  0  0  0  0  0  0  0  0  0
    1.6170    0.8742    1.5685 H   0  0  0  0  0  0  0  0  0  0  0  0
    0.8390    2.8379    1.9222 C   0  0  0  0  0  0  0  0  0  0  0  0
   -0.0566    2.9236    2.5466 H   0  0  0  0  0  0  0  0  0  0  0  0
    1.7186    2.9871    2.5558 H   0  0  0  0  0  0  0  0  0  0  0  0
    0.8193    3.6312    1.1676 H   0  0  0  0  0  0  0  0  0  0  0  0
  1  2  1  0  0  0  0
  2  3  1  0  0  0  0
  2  4  1  0  0  0  0
  2  5  1  0  0  0  0
  5  6  2  0  0  0  0
  5  7  1  0  0  0  0
  7  8  1  0  0  0  0
  7  9  1  0  0  0  0
  9 10  1  0  0  0  0
  9 11  1  0  0  0  0
  9 18  1  0  0  0  0
 11 12  1  0  0  0  0
 11 13  1  0  0  0  0
 11 14  1  0  0  0  0
 14 15  2  0  0  0  0
 14 16  1  0  0  0  0
 16 17  1  0  0  0  0
 18 19  2  0  0  0  0
 18 20  1  0  0  0  0
 20 21  1  0  0  0  0
 20 22  1  0  0  0  0
 22 23  1  0  0  0  0
 22 24  1  0  0  0  0
 22 25  1  0  0  0  0
M  END
$$$$

  -OEChem-03222214023D

 25 24  0     1  0  0  0  0  0999 V2000
   -2.7082   -4.0494    0.4411 H   0  0  0  0  0  0  0  0  0  0  0  0
   -2.7674   -2.9996    0.1410 C   0  0  0  0  0  0  0  0  0  0  0  0
   -3.4638   -2.4810    0.8046 H   0  0  0  0  0  0  0  0  0  0  0  0
   -3.1437   -2.9456   -0.8836 H   0  0  0  0  0  0  0  0  0  0  0  0
   -1.3979   -2.3528    0.2220 C   0  0  0  0  0  0  0  0  0  0  0  0
   -0.4338   -2.9982    0.6048 O   0  0  0  0  0  0  0  0  0  0  0  0
   -1.2401   -1.0368   -0.1545 N   0  0  0  0  0  0  0  0  0  0  0  0
   -2.0514   -0.5581   -0.5509 H   0  0  0  0  0  0  0  0  0  0  0  0
    0.0403   -0.3216   -0.2218 C   0  0  1  0  0  0  0  0  0  0  0  0
    0.7928   -0.8614    0.3623 H   0  0  0  0  0  0  0  0  0  0  0  0
    0.5631   -0.1919   -1.6768 C   0  0  0  0  0  0  0  0  0  0  0  0
    1.2179    0.6800   -1.7540 H   0  0  0  0  0  0  0  0  0  0  0  0
    1.1771   -1.0738   -1.8764 H   0  0  0  0  0  0  0  0  0  0  0  0
   -0.4490   -0.1157   -2.8267 C   0  0  0  0  0  0  0  0  0  0  0  0
   -1.6314    0.1150   -2.6358 O   0  0  0  0  0  0  0  0  0  0  0  0
    0.0663   -0.3042   -4.0605 O   0  0  0  0  0  0  0  0  0  0  0  0
   -0.6853   -0.2032   -4.6649 H   0  0  0  0  0  0  0  0  0  0  0  0
   -0.0846    1.0773    0.4173 C   0  0  0  0  0  0  0  0  0  0  0  0
   -1.0296    1.8063    0.1483 O   0  0  0  0  0  0  0  0  0  0  0  0
    0.8936    1.5355    1.2816 N   0  0  0  0  0  0  0  0  0  0  0  0
    1.6294    0.8873    1.5478 H   0  0  0  0  0  0  0  0  0  0  0  0
    0.8277    2.8337    1.9426 C   0  0  0  0  0  0  0  0  0  0  0  0
   -0.0676    2.8994    2.5700 H   0  0  0  0  0  0  0  0  0  0  0  0
    1.7068    2.9806    2.5774 H   0  0  0  0  0  0  0  0  0  0  0  0
    0.7985    3.6399    1.2019 H   0  0  0  0  0  0  0  0  0  0  0  0
  1  2  1  0  0  0  0
  2  3  1  0  0  0  0
  2  4  1  0  0  0  0
  2  5  1  0  0  0  0
  5  6  2  0  0  0  0
  5  7  1  0  0  0  0
  7  8  1  0  0  0  0
  7  9  1  0  0  0  0
  9 10  1  0  0  0  0
  9 11  1  0  0  0  0
  9 18  1  0  0  0  0
 11 12  1  0  0  0  0
 11 13  1  0  0  0  0
 11 14  1  0  0  0  0
 14 15  2  0  0  0  0
 14 16  1  0  0  0  0
 16 17  1  0  0  0  0
 18 19  2  0  0  0  0
 18 20  1  0  0  0  0
 20 21  1  0  0  0  0
 20 22  1  0  0  0  0
 22 23  1  0  0  0  0
 22 24  1  0  0  0  0
 22 25  1  0  0  0  0
M  END
$$$$

  -OEChem-03222214023D

 25 24  0     1  0  0  0  0  0999 V2000
   -2.7178   -4.0231    0.4502 H   0  0  0  0  0  0  0  0  0  0  0  0
   -2.7732   -2.9740    0.1472 C   0  0  0  0  0  0  0  0  0  0  0  0
   -3.4417   -2.4440    0.8300 H   0  0  0  0  0  0  0  0  0  0  0  0
   -3.1806   -2.9195   -0.8652 H   0  0  0  0  0  0  0  0  0  0  0  0
   -1.3936   -2.3449    0.1829 C   0  0  0  0  0  0  0  0  0  0  0  0
   -0.4246   -3.0048    0.5260 O   0  0  0  0  0  0  0  0  0  0  0  0
   -1.2317   -1.0276   -0.1879 N   0  0  0  0  0  0  0  0  0  0  0  0
   -2.0562   -0.5170   -0.5091 H   0  0  0  0  0  0  0  0  0  0  0  0
    0.0484   -0.3094   -0.2384 C   0  0  1  0  0  0  0  0  0  0  0  0
    0.7905   -0.8489    0.3591 H   0  0  0  0  0  0  0  0  0  0  0  0
    0.5905   -0.2028   -1.6857 C   0  0  0  0  0  0  0  0  0  0  0  0
    1.2403    0.6711   -1.7761 H   0  0  0  0  0  0  0  0  0  0  0  0
    1.2082   -1.0866   -1.8660 H   0  0  0  0  0  0  0  0  0  0  0  0
   -0.4311   -0.1514   -2.8252 C   0  0  0  0  0  0  0  0  0  0  0  0
   -1.5363    0.3352   -2.6611 O   0  0  0  0  0  0  0  0  0  0  0  0
   -0.0199   -0.6474   -4.0120 O   0  0  0  0  0  0  0  0  0  0  0  0
   -0.7693   -0.5143   -4.6128 H   0  0  0  0  0  0  0  0  0  0  0  0
   -0.0790    1.0895    0.4016 C   0  0  0  0  0  0  0  0  0  0  0  0
   -1.0493    1.7988    0.1738 O   0  0  0  0  0  0  0  0  0  0  0  0
    0.8929    1.5440    1.2754 N   0  0  0  0  0  0  0  0  0  0  0  0
    1.6442    0.9057    1.5205 H   0  0  0  0  0  0  0  0  0  0  0  0
    0.8073    2.8263    1.9652 C   0  0  0  0  0  0  0  0  0  0  0  0
   -0.0756    2.8549    2.6126 H   0  0  0  0  0  0  0  0  0  0  0  0
    1.6960    2.9839    2.5839 H   0  0  0  0  0  0  0  0  0  0  0  0
    0.7408    3.6468    1.2426 H   0  0  0  0  0  0  0  0  0  0  0  0
  1  2  1  0  0  0  0
  2  3  1  0  0  0  0
  2  4  1  0  0  0  0
  2  5  1  0  0  0  0
  5  6  2  0  0  0  0
  5  7  1  0  0  0  0
  7  8  1  0  0  0  0
  7  9  1  0  0  0  0
  9 10  1  0  0  0  0
  9 11  1  0  0  0  0
  9 18  1  0  0  0  0
 11 12  1  0  0  0  0
 11 13  1  0  0  0  0
 11 14  1  0  0  0  0
 14 15  2  0  0  0  0
 14 16  1  0  0  0  0
 16 17  1  0  0  0  0
 18 19  2  0  0  0  0
 18 20  1  0  0  0  0
 20 21  1  0  0  0  0
 20 22  1  0  0  0  0
 22 23  1  0  0  0  0
 22 24  1  0  0  0  0
 22 25  1  0  0  0  0
M  END
$$$$

  -OEChem-03222214023D

 25 24  0     1  0  0  0  0  0999 V2000
   -2.7248   -3.9912    0.4711 H   0  0  0  0  0  0  0  0  0  0  0  0
   -2.7766   -2.9427    0.1649 C   0  0  0  0  0  0  0  0  0  0  0  0
   -3.4126   -2.4004    0.8688 H   0  0  0  0  0  0  0  0  0  0  0  0
   -3.2198   -2.8876   -0.8323 H   0  0  0  0  0  0  0  0  0  0  0  0
   -1.3879   -2.3332    0.1474 C   0  0  0  0  0  0  0  0  0  0  0  0
   -0.4161   -3.0069    0.4534 O   0  0  0  0  0  0  0  0  0  0  0  0
   -1.2216   -1.0160   -0.2227 N   0  0  0  0  0  0  0  0  0  0  0  0
   -2.0557   -0.4756   -0.4571 H   0  0  0  0  0  0  0  0  0  0  0  0
    0.0610   -0.3008   -0.2610 C   0  0  1  0  0  0  0  0  0  0  0  0
    0.7927   -0.8399    0.3500 H   0  0  0  0  0  0  0  0  0  0  0  0
    0.6216   -0.2155   -1.7001 C   0  0  0  0  0  0  0  0  0  0  0  0
    1.2701    0.6583   -1.8007 H   0  0  0  0  0  0  0  0  0  0  0  0
    1.2405   -1.1015   -1.8654 H   0  0  0  0  0  0  0  0  0  0  0  0
   -0.4099   -0.1800   -2.8274 C   0  0  0  0  0  0  0  0  0  0  0  0
   -1.3883    0.5393   -2.7409 O   0  0  0  0  0  0  0  0  0  0  0  0
   -0.1606   -0.9527   -3.9067 O   0  0  0  0  0  0  0  0  0  0  0  0
   -0.9008   -0.7860   -4.5102 H   0  0  0  0  0  0  0  0  0  0  0  0
   -0.0723    1.0983    0.3777 C   0  0  0  0  0  0  0  0  0  0  0  0
   -1.0714    1.7797    0.1922 O   0  0  0  0  0  0  0  0  0  0  0  0
    0.8914    1.5517    1.2610 N   0  0  0  0  0  0  0  0  0  0  0  0
    1.6641    0.9293    1.4789 H   0  0  0  0  0  0  0  0  0  0  0  0
    0.7766    2.8109    1.9878 C   0  0  0  0  0  0  0  0  0  0  0  0
   -0.1051    2.7991    2.6373 H   0  0  0  0  0  0  0  0  0  0  0  0
    1.6627    2.9719    2.6092 H   0  0  0  0  0  0  0  0  0  0  0  0
    0.6879    3.6498    1.2893 H   0  0  0  0  0  0  0  0  0  0  0  0
  1  2  1  0  0  0  0
  2  3  1  0  0  0  0
  2  4  1  0  0  0  0
  2  5  1  0  0  0  0
  5  6  2  0  0  0  0
  5  7  1  0  0  0  0
  7  8  1  0  0  0  0
  7  9  1  0  0  0  0
  9 10  1  0  0  0  0
  9 11  1  0  0  0  0
  9 18  1  0  0  0  0
 11 12  1  0  0  0  0
 11 13  1  0  0  0  0
 11 14  1  0  0  0  0
 14 15  2  0  0  0  0
 14 16  1  0  0  0  0
 16 17  1  0  0  0  0
 18 19  2  0  0  0  0
 18 20  1  0  0  0  0
 20 21  1  0  0  0  0
 20 22  1  0  0  0  0
 22 23  1  0  0  0  0
 22 24  1  0  0  0  0
 22 25  1  0  0  0  0
M  END
$$$$

  -OEChem-03222214023D

 25 24  0     1  0  0  0  0  0999 V2000
   -2.7293   -3.9695    0.5005 H   0  0  0  0  0  0  0  0  0  0  0  0
   -2.7786   -2.9233    0.1863 C   0  0  0  0  0  0  0  0  0  0  0  0
   -3.3882   -2.3681    0.9035 H   0  0  0  0  0  0  0  0  0  0  0  0
   -3.2496   -2.8722   -0.7983 H   0  0  0  0  0  0  0  0  0  0  0  0
   -1.3843   -2.3299    0.1231 C   0  0  0  0  0  0  0  0  0  0  0  0
   -0.4117   -3.0145    0.4011 O   0  0  0  0  0  0  0  0  0  0  0  0
   -1.2148   -1.0132   -0.2484 N   0  0  0  0  0  0  0  0  0  0  0  0
   -2.0521   -0.4516   -0.4090 H   0  0  0  0  0  0  0  0  0  0  0  0
    0.0721   -0.3041   -0.2767 C   0  0  1  0  0  0  0  0  0  0  0  0
    0.7956   -0.8440    0.3432 H   0  0  0  0  0  0  0  0  0  0  0  0
    0.6475   -0.2250   -1.7089 C   0  0  0  0  0  0  0  0  0  0  0  0
    1.2973    0.6481   -1.8087 H   0  0  0  0  0  0  0  0  0  0  0  0
    1.2646   -1.1124   -1.8724 H   0  0  0  0  0  0  0  0  0  0  0  0
   -0.3900   -0.1882   -2.8272 C   0  0  0  0  0  0  0  0  0  0  0  0
   -1.2002    0.7188   -2.8611 O   0  0  0  0  0  0  0  0  0  0  0  0
   -0.3462   -1.1717   -3.7522 O   0  0  0  0  0  0  0  0  0  0  0  0
   -1.0645   -0.9665   -4.3698 H   0  0  0  0  0  0  0  0  0  0  0  0
   -0.0701    1.0943    0.3609 C   0  0  0  0  0  0  0  0  0  0  0  0
   -1.0876    1.7536    0.1943 O   0  0  0  0  0  0  0  0  0  0  0  0
    0.8828    1.5496    1.2546 N   0  0  0  0  0  0  0  0  0  0  0  0
    1.6694    0.9404    1.4600 H   0  0  0  0  0  0  0  0  0  0  0  0
    0.7503    2.8005    1.9925 C   0  0  0  0  0  0  0  0  0  0  0  0
   -0.1319    2.7716    2.6407 H   0  0  0  0  0  0  0  0  0  0  0  0
    1.6333    2.9676    2.6168 H   0  0  0  0  0  0  0  0  0  0  0  0
    0.6515    3.6443    1.3013 H   0  0  0  0  0  0  0  0  0  0  0  0
  1  2  1  0  0  0  0
  2  3  1  0  0  0  0
  2  4  1  0  0  0  0
  2  5  1  0  0  0  0
  5  6  2  0  0  0  0
  5  7  1  0  0  0  0
  7  8  1  0  0  0  0
  7  9  1  0  0  0  0
  9 10  1  0  0  0  0
  9 11  1  0  0  0  0
  9 18  1  0  0  0  0
 11 12  1  0  0  0  0
 11 13  1  0  0  0  0
 11 14  1  0  0  0  0
 14 15  2  0  0  0  0
 14 16  1  0  0  0  0
 16 17  1  0  0  0  0
 18 19  2  0  0  0  0
 18 20  1  0  0  0  0
 20 21  1  0  0  0  0
 20 22  1  0  0  0  0
 22 23  1  0  0  0  0
 22 24  1  0  0  0  0
 22 25  1  0  0  0  0
M  END
$$$$

  -OEChem-03222214023D

 25 24  0     1  0  0  0  0  0999 V2000
   -2.7313   -3.9620    0.5237 H   0  0  0  0  0  0  0  0  0  0  0  0
   -2.7773   -2.9183    0.2008 C   0  0  0  0  0  0  0  0  0  0  0  0
   -3.3769   -2.3531    0.9184 H   0  0  0  0  0  0  0  0  0  0  0  0
   -3.2572   -2.8737   -0.7798 H   0  0  0  0  0  0  0  0  0  0  0  0
   -1.3802   -2.3331    0.1195 C   0  0  0  0  0  0  0  0  0  0  0  0
   -0.4092   -3.0211    0.3947 O   0  0  0  0  0  0  0  0  0  0  0  0
   -1.2076   -1.0176   -0.2568 N   0  0  0  0  0  0  0  0  0  0  0  0
   -2.0444   -0.4477   -0.3856 H   0  0  0  0  0  0  0  0  0  0  0  0
    0.0836   -0.3152   -0.2816 C   0  0  1  0  0  0  0  0  0  0  0  0
    0.8054   -0.8546    0.3407 H   0  0  0  0  0  0  0  0  0  0  0  0
    0.6606   -0.2324   -1.7121 C   0  0  0  0  0  0  0  0  0  0  0  0
    1.3147    0.6383   -1.8083 H   0  0  0  0  0  0  0  0  0  0  0  0
    1.2724   -1.1219   -1.8844 H   0  0  0  0  0  0  0  0  0  0  0  0
   -0.3852   -0.1844   -2.8205 C   0  0  0  0  0  0  0  0  0  0  0  0
   -0.9988    0.8499   -3.0031 O   0  0  0  0  0  0  0  0  0  0  0  0
   -0.5738   -1.2962   -3.5647 O   0  0  0  0  0  0  0  0  0  0  0  0
   -1.2580   -1.0536   -4.2070 H   0  0  0  0  0  0  0  0  0  0  0  0
   -0.0661    1.0837    0.3524 C   0  0  0  0  0  0  0  0  0  0  0  0
   -1.0878    1.7347    0.1769 O   0  0  0  0  0  0  0  0  0  0  0  0
    0.8769    1.5455    1.2531 N   0  0  0  0  0  0  0  0  0  0  0  0
    1.6676    0.9431    1.4627 H   0  0  0  0  0  0  0  0  0  0  0  0
    0.7328    2.7978    1.9866 C   0  0  0  0  0  0  0  0  0  0  0  0
   -0.1568    2.7686    2.6248 H   0  0  0  0  0  0  0  0  0  0  0  0
    1.6080    2.9678    2.6208 H   0  0  0  0  0  0  0  0  0  0  0  0
    0.6408    3.6400    1.2925 H   0  0  0  0  0  0  0  0  0  0  0  0
  1  2  1  0  0  0  0
  2  3  1  0  0  0  0
  2  4  1  0  0  0  0
  2  5  1  0  0  0  0
  5  6  2  0  0  0  0
  5  7  1  0  0  0  0
  7  8  1  0  0  0  0
  7  9  1  0  0  0  0
  9 10  1  0  0  0  0
  9 11  1  0  0  0  0
  9 18  1  0  0  0  0
 11 12  1  0  0  0  0
 11 13  1  0  0  0  0
 11 14  1  0  0  0  0
 14 15  2  0  0  0  0
 14 16  1  0  0  0  0
 16 17  1  0  0  0  0
 18 19  2  0  0  0  0
 18 20  1  0  0  0  0
 20 21  1  0  0  0  0
 20 22  1  0  0  0  0
 22 23  1  0  0  0  0
 22 24  1  0  0  0  0
 22 25  1  0  0  0  0
M  END
$$$$

  -OEChem-03222214023D

 25 24  0     1  0  0  0  0  0999 V2000
   -2.7236   -3.9764    0.5298 H   0  0  0  0  0  0  0  0  0  0  0  0
   -2.7724   -2.9342    0.2024 C   0  0  0  0  0  0  0  0  0  0  0  0
   -3.3859   -2.3708    0.9094 H   0  0  0  0  0  0  0  0  0  0  0  0
   -3.2381   -2.8963   -0.7854 H   0  0  0  0  0  0  0  0  0  0  0  0
   -1.3780   -2.3409    0.1380 C   0  0  0  0  0  0  0  0  0  0  0  0
   -0.4074   -3.0227    0.4299 O   0  0  0  0  0  0  0  0  0  0  0  0
   -1.2075   -1.0262   -0.2425 N   0  0  0  0  0  0  0  0  0  0  0  0
   -2.0451   -0.4603   -0.3790 H   0  0  0  0  0  0  0  0  0  0  0  0
    0.0848   -0.3259   -0.2728 C   0  0  1  0  0  0  0  0  0  0  0  0
    0.8111   -0.8648    0.3444 H   0  0  0  0  0  0  0  0  0  0  0  0
    0.6525   -0.2312   -1.7064 C   0  0  0  0  0  0  0  0  0  0  0  0
    1.3107    0.6373   -1.7977 H   0  0  0  0  0  0  0  0  0  0  0  0
    1.2577   -1.1219   -1.8935 H   0  0  0  0  0  0  0  0  0  0  0  0
   -0.4014   -0.1709   -2.8061 C   0  0  0  0  0  0  0  0  0  0  0  0
   -0.8096    0.9203   -3.1563 O   0  0  0  0  0  0  0  0  0  0  0  0
   -0.8145   -1.3295   -3.3663 O   0  0  0  0  0  0  0  0  0  0  0  0
   -1.4544   -1.0632   -4.0440 H   0  0  0  0  0  0  0  0  0  0  0  0
   -0.0670    1.0732    0.3588 C   0  0  0  0  0  0  0  0  0  0  0  0
   -1.0827    1.7279    0.1621 O   0  0  0  0  0  0  0  0  0  0  0  0
    0.8744    1.5408    1.2580 N   0  0  0  0  0  0  0  0  0  0  0  0
    1.6663    0.9411    1.4707 H   0  0  0  0  0  0  0  0  0  0  0  0
    0.7378    2.8053    1.9715 C   0  0  0  0  0  0  0  0  0  0  0  0
   -0.1758    2.8087    2.5754 H   0  0  0  0  0  0  0  0  0  0  0  0
    1.5924    2.9581    2.6377 H   0  0  0  0  0  0  0  0  0  0  0  0
    0.6961    3.6412    1.2651 H   0  0  0  0  0  0  0  0  0  0  0  0
  1  2  1  0  0  0  0
  2  3  1  0  0  0  0
  2  4  1  0  0  0  0
  2  5  1  0  0  0  0
  5  6  2  0  0  0  0
  5  7  1  0  0  0  0
  7  8  1  0  0  0  0
  7  9  1  0  0  0  0
  9 10  1  0  0  0  0
  9 11  1  0  0  0  0
  9 18  1  0  0  0  0
 11 12  1  0  0  0  0
 11 13  1  0  0  0  0
 11 14  1  0  0  0  0
 14 15  2  0  0  0  0
 14 16  1  0  0  0  0
 16 17  1  0  0  0  0
 18 19  2  0  0  0  0
 18 20  1  0  0  0  0
 20 21  1  0  0  0  0
 20 22  1  0  0  0  0
 22 23  1  0  0  0  0
 22 24  1  0  0  0  0
 22 25  1  0  0  0  0
M  END
$$$$

  -OEChem-03222214023D

 25 24  0     1  0  0  0  0  0999 V2000
   -2.7264   -3.9862    0.5612 H   0  0  0  0  0  0  0  0  0  0  0  0
   -2.7742   -2.9467    0.2252 C   0  0  0  0  0  0  0  0  0  0  0  0
   -3.3889   -2.3773    0.9265 H   0  0  0  0  0  0  0  0  0  0  0  0
   -3.2380   -2.9166   -0.7638 H   0  0  0  0  0  0  0  0  0  0  0  0
   -1.3797   -2.3537    0.1584 C   0  0  0  0  0  0  0  0  0  0  0  0
   -0.4089   -3.0341    0.4531 O   0  0  0  0  0  0  0  0  0  0  0  0
   -1.2105   -1.0392   -0.2229 N   0  0  0  0  0  0  0  0  0  0  0  0
   -2.0488   -0.4783   -0.3718 H   0  0  0  0  0  0  0  0  0  0  0  0
    0.0821   -0.3411   -0.2640 C   0  0  1  0  0  0  0  0  0  0  0  0
    0.8158   -0.8807    0.3439 H   0  0  0  0  0  0  0  0  0  0  0  0
    0.6390   -0.2240   -1.7011 C   0  0  0  0  0  0  0  0  0  0  0  0
    1.3041    0.6410   -1.7779 H   0  0  0  0  0  0  0  0  0  0  0  0
    1.2382   -1.1148   -1.9053 H   0  0  0  0  0  0  0  0  0  0  0  0
   -0.4131   -0.1434   -2.8030 C   0  0  0  0  0  0  0  0  0  0  0  0
   -0.6089    0.9397   -3.3221 O   0  0  0  0  0  0  0  0  0  0  0  0
   -1.0294   -1.2774   -3.2069 O   0  0  0  0  0  0  0  0  0  0  0  0
   -1.6125   -0.9982   -3.9291 H   0  0  0  0  0  0  0  0  0  0  0  0
   -0.0728    1.0557    0.3712 C   0  0  0  0  0  0  0  0  0  0  0  0
   -1.0806    1.7165    0.1534 O   0  0  0  0  0  0  0  0  0  0  0  0
    0.8688    1.5301    1.2665 N   0  0  0  0  0  0  0  0  0  0  0  0
    1.6599    0.9316    1.4857 H   0  0  0  0  0  0  0  0  0  0  0  0
    0.7411    2.8087    1.9565 C   0  0  0  0  0  0  0  0  0  0  0  0
   -0.1611    2.8214    2.5772 H   0  0  0  0  0  0  0  0  0  0  0  0
    1.6078    2.9781    2.6027 H   0  0  0  0  0  0  0  0  0  0  0  0
    0.6831    3.6301    1.2343 H   0  0  0  0  0  0  0  0  0  0  0  0
  1  2  1  0  0  0  0
  2  3  1  0  0  0  0
  2  4  1  0  0  0  0
  2  5  1  0  0  0  0
  5  6  2  0  0  0  0
  5  7  1  0  0  0  0
  7  8  1  0  0  0  0
  7  9  1  0  0  0  0
  9 10  1  0  0  0  0
  9 11  1  0  0  0  0
  9 18  1  0  0  0  0
 11 12  1  0  0  0  0
 11 13  1  0  0  0  0
 11 14  1  0  0  0  0
 14 15  2  0  0  0  0
 14 16  1  0  0  0  0
 16 17  1  0  0  0  0
 18 19  2  0  0  0  0
 18 20  1  0  0  0  0
 20 21  1  0  0  0  0
 20 22  1  0  0  0  0
 22 23  1  0  0  0  0
 22 24  1  0  0  0  0
 22 25  1  0  0  0  0
M  END
$$$$

  -OEChem-03222214023D

 25 24  0     1  0  0  0  0  0999 V2000
   -2.7208   -4.0068    0.5646 H   0  0  0  0  0  0  0  0  0  0  0  0
   -2.7713   -2.9662    0.2329 C   0  0  0  0  0  0  0  0  0  0  0  0
   -3.4085   -2.4065    0.9217 H   0  0  0  0  0  0  0  0  0  0  0  0
   -3.2113   -2.9355   -0.7668 H   0  0  0  0  0  0  0  0  0  0  0  0
   -1.3817   -2.3594    0.2021 C   0  0  0  0  0  0  0  0  0  0  0  0
   -0.4117   -3.0299    0.5216 O   0  0  0  0  0  0  0  0  0  0  0  0
   -1.2163   -1.0460   -0.1837 N   0  0  0  0  0  0  0  0  0  0  0  0
   -2.0548   -0.5036   -0.3875 H   0  0  0  0  0  0  0  0  0  0  0  0
    0.0743   -0.3477   -0.2487 C   0  0  1  0  0  0  0  0  0  0  0  0
    0.8210   -0.8867    0.3439 H   0  0  0  0  0  0  0  0  0  0  0  0
    0.6099   -0.2099   -1.6942 C   0  0  0  0  0  0  0  0  0  0  0  0
    1.2797    0.6529   -1.7615 H   0  0  0  0  0  0  0  0  0  0  0  0
    1.2041   -1.0999   -1.9146 H   0  0  0  0  0  0  0  0  0  0  0  0
   -0.4397   -0.1127   -2.8010 C   0  0  0  0  0  0  0  0  0  0  0  0
   -0.4321    0.8943   -3.4848 O   0  0  0  0  0  0  0  0  0  0  0  0
   -1.2463   -1.1684   -3.0582 O   0  0  0  0  0  0  0  0  0  0  0  0
   -1.7679   -0.8974   -3.8292 H   0  0  0  0  0  0  0  0  0  0  0  0
   -0.0765    1.0481    0.3880 C   0  0  0  0  0  0  0  0  0  0  0  0
   -1.0726    1.7206    0.1518 O   0  0  0  0  0  0  0  0  0  0  0  0
    0.8763    1.5276    1.2680 N   0  0  0  0  0  0  0  0  0  0  0  0
    1.6589    0.9213    1.4968 H   0  0  0  0  0  0  0  0  0  0  0  0
    0.7595    2.8133    1.9461 C   0  0  0  0  0  0  0  0  0  0  0  0
   -0.1397    2.8365    2.5707 H   0  0  0  0  0  0  0  0  0  0  0  0
    1.6300    2.9844    2.5866 H   0  0  0  0  0  0  0  0  0  0  0  0
    0.7025    3.6281    1.2166 H   0  0  0  0  0  0  0  0  0  0  0  0
  1  2  1  0  0  0  0
  2  3  1  0  0  0  0
  2  4  1  0  0  0  0
  2  5  1  0  0  0  0
  5  6  2  0  0  0  0
  5  7  1  0  0  0  0
  7  8  1  0  0  0  0
  7  9  1  0  0  0  0
  9 10  1  0  0  0  0
  9 11  1  0  0  0  0
  9 18  1  0  0  0  0
 11 12  1  0  0  0  0
 11 13  1  0  0  0  0
 11 14  1  0  0  0  0
 14 15  2  0  0  0  0
 14 16  1  0  0  0  0
 16 17  1  0  0  0  0
 18 19  2  0  0  0  0
 18 20  1  0  0  0  0
 20 21  1  0  0  0  0
 20 22  1  0  0  0  0
 22 23  1  0  0  0  0
 22 24  1  0  0  0  0
 22 25  1  0  0  0  0
M  END
$$$$

  -OEChem-03222214023D

 25 24  0     1  0  0  0  0  0999 V2000
   -2.7104   -4.0382    0.5624 H   0  0  0  0  0  0  0  0  0  0  0  0
   -2.7652   -2.9976    0.2309 C   0  0  0  0  0  0  0  0  0  0  0  0
   -3.4329   -2.4488    0.8994 H   0  0  0  0  0  0  0  0  0  0  0  0
   -3.1726   -2.9712   -0.7829 H   0  0  0  0  0  0  0  0  0  0  0  0
   -1.3850   -2.3690    0.2471 C   0  0  0  0  0  0  0  0  0  0  0  0
   -0.4157   -3.0243    0.5987 O   0  0  0  0  0  0  0  0  0  0  0  0
   -1.2266   -1.0557   -0.1409 N   0  0  0  0  0  0  0  0  0  0  0  0
   -2.0593   -0.5477   -0.4351 H   0  0  0  0  0  0  0  0  0  0  0  0
    0.0613   -0.3564   -0.2272 C   0  0  1  0  0  0  0  0  0  0  0  0
    0.8199   -0.8954    0.3501 H   0  0  0  0  0  0  0  0  0  0  0  0
    0.5778   -0.1925   -1.6794 C   0  0  0  0  0  0  0  0  0  0  0  0
    1.2524    0.6676   -1.7324 H   0  0  0  0  0  0  0  0  0  0  0  0
    1.1685   -1.0809   -1.9148 H   0  0  0  0  0  0  0  0  0  0  0  0
   -0.4598   -0.0729   -2.7998 C   0  0  0  0  0  0  0  0  0  0  0  0
   -0.2582    0.7986   -3.6257 O   0  0  0  0  0  0  0  0  0  0  0  0
   -1.4629   -0.9733   -2.9216 O   0  0  0  0  0  0  0  0  0  0  0  0
   -1.9274   -0.7111   -3.7315 H   0  0  0  0  0  0  0  0  0  0  0  0
   -0.0846    1.0383    0.4133 C   0  0  0  0  0  0  0  0  0  0  0  0
   -1.0629    1.7282    0.1533 O   0  0  0  0  0  0  0  0  0  0  0  0
    0.8794    1.5207    1.2793 N   0  0  0  0  0  0  0  0  0  0  0  0
    1.6508    0.9051    1.5209 H   0  0  0  0  0  0  0  0  0  0  0  0
    0.7876    2.8234    1.9279 C   0  0  0  0  0  0  0  0  0  0  0  0
   -0.0941    2.8668    2.5759 H   0  0  0  0  0  0  0  0  0  0  0  0
    1.6768    3.0055    2.5392 H   0  0  0  0  0  0  0  0  0  0  0  0
    0.7151    3.6204    1.1800 H   0  0  0  0  0  0  0  0  0  0  0  0
  1  2  1  0  0  0  0
  2  3  1  0  0  0  0
  2  4  1  0  0  0  0
  2  5  1  0  0  0  0
  5  6  2  0  0  0  0
  5  7  1  0  0  0  0
  7  8  1  0  0  0  0
  7  9  1  0  0  0  0
  9 10  1  0  0  0  0
  9 11  1  0  0  0  0
  9 18  1  0  0  0  0
 11 12  1  0  0  0  0
 11 13  1  0  0  0  0
 11 14  1  0  0  0  0
 14 15  2  0  0  0  0
 14 16  1  0  0  0  0
 16 17  1  0  0  0  0
 18 19  2  0  0  0  0
 18 20  1  0  0  0  0
 20 21  1  0  0  0  0
 20 22  1  0  0  0  0
 22 23  1  0  0  0  0
 22 24  1  0  0  0  0
 22 25  1  0  0  0  0
M  END
$$$$

  -OEChem-03222214023D

 25 24  0     1  0  0  0  0  0999 V2000
   -2.6858   -4.0724    0.5361 H   0  0  0  0  0  0  0  0  0  0  0  0
   -2.7494   -3.0296    0.2133 C   0  0  0  0  0  0  0  0  0  0  0  0
   -3.4531   -2.5015    0.8611 H   0  0  0  0  0  0  0  0  0  0  0  0
   -3.1186   -3.0004   -0.8149 H   0  0  0  0  0  0  0  0  0  0  0  0
   -1.3843   -2.3731    0.2897 C   0  0  0  0  0  0  0  0  0  0  0  0
   -0.4190   -3.0074    0.6879 O   0  0  0  0  0  0  0  0  0  0  0  0
   -1.2342   -1.0605   -0.1036 N   0  0  0  0  0  0  0  0  0  0  0  0
   -2.0485   -0.6003   -0.5093 H   0  0  0  0  0  0  0  0  0  0  0  0
    0.0515   -0.3609   -0.2058 C   0  0  1  0  0  0  0  0  0  0  0  0
    0.8204   -0.8988    0.3584 H   0  0  0  0  0  0  0  0  0  0  0  0
    0.5461   -0.1834   -1.6663 C   0  0  0  0  0  0  0  0  0  0  0  0
    1.2223    0.6758   -1.7150 H   0  0  0  0  0  0  0  0  0  0  0  0
    1.1346   -1.0705   -1.9118 H   0  0  0  0  0  0  0  0  0  0  0  0
   -0.4834   -0.0489   -2.7969 C   0  0  0  0  0  0  0  0  0  0  0  0
   -0.1244    0.6220   -3.7474 O   0  0  0  0  0  0  0  0  0  0  0  0
   -1.6722   -0.6972   -2.7748 O   0  0  0  0  0  0  0  0  0  0  0  0
   -2.0959   -0.4521   -3.6125 H   0  0  0  0  0  0  0  0  0  0  0  0
   -0.0879    1.0353    0.4334 C   0  0  0  0  0  0  0  0  0  0  0  0
   -1.0434    1.7458    0.1460 O   0  0  0  0  0  0  0  0  0  0  0  0
    0.8864    1.5181    1.2876 N   0  0  0  0  0  0  0  0  0  0  0  0
    1.6419    0.8904    1.5475 H   0  0  0  0  0  0  0  0  0  0  0  0
    0.8164    2.8331    1.9137 C   0  0  0  0  0  0  0  0  0  0  0  0
   -0.0770    2.9114    2.5423 H   0  0  0  0  0  0  0  0  0  0  0  0
    1.6969    3.0011    2.5412 H   0  0  0  0  0  0  0  0  0  0  0  0
    0.7809    3.6190    1.1517 H   0  0  0  0  0  0  0  0  0  0  0  0
  1  2  1  0  0  0  0
  2  3  1  0  0  0  0
  2  4  1  0  0  0  0
  2  5  1  0  0  0  0
  5  6  2  0  0  0  0
  5  7  1  0  0  0  0
  7  8  1  0  0  0  0
  7  9  1  0  0  0  0
  9 10  1  0  0  0  0
  9 11  1  0  0  0  0
  9 18  1  0  0  0  0
 11 12  1  0  0  0  0
 11 13  1  0  0  0  0
 11 14  1  0  0  0  0
 14 15  2  0  0  0  0
 14 16  1  0  0  0  0
 16 17  1  0  0  0  0
 18 19  2  0  0  0  0
 18 20  1  0  0  0  0
 20 21  1  0  0  0  0
 20 22  1  0  0  0  0
 22 23  1  0  0  0  0
 22 24  1  0  0  0  0
 22 25  1  0  0  0  0
M  END
$$$$

  -OEChem-03222214023D

 25 24  0     1  0  0  0  0  0999 V2000
   -2.6745   -4.0846    0.5245 H   0  0  0  0  0  0  0  0  0  0  0  0
   -2.7430   -3.0403    0.2072 C   0  0  0  0  0  0  0  0  0  0  0  0
   -3.4528   -2.5204    0.8551 H   0  0  0  0  0  0  0  0  0  0  0  0
   -3.1084   -3.0073   -0.8221 H   0  0  0  0  0  0  0  0  0  0  0  0
   -1.3820   -2.3761    0.2937 C   0  0  0  0  0  0  0  0  0  0  0  0
   -0.4155   -3.0068    0.6942 O   0  0  0  0  0  0  0  0  0  0  0  0
   -1.2352   -1.0626   -0.0976 N   0  0  0  0  0  0  0  0  0  0  0  0
   -2.0438   -0.6121   -0.5280 H   0  0  0  0  0  0  0  0  0  0  0  0
    0.0477   -0.3581   -0.2016 C   0  0  1  0  0  0  0  0  0  0  0  0
    0.8203   -0.8954    0.3583 H   0  0  0  0  0  0  0  0  0  0  0  0
    0.5336   -0.1808   -1.6656 C   0  0  0  0  0  0  0  0  0  0  0  0
    1.2039    0.6826   -1.7185 H   0  0  0  0  0  0  0  0  0  0  0  0
    1.1269   -1.0656   -1.9095 H   0  0  0  0  0  0  0  0  0  0  0  0
   -0.4912   -0.0498   -2.8021 C   0  0  0  0  0  0  0  0  0  0  0  0
   -0.0368    0.3658   -3.8525 O   0  0  0  0  0  0  0  0  0  0  0  0
   -1.7972   -0.3799   -2.6573 O   0  0  0  0  0  0  0  0  0  0  0  0
   -2.1972   -0.1659   -3.5149 H   0  0  0  0  0  0  0  0  0  0  0  0
   -0.0882    1.0383    0.4388 C   0  0  0  0  0  0  0  0  0  0  0  0
   -1.0351    1.7582    0.1463 O   0  0  0  0  0  0  0  0  0  0  0  0
    0.8912    1.5180    1.2892 N   0  0  0  0  0  0  0  0  0  0  0  0
    1.6365    0.8819    1.5584 H   0  0  0  0  0  0  0  0  0  0  0  0
    0.8264    2.8322    1.9179 C   0  0  0  0  0  0  0  0  0  0  0  0
   -0.0713    2.9159    2.5396 H   0  0  0  0  0  0  0  0  0  0  0  0
    1.7030    2.9923    2.5529 H   0  0  0  0  0  0  0  0  0  0  0  0
    0.8030    3.6200    1.1573 H   0  0  0  0  0  0  0  0  0  0  0  0
  1  2  1  0  0  0  0
  2  3  1  0  0  0  0
  2  4  1  0  0  0  0
  2  5  1  0  0  0  0
  5  6  2  0  0  0  0
  5  7  1  0  0  0  0
  7  8  1  0  0  0  0
  7  9  1  0  0  0  0
  9 10  1  0  0  0  0
  9 11  1  0  0  0  0
  9 18  1  0  0  0  0
 11 12  1  0  0  0  0
 11 13  1  0  0  0  0
 11 14  1  0  0  0  0
 14 15  2  0  0  0  0
 14 16  1  0  0  0  0
 16 17  1  0  0  0  0
 18 19  2  0  0  0  0
 18 20  1  0  0  0  0
 20 21  1  0  0  0  0
 20 22  1  0  0  0  0
 22 23  1  0  0  0  0
 22 24  1  0  0  0  0
 22 25  1  0  0  0  0
M  END
$$$$

  -OEChem-03222214023D

 25 24  0     1  0  0  0  0  0999 V2000
   -2.6752   -4.0531    0.4507 H   0  0  0  0  0  0  0  0  0  0  0  0
   -2.7448   -3.0042    0.1489 C   0  0  0  0  0  0  0  0  0  0  0  0
   -3.4215   -2.4848    0.8315 H   0  0  0  0  0  0  0  0  0  0  0  0
   -3.1512   -2.9541   -0.8643 H   0  0  0  0  0  0  0  0  0  0  0  0
   -1.3742   -2.3561    0.1886 C   0  0  0  0  0  0  0  0  0  0  0  0
   -0.3959   -3.0073    0.5213 O   0  0  0  0  0  0  0  0  0  0  0  0
   -1.2319   -1.0313   -0.1640 N   0  0  0  0  0  0  0  0  0  0  0  0
   -2.0621   -0.5305   -0.4849 H   0  0  0  0  0  0  0  0  0  0  0  0
    0.0394   -0.2999   -0.2187 C   0  0  1  0  0  0  0  0  0  0  0  0
    0.7969   -0.8459    0.3532 H   0  0  0  0  0  0  0  0  0  0  0  0
    0.5466   -0.1660   -1.6723 C   0  0  0  0  0  0  0  0  0  0  0  0
    1.3726    0.5498   -1.6978 H   0  0  0  0  0  0  0  0  0  0  0  0
    0.9436   -1.1392   -1.9724 H   0  0  0  0  0  0  0  0  0  0  0  0
   -0.4640    0.2441   -2.7493 C   0  0  0  0  0  0  0  0  0  0  0  0
   -0.0155    0.3368   -3.8774 O   0  0  0  0  0  0  0  0  0  0  0  0
   -1.7704    0.4537   -2.4627 O   0  0  0  0  0  0  0  0  0  0  0  0
   -2.1659    0.7496   -3.2967 H   0  0  0  0  0  0  0  0  0  0  0  0
   -0.0824    1.0897    0.4417 C   0  0  0  0  0  0  0  0  0  0  0  0
   -1.0471    1.8085    0.2175 O   0  0  0  0  0  0  0  0  0  0  0  0
    0.9005    1.5360    1.3068 N   0  0  0  0  0  0  0  0  0  0  0  0
    1.6586    0.8982    1.5322 H   0  0  0  0  0  0  0  0  0  0  0  0
    0.8389    2.8242    1.9879 C   0  0  0  0  0  0  0  0  0  0  0  0
   -0.0568    2.8844    2.6153 H   0  0  0  0  0  0  0  0  0  0  0  0
    1.7177    2.9579    2.6261 H   0  0  0  0  0  0  0  0  0  0  0  0
    0.8142    3.6412    1.2589 H   0  0  0  0  0  0  0  0  0  0  0  0
  1  2  1  0  0  0  0
  2  3  1  0  0  0  0
  2  4  1  0  0  0  0
  2  5  1  0  0  0  0
  5  6  2  0  0  0  0
  5  7  1  0  0  0  0
  7  8  1  0  0  0  0
  7  9  1  0  0  0  0
  9 10  1  0  0  0  0
  9 11  1  0  0  0  0
  9 18  1  0  0  0  0
 11 12  1  0  0  0  0
 11 13  1  0  0  0  0
 11 14  1  0  0  0  0
 14 15  2  0  0  0  0
 14 16  1  0  0  0  0
 16 17  1  0  0  0  0
 18 19  2  0  0  0  0
 18 20  1  0  0  0  0
 20 21  1  0  0  0  0
 20 22  1  0  0  0  0
 22 23  1  0  0  0  0
 22 24  1  0  0  0  0
 22 25  1  0  0  0  0
M  END
$$$$

  -OEChem-03222214023D

 25 24  0     1  0  0  0  0  0999 V2000
   -2.6803   -4.0193    0.4594 H   0  0  0  0  0  0  0  0  0  0  0  0
   -2.7530   -2.9697    0.1613 C   0  0  0  0  0  0  0  0  0  0  0  0
   -3.3982   -2.4454    0.8706 H   0  0  0  0  0  0  0  0  0  0  0  0
   -3.1990   -2.9164   -0.8348 H   0  0  0  0  0  0  0  0  0  0  0  0
   -1.3759   -2.3336    0.1461 C   0  0  0  0  0  0  0  0  0  0  0  0
   -0.3901   -2.9970    0.4284 O   0  0  0  0  0  0  0  0  0  0  0  0
   -1.2363   -1.0054   -0.1962 N   0  0  0  0  0  0  0  0  0  0  0  0
   -2.0803   -0.4783   -0.4237 H   0  0  0  0  0  0  0  0  0  0  0  0
    0.0333   -0.2689   -0.2422 C   0  0  1  0  0  0  0  0  0  0  0  0
    0.7800   -0.8156    0.3432 H   0  0  0  0  0  0  0  0  0  0  0  0
    0.5654   -0.1702   -1.6882 C   0  0  0  0  0  0  0  0  0  0  0  0
    1.3833    0.5539   -1.7216 H   0  0  0  0  0  0  0  0  0  0  0  0
    0.9764   -1.1475   -1.9566 H   0  0  0  0  0  0  0  0  0  0  0  0
   -0.4396    0.2059   -2.7799 C   0  0  0  0  0  0  0  0  0  0  0  0
   -0.0797    0.0054   -3.9258 O   0  0  0  0  0  0  0  0  0  0  0  0
   -1.6534    0.7151   -2.4726 O   0  0  0  0  0  0  0  0  0  0  0  0
   -2.0723    0.9104   -3.3241 H   0  0  0  0  0  0  0  0  0  0  0  0
   -0.0808    1.1191    0.4257 C   0  0  0  0  0  0  0  0  0  0  0  0
   -1.0782    1.8121    0.2769 O   0  0  0  0  0  0  0  0  0  0  0  0
    0.9088    1.5521    1.2902 N   0  0  0  0  0  0  0  0  0  0  0  0
    1.6850    0.9229    1.4737 H   0  0  0  0  0  0  0  0  0  0  0  0
    0.8281    2.8035    2.0351 C   0  0  0  0  0  0  0  0  0  0  0  0
   -0.0400    2.7970    2.7028 H   0  0  0  0  0  0  0  0  0  0  0  0
    1.7291    2.9423    2.6402 H   0  0  0  0  0  0  0  0  0  0  0  0
    0.7393    3.6530    1.3497 H   0  0  0  0  0  0  0  0  0  0  0  0
  1  2  1  0  0  0  0
  2  3  1  0  0  0  0
  2  4  1  0  0  0  0
  2  5  1  0  0  0  0
  5  6  2  0  0  0  0
  5  7  1  0  0  0  0
  7  8  1  0  0  0  0
  7  9  1  0  0  0  0
  9 10  1  0  0  0  0
  9 11  1  0  0  0  0
  9 18  1  0  0  0  0
 11 12  1  0  0  0  0
 11 13  1  0  0  0  0
 11 14  1  0  0  0  0
 14 15  2  0  0  0  0
 14 16  1  0  0  0  0
 16 17  1  0  0  0  0
 18 19  2  0  0  0  0
 18 20  1  0  0  0  0
 20 21  1  0  0  0  0
 20 22  1  0  0  0  0
 22 23  1  0  0  0  0
 22 24  1  0  0  0  0
 22 25  1  0  0  0  0
M  END
$$$$

  -OEChem-03222214023D

 25 24  0     1  0  0  0  0  0999 V2000
   -2.6850   -3.9796    0.4969 H   0  0  0  0  0  0  0  0  0  0  0  0
   -2.7586   -2.9312    0.1946 C   0  0  0  0  0  0  0  0  0  0  0  0
   -3.3568   -2.3924    0.9334 H   0  0  0  0  0  0  0  0  0  0  0  0
   -3.2574   -2.8785   -0.7762 H   0  0  0  0  0  0  0  0  0  0  0  0
   -1.3751   -2.3158    0.1002 C   0  0  0  0  0  0  0  0  0  0  0  0
   -0.3843   -2.9948    0.3211 O   0  0  0  0  0  0  0  0  0  0  0  0
   -1.2361   -0.9857   -0.2362 N   0  0  0  0  0  0  0  0  0  0  0  0
   -2.0861   -0.4328   -0.3492 H   0  0  0  0  0  0  0  0  0  0  0  0
    0.0365   -0.2529   -0.2737 C   0  0  1  0  0  0  0  0  0  0  0  0
    0.7713   -0.8005    0.3257 H   0  0  0  0  0  0  0  0  0  0  0  0
    0.5925   -0.1813   -1.7115 C   0  0  0  0  0  0  0  0  0  0  0  0
    1.4081    0.5446   -1.7491 H   0  0  0  0  0  0  0  0  0  0  0  0
    1.0091   -1.1626   -1.9579 H   0  0  0  0  0  0  0  0  0  0  0  0
   -0.4095    0.1782   -2.8083 C   0  0  0  0  0  0  0  0  0  0  0  0
   -0.1960   -0.2818   -3.9155 O   0  0  0  0  0  0  0  0  0  0  0  0
   -1.4484    0.9971   -2.5431 O   0  0  0  0  0  0  0  0  0  0  0  0
   -1.9084    1.1141   -3.3873 H   0  0  0  0  0  0  0  0  0  0  0  0
   -0.0814    1.1317    0.4013 C   0  0  0  0  0  0  0  0  0  0  0  0
   -1.1148    1.7830    0.3237 O   0  0  0  0  0  0  0  0  0  0  0  0
    0.9048    1.5590    1.2727 N   0  0  0  0  0  0  0  0  0  0  0  0
    1.7045    0.9497    1.4185 H   0  0  0  0  0  0  0  0  0  0  0  0
    0.7945    2.7752    2.0703 C   0  0  0  0  0  0  0  0  0  0  0  0
   -0.0548    2.7068    2.7583 H   0  0  0  0  0  0  0  0  0  0  0  0
    1.7049    2.9269    2.6580 H   0  0  0  0  0  0  0  0  0  0  0  0
    0.6533    3.6470    1.4225 H   0  0  0  0  0  0  0  0  0  0  0  0
  1  2  1  0  0  0  0
  2  3  1  0  0  0  0
  2  4  1  0  0  0  0
  2  5  1  0  0  0  0
  5  6  2  0  0  0  0
  5  7  1  0  0  0  0
  7  8  1  0  0  0  0
  7  9  1  0  0  0  0
  9 10  1  0  0  0  0
  9 11  1  0  0  0  0
  9 18  1  0  0  0  0
 11 12  1  0  0  0  0
 11 13  1  0  0  0  0
 11 14  1  0  0  0  0
 14 15  2  0  0  0  0
 14 16  1  0  0  0  0
 16 17  1  0  0  0  0
 18 19  2  0  0  0  0
 18 20  1  0  0  0  0
 20 21  1  0  0  0  0
 20 22  1  0  0  0  0
 22 23  1  0  0  0  0
 22 24  1  0  0  0  0
 22 25  1  0  0  0  0
M  END
$$$$

  -OEChem-03222214023D

 25 24  0     1  0  0  0  0  0999 V2000
   -2.6895   -3.9590    0.5101 H   0  0  0  0  0  0  0  0  0  0  0  0
   -2.7596   -2.9109    0.2061 C   0  0  0  0  0  0  0  0  0  0  0  0
   -3.3402   -2.3650    0.9538 H   0  0  0  0  0  0  0  0  0  0  0  0
   -3.2743   -2.8568   -0.7562 H   0  0  0  0  0  0  0  0  0  0  0  0
   -1.3734   -2.3072    0.0848 C   0  0  0  0  0  0  0  0  0  0  0  0
   -0.3847   -2.9930    0.2941 O   0  0  0  0  0  0  0  0  0  0  0  0
   -1.2299   -0.9787   -0.2568 N   0  0  0  0  0  0  0  0  0  0  0  0
   -2.0771   -0.4137   -0.3189 H   0  0  0  0  0  0  0  0  0  0  0  0
    0.0489   -0.2559   -0.2900 C   0  0  1  0  0  0  0  0  0  0  0  0
    0.7783   -0.8037    0.3160 H   0  0  0  0  0  0  0  0  0  0  0  0
    0.6106   -0.1927   -1.7253 C   0  0  0  0  0  0  0  0  0  0  0  0
    1.4306    0.5279   -1.7657 H   0  0  0  0  0  0  0  0  0  0  0  0
    1.0206   -1.1770   -1.9711 H   0  0  0  0  0  0  0  0  0  0  0  0
   -0.3999    0.1743   -2.8091 C   0  0  0  0  0  0  0  0  0  0  0  0
   -0.3885   -0.4838   -3.8339 O   0  0  0  0  0  0  0  0  0  0  0  0
   -1.1942    1.2496   -2.6354 O   0  0  0  0  0  0  0  0  0  0  0  0
   -1.7174    1.3219   -3.4470 H   0  0  0  0  0  0  0  0  0  0  0  0
   -0.0791    1.1288    0.3827 C   0  0  0  0  0  0  0  0  0  0  0  0
   -1.1306    1.7539    0.3245 O   0  0  0  0  0  0  0  0  0  0  0  0
    0.8972    1.5595    1.2636 N   0  0  0  0  0  0  0  0  0  0  0  0
    1.7115    0.9665    1.3948 H   0  0  0  0  0  0  0  0  0  0  0  0
    0.7656    2.7619    2.0787 C   0  0  0  0  0  0  0  0  0  0  0  0
   -0.0924    2.6751    2.7537 H   0  0  0  0  0  0  0  0  0  0  0  0
    1.6663    2.9113    2.6818 H   0  0  0  0  0  0  0  0  0  0  0  0
    0.6262    3.6425    1.4429 H   0  0  0  0  0  0  0  0  0  0  0  0
  1  2  1  0  0  0  0
  2  3  1  0  0  0  0
  2  4  1  0  0  0  0
  2  5  1  0  0  0  0
  5  6  2  0  0  0  0
  5  7  1  0  0  0  0
  7  8  1  0  0  0  0
  7  9  1  0  0  0  0
  9 10  1  0  0  0  0
  9 11  1  0  0  0  0
  9 18  1  0  0  0  0
 11 12  1  0  0  0  0
 11 13  1  0  0  0  0
 11 14  1  0  0  0  0
 14 15  2  0  0  0  0
 14 16  1  0  0  0  0
 16 17  1  0  0  0  0
 18 19  2  0  0  0  0
 18 20  1  0  0  0  0
 20 21  1  0  0  0  0
 20 22  1  0  0  0  0
 22 23  1  0  0  0  0
 22 24  1  0  0  0  0
 22 25  1  0  0  0  0
M  END
$$$$

  -OEChem-03222214023D

 25 24  0     1  0  0  0  0  0999 V2000
   -2.7009   -3.9491    0.5064 H   0  0  0  0  0  0  0  0  0  0  0  0
   -2.7618   -2.9016    0.1980 C   0  0  0  0  0  0  0  0  0  0  0  0
   -3.3432   -2.3488    0.9398 H   0  0  0  0  0  0  0  0  0  0  0  0
   -3.2697   -2.8469   -0.7679 H   0  0  0  0  0  0  0  0  0  0  0  0
   -1.3706   -2.3084    0.0833 C   0  0  0  0  0  0  0  0  0  0  0  0
   -0.3881   -2.9975    0.3109 O   0  0  0  0  0  0  0  0  0  0  0  0
   -1.2160   -0.9830   -0.2660 N   0  0  0  0  0  0  0  0  0  0  0  0
   -2.0593   -0.4130   -0.3317 H   0  0  0  0  0  0  0  0  0  0  0  0
    0.0694   -0.2711   -0.2929 C   0  0  1  0  0  0  0  0  0  0  0  0
    0.7974   -0.8199    0.3138 H   0  0  0  0  0  0  0  0  0  0  0  0
    0.6258   -0.2005   -1.7293 C   0  0  0  0  0  0  0  0  0  0  0  0
    1.4515    0.5137   -1.7713 H   0  0  0  0  0  0  0  0  0  0  0  0
    1.0249   -1.1848   -1.9915 H   0  0  0  0  0  0  0  0  0  0  0  0
   -0.4008    0.1882   -2.7877 C   0  0  0  0  0  0  0  0  0  0  0  0
   -0.6214   -0.5986   -3.6911 O   0  0  0  0  0  0  0  0  0  0  0  0
   -0.9336    1.4260   -2.7413 O   0  0  0  0  0  0  0  0  0  0  0  0
   -1.5268    1.4845   -3.5045 H   0  0  0  0  0  0  0  0  0  0  0  0
   -0.0696    1.1150    0.3728 C   0  0  0  0  0  0  0  0  0  0  0  0
   -1.1202    1.7389    0.2841 O   0  0  0  0  0  0  0  0  0  0  0  0
    0.8918    1.5542    1.2653 N   0  0  0  0  0  0  0  0  0  0  0  0
    1.7031    0.9619    1.4173 H   0  0  0  0  0  0  0  0  0  0  0  0
    0.7449    2.7641    2.0662 C   0  0  0  0  0  0  0  0  0  0  0  0
   -0.1209    2.6807    2.7314 H   0  0  0  0  0  0  0  0  0  0  0  0
    1.6375    2.9235    2.6786 H   0  0  0  0  0  0  0  0  0  0  0  0
    0.6093    3.6376    1.4196 H   0  0  0  0  0  0  0  0  0  0  0  0
  1  2  1  0  0  0  0
  2  3  1  0  0  0  0
  2  4  1  0  0  0  0
  2  5  1  0  0  0  0
  5  6  2  0  0  0  0
  5  7  1  0  0  0  0
  7  8  1  0  0  0  0
  7  9  1  0  0  0  0
  9 10  1  0  0  0  0
  9 11  1  0  0  0  0
  9 18  1  0  0  0  0
 11 12  1  0  0  0  0
 11 13  1  0  0  0  0
 11 14  1  0  0  0  0
 14 15  2  0  0  0  0
 14 16  1  0  0  0  0
 16 17  1  0  0  0  0
 18 19  2  0  0  0  0
 18 20  1  0  0  0  0
 20 21  1  0  0  0  0
 20 22  1  0  0  0  0
 22 23  1  0  0  0  0
 22 24  1  0  0  0  0
 22 25  1  0  0  0  0
M  END
$$$$

  -OEChem-03222214023D

 25 24  0     1  0  0  0  0  0999 V2000
   -2.7117   -3.9579    0.4716 H   0  0  0  0  0  0  0  0  0  0  0  0
   -2.7633   -2.9106    0.1614 C   0  0  0  0  0  0  0  0  0  0  0  0
   -3.3726   -2.3587    0.8811 H   0  0  0  0  0  0  0  0  0  0  0  0
   -3.2354   -2.8574   -0.8228 H   0  0  0  0  0  0  0  0  0  0  0  0
   -1.3699   -2.3150    0.0979 C   0  0  0  0  0  0  0  0  0  0  0  0
   -0.3958   -3.0004    0.3693 O   0  0  0  0  0  0  0  0  0  0  0  0
   -1.2040   -0.9930   -0.2585 N   0  0  0  0  0  0  0  0  0  0  0  0
   -2.0450   -0.4287   -0.3772 H   0  0  0  0  0  0  0  0  0  0  0  0
    0.0859   -0.2883   -0.2800 C   0  0  1  0  0  0  0  0  0  0  0  0
    0.8150   -0.8386    0.3241 H   0  0  0  0  0  0  0  0  0  0  0  0
    0.6323   -0.2031   -1.7191 C   0  0  0  0  0  0  0  0  0  0  0  0
    1.4633    0.5049   -1.7612 H   0  0  0  0  0  0  0  0  0  0  0  0
    1.0200   -1.1860   -2.0021 H   0  0  0  0  0  0  0  0  0  0  0  0
   -0.4093    0.2076   -2.7533 C   0  0  0  0  0  0  0  0  0  0  0  0
   -0.8605   -0.6445   -3.4985 O   0  0  0  0  0  0  0  0  0  0  0  0
   -0.7093    1.5186   -2.8599 O   0  0  0  0  0  0  0  0  0  0  0  0
   -1.3713    1.5773   -3.5645 H   0  0  0  0  0  0  0  0  0  0  0  0
   -0.0575    1.1009    0.3762 C   0  0  0  0  0  0  0  0  0  0  0  0
   -1.0881    1.7462    0.2276 O   0  0  0  0  0  0  0  0  0  0  0  0
    0.8921    1.5487    1.2767 N   0  0  0  0  0  0  0  0  0  0  0  0
    1.6856    0.9442    1.4688 H   0  0  0  0  0  0  0  0  0  0  0  0
    0.7500    2.7854    2.0364 C   0  0  0  0  0  0  0  0  0  0  0  0
   -0.1343    2.7394    2.6808 H   0  0  0  0  0  0  0  0  0  0  0  0
    1.6297    2.9465    2.6670 H   0  0  0  0  0  0  0  0  0  0  0  0
    0.6492    3.6411    1.3604 H   0  0  0  0  0  0  0  0  0  0  0  0
  1  2  1  0  0  0  0
  2  3  1  0  0  0  0
  2  4  1  0  0  0  0
  2  5  1  0  0  0  0
  5  6  2  0  0  0  0
  5  7  1  0  0  0  0
  7  8  1  0  0  0  0
  7  9  1  0  0  0  0
  9 10  1  0  0  0  0
  9 11  1  0  0  0  0
  9 18  1  0  0  0  0
 11 12  1  0  0  0  0
 11 13  1  0  0  0  0
 11 14  1  0  0  0  0
 14 15  2  0  0  0  0
 14 16  1  0  0  0  0
 16 17  1  0  0  0  0
 18 19  2  0  0  0  0
 18 20  1  0  0  0  0
 20 21  1  0  0  0  0
 20 22  1  0  0  0  0
 22 23  1  0  0  0  0
 22 24  1  0  0  0  0
 22 25  1  0  0  0  0
M  END
$$$$

  -OEChem-03222214023D

 25 24  0     1  0  0  0  0  0999 V2000
   -2.7189   -3.9837    0.4117 H   0  0  0  0  0  0  0  0  0  0  0  0
   -2.7633   -2.9342    0.1083 C   0  0  0  0  0  0  0  0  0  0  0  0
   -3.4231   -2.3959    0.7929 H   0  0  0  0  0  0  0  0  0  0  0  0
   -3.1733   -2.8770   -0.9033 H   0  0  0  0  0  0  0  0  0  0  0  0
   -1.3757   -2.3225    0.1359 C   0  0  0  0  0  0  0  0  0  0  0  0
   -0.4142   -2.9947    0.4771 O   0  0  0  0  0  0  0  0  0  0  0  0
   -1.1998   -1.0050   -0.2310 N   0  0  0  0  0  0  0  0  0  0  0  0
   -2.0328   -0.4638   -0.4592 H   0  0  0  0  0  0  0  0  0  0  0  0
    0.0927   -0.3057   -0.2549 C   0  0  1  0  0  0  0  0  0  0  0  0
    0.8257   -0.8560    0.3441 H   0  0  0  0  0  0  0  0  0  0  0  0
    0.6272   -0.2038   -1.6979 C   0  0  0  0  0  0  0  0  0  0  0  0
    1.4642    0.4979   -1.7378 H   0  0  0  0  0  0  0  0  0  0  0  0
    1.0045   -1.1846   -2.0003 H   0  0  0  0  0  0  0  0  0  0  0  0
   -0.4226    0.2261   -2.7166 C   0  0  0  0  0  0  0  0  0  0  0  0
   -1.0870   -0.6282   -3.2780 O   0  0  0  0  0  0  0  0  0  0  0  0
   -0.5150    1.5427   -2.9996 O   0  0  0  0  0  0  0  0  0  0  0  0
   -1.2336    1.6189   -3.6447 H   0  0  0  0  0  0  0  0  0  0  0  0
   -0.0491    1.0888    0.3887 C   0  0  0  0  0  0  0  0  0  0  0  0
   -1.0482    1.7640    0.1727 O   0  0  0  0  0  0  0  0  0  0  0  0
    0.8958    1.5450    1.2895 N   0  0  0  0  0  0  0  0  0  0  0  0
    1.6677    0.9262    1.5209 H   0  0  0  0  0  0  0  0  0  0  0  0
    0.7751    2.8143    1.9970 C   0  0  0  0  0  0  0  0  0  0  0  0
   -0.1122    2.8128    2.6387 H   0  0  0  0  0  0  0  0  0  0  0  0
    1.6559    2.9838    2.6238 H   0  0  0  0  0  0  0  0  0  0  0  0
    0.6940    3.6432    1.2856 H   0  0  0  0  0  0  0  0  0  0  0  0
  1  2  1  0  0  0  0
  2  3  1  0  0  0  0
  2  4  1  0  0  0  0
  2  5  1  0  0  0  0
  5  6  2  0  0  0  0
  5  7  1  0  0  0  0
  7  8  1  0  0  0  0
  7  9  1  0  0  0  0
  9 10  1  0  0  0  0
  9 11  1  0  0  0  0
  9 18  1  0  0  0  0
 11 12  1  0  0  0  0
 11 13  1  0  0  0  0
 11 14  1  0  0  0  0
 14 15  2  0  0  0  0
 14 16  1  0  0  0  0
 16 17  1  0  0  0  0
 18 19  2  0  0  0  0
 18 20  1  0  0  0  0
 20 21  1  0  0  0  0
 20 22  1  0  0  0  0
 22 23  1  0  0  0  0
 22 24  1  0  0  0  0
 22 25  1  0  0  0  0
M  END
$$$$

  -OEChem-03222214023D

 25 24  0     1  0  0  0  0  0999 V2000
   -2.7117   -4.0174    0.3686 H   0  0  0  0  0  0  0  0  0  0  0  0
   -2.7573   -2.9656    0.0730 C   0  0  0  0  0  0  0  0  0  0  0  0
   -3.4615   -2.4446    0.7259 H   0  0  0  0  0  0  0  0  0  0  0  0
   -3.1135   -2.9043   -0.9585 H   0  0  0  0  0  0  0  0  0  0  0  0
   -1.3839   -2.3312    0.1816 C   0  0  0  0  0  0  0  0  0  0  0  0
   -0.4362   -2.9828    0.5940 O   0  0  0  0  0  0  0  0  0  0  0  0
   -1.2053   -1.0175   -0.1965 N   0  0  0  0  0  0  0  0  0  0  0  0
   -2.0172   -0.5213   -0.5622 H   0  0  0  0  0  0  0  0  0  0  0  0
    0.0890   -0.3221   -0.2307 C   0  0  1  0  0  0  0  0  0  0  0  0
    0.8289   -0.8717    0.3605 H   0  0  0  0  0  0  0  0  0  0  0  0
    0.6106   -0.2004   -1.6789 C   0  0  0  0  0  0  0  0  0  0  0  0
    1.4528    0.4957   -1.7120 H   0  0  0  0  0  0  0  0  0  0  0  0
    0.9802   -1.1778   -1.9998 H   0  0  0  0  0  0  0  0  0  0  0  0
   -0.4376    0.2477   -2.6945 C   0  0  0  0  0  0  0  0  0  0  0  0
   -1.2903   -0.5411   -3.0677 O   0  0  0  0  0  0  0  0  0  0  0  0
   -0.3373    1.5086   -3.1668 O   0  0  0  0  0  0  0  0  0  0  0  0
   -1.0945    1.6219   -3.7605 H   0  0  0  0  0  0  0  0  0  0  0  0
   -0.0481    1.0773    0.4024 C   0  0  0  0  0  0  0  0  0  0  0  0
   -1.0106    1.7828    0.1260 O   0  0  0  0  0  0  0  0  0  0  0  0
    0.8989    1.5402    1.2974 N   0  0  0  0  0  0  0  0  0  0  0  0
    1.6473    0.9072    1.5646 H   0  0  0  0  0  0  0  0  0  0  0  0
    0.8049    2.8377    1.9565 C   0  0  0  0  0  0  0  0  0  0  0  0
   -0.1097    2.8983    2.5558 H   0  0  0  0  0  0  0  0  0  0  0  0
    1.6629    2.9894    2.6183 H   0  0  0  0  0  0  0  0  0  0  0  0
    0.7940    3.6439    1.2152 H   0  0  0  0  0  0  0  0  0  0  0  0
  1  2  1  0  0  0  0
  2  3  1  0  0  0  0
  2  4  1  0  0  0  0
  2  5  1  0  0  0  0
  5  6  2  0  0  0  0
  5  7  1  0  0  0  0
  7  8  1  0  0  0  0
  7  9  1  0  0  0  0
  9 10  1  0  0  0  0
  9 11  1  0  0  0  0
  9 18  1  0  0  0  0
 11 12  1  0  0  0  0
 11 13  1  0  0  0  0
 11 14  1  0  0  0  0
 14 15  2  0  0  0  0
 14 16  1  0  0  0  0
 16 17  1  0  0  0  0
 18 19  2  0  0  0  0
 18 20  1  0  0  0  0
 20 21  1  0  0  0  0
 20 22  1  0  0  0  0
 22 23  1  0  0  0  0
 22 24  1  0  0  0  0
 22 25  1  0  0  0  0
M  END
$$$$

  -OEChem-03222214023D

 25 24  0     1  0  0  0  0  0999 V2000
   -2.6976   -4.0441    0.3589 H   0  0  0  0  0  0  0  0  0  0  0  0
   -2.7508   -2.9932    0.0616 C   0  0  0  0  0  0  0  0  0  0  0  0
   -3.4860   -2.4846    0.6897 H   0  0  0  0  0  0  0  0  0  0  0  0
   -3.0721   -2.9377   -0.9816 H   0  0  0  0  0  0  0  0  0  0  0  0
   -1.3936   -2.3348    0.2187 C   0  0  0  0  0  0  0  0  0  0  0  0
   -0.4521   -2.9678    0.6727 O   0  0  0  0  0  0  0  0  0  0  0  0
   -1.2221   -1.0228   -0.1674 N   0  0  0  0  0  0  0  0  0  0  0  0
   -2.0111   -0.5706   -0.6298 H   0  0  0  0  0  0  0  0  0  0  0  0
    0.0710   -0.3272   -0.2135 C   0  0  1  0  0  0  0  0  0  0  0  0
    0.8162   -0.8758    0.3714 H   0  0  0  0  0  0  0  0  0  0  0  0
    0.5871   -0.1929   -1.6650 C   0  0  0  0  0  0  0  0  0  0  0  0
    1.4317    0.5011   -1.6880 H   0  0  0  0  0  0  0  0  0  0  0  0
    0.9577   -1.1680   -1.9904 H   0  0  0  0  0  0  0  0  0  0  0  0
   -0.4449    0.2621   -2.6990 C   0  0  0  0  0  0  0  0  0  0  0  0
   -1.4507   -0.4000   -2.8986 O   0  0  0  0  0  0  0  0  0  0  0  0
   -0.1629    1.3963   -3.3755 O   0  0  0  0  0  0  0  0  0  0  0  0
   -0.9311    1.5500   -3.9462 H   0  0  0  0  0  0  0  0  0  0  0  0
   -0.0571    1.0759    0.4132 C   0  0  0  0  0  0  0  0  0  0  0  0
   -0.9906    1.8053    0.1023 O   0  0  0  0  0  0  0  0  0  0  0  0
    0.9000    1.5375    1.2981 N   0  0  0  0  0  0  0  0  0  0  0  0
    1.6272    0.8897    1.5878 H   0  0  0  0  0  0  0  0  0  0  0  0
    0.8303    2.8473    1.9353 C   0  0  0  0  0  0  0  0  0  0  0  0
   -0.0814    2.9337    2.5358 H   0  0  0  0  0  0  0  0  0  0  0  0
    1.6928    2.9950    2.5925 H   0  0  0  0  0  0  0  0  0  0  0  0
    0.8316    3.6409    1.1805 H   0  0  0  0  0  0  0  0  0  0  0  0
  1  2  1  0  0  0  0
  2  3  1  0  0  0  0
  2  4  1  0  0  0  0
  2  5  1  0  0  0  0
  5  6  2  0  0  0  0
  5  7  1  0  0  0  0
  7  8  1  0  0  0  0
  7  9  1  0  0  0  0
  9 10  1  0  0  0  0
  9 11  1  0  0  0  0
  9 18  1  0  0  0  0
 11 12  1  0  0  0  0
 11 13  1  0  0  0  0
 11 14  1  0  0  0  0
 14 15  2  0  0  0  0
 14 16  1  0  0  0  0
 16 17  1  0  0  0  0
 18 19  2  0  0  0  0
 18 20  1  0  0  0  0
 20 21  1  0  0  0  0
 20 22  1  0  0  0  0
 22 23  1  0  0  0  0
 22 24  1  0  0  0  0
 22 25  1  0  0  0  0
M  END
$$$$

  -OEChem-03222214023D

 25 24  0     1  0  0  0  0  0999 V2000
   -2.6906   -4.0620    0.3614 H   0  0  0  0  0  0  0  0  0  0  0  0
   -2.7503   -3.0097    0.0705 C   0  0  0  0  0  0  0  0  0  0  0  0
   -3.4902   -2.5099    0.7005 H   0  0  0  0  0  0  0  0  0  0  0  0
   -3.0706   -2.9497   -0.9727 H   0  0  0  0  0  0  0  0  0  0  0  0
   -1.3974   -2.3432    0.2334 C   0  0  0  0  0  0  0  0  0  0  0  0
   -0.4529   -2.9721    0.6870 O   0  0  0  0  0  0  0  0  0  0  0  0
   -1.2318   -1.0303   -0.1516 N   0  0  0  0  0  0  0  0  0  0  0  0
   -2.0154   -0.5892   -0.6357 H   0  0  0  0  0  0  0  0  0  0  0  0
    0.0574   -0.3294   -0.2061 C   0  0  1  0  0  0  0  0  0  0  0  0
    0.8079   -0.8772    0.3731 H   0  0  0  0  0  0  0  0  0  0  0  0
    0.5696   -0.1845   -1.6601 C   0  0  0  0  0  0  0  0  0  0  0  0
    1.4122    0.5123   -1.6733 H   0  0  0  0  0  0  0  0  0  0  0  0
    0.9478   -1.1563   -1.9861 H   0  0  0  0  0  0  0  0  0  0  0  0
   -0.4445    0.2703   -2.7163 C   0  0  0  0  0  0  0  0  0  0  0  0
   -1.5644   -0.2128   -2.7663 O   0  0  0  0  0  0  0  0  0  0  0  0
   -0.0127    1.2099   -3.5847 O   0  0  0  0  0  0  0  0  0  0  0  0
   -0.7780    1.4030   -4.1477 H   0  0  0  0  0  0  0  0  0  0  0  0
   -0.0671    1.0730    0.4227 C   0  0  0  0  0  0  0  0  0  0  0  0
   -0.9861    1.8147    0.0992 O   0  0  0  0  0  0  0  0  0  0  0  0
    0.8975    1.5340    1.2999 N   0  0  0  0  0  0  0  0  0  0  0  0
    1.6164    0.8805    1.5977 H   0  0  0  0  0  0  0  0  0  0  0  0
    0.8408    2.8502    1.9247 C   0  0  0  0  0  0  0  0  0  0  0  0
   -0.0694    2.9503    2.5253 H   0  0  0  0  0  0  0  0  0  0  0  0
    1.7055    2.9964    2.5792 H   0  0  0  0  0  0  0  0  0  0  0  0
    0.8481    3.6366    1.1626 H   0  0  0  0  0  0  0  0  0  0  0  0
  1  2  1  0  0  0  0
  2  3  1  0  0  0  0
  2  4  1  0  0  0  0
  2  5  1  0  0  0  0
  5  6  2  0  0  0  0
  5  7  1  0  0  0  0
  7  8  1  0  0  0  0
  7  9  1  0  0  0  0
  9 10  1  0  0  0  0
  9 11  1  0  0  0  0
  9 18  1  0  0  0  0
 11 12  1  0  0  0  0
 11 13  1  0  0  0  0
 11 14  1  0  0  0  0
 14 15  2  0  0  0  0
 14 16  1  0  0  0  0
 16 17  1  0  0  0  0
 18 19  2  0  0  0  0
 18 20  1  0  0  0  0
 20 21  1  0  0  0  0
 20 22  1  0  0  0  0
 22 23  1  0  0  0  0
 22 24  1  0  0  0  0
 22 25  1  0  0  0  0
M  END
$$$$

  -OEChem-03222214023D

 25 24  0     1  0  0  0  0  0999 V2000
   -2.6887   -4.0688    0.3718 H   0  0  0  0  0  0  0  0  0  0  0  0
   -2.7521   -3.0158    0.0848 C   0  0  0  0  0  0  0  0  0  0  0  0
   -3.4800   -2.5170    0.7293 H   0  0  0  0  0  0  0  0  0  0  0  0
   -3.0912   -2.9528   -0.9522 H   0  0  0  0  0  0  0  0  0  0  0  0
   -1.3961   -2.3510    0.2255 C   0  0  0  0  0  0  0  0  0  0  0  0
   -0.4440   -2.9822    0.6593 O   0  0  0  0  0  0  0  0  0  0  0  0
   -1.2375   -1.0351   -0.1515 N   0  0  0  0  0  0  0  0  0  0  0  0
   -2.0279   -0.5868   -0.6192 H   0  0  0  0  0  0  0  0  0  0  0  0
    0.0456   -0.3240   -0.2060 C   0  0  1  0  0  0  0  0  0  0  0  0
    0.7983   -0.8707    0.3712 H   0  0  0  0  0  0  0  0  0  0  0  0
    0.5588   -0.1775   -1.6601 C   0  0  0  0  0  0  0  0  0  0  0  0
    1.3961    0.5258   -1.6695 H   0  0  0  0  0  0  0  0  0  0  0  0
    0.9468   -1.1481   -1.9782 H   0  0  0  0  0  0  0  0  0  0  0  0
   -0.4398    0.2654   -2.7380 C   0  0  0  0  0  0  0  0  0  0  0  0
   -1.6280   -0.0032   -2.6643 O   0  0  0  0  0  0  0  0  0  0  0  0
    0.0892    0.9553   -3.7711 O   0  0  0  0  0  0  0  0  0  0  0  0
   -0.6676    1.1820   -4.3334 H   0  0  0  0  0  0  0  0  0  0  0  0
   -0.0776    1.0760    0.4297 C   0  0  0  0  0  0  0  0  0  0  0  0
   -0.9947    1.8226    0.1139 O   0  0  0  0  0  0  0  0  0  0  0  0
    0.8929    1.5329    1.3031 N   0  0  0  0  0  0  0  0  0  0  0  0
    1.6090    0.8756    1.5990 H   0  0  0  0  0  0  0  0  0  0  0  0
    0.8462    2.8500    1.9274 C   0  0  0  0  0  0  0  0  0  0  0  0
   -0.0587    2.9546    2.5354 H   0  0  0  0  0  0  0  0  0  0  0  0
    1.7169    2.9938    2.5745 H   0  0  0  0  0  0  0  0  0  0  0  0
    0.8503    3.6356    1.1645 H   0  0  0  0  0  0  0  0  0  0  0  0
  1  2  1  0  0  0  0
  2  3  1  0  0  0  0
  2  4  1  0  0  0  0
  2  5  1  0  0  0  0
  5  6  2  0  0  0  0
  5  7  1  0  0  0  0
  7  8  1  0  0  0  0
  7  9  1  0  0  0  0
  9 10  1  0  0  0  0
  9 11  1  0  0  0  0
  9 18  1  0  0  0  0
 11 12  1  0  0  0  0
 11 13  1  0  0  0  0
 11 14  1  0  0  0  0
 14 15  2  0  0  0  0
 14 16  1  0  0  0  0
 16 17  1  0  0  0  0
 18 19  2  0  0  0  0
 18 20  1  0  0  0  0
 20 21  1  0  0  0  0
 20 22  1  0  0  0  0
 22 23  1  0  0  0  0
 22 24  1  0  0  0  0
 22 25  1  0  0  0  0
M  END
$$$$

  -OEChem-03222214023D

 25 24  0     1  0  0  0  0  0999 V2000
   -2.6900   -4.0583    0.3859 H   0  0  0  0  0  0  0  0  0  0  0  0
   -2.7541   -3.0063    0.0951 C   0  0  0  0  0  0  0  0  0  0  0  0
   -3.4669   -2.5009    0.7509 H   0  0  0  0  0  0  0  0  0  0  0  0
   -3.1125   -2.9457   -0.9354 H   0  0  0  0  0  0  0  0  0  0  0  0
   -1.3925   -2.3476    0.2074 C   0  0  0  0  0  0  0  0  0  0  0  0
   -0.4303   -2.9872    0.6050 O   0  0  0  0  0  0  0  0  0  0  0  0
   -1.2393   -1.0285   -0.1603 N   0  0  0  0  0  0  0  0  0  0  0  0
   -2.0448   -0.5599   -0.5800 H   0  0  0  0  0  0  0  0  0  0  0  0
    0.0377   -0.3068   -0.2136 C   0  0  1  0  0  0  0  0  0  0  0  0
    0.7896   -0.8522    0.3660 H   0  0  0  0  0  0  0  0  0  0  0  0
    0.5560   -0.1766   -1.6668 C   0  0  0  0  0  0  0  0  0  0  0  0
    1.3863    0.5342   -1.6832 H   0  0  0  0  0  0  0  0  0  0  0  0
    0.9550   -1.1488   -1.9658 H   0  0  0  0  0  0  0  0  0  0  0  0
   -0.4347    0.2405   -2.7621 C   0  0  0  0  0  0  0  0  0  0  0  0
   -1.6422    0.2109   -2.5912 O   0  0  0  0  0  0  0  0  0  0  0  0
    0.1268    0.6349   -3.9247 O   0  0  0  0  0  0  0  0  0  0  0  0
   -0.6205    0.8834   -4.4908 H   0  0  0  0  0  0  0  0  0  0  0  0
   -0.0813    1.0908    0.4291 C   0  0  0  0  0  0  0  0  0  0  0  0
   -1.0147    1.8312    0.1504 O   0  0  0  0  0  0  0  0  0  0  0  0
    0.8969    1.5408    1.2976 N   0  0  0  0  0  0  0  0  0  0  0  0
    1.6240    0.8856    1.5700 H   0  0  0  0  0  0  0  0  0  0  0  0
    0.8438    2.8433    1.9515 C   0  0  0  0  0  0  0  0  0  0  0  0
   -0.0526    2.9227    2.5757 H   0  0  0  0  0  0  0  0  0  0  0  0
    1.7226    2.9837    2.5882 H   0  0  0  0  0  0  0  0  0  0  0  0
    0.8261    3.6455    1.2062 H   0  0  0  0  0  0  0  0  0  0  0  0
  1  2  1  0  0  0  0
  2  3  1  0  0  0  0
  2  4  1  0  0  0  0
  2  5  1  0  0  0  0
  5  6  2  0  0  0  0
  5  7  1  0  0  0  0
  7  8  1  0  0  0  0
  7  9  1  0  0  0  0
  9 10  1  0  0  0  0
  9 11  1  0  0  0  0
  9 18  1  0  0  0  0
 11 12  1  0  0  0  0
 11 13  1  0  0  0  0
 11 14  1  0  0  0  0
 14 15  2  0  0  0  0
 14 16  1  0  0  0  0
 16 17  1  0  0  0  0
 18 19  2  0  0  0  0
 18 20  1  0  0  0  0
 20 21  1  0  0  0  0
 20 22  1  0  0  0  0
 22 23  1  0  0  0  0
 22 24  1  0  0  0  0
 22 25  1  0  0  0  0
M  END
$$$$

  -OEChem-03222214023D

 25 24  0     1  0  0  0  0  0999 V2000
   -2.6916   -4.0417    0.3991 H   0  0  0  0  0  0  0  0  0  0  0  0
   -2.7581   -2.9898    0.1081 C   0  0  0  0  0  0  0  0  0  0  0  0
   -3.4466   -2.4786    0.7852 H   0  0  0  0  0  0  0  0  0  0  0  0
   -3.1487   -2.9291   -0.9106 H   0  0  0  0  0  0  0  0  0  0  0  0
   -1.3891   -2.3402    0.1757 C   0  0  0  0  0  0  0  0  0  0  0  0
   -0.4160   -2.9906    0.5259 O   0  0  0  0  0  0  0  0  0  0  0  0
   -1.2402   -1.0176   -0.1811 N   0  0  0  0  0  0  0  0  0  0  0  0
   -2.0636   -0.5227   -0.5294 H   0  0  0  0  0  0  0  0  0  0  0  0
    0.0318   -0.2864   -0.2275 C   0  0  1  0  0  0  0  0  0  0  0  0
    0.7783   -0.8306    0.3603 H   0  0  0  0  0  0  0  0  0  0  0  0
    0.5632   -0.1805   -1.6762 C   0  0  0  0  0  0  0  0  0  0  0  0
    1.3884    0.5353   -1.7028 H   0  0  0  0  0  0  0  0  0  0  0  0
    0.9699   -1.1571   -1.9510 H   0  0  0  0  0  0  0  0  0  0  0  0
   -0.4230    0.2059   -2.7845 C   0  0  0  0  0  0  0  0  0  0  0  0
   -1.5996    0.4277   -2.5555 O   0  0  0  0  0  0  0  0  0  0  0  0
    0.1073    0.2916   -4.0231 O   0  0  0  0  0  0  0  0  0  0  0  0
   -0.6298    0.5644   -4.5915 H   0  0  0  0  0  0  0  0  0  0  0  0
   -0.0841    1.1089    0.4228 C   0  0  0  0  0  0  0  0  0  0  0  0
   -1.0441    1.8329    0.1990 O   0  0  0  0  0  0  0  0  0  0  0  0
    0.8988    1.5508    1.2904 N   0  0  0  0  0  0  0  0  0  0  0  0
    1.6423    0.9017    1.5316 H   0  0  0  0  0  0  0  0  0  0  0  0
    0.8361    2.8349    1.9789 C   0  0  0  0  0  0  0  0  0  0  0  0
   -0.0488    2.8822    2.6224 H   0  0  0  0  0  0  0  0  0  0  0  0
    1.7251    2.9745    2.6015 H   0  0  0  0  0  0  0  0  0  0  0  0
    0.7896    3.6557    1.2553 H   0  0  0  0  0  0  0  0  0  0  0  0
  1  2  1  0  0  0  0
  2  3  1  0  0  0  0
  2  4  1  0  0  0  0
  2  5  1  0  0  0  0
  5  6  2  0  0  0  0
  5  7  1  0  0  0  0
  7  8  1  0  0  0  0
  7  9  1  0  0  0  0
  9 10  1  0  0  0  0
  9 11  1  0  0  0  0
  9 18  1  0  0  0  0
 11 12  1  0  0  0  0
 11 13  1  0  0  0  0
 11 14  1  0  0  0  0
 14 15  2  0  0  0  0
 14 16  1  0  0  0  0
 16 17  1  0  0  0  0
 18 19  2  0  0  0  0
 18 20  1  0  0  0  0
 20 21  1  0  0  0  0
 20 22  1  0  0  0  0
 22 23  1  0  0  0  0
 22 24  1  0  0  0  0
 22 25  1  0  0  0  0
M  END
$$$$

  -OEChem-03222214023D

 25 24  0     1  0  0  0  0  0999 V2000
   -2.6984   -4.0116    0.4265 H   0  0  0  0  0  0  0  0  0  0  0  0
   -2.7657   -2.9601    0.1340 C   0  0  0  0  0  0  0  0  0  0  0  0
   -3.4163   -2.4382    0.8400 H   0  0  0  0  0  0  0  0  0  0  0  0
   -3.2018   -2.8988   -0.8660 H   0  0  0  0  0  0  0  0  0  0  0  0
   -1.3871   -2.3271    0.1361 C   0  0  0  0  0  0  0  0  0  0  0  0
   -0.4056   -2.9914    0.4325 O   0  0  0  0  0  0  0  0  0  0  0  0
   -1.2399   -1.0020   -0.2126 N   0  0  0  0  0  0  0  0  0  0  0  0
   -2.0777   -0.4799   -0.4747 H   0  0  0  0  0  0  0  0  0  0  0  0
    0.0304   -0.2667   -0.2512 C   0  0  1  0  0  0  0  0  0  0  0  0
    0.7673   -0.8101    0.3489 H   0  0  0  0  0  0  0  0  0  0  0  0
    0.5826   -0.1887   -1.6924 C   0  0  0  0  0  0  0  0  0  0  0  0
    1.4059    0.5291   -1.7265 H   0  0  0  0  0  0  0  0  0  0  0  0
    0.9939   -1.1704   -1.9414 H   0  0  0  0  0  0  0  0  0  0  0  0
   -0.3996    0.1709   -2.8103 C   0  0  0  0  0  0  0  0  0  0  0  0
   -1.4948    0.6460   -2.5701 O   0  0  0  0  0  0  0  0  0  0  0  0
    0.0390   -0.0533   -4.0672 O   0  0  0  0  0  0  0  0  0  0  0  0
   -0.6847    0.2434   -4.6404 H   0  0  0  0  0  0  0  0  0  0  0  0
   -0.0852    1.1262    0.4058 C   0  0  0  0  0  0  0  0  0  0  0  0
   -1.0822    1.8180    0.2534 O   0  0  0  0  0  0  0  0  0  0  0  0
    0.8993    1.5613    1.2754 N   0  0  0  0  0  0  0  0  0  0  0  0
    1.6676    0.9275    1.4752 H   0  0  0  0  0  0  0  0  0  0  0  0
    0.8146    2.8169    2.0126 C   0  0  0  0  0  0  0  0  0  0  0  0
   -0.0378    2.8011    2.6999 H   0  0  0  0  0  0  0  0  0  0  0  0
    1.7269    2.9767    2.5952 H   0  0  0  0  0  0  0  0  0  0  0  0
    0.6955    3.6594    1.3229 H   0  0  0  0  0  0  0  0  0  0  0  0
  1  2  1  0  0  0  0
  2  3  1  0  0  0  0
  2  4  1  0  0  0  0
  2  5  1  0  0  0  0
  5  6  2  0  0  0  0
  5  7  1  0  0  0  0
  7  8  1  0  0  0  0
  7  9  1  0  0  0  0
  9 10  1  0  0  0  0
  9 11  1  0  0  0  0
  9 18  1  0  0  0  0
 11 12  1  0  0  0  0
 11 13  1  0  0  0  0
 11 14  1  0  0  0  0
 14 15  2  0  0  0  0
 14 16  1  0  0  0  0
 16 17  1  0  0  0  0
 18 19  2  0  0  0  0
 18 20  1  0  0  0  0
 20 21  1  0  0  0  0
 20 22  1  0  0  0  0
 22 23  1  0  0  0  0
 22 24  1  0  0  0  0
 22 25  1  0  0  0  0
M  END
$$$$

  -OEChem-03222214023D

 25 24  0     1  0  0  0  0  0999 V2000
   -2.7038   -3.9763    0.4725 H   0  0  0  0  0  0  0  0  0  0  0  0
   -2.7699   -2.9272    0.1714 C   0  0  0  0  0  0  0  0  0  0  0  0
   -3.3783   -2.3884    0.9017 H   0  0  0  0  0  0  0  0  0  0  0  0
   -3.2527   -2.8703   -0.8072 H   0  0  0  0  0  0  0  0  0  0  0  0
   -1.3841   -2.3148    0.1005 C   0  0  0  0  0  0  0  0  0  0  0  0
   -0.3981   -2.9942    0.3423 O   0  0  0  0  0  0  0  0  0  0  0  0
   -1.2363   -0.9890   -0.2463 N   0  0  0  0  0  0  0  0  0  0  0  0
   -2.0821   -0.4403   -0.4082 H   0  0  0  0  0  0  0  0  0  0  0  0
    0.0364   -0.2573   -0.2783 C   0  0  1  0  0  0  0  0  0  0  0  0
    0.7639   -0.8004    0.3336 H   0  0  0  0  0  0  0  0  0  0  0  0
    0.6069   -0.2008   -1.7119 C   0  0  0  0  0  0  0  0  0  0  0  0
    1.4316    0.5143   -1.7512 H   0  0  0  0  0  0  0  0  0  0  0  0
    1.0166   -1.1877   -1.9436 H   0  0  0  0  0  0  0  0  0  0  0  0
   -0.3750    0.1463   -2.8310 C   0  0  0  0  0  0  0  0  0  0  0  0
   -1.3368    0.8607   -2.6205 O   0  0  0  0  0  0  0  0  0  0  0  0
   -0.0914   -0.3574   -4.0512 O   0  0  0  0  0  0  0  0  0  0  0  0
   -0.7967   -0.0246   -4.6277 H   0  0  0  0  0  0  0  0  0  0  0  0
   -0.0845    1.1342    0.3817 C   0  0  0  0  0  0  0  0  0  0  0  0
   -1.1138    1.7889    0.2884 O   0  0  0  0  0  0  0  0  0  0  0  0
    0.8958    1.5671    1.2575 N   0  0  0  0  0  0  0  0  0  0  0  0
    1.6889    0.9539    1.4214 H   0  0  0  0  0  0  0  0  0  0  0  0
    0.7840    2.7949    2.0368 C   0  0  0  0  0  0  0  0  0  0  0  0
   -0.0730    2.7404    2.7165 H   0  0  0  0  0  0  0  0  0  0  0  0
    1.6891    2.9500    2.6318 H   0  0  0  0  0  0  0  0  0  0  0  0
    0.6541    3.6581    1.3752 H   0  0  0  0  0  0  0  0  0  0  0  0
  1  2  1  0  0  0  0
  2  3  1  0  0  0  0
  2  4  1  0  0  0  0
  2  5  1  0  0  0  0
  5  6  2  0  0  0  0
  5  7  1  0  0  0  0
  7  8  1  0  0  0  0
  7  9  1  0  0  0  0
  9 10  1  0  0  0  0
  9 11  1  0  0  0  0
  9 18  1  0  0  0  0
 11 12  1  0  0  0  0
 11 13  1  0  0  0  0
 11 14  1  0  0  0  0
 14 15  2  0  0  0  0
 14 16  1  0  0  0  0
 16 17  1  0  0  0  0
 18 19  2  0  0  0  0
 18 20  1  0  0  0  0
 20 21  1  0  0  0  0
 20 22  1  0  0  0  0
 22 23  1  0  0  0  0
 22 24  1  0  0  0  0
 22 25  1  0  0  0  0
M  END
$$$$

  -OEChem-03222214023D

 25 24  0     1  0  0  0  0  0999 V2000
   -2.7090   -3.9521    0.4935 H   0  0  0  0  0  0  0  0  0  0  0  0
   -2.7720   -2.9032    0.1912 C   0  0  0  0  0  0  0  0  0  0  0  0
   -3.3559   -2.3561    0.9352 H   0  0  0  0  0  0  0  0  0  0  0  0
   -3.2791   -2.8442   -0.7748 H   0  0  0  0  0  0  0  0  0  0  0  0
   -1.3821   -2.3058    0.0828 C   0  0  0  0  0  0  0  0  0  0  0  0
   -0.3977   -2.9952    0.3015 O   0  0  0  0  0  0  0  0  0  0  0  0
   -1.2295   -0.9815   -0.2685 N   0  0  0  0  0  0  0  0  0  0  0  0
   -2.0739   -0.4162   -0.3660 H   0  0  0  0  0  0  0  0  0  0  0  0
    0.0488   -0.2587   -0.2944 C   0  0  1  0  0  0  0  0  0  0  0  0
    0.7688   -0.8015    0.3271 H   0  0  0  0  0  0  0  0  0  0  0  0
    0.6295   -0.2153   -1.7232 C   0  0  0  0  0  0  0  0  0  0  0  0
    1.4576    0.4961   -1.7649 H   0  0  0  0  0  0  0  0  0  0  0  0
    1.0350   -1.2055   -1.9492 H   0  0  0  0  0  0  0  0  0  0  0  0
   -0.3569    0.1338   -2.8350 C   0  0  0  0  0  0  0  0  0  0  0  0
   -1.1384    1.0539   -2.6922 O   0  0  0  0  0  0  0  0  0  0  0  0
   -0.2920   -0.6049   -3.9634 O   0  0  0  0  0  0  0  0  0  0  0  0
   -0.9728   -0.2322   -4.5444 H   0  0  0  0  0  0  0  0  0  0  0  0
   -0.0804    1.1334    0.3626 C   0  0  0  0  0  0  0  0  0  0  0  0
   -1.1293    1.7604    0.2949 O   0  0  0  0  0  0  0  0  0  0  0  0
    0.8904    1.5687    1.2475 N   0  0  0  0  0  0  0  0  0  0  0  0
    1.7017    0.9748    1.3907 H   0  0  0  0  0  0  0  0  0  0  0  0
    0.7570    2.7817    2.0463 C   0  0  0  0  0  0  0  0  0  0  0  0
   -0.1024    2.7041    2.7208 H   0  0  0  0  0  0  0  0  0  0  0  0
    1.6566    2.9396    2.6489 H   0  0  0  0  0  0  0  0  0  0  0  0
    0.6185    3.6537    1.3982 H   0  0  0  0  0  0  0  0  0  0  0  0
  1  2  1  0  0  0  0
  2  3  1  0  0  0  0
  2  4  1  0  0  0  0
  2  5  1  0  0  0  0
  5  6  2  0  0  0  0
  5  7  1  0  0  0  0
  7  8  1  0  0  0  0
  7  9  1  0  0  0  0
  9 10  1  0  0  0  0
  9 11  1  0  0  0  0
  9 18  1  0  0  0  0
 11 12  1  0  0  0  0
 11 13  1  0  0  0  0
 11 14  1  0  0  0  0
 14 15  2  0  0  0  0
 14 16  1  0  0  0  0
 16 17  1  0  0  0  0
 18 19  2  0  0  0  0
 18 20  1  0  0  0  0
 20 21  1  0  0  0  0
 20 22  1  0  0  0  0
 22 23  1  0  0  0  0
 22 24  1  0  0  0  0
 22 25  1  0  0  0  0
M  END
$$$$

  -OEChem-03222214023D

 25 24  0     1  0  0  0  0  0999 V2000
   -2.7146   -3.9439    0.5047 H   0  0  0  0  0  0  0  0  0  0  0  0
   -2.7733   -2.8956    0.1991 C   0  0  0  0  0  0  0  0  0  0  0  0
   -3.3503   -2.3427    0.9442 H   0  0  0  0  0  0  0  0  0  0  0  0
   -3.2850   -2.8374   -0.7646 H   0  0  0  0  0  0  0  0  0  0  0  0
   -1.3804   -2.3067    0.0808 C   0  0  0  0  0  0  0  0  0  0  0  0
   -0.3994   -3.0004    0.3006 O   0  0  0  0  0  0  0  0  0  0  0  0
   -1.2214   -0.9848   -0.2780 N   0  0  0  0  0  0  0  0  0  0  0  0
   -2.0626   -0.4108   -0.3467 H   0  0  0  0  0  0  0  0  0  0  0  0
    0.0627   -0.2708   -0.2989 C   0  0  1  0  0  0  0  0  0  0  0  0
    0.7789   -0.8135    0.3271 H   0  0  0  0  0  0  0  0  0  0  0  0
    0.6470   -0.2280   -1.7254 C   0  0  0  0  0  0  0  0  0  0  0  0
    1.4782    0.4801   -1.7662 H   0  0  0  0  0  0  0  0  0  0  0  0
    1.0471   -1.2186   -1.9578 H   0  0  0  0  0  0  0  0  0  0  0  0
   -0.3475    0.1336   -2.8236 C   0  0  0  0  0  0  0  0  0  0  0  0
   -0.9179    1.2064   -2.7821 O   0  0  0  0  0  0  0  0  0  0  0  0
   -0.5379   -0.7641   -3.8149 O   0  0  0  0  0  0  0  0  0  0  0  0
   -1.1876   -0.3508   -4.4041 H   0  0  0  0  0  0  0  0  0  0  0  0
   -0.0747    1.1233    0.3512 C   0  0  0  0  0  0  0  0  0  0  0  0
   -1.1302    1.7393    0.2749 O   0  0  0  0  0  0  0  0  0  0  0  0
    0.8846    1.5652    1.2452 N   0  0  0  0  0  0  0  0  0  0  0  0
    1.7040    0.9824    1.3885 H   0  0  0  0  0  0  0  0  0  0  0  0
    0.7383    2.7806    2.0381 C   0  0  0  0  0  0  0  0  0  0  0  0
   -0.1295    2.7028    2.7017 H   0  0  0  0  0  0  0  0  0  0  0  0
    1.6298    2.9424    2.6518 H   0  0  0  0  0  0  0  0  0  0  0  0
    0.6061    3.6501    1.3853 H   0  0  0  0  0  0  0  0  0  0  0  0
  1  2  1  0  0  0  0
  2  3  1  0  0  0  0
  2  4  1  0  0  0  0
  2  5  1  0  0  0  0
  5  6  2  0  0  0  0
  5  7  1  0  0  0  0
  7  8  1  0  0  0  0
  7  9  1  0  0  0  0
  9 10  1  0  0  0  0
  9 11  1  0  0  0  0
  9 18  1  0  0  0  0
 11 12  1  0  0  0  0
 11 13  1  0  0  0  0
 11 14  1  0  0  0  0
 14 15  2  0  0  0  0
 14 16  1  0  0  0  0
 16 17  1  0  0  0  0
 18 19  2  0  0  0  0
 18 20  1  0  0  0  0
 20 21  1  0  0  0  0
 20 22  1  0  0  0  0
 22 23  1  0  0  0  0
 22 24  1  0  0  0  0
 22 25  1  0  0  0  0
M  END
$$$$

  -OEChem-03222214023D

 25 24  0     1  0  0  0  0  0999 V2000
   -2.7215   -3.9414    0.5239 H   0  0  0  0  0  0  0  0  0  0  0  0
   -2.7721   -2.8962    0.2062 C   0  0  0  0  0  0  0  0  0  0  0  0
   -3.3468   -2.3308    0.9439 H   0  0  0  0  0  0  0  0  0  0  0  0
   -3.2809   -2.8451   -0.7595 H   0  0  0  0  0  0  0  0  0  0  0  0
   -1.3748   -2.3187    0.0847 C   0  0  0  0  0  0  0  0  0  0  0  0
   -0.3993   -3.0159    0.3179 O   0  0  0  0  0  0  0  0  0  0  0  0
   -1.2065   -0.9999   -0.2815 N   0  0  0  0  0  0  0  0  0  0  0  0
   -2.0442   -0.4221   -0.3556 H   0  0  0  0  0  0  0  0  0  0  0  0
    0.0830   -0.2953   -0.2967 C   0  0  1  0  0  0  0  0  0  0  0  0
    0.7998   -0.8386    0.3281 H   0  0  0  0  0  0  0  0  0  0  0  0
    0.6606   -0.2378   -1.7247 C   0  0  0  0  0  0  0  0  0  0  0  0
    1.4971    0.4646   -1.7613 H   0  0  0  0  0  0  0  0  0  0  0  0
    1.0503   -1.2275   -1.9779 H   0  0  0  0  0  0  0  0  0  0  0  0
   -0.3471    0.1488   -2.8005 C   0  0  0  0  0  0  0  0  0  0  0  0
   -0.6929    1.3116   -2.8857 O   0  0  0  0  0  0  0  0  0  0  0  0
   -0.8079   -0.8212   -3.6202 O   0  0  0  0  0  0  0  0  0  0  0  0
   -1.4233   -0.3695   -4.2179 H   0  0  0  0  0  0  0  0  0  0  0  0
   -0.0664    1.1003    0.3466 C   0  0  0  0  0  0  0  0  0  0  0  0
   -1.1176    1.7183    0.2323 O   0  0  0  0  0  0  0  0  0  0  0  0
    0.8765    1.5543    1.2515 N   0  0  0  0  0  0  0  0  0  0  0  0
    1.6945    0.9753    1.4168 H   0  0  0  0  0  0  0  0  0  0  0  0
    0.7198    2.7860    2.0167 C   0  0  0  0  0  0  0  0  0  0  0  0
   -0.1608    2.7253    2.6650 H   0  0  0  0  0  0  0  0  0  0  0  0
    1.5999    2.9575    2.6439 H   0  0  0  0  0  0  0  0  0  0  0  0
    0.6034    3.6428    1.3444 H   0  0  0  0  0  0  0  0  0  0  0  0
  1  2  1  0  0  0  0
  2  3  1  0  0  0  0
  2  4  1  0  0  0  0
  2  5  1  0  0  0  0
  5  6  2  0  0  0  0
  5  7  1  0  0  0  0
  7  8  1  0  0  0  0
  7  9  1  0  0  0  0
  9 10  1  0  0  0  0
  9 11  1  0  0  0  0
  9 18  1  0  0  0  0
 11 12  1  0  0  0  0
 11 13  1  0  0  0  0
 11 14  1  0  0  0  0
 14 15  2  0  0  0  0
 14 16  1  0  0  0  0
 16 17  1  0  0  0  0
 18 19  2  0  0  0  0
 18 20  1  0  0  0  0
 20 21  1  0  0  0  0
 20 22  1  0  0  0  0
 22 23  1  0  0  0  0
 22 24  1  0  0  0  0
 22 25  1  0  0  0  0
M  END
$$$$

  -OEChem-03222214023D

 25 24  0     1  0  0  0  0  0999 V2000
   -2.7199   -3.9623    0.5175 H   0  0  0  0  0  0  0  0  0  0  0  0
   -2.7679   -2.9177    0.1977 C   0  0  0  0  0  0  0  0  0  0  0  0
   -3.3636   -2.3543    0.9198 H   0  0  0  0  0  0  0  0  0  0  0  0
   -3.2524   -2.8702   -0.7805 H   0  0  0  0  0  0  0  0  0  0  0  0
   -1.3712   -2.3329    0.1099 C   0  0  0  0  0  0  0  0  0  0  0  0
   -0.3985   -3.0234    0.3730 O   0  0  0  0  0  0  0  0  0  0  0  0
   -1.2011   -1.0164   -0.2633 N   0  0  0  0  0  0  0  0  0  0  0  0
   -2.0395   -0.4456   -0.3707 H   0  0  0  0  0  0  0  0  0  0  0  0
    0.0895   -0.3141   -0.2827 C   0  0  1  0  0  0  0  0  0  0  0  0
    0.8123   -0.8565    0.3357 H   0  0  0  0  0  0  0  0  0  0  0  0
    0.6537   -0.2361   -1.7145 C   0  0  0  0  0  0  0  0  0  0  0  0
    1.4936    0.4630   -1.7476 H   0  0  0  0  0  0  0  0  0  0  0  0
    1.0352   -1.2229   -1.9897 H   0  0  0  0  0  0  0  0  0  0  0  0
   -0.3679    0.1700   -2.7698 C   0  0  0  0  0  0  0  0  0  0  0  0
   -0.5013    1.3545   -3.0131 O   0  0  0  0  0  0  0  0  0  0  0  0
   -1.0647   -0.7991   -3.4040 O   0  0  0  0  0  0  0  0  0  0  0  0
   -1.6372   -0.3245   -4.0260 H   0  0  0  0  0  0  0  0  0  0  0  0
   -0.0643    1.0828    0.3539 C   0  0  0  0  0  0  0  0  0  0  0  0
   -1.1007    1.7158    0.1938 O   0  0  0  0  0  0  0  0  0  0  0  0
    0.8736    1.5457    1.2589 N   0  0  0  0  0  0  0  0  0  0  0  0
    1.6828    0.9607    1.4456 H   0  0  0  0  0  0  0  0  0  0  0  0
    0.7257    2.7988    1.9899 C   0  0  0  0  0  0  0  0  0  0  0  0
   -0.1714    2.7724    2.6175 H   0  0  0  0  0  0  0  0  0  0  0  0
    1.5940    2.9664    2.6342 H   0  0  0  0  0  0  0  0  0  0  0  0
    0.6444    3.6409    1.2943 H   0  0  0  0  0  0  0  0  0  0  0  0
  1  2  1  0  0  0  0
  2  3  1  0  0  0  0
  2  4  1  0  0  0  0
  2  5  1  0  0  0  0
  5  6  2  0  0  0  0
  5  7  1  0  0  0  0
  7  8  1  0  0  0  0
  7  9  1  0  0  0  0
  9 10  1  0  0  0  0
  9 11  1  0  0  0  0
  9 18  1  0  0  0  0
 11 12  1  0  0  0  0
 11 13  1  0  0  0  0
 11 14  1  0  0  0  0
 14 15  2  0  0  0  0
 14 16  1  0  0  0  0
 16 17  1  0  0  0  0
 18 19  2  0  0  0  0
 18 20  1  0  0  0  0
 20 21  1  0  0  0  0
 20 22  1  0  0  0  0
 22 23  1  0  0  0  0
 22 24  1  0  0  0  0
 22 25  1  0  0  0  0
M  END
$$$$

  -OEChem-03222214023D

 25 24  0     1  0  0  0  0  0999 V2000
   -2.7180   -3.9884    0.5123 H   0  0  0  0  0  0  0  0  0  0  0  0
   -2.7652   -2.9438    0.1924 C   0  0  0  0  0  0  0  0  0  0  0  0
   -3.3857   -2.3864    0.8981 H   0  0  0  0  0  0  0  0  0  0  0  0
   -3.2224   -2.8989   -0.7991 H   0  0  0  0  0  0  0  0  0  0  0  0
   -1.3715   -2.3473    0.1443 C   0  0  0  0  0  0  0  0  0  0  0  0
   -0.4013   -3.0280    0.4404 O   0  0  0  0  0  0  0  0  0  0  0  0
   -1.2012   -1.0323   -0.2329 N   0  0  0  0  0  0  0  0  0  0  0  0
   -2.0395   -0.4776   -0.4029 H   0  0  0  0  0  0  0  0  0  0  0  0
    0.0883   -0.3293   -0.2647 C   0  0  1  0  0  0  0  0  0  0  0  0
    0.8220   -0.8715    0.3410 H   0  0  0  0  0  0  0  0  0  0  0  0
    0.6344   -0.2244   -1.7029 C   0  0  0  0  0  0  0  0  0  0  0  0
    1.4770    0.4724   -1.7296 H   0  0  0  0  0  0  0  0  0  0  0  0
    1.0101   -1.2066   -2.0006 H   0  0  0  0  0  0  0  0  0  0  0  0
   -0.3953    0.2002   -2.7456 C   0  0  0  0  0  0  0  0  0  0  0  0
   -0.3361    1.3413   -3.1648 O   0  0  0  0  0  0  0  0  0  0  0  0
   -1.2885   -0.7084   -3.1996 O   0  0  0  0  0  0  0  0  0  0  0  0
   -1.8126   -0.2286   -3.8594 H   0  0  0  0  0  0  0  0  0  0  0  0
   -0.0658    1.0676    0.3699 C   0  0  0  0  0  0  0  0  0  0  0  0
   -1.0822    1.7202    0.1662 O   0  0  0  0  0  0  0  0  0  0  0  0
    0.8745    1.5381    1.2679 N   0  0  0  0  0  0  0  0  0  0  0  0
    1.6711    0.9434    1.4767 H   0  0  0  0  0  0  0  0  0  0  0  0
    0.7419    2.8102    1.9681 C   0  0  0  0  0  0  0  0  0  0  0  0
   -0.1539    2.8095    2.5981 H   0  0  0  0  0  0  0  0  0  0  0  0
    1.6137    2.9838    2.6064 H   0  0  0  0  0  0  0  0  0  0  0  0
    0.6686    3.6356    1.2519 H   0  0  0  0  0  0  0  0  0  0  0  0
  1  2  1  0  0  0  0
  2  3  1  0  0  0  0
  2  4  1  0  0  0  0
  2  5  1  0  0  0  0
  5  6  2  0  0  0  0
  5  7  1  0  0  0  0
  7  8  1  0  0  0  0
  7  9  1  0  0  0  0
  9 10  1  0  0  0  0
  9 11  1  0  0  0  0
  9 18  1  0  0  0  0
 11 12  1  0  0  0  0
 11 13  1  0  0  0  0
 11 14  1  0  0  0  0
 14 15  2  0  0  0  0
 14 16  1  0  0  0  0
 16 17  1  0  0  0  0
 18 19  2  0  0  0  0
 18 20  1  0  0  0  0
 20 21  1  0  0  0  0
 20 22  1  0  0  0  0
 22 23  1  0  0  0  0
 22 24  1  0  0  0  0
 22 25  1  0  0  0  0
M  END
$$$$

  -OEChem-03222214023D

 25 24  0     1  0  0  0  0  0999 V2000
   -2.7061   -4.0256    0.4885 H   0  0  0  0  0  0  0  0  0  0  0  0
   -2.7576   -2.9802    0.1723 C   0  0  0  0  0  0  0  0  0  0  0  0
   -3.4208   -2.4386    0.8510 H   0  0  0  0  0  0  0  0  0  0  0  0
   -3.1685   -2.9375   -0.8394 H   0  0  0  0  0  0  0  0  0  0  0  0
   -1.3741   -2.3586    0.1929 C   0  0  0  0  0  0  0  0  0  0  0  0
   -0.4079   -3.0216    0.5384 O   0  0  0  0  0  0  0  0  0  0  0  0
   -1.2076   -1.0442   -0.1879 N   0  0  0  0  0  0  0  0  0  0  0  0
   -2.0387   -0.5253   -0.4690 H   0  0  0  0  0  0  0  0  0  0  0  0
    0.0798   -0.3391   -0.2387 C   0  0  1  0  0  0  0  0  0  0  0  0
    0.8269   -0.8812    0.3502 H   0  0  0  0  0  0  0  0  0  0  0  0
    0.6016   -0.2068   -1.6857 C   0  0  0  0  0  0  0  0  0  0  0  0
    1.4466    0.4876   -1.7070 H   0  0  0  0  0  0  0  0  0  0  0  0
    0.9726   -1.1841   -2.0035 H   0  0  0  0  0  0  0  0  0  0  0  0
   -0.4320    0.2352   -2.7221 C   0  0  0  0  0  0  0  0  0  0  0  0
   -0.2047    1.2699   -3.3218 O   0  0  0  0  0  0  0  0  0  0  0  0
   -1.4972   -0.5536   -2.9951 O   0  0  0  0  0  0  0  0  0  0  0  0
   -1.9762   -0.0808   -3.6935 H   0  0  0  0  0  0  0  0  0  0  0  0
   -0.0686    1.0577    0.3964 C   0  0  0  0  0  0  0  0  0  0  0  0
   -1.0594    1.7356    0.1529 O   0  0  0  0  0  0  0  0  0  0  0  0
    0.8815    1.5329    1.2815 N   0  0  0  0  0  0  0  0  0  0  0  0
    1.6614    0.9245    1.5133 H   0  0  0  0  0  0  0  0  0  0  0  0
    0.7754    2.8267    1.9455 C   0  0  0  0  0  0  0  0  0  0  0  0
   -0.1303    2.8693    2.5598 H   0  0  0  0  0  0  0  0  0  0  0  0
    1.6414    2.9915    2.5938 H   0  0  0  0  0  0  0  0  0  0  0  0
    0.7386    3.6347    1.2069 H   0  0  0  0  0  0  0  0  0  0  0  0
  1  2  1  0  0  0  0
  2  3  1  0  0  0  0
  2  4  1  0  0  0  0
  2  5  1  0  0  0  0
  5  6  2  0  0  0  0
  5  7  1  0  0  0  0
  7  8  1  0  0  0  0
  7  9  1  0  0  0  0
  9 10  1  0  0  0  0
  9 11  1  0  0  0  0
  9 18  1  0  0  0  0
 11 12  1  0  0  0  0
 11 13  1  0  0  0  0
 11 14  1  0  0  0  0
 14 15  2  0  0  0  0
 14 16  1  0  0  0  0
 16 17  1  0  0  0  0
 18 19  2  0  0  0  0
 18 20  1  0  0  0  0
 20 21  1  0  0  0  0
 20 22  1  0  0  0  0
 22 23  1  0  0  0  0
 22 24  1  0  0  0  0
 22 25  1  0  0  0  0
M  END
$$$$

  -OEChem-03222214023D

 25 24  0     1  0  0  0  0  0999 V2000
   -2.6896   -4.0582    0.4605 H   0  0  0  0  0  0  0  0  0  0  0  0
   -2.7474   -3.0116    0.1490 C   0  0  0  0  0  0  0  0  0  0  0  0
   -3.4493   -2.4871    0.8017 H   0  0  0  0  0  0  0  0  0  0  0  0
   -3.1156   -2.9693   -0.8790 H   0  0  0  0  0  0  0  0  0  0  0  0
   -1.3787   -2.3632    0.2345 C   0  0  0  0  0  0  0  0  0  0  0  0
   -0.4178   -3.0068    0.6279 O   0  0  0  0  0  0  0  0  0  0  0  0
   -1.2186   -1.0490   -0.1492 N   0  0  0  0  0  0  0  0  0  0  0  0
   -2.0312   -0.5737   -0.5413 H   0  0  0  0  0  0  0  0  0  0  0  0
    0.0670   -0.3424   -0.2144 C   0  0  1  0  0  0  0  0  0  0  0  0
    0.8242   -0.8855    0.3604 H   0  0  0  0  0  0  0  0  0  0  0  0
    0.5685   -0.1921   -1.6688 C   0  0  0  0  0  0  0  0  0  0  0  0
    1.4157    0.5000   -1.6876 H   0  0  0  0  0  0  0  0  0  0  0  0
    0.9354   -1.1670   -1.9981 H   0  0  0  0  0  0  0  0  0  0  0  0
   -0.4609    0.2617   -2.7090 C   0  0  0  0  0  0  0  0  0  0  0  0
   -0.0960    1.1273   -3.4836 O   0  0  0  0  0  0  0  0  0  0  0  0
   -1.6711   -0.3393   -2.8008 O   0  0  0  0  0  0  0  0  0  0  0  0
   -2.1106    0.1161   -3.5362 H   0  0  0  0  0  0  0  0  0  0  0  0
   -0.0719    1.0557    0.4207 C   0  0  0  0  0  0  0  0  0  0  0  0
   -1.0372    1.7582    0.1466 O   0  0  0  0  0  0  0  0  0  0  0  0
    0.8891    1.5308    1.2943 N   0  0  0  0  0  0  0  0  0  0  0  0
    1.6538    0.9096    1.5425 H   0  0  0  0  0  0  0  0  0  0  0  0
    0.8086    2.8393    1.9331 C   0  0  0  0  0  0  0  0  0  0  0  0
   -0.0919    2.9090    2.5525 H   0  0  0  0  0  0  0  0  0  0  0  0
    1.6815    3.0032    2.5725 H   0  0  0  0  0  0  0  0  0  0  0  0
    0.7795    3.6327    1.1786 H   0  0  0  0  0  0  0  0  0  0  0  0
  1  2  1  0  0  0  0
  2  3  1  0  0  0  0
  2  4  1  0  0  0  0
  2  5  1  0  0  0  0
  5  6  2  0  0  0  0
  5  7  1  0  0  0  0
  7  8  1  0  0  0  0
  7  9  1  0  0  0  0
  9 10  1  0  0  0  0
  9 11  1  0  0  0  0
  9 18  1  0  0  0  0
 11 12  1  0  0  0  0
 11 13  1  0  0  0  0
 11 14  1  0  0  0  0
 14 15  2  0  0  0  0
 14 16  1  0  0  0  0
 16 17  1  0  0  0  0
 18 19  2  0  0  0  0
 18 20  1  0  0  0  0
 20 21  1  0  0  0  0
 20 22  1  0  0  0  0
 22 23  1  0  0  0  0
 22 24  1  0  0  0  0
 22 25  1  0  0  0  0
M  END
$$$$

  -OEChem-03222214023D

 25 24  0     1  0  0  0  0  0999 V2000
   -2.6765   -4.0722    0.4546 H   0  0  0  0  0  0  0  0  0  0  0  0
   -2.7409   -3.0251    0.1460 C   0  0  0  0  0  0  0  0  0  0  0  0
   -3.4526   -2.5089    0.7946 H   0  0  0  0  0  0  0  0  0  0  0  0
   -3.1009   -2.9825   -0.8849 H   0  0  0  0  0  0  0  0  0  0  0  0
   -1.3786   -2.3650    0.2453 C   0  0  0  0  0  0  0  0  0  0  0  0
   -0.4161   -3.0009    0.6474 O   0  0  0  0  0  0  0  0  0  0  0  0
   -1.2254   -1.0492   -0.1357 N   0  0  0  0  0  0  0  0  0  0  0  0
   -2.0313   -0.5887   -0.5608 H   0  0  0  0  0  0  0  0  0  0  0  0
    0.0565   -0.3374   -0.2066 C   0  0  1  0  0  0  0  0  0  0  0  0
    0.8193   -0.8804    0.3609 H   0  0  0  0  0  0  0  0  0  0  0  0
    0.5488   -0.1801   -1.6645 C   0  0  0  0  0  0  0  0  0  0  0  0
    1.3928    0.5159   -1.6821 H   0  0  0  0  0  0  0  0  0  0  0  0
    0.9202   -1.1535   -1.9941 H   0  0  0  0  0  0  0  0  0  0  0  0
   -0.4726    0.2724   -2.7159 C   0  0  0  0  0  0  0  0  0  0  0  0
   -0.0190    0.9142   -3.6458 O   0  0  0  0  0  0  0  0  0  0  0  0
   -1.7780   -0.0831   -2.6432 O   0  0  0  0  0  0  0  0  0  0  0  0
   -2.1879    0.3440   -3.4119 H   0  0  0  0  0  0  0  0  0  0  0  0
   -0.0760    1.0604    0.4317 C   0  0  0  0  0  0  0  0  0  0  0  0
   -1.0263    1.7787    0.1474 O   0  0  0  0  0  0  0  0  0  0  0  0
    0.8943    1.5302    1.2980 N   0  0  0  0  0  0  0  0  0  0  0  0
    1.6428    0.8950    1.5598 H   0  0  0  0  0  0  0  0  0  0  0  0
    0.8264    2.8389    1.9379 C   0  0  0  0  0  0  0  0  0  0  0  0
   -0.0716    2.9152    2.5601 H   0  0  0  0  0  0  0  0  0  0  0  0
    1.7025    2.9953    2.5746 H   0  0  0  0  0  0  0  0  0  0  0  0
    0.8014    3.6334    1.1846 H   0  0  0  0  0  0  0  0  0  0  0  0
  1  2  1  0  0  0  0
  2  3  1  0  0  0  0
  2  4  1  0  0  0  0
  2  5  1  0  0  0  0
  5  6  2  0  0  0  0
  5  7  1  0  0  0  0
  7  8  1  0  0  0  0
  7  9  1  0  0  0  0
  9 10  1  0  0  0  0
  9 11  1  0  0  0  0
  9 18  1  0  0  0  0
 11 12  1  0  0  0  0
 11 13  1  0  0  0  0
 11 14  1  0  0  0  0
 14 15  2  0  0  0  0
 14 16  1  0  0  0  0
 16 17  1  0  0  0  0
 18 19  2  0  0  0  0
 18 20  1  0  0  0  0
 20 21  1  0  0  0  0
 20 22  1  0  0  0  0
 22 23  1  0  0  0  0
 22 24  1  0  0  0  0
 22 25  1  0  0  0  0
M  END
$$$$

  -OEChem-03222214023D

 25 24  0     1  0  0  0  0  0999 V2000
   -2.6737   -4.0708    0.4534 H   0  0  0  0  0  0  0  0  0  0  0  0
   -2.7413   -3.0222    0.1503 C   0  0  0  0  0  0  0  0  0  0  0  0
   -3.4387   -2.5066    0.8150 H   0  0  0  0  0  0  0  0  0  0  0  0
   -3.1213   -2.9742   -0.8730 H   0  0  0  0  0  0  0  0  0  0  0  0
   -1.3755   -2.3670    0.2253 C   0  0  0  0  0  0  0  0  0  0  0  0
   -0.4058   -3.0090    0.5989 O   0  0  0  0  0  0  0  0  0  0  0  0
   -1.2276   -1.0473   -0.1434 N   0  0  0  0  0  0  0  0  0  0  0  0
   -2.0439   -0.5694   -0.5287 H   0  0  0  0  0  0  0  0  0  0  0  0
    0.0487   -0.3259   -0.2090 C   0  0  1  0  0  0  0  0  0  0  0  0
    0.8119   -0.8698    0.3571 H   0  0  0  0  0  0  0  0  0  0  0  0
    0.5432   -0.1702   -1.6659 C   0  0  0  0  0  0  0  0  0  0  0  0
    1.3789    0.5352   -1.6841 H   0  0  0  0  0  0  0  0  0  0  0  0
    0.9257   -1.1422   -1.9877 H   0  0  0  0  0  0  0  0  0  0  0  0
   -0.4714    0.2693   -2.7295 C   0  0  0  0  0  0  0  0  0  0  0  0
    0.0112    0.6504   -3.7804 O   0  0  0  0  0  0  0  0  0  0  0  0
   -1.8086    0.1917   -2.5261 O   0  0  0  0  0  0  0  0  0  0  0  0
   -2.2010    0.5693   -3.3288 H   0  0  0  0  0  0  0  0  0  0  0  0
   -0.0816    1.0676    0.4397 C   0  0  0  0  0  0  0  0  0  0  0  0
   -1.0327    1.7906    0.1717 O   0  0  0  0  0  0  0  0  0  0  0  0
    0.8940    1.5283    1.3050 N   0  0  0  0  0  0  0  0  0  0  0  0
    1.6465    0.8920    1.5525 H   0  0  0  0  0  0  0  0  0  0  0  0
    0.8334    2.8329    1.9536 C   0  0  0  0  0  0  0  0  0  0  0  0
   -0.0700    2.9145    2.5670 H   0  0  0  0  0  0  0  0  0  0  0  0
    1.7047    2.9751    2.6002 H   0  0  0  0  0  0  0  0  0  0  0  0
    0.8239    3.6324    1.2051 H   0  0  0  0  0  0  0  0  0  0  0  0
  1  2  1  0  0  0  0
  2  3  1  0  0  0  0
  2  4  1  0  0  0  0
  2  5  1  0  0  0  0
  5  6  2  0  0  0  0
  5  7  1  0  0  0  0
  7  8  1  0  0  0  0
  7  9  1  0  0  0  0
  9 10  1  0  0  0  0
  9 11  1  0  0  0  0
  9 18  1  0  0  0  0
 11 12  1  0  0  0  0
 11 13  1  0  0  0  0
 11 14  1  0  0  0  0
 14 15  2  0  0  0  0
 14 16  1  0  0  0  0
 16 17  1  0  0  0  0
 18 19  2  0  0  0  0
 18 20  1  0  0  0  0
 20 21  1  0  0  0  0
 20 22  1  0  0  0  0
 22 23  1  0  0  0  0
 22 24  1  0  0  0  0
 22 25  1  0  0  0  0
M  END
$$$$

  -OEChem-03222214023D

 25 24  0     1  0  0  0  0  0999 V2000
   -2.6670   -4.0071    0.4138 H   0  0  0  0  0  0  0  0  0  0  0  0
   -2.7463   -2.9529    0.1342 C   0  0  0  0  0  0  0  0  0  0  0  0
   -3.3876   -2.4433    0.8573 H   0  0  0  0  0  0  0  0  0  0  0  0
   -3.2007   -2.8841   -0.8572 H   0  0  0  0  0  0  0  0  0  0  0  0
   -1.3721   -2.3111    0.1191 C   0  0  0  0  0  0  0  0  0  0  0  0
   -0.3818   -2.9750    0.3837 O   0  0  0  0  0  0  0  0  0  0  0  0
   -1.2404   -0.9777   -0.2057 N   0  0  0  0  0  0  0  0  0  0  0  0
   -2.0888   -0.4513   -0.4167 H   0  0  0  0  0  0  0  0  0  0  0  0
    0.0228   -0.2308   -0.2403 C   0  0  1  0  0  0  0  0  0  0  0  0
    0.7605   -0.7842    0.3501 H   0  0  0  0  0  0  0  0  0  0  0  0
    0.5678   -0.1626   -1.6815 C   0  0  0  0  0  0  0  0  0  0  0  0
    1.5238    0.3668   -1.6720 H   0  0  0  0  0  0  0  0  0  0  0  0
    0.7572   -1.1842   -2.0220 H   0  0  0  0  0  0  0  0  0  0  0  0
   -0.3230    0.5094   -2.7280 C   0  0  0  0  0  0  0  0  0  0  0  0
    0.1286    0.5541   -3.8578 O   0  0  0  0  0  0  0  0  0  0  0  0
   -1.5763    0.9130   -2.4243 O   0  0  0  0  0  0  0  0  0  0  0  0
   -1.9266    1.3009   -3.2401 H   0  0  0  0  0  0  0  0  0  0  0  0
   -0.0770    1.1533    0.4395 C   0  0  0  0  0  0  0  0  0  0  0  0
   -1.0844    1.8400    0.3361 O   0  0  0  0  0  0  0  0  0  0  0  0
    0.9227    1.5692    1.3010 N   0  0  0  0  0  0  0  0  0  0  0  0
    1.7018    0.9372    1.4616 H   0  0  0  0  0  0  0  0  0  0  0  0
    0.8441    2.7986    2.0818 C   0  0  0  0  0  0  0  0  0  0  0  0
   -0.0036    2.7594    2.7741 H   0  0  0  0  0  0  0  0  0  0  0  0
    1.7605    2.9371    2.6636 H   0  0  0  0  0  0  0  0  0  0  0  0
    0.7205    3.6641    1.4223 H   0  0  0  0  0  0  0  0  0  0  0  0
  1  2  1  0  0  0  0
  2  3  1  0  0  0  0
  2  4  1  0  0  0  0
  2  5  1  0  0  0  0
  5  6  2  0  0  0  0
  5  7  1  0  0  0  0
  7  8  1  0  0  0  0
  7  9  1  0  0  0  0
  9 10  1  0  0  0  0
  9 11  1  0  0  0  0
  9 18  1  0  0  0  0
 11 12  1  0  0  0  0
 11 13  1  0  0  0  0
 11 14  1  0  0  0  0
 14 15  2  0  0  0  0
 14 16  1  0  0  0  0
 16 17  1  0  0  0  0
 18 19  2  0  0  0  0
 18 20  1  0  0  0  0
 20 21  1  0  0  0  0
 20 22  1  0  0  0  0
 22 23  1  0  0  0  0
 22 24  1  0  0  0  0
 22 25  1  0  0  0  0
M  END
$$$$

  -OEChem-03222214023D

 25 24  0     1  0  0  0  0  0999 V2000
   -2.6603   -3.9762    0.4642 H   0  0  0  0  0  0  0  0  0  0  0  0
   -2.7470   -2.9230    0.1825 C   0  0  0  0  0  0  0  0  0  0  0  0
   -3.3389   -2.4032    0.9399 H   0  0  0  0  0  0  0  0  0  0  0  0
   -3.2600   -2.8566   -0.7800 H   0  0  0  0  0  0  0  0  0  0  0  0
   -1.3705   -2.2942    0.0790 C   0  0  0  0  0  0  0  0  0  0  0  0
   -0.3713   -2.9704    0.2685 O   0  0  0  0  0  0  0  0  0  0  0  0
   -1.2475   -0.9577   -0.2371 N   0  0  0  0  0  0  0  0  0  0  0  0
   -2.1041   -0.4106   -0.3241 H   0  0  0  0  0  0  0  0  0  0  0  0
    0.0155   -0.2096   -0.2735 C   0  0  1  0  0  0  0  0  0  0  0  0
    0.7448   -0.7623    0.3280 H   0  0  0  0  0  0  0  0  0  0  0  0
    0.5850   -0.1671   -1.7063 C   0  0  0  0  0  0  0  0  0  0  0  0
    1.5382    0.3664   -1.6901 H   0  0  0  0  0  0  0  0  0  0  0  0
    0.7856   -1.1954   -2.0211 H   0  0  0  0  0  0  0  0  0  0  0  0
   -0.2864    0.4818   -2.7813 C   0  0  0  0  0  0  0  0  0  0  0  0
    0.0352    0.2633   -3.9351 O   0  0  0  0  0  0  0  0  0  0  0  0
   -1.3654    1.2193   -2.4495 O   0  0  0  0  0  0  0  0  0  0  0  0
   -1.7403    1.5266   -3.2880 H   0  0  0  0  0  0  0  0  0  0  0  0
   -0.0879    1.1686    0.4192 C   0  0  0  0  0  0  0  0  0  0  0  0
   -1.1378    1.7983    0.4142 O   0  0  0  0  0  0  0  0  0  0  0  0
    0.9165    1.5783    1.2787 N   0  0  0  0  0  0  0  0  0  0  0  0
    1.7311    0.9788    1.3742 H   0  0  0  0  0  0  0  0  0  0  0  0
    0.8129    2.7608    2.1264 C   0  0  0  0  0  0  0  0  0  0  0  0
   -0.0239    2.6590    2.8256 H   0  0  0  0  0  0  0  0  0  0  0  0
    1.7325    2.8936    2.7043 H   0  0  0  0  0  0  0  0  0  0  0  0
    0.6563    3.6571    1.5169 H   0  0  0  0  0  0  0  0  0  0  0  0
  1  2  1  0  0  0  0
  2  3  1  0  0  0  0
  2  4  1  0  0  0  0
  2  5  1  0  0  0  0
  5  6  2  0  0  0  0
  5  7  1  0  0  0  0
  7  8  1  0  0  0  0
  7  9  1  0  0  0  0
  9 10  1  0  0  0  0
  9 11  1  0  0  0  0
  9 18  1  0  0  0  0
 11 12  1  0  0  0  0
 11 13  1  0  0  0  0
 11 14  1  0  0  0  0
 14 15  2  0  0  0  0
 14 16  1  0  0  0  0
 16 17  1  0  0  0  0
 18 19  2  0  0  0  0
 18 20  1  0  0  0  0
 20 21  1  0  0  0  0
 20 22  1  0  0  0  0
 22 23  1  0  0  0  0
 22 24  1  0  0  0  0
 22 25  1  0  0  0  0
M  END
$$$$

  -OEChem-03222214023D

 25 24  0     1  0  0  0  0  0999 V2000
   -2.6596   -3.9589    0.4888 H   0  0  0  0  0  0  0  0  0  0  0  0
   -2.7474   -2.9046    0.2124 C   0  0  0  0  0  0  0  0  0  0  0  0
   -3.3048   -2.3809    0.9928 H   0  0  0  0  0  0  0  0  0  0  0  0
   -3.2960   -2.8316   -0.7296 H   0  0  0  0  0  0  0  0  0  0  0  0
   -1.3700   -2.2882    0.0574 C   0  0  0  0  0  0  0  0  0  0  0  0
   -0.3705   -2.9724    0.2141 O   0  0  0  0  0  0  0  0  0  0  0  0
   -1.2468   -0.9513   -0.2592 N   0  0  0  0  0  0  0  0  0  0  0  0
   -2.1003   -0.3927   -0.2752 H   0  0  0  0  0  0  0  0  0  0  0  0
    0.0218   -0.2111   -0.2937 C   0  0  1  0  0  0  0  0  0  0  0  0
    0.7471   -0.7637    0.3128 H   0  0  0  0  0  0  0  0  0  0  0  0
    0.5957   -0.1805   -1.7257 C   0  0  0  0  0  0  0  0  0  0  0  0
    1.5499    0.3507   -1.7110 H   0  0  0  0  0  0  0  0  0  0  0  0
    0.7948   -1.2114   -2.0339 H   0  0  0  0  0  0  0  0  0  0  0  0
   -0.2735    0.4707   -2.7996 C   0  0  0  0  0  0  0  0  0  0  0  0
   -0.1552    0.0407   -3.9327 O   0  0  0  0  0  0  0  0  0  0  0  0
   -1.0599    1.5208   -2.4941 O   0  0  0  0  0  0  0  0  0  0  0  0
   -1.4811    1.7834   -3.3257 H   0  0  0  0  0  0  0  0  0  0  0  0
   -0.0938    1.1636    0.4039 C   0  0  0  0  0  0  0  0  0  0  0  0
   -1.1652    1.7572    0.4313 O   0  0  0  0  0  0  0  0  0  0  0  0
    0.9025    1.5757    1.2717 N   0  0  0  0  0  0  0  0  0  0  0  0
    1.7313    0.9938    1.3507 H   0  0  0  0  0  0  0  0  0  0  0  0
    0.7767    2.7394    2.1421 C   0  0  0  0  0  0  0  0  0  0  0  0
   -0.0435    2.5991    2.8541 H   0  0  0  0  0  0  0  0  0  0  0  0
    1.7020    2.8920    2.7058 H   0  0  0  0  0  0  0  0  0  0  0  0
    0.5803    3.6408    1.5518 H   0  0  0  0  0  0  0  0  0  0  0  0
  1  2  1  0  0  0  0
  2  3  1  0  0  0  0
  2  4  1  0  0  0  0
  2  5  1  0  0  0  0
  5  6  2  0  0  0  0
  5  7  1  0  0  0  0
  7  8  1  0  0  0  0
  7  9  1  0  0  0  0
  9 10  1  0  0  0  0
  9 11  1  0  0  0  0
  9 18  1  0  0  0  0
 11 12  1  0  0  0  0
 11 13  1  0  0  0  0
 11 14  1  0  0  0  0
 14 15  2  0  0  0  0
 14 16  1  0  0  0  0
 16 17  1  0  0  0  0
 18 19  2  0  0  0  0
 18 20  1  0  0  0  0
 20 21  1  0  0  0  0
 20 22  1  0  0  0  0
 22 23  1  0  0  0  0
 22 24  1  0  0  0  0
 22 25  1  0  0  0  0
M  END
$$$$

  -OEChem-03222214023D

 25 24  0     1  0  0  0  0  0999 V2000
   -2.6721   -3.9507    0.4875 H   0  0  0  0  0  0  0  0  0  0  0  0
   -2.7510   -2.8959    0.2097 C   0  0  0  0  0  0  0  0  0  0  0  0
   -3.3053   -2.3671    0.9889 H   0  0  0  0  0  0  0  0  0  0  0  0
   -3.2982   -2.8197   -0.7330 H   0  0  0  0  0  0  0  0  0  0  0  0
   -1.3685   -2.2909    0.0549 C   0  0  0  0  0  0  0  0  0  0  0  0
   -0.3748   -2.9814    0.2210 O   0  0  0  0  0  0  0  0  0  0  0  0
   -1.2336   -0.9569   -0.2697 N   0  0  0  0  0  0  0  0  0  0  0  0
   -2.0819   -0.3903   -0.2773 H   0  0  0  0  0  0  0  0  0  0  0  0
    0.0429   -0.2293   -0.2972 C   0  0  1  0  0  0  0  0  0  0  0  0
    0.7672   -0.7834    0.3093 H   0  0  0  0  0  0  0  0  0  0  0  0
    0.6072   -0.1935   -1.7323 C   0  0  0  0  0  0  0  0  0  0  0  0
    1.5661    0.3291   -1.7247 H   0  0  0  0  0  0  0  0  0  0  0  0
    0.7934   -1.2225   -2.0547 H   0  0  0  0  0  0  0  0  0  0  0  0
   -0.2779    0.4824   -2.7754 C   0  0  0  0  0  0  0  0  0  0  0  0
   -0.4169   -0.0845   -3.8443 O   0  0  0  0  0  0  0  0  0  0  0  0
   -0.7382    1.7270   -2.5405 O   0  0  0  0  0  0  0  0  0  0  0  0
   -1.2316    1.9783   -3.3352 H   0  0  0  0  0  0  0  0  0  0  0  0
   -0.0861    1.1466    0.3943 C   0  0  0  0  0  0  0  0  0  0  0  0
   -1.1612    1.7355    0.3928 O   0  0  0  0  0  0  0  0  0  0  0  0
    0.8927    1.5685    1.2767 N   0  0  0  0  0  0  0  0  0  0  0  0
    1.7247    0.9937    1.3719 H   0  0  0  0  0  0  0  0  0  0  0  0
    0.7491    2.7425    2.1302 C   0  0  0  0  0  0  0  0  0  0  0  0
   -0.0802    2.6064    2.8324 H   0  0  0  0  0  0  0  0  0  0  0  0
    1.6656    2.9077    2.7047 H   0  0  0  0  0  0  0  0  0  0  0  0
    0.5559    3.6350    1.5256 H   0  0  0  0  0  0  0  0  0  0  0  0
  1  2  1  0  0  0  0
  2  3  1  0  0  0  0
  2  4  1  0  0  0  0
  2  5  1  0  0  0  0
  5  6  2  0  0  0  0
  5  7  1  0  0  0  0
  7  8  1  0  0  0  0
  7  9  1  0  0  0  0
  9 10  1  0  0  0  0
  9 11  1  0  0  0  0
  9 18  1  0  0  0  0
 11 12  1  0  0  0  0
 11 13  1  0  0  0  0
 11 14  1  0  0  0  0
 14 15  2  0  0  0  0
 14 16  1  0  0  0  0
 16 17  1  0  0  0  0
 18 19  2  0  0  0  0
 18 20  1  0  0  0  0
 20 21  1  0  0  0  0
 20 22  1  0  0  0  0
 22 23  1  0  0  0  0
 22 24  1  0  0  0  0
 22 25  1  0  0  0  0
M  END
$$$$

  -OEChem-03222214023D

 25 24  0     1  0  0  0  0  0999 V2000
   -2.6904   -3.9480    0.4679 H   0  0  0  0  0  0  0  0  0  0  0  0
   -2.7556   -2.8946    0.1817 C   0  0  0  0  0  0  0  0  0  0  0  0
   -3.3286   -2.3578    0.9415 H   0  0  0  0  0  0  0  0  0  0  0  0
   -3.2754   -2.8215   -0.7767 H   0  0  0  0  0  0  0  0  0  0  0  0
   -1.3660   -2.2978    0.0628 C   0  0  0  0  0  0  0  0  0  0  0  0
   -0.3811   -2.9902    0.2691 O   0  0  0  0  0  0  0  0  0  0  0  0
   -1.2151   -0.9681   -0.2723 N   0  0  0  0  0  0  0  0  0  0  0  0
   -2.0604   -0.3992   -0.3212 H   0  0  0  0  0  0  0  0  0  0  0  0
    0.0681   -0.2515   -0.2891 C   0  0  1  0  0  0  0  0  0  0  0  0
    0.7916   -0.8071    0.3167 H   0  0  0  0  0  0  0  0  0  0  0  0
    0.6202   -0.2028   -1.7269 C   0  0  0  0  0  0  0  0  0  0  0  0
    1.5839    0.3114   -1.7263 H   0  0  0  0  0  0  0  0  0  0  0  0
    0.7915   -1.2272   -2.0713 H   0  0  0  0  0  0  0  0  0  0  0  0
   -0.2859    0.5019   -2.7300 C   0  0  0  0  0  0  0  0  0  0  0  0
   -0.6913   -0.1377   -3.6841 O   0  0  0  0  0  0  0  0  0  0  0  0
   -0.4647    1.8331   -2.6050 O   0  0  0  0  0  0  0  0  0  0  0  0
   -1.0380    2.0892   -3.3426 H   0  0  0  0  0  0  0  0  0  0  0  0
   -0.0701    1.1291    0.3897 C   0  0  0  0  0  0  0  0  0  0  0  0
   -1.1336    1.7357    0.3275 O   0  0  0  0  0  0  0  0  0  0  0  0
    0.8904    1.5616    1.2865 N   0  0  0  0  0  0  0  0  0  0  0  0
    1.7164    0.9840    1.4128 H   0  0  0  0  0  0  0  0  0  0  0  0
    0.7398    2.7615    2.1020 C   0  0  0  0  0  0  0  0  0  0  0  0
   -0.1164    2.6607    2.7773 H   0  0  0  0  0  0  0  0  0  0  0  0
    1.6385    2.9253    2.7046 H   0  0  0  0  0  0  0  0  0  0  0  0
    0.5859    3.6400    1.4663 H   0  0  0  0  0  0  0  0  0  0  0  0
  1  2  1  0  0  0  0
  2  3  1  0  0  0  0
  2  4  1  0  0  0  0
  2  5  1  0  0  0  0
  5  6  2  0  0  0  0
  5  7  1  0  0  0  0
  7  8  1  0  0  0  0
  7  9  1  0  0  0  0
  9 10  1  0  0  0  0
  9 11  1  0  0  0  0
  9 18  1  0  0  0  0
 11 12  1  0  0  0  0
 11 13  1  0  0  0  0
 11 14  1  0  0  0  0
 14 15  2  0  0  0  0
 14 16  1  0  0  0  0
 16 17  1  0  0  0  0
 18 19  2  0  0  0  0
 18 20  1  0  0  0  0
 20 21  1  0  0  0  0
 20 22  1  0  0  0  0
 22 23  1  0  0  0  0
 22 24  1  0  0  0  0
 22 25  1  0  0  0  0
M  END
$$$$

  -OEChem-03222214023D

 25 24  0     1  0  0  0  0  0999 V2000
   -2.7073   -3.9598    0.4255 H   0  0  0  0  0  0  0  0  0  0  0  0
   -2.7592   -2.9080    0.1313 C   0  0  0  0  0  0  0  0  0  0  0  0
   -3.3743   -2.3689    0.8556 H   0  0  0  0  0  0  0  0  0  0  0  0
   -3.2257   -2.8404   -0.8545 H   0  0  0  0  0  0  0  0  0  0  0  0
   -1.3668   -2.3081    0.0854 C   0  0  0  0  0  0  0  0  0  0  0  0
   -0.3931   -2.9945    0.3556 O   0  0  0  0  0  0  0  0  0  0  0  0
   -1.2011   -0.9832   -0.2604 N   0  0  0  0  0  0  0  0  0  0  0  0
   -2.0431   -0.4239   -0.3939 H   0  0  0  0  0  0  0  0  0  0  0  0
    0.0857   -0.2729   -0.2698 C   0  0  1  0  0  0  0  0  0  0  0  0
    0.8099   -0.8289    0.3345 H   0  0  0  0  0  0  0  0  0  0  0  0
    0.6282   -0.2080   -1.7097 C   0  0  0  0  0  0  0  0  0  0  0  0
    1.5947    0.3010   -1.7133 H   0  0  0  0  0  0  0  0  0  0  0  0
    0.7888   -1.2259   -2.0766 H   0  0  0  0  0  0  0  0  0  0  0  0
   -0.2961    0.5196   -2.6778 C   0  0  0  0  0  0  0  0  0  0  0  0
   -0.9449   -0.1399   -3.4707 O   0  0  0  0  0  0  0  0  0  0  0  0
   -0.2572    1.8688   -2.6914 O   0  0  0  0  0  0  0  0  0  0  0  0
   -0.9066    2.1396   -3.3575 H   0  0  0  0  0  0  0  0  0  0  0  0
   -0.0547    1.1143    0.3934 C   0  0  0  0  0  0  0  0  0  0  0  0
   -1.0929    1.7520    0.2605 O   0  0  0  0  0  0  0  0  0  0  0  0
    0.8938    1.5559    1.2981 N   0  0  0  0  0  0  0  0  0  0  0  0
    1.7035    0.9653    1.4641 H   0  0  0  0  0  0  0  0  0  0  0  0
    0.7582    2.7937    2.0570 C   0  0  0  0  0  0  0  0  0  0  0  0
   -0.1349    2.7600    2.6899 H   0  0  0  0  0  0  0  0  0  0  0  0
    1.6316    2.9414    2.6994 H   0  0  0  0  0  0  0  0  0  0  0  0
    0.6783    3.6512    1.3804 H   0  0  0  0  0  0  0  0  0  0  0  0
  1  2  1  0  0  0  0
  2  3  1  0  0  0  0
  2  4  1  0  0  0  0
  2  5  1  0  0  0  0
  5  6  2  0  0  0  0
  5  7  1  0  0  0  0
  7  8  1  0  0  0  0
  7  9  1  0  0  0  0
  9 10  1  0  0  0  0
  9 11  1  0  0  0  0
  9 18  1  0  0  0  0
 11 12  1  0  0  0  0
 11 13  1  0  0  0  0
 11 14  1  0  0  0  0
 14 15  2  0  0  0  0
 14 16  1  0  0  0  0
 16 17  1  0  0  0  0
 18 19  2  0  0  0  0
 18 20  1  0  0  0  0
 20 21  1  0  0  0  0
 20 22  1  0  0  0  0
 22 23  1  0  0  0  0
 22 24  1  0  0  0  0
 22 25  1  0  0  0  0
M  END
$$$$

  -OEChem-03222214023D

 25 24  0     1  0  0  0  0  0999 V2000
   -2.7151   -3.9782    0.3622 H   0  0  0  0  0  0  0  0  0  0  0  0
   -2.7582   -2.9245    0.0731 C   0  0  0  0  0  0  0  0  0  0  0  0
   -3.4257   -2.3970    0.7586 H   0  0  0  0  0  0  0  0  0  0  0  0
   -3.1583   -2.8534   -0.9414 H   0  0  0  0  0  0  0  0  0  0  0  0
   -1.3722   -2.3106    0.1245 C   0  0  0  0  0  0  0  0  0  0  0  0
   -0.4140   -2.9832    0.4737 O   0  0  0  0  0  0  0  0  0  0  0  0
   -1.1932   -0.9917   -0.2353 N   0  0  0  0  0  0  0  0  0  0  0  0
   -2.0214   -0.4586   -0.4992 H   0  0  0  0  0  0  0  0  0  0  0  0
    0.0967   -0.2876   -0.2452 C   0  0  1  0  0  0  0  0  0  0  0  0
    0.8236   -0.8436    0.3561 H   0  0  0  0  0  0  0  0  0  0  0  0
    0.6248   -0.2165   -1.6897 C   0  0  0  0  0  0  0  0  0  0  0  0
    1.5953    0.2854   -1.7024 H   0  0  0  0  0  0  0  0  0  0  0  0
    0.7720   -1.2312   -2.0699 H   0  0  0  0  0  0  0  0  0  0  0  0
   -0.3136    0.5248   -2.6339 C   0  0  0  0  0  0  0  0  0  0  0  0
   -1.1737   -0.1063   -3.2240 O   0  0  0  0  0  0  0  0  0  0  0  0
   -0.0938    1.8433   -2.8256 O   0  0  0  0  0  0  0  0  0  0  0  0
   -0.8018    2.1381   -3.4180 H   0  0  0  0  0  0  0  0  0  0  0  0
   -0.0372    1.1083    0.3995 C   0  0  0  0  0  0  0  0  0  0  0  0
   -1.0387    1.7839    0.1939 O   0  0  0  0  0  0  0  0  0  0  0  0
    0.9072    1.5576    1.3044 N   0  0  0  0  0  0  0  0  0  0  0  0
    1.6852    0.9421    1.5241 H   0  0  0  0  0  0  0  0  0  0  0  0
    0.7881    2.8246    2.0166 C   0  0  0  0  0  0  0  0  0  0  0  0
   -0.1175    2.8343    2.6324 H   0  0  0  0  0  0  0  0  0  0  0  0
    1.6526    2.9749    2.6705 H   0  0  0  0  0  0  0  0  0  0  0  0
    0.7417    3.6588    1.3084 H   0  0  0  0  0  0  0  0  0  0  0  0
  1  2  1  0  0  0  0
  2  3  1  0  0  0  0
  2  4  1  0  0  0  0
  2  5  1  0  0  0  0
  5  6  2  0  0  0  0
  5  7  1  0  0  0  0
  7  8  1  0  0  0  0
  7  9  1  0  0  0  0
  9 10  1  0  0  0  0
  9 11  1  0  0  0  0
  9 18  1  0  0  0  0
 11 12  1  0  0  0  0
 11 13  1  0  0  0  0
 11 14  1  0  0  0  0
 14 15  2  0  0  0  0
 14 16  1  0  0  0  0
 16 17  1  0  0  0  0
 18 19  2  0  0  0  0
 18 20  1  0  0  0  0
 20 21  1  0  0  0  0
 20 22  1  0  0  0  0
 22 23  1  0  0  0  0
 22 24  1  0  0  0  0
 22 25  1  0  0  0  0
M  END
$$$$

  -OEChem-03222214023D

 25 24  0     1  0  0  0  0  0999 V2000
   -2.7105   -4.0046    0.3273 H   0  0  0  0  0  0  0  0  0  0  0  0
   -2.7547   -2.9517    0.0356 C   0  0  0  0  0  0  0  0  0  0  0  0
   -3.4632   -2.4338    0.6866 H   0  0  0  0  0  0  0  0  0  0  0  0
   -3.1050   -2.8863   -0.9976 H   0  0  0  0  0  0  0  0  0  0  0  0
   -1.3825   -2.3168    0.1558 C   0  0  0  0  0  0  0  0  0  0  0  0
   -0.4352   -2.9719    0.5633 O   0  0  0  0  0  0  0  0  0  0  0  0
   -1.2034   -1.0003   -0.2117 N   0  0  0  0  0  0  0  0  0  0  0  0
   -2.0104   -0.5056   -0.5920 H   0  0  0  0  0  0  0  0  0  0  0  0
    0.0855   -0.2951   -0.2228 C   0  0  1  0  0  0  0  0  0  0  0  0
    0.8137   -0.8502    0.3773 H   0  0  0  0  0  0  0  0  0  0  0  0
    0.6134   -0.2137   -1.6679 C   0  0  0  0  0  0  0  0  0  0  0  0
    1.5846    0.2875   -1.6736 H   0  0  0  0  0  0  0  0  0  0  0  0
    0.7610   -1.2250   -2.0558 H   0  0  0  0  0  0  0  0  0  0  0  0
   -0.3216    0.5316   -2.6154 C   0  0  0  0  0  0  0  0  0  0  0  0
   -1.3398   -0.0188   -3.0007 O   0  0  0  0  0  0  0  0  0  0  0  0
    0.0477    1.7705   -3.0053 O   0  0  0  0  0  0  0  0  0  0  0  0
   -0.6872    2.0959   -3.5471 H   0  0  0  0  0  0  0  0  0  0  0  0
   -0.0394    1.1065    0.4107 C   0  0  0  0  0  0  0  0  0  0  0  0
   -1.0035    1.8164    0.1515 O   0  0  0  0  0  0  0  0  0  0  0  0
    0.9090    1.5547    1.3117 N   0  0  0  0  0  0  0  0  0  0  0  0
    1.6597    0.9190    1.5656 H   0  0  0  0  0  0  0  0  0  0  0  0
    0.8236    2.8468    1.9818 C   0  0  0  0  0  0  0  0  0  0  0  0
   -0.0846    2.9036    2.5912 H   0  0  0  0  0  0  0  0  0  0  0  0
    1.6887    2.9924    2.6357 H   0  0  0  0  0  0  0  0  0  0  0  0
    0.8063    3.6585    1.2468 H   0  0  0  0  0  0  0  0  0  0  0  0
  1  2  1  0  0  0  0
  2  3  1  0  0  0  0
  2  4  1  0  0  0  0
  2  5  1  0  0  0  0
  5  6  2  0  0  0  0
  5  7  1  0  0  0  0
  7  8  1  0  0  0  0
  7  9  1  0  0  0  0
  9 10  1  0  0  0  0
  9 11  1  0  0  0  0
  9 18  1  0  0  0  0
 11 12  1  0  0  0  0
 11 13  1  0  0  0  0
 11 14  1  0  0  0  0
 14 15  2  0  0  0  0
 14 16  1  0  0  0  0
 16 17  1  0  0  0  0
 18 19  2  0  0  0  0
 18 20  1  0  0  0  0
 20 21  1  0  0  0  0
 20 22  1  0  0  0  0
 22 23  1  0  0  0  0
 22 24  1  0  0  0  0
 22 25  1  0  0  0  0
M  END
$$$$

  -OEChem-03222214023D

 25 24  0     1  0  0  0  0  0999 V2000
   -2.6987   -4.0255    0.3102 H   0  0  0  0  0  0  0  0  0  0  0  0
   -2.7503   -2.9701    0.0287 C   0  0  0  0  0  0  0  0  0  0  0  0
   -3.4737   -2.4663    0.6741 H   0  0  0  0  0  0  0  0  0  0  0  0
   -3.0865   -2.8974   -1.0087 H   0  0  0  0  0  0  0  0  0  0  0  0
   -1.3874   -2.3211    0.1762 C   0  0  0  0  0  0  0  0  0  0  0  0
   -0.4428   -2.9654    0.6070 O   0  0  0  0  0  0  0  0  0  0  0  0
   -1.2135   -1.0050   -0.1942 N   0  0  0  0  0  0  0  0  0  0  0  0
   -2.0080   -0.5325   -0.6280 H   0  0  0  0  0  0  0  0  0  0  0  0
    0.0720   -0.2950   -0.2121 C   0  0  1  0  0  0  0  0  0  0  0  0
    0.8045   -0.8484    0.3846 H   0  0  0  0  0  0  0  0  0  0  0  0
    0.5979   -0.2068   -1.6596 C   0  0  0  0  0  0  0  0  0  0  0  0
    1.5684    0.2962   -1.6587 H   0  0  0  0  0  0  0  0  0  0  0  0
    0.7517   -1.2169   -2.0474 H   0  0  0  0  0  0  0  0  0  0  0  0
   -0.3268    0.5338   -2.6258 C   0  0  0  0  0  0  0  0  0  0  0  0
   -1.4592    0.1198   -2.8160 O   0  0  0  0  0  0  0  0  0  0  0  0
    0.1747    1.6270   -3.2398 O   0  0  0  0  0  0  0  0  0  0  0  0
   -0.5629    1.9845   -3.7576 H   0  0  0  0  0  0  0  0  0  0  0  0
   -0.0456    1.1089    0.4178 C   0  0  0  0  0  0  0  0  0  0  0  0
   -0.9864    1.8395    0.1345 O   0  0  0  0  0  0  0  0  0  0  0  0
    0.9112    1.5555    1.3110 N   0  0  0  0  0  0  0  0  0  0  0  0
    1.6430    0.9058    1.5841 H   0  0  0  0  0  0  0  0  0  0  0  0
    0.8413    2.8538    1.9713 C   0  0  0  0  0  0  0  0  0  0  0  0
   -0.0766    2.9344    2.5632 H   0  0  0  0  0  0  0  0  0  0  0  0
    1.6968    2.9846    2.6410 H   0  0  0  0  0  0  0  0  0  0  0  0
    0.8554    3.6611    1.2314 H   0  0  0  0  0  0  0  0  0  0  0  0
  1  2  1  0  0  0  0
  2  3  1  0  0  0  0
  2  4  1  0  0  0  0
  2  5  1  0  0  0  0
  5  6  2  0  0  0  0
  5  7  1  0  0  0  0
  7  8  1  0  0  0  0
  7  9  1  0  0  0  0
  9 10  1  0  0  0  0
  9 11  1  0  0  0  0
  9 18  1  0  0  0  0
 11 12  1  0  0  0  0
 11 13  1  0  0  0  0
 11 14  1  0  0  0  0
 14 15  2  0  0  0  0
 14 16  1  0  0  0  0
 16 17  1  0  0  0  0
 18 19  2  0  0  0  0
 18 20  1  0  0  0  0
 20 21  1  0  0  0  0
 20 22  1  0  0  0  0
 22 23  1  0  0  0  0
 22 24  1  0  0  0  0
 22 25  1  0  0  0  0
M  END
$$$$

  -OEChem-03222214023D

 25 24  0     1  0  0  0  0  0999 V2000
   -2.6876   -4.0373    0.3174 H   0  0  0  0  0  0  0  0  0  0  0  0
   -2.7480   -2.9820    0.0379 C   0  0  0  0  0  0  0  0  0  0  0  0
   -3.4688   -2.4839    0.6908 H   0  0  0  0  0  0  0  0  0  0  0  0
   -3.0936   -2.9101   -0.9964 H   0  0  0  0  0  0  0  0  0  0  0  0
   -1.3877   -2.3255    0.1749 C   0  0  0  0  0  0  0  0  0  0  0  0
   -0.4347   -2.9676    0.5900 O   0  0  0  0  0  0  0  0  0  0  0  0
   -1.2251   -1.0060   -0.1883 N   0  0  0  0  0  0  0  0  0  0  0  0
   -2.0243   -0.5337   -0.6149 H   0  0  0  0  0  0  0  0  0  0  0  0
    0.0536   -0.2847   -0.2099 C   0  0  1  0  0  0  0  0  0  0  0  0
    0.7889   -0.8370    0.3842 H   0  0  0  0  0  0  0  0  0  0  0  0
    0.5845   -0.1943   -1.6567 C   0  0  0  0  0  0  0  0  0  0  0  0
    1.5511    0.3161   -1.6466 H   0  0  0  0  0  0  0  0  0  0  0  0
    0.7518   -1.2054   -2.0360 H   0  0  0  0  0  0  0  0  0  0  0  0
   -0.3244    0.5305   -2.6531 C   0  0  0  0  0  0  0  0  0  0  0  0
   -1.5222    0.2980   -2.6776 O   0  0  0  0  0  0  0  0  0  0  0  0
    0.2716    1.4113   -3.4851 O   0  0  0  0  0  0  0  0  0  0  0  0
   -0.4533    1.7929   -4.0042 H   0  0  0  0  0  0  0  0  0  0  0  0
   -0.0591    1.1169    0.4266 C   0  0  0  0  0  0  0  0  0  0  0  0
   -0.9932    1.8573    0.1493 O   0  0  0  0  0  0  0  0  0  0  0  0
    0.9081    1.5568    1.3121 N   0  0  0  0  0  0  0  0  0  0  0  0
    1.6340    0.8995    1.5827 H   0  0  0  0  0  0  0  0  0  0  0  0
    0.8499    2.8526    1.9788 C   0  0  0  0  0  0  0  0  0  0  0  0
   -0.0634    2.9354    2.5776 H   0  0  0  0  0  0  0  0  0  0  0  0
    1.7109    2.9756    2.6427 H   0  0  0  0  0  0  0  0  0  0  0  0
    0.8634    3.6634    1.2426 H   0  0  0  0  0  0  0  0  0  0  0  0
  1  2  1  0  0  0  0
  2  3  1  0  0  0  0
  2  4  1  0  0  0  0
  2  5  1  0  0  0  0
  5  6  2  0  0  0  0
  5  7  1  0  0  0  0
  7  8  1  0  0  0  0
  7  9  1  0  0  0  0
  9 10  1  0  0  0  0
  9 11  1  0  0  0  0
  9 18  1  0  0  0  0
 11 12  1  0  0  0  0
 11 13  1  0  0  0  0
 11 14  1  0  0  0  0
 14 15  2  0  0  0  0
 14 16  1  0  0  0  0
 16 17  1  0  0  0  0
 18 19  2  0  0  0  0
 18 20  1  0  0  0  0
 20 21  1  0  0  0  0
 20 22  1  0  0  0  0
 22 23  1  0  0  0  0
 22 24  1  0  0  0  0
 22 25  1  0  0  0  0
M  END
$$$$

  -OEChem-03222214023D

 25 24  0     1  0  0  0  0  0999 V2000
   -2.6838   -4.0360    0.3359 H   0  0  0  0  0  0  0  0  0  0  0  0
   -2.7490   -2.9813    0.0546 C   0  0  0  0  0  0  0  0  0  0  0  0
   -3.4560   -2.4810    0.7209 H   0  0  0  0  0  0  0  0  0  0  0  0
   -3.1158   -2.9121   -0.9726 H   0  0  0  0  0  0  0  0  0  0  0  0
   -1.3853   -2.3256    0.1608 C   0  0  0  0  0  0  0  0  0  0  0  0
   -0.4197   -2.9728    0.5370 O   0  0  0  0  0  0  0  0  0  0  0  0
   -1.2326   -1.0020   -0.1917 N   0  0  0  0  0  0  0  0  0  0  0  0
   -2.0472   -0.5154   -0.5707 H   0  0  0  0  0  0  0  0  0  0  0  0
    0.0387   -0.2684   -0.2171 C   0  0  1  0  0  0  0  0  0  0  0  0
    0.7744   -0.8192    0.3779 H   0  0  0  0  0  0  0  0  0  0  0  0
    0.5775   -0.1857   -1.6616 C   0  0  0  0  0  0  0  0  0  0  0  0
    1.5381    0.3355   -1.6467 H   0  0  0  0  0  0  0  0  0  0  0  0
    0.7614   -1.1998   -2.0250 H   0  0  0  0  0  0  0  0  0  0  0  0
   -0.3170    0.5152   -2.6888 C   0  0  0  0  0  0  0  0  0  0  0  0
   -1.5316    0.4979   -2.5796 O   0  0  0  0  0  0  0  0  0  0  0  0
    0.3188    1.1364   -3.7048 O   0  0  0  0  0  0  0  0  0  0  0  0
   -0.3889    1.5421   -4.2294 H   0  0  0  0  0  0  0  0  0  0  0  0
   -0.0684    1.1295    0.4292 C   0  0  0  0  0  0  0  0  0  0  0  0
   -1.0183    1.8630    0.1932 O   0  0  0  0  0  0  0  0  0  0  0  0
    0.9099    1.5632    1.3058 N   0  0  0  0  0  0  0  0  0  0  0  0
    1.6458    0.9082    1.5540 H   0  0  0  0  0  0  0  0  0  0  0  0
    0.8475    2.8448    1.9988 C   0  0  0  0  0  0  0  0  0  0  0  0
   -0.0516    2.9005    2.6215 H   0  0  0  0  0  0  0  0  0  0  0  0
    1.7228    2.9704    2.6431 H   0  0  0  0  0  0  0  0  0  0  0  0
    0.8283    3.6694    1.2785 H   0  0  0  0  0  0  0  0  0  0  0  0
  1  2  1  0  0  0  0
  2  3  1  0  0  0  0
  2  4  1  0  0  0  0
  2  5  1  0  0  0  0
  5  6  2  0  0  0  0
  5  7  1  0  0  0  0
  7  8  1  0  0  0  0
  7  9  1  0  0  0  0
  9 10  1  0  0  0  0
  9 11  1  0  0  0  0
  9 18  1  0  0  0  0
 11 12  1  0  0  0  0
 11 13  1  0  0  0  0
 11 14  1  0  0  0  0
 14 15  2  0  0  0  0
 14 16  1  0  0  0  0
 16 17  1  0  0  0  0
 18 19  2  0  0  0  0
 18 20  1  0  0  0  0
 20 21  1  0  0  0  0
 20 22  1  0  0  0  0
 22 23  1  0  0  0  0
 22 24  1  0  0  0  0
 22 25  1  0  0  0  0
M  END
$$$$

  -OEChem-03222214023D

 25 24  0     1  0  0  0  0  0999 V2000
   -2.6795   -4.0206    0.3675 H   0  0  0  0  0  0  0  0  0  0  0  0
   -2.7513   -2.9668    0.0845 C   0  0  0  0  0  0  0  0  0  0  0  0
   -3.4257   -2.4599    0.7789 H   0  0  0  0  0  0  0  0  0  0  0  0
   -3.1628   -2.8996   -0.9255 H   0  0  0  0  0  0  0  0  0  0  0  0
   -1.3810   -2.3177    0.1285 C   0  0  0  0  0  0  0  0  0  0  0  0
   -0.4005   -2.9733    0.4468 O   0  0  0  0  0  0  0  0  0  0  0  0
   -1.2400   -0.9891   -0.2101 N   0  0  0  0  0  0  0  0  0  0  0  0
   -2.0742   -0.4826   -0.5117 H   0  0  0  0  0  0  0  0  0  0  0  0
    0.0244   -0.2434   -0.2364 C   0  0  1  0  0  0  0  0  0  0  0  0
    0.7574   -0.7919    0.3640 H   0  0  0  0  0  0  0  0  0  0  0  0
    0.5789   -0.1792   -1.6754 C   0  0  0  0  0  0  0  0  0  0  0  0
    1.5343    0.3511   -1.6583 H   0  0  0  0  0  0  0  0  0  0  0  0
    0.7768   -1.1989   -2.0152 H   0  0  0  0  0  0  0  0  0  0  0  0
   -0.3003    0.4910   -2.7344 C   0  0  0  0  0  0  0  0  0  0  0  0
   -1.4820    0.7086   -2.5335 O   0  0  0  0  0  0  0  0  0  0  0  0
    0.3176    0.8176   -3.8892 O   0  0  0  0  0  0  0  0  0  0  0  0
   -0.3698    1.2401   -4.4275 H   0  0  0  0  0  0  0  0  0  0  0  0
   -0.0812    1.1489    0.4241 C   0  0  0  0  0  0  0  0  0  0  0  0
   -1.0673    1.8546    0.2656 O   0  0  0  0  0  0  0  0  0  0  0  0
    0.9078    1.5735    1.2937 N   0  0  0  0  0  0  0  0  0  0  0  0
    1.6716    0.9332    1.4897 H   0  0  0  0  0  0  0  0  0  0  0  0
    0.8352    2.8269    2.0360 C   0  0  0  0  0  0  0  0  0  0  0  0
   -0.0384    2.8315    2.6966 H   0  0  0  0  0  0  0  0  0  0  0  0
    1.7328    2.9567    2.6482 H   0  0  0  0  0  0  0  0  0  0  0  0
    0.7612    3.6760    1.3481 H   0  0  0  0  0  0  0  0  0  0  0  0
  1  2  1  0  0  0  0
  2  3  1  0  0  0  0
  2  4  1  0  0  0  0
  2  5  1  0  0  0  0
  5  6  2  0  0  0  0
  5  7  1  0  0  0  0
  7  8  1  0  0  0  0
  7  9  1  0  0  0  0
  9 10  1  0  0  0  0
  9 11  1  0  0  0  0
  9 18  1  0  0  0  0
 11 12  1  0  0  0  0
 11 13  1  0  0  0  0
 11 14  1  0  0  0  0
 14 15  2  0  0  0  0
 14 16  1  0  0  0  0
 16 17  1  0  0  0  0
 18 19  2  0  0  0  0
 18 20  1  0  0  0  0
 20 21  1  0  0  0  0
 20 22  1  0  0  0  0
 22 23  1  0  0  0  0
 22 24  1  0  0  0  0
 22 25  1  0  0  0  0
M  END
$$$$

  -OEChem-03222214023D

 25 24  0     1  0  0  0  0  0999 V2000
   -2.6769   -3.9916    0.4016 H   0  0  0  0  0  0  0  0  0  0  0  0
   -2.7535   -2.9370    0.1232 C   0  0  0  0  0  0  0  0  0  0  0  0
   -3.3874   -2.4251    0.8513 H   0  0  0  0  0  0  0  0  0  0  0  0
   -3.2150   -2.8651   -0.8648 H   0  0  0  0  0  0  0  0  0  0  0  0
   -1.3767   -2.3008    0.0981 C   0  0  0  0  0  0  0  0  0  0  0  0
   -0.3858   -2.9684    0.3528 O   0  0  0  0  0  0  0  0  0  0  0  0
   -1.2424   -0.9696   -0.2333 N   0  0  0  0  0  0  0  0  0  0  0  0
   -2.0915   -0.4395   -0.4343 H   0  0  0  0  0  0  0  0  0  0  0  0
    0.0200   -0.2210   -0.2647 C   0  0  1  0  0  0  0  0  0  0  0  0
    0.7481   -0.7683    0.3428 H   0  0  0  0  0  0  0  0  0  0  0  0
    0.5875   -0.1809   -1.6992 C   0  0  0  0  0  0  0  0  0  0  0  0
    1.5427    0.3488   -1.6848 H   0  0  0  0  0  0  0  0  0  0  0  0
    0.7874   -1.2079   -2.0155 H   0  0  0  0  0  0  0  0  0  0  0  0
   -0.2792    0.4648   -2.7816 C   0  0  0  0  0  0  0  0  0  0  0  0
   -1.3749    0.9287   -2.5271 O   0  0  0  0  0  0  0  0  0  0  0  0
    0.2541    0.4889   -4.0212 O   0  0  0  0  0  0  0  0  0  0  0  0
   -0.4118    0.9331   -4.5690 H   0  0  0  0  0  0  0  0  0  0  0  0
   -0.0852    1.1673    0.4061 C   0  0  0  0  0  0  0  0  0  0  0  0
   -1.1115    1.8291    0.3360 O   0  0  0  0  0  0  0  0  0  0  0  0
    0.9109    1.5879    1.2702 N   0  0  0  0  0  0  0  0  0  0  0  0
    1.7006    0.9667    1.4193 H   0  0  0  0  0  0  0  0  0  0  0  0
    0.8095    2.7994    2.0763 C   0  0  0  0  0  0  0  0  0  0  0  0
   -0.0371    2.7299    2.7675 H   0  0  0  0  0  0  0  0  0  0  0  0
    1.7233    2.9430    2.6609 H   0  0  0  0  0  0  0  0  0  0  0  0
    0.6691    3.6760    1.4351 H   0  0  0  0  0  0  0  0  0  0  0  0
  1  2  1  0  0  0  0
  2  3  1  0  0  0  0
  2  4  1  0  0  0  0
  2  5  1  0  0  0  0
  5  6  2  0  0  0  0
  5  7  1  0  0  0  0
  7  8  1  0  0  0  0
  7  9  1  0  0  0  0
  9 10  1  0  0  0  0
  9 11  1  0  0  0  0
  9 18  1  0  0  0  0
 11 12  1  0  0  0  0
 11 13  1  0  0  0  0
 11 14  1  0  0  0  0
 14 15  2  0  0  0  0
 14 16  1  0  0  0  0
 16 17  1  0  0  0  0
 18 19  2  0  0  0  0
 18 20  1  0  0  0  0
 20 21  1  0  0  0  0
 20 22  1  0  0  0  0
 22 23  1  0  0  0  0
 22 24  1  0  0  0  0
 22 25  1  0  0  0  0
M  END
$$$$

  -OEChem-03222214023D

 25 24  0     1  0  0  0  0  0999 V2000
   -2.6788   -3.9632    0.4482 H   0  0  0  0  0  0  0  0  0  0  0  0
   -2.7581   -2.9083    0.1714 C   0  0  0  0  0  0  0  0  0  0  0  0
   -3.3417   -2.3864    0.9338 H   0  0  0  0  0  0  0  0  0  0  0  0
   -3.2752   -2.8327   -0.7882 H   0  0  0  0  0  0  0  0  0  0  0  0
   -1.3774   -2.2896    0.0646 C   0  0  0  0  0  0  0  0  0  0  0  0
   -0.3816   -2.9703    0.2581 O   0  0  0  0  0  0  0  0  0  0  0  0
   -1.2471   -0.9567   -0.2613 N   0  0  0  0  0  0  0  0  0  0  0  0
   -2.1012   -0.4069   -0.3623 H   0  0  0  0  0  0  0  0  0  0  0  0
    0.0170   -0.2108   -0.2928 C   0  0  1  0  0  0  0  0  0  0  0  0
    0.7389   -0.7584    0.3220 H   0  0  0  0  0  0  0  0  0  0  0  0
    0.6004   -0.1854   -1.7213 C   0  0  0  0  0  0  0  0  0  0  0  0
    1.5577    0.3402   -1.7045 H   0  0  0  0  0  0  0  0  0  0  0  0
    0.7984   -1.2175   -2.0229 H   0  0  0  0  0  0  0  0  0  0  0  0
   -0.2530    0.4504   -2.8180 C   0  0  0  0  0  0  0  0  0  0  0  0
   -1.2110    1.1488   -2.5498 O   0  0  0  0  0  0  0  0  0  0  0  0
    0.1398    0.2039   -4.0858 O   0  0  0  0  0  0  0  0  0  0  0  0
   -0.4953    0.6829   -4.6405 H   0  0  0  0  0  0  0  0  0  0  0  0
   -0.0947    1.1726    0.3879 C   0  0  0  0  0  0  0  0  0  0  0  0
   -1.1512    1.7905    0.3838 O   0  0  0  0  0  0  0  0  0  0  0  0
    0.9012    1.5896    1.2541 N   0  0  0  0  0  0  0  0  0  0  0  0
    1.7167    0.9935    1.3595 H   0  0  0  0  0  0  0  0  0  0  0  0
    0.7824    2.7719    2.1002 C   0  0  0  0  0  0  0  0  0  0  0  0
   -0.0357    2.6490    2.8176 H   0  0  0  0  0  0  0  0  0  0  0  0
    1.7102    2.9339    2.6571 H   0  0  0  0  0  0  0  0  0  0  0  0
    0.5862    3.6610    1.4916 H   0  0  0  0  0  0  0  0  0  0  0  0
  1  2  1  0  0  0  0
  2  3  1  0  0  0  0
  2  4  1  0  0  0  0
  2  5  1  0  0  0  0
  5  6  2  0  0  0  0
  5  7  1  0  0  0  0
  7  8  1  0  0  0  0
  7  9  1  0  0  0  0
  9 10  1  0  0  0  0
  9 11  1  0  0  0  0
  9 18  1  0  0  0  0
 11 12  1  0  0  0  0
 11 13  1  0  0  0  0
 11 14  1  0  0  0  0
 14 15  2  0  0  0  0
 14 16  1  0  0  0  0
 16 17  1  0  0  0  0
 18 19  2  0  0  0  0
 18 20  1  0  0  0  0
 20 21  1  0  0  0  0
 20 22  1  0  0  0  0
 22 23  1  0  0  0  0
 22 24  1  0  0  0  0
 22 25  1  0  0  0  0
M  END
$$$$

  -OEChem-03222214023D

 25 24  0     1  0  0  0  0  0999 V2000
   -2.6822   -3.9489    0.4658 H   0  0  0  0  0  0  0  0  0  0  0  0
   -2.7614   -2.8938    0.1902 C   0  0  0  0  0  0  0  0  0  0  0  0
   -3.3247   -2.3683    0.9652 H   0  0  0  0  0  0  0  0  0  0  0  0
   -3.3001   -2.8163   -0.7573 H   0  0  0  0  0  0  0  0  0  0  0  0
   -1.3796   -2.2840    0.0502 C   0  0  0  0  0  0  0  0  0  0  0  0
   -0.3844   -2.9726    0.2155 O   0  0  0  0  0  0  0  0  0  0  0  0
   -1.2472   -0.9508   -0.2754 N   0  0  0  0  0  0  0  0  0  0  0  0
   -2.0985   -0.3890   -0.3172 H   0  0  0  0  0  0  0  0  0  0  0  0
    0.0214   -0.2116   -0.3044 C   0  0  1  0  0  0  0  0  0  0  0  0
    0.7386   -0.7608    0.3145 H   0  0  0  0  0  0  0  0  0  0  0  0
    0.6114   -0.1953   -1.7304 C   0  0  0  0  0  0  0  0  0  0  0  0
    1.5712    0.3256   -1.7148 H   0  0  0  0  0  0  0  0  0  0  0  0
    0.8055   -1.2301   -2.0266 H   0  0  0  0  0  0  0  0  0  0  0  0
   -0.2400    0.4428   -2.8261 C   0  0  0  0  0  0  0  0  0  0  0  0
   -1.0107    1.3466   -2.5713 O   0  0  0  0  0  0  0  0  0  0  0  0
   -0.0618   -0.0359   -4.0759 O   0  0  0  0  0  0  0  0  0  0  0  0
   -0.6673    0.4818   -4.6289 H   0  0  0  0  0  0  0  0  0  0  0  0
   -0.0957    1.1699    0.3796 C   0  0  0  0  0  0  0  0  0  0  0  0
   -1.1665    1.7637    0.4004 O   0  0  0  0  0  0  0  0  0  0  0  0
    0.8952    1.5871    1.2514 N   0  0  0  0  0  0  0  0  0  0  0  0
    1.7262    1.0094    1.3361 H   0  0  0  0  0  0  0  0  0  0  0  0
    0.7671    2.7635    2.1044 C   0  0  0  0  0  0  0  0  0  0  0  0
   -0.0561    2.6338    2.8149 H   0  0  0  0  0  0  0  0  0  0  0  0
    1.6902    2.9242    2.6694 H   0  0  0  0  0  0  0  0  0  0  0  0
    0.5736    3.6558    1.4995 H   0  0  0  0  0  0  0  0  0  0  0  0
  1  2  1  0  0  0  0
  2  3  1  0  0  0  0
  2  4  1  0  0  0  0
  2  5  1  0  0  0  0
  5  6  2  0  0  0  0
  5  7  1  0  0  0  0
  7  8  1  0  0  0  0
  7  9  1  0  0  0  0
  9 10  1  0  0  0  0
  9 11  1  0  0  0  0
  9 18  1  0  0  0  0
 11 12  1  0  0  0  0
 11 13  1  0  0  0  0
 11 14  1  0  0  0  0
 14 15  2  0  0  0  0
 14 16  1  0  0  0  0
 16 17  1  0  0  0  0
 18 19  2  0  0  0  0
 18 20  1  0  0  0  0
 20 21  1  0  0  0  0
 20 22  1  0  0  0  0
 22 23  1  0  0  0  0
 22 24  1  0  0  0  0
 22 25  1  0  0  0  0
M  END
$$$$

  -OEChem-03222214023D

 25 24  0     1  0  0  0  0  0999 V2000
   -2.6944   -3.9332    0.4767 H   0  0  0  0  0  0  0  0  0  0  0  0
   -2.7659   -2.8771    0.2020 C   0  0  0  0  0  0  0  0  0  0  0  0
   -3.3137   -2.3454    0.9839 H   0  0  0  0  0  0  0  0  0  0  0  0
   -3.3152   -2.7939   -0.7390 H   0  0  0  0  0  0  0  0  0  0  0  0
   -1.3790   -2.2825    0.0459 C   0  0  0  0  0  0  0  0  0  0  0  0
   -0.3896   -2.9797    0.2105 O   0  0  0  0  0  0  0  0  0  0  0  0
   -1.2357   -0.9522   -0.2877 N   0  0  0  0  0  0  0  0  0  0  0  0
   -2.0808   -0.3801   -0.3045 H   0  0  0  0  0  0  0  0  0  0  0  0
    0.0408   -0.2255   -0.3110 C   0  0  1  0  0  0  0  0  0  0  0  0
    0.7538   -0.7756    0.3122 H   0  0  0  0  0  0  0  0  0  0  0  0
    0.6292   -0.2130   -1.7370 C   0  0  0  0  0  0  0  0  0  0  0  0
    1.5941    0.2987   -1.7243 H   0  0  0  0  0  0  0  0  0  0  0  0
    0.8124   -1.2483   -2.0375 H   0  0  0  0  0  0  0  0  0  0  0  0
   -0.2268    0.4408   -2.8182 C   0  0  0  0  0  0  0  0  0  0  0  0
   -0.7682    1.5079   -2.6075 O   0  0  0  0  0  0  0  0  0  0  0  0
   -0.3266   -0.2120   -3.9959 O   0  0  0  0  0  0  0  0  0  0  0  0
   -0.8981    0.3486   -4.5430 H   0  0  0  0  0  0  0  0  0  0  0  0
   -0.0868    1.1579    0.3672 C   0  0  0  0  0  0  0  0  0  0  0  0
   -1.1656    1.7384    0.3797 O   0  0  0  0  0  0  0  0  0  0  0  0
    0.8901    1.5822    1.2512 N   0  0  0  0  0  0  0  0  0  0  0  0
    1.7302    1.0182    1.3373 H   0  0  0  0  0  0  0  0  0  0  0  0
    0.7440    2.7604    2.0988 C   0  0  0  0  0  0  0  0  0  0  0  0
   -0.0775    2.6210    2.8092 H   0  0  0  0  0  0  0  0  0  0  0  0
    1.6642    2.9380    2.6636 H   0  0  0  0  0  0  0  0  0  0  0  0
    0.5364    3.6470    1.4901 H   0  0  0  0  0  0  0  0  0  0  0  0
  1  2  1  0  0  0  0
  2  3  1  0  0  0  0
  2  4  1  0  0  0  0
  2  5  1  0  0  0  0
  5  6  2  0  0  0  0
  5  7  1  0  0  0  0
  7  8  1  0  0  0  0
  7  9  1  0  0  0  0
  9 10  1  0  0  0  0
  9 11  1  0  0  0  0
  9 18  1  0  0  0  0
 11 12  1  0  0  0  0
 11 13  1  0  0  0  0
 11 14  1  0  0  0  0
 14 15  2  0  0  0  0
 14 16  1  0  0  0  0
 16 17  1  0  0  0  0
 18 19  2  0  0  0  0
 18 20  1  0  0  0  0
 20 21  1  0  0  0  0
 20 22  1  0  0  0  0
 22 23  1  0  0  0  0
 22 24  1  0  0  0  0
 22 25  1  0  0  0  0
M  END
$$$$

  -OEChem-03222214023D

 25 24  0     1  0  0  0  0  0999 V2000
   -2.7046   -3.9295    0.4871 H   0  0  0  0  0  0  0  0  0  0  0  0
   -2.7668   -2.8759    0.2011 C   0  0  0  0  0  0  0  0  0  0  0  0
   -3.3185   -2.3331    0.9725 H   0  0  0  0  0  0  0  0  0  0  0  0
   -3.3068   -2.7987   -0.7457 H   0  0  0  0  0  0  0  0  0  0  0  0
   -1.3751   -2.2913    0.0509 C   0  0  0  0  0  0  0  0  0  0  0  0
   -0.3916   -2.9924    0.2325 O   0  0  0  0  0  0  0  0  0  0  0  0
   -1.2212   -0.9647   -0.2926 N   0  0  0  0  0  0  0  0  0  0  0  0
   -2.0624   -0.3872   -0.3119 H   0  0  0  0  0  0  0  0  0  0  0  0
    0.0615   -0.2482   -0.3080 C   0  0  1  0  0  0  0  0  0  0  0  0
    0.7731   -0.7978    0.3172 H   0  0  0  0  0  0  0  0  0  0  0  0
    0.6446   -0.2292   -1.7350 C   0  0  0  0  0  0  0  0  0  0  0  0
    1.6123    0.2772   -1.7243 H   0  0  0  0  0  0  0  0  0  0  0  0
    0.8186   -1.2616   -2.0507 H   0  0  0  0  0  0  0  0  0  0  0  0
   -0.2241    0.4466   -2.7902 C   0  0  0  0  0  0  0  0  0  0  0  0
   -0.5199    1.6183   -2.6583 O   0  0  0  0  0  0  0  0  0  0  0  0
   -0.6252   -0.3006   -3.8413 O   0  0  0  0  0  0  0  0  0  0  0  0
   -1.1618    0.2994   -4.3819 H   0  0  0  0  0  0  0  0  0  0  0  0
   -0.0770    1.1386    0.3597 C   0  0  0  0  0  0  0  0  0  0  0  0
   -1.1544    1.7220    0.3346 O   0  0  0  0  0  0  0  0  0  0  0  0
    0.8833    1.5729    1.2562 N   0  0  0  0  0  0  0  0  0  0  0  0
    1.7261    1.0153    1.3571 H   0  0  0  0  0  0  0  0  0  0  0  0
    0.7279    2.7693    2.0758 C   0  0  0  0  0  0  0  0  0  0  0  0
   -0.1207    2.6583    2.7591 H   0  0  0  0  0  0  0  0  0  0  0  0
    1.6301    2.9425    2.6702 H   0  0  0  0  0  0  0  0  0  0  0  0
    0.5578    3.6473    1.4434 H   0  0  0  0  0  0  0  0  0  0  0  0
  1  2  1  0  0  0  0
  2  3  1  0  0  0  0
  2  4  1  0  0  0  0
  2  5  1  0  0  0  0
  5  6  2  0  0  0  0
  5  7  1  0  0  0  0
  7  8  1  0  0  0  0
  7  9  1  0  0  0  0
  9 10  1  0  0  0  0
  9 11  1  0  0  0  0
  9 18  1  0  0  0  0
 11 12  1  0  0  0  0
 11 13  1  0  0  0  0
 11 14  1  0  0  0  0
 14 15  2  0  0  0  0
 14 16  1  0  0  0  0
 16 17  1  0  0  0  0
 18 19  2  0  0  0  0
 18 20  1  0  0  0  0
 20 21  1  0  0  0  0
 20 22  1  0  0  0  0
 22 23  1  0  0  0  0
 22 24  1  0  0  0  0
 22 25  1  0  0  0  0
M  END
$$$$

  -OEChem-03222214023D

 25 24  0     1  0  0  0  0  0999 V2000
   -2.7123   -3.9335    0.5038 H   0  0  0  0  0  0  0  0  0  0  0  0
   -2.7660   -2.8848    0.1989 C   0  0  0  0  0  0  0  0  0  0  0  0
   -3.3274   -2.3272    0.9524 H   0  0  0  0  0  0  0  0  0  0  0  0
   -3.2909   -2.8219   -0.7573 H   0  0  0  0  0  0  0  0  0  0  0  0
   -1.3700   -2.3081    0.0607 C   0  0  0  0  0  0  0  0  0  0  0  0
   -0.3920   -3.0111    0.2645 O   0  0  0  0  0  0  0  0  0  0  0  0
   -1.2057   -0.9855   -0.2934 N   0  0  0  0  0  0  0  0  0  0  0  0
   -2.0443   -0.4062   -0.3376 H   0  0  0  0  0  0  0  0  0  0  0  0
    0.0817   -0.2775   -0.3009 C   0  0  1  0  0  0  0  0  0  0  0  0
    0.7938   -0.8273    0.3236 H   0  0  0  0  0  0  0  0  0  0  0  0
    0.6562   -0.2408   -1.7295 C   0  0  0  0  0  0  0  0  0  0  0  0
    1.6280    0.2589   -1.7199 H   0  0  0  0  0  0  0  0  0  0  0  0
    0.8184   -1.2674   -2.0693 H   0  0  0  0  0  0  0  0  0  0  0  0
   -0.2300    0.4628   -2.7494 C   0  0  0  0  0  0  0  0  0  0  0  0
   -0.2852    1.6779   -2.7317 O   0  0  0  0  0  0  0  0  0  0  0  0
   -0.9199   -0.2968   -3.6279 O   0  0  0  0  0  0  0  0  0  0  0  0
   -1.4189    0.3380   -4.1646 H   0  0  0  0  0  0  0  0  0  0  0  0
   -0.0685    1.1132    0.3545 C   0  0  0  0  0  0  0  0  0  0  0  0
   -1.1360    1.7100    0.2733 O   0  0  0  0  0  0  0  0  0  0  0  0
    0.8743    1.5601    1.2627 N   0  0  0  0  0  0  0  0  0  0  0  0
    1.7138    1.0029    1.3895 H   0  0  0  0  0  0  0  0  0  0  0  0
    0.7159    2.7829    2.0417 C   0  0  0  0  0  0  0  0  0  0  0  0
   -0.1611    2.7112    2.6936 H   0  0  0  0  0  0  0  0  0  0  0  0
    1.5982    2.9515    2.6666 H   0  0  0  0  0  0  0  0  0  0  0  0
    0.5922    3.6459    1.3787 H   0  0  0  0  0  0  0  0  0  0  0  0
  1  2  1  0  0  0  0
  2  3  1  0  0  0  0
  2  4  1  0  0  0  0
  2  5  1  0  0  0  0
  5  6  2  0  0  0  0
  5  7  1  0  0  0  0
  7  8  1  0  0  0  0
  7  9  1  0  0  0  0
  9 10  1  0  0  0  0
  9 11  1  0  0  0  0
  9 18  1  0  0  0  0
 11 12  1  0  0  0  0
 11 13  1  0  0  0  0
 11 14  1  0  0  0  0
 14 15  2  0  0  0  0
 14 16  1  0  0  0  0
 16 17  1  0  0  0  0
 18 19  2  0  0  0  0
 18 20  1  0  0  0  0
 20 21  1  0  0  0  0
 20 22  1  0  0  0  0
 22 23  1  0  0  0  0
 22 24  1  0  0  0  0
 22 25  1  0  0  0  0
M  END
$$$$

  -OEChem-03222214023D

 25 24  0     1  0  0  0  0  0999 V2000
   -2.7155   -3.9598    0.4873 H   0  0  0  0  0  0  0  0  0  0  0  0
   -2.7645   -2.9125    0.1772 C   0  0  0  0  0  0  0  0  0  0  0  0
   -3.3554   -2.3562    0.9088 H   0  0  0  0  0  0  0  0  0  0  0  0
   -3.2555   -2.8556   -0.7972 H   0  0  0  0  0  0  0  0  0  0  0  0
   -1.3676   -2.3282    0.0865 C   0  0  0  0  0  0  0  0  0  0  0  0
   -0.3942   -3.0229    0.3354 O   0  0  0  0  0  0  0  0  0  0  0  0
   -1.1973   -1.0085   -0.2751 N   0  0  0  0  0  0  0  0  0  0  0  0
   -2.0364   -0.4397   -0.3866 H   0  0  0  0  0  0  0  0  0  0  0  0
    0.0907   -0.3015   -0.2821 C   0  0  1  0  0  0  0  0  0  0  0  0
    0.8089   -0.8512    0.3353 H   0  0  0  0  0  0  0  0  0  0  0  0
    0.6501   -0.2397   -1.7146 C   0  0  0  0  0  0  0  0  0  0  0  0
    1.6233    0.2582   -1.7066 H   0  0  0  0  0  0  0  0  0  0  0  0
    0.8040   -1.2585   -2.0800 H   0  0  0  0  0  0  0  0  0  0  0  0
   -0.2568    0.4866   -2.6999 C   0  0  0  0  0  0  0  0  0  0  0  0
   -0.1048    1.6861   -2.8393 O   0  0  0  0  0  0  0  0  0  0  0  0
   -1.1834   -0.2273   -3.3764 O   0  0  0  0  0  0  0  0  0  0  0  0
   -1.6431    0.4262   -3.9259 H   0  0  0  0  0  0  0  0  0  0  0  0
   -0.0618    1.0924    0.3631 C   0  0  0  0  0  0  0  0  0  0  0  0
   -1.1081    1.7145    0.2214 O   0  0  0  0  0  0  0  0  0  0  0  0
    0.8734    1.5499    1.2735 N   0  0  0  0  0  0  0  0  0  0  0  0
    1.6988    0.9803    1.4356 H   0  0  0  0  0  0  0  0  0  0  0  0
    0.7274    2.8042    2.0026 C   0  0  0  0  0  0  0  0  0  0  0  0
   -0.1680    2.7790    2.6330 H   0  0  0  0  0  0  0  0  0  0  0  0
    1.5975    2.9734    2.6443 H   0  0  0  0  0  0  0  0  0  0  0  0
    0.6438    3.6446    1.3050 H   0  0  0  0  0  0  0  0  0  0  0  0
  1  2  1  0  0  0  0
  2  3  1  0  0  0  0
  2  4  1  0  0  0  0
  2  5  1  0  0  0  0
  5  6  2  0  0  0  0
  5  7  1  0  0  0  0
  7  8  1  0  0  0  0
  7  9  1  0  0  0  0
  9 10  1  0  0  0  0
  9 11  1  0  0  0  0
  9 18  1  0  0  0  0
 11 12  1  0  0  0  0
 11 13  1  0  0  0  0
 11 14  1  0  0  0  0
 14 15  2  0  0  0  0
 14 16  1  0  0  0  0
 16 17  1  0  0  0  0
 18 19  2  0  0  0  0
 18 20  1  0  0  0  0
 20 21  1  0  0  0  0
 20 22  1  0  0  0  0
 22 23  1  0  0  0  0
 22 24  1  0  0  0  0
 22 25  1  0  0  0  0
M  END
$$$$

  -OEChem-03222214023D

 25 24  0     1  0  0  0  0  0999 V2000
   -2.7097   -3.9944    0.4461 H   0  0  0  0  0  0  0  0  0  0  0  0
   -2.7582   -2.9453    0.1410 C   0  0  0  0  0  0  0  0  0  0  0  0
   -3.3955   -2.4026    0.8433 H   0  0  0  0  0  0  0  0  0  0  0  0
   -3.1971   -2.8887   -0.8581 H   0  0  0  0  0  0  0  0  0  0  0  0
   -1.3680   -2.3388    0.1290 C   0  0  0  0  0  0  0  0  0  0  0  0
   -0.3997   -3.0162    0.4381 O   0  0  0  0  0  0  0  0  0  0  0  0
   -1.1973   -1.0215   -0.2400 N   0  0  0  0  0  0  0  0  0  0  0  0
   -2.0332   -0.4789   -0.4554 H   0  0  0  0  0  0  0  0  0  0  0  0
    0.0886   -0.3112   -0.2573 C   0  0  1  0  0  0  0  0  0  0  0  0
    0.8173   -0.8590    0.3491 H   0  0  0  0  0  0  0  0  0  0  0  0
    0.6276   -0.2312   -1.6973 C   0  0  0  0  0  0  0  0  0  0  0  0
    1.6015    0.2663   -1.6954 H   0  0  0  0  0  0  0  0  0  0  0  0
    0.7755   -1.2448   -2.0782 H   0  0  0  0  0  0  0  0  0  0  0  0
   -0.2968    0.5056   -2.6608 C   0  0  0  0  0  0  0  0  0  0  0  0
    0.0205    1.6318   -2.9973 O   0  0  0  0  0  0  0  0  0  0  0  0
   -1.4067   -0.1193   -3.1154 O   0  0  0  0  0  0  0  0  0  0  0  0
   -1.8353    0.5333   -3.6907 H   0  0  0  0  0  0  0  0  0  0  0  0
   -0.0585    1.0864    0.3795 C   0  0  0  0  0  0  0  0  0  0  0  0
   -1.0761    1.7399    0.1836 O   0  0  0  0  0  0  0  0  0  0  0  0
    0.8817    1.5496    1.2815 N   0  0  0  0  0  0  0  0  0  0  0  0
    1.6842    0.9585    1.4777 H   0  0  0  0  0  0  0  0  0  0  0  0
    0.7581    2.8245    1.9784 C   0  0  0  0  0  0  0  0  0  0  0  0
   -0.1482    2.8392    2.5931 H   0  0  0  0  0  0  0  0  0  0  0  0
    1.6212    2.9842    2.6318 H   0  0  0  0  0  0  0  0  0  0  0  0
    0.7107    3.6502    1.2605 H   0  0  0  0  0  0  0  0  0  0  0  0
  1  2  1  0  0  0  0
  2  3  1  0  0  0  0
  2  4  1  0  0  0  0
  2  5  1  0  0  0  0
  5  6  2  0  0  0  0
  5  7  1  0  0  0  0
  7  8  1  0  0  0  0
  7  9  1  0  0  0  0
  9 10  1  0  0  0  0
  9 11  1  0  0  0  0
  9 18  1  0  0  0  0
 11 12  1  0  0  0  0
 11 13  1  0  0  0  0
 11 14  1  0  0  0  0
 14 15  2  0  0  0  0
 14 16  1  0  0  0  0
 16 17  1  0  0  0  0
 18 19  2  0  0  0  0
 18 20  1  0  0  0  0
 20 21  1  0  0  0  0
 20 22  1  0  0  0  0
 22 23  1  0  0  0  0
 22 24  1  0  0  0  0
 22 25  1  0  0  0  0
M  END
$$$$

  -OEChem-03222214023D

 25 24  0     1  0  0  0  0  0999 V2000
   -2.6983   -4.0270    0.4161 H   0  0  0  0  0  0  0  0  0  0  0  0
   -2.7512   -2.9774    0.1139 C   0  0  0  0  0  0  0  0  0  0  0  0
   -3.4281   -2.4493    0.7898 H   0  0  0  0  0  0  0  0  0  0  0  0
   -3.1471   -2.9226   -0.9031 H   0  0  0  0  0  0  0  0  0  0  0  0
   -1.3722   -2.3474    0.1657 C   0  0  0  0  0  0  0  0  0  0  0  0
   -0.4084   -3.0085    0.5206 O   0  0  0  0  0  0  0  0  0  0  0  0
   -1.2053   -1.0300   -0.2049 N   0  0  0  0  0  0  0  0  0  0  0  0
   -2.0286   -0.5220   -0.5278 H   0  0  0  0  0  0  0  0  0  0  0  0
    0.0779   -0.3156   -0.2328 C   0  0  1  0  0  0  0  0  0  0  0  0
    0.8164   -0.8642    0.3612 H   0  0  0  0  0  0  0  0  0  0  0  0
    0.5988   -0.2156   -1.6792 C   0  0  0  0  0  0  0  0  0  0  0  0
    1.5725    0.2825   -1.6781 H   0  0  0  0  0  0  0  0  0  0  0  0
    0.7442   -1.2249   -2.0721 H   0  0  0  0  0  0  0  0  0  0  0  0
   -0.3333    0.5295   -2.6332 C   0  0  0  0  0  0  0  0  0  0  0  0
    0.1074    1.5267   -3.1754 O   0  0  0  0  0  0  0  0  0  0  0  0
   -1.5726    0.0427   -2.8751 O   0  0  0  0  0  0  0  0  0  0  0  0
   -1.9685    0.6829   -3.4872 H   0  0  0  0  0  0  0  0  0  0  0  0
   -0.0600    1.0835    0.4030 C   0  0  0  0  0  0  0  0  0  0  0  0
   -1.0495    1.7669    0.1695 O   0  0  0  0  0  0  0  0  0  0  0  0
    0.8895    1.5470    1.2949 N   0  0  0  0  0  0  0  0  0  0  0  0
    1.6741    0.9397    1.5127 H   0  0  0  0  0  0  0  0  0  0  0  0
    0.7932    2.8402    1.9615 C   0  0  0  0  0  0  0  0  0  0  0  0
   -0.1211    2.8947    2.5618 H   0  0  0  0  0  0  0  0  0  0  0  0
    1.6509    2.9902    2.6243 H   0  0  0  0  0  0  0  0  0  0  0  0
    0.7797    3.6506    1.2251 H   0  0  0  0  0  0  0  0  0  0  0  0
  1  2  1  0  0  0  0
  2  3  1  0  0  0  0
  2  4  1  0  0  0  0
  2  5  1  0  0  0  0
  5  6  2  0  0  0  0
  5  7  1  0  0  0  0
  7  8  1  0  0  0  0
  7  9  1  0  0  0  0
  9 10  1  0  0  0  0
  9 11  1  0  0  0  0
  9 18  1  0  0  0  0
 11 12  1  0  0  0  0
 11 13  1  0  0  0  0
 11 14  1  0  0  0  0
 14 15  2  0  0  0  0
 14 16  1  0  0  0  0
 16 17  1  0  0  0  0
 18 19  2  0  0  0  0
 18 20  1  0  0  0  0
 20 21  1  0  0  0  0
 20 22  1  0  0  0  0
 22 23  1  0  0  0  0
 22 24  1  0  0  0  0
 22 25  1  0  0  0  0
M  END
$$$$

  -OEChem-03222214023D

 25 24  0     1  0  0  0  0  0999 V2000
   -2.6868   -4.0437    0.3984 H   0  0  0  0  0  0  0  0  0  0  0  0
   -2.7450   -2.9932    0.1005 C   0  0  0  0  0  0  0  0  0  0  0  0
   -3.4402   -2.4755    0.7657 H   0  0  0  0  0  0  0  0  0  0  0  0
   -3.1216   -2.9373   -0.9237 H   0  0  0  0  0  0  0  0  0  0  0  0
   -1.3743   -2.3489    0.1830 C   0  0  0  0  0  0  0  0  0  0  0  0
   -0.4113   -2.9993    0.5594 O   0  0  0  0  0  0  0  0  0  0  0  0
   -1.2145   -1.0298   -0.1834 N   0  0  0  0  0  0  0  0  0  0  0  0
   -2.0296   -0.5407   -0.5548 H   0  0  0  0  0  0  0  0  0  0  0  0
    0.0645   -0.3093   -0.2176 C   0  0  1  0  0  0  0  0  0  0  0  0
    0.8098   -0.8586    0.3670 H   0  0  0  0  0  0  0  0  0  0  0  0
    0.5754   -0.1987   -1.6682 C   0  0  0  0  0  0  0  0  0  0  0  0
    1.5470    0.3037   -1.6668 H   0  0  0  0  0  0  0  0  0  0  0  0
    0.7251   -1.2060   -2.0641 H   0  0  0  0  0  0  0  0  0  0  0  0
   -0.3558    0.5449   -2.6283 C   0  0  0  0  0  0  0  0  0  0  0  0
    0.1612    1.3600   -3.3707 O   0  0  0  0  0  0  0  0  0  0  0  0
   -1.6724    0.2317   -2.6801 O   0  0  0  0  0  0  0  0  0  0  0  0
   -2.0418    0.8442   -3.3354 H   0  0  0  0  0  0  0  0  0  0  0  0
   -0.0650    1.0886    0.4226 C   0  0  0  0  0  0  0  0  0  0  0  0
   -1.0338    1.7945    0.1715 O   0  0  0  0  0  0  0  0  0  0  0  0
    0.8954    1.5455    1.3063 N   0  0  0  0  0  0  0  0  0  0  0  0
    1.6619    0.9206    1.5394 H   0  0  0  0  0  0  0  0  0  0  0  0
    0.8202    2.8443    1.9647 C   0  0  0  0  0  0  0  0  0  0  0  0
   -0.0868    2.9130    2.5747 H   0  0  0  0  0  0  0  0  0  0  0  0
    1.6871    2.9888    2.6167 H   0  0  0  0  0  0  0  0  0  0  0  0
    0.8078    3.6498    1.2227 H   0  0  0  0  0  0  0  0  0  0  0  0
  1  2  1  0  0  0  0
  2  3  1  0  0  0  0
  2  4  1  0  0  0  0
  2  5  1  0  0  0  0
  5  6  2  0  0  0  0
  5  7  1  0  0  0  0
  7  8  1  0  0  0  0
  7  9  1  0  0  0  0
  9 10  1  0  0  0  0
  9 11  1  0  0  0  0
  9 18  1  0  0  0  0
 11 12  1  0  0  0  0
 11 13  1  0  0  0  0
 11 14  1  0  0  0  0
 14 15  2  0  0  0  0
 14 16  1  0  0  0  0
 16 17  1  0  0  0  0
 18 19  2  0  0  0  0
 18 20  1  0  0  0  0
 20 21  1  0  0  0  0
 20 22  1  0  0  0  0
 22 23  1  0  0  0  0
 22 24  1  0  0  0  0
 22 25  1  0  0  0  0
M  END
$$$$

  -OEChem-03222214023D

 25 24  0     1  0  0  0  0  0999 V2000
   -2.6763   -4.0493    0.3924 H   0  0  0  0  0  0  0  0  0  0  0  0
   -2.7419   -2.9977    0.0997 C   0  0  0  0  0  0  0  0  0  0  0  0
   -3.4352   -2.4869    0.7721 H   0  0  0  0  0  0  0  0  0  0  0  0
   -3.1259   -2.9388   -0.9215 H   0  0  0  0  0  0  0  0  0  0  0  0
   -1.3743   -2.3461    0.1759 C   0  0  0  0  0  0  0  0  0  0  0  0
   -0.4037   -2.9957    0.5335 O   0  0  0  0  0  0  0  0  0  0  0  0
   -1.2252   -1.0220   -0.1770 N   0  0  0  0  0  0  0  0  0  0  0  0
   -2.0467   -0.5299   -0.5311 H   0  0  0  0  0  0  0  0  0  0  0  0
    0.0477   -0.2915   -0.2120 C   0  0  1  0  0  0  0  0  0  0  0  0
    0.7954   -0.8430    0.3670 H   0  0  0  0  0  0  0  0  0  0  0  0
    0.5598   -0.1791   -1.6626 C   0  0  0  0  0  0  0  0  0  0  0  0
    1.5270    0.3312   -1.6576 H   0  0  0  0  0  0  0  0  0  0  0  0
    0.7190   -1.1879   -2.0516 H   0  0  0  0  0  0  0  0  0  0  0  0
   -0.3625    0.5510   -2.6429 C   0  0  0  0  0  0  0  0  0  0  0  0
    0.1831    1.1397   -3.5586 O   0  0  0  0  0  0  0  0  0  0  0  0
   -1.7083    0.4379   -2.5401 O   0  0  0  0  0  0  0  0  0  0  0  0
   -2.0574    0.9994   -3.2494 H   0  0  0  0  0  0  0  0  0  0  0  0
   -0.0718    1.1018    0.4410 C   0  0  0  0  0  0  0  0  0  0  0  0
   -1.0333    1.8212    0.2026 O   0  0  0  0  0  0  0  0  0  0  0  0
    0.9013    1.5463    1.3173 N   0  0  0  0  0  0  0  0  0  0  0  0
    1.6589    0.9095    1.5470 H   0  0  0  0  0  0  0  0  0  0  0  0
    0.8427    2.8411    1.9859 C   0  0  0  0  0  0  0  0  0  0  0  0
   -0.0584    2.9131    2.6041 H   0  0  0  0  0  0  0  0  0  0  0  0
    1.7165    2.9742    2.6313 H   0  0  0  0  0  0  0  0  0  0  0  0
    0.8304    3.6519    1.2497 H   0  0  0  0  0  0  0  0  0  0  0  0
  1  2  1  0  0  0  0
  2  3  1  0  0  0  0
  2  4  1  0  0  0  0
  2  5  1  0  0  0  0
  5  6  2  0  0  0  0
  5  7  1  0  0  0  0
  7  8  1  0  0  0  0
  7  9  1  0  0  0  0
  9 10  1  0  0  0  0
  9 11  1  0  0  0  0
  9 18  1  0  0  0  0
 11 12  1  0  0  0  0
 11 13  1  0  0  0  0
 11 14  1  0  0  0  0
 14 15  2  0  0  0  0
 14 16  1  0  0  0  0
 16 17  1  0  0  0  0
 18 19  2  0  0  0  0
 18 20  1  0  0  0  0
 20 21  1  0  0  0  0
 20 22  1  0  0  0  0
 22 23  1  0  0  0  0
 22 24  1  0  0  0  0
 22 25  1  0  0  0  0
M  END
$$$$

  -OEChem-03222214023D

 25 24  0     1  0  0  0  0  0999 V2000
   -2.6701   -4.0392    0.3912 H   0  0  0  0  0  0  0  0  0  0  0  0
   -2.7432   -2.9863    0.1049 C   0  0  0  0  0  0  0  0  0  0  0  0
   -3.4229   -2.4794    0.7941 H   0  0  0  0  0  0  0  0  0  0  0  0
   -3.1489   -2.9236   -0.9077 H   0  0  0  0  0  0  0  0  0  0  0  0
   -1.3744   -2.3343    0.1547 C   0  0  0  0  0  0  0  0  0  0  0  0
   -0.3939   -2.9878    0.4760 O   0  0  0  0  0  0  0  0  0  0  0  0
   -1.2349   -1.0050   -0.1826 N   0  0  0  0  0  0  0  0  0  0  0  0
   -2.0688   -0.5005   -0.4862 H   0  0  0  0  0  0  0  0  0  0  0  0
    0.0317   -0.2635   -0.2167 C   0  0  1  0  0  0  0  0  0  0  0  0
    0.7771   -0.8165    0.3640 H   0  0  0  0  0  0  0  0  0  0  0  0
    0.5556   -0.1647   -1.6639 C   0  0  0  0  0  0  0  0  0  0  0  0
    1.5158    0.3579   -1.6559 H   0  0  0  0  0  0  0  0  0  0  0  0
    0.7320   -1.1778   -2.0341 H   0  0  0  0  0  0  0  0  0  0  0  0
   -0.3543    0.5396   -2.6736 C   0  0  0  0  0  0  0  0  0  0  0  0
    0.1696    0.8669   -3.7228 O   0  0  0  0  0  0  0  0  0  0  0  0
   -1.6840    0.6572   -2.4501 O   0  0  0  0  0  0  0  0  0  0  0  0
   -2.0256    1.1426   -3.2163 H   0  0  0  0  0  0  0  0  0  0  0  0
   -0.0750    1.1255    0.4498 C   0  0  0  0  0  0  0  0  0  0  0  0
   -1.0459    1.8446    0.2558 O   0  0  0  0  0  0  0  0  0  0  0  0
    0.9128    1.5550    1.3178 N   0  0  0  0  0  0  0  0  0  0  0  0
    1.6705    0.9116    1.5280 H   0  0  0  0  0  0  0  0  0  0  0  0
    0.8570    2.8295    2.0248 C   0  0  0  0  0  0  0  0  0  0  0  0
   -0.0270    2.8723    2.6698 H   0  0  0  0  0  0  0  0  0  0  0  0
    1.7469    2.9555    2.6489 H   0  0  0  0  0  0  0  0  0  0  0  0
    0.8146    3.6612    1.3136 H   0  0  0  0  0  0  0  0  0  0  0  0
  1  2  1  0  0  0  0
  2  3  1  0  0  0  0
  2  4  1  0  0  0  0
  2  5  1  0  0  0  0
  5  6  2  0  0  0  0
  5  7  1  0  0  0  0
  7  8  1  0  0  0  0
  7  9  1  0  0  0  0
  9 10  1  0  0  0  0
  9 11  1  0  0  0  0
  9 18  1  0  0  0  0
 11 12  1  0  0  0  0
 11 13  1  0  0  0  0
 11 14  1  0  0  0  0
 14 15  2  0  0  0  0
 14 16  1  0  0  0  0
 16 17  1  0  0  0  0
 18 19  2  0  0  0  0
 18 20  1  0  0  0  0
 20 21  1  0  0  0  0
 20 22  1  0  0  0  0
 22 23  1  0  0  0  0
 22 24  1  0  0  0  0
 22 25  1  0  0  0  0
M  END
$$$$

  -OEChem-03222214023D

 25 24  0     1  0  0  0  0  0999 V2000
   -2.6460   -3.9716    0.4349 H   0  0  0  0  0  0  0  0  0  0  0  0
   -2.7399   -2.9129    0.1773 C   0  0  0  0  0  0  0  0  0  0  0  0
   -3.3134   -2.4098    0.9597 H   0  0  0  0  0  0  0  0  0  0  0  0
   -3.2762   -2.8265   -0.7708 H   0  0  0  0  0  0  0  0  0  0  0  0
   -1.3668   -2.2802    0.0544 C   0  0  0  0  0  0  0  0  0  0  0  0
   -0.3628   -2.9569    0.2149 O   0  0  0  0  0  0  0  0  0  0  0  0
   -1.2532   -0.9384   -0.2432 N   0  0  0  0  0  0  0  0  0  0  0  0
   -2.1135   -0.3933   -0.3009 H   0  0  0  0  0  0  0  0  0  0  0  0
    0.0047   -0.1812   -0.2741 C   0  0  1  0  0  0  0  0  0  0  0  0
    0.7245   -0.7410    0.3324 H   0  0  0  0  0  0  0  0  0  0  0  0
    0.5959   -0.1560   -1.6998 C   0  0  0  0  0  0  0  0  0  0  0  0
    1.6410    0.1559   -1.6317 H   0  0  0  0  0  0  0  0  0  0  0  0
    0.5816   -1.1737   -2.0995 H   0  0  0  0  0  0  0  0  0  0  0  0
   -0.0761    0.7578   -2.7231 C   0  0  0  0  0  0  0  0  0  0  0  0
    0.4124    0.7598   -3.8383 O   0  0  0  0  0  0  0  0  0  0  0  0
   -1.2084    1.4229   -2.4194 O   0  0  0  0  0  0  0  0  0  0  0  0
   -1.4517    1.9069   -3.2223 H   0  0  0  0  0  0  0  0  0  0  0  0
   -0.0935    1.1890    0.4359 C   0  0  0  0  0  0  0  0  0  0  0  0
   -1.1535    1.8011    0.4718 O   0  0  0  0  0  0  0  0  0  0  0  0
    0.9179    1.5879    1.2923 N   0  0  0  0  0  0  0  0  0  0  0  0
    1.7395    0.9946    1.3628 H   0  0  0  0  0  0  0  0  0  0  0  0
    0.8106    2.7443    2.1748 C   0  0  0  0  0  0  0  0  0  0  0  0
    0.0084    2.5954    2.9053 H   0  0  0  0  0  0  0  0  0  0  0  0
    1.7490    2.8956    2.7168 H   0  0  0  0  0  0  0  0  0  0  0  0
    0.5968    3.6496    1.5967 H   0  0  0  0  0  0  0  0  0  0  0  0
  1  2  1  0  0  0  0
  2  3  1  0  0  0  0
  2  4  1  0  0  0  0
  2  5  1  0  0  0  0
  5  6  2  0  0  0  0
  5  7  1  0  0  0  0
  7  8  1  0  0  0  0
  7  9  1  0  0  0  0
  9 10  1  0  0  0  0
  9 11  1  0  0  0  0
  9 18  1  0  0  0  0
 11 12  1  0  0  0  0
 11 13  1  0  0  0  0
 11 14  1  0  0  0  0
 14 15  2  0  0  0  0
 14 16  1  0  0  0  0
 16 17  1  0  0  0  0
 18 19  2  0  0  0  0
 18 20  1  0  0  0  0
 20 21  1  0  0  0  0
 20 22  1  0  0  0  0
 22 23  1  0  0  0  0
 22 24  1  0  0  0  0
 22 25  1  0  0  0  0
M  END
$$$$

  -OEChem-03222214023D

 25 24  0     1  0  0  0  0  0999 V2000
   -2.6364   -3.9620    0.4640 H   0  0  0  0  0  0  0  0  0  0  0  0
   -2.7358   -2.9037    0.2068 C   0  0  0  0  0  0  0  0  0  0  0  0
   -3.2792   -2.3961    1.0075 H   0  0  0  0  0  0  0  0  0  0  0  0
   -3.3054   -2.8184   -0.7217 H   0  0  0  0  0  0  0  0  0  0  0  0
   -1.3655   -2.2767    0.0324 C   0  0  0  0  0  0  0  0  0  0  0  0
   -0.3594   -2.9598    0.1459 O   0  0  0  0  0  0  0  0  0  0  0  0
   -1.2568   -0.9324   -0.2580 N   0  0  0  0  0  0  0  0  0  0  0  0
   -2.1137   -0.3794   -0.2375 H   0  0  0  0  0  0  0  0  0  0  0  0
    0.0040   -0.1789   -0.2913 C   0  0  1  0  0  0  0  0  0  0  0  0
    0.7240   -0.7396    0.3142 H   0  0  0  0  0  0  0  0  0  0  0  0
    0.5935   -0.1630   -1.7197 C   0  0  0  0  0  0  0  0  0  0  0  0
    1.6387    0.1470   -1.6516 H   0  0  0  0  0  0  0  0  0  0  0  0
    0.5799   -1.1854   -2.1088 H   0  0  0  0  0  0  0  0  0  0  0  0
   -0.0643    0.7440   -2.7588 C   0  0  0  0  0  0  0  0  0  0  0  0
    0.2315    0.5279   -3.9198 O   0  0  0  0  0  0  0  0  0  0  0  0
   -0.8957    1.7367   -2.3900 O   0  0  0  0  0  0  0  0  0  0  0  0
   -1.1709    2.1689   -3.2119 H   0  0  0  0  0  0  0  0  0  0  0  0
   -0.1061    1.1831    0.4330 C   0  0  0  0  0  0  0  0  0  0  0  0
   -1.1883    1.7528    0.5123 O   0  0  0  0  0  0  0  0  0  0  0  0
    0.9014    1.5834    1.2936 N   0  0  0  0  0  0  0  0  0  0  0  0
    1.7439    1.0174    1.3319 H   0  0  0  0  0  0  0  0  0  0  0  0
    0.7795    2.7224    2.1967 C   0  0  0  0  0  0  0  0  0  0  0  0
   -0.0218    2.5515    2.9234 H   0  0  0  0  0  0  0  0  0  0  0  0
    1.7154    2.8742    2.7429 H   0  0  0  0  0  0  0  0  0  0  0  0
    0.5564    3.6354    1.6344 H   0  0  0  0  0  0  0  0  0  0  0  0
  1  2  1  0  0  0  0
  2  3  1  0  0  0  0
  2  4  1  0  0  0  0
  2  5  1  0  0  0  0
  5  6  2  0  0  0  0
  5  7  1  0  0  0  0
  7  8  1  0  0  0  0
  7  9  1  0  0  0  0
  9 10  1  0  0  0  0
  9 11  1  0  0  0  0
  9 18  1  0  0  0  0
 11 12  1  0  0  0  0
 11 13  1  0  0  0  0
 11 14  1  0  0  0  0
 14 15  2  0  0  0  0
 14 16  1  0  0  0  0
 16 17  1  0  0  0  0
 18 19  2  0  0  0  0
 18 20  1  0  0  0  0
 20 21  1  0  0  0  0
 20 22  1  0  0  0  0
 22 23  1  0  0  0  0
 22 24  1  0  0  0  0
 22 25  1  0  0  0  0
M  END
$$$$

  -OEChem-03222214023D

 25 24  0     1  0  0  0  0  0999 V2000
   -2.6419   -3.9555    0.4748 H   0  0  0  0  0  0  0  0  0  0  0  0
   -2.7374   -2.8978    0.2139 C   0  0  0  0  0  0  0  0  0  0  0  0
   -3.2722   -2.3843    1.0165 H   0  0  0  0  0  0  0  0  0  0  0  0
   -3.3130   -2.8132   -0.7109 H   0  0  0  0  0  0  0  0  0  0  0  0
   -1.3649   -2.2792    0.0272 C   0  0  0  0  0  0  0  0  0  0  0  0
   -0.3624   -2.9675    0.1415 O   0  0  0  0  0  0  0  0  0  0  0  0
   -1.2482   -0.9364   -0.2681 N   0  0  0  0  0  0  0  0  0  0  0  0
   -2.1001   -0.3763   -0.2327 H   0  0  0  0  0  0  0  0  0  0  0  0
    0.0201   -0.1941   -0.2961 C   0  0  1  0  0  0  0  0  0  0  0  0
    0.7410   -0.7557    0.3075 H   0  0  0  0  0  0  0  0  0  0  0  0
    0.5937   -0.1765   -1.7313 C   0  0  0  0  0  0  0  0  0  0  0  0
    1.6419    0.1249   -1.6750 H   0  0  0  0  0  0  0  0  0  0  0  0
    0.5679   -1.1965   -2.1266 H   0  0  0  0  0  0  0  0  0  0  0  0
   -0.0725    0.7493   -2.7476 C   0  0  0  0  0  0  0  0  0  0  0  0
   -0.0423    0.3897   -3.9104 O   0  0  0  0  0  0  0  0  0  0  0  0
   -0.5209    1.9624   -2.3712 O   0  0  0  0  0  0  0  0  0  0  0  0
   -0.8583    2.3787   -3.1782 H   0  0  0  0  0  0  0  0  0  0  0  0
   -0.1053    1.1664    0.4274 C   0  0  0  0  0  0  0  0  0  0  0  0
   -1.1940    1.7283    0.4836 O   0  0  0  0  0  0  0  0  0  0  0  0
    0.8866    1.5739    1.3020 N   0  0  0  0  0  0  0  0  0  0  0  0
    1.7376    1.0212    1.3444 H   0  0  0  0  0  0  0  0  0  0  0  0
    0.7483    2.7207    2.1922 C   0  0  0  0  0  0  0  0  0  0  0  0
   -0.0708    2.5592    2.9008 H   0  0  0  0  0  0  0  0  0  0  0  0
    1.6714    2.8731    2.7595 H   0  0  0  0  0  0  0  0  0  0  0  0
    0.5423    3.6296    1.6169 H   0  0  0  0  0  0  0  0  0  0  0  0
  1  2  1  0  0  0  0
  2  3  1  0  0  0  0
  2  4  1  0  0  0  0
  2  5  1  0  0  0  0
  5  6  2  0  0  0  0
  5  7  1  0  0  0  0
  7  8  1  0  0  0  0
  7  9  1  0  0  0  0
  9 10  1  0  0  0  0
  9 11  1  0  0  0  0
  9 18  1  0  0  0  0
 11 12  1  0  0  0  0
 11 13  1  0  0  0  0
 11 14  1  0  0  0  0
 14 15  2  0  0  0  0
 14 16  1  0  0  0  0
 16 17  1  0  0  0  0
 18 19  2  0  0  0  0
 18 20  1  0  0  0  0
 20 21  1  0  0  0  0
 20 22  1  0  0  0  0
 22 23  1  0  0  0  0
 22 24  1  0  0  0  0
 22 25  1  0  0  0  0
M  END
$$$$

  -OEChem-03222214023D

 25 24  0     1  0  0  0  0  0999 V2000
   -2.6622   -3.9519    0.4627 H   0  0  0  0  0  0  0  0  0  0  0  0
   -2.7428   -2.8951    0.1930 C   0  0  0  0  0  0  0  0  0  0  0  0
   -3.2928   -2.3722    0.9792 H   0  0  0  0  0  0  0  0  0  0  0  0
   -3.2956   -2.8121   -0.7460 H   0  0  0  0  0  0  0  0  0  0  0  0
   -1.3615   -2.2885    0.0349 C   0  0  0  0  0  0  0  0  0  0  0  0
   -0.3670   -2.9823    0.1809 O   0  0  0  0  0  0  0  0  0  0  0  0
   -1.2288   -0.9499   -0.2714 N   0  0  0  0  0  0  0  0  0  0  0  0
   -2.0778   -0.3844   -0.2631 H   0  0  0  0  0  0  0  0  0  0  0  0
    0.0466   -0.2194   -0.2890 C   0  0  1  0  0  0  0  0  0  0  0  0
    0.7683   -0.7820    0.3126 H   0  0  0  0  0  0  0  0  0  0  0  0
    0.6025   -0.1891   -1.7296 C   0  0  0  0  0  0  0  0  0  0  0  0
    1.6536    0.1049   -1.6881 H   0  0  0  0  0  0  0  0  0  0  0  0
    0.5625   -1.2009   -2.1443 H   0  0  0  0  0  0  0  0  0  0  0  0
   -0.0856    0.7684   -2.6989 C   0  0  0  0  0  0  0  0  0  0  0  0
   -0.3513    0.3425   -3.8083 O   0  0  0  0  0  0  0  0  0  0  0  0
   -0.1851    2.0732   -2.3727 O   0  0  0  0  0  0  0  0  0  0  0  0
   -0.6051    2.5001   -3.1344 H   0  0  0  0  0  0  0  0  0  0  0  0
   -0.0919    1.1452    0.4226 C   0  0  0  0  0  0  0  0  0  0  0  0
   -1.1728    1.7251    0.4162 O   0  0  0  0  0  0  0  0  0  0  0  0
    0.8796    1.5642    1.3140 N   0  0  0  0  0  0  0  0  0  0  0  0
    1.7281    1.0107    1.3862 H   0  0  0  0  0  0  0  0  0  0  0  0
    0.7324    2.7404    2.1631 C   0  0  0  0  0  0  0  0  0  0  0  0
   -0.1228    2.6224    2.8368 H   0  0  0  0  0  0  0  0  0  0  0  0
    1.6319    2.8853    2.7691 H   0  0  0  0  0  0  0  0  0  0  0  0
    0.5791    3.6364    1.5525 H   0  0  0  0  0  0  0  0  0  0  0  0
  1  2  1  0  0  0  0
  2  3  1  0  0  0  0
  2  4  1  0  0  0  0
  2  5  1  0  0  0  0
  5  6  2  0  0  0  0
  5  7  1  0  0  0  0
  7  8  1  0  0  0  0
  7  9  1  0  0  0  0
  9 10  1  0  0  0  0
  9 11  1  0  0  0  0
  9 18  1  0  0  0  0
 11 12  1  0  0  0  0
 11 13  1  0  0  0  0
 11 14  1  0  0  0  0
 14 15  2  0  0  0  0
 14 16  1  0  0  0  0
 16 17  1  0  0  0  0
 18 19  2  0  0  0  0
 18 20  1  0  0  0  0
 20 21  1  0  0  0  0
 20 22  1  0  0  0  0
 22 23  1  0  0  0  0
 22 24  1  0  0  0  0
 22 25  1  0  0  0  0
M  END
$$$$

  -OEChem-03222214023D

 25 24  0     1  0  0  0  0  0999 V2000
   -2.6857   -3.9565    0.4295 H   0  0  0  0  0  0  0  0  0  0  0  0
   -2.7513   -2.9002    0.1542 C   0  0  0  0  0  0  0  0  0  0  0  0
   -3.3302   -2.3728    0.9161 H   0  0  0  0  0  0  0  0  0  0  0  0
   -3.2654   -2.8178   -0.8065 H   0  0  0  0  0  0  0  0  0  0  0  0
   -1.3624   -2.2995    0.0497 C   0  0  0  0  0  0  0  0  0  0  0  0
   -0.3772   -2.9942    0.2459 O   0  0  0  0  0  0  0  0  0  0  0  0
   -1.2120   -0.9657   -0.2690 N   0  0  0  0  0  0  0  0  0  0  0  0
   -2.0586   -0.3997   -0.3245 H   0  0  0  0  0  0  0  0  0  0  0  0
    0.0690   -0.2449   -0.2738 C   0  0  1  0  0  0  0  0  0  0  0  0
    0.7893   -0.8091    0.3280 H   0  0  0  0  0  0  0  0  0  0  0  0
    0.6164   -0.1998   -1.7149 C   0  0  0  0  0  0  0  0  0  0  0  0
    1.6698    0.0867   -1.6817 H   0  0  0  0  0  0  0  0  0  0  0  0
    0.5633   -1.2014   -2.1521 H   0  0  0  0  0  0  0  0  0  0  0  0
   -0.0908    0.7866   -2.6373 C   0  0  0  0  0  0  0  0  0  0  0  0
   -0.6350    0.3463   -3.6339 O   0  0  0  0  0  0  0  0  0  0  0  0
    0.0740    2.1070   -2.4086 O   0  0  0  0  0  0  0  0  0  0  0  0
   -0.4291    2.5538   -3.1061 H   0  0  0  0  0  0  0  0  0  0  0  0
   -0.0741    1.1275    0.4204 C   0  0  0  0  0  0  0  0  0  0  0  0
   -1.1343    1.7387    0.3411 O   0  0  0  0  0  0  0  0  0  0  0  0
    0.8801    1.5563    1.3251 N   0  0  0  0  0  0  0  0  0  0  0  0
    1.7166    0.9912    1.4374 H   0  0  0  0  0  0  0  0  0  0  0  0
    0.7410    2.7731    2.1166 C   0  0  0  0  0  0  0  0  0  0  0  0
   -0.1384    2.7097    2.7660 H   0  0  0  0  0  0  0  0  0  0  0  0
    1.6249    2.9194    2.7450 H   0  0  0  0  0  0  0  0  0  0  0  0
    0.6339    3.6450    1.4625 H   0  0  0  0  0  0  0  0  0  0  0  0
  1  2  1  0  0  0  0
  2  3  1  0  0  0  0
  2  4  1  0  0  0  0
  2  5  1  0  0  0  0
  5  6  2  0  0  0  0
  5  7  1  0  0  0  0
  7  8  1  0  0  0  0
  7  9  1  0  0  0  0
  9 10  1  0  0  0  0
  9 11  1  0  0  0  0
  9 18  1  0  0  0  0
 11 12  1  0  0  0  0
 11 13  1  0  0  0  0
 11 14  1  0  0  0  0
 14 15  2  0  0  0  0
 14 16  1  0  0  0  0
 16 17  1  0  0  0  0
 18 19  2  0  0  0  0
 18 20  1  0  0  0  0
 20 21  1  0  0  0  0
 20 22  1  0  0  0  0
 22 23  1  0  0  0  0
 22 24  1  0  0  0  0
 22 25  1  0  0  0  0
M  END
$$$$

  -OEChem-03222214023D

 25 24  0     1  0  0  0  0  0999 V2000
   -2.7061   -3.9596    0.3874 H   0  0  0  0  0  0  0  0  0  0  0  0
   -2.7572   -2.9035    0.1084 C   0  0  0  0  0  0  0  0  0  0  0  0
   -3.3716   -2.3743    0.8407 H   0  0  0  0  0  0  0  0  0  0  0  0
   -3.2240   -2.8215   -0.8762 H   0  0  0  0  0  0  0  0  0  0  0  0
   -1.3645   -2.3037    0.0713 C   0  0  0  0  0  0  0  0  0  0  0  0
   -0.3909   -2.9935    0.3329 O   0  0  0  0  0  0  0  0  0  0  0  0
   -1.1981   -0.9758   -0.2616 N   0  0  0  0  0  0  0  0  0  0  0  0
   -2.0398   -0.4179   -0.4037 H   0  0  0  0  0  0  0  0  0  0  0  0
    0.0856   -0.2606   -0.2586 C   0  0  1  0  0  0  0  0  0  0  0  0
    0.8031   -0.8237    0.3474 H   0  0  0  0  0  0  0  0  0  0  0  0
    0.6298   -0.2133   -1.6992 C   0  0  0  0  0  0  0  0  0  0  0  0
    1.6849    0.0684   -1.6735 H   0  0  0  0  0  0  0  0  0  0  0  0
    0.5670   -1.2089   -2.1486 H   0  0  0  0  0  0  0  0  0  0  0  0
   -0.0930    0.7871   -2.5916 C   0  0  0  0  0  0  0  0  0  0  0  0
   -0.8788    0.3634   -3.4204 O   0  0  0  0  0  0  0  0  0  0  0  0
    0.2617    2.0871   -2.4989 O   0  0  0  0  0  0  0  0  0  0  0  0
   -0.3154    2.5537   -3.1225 H   0  0  0  0  0  0  0  0  0  0  0  0
   -0.0540    1.1226    0.4143 C   0  0  0  0  0  0  0  0  0  0  0  0
   -1.0881    1.7657    0.2728 O   0  0  0  0  0  0  0  0  0  0  0  0
    0.8913    1.5586    1.3246 N   0  0  0  0  0  0  0  0  0  0  0  0
    1.7073    0.9738    1.4792 H   0  0  0  0  0  0  0  0  0  0  0  0
    0.7622    2.8011    2.0766 C   0  0  0  0  0  0  0  0  0  0  0  0
   -0.1276    2.7727    2.7146 H   0  0  0  0  0  0  0  0  0  0  0  0
    1.6392    2.9516    2.7134 H   0  0  0  0  0  0  0  0  0  0  0  0
    0.6803    3.6543    1.3948 H   0  0  0  0  0  0  0  0  0  0  0  0
  1  2  1  0  0  0  0
  2  3  1  0  0  0  0
  2  4  1  0  0  0  0
  2  5  1  0  0  0  0
  5  6  2  0  0  0  0
  5  7  1  0  0  0  0
  7  8  1  0  0  0  0
  7  9  1  0  0  0  0
  9 10  1  0  0  0  0
  9 11  1  0  0  0  0
  9 18  1  0  0  0  0
 11 12  1  0  0  0  0
 11 13  1  0  0  0  0
 11 14  1  0  0  0  0
 14 15  2  0  0  0  0
 14 16  1  0  0  0  0
 16 17  1  0  0  0  0
 18 19  2  0  0  0  0
 18 20  1  0  0  0  0
 20 21  1  0  0  0  0
 20 22  1  0  0  0  0
 22 23  1  0  0  0  0
 22 24  1  0  0  0  0
 22 25  1  0  0  0  0
M  END
$$$$

  -OEChem-03222214023D

 25 24  0     1  0  0  0  0  0999 V2000
   -2.7132   -3.9746    0.3432 H   0  0  0  0  0  0  0  0  0  0  0  0
   -2.7580   -2.9195    0.0596 C   0  0  0  0  0  0  0  0  0  0  0  0
   -3.4166   -2.3943    0.7556 H   0  0  0  0  0  0  0  0  0  0  0  0
   -3.1707   -2.8427   -0.9494 H   0  0  0  0  0  0  0  0  0  0  0  0
   -1.3705   -2.3080    0.0973 C   0  0  0  0  0  0  0  0  0  0  0  0
   -0.4076   -2.9873    0.4192 O   0  0  0  0  0  0  0  0  0  0  0  0
   -1.1960   -0.9841   -0.2465 N   0  0  0  0  0  0  0  0  0  0  0  0
   -2.0274   -0.4466   -0.4918 H   0  0  0  0  0  0  0  0  0  0  0  0
    0.0874   -0.2693   -0.2389 C   0  0  1  0  0  0  0  0  0  0  0  0
    0.8030   -0.8308    0.3709 H   0  0  0  0  0  0  0  0  0  0  0  0
    0.6316   -0.2232   -1.6787 C   0  0  0  0  0  0  0  0  0  0  0  0
    1.6873    0.0569   -1.6569 H   0  0  0  0  0  0  0  0  0  0  0  0
    0.5644   -1.2159   -2.1329 H   0  0  0  0  0  0  0  0  0  0  0  0
   -0.1019    0.7809   -2.5575 C   0  0  0  0  0  0  0  0  0  0  0  0
   -1.0794    0.4049   -3.1803 O   0  0  0  0  0  0  0  0  0  0  0  0
    0.3987    2.0329   -2.6373 O   0  0  0  0  0  0  0  0  0  0  0  0
   -0.2320    2.5219   -3.1880 H   0  0  0  0  0  0  0  0  0  0  0  0
   -0.0421    1.1233    0.4164 C   0  0  0  0  0  0  0  0  0  0  0  0
   -1.0435    1.8017    0.2198 O   0  0  0  0  0  0  0  0  0  0  0  0
    0.9025    1.5614    1.3264 N   0  0  0  0  0  0  0  0  0  0  0  0
    1.6926    0.9534    1.5212 H   0  0  0  0  0  0  0  0  0  0  0  0
    0.7992    2.8311    2.0360 C   0  0  0  0  0  0  0  0  0  0  0  0
   -0.1075    2.8551    2.6497 H   0  0  0  0  0  0  0  0  0  0  0  0
    1.6640    2.9698    2.6919 H   0  0  0  0  0  0  0  0  0  0  0  0
    0.7669    3.6648    1.3265 H   0  0  0  0  0  0  0  0  0  0  0  0
  1  2  1  0  0  0  0
  2  3  1  0  0  0  0
  2  4  1  0  0  0  0
  2  5  1  0  0  0  0
  5  6  2  0  0  0  0
  5  7  1  0  0  0  0
  7  8  1  0  0  0  0
  7  9  1  0  0  0  0
  9 10  1  0  0  0  0
  9 11  1  0  0  0  0
  9 18  1  0  0  0  0
 11 12  1  0  0  0  0
 11 13  1  0  0  0  0
 11 14  1  0  0  0  0
 14 15  2  0  0  0  0
 14 16  1  0  0  0  0
 16 17  1  0  0  0  0
 18 19  2  0  0  0  0
 18 20  1  0  0  0  0
 20 21  1  0  0  0  0
 20 22  1  0  0  0  0
 22 23  1  0  0  0  0
 22 24  1  0  0  0  0
 22 25  1  0  0  0  0
M  END
$$$$

  -OEChem-03222214023D

 25 24  0     1  0  0  0  0  0999 V2000
   -2.7084   -3.9898    0.3211 H   0  0  0  0  0  0  0  0  0  0  0  0
   -2.7555   -2.9350    0.0371 C   0  0  0  0  0  0  0  0  0  0  0  0
   -3.4378   -2.4166    0.7151 H   0  0  0  0  0  0  0  0  0  0  0  0
   -3.1406   -2.8610   -0.9829 H   0  0  0  0  0  0  0  0  0  0  0  0
   -1.3756   -2.3100    0.1147 C   0  0  0  0  0  0  0  0  0  0  0  0
   -0.4180   -2.9767    0.4764 O   0  0  0  0  0  0  0  0  0  0  0  0
   -1.2022   -0.9879   -0.2357 N   0  0  0  0  0  0  0  0  0  0  0  0
   -2.0232   -0.4717   -0.5530 H   0  0  0  0  0  0  0  0  0  0  0  0
    0.0781   -0.2682   -0.2283 C   0  0  1  0  0  0  0  0  0  0  0  0
    0.7928   -0.8271    0.3847 H   0  0  0  0  0  0  0  0  0  0  0  0
    0.6276   -0.2253   -1.6662 C   0  0  0  0  0  0  0  0  0  0  0  0
    1.6823    0.0593   -1.6392 H   0  0  0  0  0  0  0  0  0  0  0  0
    0.5668   -1.2188   -2.1188 H   0  0  0  0  0  0  0  0  0  0  0  0
   -0.1075    0.7717   -2.5537 C   0  0  0  0  0  0  0  0  0  0  0  0
   -1.2206    0.4827   -2.9588 O   0  0  0  0  0  0  0  0  0  0  0  0
    0.5131    1.9356   -2.8430 O   0  0  0  0  0  0  0  0  0  0  0  0
   -0.1402    2.4486   -3.3436 H   0  0  0  0  0  0  0  0  0  0  0  0
   -0.0405    1.1304    0.4154 C   0  0  0  0  0  0  0  0  0  0  0  0
   -1.0149    1.8365    0.1875 O   0  0  0  0  0  0  0  0  0  0  0  0
    0.9108    1.5652    1.3200 N   0  0  0  0  0  0  0  0  0  0  0  0
    1.6759    0.9355    1.5440 H   0  0  0  0  0  0  0  0  0  0  0  0
    0.8253    2.8441    2.0151 C   0  0  0  0  0  0  0  0  0  0  0  0
   -0.0992    2.9027    2.5993 H   0  0  0  0  0  0  0  0  0  0  0  0
    1.6727    2.9617    2.6974 H   0  0  0  0  0  0  0  0  0  0  0  0
    0.8416    3.6709    1.2972 H   0  0  0  0  0  0  0  0  0  0  0  0
  1  2  1  0  0  0  0
  2  3  1  0  0  0  0
  2  4  1  0  0  0  0
  2  5  1  0  0  0  0
  5  6  2  0  0  0  0
  5  7  1  0  0  0  0
  7  8  1  0  0  0  0
  7  9  1  0  0  0  0
  9 10  1  0  0  0  0
  9 11  1  0  0  0  0
  9 18  1  0  0  0  0
 11 12  1  0  0  0  0
 11 13  1  0  0  0  0
 11 14  1  0  0  0  0
 14 15  2  0  0  0  0
 14 16  1  0  0  0  0
 16 17  1  0  0  0  0
 18 19  2  0  0  0  0
 18 20  1  0  0  0  0
 20 21  1  0  0  0  0
 20 22  1  0  0  0  0
 22 23  1  0  0  0  0
 22 24  1  0  0  0  0
 22 25  1  0  0  0  0
M  END
$$$$

  -OEChem-03222214023D

 25 24  0     1  0  0  0  0  0999 V2000
   -2.7014   -4.0051    0.3163 H   0  0  0  0  0  0  0  0  0  0  0  0
   -2.7550   -2.9508    0.0310 C   0  0  0  0  0  0  0  0  0  0  0  0
   -3.4473   -2.4380    0.7031 H   0  0  0  0  0  0  0  0  0  0  0  0
   -3.1330   -2.8810   -0.9920 H   0  0  0  0  0  0  0  0  0  0  0  0
   -1.3811   -2.3136    0.1199 C   0  0  0  0  0  0  0  0  0  0  0  0
   -0.4203   -2.9733    0.4859 O   0  0  0  0  0  0  0  0  0  0  0  0
   -1.2158   -0.9896   -0.2275 N   0  0  0  0  0  0  0  0  0  0  0  0
   -2.0341   -0.4844   -0.5696 H   0  0  0  0  0  0  0  0  0  0  0  0
    0.0586   -0.2596   -0.2218 C   0  0  1  0  0  0  0  0  0  0  0  0
    0.7729   -0.8169    0.3925 H   0  0  0  0  0  0  0  0  0  0  0  0
    0.6194   -0.2166   -1.6563 C   0  0  0  0  0  0  0  0  0  0  0  0
    1.6718    0.0756   -1.6163 H   0  0  0  0  0  0  0  0  0  0  0  0
    0.5730   -1.2131   -2.1031 H   0  0  0  0  0  0  0  0  0  0  0  0
   -0.1069    0.7655   -2.5704 C   0  0  0  0  0  0  0  0  0  0  0  0
   -1.2995    0.6116   -2.7732 O   0  0  0  0  0  0  0  0  0  0  0  0
    0.6127    1.7771   -3.1012 O   0  0  0  0  0  0  0  0  0  0  0  0
   -0.0336    2.3112   -3.5889 H   0  0  0  0  0  0  0  0  0  0  0  0
   -0.0500    1.1402    0.4219 C   0  0  0  0  0  0  0  0  0  0  0  0
   -1.0132    1.8601    0.1939 O   0  0  0  0  0  0  0  0  0  0  0  0
    0.9116    1.5694    1.3188 N   0  0  0  0  0  0  0  0  0  0  0  0
    1.6648    0.9278    1.5494 H   0  0  0  0  0  0  0  0  0  0  0  0
    0.8404    2.8489    2.0147 C   0  0  0  0  0  0  0  0  0  0  0  0
   -0.0658    2.9024    2.6273 H   0  0  0  0  0  0  0  0  0  0  0  0
    1.7081    2.9724    2.6698 H   0  0  0  0  0  0  0  0  0  0  0  0
    0.8296    3.6758    1.2967 H   0  0  0  0  0  0  0  0  0  0  0  0
  1  2  1  0  0  0  0
  2  3  1  0  0  0  0
  2  4  1  0  0  0  0
  2  5  1  0  0  0  0
  5  6  2  0  0  0  0
  5  7  1  0  0  0  0
  7  8  1  0  0  0  0
  7  9  1  0  0  0  0
  9 10  1  0  0  0  0
  9 11  1  0  0  0  0
  9 18  1  0  0  0  0
 11 12  1  0  0  0  0
 11 13  1  0  0  0  0
 11 14  1  0  0  0  0
 14 15  2  0  0  0  0
 14 16  1  0  0  0  0
 16 17  1  0  0  0  0
 18 19  2  0  0  0  0
 18 20  1  0  0  0  0
 20 21  1  0  0  0  0
 20 22  1  0  0  0  0
 22 23  1  0  0  0  0
 22 24  1  0  0  0  0
 22 25  1  0  0  0  0
M  END
$$$$

  -OEChem-03222214023D

 25 24  0     1  0  0  0  0  0999 V2000
   -2.6888   -4.0095    0.3266 H   0  0  0  0  0  0  0  0  0  0  0  0
   -2.7524   -2.9545    0.0461 C   0  0  0  0  0  0  0  0  0  0  0  0
   -3.4359   -2.4478    0.7318 H   0  0  0  0  0  0  0  0  0  0  0  0
   -3.1478   -2.8828   -0.9700 H   0  0  0  0  0  0  0  0  0  0  0  0
   -1.3804   -2.3108    0.1129 C   0  0  0  0  0  0  0  0  0  0  0  0
   -0.4088   -2.9702    0.4499 O   0  0  0  0  0  0  0  0  0  0  0  0
   -1.2285   -0.9829   -0.2251 N   0  0  0  0  0  0  0  0  0  0  0  0
   -2.0578   -0.4728   -0.5320 H   0  0  0  0  0  0  0  0  0  0  0  0
    0.0389   -0.2417   -0.2276 C   0  0  1  0  0  0  0  0  0  0  0  0
    0.7553   -0.7969    0.3867 H   0  0  0  0  0  0  0  0  0  0  0  0
    0.6107   -0.2024   -1.6589 C   0  0  0  0  0  0  0  0  0  0  0  0
    1.6598    0.0988   -1.6060 H   0  0  0  0  0  0  0  0  0  0  0  0
    0.5802   -1.2050   -2.0928 H   0  0  0  0  0  0  0  0  0  0  0  0
   -0.0988    0.7572   -2.6119 C   0  0  0  0  0  0  0  0  0  0  0  0
   -1.3168    0.7845   -2.6426 O   0  0  0  0  0  0  0  0  0  0  0  0
    0.6779    1.5487   -3.3820 O   0  0  0  0  0  0  0  0  0  0  0  0
    0.0532    2.0999   -3.8788 H   0  0  0  0  0  0  0  0  0  0  0  0
   -0.0648    1.1538    0.4268 C   0  0  0  0  0  0  0  0  0  0  0  0
   -1.0433    1.8649    0.2446 O   0  0  0  0  0  0  0  0  0  0  0  0
    0.9106    1.5761    1.3123 N   0  0  0  0  0  0  0  0  0  0  0  0
    1.6716    0.9358    1.5193 H   0  0  0  0  0  0  0  0  0  0  0  0
    0.8375    2.8391    2.0378 C   0  0  0  0  0  0  0  0  0  0  0  0
   -0.0479    2.8606    2.6819 H   0  0  0  0  0  0  0  0  0  0  0  0
    1.7249    2.9677    2.6648 H   0  0  0  0  0  0  0  0  0  0  0  0
    0.7848    3.6801    1.3384 H   0  0  0  0  0  0  0  0  0  0  0  0
  1  2  1  0  0  0  0
  2  3  1  0  0  0  0
  2  4  1  0  0  0  0
  2  5  1  0  0  0  0
  5  6  2  0  0  0  0
  5  7  1  0  0  0  0
  7  8  1  0  0  0  0
  7  9  1  0  0  0  0
  9 10  1  0  0  0  0
  9 11  1  0  0  0  0
  9 18  1  0  0  0  0
 11 12  1  0  0  0  0
 11 13  1  0  0  0  0
 11 14  1  0  0  0  0
 14 15  2  0  0  0  0
 14 16  1  0  0  0  0
 16 17  1  0  0  0  0
 18 19  2  0  0  0  0
 18 20  1  0  0  0  0
 20 21  1  0  0  0  0
 20 22  1  0  0  0  0
 22 23  1  0  0  0  0
 22 24  1  0  0  0  0
 22 25  1  0  0  0  0
M  END
$$$$

  -OEChem-03222214023D

 25 24  0     1  0  0  0  0  0999 V2000
   -2.6767   -3.9980    0.3588 H   0  0  0  0  0  0  0  0  0  0  0  0
   -2.7505   -2.9422    0.0835 C   0  0  0  0  0  0  0  0  0  0  0  0
   -3.3997   -2.4353    0.8017 H   0  0  0  0  0  0  0  0  0  0  0  0
   -3.1930   -2.8672   -0.9128 H   0  0  0  0  0  0  0  0  0  0  0  0
   -1.3754   -2.3015    0.0878 C   0  0  0  0  0  0  0  0  0  0  0  0
   -0.3888   -2.9664    0.3653 O   0  0  0  0  0  0  0  0  0  0  0  0
   -1.2385   -0.9689   -0.2376 N   0  0  0  0  0  0  0  0  0  0  0  0
   -2.0835   -0.4466   -0.4722 H   0  0  0  0  0  0  0  0  0  0  0  0
    0.0221   -0.2165   -0.2485 C   0  0  1  0  0  0  0  0  0  0  0  0
    0.7374   -0.7698    0.3685 H   0  0  0  0  0  0  0  0  0  0  0  0
    0.6087   -0.1892   -1.6751 C   0  0  0  0  0  0  0  0  0  0  0  0
    1.6543    0.1218   -1.6105 H   0  0  0  0  0  0  0  0  0  0  0  0
    0.5953   -1.2001   -2.0899 H   0  0  0  0  0  0  0  0  0  0  0  0
   -0.0816    0.7422   -2.6705 C   0  0  0  0  0  0  0  0  0  0  0  0
   -1.2710    0.9805   -2.5677 O   0  0  0  0  0  0  0  0  0  0  0  0
    0.6929    1.2721   -3.6406 O   0  0  0  0  0  0  0  0  0  0  0  0
    0.0952    1.8409   -4.1509 H   0  0  0  0  0  0  0  0  0  0  0  0
   -0.0804    1.1724    0.4213 C   0  0  0  0  0  0  0  0  0  0  0  0
   -1.0927    1.8512    0.3192 O   0  0  0  0  0  0  0  0  0  0  0  0
    0.9083    1.5878    1.2959 N   0  0  0  0  0  0  0  0  0  0  0  0
    1.6888    0.9591    1.4610 H   0  0  0  0  0  0  0  0  0  0  0  0
    0.8189    2.8157    2.0779 C   0  0  0  0  0  0  0  0  0  0  0  0
   -0.0361    2.7739    2.7609 H   0  0  0  0  0  0  0  0  0  0  0  0
    1.7288    2.9550    2.6697 H   0  0  0  0  0  0  0  0  0  0  0  0
    0.7005    3.6822    1.4187 H   0  0  0  0  0  0  0  0  0  0  0  0
  1  2  1  0  0  0  0
  2  3  1  0  0  0  0
  2  4  1  0  0  0  0
  2  5  1  0  0  0  0
  5  6  2  0  0  0  0
  5  7  1  0  0  0  0
  7  8  1  0  0  0  0
  7  9  1  0  0  0  0
  9 10  1  0  0  0  0
  9 11  1  0  0  0  0
  9 18  1  0  0  0  0
 11 12  1  0  0  0  0
 11 13  1  0  0  0  0
 11 14  1  0  0  0  0
 14 15  2  0  0  0  0
 14 16  1  0  0  0  0
 16 17  1  0  0  0  0
 18 19  2  0  0  0  0
 18 20  1  0  0  0  0
 20 21  1  0  0  0  0
 20 22  1  0  0  0  0
 22 23  1  0  0  0  0
 22 24  1  0  0  0  0
 22 25  1  0  0  0  0
M  END
$$$$

  -OEChem-03222214023D

 25 24  0     1  0  0  0  0  0999 V2000
   -2.6637   -3.9774    0.3960 H   0  0  0  0  0  0  0  0  0  0  0  0
   -2.7477   -2.9201    0.1301 C   0  0  0  0  0  0  0  0  0  0  0  0
   -3.3527   -2.4131    0.8857 H   0  0  0  0  0  0  0  0  0  0  0  0
   -3.2450   -2.8380   -0.8394 H   0  0  0  0  0  0  0  0  0  0  0  0
   -1.3711   -2.2867    0.0602 C   0  0  0  0  0  0  0  0  0  0  0  0
   -0.3733   -2.9594    0.2712 O   0  0  0  0  0  0  0  0  0  0  0  0
   -1.2465   -0.9504   -0.2549 N   0  0  0  0  0  0  0  0  0  0  0  0
   -2.1030   -0.4134   -0.3943 H   0  0  0  0  0  0  0  0  0  0  0  0
    0.0109   -0.1931   -0.2766 C   0  0  1  0  0  0  0  0  0  0  0  0
    0.7261   -0.7454    0.3418 H   0  0  0  0  0  0  0  0  0  0  0  0
    0.6077   -0.1783   -1.7001 C   0  0  0  0  0  0  0  0  0  0  0  0
    1.6517    0.1357   -1.6291 H   0  0  0  0  0  0  0  0  0  0  0  0
    0.6006   -1.1965   -2.0973 H   0  0  0  0  0  0  0  0  0  0  0  0
   -0.0621    0.7297   -2.7302 C   0  0  0  0  0  0  0  0  0  0  0  0
   -1.1671    1.1962   -2.5310 O   0  0  0  0  0  0  0  0  0  0  0  0
    0.6470    0.9789   -3.8514 O   0  0  0  0  0  0  0  0  0  0  0  0
    0.0821    1.5680   -4.3757 H   0  0  0  0  0  0  0  0  0  0  0  0
   -0.0942    1.1886    0.4094 C   0  0  0  0  0  0  0  0  0  0  0  0
   -1.1431    1.8185    0.3968 O   0  0  0  0  0  0  0  0  0  0  0  0
    0.9047    1.6004    1.2749 N   0  0  0  0  0  0  0  0  0  0  0  0
    1.7121    0.9947    1.3880 H   0  0  0  0  0  0  0  0  0  0  0  0
    0.7921    2.7834    2.1208 C   0  0  0  0  0  0  0  0  0  0  0  0
   -0.0277    2.6652    2.8373 H   0  0  0  0  0  0  0  0  0  0  0  0
    1.7201    2.9403    2.6788 H   0  0  0  0  0  0  0  0  0  0  0  0
    0.6020    3.6736    1.5116 H   0  0  0  0  0  0  0  0  0  0  0  0
  1  2  1  0  0  0  0
  2  3  1  0  0  0  0
  2  4  1  0  0  0  0
  2  5  1  0  0  0  0
  5  6  2  0  0  0  0
  5  7  1  0  0  0  0
  7  8  1  0  0  0  0
  7  9  1  0  0  0  0
  9 10  1  0  0  0  0
  9 11  1  0  0  0  0
  9 18  1  0  0  0  0
 11 12  1  0  0  0  0
 11 13  1  0  0  0  0
 11 14  1  0  0  0  0
 14 15  2  0  0  0  0
 14 16  1  0  0  0  0
 16 17  1  0  0  0  0
 18 19  2  0  0  0  0
 18 20  1  0  0  0  0
 20 21  1  0  0  0  0
 20 22  1  0  0  0  0
 22 23  1  0  0  0  0
 22 24  1  0  0  0  0
 22 25  1  0  0  0  0
M  END
$$$$

  -OEChem-03222214023D

 25 24  0     1  0  0  0  0  0999 V2000
   -2.6547   -3.9600    0.4312 H   0  0  0  0  0  0  0  0  0  0  0  0
   -2.7456   -2.9020    0.1701 C   0  0  0  0  0  0  0  0  0  0  0  0
   -3.3110   -2.3925    0.9541 H   0  0  0  0  0  0  0  0  0  0  0  0
   -3.2882   -2.8166   -0.7744 H   0  0  0  0  0  0  0  0  0  0  0  0
   -1.3705   -2.2759    0.0351 C   0  0  0  0  0  0  0  0  0  0  0  0
   -0.3677   -2.9563    0.1896 O   0  0  0  0  0  0  0  0  0  0  0  0
   -1.2534   -0.9366   -0.2712 N   0  0  0  0  0  0  0  0  0  0  0  0
   -2.1121   -0.3876   -0.3232 H   0  0  0  0  0  0  0  0  0  0  0  0
    0.0045   -0.1796   -0.2992 C   0  0  1  0  0  0  0  0  0  0  0  0
    0.7190   -0.7334    0.3188 H   0  0  0  0  0  0  0  0  0  0  0  0
    0.6063   -0.1714   -1.7218 C   0  0  0  0  0  0  0  0  0  0  0  0
    1.6512    0.1389   -1.6496 H   0  0  0  0  0  0  0  0  0  0  0  0
    0.5981   -1.1938   -2.1085 H   0  0  0  0  0  0  0  0  0  0  0  0
   -0.0476    0.7260   -2.7713 C   0  0  0  0  0  0  0  0  0  0  0  0
   -1.0126    1.4143   -2.5054 O   0  0  0  0  0  0  0  0  0  0  0  0
    0.5249    0.7114   -3.9934 O   0  0  0  0  0  0  0  0  0  0  0  0
   -0.0033    1.3294   -4.5225 H   0  0  0  0  0  0  0  0  0  0  0  0
   -0.1058    1.1943    0.4017 C   0  0  0  0  0  0  0  0  0  0  0  0
   -1.1778    1.7840    0.4493 O   0  0  0  0  0  0  0  0  0  0  0  0
    0.8969    1.6026    1.2644 N   0  0  0  0  0  0  0  0  0  0  0  0
    1.7253    1.0196    1.3371 H   0  0  0  0  0  0  0  0  0  0  0  0
    0.7717    2.7576    2.1465 C   0  0  0  0  0  0  0  0  0  0  0  0
   -0.0303    2.5979    2.8748 H   0  0  0  0  0  0  0  0  0  0  0  0
    1.7067    2.9219    2.6907 H   0  0  0  0  0  0  0  0  0  0  0  0
    0.5468    3.6598    1.5677 H   0  0  0  0  0  0  0  0  0  0  0  0
  1  2  1  0  0  0  0
  2  3  1  0  0  0  0
  2  4  1  0  0  0  0
  2  5  1  0  0  0  0
  5  6  2  0  0  0  0
  5  7  1  0  0  0  0
  7  8  1  0  0  0  0
  7  9  1  0  0  0  0
  9 10  1  0  0  0  0
  9 11  1  0  0  0  0
  9 18  1  0  0  0  0
 11 12  1  0  0  0  0
 11 13  1  0  0  0  0
 11 14  1  0  0  0  0
 14 15  2  0  0  0  0
 14 16  1  0  0  0  0
 16 17  1  0  0  0  0
 18 19  2  0  0  0  0
 18 20  1  0  0  0  0
 20 21  1  0  0  0  0
 20 22  1  0  0  0  0
 22 23  1  0  0  0  0
 22 24  1  0  0  0  0
 22 25  1  0  0  0  0
M  END
$$$$

  -OEChem-03222214023D

 25 24  0     1  0  0  0  0  0999 V2000
   -2.6549   -3.9465    0.4518 H   0  0  0  0  0  0  0  0  0  0  0  0
   -2.7471   -2.8882    0.1927 C   0  0  0  0  0  0  0  0  0  0  0  0
   -3.2883   -2.3756    0.9917 H   0  0  0  0  0  0  0  0  0  0  0  0
   -3.3152   -2.8007   -0.7366 H   0  0  0  0  0  0  0  0  0  0  0  0
   -1.3727   -2.2698    0.0191 C   0  0  0  0  0  0  0  0  0  0  0  0
   -0.3703   -2.9576    0.1394 O   0  0  0  0  0  0  0  0  0  0  0  0
   -1.2559   -0.9290   -0.2816 N   0  0  0  0  0  0  0  0  0  0  0  0
   -2.1107   -0.3716   -0.2767 H   0  0  0  0  0  0  0  0  0  0  0  0
    0.0060   -0.1781   -0.3110 C   0  0  1  0  0  0  0  0  0  0  0  0
    0.7196   -0.7348    0.3053 H   0  0  0  0  0  0  0  0  0  0  0  0
    0.6066   -0.1734   -1.7355 C   0  0  0  0  0  0  0  0  0  0  0  0
    1.6542    0.1274   -1.6664 H   0  0  0  0  0  0  0  0  0  0  0  0
    0.5891   -1.1975   -2.1186 H   0  0  0  0  0  0  0  0  0  0  0  0
   -0.0377    0.7250   -2.7901 C   0  0  0  0  0  0  0  0  0  0  0  0
   -0.8097    1.6105   -2.4827 O   0  0  0  0  0  0  0  0  0  0  0  0
    0.3251    0.4842   -4.0677 O   0  0  0  0  0  0  0  0  0  0  0  0
   -0.1669    1.1349   -4.5924 H   0  0  0  0  0  0  0  0  0  0  0  0
   -0.1105    1.1901    0.4011 C   0  0  0  0  0  0  0  0  0  0  0  0
   -1.1959    1.7536    0.4760 O   0  0  0  0  0  0  0  0  0  0  0  0
    0.8895    1.5975    1.2674 N   0  0  0  0  0  0  0  0  0  0  0  0
    1.7360    1.0385    1.3112 H   0  0  0  0  0  0  0  0  0  0  0  0
    0.7588    2.7455    2.1579 C   0  0  0  0  0  0  0  0  0  0  0  0
   -0.0422    2.5770    2.8855 H   0  0  0  0  0  0  0  0  0  0  0  0
    1.6929    2.9104    2.7032 H   0  0  0  0  0  0  0  0  0  0  0  0
    0.5295    3.6503    1.5848 H   0  0  0  0  0  0  0  0  0  0  0  0
  1  2  1  0  0  0  0
  2  3  1  0  0  0  0
  2  4  1  0  0  0  0
  2  5  1  0  0  0  0
  5  6  2  0  0  0  0
  5  7  1  0  0  0  0
  7  8  1  0  0  0  0
  7  9  1  0  0  0  0
  9 10  1  0  0  0  0
  9 11  1  0  0  0  0
  9 18  1  0  0  0  0
 11 12  1  0  0  0  0
 11 13  1  0  0  0  0
 11 14  1  0  0  0  0
 14 15  2  0  0  0  0
 14 16  1  0  0  0  0
 16 17  1  0  0  0  0
 18 19  2  0  0  0  0
 18 20  1  0  0  0  0
 20 21  1  0  0  0  0
 20 22  1  0  0  0  0
 22 23  1  0  0  0  0
 22 24  1  0  0  0  0
 22 25  1  0  0  0  0
M  END
$$$$

  -OEChem-03222214023D

 25 24  0     1  0  0  0  0  0999 V2000
   -2.6639   -3.9374    0.4576 H   0  0  0  0  0  0  0  0  0  0  0  0
   -2.7517   -2.8780    0.2012 C   0  0  0  0  0  0  0  0  0  0  0  0
   -3.2810   -2.3631    1.0068 H   0  0  0  0  0  0  0  0  0  0  0  0
   -3.3290   -2.7846   -0.7219 H   0  0  0  0  0  0  0  0  0  0  0  0
   -1.3750   -2.2692    0.0138 C   0  0  0  0  0  0  0  0  0  0  0  0
   -0.3762   -2.9639    0.1230 O   0  0  0  0  0  0  0  0  0  0  0  0
   -1.2523   -0.9290   -0.2882 N   0  0  0  0  0  0  0  0  0  0  0  0
   -2.1022   -0.3646   -0.2573 H   0  0  0  0  0  0  0  0  0  0  0  0
    0.0157   -0.1871   -0.3135 C   0  0  1  0  0  0  0  0  0  0  0  0
    0.7276   -0.7459    0.3032 H   0  0  0  0  0  0  0  0  0  0  0  0
    0.6117   -0.1849   -1.7399 C   0  0  0  0  0  0  0  0  0  0  0  0
    1.6620    0.1072   -1.6750 H   0  0  0  0  0  0  0  0  0  0  0  0
    0.5847   -1.2087   -2.1235 H   0  0  0  0  0  0  0  0  0  0  0  0
   -0.0318    0.7238   -2.7860 C   0  0  0  0  0  0  0  0  0  0  0  0
   -0.5680    1.7655   -2.4667 O   0  0  0  0  0  0  0  0  0  0  0  0
    0.0572    0.3113   -4.0683 O   0  0  0  0  0  0  0  0  0  0  0  0
   -0.3953    0.9979   -4.5825 H   0  0  0  0  0  0  0  0  0  0  0  0
   -0.1072    1.1797    0.3999 C   0  0  0  0  0  0  0  0  0  0  0  0
   -1.1984    1.7339    0.4694 O   0  0  0  0  0  0  0  0  0  0  0  0
    0.8844    1.5886    1.2749 N   0  0  0  0  0  0  0  0  0  0  0  0
    1.7431    1.0475    1.3062 H   0  0  0  0  0  0  0  0  0  0  0  0
    0.7492    2.7451    2.1534 C   0  0  0  0  0  0  0  0  0  0  0  0
   -0.0589    2.5855    2.8751 H   0  0  0  0  0  0  0  0  0  0  0  0
    1.6788    2.9122    2.7058 H   0  0  0  0  0  0  0  0  0  0  0  0
    0.5279    3.6454    1.5700 H   0  0  0  0  0  0  0  0  0  0  0  0
  1  2  1  0  0  0  0
  2  3  1  0  0  0  0
  2  4  1  0  0  0  0
  2  5  1  0  0  0  0
  5  6  2  0  0  0  0
  5  7  1  0  0  0  0
  7  8  1  0  0  0  0
  7  9  1  0  0  0  0
  9 10  1  0  0  0  0
  9 11  1  0  0  0  0
  9 18  1  0  0  0  0
 11 12  1  0  0  0  0
 11 13  1  0  0  0  0
 11 14  1  0  0  0  0
 14 15  2  0  0  0  0
 14 16  1  0  0  0  0
 16 17  1  0  0  0  0
 18 19  2  0  0  0  0
 18 20  1  0  0  0  0
 20 21  1  0  0  0  0
 20 22  1  0  0  0  0
 22 23  1  0  0  0  0
 22 24  1  0  0  0  0
 22 25  1  0  0  0  0
M  END
$$$$

  -OEChem-03222214023D

 25 24  0     1  0  0  0  0  0999 V2000
   -2.6771   -3.9313    0.4688 H   0  0  0  0  0  0  0  0  0  0  0  0
   -2.7560   -2.8735    0.2025 C   0  0  0  0  0  0  0  0  0  0  0  0
   -3.2865   -2.3479    1.0001 H   0  0  0  0  0  0  0  0  0  0  0  0
   -3.3268   -2.7850   -0.7250 H   0  0  0  0  0  0  0  0  0  0  0  0
   -1.3742   -2.2752    0.0182 C   0  0  0  0  0  0  0  0  0  0  0  0
   -0.3812   -2.9762    0.1392 O   0  0  0  0  0  0  0  0  0  0  0  0
   -1.2393   -0.9381   -0.2924 N   0  0  0  0  0  0  0  0  0  0  0  0
   -2.0835   -0.3655   -0.2588 H   0  0  0  0  0  0  0  0  0  0  0  0
    0.0365   -0.2086   -0.3109 C   0  0  1  0  0  0  0  0  0  0  0  0
    0.7467   -0.7690    0.3062 H   0  0  0  0  0  0  0  0  0  0  0  0
    0.6228   -0.2028   -1.7409 C   0  0  0  0  0  0  0  0  0  0  0  0
    1.6761    0.0799   -1.6835 H   0  0  0  0  0  0  0  0  0  0  0  0
    0.5838   -1.2223   -2.1346 H   0  0  0  0  0  0  0  0  0  0  0  0
   -0.0281    0.7269   -2.7622 C   0  0  0  0  0  0  0  0  0  0  0  0
   -0.2997    1.8729   -2.4632 O   0  0  0  0  0  0  0  0  0  0  0  0
   -0.2605    0.2149   -3.9898 O   0  0  0  0  0  0  0  0  0  0  0  0
   -0.6742    0.9376   -4.4868 H   0  0  0  0  0  0  0  0  0  0  0  0
   -0.0963    1.1607    0.3950 C   0  0  0  0  0  0  0  0  0  0  0  0
   -1.1877    1.7185    0.4311 O   0  0  0  0  0  0  0  0  0  0  0  0
    0.8796    1.5776    1.2832 N   0  0  0  0  0  0  0  0  0  0  0  0
    1.7449    1.0476    1.3219 H   0  0  0  0  0  0  0  0  0  0  0  0
    0.7360    2.7540    2.1331 C   0  0  0  0  0  0  0  0  0  0  0  0
   -0.1003    2.6245    2.8283 H   0  0  0  0  0  0  0  0  0  0  0  0
    1.6482    2.9148    2.7158 H   0  0  0  0  0  0  0  0  0  0  0  0
    0.5531    3.6459    1.5242 H   0  0  0  0  0  0  0  0  0  0  0  0
  1  2  1  0  0  0  0
  2  3  1  0  0  0  0
  2  4  1  0  0  0  0
  2  5  1  0  0  0  0
  5  6  2  0  0  0  0
  5  7  1  0  0  0  0
  7  8  1  0  0  0  0
  7  9  1  0  0  0  0
  9 10  1  0  0  0  0
  9 11  1  0  0  0  0
  9 18  1  0  0  0  0
 11 12  1  0  0  0  0
 11 13  1  0  0  0  0
 11 14  1  0  0  0  0
 14 15  2  0  0  0  0
 14 16  1  0  0  0  0
 16 17  1  0  0  0  0
 18 19  2  0  0  0  0
 18 20  1  0  0  0  0
 20 21  1  0  0  0  0
 20 22  1  0  0  0  0
 22 23  1  0  0  0  0
 22 24  1  0  0  0  0
 22 25  1  0  0  0  0
M  END
$$$$

  -OEChem-03222214023D

 25 24  0     1  0  0  0  0  0999 V2000
   -2.6933   -3.9337    0.4665 H   0  0  0  0  0  0  0  0  0  0  0  0
   -2.7603   -2.8769    0.1940 C   0  0  0  0  0  0  0  0  0  0  0  0
   -3.3016   -2.3440    0.9793 H   0  0  0  0  0  0  0  0  0  0  0  0
   -3.3139   -2.7892   -0.7439 H   0  0  0  0  0  0  0  0  0  0  0  0
   -1.3711   -2.2893    0.0316 C   0  0  0  0  0  0  0  0  0  0  0  0
   -0.3850   -2.9939    0.1836 O   0  0  0  0  0  0  0  0  0  0  0  0
   -1.2220   -0.9569   -0.2930 N   0  0  0  0  0  0  0  0  0  0  0  0
   -2.0637   -0.3800   -0.2860 H   0  0  0  0  0  0  0  0  0  0  0  0
    0.0598   -0.2376   -0.3026 C   0  0  1  0  0  0  0  0  0  0  0  0
    0.7693   -0.7967    0.3163 H   0  0  0  0  0  0  0  0  0  0  0  0
    0.6361   -0.2233   -1.7347 C   0  0  0  0  0  0  0  0  0  0  0  0
    1.6917    0.0531   -1.6858 H   0  0  0  0  0  0  0  0  0  0  0  0
    0.5859   -1.2355   -2.1456 H   0  0  0  0  0  0  0  0  0  0  0  0
   -0.0309    0.7321   -2.7189 C   0  0  0  0  0  0  0  0  0  0  0  0
   -0.0352    1.9250   -2.4822 O   0  0  0  0  0  0  0  0  0  0  0  0
   -0.5906    0.1982   -3.8258 O   0  0  0  0  0  0  0  0  0  0  0  0
   -0.9660    0.9539   -4.3036 H   0  0  0  0  0  0  0  0  0  0  0  0
   -0.0834    1.1382    0.3871 C   0  0  0  0  0  0  0  0  0  0  0  0
   -1.1672    1.7118    0.3671 O   0  0  0  0  0  0  0  0  0  0  0  0
    0.8745    1.5671    1.2885 N   0  0  0  0  0  0  0  0  0  0  0  0
    1.7384    1.0373    1.3518 H   0  0  0  0  0  0  0  0  0  0  0  0
    0.7259    2.7717    2.0970 C   0  0  0  0  0  0  0  0  0  0  0  0
   -0.1353    2.6795    2.7673 H   0  0  0  0  0  0  0  0  0  0  0  0
    1.6212    2.9332    2.7051 H   0  0  0  0  0  0  0  0  0  0  0  0
    0.5810    3.6476    1.4555 H   0  0  0  0  0  0  0  0  0  0  0  0
  1  2  1  0  0  0  0
  2  3  1  0  0  0  0
  2  4  1  0  0  0  0
  2  5  1  0  0  0  0
  5  6  2  0  0  0  0
  5  7  1  0  0  0  0
  7  8  1  0  0  0  0
  7  9  1  0  0  0  0
  9 10  1  0  0  0  0
  9 11  1  0  0  0  0
  9 18  1  0  0  0  0
 11 12  1  0  0  0  0
 11 13  1  0  0  0  0
 11 14  1  0  0  0  0
 14 15  2  0  0  0  0
 14 16  1  0  0  0  0
 16 17  1  0  0  0  0
 18 19  2  0  0  0  0
 18 20  1  0  0  0  0
 20 21  1  0  0  0  0
 20 22  1  0  0  0  0
 22 23  1  0  0  0  0
 22 24  1  0  0  0  0
 22 25  1  0  0  0  0
M  END
$$$$

  -OEChem-03222214023D

 25 24  0     1  0  0  0  0  0999 V2000
   -2.7053   -3.9408    0.4765 H   0  0  0  0  0  0  0  0  0  0  0  0
   -2.7610   -2.8890    0.1823 C   0  0  0  0  0  0  0  0  0  0  0  0
   -3.3197   -2.3393    0.9436 H   0  0  0  0  0  0  0  0  0  0  0  0
   -3.2893   -2.8168   -0.7714 H   0  0  0  0  0  0  0  0  0  0  0  0
   -1.3660   -2.3093    0.0453 C   0  0  0  0  0  0  0  0  0  0  0  0
   -0.3868   -3.0143    0.2343 O   0  0  0  0  0  0  0  0  0  0  0  0
   -1.2045   -0.9821   -0.2927 N   0  0  0  0  0  0  0  0  0  0  0  0
   -2.0449   -0.4054   -0.3341 H   0  0  0  0  0  0  0  0  0  0  0  0
    0.0806   -0.2694   -0.2931 C   0  0  1  0  0  0  0  0  0  0  0  0
    0.7907   -0.8276    0.3262 H   0  0  0  0  0  0  0  0  0  0  0  0
    0.6476   -0.2375   -1.7262 C   0  0  0  0  0  0  0  0  0  0  0  0
    1.7053    0.0338   -1.6846 H   0  0  0  0  0  0  0  0  0  0  0  0
    0.5853   -1.2385   -2.1616 H   0  0  0  0  0  0  0  0  0  0  0  0
   -0.0420    0.7463   -2.6626 C   0  0  0  0  0  0  0  0  0  0  0  0
    0.1959    1.9334   -2.5359 O   0  0  0  0  0  0  0  0  0  0  0  0
   -0.8980    0.2557   -3.5847 O   0  0  0  0  0  0  0  0  0  0  0  0
   -1.2422    1.0377   -4.0432 H   0  0  0  0  0  0  0  0  0  0  0  0
   -0.0725    1.1132    0.3790 C   0  0  0  0  0  0  0  0  0  0  0  0
   -1.1417    1.7080    0.2949 O   0  0  0  0  0  0  0  0  0  0  0  0
    0.8679    1.5553    1.2915 N   0  0  0  0  0  0  0  0  0  0  0  0
    1.7246    1.0187    1.3890 H   0  0  0  0  0  0  0  0  0  0  0  0
    0.7203    2.7914    2.0507 C   0  0  0  0  0  0  0  0  0  0  0  0
   -0.1719    2.7479    2.6842 H   0  0  0  0  0  0  0  0  0  0  0  0
    1.5921    2.9486    2.6928 H   0  0  0  0  0  0  0  0  0  0  0  0
    0.6302    3.6474    1.3735 H   0  0  0  0  0  0  0  0  0  0  0  0
  1  2  1  0  0  0  0
  2  3  1  0  0  0  0
  2  4  1  0  0  0  0
  2  5  1  0  0  0  0
  5  6  2  0  0  0  0
  5  7  1  0  0  0  0
  7  8  1  0  0  0  0
  7  9  1  0  0  0  0
  9 10  1  0  0  0  0
  9 11  1  0  0  0  0
  9 18  1  0  0  0  0
 11 12  1  0  0  0  0
 11 13  1  0  0  0  0
 11 14  1  0  0  0  0
 14 15  2  0  0  0  0
 14 16  1  0  0  0  0
 16 17  1  0  0  0  0
 18 19  2  0  0  0  0
 18 20  1  0  0  0  0
 20 21  1  0  0  0  0
 20 22  1  0  0  0  0
 22 23  1  0  0  0  0
 22 24  1  0  0  0  0
 22 25  1  0  0  0  0
M  END
$$$$

  -OEChem-03222214023D

 25 24  0     1  0  0  0  0  0999 V2000
   -2.7105   -3.9678    0.4438 H   0  0  0  0  0  0  0  0  0  0  0  0
   -2.7608   -2.9163    0.1476 C   0  0  0  0  0  0  0  0  0  0  0  0
   -3.3569   -2.3707    0.8832 H   0  0  0  0  0  0  0  0  0  0  0  0
   -3.2470   -2.8478   -0.8286 H   0  0  0  0  0  0  0  0  0  0  0  0
   -1.3652   -2.3267    0.0722 C   0  0  0  0  0  0  0  0  0  0  0  0
   -0.3909   -3.0222    0.3148 O   0  0  0  0  0  0  0  0  0  0  0  0
   -1.1972   -1.0030   -0.2762 N   0  0  0  0  0  0  0  0  0  0  0  0
   -2.0380   -0.4371   -0.3902 H   0  0  0  0  0  0  0  0  0  0  0  0
    0.0873   -0.2893   -0.2741 C   0  0  1  0  0  0  0  0  0  0  0  0
    0.8020   -0.8456    0.3413 H   0  0  0  0  0  0  0  0  0  0  0  0
    0.6429   -0.2414   -1.7094 C   0  0  0  0  0  0  0  0  0  0  0  0
    1.7013    0.0298   -1.6761 H   0  0  0  0  0  0  0  0  0  0  0  0
    0.5741   -1.2337   -2.1629 H   0  0  0  0  0  0  0  0  0  0  0  0
   -0.0717    0.7598   -2.6071 C   0  0  0  0  0  0  0  0  0  0  0  0
    0.3589    1.8982   -2.6502 O   0  0  0  0  0  0  0  0  0  0  0  0
   -1.1559    0.3470   -3.2992 O   0  0  0  0  0  0  0  0  0  0  0  0
   -1.4717    1.1408   -3.7581 H   0  0  0  0  0  0  0  0  0  0  0  0
   -0.0642    1.1002    0.3828 C   0  0  0  0  0  0  0  0  0  0  0  0
   -1.1095    1.7244    0.2388 O   0  0  0  0  0  0  0  0  0  0  0  0
    0.8702    1.5522    1.2964 N   0  0  0  0  0  0  0  0  0  0  0  0
    1.7103    0.9976    1.4314 H   0  0  0  0  0  0  0  0  0  0  0  0
    0.7389    2.8172    2.0097 C   0  0  0  0  0  0  0  0  0  0  0  0
   -0.1683    2.8198    2.6233 H   0  0  0  0  0  0  0  0  0  0  0  0
    1.6000    2.9726    2.6667 H   0  0  0  0  0  0  0  0  0  0  0  0
    0.6884    3.6517    1.3022 H   0  0  0  0  0  0  0  0  0  0  0  0
  1  2  1  0  0  0  0
  2  3  1  0  0  0  0
  2  4  1  0  0  0  0
  2  5  1  0  0  0  0
  5  6  2  0  0  0  0
  5  7  1  0  0  0  0
  7  8  1  0  0  0  0
  7  9  1  0  0  0  0
  9 10  1  0  0  0  0
  9 11  1  0  0  0  0
  9 18  1  0  0  0  0
 11 12  1  0  0  0  0
 11 13  1  0  0  0  0
 11 14  1  0  0  0  0
 14 15  2  0  0  0  0
 14 16  1  0  0  0  0
 16 17  1  0  0  0  0
 18 19  2  0  0  0  0
 18 20  1  0  0  0  0
 20 21  1  0  0  0  0
 20 22  1  0  0  0  0
 22 23  1  0  0  0  0
 22 24  1  0  0  0  0
 22 25  1  0  0  0  0
M  END
$$$$

  -OEChem-03222214023D

 25 24  0     1  0  0  0  0  0999 V2000
   -2.7047   -3.9947    0.4094 H   0  0  0  0  0  0  0  0  0  0  0  0
   -2.7567   -2.9433    0.1138 C   0  0  0  0  0  0  0  0  0  0  0  0
   -3.3896   -2.4078    0.8255 H   0  0  0  0  0  0  0  0  0  0  0  0
   -3.2032   -2.8780   -0.8813 H   0  0  0  0  0  0  0  0  0  0  0  0
   -1.3671   -2.3355    0.0981 C   0  0  0  0  0  0  0  0  0  0  0  0
   -0.3959   -3.0168    0.3880 O   0  0  0  0  0  0  0  0  0  0  0  0
   -1.2003   -1.0126   -0.2532 N   0  0  0  0  0  0  0  0  0  0  0  0
   -2.0381   -0.4682   -0.4570 H   0  0  0  0  0  0  0  0  0  0  0  0
    0.0805   -0.2928   -0.2536 C   0  0  1  0  0  0  0  0  0  0  0  0
    0.8012   -0.8481    0.3560 H   0  0  0  0  0  0  0  0  0  0  0  0
    0.6257   -0.2345   -1.6922 C   0  0  0  0  0  0  0  0  0  0  0  0
    1.6834    0.0409   -1.6643 H   0  0  0  0  0  0  0  0  0  0  0  0
    0.5555   -1.2230   -2.1534 H   0  0  0  0  0  0  0  0  0  0  0  0
   -0.1080    0.7713   -2.5708 C   0  0  0  0  0  0  0  0  0  0  0  0
    0.4560    1.8193   -2.8292 O   0  0  0  0  0  0  0  0  0  0  0  0
   -1.3427    0.4586   -3.0231 O   0  0  0  0  0  0  0  0  0  0  0  0
   -1.6341    1.2480   -3.5053 H   0  0  0  0  0  0  0  0  0  0  0  0
   -0.0620    1.1006    0.3969 C   0  0  0  0  0  0  0  0  0  0  0  0
   -1.0790    1.7582    0.2091 O   0  0  0  0  0  0  0  0  0  0  0  0
    0.8778    1.5533    1.3045 N   0  0  0  0  0  0  0  0  0  0  0  0
    1.6901    0.9691    1.4798 H   0  0  0  0  0  0  0  0  0  0  0  0
    0.7710    2.8360    1.9896 C   0  0  0  0  0  0  0  0  0  0  0  0
   -0.1364    2.8700    2.6018 H   0  0  0  0  0  0  0  0  0  0  0  0
    1.6349    2.9895    2.6435 H   0  0  0  0  0  0  0  0  0  0  0  0
    0.7368    3.6553    1.2634 H   0  0  0  0  0  0  0  0  0  0  0  0
  1  2  1  0  0  0  0
  2  3  1  0  0  0  0
  2  4  1  0  0  0  0
  2  5  1  0  0  0  0
  5  6  2  0  0  0  0
  5  7  1  0  0  0  0
  7  8  1  0  0  0  0
  7  9  1  0  0  0  0
  9 10  1  0  0  0  0
  9 11  1  0  0  0  0
  9 18  1  0  0  0  0
 11 12  1  0  0  0  0
 11 13  1  0  0  0  0
 11 14  1  0  0  0  0
 14 15  2  0  0  0  0
 14 16  1  0  0  0  0
 16 17  1  0  0  0  0
 18 19  2  0  0  0  0
 18 20  1  0  0  0  0
 20 21  1  0  0  0  0
 20 22  1  0  0  0  0
 22 23  1  0  0  0  0
 22 24  1  0  0  0  0
 22 25  1  0  0  0  0
M  END
$$$$

  -OEChem-03222214023D

 25 24  0     1  0  0  0  0  0999 V2000
   -2.6944   -4.0152    0.3813 H   0  0  0  0  0  0  0  0  0  0  0  0
   -2.7513   -2.9625    0.0906 C   0  0  0  0  0  0  0  0  0  0  0  0
   -3.4120   -2.4398    0.7864 H   0  0  0  0  0  0  0  0  0  0  0  0
   -3.1694   -2.8973   -0.9169 H   0  0  0  0  0  0  0  0  0  0  0  0
   -1.3701   -2.3360    0.1190 C   0  0  0  0  0  0  0  0  0  0  0  0
   -0.3989   -3.0060    0.4343 O   0  0  0  0  0  0  0  0  0  0  0  0
   -1.2099   -1.0114   -0.2288 N   0  0  0  0  0  0  0  0  0  0  0  0
   -2.0439   -0.4862   -0.4910 H   0  0  0  0  0  0  0  0  0  0  0  0
    0.0656   -0.2829   -0.2356 C   0  0  1  0  0  0  0  0  0  0  0  0
    0.7918   -0.8383    0.3669 H   0  0  0  0  0  0  0  0  0  0  0  0
    0.6035   -0.2188   -1.6771 C   0  0  0  0  0  0  0  0  0  0  0  0
    1.6597    0.0628   -1.6514 H   0  0  0  0  0  0  0  0  0  0  0  0
    0.5370   -1.2076   -2.1378 H   0  0  0  0  0  0  0  0  0  0  0  0
   -0.1400    0.7818   -2.5561 C   0  0  0  0  0  0  0  0  0  0  0  0
    0.5018    1.6945   -3.0444 O   0  0  0  0  0  0  0  0  0  0  0  0
   -1.4575    0.5875   -2.7934 O   0  0  0  0  0  0  0  0  0  0  0  0
   -1.7271    1.3520   -3.3256 H   0  0  0  0  0  0  0  0  0  0  0  0
   -0.0639    1.1110    0.4164 C   0  0  0  0  0  0  0  0  0  0  0  0
   -1.0593    1.7952    0.2120 O   0  0  0  0  0  0  0  0  0  0  0  0
    0.8895    1.5567    1.3132 N   0  0  0  0  0  0  0  0  0  0  0  0
    1.6817    0.9506    1.5057 H   0  0  0  0  0  0  0  0  0  0  0  0
    0.8049    2.8439    1.9931 C   0  0  0  0  0  0  0  0  0  0  0  0
   -0.1009    2.8945    2.6065 H   0  0  0  0  0  0  0  0  0  0  0  0
    1.6722    2.9861    2.6450 H   0  0  0  0  0  0  0  0  0  0  0  0
    0.7832    3.6610    1.2642 H   0  0  0  0  0  0  0  0  0  0  0  0
  1  2  1  0  0  0  0
  2  3  1  0  0  0  0
  2  4  1  0  0  0  0
  2  5  1  0  0  0  0
  5  6  2  0  0  0  0
  5  7  1  0  0  0  0
  7  8  1  0  0  0  0
  7  9  1  0  0  0  0
  9 10  1  0  0  0  0
  9 11  1  0  0  0  0
  9 18  1  0  0  0  0
 11 12  1  0  0  0  0
 11 13  1  0  0  0  0
 11 14  1  0  0  0  0
 14 15  2  0  0  0  0
 14 16  1  0  0  0  0
 16 17  1  0  0  0  0
 18 19  2  0  0  0  0
 18 20  1  0  0  0  0
 20 21  1  0  0  0  0
 20 22  1  0  0  0  0
 22 23  1  0  0  0  0
 22 24  1  0  0  0  0
 22 25  1  0  0  0  0
M  END
$$$$

  -OEChem-03222214023D

 25 24  0     1  0  0  0  0  0999 V2000
   -2.6811   -4.0223    0.3691 H   0  0  0  0  0  0  0  0  0  0  0  0
   -2.7462   -2.9684    0.0848 C   0  0  0  0  0  0  0  0  0  0  0  0
   -3.4159   -2.4563    0.7801 H   0  0  0  0  0  0  0  0  0  0  0  0
   -3.1587   -2.9004   -0.9249 H   0  0  0  0  0  0  0  0  0  0  0  0
   -1.3712   -2.3292    0.1254 C   0  0  0  0  0  0  0  0  0  0  0  0
   -0.3953   -2.9923    0.4411 O   0  0  0  0  0  0  0  0  0  0  0  0
   -1.2219   -1.0010   -0.2134 N   0  0  0  0  0  0  0  0  0  0  0  0
   -2.0569   -0.4846   -0.4909 H   0  0  0  0  0  0  0  0  0  0  0  0
    0.0479   -0.2634   -0.2260 C   0  0  1  0  0  0  0  0  0  0  0  0
    0.7776   -0.8200    0.3711 H   0  0  0  0  0  0  0  0  0  0  0  0
    0.5860   -0.1984   -1.6683 C   0  0  0  0  0  0  0  0  0  0  0  0
    1.6402    0.0910   -1.6398 H   0  0  0  0  0  0  0  0  0  0  0  0
    0.5274   -1.1903   -2.1232 H   0  0  0  0  0  0  0  0  0  0  0  0
   -0.1566    0.7899   -2.5639 C   0  0  0  0  0  0  0  0  0  0  0  0
    0.5143    1.5219   -3.2689 O   0  0  0  0  0  0  0  0  0  0  0  0
   -1.5074    0.7352   -2.6244 O   0  0  0  0  0  0  0  0  0  0  0  0
   -1.7596    1.4558   -3.2220 H   0  0  0  0  0  0  0  0  0  0  0  0
   -0.0673    1.1281    0.4345 C   0  0  0  0  0  0  0  0  0  0  0  0
   -1.0533    1.8283    0.2425 O   0  0  0  0  0  0  0  0  0  0  0  0
    0.9029    1.5615    1.3197 N   0  0  0  0  0  0  0  0  0  0  0  0
    1.6829    0.9394    1.5121 H   0  0  0  0  0  0  0  0  0  0  0  0
    0.8317    2.8388    2.0197 C   0  0  0  0  0  0  0  0  0  0  0  0
   -0.0676    2.8844    2.6429 H   0  0  0  0  0  0  0  0  0  0  0  0
    1.7063    2.9671    2.6647 H   0  0  0  0  0  0  0  0  0  0  0  0
    0.8066    3.6666    1.3031 H   0  0  0  0  0  0  0  0  0  0  0  0
  1  2  1  0  0  0  0
  2  3  1  0  0  0  0
  2  4  1  0  0  0  0
  2  5  1  0  0  0  0
  5  6  2  0  0  0  0
  5  7  1  0  0  0  0
  7  8  1  0  0  0  0
  7  9  1  0  0  0  0
  9 10  1  0  0  0  0
  9 11  1  0  0  0  0
  9 18  1  0  0  0  0
 11 12  1  0  0  0  0
 11 13  1  0  0  0  0
 11 14  1  0  0  0  0
 14 15  2  0  0  0  0
 14 16  1  0  0  0  0
 16 17  1  0  0  0  0
 18 19  2  0  0  0  0
 18 20  1  0  0  0  0
 20 21  1  0  0  0  0
 20 22  1  0  0  0  0
 22 23  1  0  0  0  0
 22 24  1  0  0  0  0
 22 25  1  0  0  0  0
M  END
$$$$

  -OEChem-03222214023D

 25 24  0     1  0  0  0  0  0999 V2000
   -2.6694   -4.0166    0.3640 H   0  0  0  0  0  0  0  0  0  0  0  0
   -2.7442   -2.9606    0.0902 C   0  0  0  0  0  0  0  0  0  0  0  0
   -3.4066   -2.4585    0.7994 H   0  0  0  0  0  0  0  0  0  0  0  0
   -3.1720   -2.8857   -0.9124 H   0  0  0  0  0  0  0  0  0  0  0  0
   -1.3717   -2.3152    0.1172 C   0  0  0  0  0  0  0  0  0  0  0  0
   -0.3880   -2.9773    0.4099 O   0  0  0  0  0  0  0  0  0  0  0  0
   -1.2335   -0.9823   -0.2077 N   0  0  0  0  0  0  0  0  0  0  0  0
   -2.0760   -0.4639   -0.4579 H   0  0  0  0  0  0  0  0  0  0  0  0
    0.0305   -0.2353   -0.2253 C   0  0  1  0  0  0  0  0  0  0  0  0
    0.7599   -0.7940    0.3704 H   0  0  0  0  0  0  0  0  0  0  0  0
    0.5781   -0.1777   -1.6649 C   0  0  0  0  0  0  0  0  0  0  0  0
    1.6292    0.1211   -1.6280 H   0  0  0  0  0  0  0  0  0  0  0  0
    0.5332   -1.1765   -2.1063 H   0  0  0  0  0  0  0  0  0  0  0  0
   -0.1521    0.7894   -2.5943 C   0  0  0  0  0  0  0  0  0  0  0  0
    0.5044    1.2989   -3.4843 O   0  0  0  0  0  0  0  0  0  0  0  0
   -1.4972    0.9060   -2.5098 O   0  0  0  0  0  0  0  0  0  0  0  0
   -1.7390    1.5561   -3.1866 H   0  0  0  0  0  0  0  0  0  0  0  0
   -0.0709    1.1512    0.4489 C   0  0  0  0  0  0  0  0  0  0  0  0
   -1.0643    1.8508    0.3014 O   0  0  0  0  0  0  0  0  0  0  0  0
    0.9168    1.5700    1.3222 N   0  0  0  0  0  0  0  0  0  0  0  0
    1.6964    0.9414    1.4932 H   0  0  0  0  0  0  0  0  0  0  0  0
    0.8493    2.8235    2.0646 C   0  0  0  0  0  0  0  0  0  0  0  0
   -0.0246    2.8315    2.7246 H   0  0  0  0  0  0  0  0  0  0  0  0
    1.7471    2.9492    2.6776 H   0  0  0  0  0  0  0  0  0  0  0  0
    0.7790    3.6731    1.3771 H   0  0  0  0  0  0  0  0  0  0  0  0
  1  2  1  0  0  0  0
  2  3  1  0  0  0  0
  2  4  1  0  0  0  0
  2  5  1  0  0  0  0
  5  6  2  0  0  0  0
  5  7  1  0  0  0  0
  7  8  1  0  0  0  0
  7  9  1  0  0  0  0
  9 10  1  0  0  0  0
  9 11  1  0  0  0  0
  9 18  1  0  0  0  0
 11 12  1  0  0  0  0
 11 13  1  0  0  0  0
 11 14  1  0  0  0  0
 14 15  2  0  0  0  0
 14 16  1  0  0  0  0
 16 17  1  0  0  0  0
 18 19  2  0  0  0  0
 18 20  1  0  0  0  0
 20 21  1  0  0  0  0
 20 22  1  0  0  0  0
 22 23  1  0  0  0  0
 22 24  1  0  0  0  0
 22 25  1  0  0  0  0
M  END
$$$$

  -OEChem-03222214023D

 25 24  0     1  0  0  0  0  0999 V2000
   -2.6609   -3.9974    0.3917 H   0  0  0  0  0  0  0  0  0  0  0  0
   -2.7441   -2.9404    0.1243 C   0  0  0  0  0  0  0  0  0  0  0  0
   -3.3706   -2.4372    0.8648 H   0  0  0  0  0  0  0  0  0  0  0  0
   -3.2172   -2.8606   -0.8575 H   0  0  0  0  0  0  0  0  0  0  0  0
   -1.3695   -2.3000    0.0891 C   0  0  0  0  0  0  0  0  0  0  0  0
   -0.3740   -2.9692    0.3194 O   0  0  0  0  0  0  0  0  0  0  0  0
   -1.2446   -0.9619   -0.2197 N   0  0  0  0  0  0  0  0  0  0  0  0
   -2.0999   -0.4308   -0.3848 H   0  0  0  0  0  0  0  0  0  0  0  0
    0.0141   -0.2060   -0.2434 C   0  0  1  0  0  0  0  0  0  0  0  0
    0.7385   -0.7660    0.3572 H   0  0  0  0  0  0  0  0  0  0  0  0
    0.5856   -0.1603   -1.6747 C   0  0  0  0  0  0  0  0  0  0  0  0
    1.6325    0.1492   -1.6197 H   0  0  0  0  0  0  0  0  0  0  0  0
    0.5602   -1.1679   -2.0977 H   0  0  0  0  0  0  0  0  0  0  0  0
   -0.1191    0.7801   -2.6504 C   0  0  0  0  0  0  0  0  0  0  0  0
    0.4809    1.0411   -3.6771 O   0  0  0  0  0  0  0  0  0  0  0  0
   -1.4072    1.1302   -2.4438 O   0  0  0  0  0  0  0  0  0  0  0  0
   -1.6449    1.6974   -3.1923 H   0  0  0  0  0  0  0  0  0  0  0  0
   -0.0799    1.1729    0.4489 C   0  0  0  0  0  0  0  0  0  0  0  0
   -1.1035    1.8410    0.3887 O   0  0  0  0  0  0  0  0  0  0  0  0
    0.9236    1.5789    1.3106 N   0  0  0  0  0  0  0  0  0  0  0  0
    1.7226    0.9632    1.4314 H   0  0  0  0  0  0  0  0  0  0  0  0
    0.8431    2.7907    2.1184 C   0  0  0  0  0  0  0  0  0  0  0  0
   -0.0021    2.7329    2.8123 H   0  0  0  0  0  0  0  0  0  0  0  0
    1.7608    2.9196    2.7004 H   0  0  0  0  0  0  0  0  0  0  0  0
    0.7138    3.6703    1.4789 H   0  0  0  0  0  0  0  0  0  0  0  0
  1  2  1  0  0  0  0
  2  3  1  0  0  0  0
  2  4  1  0  0  0  0
  2  5  1  0  0  0  0
  5  6  2  0  0  0  0
  5  7  1  0  0  0  0
  7  8  1  0  0  0  0
  7  9  1  0  0  0  0
  9 10  1  0  0  0  0
  9 11  1  0  0  0  0
  9 18  1  0  0  0  0
 11 12  1  0  0  0  0
 11 13  1  0  0  0  0
 11 14  1  0  0  0  0
 14 15  2  0  0  0  0
 14 16  1  0  0  0  0
 16 17  1  0  0  0  0
 18 19  2  0  0  0  0
 18 20  1  0  0  0  0
 20 21  1  0  0  0  0
 20 22  1  0  0  0  0
 22 23  1  0  0  0  0
 22 24  1  0  0  0  0
 22 25  1  0  0  0  0
M  END
$$$$

  -OEChem-03222214023D

 25 24  0     1  0  0  0  0  0999 V2000
   -2.6536   -3.9870    0.3197 H   0  0  0  0  0  0  0  0  0  0  0  0
   -2.7435   -2.9261    0.0697 C   0  0  0  0  0  0  0  0  0  0  0  0
   -3.3567   -2.4361    0.8299 H   0  0  0  0  0  0  0  0  0  0  0  0
   -3.2360   -2.8343   -0.9015 H   0  0  0  0  0  0  0  0  0  0  0  0
   -1.3705   -2.2835    0.0173 C   0  0  0  0  0  0  0  0  0  0  0  0
   -0.3718   -2.9516    0.2314 O   0  0  0  0  0  0  0  0  0  0  0  0
   -1.2485   -0.9383   -0.2716 N   0  0  0  0  0  0  0  0  0  0  0  0
   -2.1122   -0.4063   -0.3714 H   0  0  0  0  0  0  0  0  0  0  0  0
    0.0199   -0.1919   -0.2681 C   0  0  1  0  0  0  0  0  0  0  0  0
    0.7360   -0.7633    0.3330 H   0  0  0  0  0  0  0  0  0  0  0  0
    0.5916   -0.1579   -1.7050 C   0  0  0  0  0  0  0  0  0  0  0  0
    1.6807   -0.1194   -1.6168 H   0  0  0  0  0  0  0  0  0  0  0  0
    0.3477   -1.1020   -2.2015 H   0  0  0  0  0  0  0  0  0  0  0  0
    0.2128    0.9799   -2.6644 C   0  0  0  0  0  0  0  0  0  0  0  0
    0.7384    0.8757   -3.7591 O   0  0  0  0  0  0  0  0  0  0  0  0
   -0.6708    1.9674   -2.3463 O   0  0  0  0  0  0  0  0  0  0  0  0
   -0.9359    1.9224   -1.3990 H   0  0  0  0  0  0  0  0  0  0  0  0
   -0.0872    1.1661    0.4449 C   0  0  0  0  0  0  0  0  0  0  0  0
   -1.0690    1.8637    0.2227 O   0  0  0  0  0  0  0  0  0  0  0  0
    0.8756    1.5932    1.3375 N   0  0  0  0  0  0  0  0  0  0  0  0
    1.6588    0.9736    1.5300 H   0  0  0  0  0  0  0  0  0  0  0  0
    0.8041    2.8716    2.0361 C   0  0  0  0  0  0  0  0  0  0  0  0
   -0.0869    2.9128    2.6716 H   0  0  0  0  0  0  0  0  0  0  0  0
    1.6865    3.0070    2.6691 H   0  0  0  0  0  0  0  0  0  0  0  0
    0.7642    3.6989    1.3194 H   0  0  0  0  0  0  0  0  0  0  0  0
  1  2  1  0  0  0  0
  2  3  1  0  0  0  0
  2  4  1  0  0  0  0
  2  5  1  0  0  0  0
  5  6  2  0  0  0  0
  5  7  1  0  0  0  0
  7  8  1  0  0  0  0
  7  9  1  0  0  0  0
  9 10  1  0  0  0  0
  9 11  1  0  0  0  0
  9 18  1  0  0  0  0
 11 12  1  0  0  0  0
 11 13  1  0  0  0  0
 11 14  1  0  0  0  0
 14 15  2  0  0  0  0
 14 16  1  0  0  0  0
 16 17  1  0  0  0  0
 18 19  2  0  0  0  0
 18 20  1  0  0  0  0
 20 21  1  0  0  0  0
 20 22  1  0  0  0  0
 22 23  1  0  0  0  0
 22 24  1  0  0  0  0
 22 25  1  0  0  0  0
M  END
$$$$

  -OEChem-03222214023D

 25 24  0     1  0  0  0  0  0999 V2000
   -2.6277   -3.9600    0.4476 H   0  0  0  0  0  0  0  0  0  0  0  0
   -2.7290   -2.8986    0.2049 C   0  0  0  0  0  0  0  0  0  0  0  0
   -3.2542   -2.3989    1.0226 H   0  0  0  0  0  0  0  0  0  0  0  0
   -3.3176   -2.8007   -0.7104 H   0  0  0  0  0  0  0  0  0  0  0  0
   -1.3603   -2.2742    0.0100 C   0  0  0  0  0  0  0  0  0  0  0  0
   -0.3551   -2.9630    0.0928 O   0  0  0  0  0  0  0  0  0  0  0  0
   -1.2516   -0.9259   -0.2613 N   0  0  0  0  0  0  0  0  0  0  0  0
   -2.1047   -0.3697   -0.2003 H   0  0  0  0  0  0  0  0  0  0  0  0
    0.0123   -0.1755   -0.2870 C   0  0  1  0  0  0  0  0  0  0  0  0
    0.7297   -0.7440    0.3144 H   0  0  0  0  0  0  0  0  0  0  0  0
    0.5961   -0.1624   -1.7231 C   0  0  0  0  0  0  0  0  0  0  0  0
    1.6835   -0.1116   -1.6331 H   0  0  0  0  0  0  0  0  0  0  0  0
    0.3587   -1.1154   -2.2049 H   0  0  0  0  0  0  0  0  0  0  0  0
    0.2058    0.9630   -2.6832 C   0  0  0  0  0  0  0  0  0  0  0  0
    0.4604    0.7663   -3.8574 O   0  0  0  0  0  0  0  0  0  0  0  0
   -0.2934    2.1300   -2.2337 O   0  0  0  0  0  0  0  0  0  0  0  0
   -0.4416    2.6729   -3.0225 H   0  0  0  0  0  0  0  0  0  0  0  0
   -0.1166    1.1705    0.4630 C   0  0  0  0  0  0  0  0  0  0  0  0
   -1.2111    1.7195    0.5377 O   0  0  0  0  0  0  0  0  0  0  0  0
    0.8775    1.5725    1.3378 N   0  0  0  0  0  0  0  0  0  0  0  0
    1.7414    1.0386    1.3531 H   0  0  0  0  0  0  0  0  0  0  0  0
    0.7408    2.7155    2.2333 C   0  0  0  0  0  0  0  0  0  0  0  0
   -0.0742    2.5493    2.9456 H   0  0  0  0  0  0  0  0  0  0  0  0
    1.6665    2.8688    2.7961 H   0  0  0  0  0  0  0  0  0  0  0  0
    0.5289    3.6259    1.6626 H   0  0  0  0  0  0  0  0  0  0  0  0
  1  2  1  0  0  0  0
  2  3  1  0  0  0  0
  2  4  1  0  0  0  0
  2  5  1  0  0  0  0
  5  6  2  0  0  0  0
  5  7  1  0  0  0  0
  7  8  1  0  0  0  0
  7  9  1  0  0  0  0
  9 10  1  0  0  0  0
  9 11  1  0  0  0  0
  9 18  1  0  0  0  0
 11 12  1  0  0  0  0
 11 13  1  0  0  0  0
 11 14  1  0  0  0  0
 14 15  2  0  0  0  0
 14 16  1  0  0  0  0
 16 17  1  0  0  0  0
 18 19  2  0  0  0  0
 18 20  1  0  0  0  0
 20 21  1  0  0  0  0
 20 22  1  0  0  0  0
 22 23  1  0  0  0  0
 22 24  1  0  0  0  0
 22 25  1  0  0  0  0
M  END
$$$$

  -OEChem-03222214023D

 25 24  0     1  0  0  0  0  0999 V2000
   -2.6444   -3.9635    0.4364 H   0  0  0  0  0  0  0  0  0  0  0  0
   -2.7341   -2.9028    0.1856 C   0  0  0  0  0  0  0  0  0  0  0  0
   -3.2708   -2.3944    0.9903 H   0  0  0  0  0  0  0  0  0  0  0  0
   -3.3051   -2.8069   -0.7412 H   0  0  0  0  0  0  0  0  0  0  0  0
   -1.3579   -2.2883    0.0118 C   0  0  0  0  0  0  0  0  0  0  0  0
   -0.3583   -2.9821    0.1173 O   0  0  0  0  0  0  0  0  0  0  0  0
   -1.2360   -0.9420   -0.2647 N   0  0  0  0  0  0  0  0  0  0  0  0
   -2.0865   -0.3801   -0.2212 H   0  0  0  0  0  0  0  0  0  0  0  0
    0.0350   -0.2025   -0.2793 C   0  0  1  0  0  0  0  0  0  0  0  0
    0.7567   -0.7733    0.3147 H   0  0  0  0  0  0  0  0  0  0  0  0
    0.5940   -0.1702   -1.7246 C   0  0  0  0  0  0  0  0  0  0  0  0
    1.6832   -0.1286   -1.6555 H   0  0  0  0  0  0  0  0  0  0  0  0
    0.3408   -1.1111   -2.2223 H   0  0  0  0  0  0  0  0  0  0  0  0
    0.1883    0.9870   -2.6388 C   0  0  0  0  0  0  0  0  0  0  0  0
    0.1361    0.7388   -3.8297 O   0  0  0  0  0  0  0  0  0  0  0  0
    0.1086    2.2429   -2.1542 O   0  0  0  0  0  0  0  0  0  0  0  0
   -0.1134    2.8004   -2.9152 H   0  0  0  0  0  0  0  0  0  0  0  0
   -0.1129    1.1427    0.4672 C   0  0  0  0  0  0  0  0  0  0  0  0
   -1.2014    1.7088    0.4793 O   0  0  0  0  0  0  0  0  0  0  0  0
    0.8594    1.5541    1.3611 N   0  0  0  0  0  0  0  0  0  0  0  0
    1.7263    1.0261    1.3957 H   0  0  0  0  0  0  0  0  0  0  0  0
    0.7193    2.7337    2.2064 C   0  0  0  0  0  0  0  0  0  0  0  0
   -0.1365    2.6233    2.8806 H   0  0  0  0  0  0  0  0  0  0  0  0
    1.6197    2.8747    2.8118 H   0  0  0  0  0  0  0  0  0  0  0  0
    0.5715    3.6285    1.5927 H   0  0  0  0  0  0  0  0  0  0  0  0
  1  2  1  0  0  0  0
  2  3  1  0  0  0  0
  2  4  1  0  0  0  0
  2  5  1  0  0  0  0
  5  6  2  0  0  0  0
  5  7  1  0  0  0  0
  7  8  1  0  0  0  0
  7  9  1  0  0  0  0
  9 10  1  0  0  0  0
  9 11  1  0  0  0  0
  9 18  1  0  0  0  0
 11 12  1  0  0  0  0
 11 13  1  0  0  0  0
 11 14  1  0  0  0  0
 14 15  2  0  0  0  0
 14 16  1  0  0  0  0
 16 17  1  0  0  0  0
 18 19  2  0  0  0  0
 18 20  1  0  0  0  0
 20 21  1  0  0  0  0
 20 22  1  0  0  0  0
 22 23  1  0  0  0  0
 22 24  1  0  0  0  0
 22 25  1  0  0  0  0
M  END
$$$$

  -OEChem-03222214023D

 25 24  0     1  0  0  0  0  0999 V2000
   -2.6657   -3.9640    0.4235 H   0  0  0  0  0  0  0  0  0  0  0  0
   -2.7410   -2.9056    0.1590 C   0  0  0  0  0  0  0  0  0  0  0  0
   -3.3025   -2.3866    0.9395 H   0  0  0  0  0  0  0  0  0  0  0  0
   -3.2789   -2.8160   -0.7879 H   0  0  0  0  0  0  0  0  0  0  0  0
   -1.3568   -2.2993    0.0264 C   0  0  0  0  0  0  0  0  0  0  0  0
   -0.3651   -2.9963    0.1754 O   0  0  0  0  0  0  0  0  0  0  0  0
   -1.2186   -0.9577   -0.2638 N   0  0  0  0  0  0  0  0  0  0  0  0
   -2.0676   -0.3922   -0.2704 H   0  0  0  0  0  0  0  0  0  0  0  0
    0.0580   -0.2284   -0.2676 C   0  0  1  0  0  0  0  0  0  0  0  0
    0.7803   -0.7992    0.3256 H   0  0  0  0  0  0  0  0  0  0  0  0
    0.6017   -0.1827   -1.7159 C   0  0  0  0  0  0  0  0  0  0  0  0
    1.6921   -0.1466   -1.6648 H   0  0  0  0  0  0  0  0  0  0  0  0
    0.3353   -1.1102   -2.2315 H   0  0  0  0  0  0  0  0  0  0  0  0
    0.1745    1.0058   -2.5749 C   0  0  0  0  0  0  0  0  0  0  0  0
   -0.1856    0.7670   -3.7133 O   0  0  0  0  0  0  0  0  0  0  0  0
    0.4249    2.2572   -2.1339 O   0  0  0  0  0  0  0  0  0  0  0  0
    0.1203    2.8435   -2.8432 H   0  0  0  0  0  0  0  0  0  0  0  0
   -0.0972    1.1249    0.4616 C   0  0  0  0  0  0  0  0  0  0  0  0
   -1.1665    1.7234    0.4000 O   0  0  0  0  0  0  0  0  0  0  0  0
    0.8576    1.5463    1.3691 N   0  0  0  0  0  0  0  0  0  0  0  0
    1.7176    1.0104    1.4363 H   0  0  0  0  0  0  0  0  0  0  0  0
    0.7216    2.7616    2.1629 C   0  0  0  0  0  0  0  0  0  0  0  0
   -0.1718    2.7101    2.7940 H   0  0  0  0  0  0  0  0  0  0  0  0
    1.5939    2.8906    2.8108 H   0  0  0  0  0  0  0  0  0  0  0  0
    0.6421    3.6374    1.5101 H   0  0  0  0  0  0  0  0  0  0  0  0
  1  2  1  0  0  0  0
  2  3  1  0  0  0  0
  2  4  1  0  0  0  0
  2  5  1  0  0  0  0
  5  6  2  0  0  0  0
  5  7  1  0  0  0  0
  7  8  1  0  0  0  0
  7  9  1  0  0  0  0
  9 10  1  0  0  0  0
  9 11  1  0  0  0  0
  9 18  1  0  0  0  0
 11 12  1  0  0  0  0
 11 13  1  0  0  0  0
 11 14  1  0  0  0  0
 14 15  2  0  0  0  0
 14 16  1  0  0  0  0
 16 17  1  0  0  0  0
 18 19  2  0  0  0  0
 18 20  1  0  0  0  0
 20 21  1  0  0  0  0
 20 22  1  0  0  0  0
 22 23  1  0  0  0  0
 22 24  1  0  0  0  0
 22 25  1  0  0  0  0
M  END
$$$$

  -OEChem-03222214023D

 25 24  0     1  0  0  0  0  0999 V2000
   -2.6890   -3.9624    0.3970 H   0  0  0  0  0  0  0  0  0  0  0  0
   -2.7503   -2.9033    0.1316 C   0  0  0  0  0  0  0  0  0  0  0  0
   -3.3335   -2.3819    0.8946 H   0  0  0  0  0  0  0  0  0  0  0  0
   -3.2574   -2.8102   -0.8318 H   0  0  0  0  0  0  0  0  0  0  0  0
   -1.3594   -2.3045    0.0435 C   0  0  0  0  0  0  0  0  0  0  0  0
   -0.3768   -3.0017    0.2438 O   0  0  0  0  0  0  0  0  0  0  0  0
   -1.2057   -0.9686   -0.2640 N   0  0  0  0  0  0  0  0  0  0  0  0
   -2.0521   -0.4035   -0.3340 H   0  0  0  0  0  0  0  0  0  0  0  0
    0.0750   -0.2471   -0.2593 C   0  0  1  0  0  0  0  0  0  0  0  0
    0.7921   -0.8172    0.3408 H   0  0  0  0  0  0  0  0  0  0  0  0
    0.6214   -0.1978   -1.7045 C   0  0  0  0  0  0  0  0  0  0  0  0
    1.7124   -0.1666   -1.6593 H   0  0  0  0  0  0  0  0  0  0  0  0
    0.3472   -1.1146   -2.2351 H   0  0  0  0  0  0  0  0  0  0  0  0
    0.1813    1.0103   -2.5245 C   0  0  0  0  0  0  0  0  0  0  0  0
   -0.4476    0.8067   -3.5471 O   0  0  0  0  0  0  0  0  0  0  0  0
    0.6551    2.2273   -2.1776 O   0  0  0  0  0  0  0  0  0  0  0  0
    0.2720    2.8414   -2.8228 H   0  0  0  0  0  0  0  0  0  0  0  0
   -0.0767    1.1189    0.4462 C   0  0  0  0  0  0  0  0  0  0  0  0
   -1.1233    1.7469    0.3265 O   0  0  0  0  0  0  0  0  0  0  0  0
    0.8678    1.5483    1.3603 N   0  0  0  0  0  0  0  0  0  0  0  0
    1.7111    0.9926    1.4688 H   0  0  0  0  0  0  0  0  0  0  0  0
    0.7353    2.7848    2.1213 C   0  0  0  0  0  0  0  0  0  0  0  0
   -0.1662    2.7575    2.7426 H   0  0  0  0  0  0  0  0  0  0  0  0
    1.6016    2.9215    2.7756 H   0  0  0  0  0  0  0  0  0  0  0  0
    0.6724    3.6448    1.4460 H   0  0  0  0  0  0  0  0  0  0  0  0
  1  2  1  0  0  0  0
  2  3  1  0  0  0  0
  2  4  1  0  0  0  0
  2  5  1  0  0  0  0
  5  6  2  0  0  0  0
  5  7  1  0  0  0  0
  7  8  1  0  0  0  0
  7  9  1  0  0  0  0
  9 10  1  0  0  0  0
  9 11  1  0  0  0  0
  9 18  1  0  0  0  0
 11 12  1  0  0  0  0
 11 13  1  0  0  0  0
 11 14  1  0  0  0  0
 14 15  2  0  0  0  0
 14 16  1  0  0  0  0
 16 17  1  0  0  0  0
 18 19  2  0  0  0  0
 18 20  1  0  0  0  0
 20 21  1  0  0  0  0
 20 22  1  0  0  0  0
 22 23  1  0  0  0  0
 22 24  1  0  0  0  0
 22 25  1  0  0  0  0
M  END
$$$$

  -OEChem-03222214023D

 25 24  0     1  0  0  0  0  0999 V2000
   -2.7005   -3.9707    0.3664 H   0  0  0  0  0  0  0  0  0  0  0  0
   -2.7559   -2.9132    0.0934 C   0  0  0  0  0  0  0  0  0  0  0  0
   -3.3718   -2.3909    0.8294 H   0  0  0  0  0  0  0  0  0  0  0  0
   -3.2244   -2.8273   -0.8901 H   0  0  0  0  0  0  0  0  0  0  0  0
   -1.3652   -2.3081    0.0582 C   0  0  0  0  0  0  0  0  0  0  0  0
   -0.3888   -2.9988    0.3051 O   0  0  0  0  0  0  0  0  0  0  0  0
   -1.2036   -0.9759   -0.2608 N   0  0  0  0  0  0  0  0  0  0  0  0
   -2.0471   -0.4184   -0.3946 H   0  0  0  0  0  0  0  0  0  0  0  0
    0.0765   -0.2539   -0.2472 C   0  0  1  0  0  0  0  0  0  0  0  0
    0.7875   -0.8210    0.3628 H   0  0  0  0  0  0  0  0  0  0  0  0
    0.6353   -0.2118   -1.6855 C   0  0  0  0  0  0  0  0  0  0  0  0
    1.7262   -0.1787   -1.6367 H   0  0  0  0  0  0  0  0  0  0  0  0
    0.3634   -1.1262   -2.2210 H   0  0  0  0  0  0  0  0  0  0  0  0
    0.1851    1.0004   -2.4906 C   0  0  0  0  0  0  0  0  0  0  0  0
   -0.6644    0.8415   -3.3486 O   0  0  0  0  0  0  0  0  0  0  0  0
    0.8152    2.1761   -2.2743 O   0  0  0  0  0  0  0  0  0  0  0  0
    0.3672    2.8106   -2.8551 H   0  0  0  0  0  0  0  0  0  0  0  0
   -0.0641    1.1235    0.4381 C   0  0  0  0  0  0  0  0  0  0  0  0
   -1.0858    1.7811    0.2766 O   0  0  0  0  0  0  0  0  0  0  0  0
    0.8797    1.5528    1.3530 N   0  0  0  0  0  0  0  0  0  0  0  0
    1.7033    0.9748    1.4922 H   0  0  0  0  0  0  0  0  0  0  0  0
    0.7710    2.8115    2.0808 C   0  0  0  0  0  0  0  0  0  0  0  0
   -0.1412    2.8269    2.6867 H   0  0  0  0  0  0  0  0  0  0  0  0
    1.6297    2.9391    2.7470 H   0  0  0  0  0  0  0  0  0  0  0  0
    0.7454    3.6558    1.3836 H   0  0  0  0  0  0  0  0  0  0  0  0
  1  2  1  0  0  0  0
  2  3  1  0  0  0  0
  2  4  1  0  0  0  0
  2  5  1  0  0  0  0
  5  6  2  0  0  0  0
  5  7  1  0  0  0  0
  7  8  1  0  0  0  0
  7  9  1  0  0  0  0
  9 10  1  0  0  0  0
  9 11  1  0  0  0  0
  9 18  1  0  0  0  0
 11 12  1  0  0  0  0
 11 13  1  0  0  0  0
 11 14  1  0  0  0  0
 14 15  2  0  0  0  0
 14 16  1  0  0  0  0
 16 17  1  0  0  0  0
 18 19  2  0  0  0  0
 18 20  1  0  0  0  0
 20 21  1  0  0  0  0
 20 22  1  0  0  0  0
 22 23  1  0  0  0  0
 22 24  1  0  0  0  0
 22 25  1  0  0  0  0
M  END
$$$$

  -OEChem-03222214023D

 25 24  0     1  0  0  0  0  0999 V2000
   -2.7035   -3.9791    0.3394 H   0  0  0  0  0  0  0  0  0  0  0  0
   -2.7563   -2.9228    0.0619 C   0  0  0  0  0  0  0  0  0  0  0  0
   -3.4038   -2.4034    0.7725 H   0  0  0  0  0  0  0  0  0  0  0  0
   -3.1873   -2.8424   -0.9390 H   0  0  0  0  0  0  0  0  0  0  0  0
   -1.3700   -2.3074    0.0781 C   0  0  0  0  0  0  0  0  0  0  0  0
   -0.3993   -2.9888    0.3704 O   0  0  0  0  0  0  0  0  0  0  0  0
   -1.2051   -0.9784   -0.2519 N   0  0  0  0  0  0  0  0  0  0  0  0
   -2.0438   -0.4347   -0.4548 H   0  0  0  0  0  0  0  0  0  0  0  0
    0.0729   -0.2535   -0.2377 C   0  0  1  0  0  0  0  0  0  0  0  0
    0.7798   -0.8175    0.3794 H   0  0  0  0  0  0  0  0  0  0  0  0
    0.6390   -0.2240   -1.6723 C   0  0  0  0  0  0  0  0  0  0  0  0
    1.7297   -0.1878   -1.6211 H   0  0  0  0  0  0  0  0  0  0  0  0
    0.3699   -1.1400   -2.2058 H   0  0  0  0  0  0  0  0  0  0  0  0
    0.1807    0.9829   -2.4790 C   0  0  0  0  0  0  0  0  0  0  0  0
   -0.8429    0.8872   -3.1322 O   0  0  0  0  0  0  0  0  0  0  0  0
    0.9406    2.0990   -2.4401 O   0  0  0  0  0  0  0  0  0  0  0  0
    0.4478    2.7519   -2.9616 H   0  0  0  0  0  0  0  0  0  0  0  0
   -0.0525    1.1341    0.4299 C   0  0  0  0  0  0  0  0  0  0  0  0
   -1.0520    1.8167    0.2419 O   0  0  0  0  0  0  0  0  0  0  0  0
    0.8973    1.5628    1.3391 N   0  0  0  0  0  0  0  0  0  0  0  0
    1.6958    0.9592    1.5126 H   0  0  0  0  0  0  0  0  0  0  0  0
    0.8034    2.8298    2.0542 C   0  0  0  0  0  0  0  0  0  0  0  0
   -0.1217    2.8730    2.6387 H   0  0  0  0  0  0  0  0  0  0  0  0
    1.6491    2.9420    2.7393 H   0  0  0  0  0  0  0  0  0  0  0  0
    0.8148    3.6680    1.3496 H   0  0  0  0  0  0  0  0  0  0  0  0
  1  2  1  0  0  0  0
  2  3  1  0  0  0  0
  2  4  1  0  0  0  0
  2  5  1  0  0  0  0
  5  6  2  0  0  0  0
  5  7  1  0  0  0  0
  7  8  1  0  0  0  0
  7  9  1  0  0  0  0
  9 10  1  0  0  0  0
  9 11  1  0  0  0  0
  9 18  1  0  0  0  0
 11 12  1  0  0  0  0
 11 13  1  0  0  0  0
 11 14  1  0  0  0  0
 14 15  2  0  0  0  0
 14 16  1  0  0  0  0
 16 17  1  0  0  0  0
 18 19  2  0  0  0  0
 18 20  1  0  0  0  0
 20 21  1  0  0  0  0
 20 22  1  0  0  0  0
 22 23  1  0  0  0  0
 22 24  1  0  0  0  0
 22 25  1  0  0  0  0
M  END
$$$$

  -OEChem-03222214023D

 25 24  0     1  0  0  0  0  0999 V2000
   -2.7052   -3.9854    0.3354 H   0  0  0  0  0  0  0  0  0  0  0  0
   -2.7595   -2.9296    0.0563 C   0  0  0  0  0  0  0  0  0  0  0  0
   -3.4121   -2.4112    0.7628 H   0  0  0  0  0  0  0  0  0  0  0  0
   -3.1851   -2.8513   -0.9471 H   0  0  0  0  0  0  0  0  0  0  0  0
   -1.3754   -2.3093    0.0804 C   0  0  0  0  0  0  0  0  0  0  0  0
   -0.4049   -2.9856    0.3848 O   0  0  0  0  0  0  0  0  0  0  0  0
   -1.2133   -0.9808   -0.2520 N   0  0  0  0  0  0  0  0  0  0  0  0
   -2.0503   -0.4455   -0.4835 H   0  0  0  0  0  0  0  0  0  0  0  0
    0.0606   -0.2495   -0.2381 C   0  0  1  0  0  0  0  0  0  0  0  0
    0.7633   -0.8111    0.3864 H   0  0  0  0  0  0  0  0  0  0  0  0
    0.6446   -0.2259   -1.6650 C   0  0  0  0  0  0  0  0  0  0  0  0
    1.7345   -0.1853   -1.5990 H   0  0  0  0  0  0  0  0  0  0  0  0
    0.3863   -1.1460   -2.1960 H   0  0  0  0  0  0  0  0  0  0  0  0
    0.1890    0.9714   -2.4878 C   0  0  0  0  0  0  0  0  0  0  0  0
   -0.9462    0.9735   -2.9288 O   0  0  0  0  0  0  0  0  0  0  0  0
    1.0598    1.9882   -2.6641 O   0  0  0  0  0  0  0  0  0  0  0  0
    0.5580    2.6614   -3.1503 H   0  0  0  0  0  0  0  0  0  0  0  0
   -0.0573    1.1416    0.4234 C   0  0  0  0  0  0  0  0  0  0  0  0
   -1.0517    1.8317    0.2405 O   0  0  0  0  0  0  0  0  0  0  0  0
    0.8990    1.5674    1.3271 N   0  0  0  0  0  0  0  0  0  0  0  0
    1.6902    0.9556    1.5051 H   0  0  0  0  0  0  0  0  0  0  0  0
    0.8144    2.8351    2.0424 C   0  0  0  0  0  0  0  0  0  0  0  0
   -0.0888    2.8667    2.6609 H   0  0  0  0  0  0  0  0  0  0  0  0
    1.6841    2.9609    2.6945 H   0  0  0  0  0  0  0  0  0  0  0  0
    0.7875    3.6722    1.3368 H   0  0  0  0  0  0  0  0  0  0  0  0
  1  2  1  0  0  0  0
  2  3  1  0  0  0  0
  2  4  1  0  0  0  0
  2  5  1  0  0  0  0
  5  6  2  0  0  0  0
  5  7  1  0  0  0  0
  7  8  1  0  0  0  0
  7  9  1  0  0  0  0
  9 10  1  0  0  0  0
  9 11  1  0  0  0  0
  9 18  1  0  0  0  0
 11 12  1  0  0  0  0
 11 13  1  0  0  0  0
 11 14  1  0  0  0  0
 14 15  2  0  0  0  0
 14 16  1  0  0  0  0
 16 17  1  0  0  0  0
 18 19  2  0  0  0  0
 18 20  1  0  0  0  0
 20 21  1  0  0  0  0
 20 22  1  0  0  0  0
 22 23  1  0  0  0  0
 22 24  1  0  0  0  0
 22 25  1  0  0  0  0
M  END
$$$$

  -OEChem-03222214023D

 25 24  0     1  0  0  0  0  0999 V2000
   -2.6946   -3.9867    0.3447 H   0  0  0  0  0  0  0  0  0  0  0  0
   -2.7578   -2.9305    0.0686 C   0  0  0  0  0  0  0  0  0  0  0  0
   -3.4032   -2.4167    0.7850 H   0  0  0  0  0  0  0  0  0  0  0  0
   -3.1974   -2.8519   -0.9287 H   0  0  0  0  0  0  0  0  0  0  0  0
   -1.3763   -2.3039    0.0748 C   0  0  0  0  0  0  0  0  0  0  0  0
   -0.3977   -2.9785    0.3567 O   0  0  0  0  0  0  0  0  0  0  0  0
   -1.2247   -0.9732   -0.2540 N   0  0  0  0  0  0  0  0  0  0  0  0
   -2.0673   -0.4381   -0.4658 H   0  0  0  0  0  0  0  0  0  0  0  0
    0.0436   -0.2327   -0.2460 C   0  0  1  0  0  0  0  0  0  0  0  0
    0.7438   -0.7916    0.3836 H   0  0  0  0  0  0  0  0  0  0  0  0
    0.6443   -0.2193   -1.6666 C   0  0  0  0  0  0  0  0  0  0  0  0
    1.7330   -0.1723   -1.5835 H   0  0  0  0  0  0  0  0  0  0  0  0
    0.3997   -1.1488   -2.1874 H   0  0  0  0  0  0  0  0  0  0  0  0
    0.1989    0.9581   -2.5254 C   0  0  0  0  0  0  0  0  0  0  0  0
   -0.9875    1.0955   -2.7626 O   0  0  0  0  0  0  0  0  0  0  0  0
    1.1469    1.8170   -2.9567 O   0  0  0  0  0  0  0  0  0  0  0  0
    0.6572    2.5047   -3.4348 H   0  0  0  0  0  0  0  0  0  0  0  0
   -0.0670    1.1580    0.4184 C   0  0  0  0  0  0  0  0  0  0  0  0
   -1.0736    1.8389    0.2762 O   0  0  0  0  0  0  0  0  0  0  0  0
    0.9011    1.5789    1.3122 N   0  0  0  0  0  0  0  0  0  0  0  0
    1.6908    0.9627    1.4815 H   0  0  0  0  0  0  0  0  0  0  0  0
    0.8088    2.8265    2.0619 C   0  0  0  0  0  0  0  0  0  0  0  0
   -0.0680    2.8155    2.7178 H   0  0  0  0  0  0  0  0  0  0  0  0
    1.7015    2.9642    2.6795 H   0  0  0  0  0  0  0  0  0  0  0  0
    0.7266    3.6788    1.3792 H   0  0  0  0  0  0  0  0  0  0  0  0
  1  2  1  0  0  0  0
  2  3  1  0  0  0  0
  2  4  1  0  0  0  0
  2  5  1  0  0  0  0
  5  6  2  0  0  0  0
  5  7  1  0  0  0  0
  7  8  1  0  0  0  0
  7  9  1  0  0  0  0
  9 10  1  0  0  0  0
  9 11  1  0  0  0  0
  9 18  1  0  0  0  0
 11 12  1  0  0  0  0
 11 13  1  0  0  0  0
 11 14  1  0  0  0  0
 14 15  2  0  0  0  0
 14 16  1  0  0  0  0
 16 17  1  0  0  0  0
 18 19  2  0  0  0  0
 18 20  1  0  0  0  0
 20 21  1  0  0  0  0
 20 22  1  0  0  0  0
 22 23  1  0  0  0  0
 22 24  1  0  0  0  0
 22 25  1  0  0  0  0
M  END
$$$$

  -OEChem-03222214023D

 25 24  0     1  0  0  0  0  0999 V2000
   -2.6775   -3.9792    0.3681 H   0  0  0  0  0  0  0  0  0  0  0  0
   -2.7522   -2.9220    0.0988 C   0  0  0  0  0  0  0  0  0  0  0  0
   -3.3721   -2.4121    0.8403 H   0  0  0  0  0  0  0  0  0  0  0  0
   -3.2277   -2.8403   -0.8816 H   0  0  0  0  0  0  0  0  0  0  0  0
   -1.3724   -2.2933    0.0576 C   0  0  0  0  0  0  0  0  0  0  0  0
   -0.3824   -2.9694    0.2923 O   0  0  0  0  0  0  0  0  0  0  0  0
   -1.2359   -0.9587   -0.2615 N   0  0  0  0  0  0  0  0  0  0  0  0
   -2.0879   -0.4195   -0.4181 H   0  0  0  0  0  0  0  0  0  0  0  0
    0.0262   -0.2079   -0.2631 C   0  0  1  0  0  0  0  0  0  0  0  0
    0.7261   -0.7642    0.3691 H   0  0  0  0  0  0  0  0  0  0  0  0
    0.6420   -0.2033   -1.6785 C   0  0  0  0  0  0  0  0  0  0  0  0
    1.7287   -0.1462   -1.5769 H   0  0  0  0  0  0  0  0  0  0  0  0
    0.4149   -1.1449   -2.1846 H   0  0  0  0  0  0  0  0  0  0  0  0
    0.2133    0.9488   -2.5818 C   0  0  0  0  0  0  0  0  0  0  0  0
   -0.9616    1.2590   -2.6418 O   0  0  0  0  0  0  0  0  0  0  0  0
    1.1823    1.5906   -3.2685 O   0  0  0  0  0  0  0  0  0  0  0  0
    0.7182    2.2900   -3.7551 H   0  0  0  0  0  0  0  0  0  0  0  0
   -0.0835    1.1771    0.4140 C   0  0  0  0  0  0  0  0  0  0  0  0
   -1.1184    1.8263    0.3452 O   0  0  0  0  0  0  0  0  0  0  0  0
    0.8979    1.5922    1.2968 N   0  0  0  0  0  0  0  0  0  0  0  0
    1.7024    0.9867    1.4306 H   0  0  0  0  0  0  0  0  0  0  0  0
    0.7887    2.8035    2.1018 C   0  0  0  0  0  0  0  0  0  0  0  0
   -0.0595    2.7303    2.7905 H   0  0  0  0  0  0  0  0  0  0  0  0
    1.6999    2.9516    2.6891 H   0  0  0  0  0  0  0  0  0  0  0  0
    0.6467    3.6789    1.4594 H   0  0  0  0  0  0  0  0  0  0  0  0
  1  2  1  0  0  0  0
  2  3  1  0  0  0  0
  2  4  1  0  0  0  0
  2  5  1  0  0  0  0
  5  6  2  0  0  0  0
  5  7  1  0  0  0  0
  7  8  1  0  0  0  0
  7  9  1  0  0  0  0
  9 10  1  0  0  0  0
  9 11  1  0  0  0  0
  9 18  1  0  0  0  0
 11 12  1  0  0  0  0
 11 13  1  0  0  0  0
 11 14  1  0  0  0  0
 14 15  2  0  0  0  0
 14 16  1  0  0  0  0
 16 17  1  0  0  0  0
 18 19  2  0  0  0  0
 18 20  1  0  0  0  0
 20 21  1  0  0  0  0
 20 22  1  0  0  0  0
 22 23  1  0  0  0  0
 22 24  1  0  0  0  0
 22 25  1  0  0  0  0
M  END
$$$$

  -OEChem-03222214023D

 25 24  0     1  0  0  0  0  0999 V2000
   -2.6577   -3.9671    0.3957 H   0  0  0  0  0  0  0  0  0  0  0  0
   -2.7438   -2.9091    0.1330 C   0  0  0  0  0  0  0  0  0  0  0  0
   -3.3315   -2.4015    0.9017 H   0  0  0  0  0  0  0  0  0  0  0  0
   -3.2610   -2.8242   -0.8258 H   0  0  0  0  0  0  0  0  0  0  0  0
   -1.3668   -2.2801    0.0352 C   0  0  0  0  0  0  0  0  0  0  0  0
   -0.3671   -2.9588    0.2153 O   0  0  0  0  0  0  0  0  0  0  0  0
   -1.2446   -0.9411   -0.2709 N   0  0  0  0  0  0  0  0  0  0  0  0
   -2.1032   -0.3965   -0.3561 H   0  0  0  0  0  0  0  0  0  0  0  0
    0.0129   -0.1823   -0.2834 C   0  0  1  0  0  0  0  0  0  0  0  0
    0.7147   -0.7380    0.3472 H   0  0  0  0  0  0  0  0  0  0  0  0
    0.6363   -0.1846   -1.6979 C   0  0  0  0  0  0  0  0  0  0  0  0
    1.7213   -0.1209   -1.5859 H   0  0  0  0  0  0  0  0  0  0  0  0
    0.4205   -1.1365   -2.1898 H   0  0  0  0  0  0  0  0  0  0  0  0
    0.2254    0.9432   -2.6415 C   0  0  0  0  0  0  0  0  0  0  0  0
   -0.8760    1.4496   -2.5530 O   0  0  0  0  0  0  0  0  0  0  0  0
    1.1429    1.3353   -3.5507 O   0  0  0  0  0  0  0  0  0  0  0  0
    0.7112    2.0493   -4.0458 H   0  0  0  0  0  0  0  0  0  0  0  0
   -0.1008    1.1939    0.4126 C   0  0  0  0  0  0  0  0  0  0  0  0
   -1.1652    1.7984    0.4231 O   0  0  0  0  0  0  0  0  0  0  0  0
    0.8914    1.6049    1.2859 N   0  0  0  0  0  0  0  0  0  0  0  0
    1.7187    1.0220    1.3717 H   0  0  0  0  0  0  0  0  0  0  0  0
    0.7658    2.7760    2.1468 C   0  0  0  0  0  0  0  0  0  0  0  0
   -0.0604    2.6458    2.8538 H   0  0  0  0  0  0  0  0  0  0  0  0
    1.6876    2.9278    2.7165 H   0  0  0  0  0  0  0  0  0  0  0  0
    0.5787    3.6735    1.5476 H   0  0  0  0  0  0  0  0  0  0  0  0
  1  2  1  0  0  0  0
  2  3  1  0  0  0  0
  2  4  1  0  0  0  0
  2  5  1  0  0  0  0
  5  6  2  0  0  0  0
  5  7  1  0  0  0  0
  7  8  1  0  0  0  0
  7  9  1  0  0  0  0
  9 10  1  0  0  0  0
  9 11  1  0  0  0  0
  9 18  1  0  0  0  0
 11 12  1  0  0  0  0
 11 13  1  0  0  0  0
 11 14  1  0  0  0  0
 14 15  2  0  0  0  0
 14 16  1  0  0  0  0
 16 17  1  0  0  0  0
 18 19  2  0  0  0  0
 18 20  1  0  0  0  0
 20 21  1  0  0  0  0
 20 22  1  0  0  0  0
 22 23  1  0  0  0  0
 22 24  1  0  0  0  0
 22 25  1  0  0  0  0
M  END
$$$$

  -OEChem-03222214023D

 25 24  0     1  0  0  0  0  0999 V2000
   -2.6360   -3.9595    0.4205 H   0  0  0  0  0  0  0  0  0  0  0  0
   -2.7355   -2.9017    0.1618 C   0  0  0  0  0  0  0  0  0  0  0  0
   -3.2928   -2.3961    0.9543 H   0  0  0  0  0  0  0  0  0  0  0  0
   -3.2910   -2.8181   -0.7753 H   0  0  0  0  0  0  0  0  0  0  0  0
   -1.3650   -2.2697    0.0090 C   0  0  0  0  0  0  0  0  0  0  0  0
   -0.3581   -2.9496    0.1364 O   0  0  0  0  0  0  0  0  0  0  0  0
   -1.2562   -0.9260   -0.2821 N   0  0  0  0  0  0  0  0  0  0  0  0
   -2.1167   -0.3778   -0.2993 H   0  0  0  0  0  0  0  0  0  0  0  0
   -0.0002   -0.1642   -0.2990 C   0  0  1  0  0  0  0  0  0  0  0  0
    0.7034   -0.7228    0.3273 H   0  0  0  0  0  0  0  0  0  0  0  0
    0.6250   -0.1670   -1.7145 C   0  0  0  0  0  0  0  0  0  0  0  0
    1.7094   -0.1032   -1.5979 H   0  0  0  0  0  0  0  0  0  0  0  0
    0.4119   -1.1240   -2.1977 H   0  0  0  0  0  0  0  0  0  0  0  0
    0.2321    0.9460   -2.6843 C   0  0  0  0  0  0  0  0  0  0  0  0
   -0.7349    1.6511   -2.4770 O   0  0  0  0  0  0  0  0  0  0  0  0
    1.0259    1.0930   -3.7661 O   0  0  0  0  0  0  0  0  0  0  0  0
    0.6347    1.8280   -4.2638 H   0  0  0  0  0  0  0  0  0  0  0  0
   -0.1174    1.2012    0.4180 C   0  0  0  0  0  0  0  0  0  0  0  0
   -1.1995    1.7714    0.4835 O   0  0  0  0  0  0  0  0  0  0  0  0
    0.8813    1.6050    1.2876 N   0  0  0  0  0  0  0  0  0  0  0  0
    1.7263    1.0436    1.3334 H   0  0  0  0  0  0  0  0  0  0  0  0
    0.7536    2.7552    2.1756 C   0  0  0  0  0  0  0  0  0  0  0  0
   -0.0590    2.5976    2.8926 H   0  0  0  0  0  0  0  0  0  0  0  0
    1.6824    2.9083    2.7334 H   0  0  0  0  0  0  0  0  0  0  0  0
    0.5434    3.6625    1.5994 H   0  0  0  0  0  0  0  0  0  0  0  0
  1  2  1  0  0  0  0
  2  3  1  0  0  0  0
  2  4  1  0  0  0  0
  2  5  1  0  0  0  0
  5  6  2  0  0  0  0
  5  7  1  0  0  0  0
  7  8  1  0  0  0  0
  7  9  1  0  0  0  0
  9 10  1  0  0  0  0
  9 11  1  0  0  0  0
  9 18  1  0  0  0  0
 11 12  1  0  0  0  0
 11 13  1  0  0  0  0
 11 14  1  0  0  0  0
 14 15  2  0  0  0  0
 14 16  1  0  0  0  0
 16 17  1  0  0  0  0
 18 19  2  0  0  0  0
 18 20  1  0  0  0  0
 20 21  1  0  0  0  0
 20 22  1  0  0  0  0
 22 23  1  0  0  0  0
 22 24  1  0  0  0  0
 22 25  1  0  0  0  0
M  END
$$$$

  -OEChem-03222214023D

 25 24  0     1  0  0  0  0  0999 V2000
   -2.6333   -3.9472    0.4312 H   0  0  0  0  0  0  0  0  0  0  0  0
   -2.7335   -2.8865    0.1847 C   0  0  0  0  0  0  0  0  0  0  0  0
   -3.2644   -2.3846    0.9973 H   0  0  0  0  0  0  0  0  0  0  0  0
   -3.3160   -2.7913   -0.7348 H   0  0  0  0  0  0  0  0  0  0  0  0
   -1.3644   -2.2609   -0.0031 C   0  0  0  0  0  0  0  0  0  0  0  0
   -0.3580   -2.9465    0.0919 O   0  0  0  0  0  0  0  0  0  0  0  0
   -1.2571   -0.9155   -0.2868 N   0  0  0  0  0  0  0  0  0  0  0  0
   -2.1135   -0.3616   -0.2529 H   0  0  0  0  0  0  0  0  0  0  0  0
    0.0015   -0.1574   -0.3106 C   0  0  1  0  0  0  0  0  0  0  0  0
    0.7096   -0.7182    0.3084 H   0  0  0  0  0  0  0  0  0  0  0  0
    0.6169   -0.1605   -1.7324 C   0  0  0  0  0  0  0  0  0  0  0  0
    1.7024   -0.1053   -1.6237 H   0  0  0  0  0  0  0  0  0  0  0  0
    0.3944   -1.1184   -2.2094 H   0  0  0  0  0  0  0  0  0  0  0  0
    0.2353    0.9466   -2.7147 C   0  0  0  0  0  0  0  0  0  0  0  0
   -0.5395    1.8307   -2.4116 O   0  0  0  0  0  0  0  0  0  0  0  0
    0.8292    0.8810   -3.9250 O   0  0  0  0  0  0  0  0  0  0  0  0
    0.4805    1.6422   -4.4148 H   0  0  0  0  0  0  0  0  0  0  0  0
   -0.1221    1.2004    0.4203 C   0  0  0  0  0  0  0  0  0  0  0  0
   -1.2161    1.7455    0.5123 O   0  0  0  0  0  0  0  0  0  0  0  0
    0.8768    1.6038    1.2898 N   0  0  0  0  0  0  0  0  0  0  0  0
    1.7347    1.0612    1.3111 H   0  0  0  0  0  0  0  0  0  0  0  0
    0.7399    2.7381    2.1968 C   0  0  0  0  0  0  0  0  0  0  0  0
   -0.0596    2.5546    2.9224 H   0  0  0  0  0  0  0  0  0  0  0  0
    1.6735    2.9001    2.7441 H   0  0  0  0  0  0  0  0  0  0  0  0
    0.5053    3.6500    1.6373 H   0  0  0  0  0  0  0  0  0  0  0  0
  1  2  1  0  0  0  0
  2  3  1  0  0  0  0
  2  4  1  0  0  0  0
  2  5  1  0  0  0  0
  5  6  2  0  0  0  0
  5  7  1  0  0  0  0
  7  8  1  0  0  0  0
  7  9  1  0  0  0  0
  9 10  1  0  0  0  0
  9 11  1  0  0  0  0
  9 18  1  0  0  0  0
 11 12  1  0  0  0  0
 11 13  1  0  0  0  0
 11 14  1  0  0  0  0
 14 15  2  0  0  0  0
 14 16  1  0  0  0  0
 16 17  1  0  0  0  0
 18 19  2  0  0  0  0
 18 20  1  0  0  0  0
 20 21  1  0  0  0  0
 20 22  1  0  0  0  0
 22 23  1  0  0  0  0
 22 24  1  0  0  0  0
 22 25  1  0  0  0  0
M  END
$$$$

  -OEChem-03222214023D

 25 24  0     1  0  0  0  0  0999 V2000
   -2.6392   -3.9392    0.4377 H   0  0  0  0  0  0  0  0  0  0  0  0
   -2.7363   -2.8778    0.1932 C   0  0  0  0  0  0  0  0  0  0  0  0
   -3.2527   -2.3732    1.0136 H   0  0  0  0  0  0  0  0  0  0  0  0
   -3.3311   -2.7786   -0.7179 H   0  0  0  0  0  0  0  0  0  0  0  0
   -1.3658   -2.2608   -0.0131 C   0  0  0  0  0  0  0  0  0  0  0  0
   -0.3628   -2.9537    0.0633 O   0  0  0  0  0  0  0  0  0  0  0  0
   -1.2532   -0.9144   -0.2912 N   0  0  0  0  0  0  0  0  0  0  0  0
   -2.1043   -0.3546   -0.2297 H   0  0  0  0  0  0  0  0  0  0  0  0
    0.0107   -0.1642   -0.3121 C   0  0  1  0  0  0  0  0  0  0  0  0
    0.7200   -0.7294    0.3017 H   0  0  0  0  0  0  0  0  0  0  0  0
    0.6143   -0.1623   -1.7401 C   0  0  0  0  0  0  0  0  0  0  0  0
    1.7012   -0.1192   -1.6410 H   0  0  0  0  0  0  0  0  0  0  0  0
    0.3779   -1.1167   -2.2186 H   0  0  0  0  0  0  0  0  0  0  0  0
    0.2387    0.9524   -2.7174 C   0  0  0  0  0  0  0  0  0  0  0  0
   -0.2973    1.9761   -2.3450 O   0  0  0  0  0  0  0  0  0  0  0  0
    0.5628    0.7286   -4.0085 O   0  0  0  0  0  0  0  0  0  0  0  0
    0.2569    1.5176   -4.4824 H   0  0  0  0  0  0  0  0  0  0  0  0
   -0.1211    1.1874    0.4288 C   0  0  0  0  0  0  0  0  0  0  0  0
   -1.2200    1.7248    0.5154 O   0  0  0  0  0  0  0  0  0  0  0  0
    0.8702    1.5904    1.3065 N   0  0  0  0  0  0  0  0  0  0  0  0
    1.7419    1.0697    1.3096 H   0  0  0  0  0  0  0  0  0  0  0  0
    0.7309    2.7352    2.1992 C   0  0  0  0  0  0  0  0  0  0  0  0
   -0.0786    2.5654    2.9168 H   0  0  0  0  0  0  0  0  0  0  0  0
    1.6588    2.8964    2.7561 H   0  0  0  0  0  0  0  0  0  0  0  0
    0.5098    3.6422    1.6266 H   0  0  0  0  0  0  0  0  0  0  0  0
  1  2  1  0  0  0  0
  2  3  1  0  0  0  0
  2  4  1  0  0  0  0
  2  5  1  0  0  0  0
  5  6  2  0  0  0  0
  5  7  1  0  0  0  0
  7  8  1  0  0  0  0
  7  9  1  0  0  0  0
  9 10  1  0  0  0  0
  9 11  1  0  0  0  0
  9 18  1  0  0  0  0
 11 12  1  0  0  0  0
 11 13  1  0  0  0  0
 11 14  1  0  0  0  0
 14 15  2  0  0  0  0
 14 16  1  0  0  0  0
 16 17  1  0  0  0  0
 18 19  2  0  0  0  0
 18 20  1  0  0  0  0
 20 21  1  0  0  0  0
 20 22  1  0  0  0  0
 22 23  1  0  0  0  0
 22 24  1  0  0  0  0
 22 25  1  0  0  0  0
M  END
$$$$

  -OEChem-03222214023D

 25 24  0     1  0  0  0  0  0999 V2000
   -2.6505   -3.9370    0.4431 H   0  0  0  0  0  0  0  0  0  0  0  0
   -2.7417   -2.8764    0.1923 C   0  0  0  0  0  0  0  0  0  0  0  0
   -3.2610   -2.3655    1.0068 H   0  0  0  0  0  0  0  0  0  0  0  0
   -3.3304   -2.7798   -0.7231 H   0  0  0  0  0  0  0  0  0  0  0  0
   -1.3674   -2.2663   -0.0093 C   0  0  0  0  0  0  0  0  0  0  0  0
   -0.3686   -2.9647    0.0715 O   0  0  0  0  0  0  0  0  0  0  0  0
   -1.2460   -0.9210   -0.2898 N   0  0  0  0  0  0  0  0  0  0  0  0
   -2.0923   -0.3546   -0.2216 H   0  0  0  0  0  0  0  0  0  0  0  0
    0.0250   -0.1820   -0.3065 C   0  0  1  0  0  0  0  0  0  0  0  0
    0.7356   -0.7506    0.3026 H   0  0  0  0  0  0  0  0  0  0  0  0
    0.6137   -0.1738   -1.7410 C   0  0  0  0  0  0  0  0  0  0  0  0
    1.7021   -0.1434   -1.6549 H   0  0  0  0  0  0  0  0  0  0  0  0
    0.3617   -1.1214   -2.2251 H   0  0  0  0  0  0  0  0  0  0  0  0
    0.2372    0.9571   -2.6990 C   0  0  0  0  0  0  0  0  0  0  0  0
   -0.0271    2.0698   -2.2895 O   0  0  0  0  0  0  0  0  0  0  0  0
    0.2423    0.6455   -4.0126 O   0  0  0  0  0  0  0  0  0  0  0  0
   -0.0205    1.4626   -4.4641 H   0  0  0  0  0  0  0  0  0  0  0  0
   -0.1141    1.1684    0.4345 C   0  0  0  0  0  0  0  0  0  0  0  0
   -1.2123    1.7120    0.4923 O   0  0  0  0  0  0  0  0  0  0  0  0
    0.8662    1.5744    1.3228 N   0  0  0  0  0  0  0  0  0  0  0  0
    1.7472    1.0698    1.3194 H   0  0  0  0  0  0  0  0  0  0  0  0
    0.7292    2.7447    2.1816 C   0  0  0  0  0  0  0  0  0  0  0  0
   -0.1113    2.6174    2.8721 H   0  0  0  0  0  0  0  0  0  0  0  0
    1.6403    2.8914    2.7697 H   0  0  0  0  0  0  0  0  0  0  0  0
    0.5575    3.6433    1.5793 H   0  0  0  0  0  0  0  0  0  0  0  0
  1  2  1  0  0  0  0
  2  3  1  0  0  0  0
  2  4  1  0  0  0  0
  2  5  1  0  0  0  0
  5  6  2  0  0  0  0
  5  7  1  0  0  0  0
  7  8  1  0  0  0  0
  7  9  1  0  0  0  0
  9 10  1  0  0  0  0
  9 11  1  0  0  0  0
  9 18  1  0  0  0  0
 11 12  1  0  0  0  0
 11 13  1  0  0  0  0
 11 14  1  0  0  0  0
 14 15  2  0  0  0  0
 14 16  1  0  0  0  0
 16 17  1  0  0  0  0
 18 19  2  0  0  0  0
 18 20  1  0  0  0  0
 20 21  1  0  0  0  0
 20 22  1  0  0  0  0
 22 23  1  0  0  0  0
 22 24  1  0  0  0  0
 22 25  1  0  0  0  0
M  END
$$$$

  -OEChem-03222214023D

 25 24  0     1  0  0  0  0  0999 V2000
   -2.6730   -3.9345    0.4446 H   0  0  0  0  0  0  0  0  0  0  0  0
   -2.7492   -2.8736    0.1901 C   0  0  0  0  0  0  0  0  0  0  0  0
   -3.2722   -2.3546    0.9971 H   0  0  0  0  0  0  0  0  0  0  0  0
   -3.3263   -2.7727   -0.7322 H   0  0  0  0  0  0  0  0  0  0  0  0
   -1.3657   -2.2799    0.0029 C   0  0  0  0  0  0  0  0  0  0  0  0
   -0.3752   -2.9867    0.1086 O   0  0  0  0  0  0  0  0  0  0  0  0
   -1.2271   -0.9391   -0.2900 N   0  0  0  0  0  0  0  0  0  0  0  0
   -2.0691   -0.3645   -0.2428 H   0  0  0  0  0  0  0  0  0  0  0  0
    0.0516   -0.2134   -0.2991 C   0  0  1  0  0  0  0  0  0  0  0  0
    0.7629   -0.7827    0.3086 H   0  0  0  0  0  0  0  0  0  0  0  0
    0.6240   -0.1959   -1.7394 C   0  0  0  0  0  0  0  0  0  0  0  0
    1.7138   -0.1756   -1.6697 H   0  0  0  0  0  0  0  0  0  0  0  0
    0.3570   -1.1327   -2.2368 H   0  0  0  0  0  0  0  0  0  0  0  0
    0.2369    0.9611   -2.6595 C   0  0  0  0  0  0  0  0  0  0  0  0
    0.2585    2.1062   -2.2512 O   0  0  0  0  0  0  0  0  0  0  0  0
   -0.1083    0.6406   -3.9249 O   0  0  0  0  0  0  0  0  0  0  0  0
   -0.3320    1.4860   -4.3440 H   0  0  0  0  0  0  0  0  0  0  0  0
   -0.0997    1.1421    0.4296 C   0  0  0  0  0  0  0  0  0  0  0  0
   -1.1919    1.7015    0.4334 O   0  0  0  0  0  0  0  0  0  0  0  0
    0.8614    1.5597    1.3327 N   0  0  0  0  0  0  0  0  0  0  0  0
    1.7443    1.0586    1.3500 H   0  0  0  0  0  0  0  0  0  0  0  0
    0.7196    2.7622    2.1451 C   0  0  0  0  0  0  0  0  0  0  0  0
   -0.1449    2.6749    2.8117 H   0  0  0  0  0  0  0  0  0  0  0  0
    1.6135    2.9131    2.7577 H   0  0  0  0  0  0  0  0  0  0  0  0
    0.5849    3.6417    1.5064 H   0  0  0  0  0  0  0  0  0  0  0  0
  1  2  1  0  0  0  0
  2  3  1  0  0  0  0
  2  4  1  0  0  0  0
  2  5  1  0  0  0  0
  5  6  2  0  0  0  0
  5  7  1  0  0  0  0
  7  8  1  0  0  0  0
  7  9  1  0  0  0  0
  9 10  1  0  0  0  0
  9 11  1  0  0  0  0
  9 18  1  0  0  0  0
 11 12  1  0  0  0  0
 11 13  1  0  0  0  0
 11 14  1  0  0  0  0
 14 15  2  0  0  0  0
 14 16  1  0  0  0  0
 16 17  1  0  0  0  0
 18 19  2  0  0  0  0
 18 20  1  0  0  0  0
 20 21  1  0  0  0  0
 20 22  1  0  0  0  0
 22 23  1  0  0  0  0
 22 24  1  0  0  0  0
 22 25  1  0  0  0  0
M  END
$$$$

  -OEChem-03222214023D

 25 24  0     1  0  0  0  0  0999 V2000
   -2.6883   -3.9377    0.4631 H   0  0  0  0  0  0  0  0  0  0  0  0
   -2.7537   -2.8827    0.1833 C   0  0  0  0  0  0  0  0  0  0  0  0
   -3.2956   -2.3441    0.9646 H   0  0  0  0  0  0  0  0  0  0  0  0
   -3.3053   -2.8002   -0.7563 H   0  0  0  0  0  0  0  0  0  0  0  0
   -1.3635   -2.2982    0.0198 C   0  0  0  0  0  0  0  0  0  0  0  0
   -0.3791   -3.0072    0.1611 O   0  0  0  0  0  0  0  0  0  0  0  0
   -1.2117   -0.9628   -0.2904 N   0  0  0  0  0  0  0  0  0  0  0  0
   -2.0524   -0.3845   -0.2817 H   0  0  0  0  0  0  0  0  0  0  0  0
    0.0722   -0.2464   -0.2914 C   0  0  1  0  0  0  0  0  0  0  0  0
    0.7831   -0.8140    0.3187 H   0  0  0  0  0  0  0  0  0  0  0  0
    0.6344   -0.2173   -1.7330 C   0  0  0  0  0  0  0  0  0  0  0  0
    1.7251   -0.2012   -1.6747 H   0  0  0  0  0  0  0  0  0  0  0  0
    0.3574   -1.1414   -2.2481 H   0  0  0  0  0  0  0  0  0  0  0  0
    0.2293    0.9682   -2.6046 C   0  0  0  0  0  0  0  0  0  0  0  0
    0.5212    2.0957   -2.2503 O   0  0  0  0  0  0  0  0  0  0  0  0
   -0.4502    0.7045   -3.7412 O   0  0  0  0  0  0  0  0  0  0  0  0
   -0.6384    1.5743   -4.1264 H   0  0  0  0  0  0  0  0  0  0  0  0
   -0.0867    1.1187    0.4165 C   0  0  0  0  0  0  0  0  0  0  0  0
   -1.1653    1.7008    0.3575 O   0  0  0  0  0  0  0  0  0  0  0  0
    0.8577    1.5490    1.3306 N   0  0  0  0  0  0  0  0  0  0  0  0
    1.7377    1.0443    1.3739 H   0  0  0  0  0  0  0  0  0  0  0  0
    0.7168    2.7821    2.0956 C   0  0  0  0  0  0  0  0  0  0  0  0
   -0.1852    2.7477    2.7158 H   0  0  0  0  0  0  0  0  0  0  0  0
    1.5811    2.9215    2.7520 H   0  0  0  0  0  0  0  0  0  0  0  0
    0.6494    3.6439    1.4231 H   0  0  0  0  0  0  0  0  0  0  0  0
  1  2  1  0  0  0  0
  2  3  1  0  0  0  0
  2  4  1  0  0  0  0
  2  5  1  0  0  0  0
  5  6  2  0  0  0  0
  5  7  1  0  0  0  0
  7  8  1  0  0  0  0
  7  9  1  0  0  0  0
  9 10  1  0  0  0  0
  9 11  1  0  0  0  0
  9 18  1  0  0  0  0
 11 12  1  0  0  0  0
 11 13  1  0  0  0  0
 11 14  1  0  0  0  0
 14 15  2  0  0  0  0
 14 16  1  0  0  0  0
 16 17  1  0  0  0  0
 18 19  2  0  0  0  0
 18 20  1  0  0  0  0
 20 21  1  0  0  0  0
 20 22  1  0  0  0  0
 22 23  1  0  0  0  0
 22 24  1  0  0  0  0
 22 25  1  0  0  0  0
M  END
$$$$

  -OEChem-03222214023D

 25 24  0     1  0  0  0  0  0999 V2000
   -2.6984   -3.9588    0.4540 H   0  0  0  0  0  0  0  0  0  0  0  0
   -2.7564   -2.9077    0.1585 C   0  0  0  0  0  0  0  0  0  0  0  0
   -3.3273   -2.3611    0.9130 H   0  0  0  0  0  0  0  0  0  0  0  0
   -3.2742   -2.8391   -0.8013 H   0  0  0  0  0  0  0  0  0  0  0  0
   -1.3630   -2.3204    0.0369 C   0  0  0  0  0  0  0  0  0  0  0  0
   -0.3820   -3.0250    0.2177 O   0  0  0  0  0  0  0  0  0  0  0  0
   -1.2048   -0.9884   -0.2840 N   0  0  0  0  0  0  0  0  0  0  0  0
   -2.0472   -0.4149   -0.3274 H   0  0  0  0  0  0  0  0  0  0  0  0
    0.0783   -0.2713   -0.2769 C   0  0  1  0  0  0  0  0  0  0  0  0
    0.7899   -0.8364    0.3345 H   0  0  0  0  0  0  0  0  0  0  0  0
    0.6375   -0.2284   -1.7163 C   0  0  0  0  0  0  0  0  0  0  0  0
    1.7288   -0.2105   -1.6663 H   0  0  0  0  0  0  0  0  0  0  0  0
    0.3561   -1.1401   -2.2499 H   0  0  0  0  0  0  0  0  0  0  0  0
    0.2062    0.9794   -2.5391 C   0  0  0  0  0  0  0  0  0  0  0  0
    0.7227    2.0570   -2.3024 O   0  0  0  0  0  0  0  0  0  0  0  0
   -0.7425    0.8009   -3.4830 O   0  0  0  0  0  0  0  0  0  0  0  0
   -0.9011    1.6854   -3.8475 H   0  0  0  0  0  0  0  0  0  0  0  0
   -0.0814    1.1019    0.4139 C   0  0  0  0  0  0  0  0  0  0  0  0
   -1.1394    1.7115    0.2973 O   0  0  0  0  0  0  0  0  0  0  0  0
    0.8537    1.5414    1.3327 N   0  0  0  0  0  0  0  0  0  0  0  0
    1.7246    1.0238    1.4037 H   0  0  0  0  0  0  0  0  0  0  0  0
    0.7330    2.8104    2.0401 C   0  0  0  0  0  0  0  0  0  0  0  0
   -0.1922    2.8384    2.6255 H   0  0  0  0  0  0  0  0  0  0  0  0
    1.5766    2.9441    2.7238 H   0  0  0  0  0  0  0  0  0  0  0  0
    0.7261    3.6438    1.3297 H   0  0  0  0  0  0  0  0  0  0  0  0
  1  2  1  0  0  0  0
  2  3  1  0  0  0  0
  2  4  1  0  0  0  0
  2  5  1  0  0  0  0
  5  6  2  0  0  0  0
  5  7  1  0  0  0  0
  7  8  1  0  0  0  0
  7  9  1  0  0  0  0
  9 10  1  0  0  0  0
  9 11  1  0  0  0  0
  9 18  1  0  0  0  0
 11 12  1  0  0  0  0
 11 13  1  0  0  0  0
 11 14  1  0  0  0  0
 14 15  2  0  0  0  0
 14 16  1  0  0  0  0
 16 17  1  0  0  0  0
 18 19  2  0  0  0  0
 18 20  1  0  0  0  0
 20 21  1  0  0  0  0
 20 22  1  0  0  0  0
 22 23  1  0  0  0  0
 22 24  1  0  0  0  0
 22 25  1  0  0  0  0
M  END
$$$$

  -OEChem-03222214023D

 25 24  0     1  0  0  0  0  0999 V2000
   -2.7010   -3.9802    0.4274 H   0  0  0  0  0  0  0  0  0  0  0  0
   -2.7579   -2.9272    0.1382 C   0  0  0  0  0  0  0  0  0  0  0  0
   -3.3486   -2.3888    0.8832 H   0  0  0  0  0  0  0  0  0  0  0  0
   -3.2543   -2.8544   -0.8323 H   0  0  0  0  0  0  0  0  0  0  0  0
   -1.3652   -2.3319    0.0530 C   0  0  0  0  0  0  0  0  0  0  0  0
   -0.3862   -3.0281    0.2723 O   0  0  0  0  0  0  0  0  0  0  0  0
   -1.2050   -1.0024   -0.2771 N   0  0  0  0  0  0  0  0  0  0  0  0
   -2.0488   -0.4380   -0.3759 H   0  0  0  0  0  0  0  0  0  0  0  0
    0.0754   -0.2812   -0.2676 C   0  0  1  0  0  0  0  0  0  0  0  0
    0.7874   -0.8436    0.3457 H   0  0  0  0  0  0  0  0  0  0  0  0
    0.6368   -0.2320   -1.7038 C   0  0  0  0  0  0  0  0  0  0  0  0
    1.7287   -0.2104   -1.6560 H   0  0  0  0  0  0  0  0  0  0  0  0
    0.3555   -1.1370   -2.2488 H   0  0  0  0  0  0  0  0  0  0  0  0
    0.1839    0.9866   -2.4964 C   0  0  0  0  0  0  0  0  0  0  0  0
    0.8695    1.9924   -2.4425 O   0  0  0  0  0  0  0  0  0  0  0  0
   -0.9607    0.9003   -3.2076 O   0  0  0  0  0  0  0  0  0  0  0  0
   -1.0936    1.7882   -3.5738 H   0  0  0  0  0  0  0  0  0  0  0  0
   -0.0763    1.1004    0.4083 C   0  0  0  0  0  0  0  0  0  0  0  0
   -1.1127    1.7367    0.2523 O   0  0  0  0  0  0  0  0  0  0  0  0
    0.8587    1.5451    1.3244 N   0  0  0  0  0  0  0  0  0  0  0  0
    1.7097    1.0017    1.4347 H   0  0  0  0  0  0  0  0  0  0  0  0
    0.7496    2.8267    2.0111 C   0  0  0  0  0  0  0  0  0  0  0  0
   -0.1686    2.8665    2.6066 H   0  0  0  0  0  0  0  0  0  0  0  0
    1.6020    2.9707    2.6819 H   0  0  0  0  0  0  0  0  0  0  0  0
    0.7358    3.6483    1.2869 H   0  0  0  0  0  0  0  0  0  0  0  0
  1  2  1  0  0  0  0
  2  3  1  0  0  0  0
  2  4  1  0  0  0  0
  2  5  1  0  0  0  0
  5  6  2  0  0  0  0
  5  7  1  0  0  0  0
  7  8  1  0  0  0  0
  7  9  1  0  0  0  0
  9 10  1  0  0  0  0
  9 11  1  0  0  0  0
  9 18  1  0  0  0  0
 11 12  1  0  0  0  0
 11 13  1  0  0  0  0
 11 14  1  0  0  0  0
 14 15  2  0  0  0  0
 14 16  1  0  0  0  0
 16 17  1  0  0  0  0
 18 19  2  0  0  0  0
 18 20  1  0  0  0  0
 20 21  1  0  0  0  0
 20 22  1  0  0  0  0
 22 23  1  0  0  0  0
 22 24  1  0  0  0  0
 22 25  1  0  0  0  0
M  END
$$$$

  -OEChem-03222214023D

 25 24  0     1  0  0  0  0  0999 V2000
   -2.6943   -3.9983    0.4000 H   0  0  0  0  0  0  0  0  0  0  0  0
   -2.7554   -2.9437    0.1171 C   0  0  0  0  0  0  0  0  0  0  0  0
   -3.3700   -2.4171    0.8512 H   0  0  0  0  0  0  0  0  0  0  0  0
   -3.2289   -2.8688   -0.8648 H   0  0  0  0  0  0  0  0  0  0  0  0
   -1.3674   -2.3332    0.0700 C   0  0  0  0  0  0  0  0  0  0  0  0
   -0.3874   -3.0187    0.3168 O   0  0  0  0  0  0  0  0  0  0  0  0
   -1.2128   -1.0033   -0.2611 N   0  0  0  0  0  0  0  0  0  0  0  0
   -2.0585   -0.4522   -0.4070 H   0  0  0  0  0  0  0  0  0  0  0  0
    0.0624   -0.2731   -0.2555 C   0  0  1  0  0  0  0  0  0  0  0  0
    0.7769   -0.8336    0.3563 H   0  0  0  0  0  0  0  0  0  0  0  0
    0.6252   -0.2237   -1.6903 C   0  0  0  0  0  0  0  0  0  0  0  0
    1.7171   -0.1944   -1.6417 H   0  0  0  0  0  0  0  0  0  0  0  0
    0.3487   -1.1297   -2.2355 H   0  0  0  0  0  0  0  0  0  0  0  0
    0.1568    0.9922   -2.4784 C   0  0  0  0  0  0  0  0  0  0  0  0
    0.9486    1.9012   -2.6542 O   0  0  0  0  0  0  0  0  0  0  0  0
   -1.1052    0.9963   -2.9604 O   0  0  0  0  0  0  0  0  0  0  0  0
   -1.2161    1.8704   -3.3648 H   0  0  0  0  0  0  0  0  0  0  0  0
   -0.0766    1.1117    0.4158 C   0  0  0  0  0  0  0  0  0  0  0  0
   -1.0962    1.7704    0.2473 O   0  0  0  0  0  0  0  0  0  0  0  0
    0.8699    1.5521    1.3222 N   0  0  0  0  0  0  0  0  0  0  0  0
    1.6998    0.9821    1.4575 H   0  0  0  0  0  0  0  0  0  0  0  0
    0.7763    2.8335    2.0115 C   0  0  0  0  0  0  0  0  0  0  0  0
   -0.1301    2.8741    2.6247 H   0  0  0  0  0  0  0  0  0  0  0  0
    1.6419    2.9760    2.6654 H   0  0  0  0  0  0  0  0  0  0  0  0
    0.7499    3.6556    1.2883 H   0  0  0  0  0  0  0  0  0  0  0  0
  1  2  1  0  0  0  0
  2  3  1  0  0  0  0
  2  4  1  0  0  0  0
  2  5  1  0  0  0  0
  5  6  2  0  0  0  0
  5  7  1  0  0  0  0
  7  8  1  0  0  0  0
  7  9  1  0  0  0  0
  9 10  1  0  0  0  0
  9 11  1  0  0  0  0
  9 18  1  0  0  0  0
 11 12  1  0  0  0  0
 11 13  1  0  0  0  0
 11 14  1  0  0  0  0
 14 15  2  0  0  0  0
 14 16  1  0  0  0  0
 16 17  1  0  0  0  0
 18 19  2  0  0  0  0
 18 20  1  0  0  0  0
 20 21  1  0  0  0  0
 20 22  1  0  0  0  0
 22 23  1  0  0  0  0
 22 24  1  0  0  0  0
 22 25  1  0  0  0  0
M  END
$$$$

  -OEChem-03222214023D

 25 24  0     1  0  0  0  0  0999 V2000
   -2.6807   -4.0062    0.3847 H   0  0  0  0  0  0  0  0  0  0  0  0
   -2.7501   -2.9508    0.1064 C   0  0  0  0  0  0  0  0  0  0  0  0
   -3.3790   -2.4344    0.8358 H   0  0  0  0  0  0  0  0  0  0  0  0
   -3.2128   -2.8760   -0.8807 H   0  0  0  0  0  0  0  0  0  0  0  0
   -1.3682   -2.3255    0.0785 C   0  0  0  0  0  0  0  0  0  0  0  0
   -0.3837   -3.0025    0.3312 O   0  0  0  0  0  0  0  0  0  0  0  0
   -1.2238   -0.9926   -0.2451 N   0  0  0  0  0  0  0  0  0  0  0  0
   -2.0722   -0.4526   -0.4153 H   0  0  0  0  0  0  0  0  0  0  0  0
    0.0452   -0.2521   -0.2458 C   0  0  1  0  0  0  0  0  0  0  0  0
    0.7618   -0.8131    0.3634 H   0  0  0  0  0  0  0  0  0  0  0  0
    0.6109   -0.2072   -1.6799 C   0  0  0  0  0  0  0  0  0  0  0  0
    1.7024   -0.1699   -1.6266 H   0  0  0  0  0  0  0  0  0  0  0  0
    0.3421   -1.1196   -2.2179 H   0  0  0  0  0  0  0  0  0  0  0  0
    0.1355    0.9970   -2.4831 C   0  0  0  0  0  0  0  0  0  0  0  0
    0.9743    1.7743   -2.9022 O   0  0  0  0  0  0  0  0  0  0  0  0
   -1.1824    1.0978   -2.7647 O   0  0  0  0  0  0  0  0  0  0  0  0
   -1.2759    1.9365   -3.2414 H   0  0  0  0  0  0  0  0  0  0  0  0
   -0.0781    1.1315    0.4312 C   0  0  0  0  0  0  0  0  0  0  0  0
   -1.0899    1.8044    0.2778 O   0  0  0  0  0  0  0  0  0  0  0  0
    0.8857    1.5611    1.3250 N   0  0  0  0  0  0  0  0  0  0  0  0
    1.7005    0.9708    1.4662 H   0  0  0  0  0  0  0  0  0  0  0  0
    0.8030    2.8288    2.0411 C   0  0  0  0  0  0  0  0  0  0  0  0
   -0.0950    2.8576    2.6673 H   0  0  0  0  0  0  0  0  0  0  0  0
    1.6777    2.9574    2.6860 H   0  0  0  0  0  0  0  0  0  0  0  0
    0.7678    3.6656    1.3354 H   0  0  0  0  0  0  0  0  0  0  0  0
  1  2  1  0  0  0  0
  2  3  1  0  0  0  0
  2  4  1  0  0  0  0
  2  5  1  0  0  0  0
  5  6  2  0  0  0  0
  5  7  1  0  0  0  0
  7  8  1  0  0  0  0
  7  9  1  0  0  0  0
  9 10  1  0  0  0  0
  9 11  1  0  0  0  0
  9 18  1  0  0  0  0
 11 12  1  0  0  0  0
 11 13  1  0  0  0  0
 11 14  1  0  0  0  0
 14 15  2  0  0  0  0
 14 16  1  0  0  0  0
 16 17  1  0  0  0  0
 18 19  2  0  0  0  0
 18 20  1  0  0  0  0
 20 21  1  0  0  0  0
 20 22  1  0  0  0  0
 22 23  1  0  0  0  0
 22 24  1  0  0  0  0
 22 25  1  0  0  0  0
M  END
$$$$

  -OEChem-03222214023D

 25 24  0     1  0  0  0  0  0999 V2000
   -2.6687   -4.0021    0.3818 H   0  0  0  0  0  0  0  0  0  0  0  0
   -2.7454   -2.9456    0.1101 C   0  0  0  0  0  0  0  0  0  0  0  0
   -3.3730   -2.4369    0.8460 H   0  0  0  0  0  0  0  0  0  0  0  0
   -3.2137   -2.8674   -0.8741 H   0  0  0  0  0  0  0  0  0  0  0  0
   -1.3674   -2.3121    0.0781 C   0  0  0  0  0  0  0  0  0  0  0  0
   -0.3770   -2.9862    0.3148 O   0  0  0  0  0  0  0  0  0  0  0  0
   -1.2337   -0.9757   -0.2349 N   0  0  0  0  0  0  0  0  0  0  0  0
   -2.0866   -0.4397   -0.3946 H   0  0  0  0  0  0  0  0  0  0  0  0
    0.0291   -0.2253   -0.2436 C   0  0  1  0  0  0  0  0  0  0  0  0
    0.7459   -0.7869    0.3648 H   0  0  0  0  0  0  0  0  0  0  0  0
    0.6049   -0.1870   -1.6742 C   0  0  0  0  0  0  0  0  0  0  0  0
    1.6953   -0.1385   -1.6093 H   0  0  0  0  0  0  0  0  0  0  0  0
    0.3500   -1.1093   -2.2019 H   0  0  0  0  0  0  0  0  0  0  0  0
    0.1336    0.9996   -2.5071 C   0  0  0  0  0  0  0  0  0  0  0  0
    0.9686    1.6067   -3.1528 O   0  0  0  0  0  0  0  0  0  0  0  0
   -1.1948    1.2232   -2.6142 O   0  0  0  0  0  0  0  0  0  0  0  0
   -1.2794    2.0082   -3.1757 H   0  0  0  0  0  0  0  0  0  0  0  0
   -0.0808    1.1547    0.4436 C   0  0  0  0  0  0  0  0  0  0  0  0
   -1.1000    1.8245    0.3358 O   0  0  0  0  0  0  0  0  0  0  0  0
    0.9018    1.5712    1.3231 N   0  0  0  0  0  0  0  0  0  0  0  0
    1.7119    0.9711    1.4493 H   0  0  0  0  0  0  0  0  0  0  0  0
    0.8194    2.8108    2.0866 C   0  0  0  0  0  0  0  0  0  0  0  0
   -0.0660    2.8056    2.7310 H   0  0  0  0  0  0  0  0  0  0  0  0
    1.7055    2.9262    2.7181 H   0  0  0  0  0  0  0  0  0  0  0  0
    0.7604    3.6722    1.4130 H   0  0  0  0  0  0  0  0  0  0  0  0
  1  2  1  0  0  0  0
  2  3  1  0  0  0  0
  2  4  1  0  0  0  0
  2  5  1  0  0  0  0
  5  6  2  0  0  0  0
  5  7  1  0  0  0  0
  7  8  1  0  0  0  0
  7  9  1  0  0  0  0
  9 10  1  0  0  0  0
  9 11  1  0  0  0  0
  9 18  1  0  0  0  0
 11 12  1  0  0  0  0
 11 13  1  0  0  0  0
 11 14  1  0  0  0  0
 14 15  2  0  0  0  0
 14 16  1  0  0  0  0
 16 17  1  0  0  0  0
 18 19  2  0  0  0  0
 18 20  1  0  0  0  0
 20 21  1  0  0  0  0
 20 22  1  0  0  0  0
 22 23  1  0  0  0  0
 22 24  1  0  0  0  0
 22 25  1  0  0  0  0
M  END
$$$$

  -OEChem-03222214023D

 25 24  0     1  0  0  0  0  0999 V2000
   -2.6546   -3.9889    0.3919 H   0  0  0  0  0  0  0  0  0  0  0  0
   -2.7416   -2.9294    0.1352 C   0  0  0  0  0  0  0  0  0  0  0  0
   -3.3415   -2.4296    0.8997 H   0  0  0  0  0  0  0  0  0  0  0  0
   -3.2462   -2.8405   -0.8299 H   0  0  0  0  0  0  0  0  0  0  0  0
   -1.3661   -2.2943    0.0599 C   0  0  0  0  0  0  0  0  0  0  0  0
   -0.3673   -2.9695    0.2551 O   0  0  0  0  0  0  0  0  0  0  0  0
   -1.2447   -0.9534   -0.2392 N   0  0  0  0  0  0  0  0  0  0  0  0
   -2.1036   -0.4138   -0.3458 H   0  0  0  0  0  0  0  0  0  0  0  0
    0.0140   -0.1962   -0.2544 C   0  0  1  0  0  0  0  0  0  0  0  0
    0.7272   -0.7598    0.3563 H   0  0  0  0  0  0  0  0  0  0  0  0
    0.6095   -0.1668   -1.6783 C   0  0  0  0  0  0  0  0  0  0  0  0
    1.6982   -0.1114   -1.5929 H   0  0  0  0  0  0  0  0  0  0  0  0
    0.3694   -1.1006   -2.1928 H   0  0  0  0  0  0  0  0  0  0  0  0
    0.1606    0.9968   -2.5574 C   0  0  0  0  0  0  0  0  0  0  0  0
    0.9498    1.3948   -3.3949 O   0  0  0  0  0  0  0  0  0  0  0  0
   -1.1271    1.3991   -2.5092 O   0  0  0  0  0  0  0  0  0  0  0  0
   -1.2025    2.1105   -3.1623 H   0  0  0  0  0  0  0  0  0  0  0  0
   -0.0872    1.1765    0.4488 C   0  0  0  0  0  0  0  0  0  0  0  0
   -1.1269    1.8219    0.4129 O   0  0  0  0  0  0  0  0  0  0  0  0
    0.9109    1.5806    1.3175 N   0  0  0  0  0  0  0  0  0  0  0  0
    1.7250    0.9810    1.4171 H   0  0  0  0  0  0  0  0  0  0  0  0
    0.8151    2.7776    2.1453 C   0  0  0  0  0  0  0  0  0  0  0  0
   -0.0252    2.6945    2.8428 H   0  0  0  0  0  0  0  0  0  0  0  0
    1.7338    2.9119    2.7245 H   0  0  0  0  0  0  0  0  0  0  0  0
    0.6682    3.6650    1.5205 H   0  0  0  0  0  0  0  0  0  0  0  0
  1  2  1  0  0  0  0
  2  3  1  0  0  0  0
  2  4  1  0  0  0  0
  2  5  1  0  0  0  0
  5  6  2  0  0  0  0
  5  7  1  0  0  0  0
  7  8  1  0  0  0  0
  7  9  1  0  0  0  0
  9 10  1  0  0  0  0
  9 11  1  0  0  0  0
  9 18  1  0  0  0  0
 11 12  1  0  0  0  0
 11 13  1  0  0  0  0
 11 14  1  0  0  0  0
 14 15  2  0  0  0  0
 14 16  1  0  0  0  0
 16 17  1  0  0  0  0
 18 19  2  0  0  0  0
 18 20  1  0  0  0  0
 20 21  1  0  0  0  0
 20 22  1  0  0  0  0
 22 23  1  0  0  0  0
 22 24  1  0  0  0  0
 22 25  1  0  0  0  0
M  END
$$$$

  -OEChem-03222214023D

 25 24  0     1  0  0  0  0  0999 V2000
   -2.6362   -3.9757    0.4165 H   0  0  0  0  0  0  0  0  0  0  0  0
   -2.7347   -2.9174    0.1592 C   0  0  0  0  0  0  0  0  0  0  0  0
   -3.3107   -2.4168    0.9412 H   0  0  0  0  0  0  0  0  0  0  0  0
   -3.2708   -2.8334   -0.7892 H   0  0  0  0  0  0  0  0  0  0  0  0
   -1.3637   -2.2797    0.0368 C   0  0  0  0  0  0  0  0  0  0  0  0
   -0.3575   -2.9567    0.1820 O   0  0  0  0  0  0  0  0  0  0  0  0
   -1.2543   -0.9341   -0.2473 N   0  0  0  0  0  0  0  0  0  0  0  0
   -2.1163   -0.3903   -0.2851 H   0  0  0  0  0  0  0  0  0  0  0  0
    0.0015   -0.1716   -0.2673 C   0  0  1  0  0  0  0  0  0  0  0  0
    0.7116   -0.7361    0.3462 H   0  0  0  0  0  0  0  0  0  0  0  0
    0.6146   -0.1526   -1.6861 C   0  0  0  0  0  0  0  0  0  0  0  0
    1.7009   -0.0914   -1.5822 H   0  0  0  0  0  0  0  0  0  0  0  0
    0.3882   -1.0983   -2.1856 H   0  0  0  0  0  0  0  0  0  0  0  0
    0.1949    0.9846   -2.6147 C   0  0  0  0  0  0  0  0  0  0  0  0
    0.8837    1.1548   -3.6040 O   0  0  0  0  0  0  0  0  0  0  0  0
   -0.9721    1.6291   -2.4155 O   0  0  0  0  0  0  0  0  0  0  0  0
   -1.0502    2.2637   -3.1430 H   0  0  0  0  0  0  0  0  0  0  0  0
   -0.1014    1.1915    0.4553 C   0  0  0  0  0  0  0  0  0  0  0  0
   -1.1669    1.7940    0.4972 O   0  0  0  0  0  0  0  0  0  0  0  0
    0.9060    1.5869    1.3176 N   0  0  0  0  0  0  0  0  0  0  0  0
    1.7397    1.0089    1.3696 H   0  0  0  0  0  0  0  0  0  0  0  0
    0.7998    2.7458    2.1966 C   0  0  0  0  0  0  0  0  0  0  0  0
   -0.0312    2.6196    2.8985 H   0  0  0  0  0  0  0  0  0  0  0  0
    1.7223    2.8707    2.7718 H   0  0  0  0  0  0  0  0  0  0  0  0
    0.6318    3.6561    1.6113 H   0  0  0  0  0  0  0  0  0  0  0  0
  1  2  1  0  0  0  0
  2  3  1  0  0  0  0
  2  4  1  0  0  0  0
  2  5  1  0  0  0  0
  5  6  2  0  0  0  0
  5  7  1  0  0  0  0
  7  8  1  0  0  0  0
  7  9  1  0  0  0  0
  9 10  1  0  0  0  0
  9 11  1  0  0  0  0
  9 18  1  0  0  0  0
 11 12  1  0  0  0  0
 11 13  1  0  0  0  0
 11 14  1  0  0  0  0
 14 15  2  0  0  0  0
 14 16  1  0  0  0  0
 16 17  1  0  0  0  0
 18 19  2  0  0  0  0
 18 20  1  0  0  0  0
 20 21  1  0  0  0  0
 20 22  1  0  0  0  0
 22 23  1  0  0  0  0
 22 24  1  0  0  0  0
 22 25  1  0  0  0  0
M  END
$$$$

  -OEChem-03222214023D

 25 24  0     1  0  0  0  0  0999 V2000
   -2.6206   -3.9554    0.4330 H   0  0  0  0  0  0  0  0  0  0  0  0
   -2.7212   -2.8922    0.1976 C   0  0  0  0  0  0  0  0  0  0  0  0
   -3.2455   -2.3976    1.0188 H   0  0  0  0  0  0  0  0  0  0  0  0
   -3.3098   -2.7874   -0.7170 H   0  0  0  0  0  0  0  0  0  0  0  0
   -1.3524   -2.2673    0.0065 C   0  0  0  0  0  0  0  0  0  0  0  0
   -0.3472   -2.9560    0.0884 O   0  0  0  0  0  0  0  0  0  0  0  0
   -1.2434   -0.9179   -0.2592 N   0  0  0  0  0  0  0  0  0  0  0  0
   -2.0964   -0.3614   -0.1977 H   0  0  0  0  0  0  0  0  0  0  0  0
    0.0213   -0.1678   -0.2783 C   0  0  1  0  0  0  0  0  0  0  0  0
    0.7339   -0.7361    0.3293 H   0  0  0  0  0  0  0  0  0  0  0  0
    0.6155   -0.1588   -1.7145 C   0  0  0  0  0  0  0  0  0  0  0  0
    1.6799   -0.3890   -1.6230 H   0  0  0  0  0  0  0  0  0  0  0  0
    0.1645   -0.9750   -2.2857 H   0  0  0  0  0  0  0  0  0  0  0  0
    0.5357    1.1009   -2.5813 C   0  0  0  0  0  0  0  0  0  0  0  0
    1.0309    1.0022   -3.6889 O   0  0  0  0  0  0  0  0  0  0  0  0
   -0.0377    2.2370   -2.1420 O   0  0  0  0  0  0  0  0  0  0  0  0
    0.0185    2.8617   -2.8806 H   0  0  0  0  0  0  0  0  0  0  0  0
   -0.1190    1.1729    0.4787 C   0  0  0  0  0  0  0  0  0  0  0  0
   -1.2147    1.7216    0.5396 O   0  0  0  0  0  0  0  0  0  0  0  0
    0.8677    1.5746    1.3619 N   0  0  0  0  0  0  0  0  0  0  0  0
    1.7330    1.0431    1.3806 H   0  0  0  0  0  0  0  0  0  0  0  0
    0.7224    2.7142    2.2600 C   0  0  0  0  0  0  0  0  0  0  0  0
   -0.1080    2.5511    2.9551 H   0  0  0  0  0  0  0  0  0  0  0  0
    1.6375    2.8560    2.8427 H   0  0  0  0  0  0  0  0  0  0  0  0
    0.5305    3.6294    1.6897 H   0  0  0  0  0  0  0  0  0  0  0  0
  1  2  1  0  0  0  0
  2  3  1  0  0  0  0
  2  4  1  0  0  0  0
  2  5  1  0  0  0  0
  5  6  2  0  0  0  0
  5  7  1  0  0  0  0
  7  8  1  0  0  0  0
  7  9  1  0  0  0  0
  9 10  1  0  0  0  0
  9 11  1  0  0  0  0
  9 18  1  0  0  0  0
 11 12  1  0  0  0  0
 11 13  1  0  0  0  0
 11 14  1  0  0  0  0
 14 15  2  0  0  0  0
 14 16  1  0  0  0  0
 16 17  1  0  0  0  0
 18 19  2  0  0  0  0
 18 20  1  0  0  0  0
 20 21  1  0  0  0  0
 20 22  1  0  0  0  0
 22 23  1  0  0  0  0
 22 24  1  0  0  0  0
 22 25  1  0  0  0  0
M  END
$$$$

  -OEChem-03222214023D

 25 24  0     1  0  0  0  0  0999 V2000
   -2.6372   -3.9643    0.4080 H   0  0  0  0  0  0  0  0  0  0  0  0
   -2.7263   -2.8997    0.1742 C   0  0  0  0  0  0  0  0  0  0  0  0
   -3.2540   -2.4021    0.9915 H   0  0  0  0  0  0  0  0  0  0  0  0
   -3.3056   -2.7883   -0.7455 H   0  0  0  0  0  0  0  0  0  0  0  0
   -1.3505   -2.2858   -0.0033 C   0  0  0  0  0  0  0  0  0  0  0  0
   -0.3514   -2.9822    0.0870 O   0  0  0  0  0  0  0  0  0  0  0  0
   -1.2283   -0.9366   -0.2643 N   0  0  0  0  0  0  0  0  0  0  0  0
   -2.0773   -0.3736   -0.2075 H   0  0  0  0  0  0  0  0  0  0  0  0
    0.0438   -0.1978   -0.2701 C   0  0  1  0  0  0  0  0  0  0  0  0
    0.7649   -0.7708    0.3228 H   0  0  0  0  0  0  0  0  0  0  0  0
    0.6037   -0.1576   -1.7207 C   0  0  0  0  0  0  0  0  0  0  0  0
    1.6678   -0.3974   -1.6596 H   0  0  0  0  0  0  0  0  0  0  0  0
    0.1349   -0.9570   -2.3019 H   0  0  0  0  0  0  0  0  0  0  0  0
    0.5202    1.1280   -2.5499 C   0  0  0  0  0  0  0  0  0  0  0  0
    0.7126    0.9913   -3.7442 O   0  0  0  0  0  0  0  0  0  0  0  0
    0.4174    2.3396   -1.9680 O   0  0  0  0  0  0  0  0  0  0  0  0
    0.4172    2.9773   -2.6979 H   0  0  0  0  0  0  0  0  0  0  0  0
   -0.1241    1.1344    0.4961 C   0  0  0  0  0  0  0  0  0  0  0  0
   -1.2149    1.6971    0.4938 O   0  0  0  0  0  0  0  0  0  0  0  0
    0.8361    1.5450    1.4034 N   0  0  0  0  0  0  0  0  0  0  0  0
    1.7160    1.0384    1.4238 H   0  0  0  0  0  0  0  0  0  0  0  0
    0.6857    2.7282    2.2419 C   0  0  0  0  0  0  0  0  0  0  0  0
   -0.1788    2.6210    2.9055 H   0  0  0  0  0  0  0  0  0  0  0  0
    1.5782    2.8715    2.8585 H   0  0  0  0  0  0  0  0  0  0  0  0
    0.5461    3.6202    1.6221 H   0  0  0  0  0  0  0  0  0  0  0  0
  1  2  1  0  0  0  0
  2  3  1  0  0  0  0
  2  4  1  0  0  0  0
  2  5  1  0  0  0  0
  5  6  2  0  0  0  0
  5  7  1  0  0  0  0
  7  8  1  0  0  0  0
  7  9  1  0  0  0  0
  9 10  1  0  0  0  0
  9 11  1  0  0  0  0
  9 18  1  0  0  0  0
 11 12  1  0  0  0  0
 11 13  1  0  0  0  0
 11 14  1  0  0  0  0
 14 15  2  0  0  0  0
 14 16  1  0  0  0  0
 16 17  1  0  0  0  0
 18 19  2  0  0  0  0
 18 20  1  0  0  0  0
 20 21  1  0  0  0  0
 20 22  1  0  0  0  0
 22 23  1  0  0  0  0
 22 24  1  0  0  0  0
 22 25  1  0  0  0  0
M  END
$$$$

  -OEChem-03222214023D

 25 24  0     1  0  0  0  0  0999 V2000
   -2.6525   -3.9663    0.4126 H   0  0  0  0  0  0  0  0  0  0  0  0
   -2.7321   -2.9055    0.1588 C   0  0  0  0  0  0  0  0  0  0  0  0
   -3.2823   -2.3940    0.9522 H   0  0  0  0  0  0  0  0  0  0  0  0
   -3.2840   -2.8080   -0.7792 H   0  0  0  0  0  0  0  0  0  0  0  0
   -1.3498   -2.2979    0.0117 C   0  0  0  0  0  0  0  0  0  0  0  0
   -0.3564   -2.9973    0.1344 O   0  0  0  0  0  0  0  0  0  0  0  0
   -1.2145   -0.9524   -0.2614 N   0  0  0  0  0  0  0  0  0  0  0  0
   -2.0618   -0.3845   -0.2395 H   0  0  0  0  0  0  0  0  0  0  0  0
    0.0635   -0.2238   -0.2603 C   0  0  1  0  0  0  0  0  0  0  0  0
    0.7890   -0.7967    0.3270 H   0  0  0  0  0  0  0  0  0  0  0  0
    0.5997   -0.1658   -1.7179 C   0  0  0  0  0  0  0  0  0  0  0  0
    1.6638   -0.4101   -1.6839 H   0  0  0  0  0  0  0  0  0  0  0  0
    0.1162   -0.9482   -2.3104 H   0  0  0  0  0  0  0  0  0  0  0  0
    0.4990    1.1507   -2.4918 C   0  0  0  0  0  0  0  0  0  0  0  0
    0.3749    1.0556   -3.6993 O   0  0  0  0  0  0  0  0  0  0  0  0
    0.7868    2.3201   -1.8815 O   0  0  0  0  0  0  0  0  0  0  0  0
    0.7143    2.9934   -2.5754 H   0  0  0  0  0  0  0  0  0  0  0  0
   -0.1147    1.1138    0.4928 C   0  0  0  0  0  0  0  0  0  0  0  0
   -1.1854    1.7087    0.4182 O   0  0  0  0  0  0  0  0  0  0  0  0
    0.8284    1.5348    1.4128 N   0  0  0  0  0  0  0  0  0  0  0  0
    1.7037    1.0221    1.4609 H   0  0  0  0  0  0  0  0  0  0  0  0
    0.6838    2.7539    2.1990 C   0  0  0  0  0  0  0  0  0  0  0  0
   -0.2235    2.7109    2.8110 H   0  0  0  0  0  0  0  0  0  0  0  0
    1.5427    2.8791    2.8653 H   0  0  0  0  0  0  0  0  0  0  0  0
    0.6246    3.6277    1.5416 H   0  0  0  0  0  0  0  0  0  0  0  0
  1  2  1  0  0  0  0
  2  3  1  0  0  0  0
  2  4  1  0  0  0  0
  2  5  1  0  0  0  0
  5  6  2  0  0  0  0
  5  7  1  0  0  0  0
  7  8  1  0  0  0  0
  7  9  1  0  0  0  0
  9 10  1  0  0  0  0
  9 11  1  0  0  0  0
  9 18  1  0  0  0  0
 11 12  1  0  0  0  0
 11 13  1  0  0  0  0
 11 14  1  0  0  0  0
 14 15  2  0  0  0  0
 14 16  1  0  0  0  0
 16 17  1  0  0  0  0
 18 19  2  0  0  0  0
 18 20  1  0  0  0  0
 20 21  1  0  0  0  0
 20 22  1  0  0  0  0
 22 23  1  0  0  0  0
 22 24  1  0  0  0  0
 22 25  1  0  0  0  0
M  END
$$$$

  -OEChem-03222214023D

 25 24  0     1  0  0  0  0  0999 V2000
   -2.6739   -3.9677    0.3992 H   0  0  0  0  0  0  0  0  0  0  0  0
   -2.7417   -2.9077    0.1385 C   0  0  0  0  0  0  0  0  0  0  0  0
   -3.3113   -2.3901    0.9142 H   0  0  0  0  0  0  0  0  0  0  0  0
   -3.2669   -2.8120   -0.8150 H   0  0  0  0  0  0  0  0  0  0  0  0
   -1.3532   -2.3065    0.0272 C   0  0  0  0  0  0  0  0  0  0  0  0
   -0.3666   -3.0066    0.1936 O   0  0  0  0  0  0  0  0  0  0  0  0
   -1.2052   -0.9656   -0.2611 N   0  0  0  0  0  0  0  0  0  0  0  0
   -2.0516   -0.3968   -0.2908 H   0  0  0  0  0  0  0  0  0  0  0  0
    0.0763   -0.2437   -0.2523 C   0  0  1  0  0  0  0  0  0  0  0  0
    0.7988   -0.8159    0.3393 H   0  0  0  0  0  0  0  0  0  0  0  0
    0.6136   -0.1795   -1.7062 C   0  0  0  0  0  0  0  0  0  0  0  0
    1.6776   -0.4249   -1.6807 H   0  0  0  0  0  0  0  0  0  0  0  0
    0.1259   -0.9490   -2.3124 H   0  0  0  0  0  0  0  0  0  0  0  0
    0.4998    1.1604   -2.4320 C   0  0  0  0  0  0  0  0  0  0  0  0
    0.0922    1.1396   -3.5790 O   0  0  0  0  0  0  0  0  0  0  0  0
    1.0513    2.2586   -1.8697 O   0  0  0  0  0  0  0  0  0  0  0  0
    0.9033    2.9704   -2.5117 H   0  0  0  0  0  0  0  0  0  0  0  0
   -0.0984    1.1055    0.4798 C   0  0  0  0  0  0  0  0  0  0  0  0
   -1.1461    1.7300    0.3493 O   0  0  0  0  0  0  0  0  0  0  0  0
    0.8356    1.5335    1.4053 N   0  0  0  0  0  0  0  0  0  0  0  0
    1.6995    1.0051    1.4847 H   0  0  0  0  0  0  0  0  0  0  0  0
    0.7012    2.7781    2.1521 C   0  0  0  0  0  0  0  0  0  0  0  0
   -0.2235    2.7750    2.7390 H   0  0  0  0  0  0  0  0  0  0  0  0
    1.5442    2.9012    2.8388 H   0  0  0  0  0  0  0  0  0  0  0  0
    0.6823    3.6338    1.4688 H   0  0  0  0  0  0  0  0  0  0  0  0
  1  2  1  0  0  0  0
  2  3  1  0  0  0  0
  2  4  1  0  0  0  0
  2  5  1  0  0  0  0
  5  6  2  0  0  0  0
  5  7  1  0  0  0  0
  7  8  1  0  0  0  0
  7  9  1  0  0  0  0
  9 10  1  0  0  0  0
  9 11  1  0  0  0  0
  9 18  1  0  0  0  0
 11 12  1  0  0  0  0
 11 13  1  0  0  0  0
 11 14  1  0  0  0  0
 14 15  2  0  0  0  0
 14 16  1  0  0  0  0
 16 17  1  0  0  0  0
 18 19  2  0  0  0  0
 18 20  1  0  0  0  0
 20 21  1  0  0  0  0
 20 22  1  0  0  0  0
 22 23  1  0  0  0  0
 22 24  1  0  0  0  0
 22 25  1  0  0  0  0
M  END
$$$$

  -OEChem-03222214023D

 25 24  0     1  0  0  0  0  0999 V2000
   -2.6883   -3.9708    0.3826 H   0  0  0  0  0  0  0  0  0  0  0  0
   -2.7499   -2.9121    0.1158 C   0  0  0  0  0  0  0  0  0  0  0  0
   -3.3397   -2.3915    0.8740 H   0  0  0  0  0  0  0  0  0  0  0  0
   -3.2500   -2.8204   -0.8512 H   0  0  0  0  0  0  0  0  0  0  0  0
   -1.3595   -2.3109    0.0373 C   0  0  0  0  0  0  0  0  0  0  0  0
   -0.3776   -3.0085    0.2391 O   0  0  0  0  0  0  0  0  0  0  0  0
   -1.2036   -0.9738   -0.2642 N   0  0  0  0  0  0  0  0  0  0  0  0
   -2.0486   -0.4073   -0.3388 H   0  0  0  0  0  0  0  0  0  0  0  0
    0.0784   -0.2539   -0.2468 C   0  0  1  0  0  0  0  0  0  0  0  0
    0.7926   -0.8238    0.3568 H   0  0  0  0  0  0  0  0  0  0  0  0
    0.6325   -0.1962   -1.6923 C   0  0  0  0  0  0  0  0  0  0  0  0
    1.6970   -0.4392   -1.6608 H   0  0  0  0  0  0  0  0  0  0  0  0
    0.1503   -0.9606   -2.3089 H   0  0  0  0  0  0  0  0  0  0  0  0
    0.5104    1.1542   -2.3909 C   0  0  0  0  0  0  0  0  0  0  0  0
   -0.1380    1.2101   -3.4197 O   0  0  0  0  0  0  0  0  0  0  0  0
    1.2437    2.1878   -1.9201 O   0  0  0  0  0  0  0  0  0  0  0  0
    1.0314    2.9309   -2.5064 H   0  0  0  0  0  0  0  0  0  0  0  0
   -0.0860    1.1080    0.4645 C   0  0  0  0  0  0  0  0  0  0  0  0
   -1.1138    1.7559    0.3001 O   0  0  0  0  0  0  0  0  0  0  0  0
    0.8462    1.5369    1.3911 N   0  0  0  0  0  0  0  0  0  0  0  0
    1.6973    0.9916    1.4919 H   0  0  0  0  0  0  0  0  0  0  0  0
    0.7310    2.7994    2.1107 C   0  0  0  0  0  0  0  0  0  0  0  0
   -0.1969    2.8270    2.6917 H   0  0  0  0  0  0  0  0  0  0  0  0
    1.5722    2.9201    2.8001 H   0  0  0  0  0  0  0  0  0  0  0  0
    0.7335    3.6405    1.4094 H   0  0  0  0  0  0  0  0  0  0  0  0
  1  2  1  0  0  0  0
  2  3  1  0  0  0  0
  2  4  1  0  0  0  0
  2  5  1  0  0  0  0
  5  6  2  0  0  0  0
  5  7  1  0  0  0  0
  7  8  1  0  0  0  0
  7  9  1  0  0  0  0
  9 10  1  0  0  0  0
  9 11  1  0  0  0  0
  9 18  1  0  0  0  0
 11 12  1  0  0  0  0
 11 13  1  0  0  0  0
 11 14  1  0  0  0  0
 14 15  2  0  0  0  0
 14 16  1  0  0  0  0
 16 17  1  0  0  0  0
 18 19  2  0  0  0  0
 18 20  1  0  0  0  0
 20 21  1  0  0  0  0
 20 22  1  0  0  0  0
 22 23  1  0  0  0  0
 22 24  1  0  0  0  0
 22 25  1  0  0  0  0
M  END
$$$$

  -OEChem-03222214023D

 25 24  0     1  0  0  0  0  0999 V2000
   -2.7014   -3.9723    0.3685 H   0  0  0  0  0  0  0  0  0  0  0  0
   -2.7569   -2.9147    0.0961 C   0  0  0  0  0  0  0  0  0  0  0  0
   -3.3639   -2.3907    0.8384 H   0  0  0  0  0  0  0  0  0  0  0  0
   -3.2352   -2.8277   -0.8826 H   0  0  0  0  0  0  0  0  0  0  0  0
   -1.3651   -2.3134    0.0469 C   0  0  0  0  0  0  0  0  0  0  0  0
   -0.3876   -3.0086    0.2760 O   0  0  0  0  0  0  0  0  0  0  0  0
   -1.2037   -0.9797   -0.2656 N   0  0  0  0  0  0  0  0  0  0  0  0
   -2.0474   -0.4172   -0.3759 H   0  0  0  0  0  0  0  0  0  0  0  0
    0.0770   -0.2584   -0.2455 C   0  0  1  0  0  0  0  0  0  0  0  0
    0.7835   -0.8258    0.3695 H   0  0  0  0  0  0  0  0  0  0  0  0
    0.6492   -0.2136   -1.6822 C   0  0  0  0  0  0  0  0  0  0  0  0
    1.7143   -0.4526   -1.6400 H   0  0  0  0  0  0  0  0  0  0  0  0
    0.1750   -0.9792   -2.3030 H   0  0  0  0  0  0  0  0  0  0  0  0
    0.5205    1.1382   -2.3731 C   0  0  0  0  0  0  0  0  0  0  0  0
   -0.3267    1.2699   -3.2371 O   0  0  0  0  0  0  0  0  0  0  0  0
    1.3928    2.1119   -2.0301 O   0  0  0  0  0  0  0  0  0  0  0  0
    1.1252    2.8805   -2.5583 H   0  0  0  0  0  0  0  0  0  0  0  0
   -0.0728    1.1147    0.4477 C   0  0  0  0  0  0  0  0  0  0  0  0
   -1.0879    1.7773    0.2692 O   0  0  0  0  0  0  0  0  0  0  0  0
    0.8633    1.5450    1.3700 N   0  0  0  0  0  0  0  0  0  0  0  0
    1.7006    0.9830    1.4924 H   0  0  0  0  0  0  0  0  0  0  0  0
    0.7596    2.8159    2.0766 C   0  0  0  0  0  0  0  0  0  0  0  0
   -0.1675    2.8573    2.6582 H   0  0  0  0  0  0  0  0  0  0  0  0
    1.6027    2.9368    2.7635 H   0  0  0  0  0  0  0  0  0  0  0  0
    0.7682    3.6498    1.3668 H   0  0  0  0  0  0  0  0  0  0  0  0
  1  2  1  0  0  0  0
  2  3  1  0  0  0  0
  2  4  1  0  0  0  0
  2  5  1  0  0  0  0
  5  6  2  0  0  0  0
  5  7  1  0  0  0  0
  7  8  1  0  0  0  0
  7  9  1  0  0  0  0
  9 10  1  0  0  0  0
  9 11  1  0  0  0  0
  9 18  1  0  0  0  0
 11 12  1  0  0  0  0
 11 13  1  0  0  0  0
 11 14  1  0  0  0  0
 14 15  2  0  0  0  0
 14 16  1  0  0  0  0
 16 17  1  0  0  0  0
 18 19  2  0  0  0  0
 18 20  1  0  0  0  0
 20 21  1  0  0  0  0
 20 22  1  0  0  0  0
 22 23  1  0  0  0  0
 22 24  1  0  0  0  0
 22 25  1  0  0  0  0
M  END
$$$$

  -OEChem-03222214023D

 25 24  0     1  0  0  0  0  0999 V2000
   -2.7036   -3.9738    0.3624 H   0  0  0  0  0  0  0  0  0  0  0  0
   -2.7599   -2.9170    0.0874 C   0  0  0  0  0  0  0  0  0  0  0  0
   -3.3780   -2.3941    0.8212 H   0  0  0  0  0  0  0  0  0  0  0  0
   -3.2262   -2.8333   -0.8973 H   0  0  0  0  0  0  0  0  0  0  0  0
   -1.3699   -2.3101    0.0544 C   0  0  0  0  0  0  0  0  0  0  0  0
   -0.3933   -2.9996    0.3048 O   0  0  0  0  0  0  0  0  0  0  0  0
   -1.2091   -0.9783   -0.2671 N   0  0  0  0  0  0  0  0  0  0  0  0
   -2.0523   -0.4231   -0.4125 H   0  0  0  0  0  0  0  0  0  0  0  0
    0.0686   -0.2521   -0.2493 C   0  0  1  0  0  0  0  0  0  0  0  0
    0.7688   -0.8150    0.3768 H   0  0  0  0  0  0  0  0  0  0  0  0
    0.6597   -0.2257   -1.6774 C   0  0  0  0  0  0  0  0  0  0  0  0
    1.7250   -0.4613   -1.6204 H   0  0  0  0  0  0  0  0  0  0  0  0
    0.1947   -0.9981   -2.2965 H   0  0  0  0  0  0  0  0  0  0  0  0
    0.5280    1.1178   -2.3813 C   0  0  0  0  0  0  0  0  0  0  0  0
   -0.4676    1.3300   -3.0483 O   0  0  0  0  0  0  0  0  0  0  0  0
    1.5209    2.0183   -2.2161 O   0  0  0  0  0  0  0  0  0  0  0  0
    1.2229    2.8041   -2.7011 H   0  0  0  0  0  0  0  0  0  0  0  0
   -0.0670    1.1295    0.4297 C   0  0  0  0  0  0  0  0  0  0  0  0
   -1.0788    1.7979    0.2602 O   0  0  0  0  0  0  0  0  0  0  0  0
    0.8783    1.5578    1.3435 N   0  0  0  0  0  0  0  0  0  0  0  0
    1.7023    0.9795    1.4801 H   0  0  0  0  0  0  0  0  0  0  0  0
    0.7776    2.8213    2.0639 C   0  0  0  0  0  0  0  0  0  0  0  0
   -0.1401    2.8503    2.6611 H   0  0  0  0  0  0  0  0  0  0  0  0
    1.6312    2.9424    2.7378 H   0  0  0  0  0  0  0  0  0  0  0  0
    0.7682    3.6622    1.3624 H   0  0  0  0  0  0  0  0  0  0  0  0
  1  2  1  0  0  0  0
  2  3  1  0  0  0  0
  2  4  1  0  0  0  0
  2  5  1  0  0  0  0
  5  6  2  0  0  0  0
  5  7  1  0  0  0  0
  7  8  1  0  0  0  0
  7  9  1  0  0  0  0
  9 10  1  0  0  0  0
  9 11  1  0  0  0  0
  9 18  1  0  0  0  0
 11 12  1  0  0  0  0
 11 13  1  0  0  0  0
 11 14  1  0  0  0  0
 14 15  2  0  0  0  0
 14 16  1  0  0  0  0
 16 17  1  0  0  0  0
 18 19  2  0  0  0  0
 18 20  1  0  0  0  0
 20 21  1  0  0  0  0
 20 22  1  0  0  0  0
 22 23  1  0  0  0  0
 22 24  1  0  0  0  0
 22 25  1  0  0  0  0
M  END
$$$$

  -OEChem-03222214023D

 25 24  0     1  0  0  0  0  0999 V2000
   -2.6973   -3.9709    0.3717 H   0  0  0  0  0  0  0  0  0  0  0  0
   -2.7599   -2.9142    0.0973 C   0  0  0  0  0  0  0  0  0  0  0  0
   -3.3728   -2.3937    0.8371 H   0  0  0  0  0  0  0  0  0  0  0  0
   -3.2360   -2.8322   -0.8827 H   0  0  0  0  0  0  0  0  0  0  0  0
   -1.3722   -2.3028    0.0516 C   0  0  0  0  0  0  0  0  0  0  0  0
   -0.3915   -2.9893    0.2939 O   0  0  0  0  0  0  0  0  0  0  0  0
   -1.2173   -0.9712   -0.2734 N   0  0  0  0  0  0  0  0  0  0  0  0
   -2.0628   -0.4174   -0.4111 H   0  0  0  0  0  0  0  0  0  0  0  0
    0.0569   -0.2394   -0.2607 C   0  0  1  0  0  0  0  0  0  0  0  0
    0.7516   -0.7988    0.3747 H   0  0  0  0  0  0  0  0  0  0  0  0
    0.6674   -0.2282   -1.6804 C   0  0  0  0  0  0  0  0  0  0  0  0
    1.7323   -0.4614   -1.6041 H   0  0  0  0  0  0  0  0  0  0  0  0
    0.2132   -1.0099   -2.2949 H   0  0  0  0  0  0  0  0  0  0  0  0
    0.5407    1.1019   -2.4109 C   0  0  0  0  0  0  0  0  0  0  0  0
   -0.5431    1.4165   -2.8657 O   0  0  0  0  0  0  0  0  0  0  0  0
    1.6340    1.8914   -2.4791 O   0  0  0  0  0  0  0  0  0  0  0  0
    1.3305    2.6926   -2.9349 H   0  0  0  0  0  0  0  0  0  0  0  0
   -0.0708    1.1454    0.4132 C   0  0  0  0  0  0  0  0  0  0  0  0
   -1.0942    1.8032    0.2792 O   0  0  0  0  0  0  0  0  0  0  0  0
    0.8840    1.5708    1.3186 N   0  0  0  0  0  0  0  0  0  0  0  0
    1.7014    0.9840    1.4581 H   0  0  0  0  0  0  0  0  0  0  0  0
    0.7731    2.8143    2.0718 C   0  0  0  0  0  0  0  0  0  0  0  0
   -0.1206    2.8008    2.7046 H   0  0  0  0  0  0  0  0  0  0  0  0
    1.6490    2.9473    2.7139 H   0  0  0  0  0  0  0  0  0  0  0  0
    0.7099    3.6700    1.3913 H   0  0  0  0  0  0  0  0  0  0  0  0
  1  2  1  0  0  0  0
  2  3  1  0  0  0  0
  2  4  1  0  0  0  0
  2  5  1  0  0  0  0
  5  6  2  0  0  0  0
  5  7  1  0  0  0  0
  7  8  1  0  0  0  0
  7  9  1  0  0  0  0
  9 10  1  0  0  0  0
  9 11  1  0  0  0  0
  9 18  1  0  0  0  0
 11 12  1  0  0  0  0
 11 13  1  0  0  0  0
 11 14  1  0  0  0  0
 14 15  2  0  0  0  0
 14 16  1  0  0  0  0
 16 17  1  0  0  0  0
 18 19  2  0  0  0  0
 18 20  1  0  0  0  0
 20 21  1  0  0  0  0
 20 22  1  0  0  0  0
 22 23  1  0  0  0  0
 22 24  1  0  0  0  0
 22 25  1  0  0  0  0
M  END
$$$$

  -OEChem-03222214023D

 25 24  0     1  0  0  0  0  0999 V2000
   -2.6840   -3.9629    0.3893 H   0  0  0  0  0  0  0  0  0  0  0  0
   -2.7542   -2.9060    0.1173 C   0  0  0  0  0  0  0  0  0  0  0  0
   -3.3512   -2.3868    0.8710 H   0  0  0  0  0  0  0  0  0  0  0  0
   -3.2520   -2.8238   -0.8519 H   0  0  0  0  0  0  0  0  0  0  0  0
   -1.3689   -2.2922    0.0407 C   0  0  0  0  0  0  0  0  0  0  0  0
   -0.3811   -2.9786    0.2530 O   0  0  0  0  0  0  0  0  0  0  0  0
   -1.2254   -0.9584   -0.2796 N   0  0  0  0  0  0  0  0  0  0  0  0
   -2.0759   -0.4044   -0.3827 H   0  0  0  0  0  0  0  0  0  0  0  0
    0.0437   -0.2178   -0.2749 C   0  0  1  0  0  0  0  0  0  0  0  0
    0.7364   -0.7741    0.3655 H   0  0  0  0  0  0  0  0  0  0  0  0
    0.6700   -0.2197   -1.6889 C   0  0  0  0  0  0  0  0  0  0  0  0
    1.7346   -0.4472   -1.5929 H   0  0  0  0  0  0  0  0  0  0  0  0
    0.2282   -1.0157   -2.2940 H   0  0  0  0  0  0  0  0  0  0  0  0
    0.5528    1.0897   -2.4599 C   0  0  0  0  0  0  0  0  0  0  0  0
   -0.5521    1.5340   -2.7061 O   0  0  0  0  0  0  0  0  0  0  0  0
    1.6969    1.7190   -2.8024 O   0  0  0  0  0  0  0  0  0  0  0  0
    1.4081    2.5293   -3.2513 H   0  0  0  0  0  0  0  0  0  0  0  0
   -0.0832    1.1645    0.4055 C   0  0  0  0  0  0  0  0  0  0  0  0
   -1.1307    1.7937    0.3341 O   0  0  0  0  0  0  0  0  0  0  0  0
    0.8824    1.5865    1.3020 N   0  0  0  0  0  0  0  0  0  0  0  0
    1.7070    1.0051    1.4206 H   0  0  0  0  0  0  0  0  0  0  0  0
    0.7541    2.7971    2.1053 C   0  0  0  0  0  0  0  0  0  0  0  0
   -0.1159    2.7281    2.7669 H   0  0  0  0  0  0  0  0  0  0  0  0
    1.6469    2.9385    2.7217 H   0  0  0  0  0  0  0  0  0  0  0  0
    0.6375    3.6745    1.4605 H   0  0  0  0  0  0  0  0  0  0  0  0
  1  2  1  0  0  0  0
  2  3  1  0  0  0  0
  2  4  1  0  0  0  0
  2  5  1  0  0  0  0
  5  6  2  0  0  0  0
  5  7  1  0  0  0  0
  7  8  1  0  0  0  0
  7  9  1  0  0  0  0
  9 10  1  0  0  0  0
  9 11  1  0  0  0  0
  9 18  1  0  0  0  0
 11 12  1  0  0  0  0
 11 13  1  0  0  0  0
 11 14  1  0  0  0  0
 14 15  2  0  0  0  0
 14 16  1  0  0  0  0
 16 17  1  0  0  0  0
 18 19  2  0  0  0  0
 18 20  1  0  0  0  0
 20 21  1  0  0  0  0
 20 22  1  0  0  0  0
 22 23  1  0  0  0  0
 22 24  1  0  0  0  0
 22 25  1  0  0  0  0
M  END
$$$$

  -OEChem-03222214023D

 25 24  0     1  0  0  0  0  0999 V2000
   -2.6655   -3.9508    0.4075 H   0  0  0  0  0  0  0  0  0  0  0  0
   -2.7448   -2.8924    0.1445 C   0  0  0  0  0  0  0  0  0  0  0  0
   -3.3126   -2.3773    0.9232 H   0  0  0  0  0  0  0  0  0  0  0  0
   -3.2785   -2.8035   -0.8048 H   0  0  0  0  0  0  0  0  0  0  0  0
   -1.3631   -2.2786    0.0205 C   0  0  0  0  0  0  0  0  0  0  0  0
   -0.3678   -2.9664    0.1891 O   0  0  0  0  0  0  0  0  0  0  0  0
   -1.2322   -0.9412   -0.2891 N   0  0  0  0  0  0  0  0  0  0  0  0
   -2.0862   -0.3853   -0.3412 H   0  0  0  0  0  0  0  0  0  0  0  0
    0.0326   -0.1936   -0.2910 C   0  0  1  0  0  0  0  0  0  0  0  0
    0.7251   -0.7492    0.3502 H   0  0  0  0  0  0  0  0  0  0  0  0
    0.6689   -0.2025   -1.7022 C   0  0  0  0  0  0  0  0  0  0  0  0
    1.7329   -0.4247   -1.5888 H   0  0  0  0  0  0  0  0  0  0  0  0
    0.2386   -1.0124   -2.2965 H   0  0  0  0  0  0  0  0  0  0  0  0
    0.5666    1.0854   -2.5148 C   0  0  0  0  0  0  0  0  0  0  0  0
   -0.4887    1.6858   -2.5690 O   0  0  0  0  0  0  0  0  0  0  0  0
    1.6884    1.5119   -3.1327 O   0  0  0  0  0  0  0  0  0  0  0  0
    1.4273    2.3312   -3.5820 H   0  0  0  0  0  0  0  0  0  0  0  0
   -0.0991    1.1810    0.4044 C   0  0  0  0  0  0  0  0  0  0  0  0
   -1.1721    1.7711    0.4002 O   0  0  0  0  0  0  0  0  0  0  0  0
    0.8743    1.5986    1.2949 N   0  0  0  0  0  0  0  0  0  0  0  0
    1.7139    1.0333    1.3805 H   0  0  0  0  0  0  0  0  0  0  0  0
    0.7265    2.7722    2.1483 C   0  0  0  0  0  0  0  0  0  0  0  0
   -0.1070    2.6365    2.8455 H   0  0  0  0  0  0  0  0  0  0  0  0
    1.6397    2.9360    2.7282 H   0  0  0  0  0  0  0  0  0  0  0  0
    0.5375    3.6651    1.5430 H   0  0  0  0  0  0  0  0  0  0  0  0
  1  2  1  0  0  0  0
  2  3  1  0  0  0  0
  2  4  1  0  0  0  0
  2  5  1  0  0  0  0
  5  6  2  0  0  0  0
  5  7  1  0  0  0  0
  7  8  1  0  0  0  0
  7  9  1  0  0  0  0
  9 10  1  0  0  0  0
  9 11  1  0  0  0  0
  9 18  1  0  0  0  0
 11 12  1  0  0  0  0
 11 13  1  0  0  0  0
 11 14  1  0  0  0  0
 14 15  2  0  0  0  0
 14 16  1  0  0  0  0
 16 17  1  0  0  0  0
 18 19  2  0  0  0  0
 18 20  1  0  0  0  0
 20 21  1  0  0  0  0
 20 22  1  0  0  0  0
 22 23  1  0  0  0  0
 22 24  1  0  0  0  0
 22 25  1  0  0  0  0
M  END
$$$$

  -OEChem-03222214023D

 25 24  0     1  0  0  0  0  0999 V2000
   -2.6418   -3.9482    0.4159 H   0  0  0  0  0  0  0  0  0  0  0  0
   -2.7336   -2.8890    0.1600 C   0  0  0  0  0  0  0  0  0  0  0  0
   -3.2817   -2.3803    0.9567 H   0  0  0  0  0  0  0  0  0  0  0  0
   -3.2943   -2.7986   -0.7734 H   0  0  0  0  0  0  0  0  0  0  0  0
   -1.3586   -2.2683    0.0000 C   0  0  0  0  0  0  0  0  0  0  0  0
   -0.3566   -2.9559    0.1249 O   0  0  0  0  0  0  0  0  0  0  0  0
   -1.2406   -0.9257   -0.2928 N   0  0  0  0  0  0  0  0  0  0  0  0
   -2.0964   -0.3697   -0.2913 H   0  0  0  0  0  0  0  0  0  0  0  0
    0.0213   -0.1722   -0.2998 C   0  0  1  0  0  0  0  0  0  0  0  0
    0.7176   -0.7299    0.3356 H   0  0  0  0  0  0  0  0  0  0  0  0
    0.6577   -0.1806   -1.7138 C   0  0  0  0  0  0  0  0  0  0  0  0
    1.7215   -0.4003   -1.5946 H   0  0  0  0  0  0  0  0  0  0  0  0
    0.2318   -0.9997   -2.2984 H   0  0  0  0  0  0  0  0  0  0  0  0
    0.5699    1.0881   -2.5607 C   0  0  0  0  0  0  0  0  0  0  0  0
   -0.3674    1.8517   -2.4448 O   0  0  0  0  0  0  0  0  0  0  0  0
    1.5856    1.3022   -3.4238 O   0  0  0  0  0  0  0  0  0  0  0  0
    1.3616    2.1338   -3.8706 H   0  0  0  0  0  0  0  0  0  0  0  0
   -0.1151    1.1910    0.4182 C   0  0  0  0  0  0  0  0  0  0  0  0
   -1.2045    1.7503    0.4628 O   0  0  0  0  0  0  0  0  0  0  0  0
    0.8648    1.6030    1.3047 N   0  0  0  0  0  0  0  0  0  0  0  0
    1.7188    1.0559    1.3571 H   0  0  0  0  0  0  0  0  0  0  0  0
    0.7137    2.7570    2.1837 C   0  0  0  0  0  0  0  0  0  0  0  0
   -0.1115    2.5982    2.8859 H   0  0  0  0  0  0  0  0  0  0  0  0
    1.6308    2.9189    2.7583 H   0  0  0  0  0  0  0  0  0  0  0  0
    0.5093    3.6599    1.5983 H   0  0  0  0  0  0  0  0  0  0  0  0
  1  2  1  0  0  0  0
  2  3  1  0  0  0  0
  2  4  1  0  0  0  0
  2  5  1  0  0  0  0
  5  6  2  0  0  0  0
  5  7  1  0  0  0  0
  7  8  1  0  0  0  0
  7  9  1  0  0  0  0
  9 10  1  0  0  0  0
  9 11  1  0  0  0  0
  9 18  1  0  0  0  0
 11 12  1  0  0  0  0
 11 13  1  0  0  0  0
 11 14  1  0  0  0  0
 14 15  2  0  0  0  0
 14 16  1  0  0  0  0
 16 17  1  0  0  0  0
 18 19  2  0  0  0  0
 18 20  1  0  0  0  0
 20 21  1  0  0  0  0
 20 22  1  0  0  0  0
 22 23  1  0  0  0  0
 22 24  1  0  0  0  0
 22 25  1  0  0  0  0
M  END
$$$$

  -OEChem-03222214023D

 25 24  0     1  0  0  0  0  0999 V2000
   -2.6296   -3.9444    0.4112 H   0  0  0  0  0  0  0  0  0  0  0  0
   -2.7267   -2.8818    0.1719 C   0  0  0  0  0  0  0  0  0  0  0  0
   -3.2534   -2.3833    0.9893 H   0  0  0  0  0  0  0  0  0  0  0  0
   -3.3115   -2.7785   -0.7453 H   0  0  0  0  0  0  0  0  0  0  0  0
   -1.3557   -2.2602   -0.0157 C   0  0  0  0  0  0  0  0  0  0  0  0
   -0.3513   -2.9491    0.0778 O   0  0  0  0  0  0  0  0  0  0  0  0
   -1.2441   -0.9140   -0.2946 N   0  0  0  0  0  0  0  0  0  0  0  0
   -2.0981   -0.3568   -0.2525 H   0  0  0  0  0  0  0  0  0  0  0  0
    0.0180   -0.1604   -0.3051 C   0  0  1  0  0  0  0  0  0  0  0  0
    0.7193   -0.7217    0.3215 H   0  0  0  0  0  0  0  0  0  0  0  0
    0.6446   -0.1642   -1.7261 C   0  0  0  0  0  0  0  0  0  0  0  0
    1.7082   -0.3872   -1.6115 H   0  0  0  0  0  0  0  0  0  0  0  0
    0.2138   -0.9858   -2.3038 H   0  0  0  0  0  0  0  0  0  0  0  0
    0.5691    1.0928   -2.5944 C   0  0  0  0  0  0  0  0  0  0  0  0
   -0.1872    2.0060   -2.3331 O   0  0  0  0  0  0  0  0  0  0  0  0
    1.4022    1.1182   -3.6561 O   0  0  0  0  0  0  0  0  0  0  0  0
    1.2220    1.9649   -4.0939 H   0  0  0  0  0  0  0  0  0  0  0  0
   -0.1253    1.1918    0.4329 C   0  0  0  0  0  0  0  0  0  0  0  0
   -1.2249    1.7298    0.5026 O   0  0  0  0  0  0  0  0  0  0  0  0
    0.8563    1.5994    1.3197 N   0  0  0  0  0  0  0  0  0  0  0  0
    1.7256    1.0750    1.3396 H   0  0  0  0  0  0  0  0  0  0  0  0
    0.7045    2.7441    2.2105 C   0  0  0  0  0  0  0  0  0  0  0  0
   -0.1080    2.5696    2.9237 H   0  0  0  0  0  0  0  0  0  0  0  0
    1.6281    2.9117    2.7726 H   0  0  0  0  0  0  0  0  0  0  0  0
    0.4809    3.6494    1.6361 H   0  0  0  0  0  0  0  0  0  0  0  0
  1  2  1  0  0  0  0
  2  3  1  0  0  0  0
  2  4  1  0  0  0  0
  2  5  1  0  0  0  0
  5  6  2  0  0  0  0
  5  7  1  0  0  0  0
  7  8  1  0  0  0  0
  7  9  1  0  0  0  0
  9 10  1  0  0  0  0
  9 11  1  0  0  0  0
  9 18  1  0  0  0  0
 11 12  1  0  0  0  0
 11 13  1  0  0  0  0
 11 14  1  0  0  0  0
 14 15  2  0  0  0  0
 14 16  1  0  0  0  0
 16 17  1  0  0  0  0
 18 19  2  0  0  0  0
 18 20  1  0  0  0  0
 20 21  1  0  0  0  0
 20 22  1  0  0  0  0
 22 23  1  0  0  0  0
 22 24  1  0  0  0  0
 22 25  1  0  0  0  0
M  END
$$$$

  -OEChem-03222214023D

 25 24  0     1  0  0  0  0  0999 V2000
   -2.6270   -3.9393    0.4187 H   0  0  0  0  0  0  0  0  0  0  0  0
   -2.7244   -2.8779    0.1742 C   0  0  0  0  0  0  0  0  0  0  0  0
   -3.2452   -2.3743    0.9923 H   0  0  0  0  0  0  0  0  0  0  0  0
   -3.3151   -2.7790   -0.7397 H   0  0  0  0  0  0  0  0  0  0  0  0
   -1.3538   -2.2590   -0.0255 C   0  0  0  0  0  0  0  0  0  0  0  0
   -0.3509   -2.9521    0.0488 O   0  0  0  0  0  0  0  0  0  0  0  0
   -1.2404   -0.9106   -0.2932 N   0  0  0  0  0  0  0  0  0  0  0  0
   -2.0906   -0.3501   -0.2247 H   0  0  0  0  0  0  0  0  0  0  0  0
    0.0259   -0.1626   -0.3024 C   0  0  1  0  0  0  0  0  0  0  0  0
    0.7329   -0.7299    0.3123 H   0  0  0  0  0  0  0  0  0  0  0  0
    0.6321   -0.1548   -1.7342 C   0  0  0  0  0  0  0  0  0  0  0  0
    1.6948   -0.3889   -1.6366 H   0  0  0  0  0  0  0  0  0  0  0  0
    0.1860   -0.9702   -2.3092 H   0  0  0  0  0  0  0  0  0  0  0  0
    0.5643    1.1025   -2.6051 C   0  0  0  0  0  0  0  0  0  0  0  0
    0.0432    2.1295   -2.2210 O   0  0  0  0  0  0  0  0  0  0  0  0
    1.1364    0.9899   -3.8223 O   0  0  0  0  0  0  0  0  0  0  0  0
    1.0012    1.8539   -4.2420 H   0  0  0  0  0  0  0  0  0  0  0  0
   -0.1251    1.1797    0.4520 C   0  0  0  0  0  0  0  0  0  0  0  0
   -1.2275    1.7141    0.5160 O   0  0  0  0  0  0  0  0  0  0  0  0
    0.8511    1.5847    1.3455 N   0  0  0  0  0  0  0  0  0  0  0  0
    1.7333    1.0822    1.3444 H   0  0  0  0  0  0  0  0  0  0  0  0
    0.7011    2.7414    2.2208 C   0  0  0  0  0  0  0  0  0  0  0  0
   -0.1406    2.5973    2.9064 H   0  0  0  0  0  0  0  0  0  0  0  0
    1.6084    2.8878    2.8145 H   0  0  0  0  0  0  0  0  0  0  0  0
    0.5239    3.6469    1.6307 H   0  0  0  0  0  0  0  0  0  0  0  0
  1  2  1  0  0  0  0
  2  3  1  0  0  0  0
  2  4  1  0  0  0  0
  2  5  1  0  0  0  0
  5  6  2  0  0  0  0
  5  7  1  0  0  0  0
  7  8  1  0  0  0  0
  7  9  1  0  0  0  0
  9 10  1  0  0  0  0
  9 11  1  0  0  0  0
  9 18  1  0  0  0  0
 11 12  1  0  0  0  0
 11 13  1  0  0  0  0
 11 14  1  0  0  0  0
 14 15  2  0  0  0  0
 14 16  1  0  0  0  0
 16 17  1  0  0  0  0
 18 19  2  0  0  0  0
 18 20  1  0  0  0  0
 20 21  1  0  0  0  0
 20 22  1  0  0  0  0
 22 23  1  0  0  0  0
 22 24  1  0  0  0  0
 22 25  1  0  0  0  0
M  END
$$$$

  -OEChem-03222214023D

 25 24  0     1  0  0  0  0  0999 V2000
   -2.6385   -3.9364    0.4184 H   0  0  0  0  0  0  0  0  0  0  0  0
   -2.7292   -2.8744    0.1735 C   0  0  0  0  0  0  0  0  0  0  0  0
   -3.2485   -2.3681    0.9909 H   0  0  0  0  0  0  0  0  0  0  0  0
   -3.3172   -2.7720   -0.7417 H   0  0  0  0  0  0  0  0  0  0  0  0
   -1.3547   -2.2639   -0.0241 C   0  0  0  0  0  0  0  0  0  0  0  0
   -0.3564   -2.9638    0.0484 O   0  0  0  0  0  0  0  0  0  0  0  0
   -1.2323   -0.9157   -0.2894 N   0  0  0  0  0  0  0  0  0  0  0  0
   -2.0782   -0.3493   -0.2171 H   0  0  0  0  0  0  0  0  0  0  0  0
    0.0403   -0.1779   -0.2955 C   0  0  1  0  0  0  0  0  0  0  0  0
    0.7514   -0.7495    0.3104 H   0  0  0  0  0  0  0  0  0  0  0  0
    0.6253   -0.1580   -1.7372 C   0  0  0  0  0  0  0  0  0  0  0  0
    1.6861   -0.4073   -1.6612 H   0  0  0  0  0  0  0  0  0  0  0  0
    0.1589   -0.9614   -2.3139 H   0  0  0  0  0  0  0  0  0  0  0  0
    0.5602    1.1099   -2.5936 C   0  0  0  0  0  0  0  0  0  0  0  0
    0.3095    2.1990   -2.1180 O   0  0  0  0  0  0  0  0  0  0  0  0
    0.8214    0.9333   -3.9060 O   0  0  0  0  0  0  0  0  0  0  0  0
    0.7324    1.8155   -4.2991 H   0  0  0  0  0  0  0  0  0  0  0  0
   -0.1198    1.1598    0.4652 C   0  0  0  0  0  0  0  0  0  0  0  0
   -1.2211    1.6998    0.5037 O   0  0  0  0  0  0  0  0  0  0  0  0
    0.8465    1.5657    1.3685 N   0  0  0  0  0  0  0  0  0  0  0  0
    1.7410    1.0859    1.3499 H   0  0  0  0  0  0  0  0  0  0  0  0
    0.7011    2.7470    2.2107 C   0  0  0  0  0  0  0  0  0  0  0  0
   -0.1658    2.6433    2.8718 H   0  0  0  0  0  0  0  0  0  0  0  0
    1.5926    2.8824    2.8306 H   0  0  0  0  0  0  0  0  0  0  0  0
    0.5685    3.6420    1.5934 H   0  0  0  0  0  0  0  0  0  0  0  0
  1  2  1  0  0  0  0
  2  3  1  0  0  0  0
  2  4  1  0  0  0  0
  2  5  1  0  0  0  0
  5  6  2  0  0  0  0
  5  7  1  0  0  0  0
  7  8  1  0  0  0  0
  7  9  1  0  0  0  0
  9 10  1  0  0  0  0
  9 11  1  0  0  0  0
  9 18  1  0  0  0  0
 11 12  1  0  0  0  0
 11 13  1  0  0  0  0
 11 14  1  0  0  0  0
 14 15  2  0  0  0  0
 14 16  1  0  0  0  0
 16 17  1  0  0  0  0
 18 19  2  0  0  0  0
 18 20  1  0  0  0  0
 20 21  1  0  0  0  0
 20 22  1  0  0  0  0
 22 23  1  0  0  0  0
 22 24  1  0  0  0  0
 22 25  1  0  0  0  0
M  END
$$$$

  -OEChem-03222214023D

 25 24  0     1  0  0  0  0  0999 V2000
   -2.6563   -3.9310    0.4314 H   0  0  0  0  0  0  0  0  0  0  0  0
   -2.7364   -2.8700    0.1791 C   0  0  0  0  0  0  0  0  0  0  0  0
   -3.2546   -2.3535    0.9906 H   0  0  0  0  0  0  0  0  0  0  0  0
   -3.3197   -2.7689   -0.7392 H   0  0  0  0  0  0  0  0  0  0  0  0
   -1.3554   -2.2732   -0.0160 C   0  0  0  0  0  0  0  0  0  0  0  0
   -0.3639   -2.9817    0.0660 O   0  0  0  0  0  0  0  0  0  0  0  0
   -1.2191   -0.9279   -0.2891 N   0  0  0  0  0  0  0  0  0  0  0  0
   -2.0591   -0.3522   -0.2195 H   0  0  0  0  0  0  0  0  0  0  0  0
    0.0619   -0.2046   -0.2908 C   0  0  1  0  0  0  0  0  0  0  0  0
    0.7757   -0.7783    0.3102 H   0  0  0  0  0  0  0  0  0  0  0  0
    0.6265   -0.1728   -1.7402 C   0  0  0  0  0  0  0  0  0  0  0  0
    1.6853   -0.4358   -1.6869 H   0  0  0  0  0  0  0  0  0  0  0  0
    0.1413   -0.9608   -2.3228 H   0  0  0  0  0  0  0  0  0  0  0  0
    0.5598    1.1150   -2.5655 C   0  0  0  0  0  0  0  0  0  0  0  0
    0.5988    2.2092   -2.0374 O   0  0  0  0  0  0  0  0  0  0  0  0
    0.4764    0.9541   -3.9033 O   0  0  0  0  0  0  0  0  0  0  0  0
    0.4320    1.8544   -4.2613 H   0  0  0  0  0  0  0  0  0  0  0  0
   -0.1089    1.1347    0.4640 C   0  0  0  0  0  0  0  0  0  0  0  0
   -1.2025    1.6921    0.4543 O   0  0  0  0  0  0  0  0  0  0  0  0
    0.8419    1.5477    1.3802 N   0  0  0  0  0  0  0  0  0  0  0  0
    1.7389    1.0721    1.3738 H   0  0  0  0  0  0  0  0  0  0  0  0
    0.6957    2.7568    2.1817 C   0  0  0  0  0  0  0  0  0  0  0  0
   -0.1922    2.6900    2.8191 H   0  0  0  0  0  0  0  0  0  0  0  0
    1.5708    2.8936    2.8240 H   0  0  0  0  0  0  0  0  0  0  0  0
    0.5995    3.6349    1.5345 H   0  0  0  0  0  0  0  0  0  0  0  0
  1  2  1  0  0  0  0
  2  3  1  0  0  0  0
  2  4  1  0  0  0  0
  2  5  1  0  0  0  0
  5  6  2  0  0  0  0
  5  7  1  0  0  0  0
  7  8  1  0  0  0  0
  7  9  1  0  0  0  0
  9 10  1  0  0  0  0
  9 11  1  0  0  0  0
  9 18  1  0  0  0  0
 11 12  1  0  0  0  0
 11 13  1  0  0  0  0
 11 14  1  0  0  0  0
 14 15  2  0  0  0  0
 14 16  1  0  0  0  0
 16 17  1  0  0  0  0
 18 19  2  0  0  0  0
 18 20  1  0  0  0  0
 20 21  1  0  0  0  0
 20 22  1  0  0  0  0
 22 23  1  0  0  0  0
 22 24  1  0  0  0  0
 22 25  1  0  0  0  0
M  END
$$$$

  -OEChem-03222214023D

 25 24  0     1  0  0  0  0  0999 V2000
   -2.6793   -3.9387    0.4294 H   0  0  0  0  0  0  0  0  0  0  0  0
   -2.7457   -2.8774    0.1742 C   0  0  0  0  0  0  0  0  0  0  0  0
   -3.2749   -2.3550    0.9749 H   0  0  0  0  0  0  0  0  0  0  0  0
   -3.3105   -2.7728   -0.7552 H   0  0  0  0  0  0  0  0  0  0  0  0
   -1.3565   -2.2928    0.0036 C   0  0  0  0  0  0  0  0  0  0  0  0
   -0.3720   -3.0066    0.1167 O   0  0  0  0  0  0  0  0  0  0  0  0
   -1.2057   -0.9524   -0.2838 N   0  0  0  0  0  0  0  0  0  0  0  0
   -2.0438   -0.3712   -0.2461 H   0  0  0  0  0  0  0  0  0  0  0  0
    0.0806   -0.2388   -0.2816 C   0  0  1  0  0  0  0  0  0  0  0  0
    0.7965   -0.8115    0.3176 H   0  0  0  0  0  0  0  0  0  0  0  0
    0.6311   -0.1939   -1.7342 C   0  0  0  0  0  0  0  0  0  0  0  0
    1.6896   -0.4611   -1.6985 H   0  0  0  0  0  0  0  0  0  0  0  0
    0.1354   -0.9663   -2.3287 H   0  0  0  0  0  0  0  0  0  0  0  0
    0.5515    1.1206   -2.5118 C   0  0  0  0  0  0  0  0  0  0  0  0
    0.8704    2.1683   -1.9804 O   0  0  0  0  0  0  0  0  0  0  0  0
    0.1264    1.0465   -3.7911 O   0  0  0  0  0  0  0  0  0  0  0  0
    0.1202    1.9636   -4.1061 H   0  0  0  0  0  0  0  0  0  0  0  0
   -0.0977    1.1082    0.4572 C   0  0  0  0  0  0  0  0  0  0  0  0
   -1.1774    1.6884    0.3898 O   0  0  0  0  0  0  0  0  0  0  0  0
    0.8383    1.5333    1.3821 N   0  0  0  0  0  0  0  0  0  0  0  0
    1.7350    1.0570    1.3931 H   0  0  0  0  0  0  0  0  0  0  0  0
    0.6996    2.7788    2.1267 C   0  0  0  0  0  0  0  0  0  0  0  0
   -0.2108    2.7624    2.7352 H   0  0  0  0  0  0  0  0  0  0  0  0
    1.5565    2.9199    2.7923 H   0  0  0  0  0  0  0  0  0  0  0  0
    0.6492    3.6306    1.4399 H   0  0  0  0  0  0  0  0  0  0  0  0
  1  2  1  0  0  0  0
  2  3  1  0  0  0  0
  2  4  1  0  0  0  0
  2  5  1  0  0  0  0
  5  6  2  0  0  0  0
  5  7  1  0  0  0  0
  7  8  1  0  0  0  0
  7  9  1  0  0  0  0
  9 10  1  0  0  0  0
  9 11  1  0  0  0  0
  9 18  1  0  0  0  0
 11 12  1  0  0  0  0
 11 13  1  0  0  0  0
 11 14  1  0  0  0  0
 14 15  2  0  0  0  0
 14 16  1  0  0  0  0
 16 17  1  0  0  0  0
 18 19  2  0  0  0  0
 18 20  1  0  0  0  0
 20 21  1  0  0  0  0
 20 22  1  0  0  0  0
 22 23  1  0  0  0  0
 22 24  1  0  0  0  0
 22 25  1  0  0  0  0
M  END
$$$$

  -OEChem-03222214023D

 25 24  0     1  0  0  0  0  0999 V2000
   -2.6893   -3.9493    0.4562 H   0  0  0  0  0  0  0  0  0  0  0  0
   -2.7495   -2.8969    0.1652 C   0  0  0  0  0  0  0  0  0  0  0  0
   -3.3041   -2.3507    0.9321 H   0  0  0  0  0  0  0  0  0  0  0  0
   -3.2855   -2.8233   -0.7841 H   0  0  0  0  0  0  0  0  0  0  0  0
   -1.3569   -2.3139    0.0191 C   0  0  0  0  0  0  0  0  0  0  0  0
   -0.3750   -3.0254    0.1639 O   0  0  0  0  0  0  0  0  0  0  0  0
   -1.2004   -0.9772   -0.2825 N   0  0  0  0  0  0  0  0  0  0  0  0
   -2.0402   -0.3977   -0.2857 H   0  0  0  0  0  0  0  0  0  0  0  0
    0.0858   -0.2643   -0.2741 C   0  0  1  0  0  0  0  0  0  0  0  0
    0.8020   -0.8339    0.3280 H   0  0  0  0  0  0  0  0  0  0  0  0
    0.6328   -0.2101   -1.7245 C   0  0  0  0  0  0  0  0  0  0  0  0
    1.6931   -0.4722   -1.6993 H   0  0  0  0  0  0  0  0  0  0  0  0
    0.1364   -0.9706   -2.3333 H   0  0  0  0  0  0  0  0  0  0  0  0
    0.5309    1.1284   -2.4511 C   0  0  0  0  0  0  0  0  0  0  0  0
    1.0960    2.1012   -1.9832 O   0  0  0  0  0  0  0  0  0  0  0  0
   -0.1917    1.1693   -3.5910 O   0  0  0  0  0  0  0  0  0  0  0  0
   -0.1659    2.0972   -3.8714 H   0  0  0  0  0  0  0  0  0  0  0  0
   -0.0915    1.0931    0.4446 C   0  0  0  0  0  0  0  0  0  0  0  0
   -1.1513    1.6999    0.3239 O   0  0  0  0  0  0  0  0  0  0  0  0
    0.8369    1.5273    1.3728 N   0  0  0  0  0  0  0  0  0  0  0  0
    1.7267    1.0389    1.4064 H   0  0  0  0  0  0  0  0  0  0  0  0
    0.7142    2.8008    2.0713 C   0  0  0  0  0  0  0  0  0  0  0  0
   -0.2252    2.8423    2.6325 H   0  0  0  0  0  0  0  0  0  0  0  0
    1.5412    2.9273    2.7764 H   0  0  0  0  0  0  0  0  0  0  0  0
    0.7354    3.6308    1.3571 H   0  0  0  0  0  0  0  0  0  0  0  0
  1  2  1  0  0  0  0
  2  3  1  0  0  0  0
  2  4  1  0  0  0  0
  2  5  1  0  0  0  0
  5  6  2  0  0  0  0
  5  7  1  0  0  0  0
  7  8  1  0  0  0  0
  7  9  1  0  0  0  0
  9 10  1  0  0  0  0
  9 11  1  0  0  0  0
  9 18  1  0  0  0  0
 11 12  1  0  0  0  0
 11 13  1  0  0  0  0
 11 14  1  0  0  0  0
 14 15  2  0  0  0  0
 14 16  1  0  0  0  0
 16 17  1  0  0  0  0
 18 19  2  0  0  0  0
 18 20  1  0  0  0  0
 20 21  1  0  0  0  0
 20 22  1  0  0  0  0
 22 23  1  0  0  0  0
 22 24  1  0  0  0  0
 22 25  1  0  0  0  0
M  END
$$$$

  -OEChem-03222214023D

 25 24  0     1  0  0  0  0  0999 V2000
   -2.6957   -3.9708    0.4416 H   0  0  0  0  0  0  0  0  0  0  0  0
   -2.7535   -2.9177    0.1521 C   0  0  0  0  0  0  0  0  0  0  0  0
   -3.3235   -2.3751    0.9103 H   0  0  0  0  0  0  0  0  0  0  0  0
   -3.2725   -2.8430   -0.8066 H   0  0  0  0  0  0  0  0  0  0  0  0
   -1.3600   -2.3302    0.0324 C   0  0  0  0  0  0  0  0  0  0  0  0
   -0.3791   -3.0357    0.2096 O   0  0  0  0  0  0  0  0  0  0  0  0
   -1.2022   -0.9964   -0.2809 N   0  0  0  0  0  0  0  0  0  0  0  0
   -2.0449   -0.4230   -0.3237 H   0  0  0  0  0  0  0  0  0  0  0  0
    0.0810   -0.2791   -0.2696 C   0  0  1  0  0  0  0  0  0  0  0  0
    0.7959   -0.8449    0.3377 H   0  0  0  0  0  0  0  0  0  0  0  0
    0.6367   -0.2202   -1.7133 C   0  0  0  0  0  0  0  0  0  0  0  0
    1.6994   -0.4741   -1.6888 H   0  0  0  0  0  0  0  0  0  0  0  0
    0.1452   -0.9724   -2.3362 H   0  0  0  0  0  0  0  0  0  0  0  0
    0.5117    1.1356   -2.3976 C   0  0  0  0  0  0  0  0  0  0  0  0
    1.2751    2.0242   -2.0609 O   0  0  0  0  0  0  0  0  0  0  0  0
   -0.4456    1.2911   -3.3368 O   0  0  0  0  0  0  0  0  0  0  0  0
   -0.3925    2.2231   -3.5989 H   0  0  0  0  0  0  0  0  0  0  0  0
   -0.0892    1.0883    0.4312 C   0  0  0  0  0  0  0  0  0  0  0  0
   -1.1314    1.7162    0.2755 O   0  0  0  0  0  0  0  0  0  0  0  0
    0.8381    1.5296    1.3567 N   0  0  0  0  0  0  0  0  0  0  0  0
    1.7152    1.0212    1.4188 H   0  0  0  0  0  0  0  0  0  0  0  0
    0.7310    2.8199    2.0264 C   0  0  0  0  0  0  0  0  0  0  0  0
   -0.2083    2.8859    2.5857 H   0  0  0  0  0  0  0  0  0  0  0  0
    1.5594    2.9519    2.7291 H   0  0  0  0  0  0  0  0  0  0  0  0
    0.7635    3.6334    1.2938 H   0  0  0  0  0  0  0  0  0  0  0  0
  1  2  1  0  0  0  0
  2  3  1  0  0  0  0
  2  4  1  0  0  0  0
  2  5  1  0  0  0  0
  5  6  2  0  0  0  0
  5  7  1  0  0  0  0
  7  8  1  0  0  0  0
  7  9  1  0  0  0  0
  9 10  1  0  0  0  0
  9 11  1  0  0  0  0
  9 18  1  0  0  0  0
 11 12  1  0  0  0  0
 11 13  1  0  0  0  0
 11 14  1  0  0  0  0
 14 15  2  0  0  0  0
 14 16  1  0  0  0  0
 16 17  1  0  0  0  0
 18 19  2  0  0  0  0
 18 20  1  0  0  0  0
 20 21  1  0  0  0  0
 20 22  1  0  0  0  0
 22 23  1  0  0  0  0
 22 24  1  0  0  0  0
 22 25  1  0  0  0  0
M  END
$$$$

  -OEChem-03222214023D

 25 24  0     1  0  0  0  0  0999 V2000
   -2.6889   -3.9897    0.4250 H   0  0  0  0  0  0  0  0  0  0  0  0
   -2.7526   -2.9367    0.1371 C   0  0  0  0  0  0  0  0  0  0  0  0
   -3.3396   -2.4013    0.8872 H   0  0  0  0  0  0  0  0  0  0  0  0
   -3.2570   -2.8646   -0.8295 H   0  0  0  0  0  0  0  0  0  0  0  0
   -1.3632   -2.3356    0.0420 C   0  0  0  0  0  0  0  0  0  0  0  0
   -0.3792   -3.0305    0.2421 O   0  0  0  0  0  0  0  0  0  0  0  0
   -1.2122   -1.0018   -0.2750 N   0  0  0  0  0  0  0  0  0  0  0  0
   -2.0592   -0.4389   -0.3532 H   0  0  0  0  0  0  0  0  0  0  0  0
    0.0655   -0.2749   -0.2641 C   0  0  1  0  0  0  0  0  0  0  0  0
    0.7792   -0.8373    0.3472 H   0  0  0  0  0  0  0  0  0  0  0  0
    0.6331   -0.2184   -1.7012 C   0  0  0  0  0  0  0  0  0  0  0  0
    1.6981   -0.4631   -1.6700 H   0  0  0  0  0  0  0  0  0  0  0  0
    0.1504   -0.9715   -2.3294 H   0  0  0  0  0  0  0  0  0  0  0  0
    0.4889    1.1417   -2.3703 C   0  0  0  0  0  0  0  0  0  0  0  0
    1.3935    1.9463   -2.2314 O   0  0  0  0  0  0  0  0  0  0  0  0
   -0.6278    1.3879   -3.0881 O   0  0  0  0  0  0  0  0  0  0  0  0
   -0.5506    2.3125   -3.3688 H   0  0  0  0  0  0  0  0  0  0  0  0
   -0.0912    1.0985    0.4278 C   0  0  0  0  0  0  0  0  0  0  0  0
   -1.1197    1.7446    0.2619 O   0  0  0  0  0  0  0  0  0  0  0  0
    0.8456    1.5373    1.3447 N   0  0  0  0  0  0  0  0  0  0  0  0
    1.7064    1.0044    1.4293 H   0  0  0  0  0  0  0  0  0  0  0  0
    0.7538    2.8284    2.0155 C   0  0  0  0  0  0  0  0  0  0  0  0
   -0.1788    2.9004    2.5851 H   0  0  0  0  0  0  0  0  0  0  0  0
    1.5910    2.9548    2.7087 H   0  0  0  0  0  0  0  0  0  0  0  0
    0.7836    3.6422    1.2832 H   0  0  0  0  0  0  0  0  0  0  0  0
  1  2  1  0  0  0  0
  2  3  1  0  0  0  0
  2  4  1  0  0  0  0
  2  5  1  0  0  0  0
  5  6  2  0  0  0  0
  5  7  1  0  0  0  0
  7  8  1  0  0  0  0
  7  9  1  0  0  0  0
  9 10  1  0  0  0  0
  9 11  1  0  0  0  0
  9 18  1  0  0  0  0
 11 12  1  0  0  0  0
 11 13  1  0  0  0  0
 11 14  1  0  0  0  0
 14 15  2  0  0  0  0
 14 16  1  0  0  0  0
 16 17  1  0  0  0  0
 18 19  2  0  0  0  0
 18 20  1  0  0  0  0
 20 21  1  0  0  0  0
 20 22  1  0  0  0  0
 22 23  1  0  0  0  0
 22 24  1  0  0  0  0
 22 25  1  0  0  0  0
M  END
$$$$

  -OEChem-03222214023D

 25 24  0     1  0  0  0  0  0999 V2000
   -2.6795   -3.9964    0.4112 H   0  0  0  0  0  0  0  0  0  0  0  0
   -2.7501   -2.9408    0.1339 C   0  0  0  0  0  0  0  0  0  0  0  0
   -3.3422   -2.4171    0.8884 H   0  0  0  0  0  0  0  0  0  0  0  0
   -3.2537   -2.8630   -0.8327 H   0  0  0  0  0  0  0  0  0  0  0  0
   -1.3645   -2.3293    0.0467 C   0  0  0  0  0  0  0  0  0  0  0  0
   -0.3768   -3.0178    0.2504 O   0  0  0  0  0  0  0  0  0  0  0  0
   -1.2213   -0.9939   -0.2680 N   0  0  0  0  0  0  0  0  0  0  0  0
   -2.0718   -0.4384   -0.3589 H   0  0  0  0  0  0  0  0  0  0  0  0
    0.0510   -0.2579   -0.2619 C   0  0  1  0  0  0  0  0  0  0  0  0
    0.7637   -0.8194    0.3517 H   0  0  0  0  0  0  0  0  0  0  0  0
    0.6292   -0.2088   -1.6946 C   0  0  0  0  0  0  0  0  0  0  0  0
    1.6954   -0.4474   -1.6526 H   0  0  0  0  0  0  0  0  0  0  0  0
    0.1549   -0.9689   -2.3206 H   0  0  0  0  0  0  0  0  0  0  0  0
    0.4765    1.1453   -2.3748 C   0  0  0  0  0  0  0  0  0  0  0  0
    1.4636    1.8521   -2.4760 O   0  0  0  0  0  0  0  0  0  0  0  0
   -0.7323    1.4722   -2.8801 O   0  0  0  0  0  0  0  0  0  0  0  0
   -0.6322    2.3734   -3.2219 H   0  0  0  0  0  0  0  0  0  0  0  0
   -0.0913    1.1172    0.4296 C   0  0  0  0  0  0  0  0  0  0  0  0
   -1.1169    1.7709    0.2818 O   0  0  0  0  0  0  0  0  0  0  0  0
    0.8594    1.5494    1.3354 N   0  0  0  0  0  0  0  0  0  0  0  0
    1.7026    0.9920    1.4392 H   0  0  0  0  0  0  0  0  0  0  0  0
    0.7667    2.8212    2.0425 C   0  0  0  0  0  0  0  0  0  0  0  0
   -0.1447    2.8580    2.6486 H   0  0  0  0  0  0  0  0  0  0  0  0
    1.6272    2.9488    2.7064 H   0  0  0  0  0  0  0  0  0  0  0  0
    0.7512    3.6541    1.3315 H   0  0  0  0  0  0  0  0  0  0  0  0
  1  2  1  0  0  0  0
  2  3  1  0  0  0  0
  2  4  1  0  0  0  0
  2  5  1  0  0  0  0
  5  6  2  0  0  0  0
  5  7  1  0  0  0  0
  7  8  1  0  0  0  0
  7  9  1  0  0  0  0
  9 10  1  0  0  0  0
  9 11  1  0  0  0  0
  9 18  1  0  0  0  0
 11 12  1  0  0  0  0
 11 13  1  0  0  0  0
 11 14  1  0  0  0  0
 14 15  2  0  0  0  0
 14 16  1  0  0  0  0
 16 17  1  0  0  0  0
 18 19  2  0  0  0  0
 18 20  1  0  0  0  0
 20 21  1  0  0  0  0
 20 22  1  0  0  0  0
 22 23  1  0  0  0  0
 22 24  1  0  0  0  0
 22 25  1  0  0  0  0
M  END
$$$$

  -OEChem-03222214023D

 25 24  0     1  0  0  0  0  0999 V2000
   -2.6670   -3.9908    0.4036 H   0  0  0  0  0  0  0  0  0  0  0  0
   -2.7444   -2.9334    0.1360 C   0  0  0  0  0  0  0  0  0  0  0  0
   -3.3370   -2.4201    0.8971 H   0  0  0  0  0  0  0  0  0  0  0  0
   -3.2510   -2.8494   -0.8284 H   0  0  0  0  0  0  0  0  0  0  0  0
   -1.3629   -2.3129    0.0499 C   0  0  0  0  0  0  0  0  0  0  0  0
   -0.3701   -2.9963    0.2465 O   0  0  0  0  0  0  0  0  0  0  0  0
   -1.2292   -0.9752   -0.2589 N   0  0  0  0  0  0  0  0  0  0  0  0
   -2.0835   -0.4249   -0.3467 H   0  0  0  0  0  0  0  0  0  0  0  0
    0.0382   -0.2313   -0.2617 C   0  0  1  0  0  0  0  0  0  0  0  0
    0.7496   -0.7923    0.3538 H   0  0  0  0  0  0  0  0  0  0  0  0
    0.6266   -0.1961   -1.6910 C   0  0  0  0  0  0  0  0  0  0  0  0
    1.6934   -0.4294   -1.6354 H   0  0  0  0  0  0  0  0  0  0  0  0
    0.1608   -0.9687   -2.3078 H   0  0  0  0  0  0  0  0  0  0  0  0
    0.4735    1.1436   -2.4004 C   0  0  0  0  0  0  0  0  0  0  0  0
    1.4842    1.7244   -2.7528 O   0  0  0  0  0  0  0  0  0  0  0  0
   -0.7722    1.5624   -2.7096 O   0  0  0  0  0  0  0  0  0  0  0  0
   -0.6580    2.4219   -3.1420 H   0  0  0  0  0  0  0  0  0  0  0  0
   -0.0905    1.1422    0.4354 C   0  0  0  0  0  0  0  0  0  0  0  0
   -1.1255    1.7889    0.3334 O   0  0  0  0  0  0  0  0  0  0  0  0
    0.8776    1.5649    1.3278 N   0  0  0  0  0  0  0  0  0  0  0  0
    1.7126    0.9946    1.4281 H   0  0  0  0  0  0  0  0  0  0  0  0
    0.7738    2.8003    2.0956 C   0  0  0  0  0  0  0  0  0  0  0  0
   -0.1162    2.7823    2.7335 H   0  0  0  0  0  0  0  0  0  0  0  0
    1.6536    2.9235    2.7345 H   0  0  0  0  0  0  0  0  0  0  0  0
    0.7089    3.6638    1.4251 H   0  0  0  0  0  0  0  0  0  0  0  0
  1  2  1  0  0  0  0
  2  3  1  0  0  0  0
  2  4  1  0  0  0  0
  2  5  1  0  0  0  0
  5  6  2  0  0  0  0
  5  7  1  0  0  0  0
  7  8  1  0  0  0  0
  7  9  1  0  0  0  0
  9 10  1  0  0  0  0
  9 11  1  0  0  0  0
  9 18  1  0  0  0  0
 11 12  1  0  0  0  0
 11 13  1  0  0  0  0
 11 14  1  0  0  0  0
 14 15  2  0  0  0  0
 14 16  1  0  0  0  0
 16 17  1  0  0  0  0
 18 19  2  0  0  0  0
 18 20  1  0  0  0  0
 20 21  1  0  0  0  0
 20 22  1  0  0  0  0
 22 23  1  0  0  0  0
 22 24  1  0  0  0  0
 22 25  1  0  0  0  0
M  END
$$$$

  -OEChem-03222214023D

 25 24  0     1  0  0  0  0  0999 V2000
   -2.6510   -3.9860    0.4070 H   0  0  0  0  0  0  0  0  0  0  0  0
   -2.7391   -2.9278    0.1452 C   0  0  0  0  0  0  0  0  0  0  0  0
   -3.3206   -2.4207    0.9191 H   0  0  0  0  0  0  0  0  0  0  0  0
   -3.2639   -2.8434   -0.8094 H   0  0  0  0  0  0  0  0  0  0  0  0
   -1.3625   -2.2997    0.0363 C   0  0  0  0  0  0  0  0  0  0  0  0
   -0.3631   -2.9814    0.2034 O   0  0  0  0  0  0  0  0  0  0  0  0
   -1.2404   -0.9576   -0.2581 N   0  0  0  0  0  0  0  0  0  0  0  0
   -2.0983   -0.4089   -0.3142 H   0  0  0  0  0  0  0  0  0  0  0  0
    0.0221   -0.2056   -0.2633 C   0  0  1  0  0  0  0  0  0  0  0  0
    0.7288   -0.7690    0.3554 H   0  0  0  0  0  0  0  0  0  0  0  0
    0.6308   -0.1764   -1.6851 C   0  0  0  0  0  0  0  0  0  0  0  0
    1.6979   -0.4026   -1.6073 H   0  0  0  0  0  0  0  0  0  0  0  0
    0.1798   -0.9621   -2.2964 H   0  0  0  0  0  0  0  0  0  0  0  0
    0.4897    1.1466   -2.4307 C   0  0  0  0  0  0  0  0  0  0  0  0
    1.4704    1.5733   -3.0128 O   0  0  0  0  0  0  0  0  0  0  0  0
   -0.7391    1.6899   -2.5565 O   0  0  0  0  0  0  0  0  0  0  0  0
   -0.6187    2.4940   -3.0831 H   0  0  0  0  0  0  0  0  0  0  0  0
   -0.0991    1.1610    0.4489 C   0  0  0  0  0  0  0  0  0  0  0  0
   -1.1502    1.7880    0.4084 O   0  0  0  0  0  0  0  0  0  0  0  0
    0.8831    1.5699    1.3326 N   0  0  0  0  0  0  0  0  0  0  0  0
    1.7185    0.9970    1.4124 H   0  0  0  0  0  0  0  0  0  0  0  0
    0.7787    2.7772    2.1438 C   0  0  0  0  0  0  0  0  0  0  0  0
   -0.0875    2.7175    2.8112 H   0  0  0  0  0  0  0  0  0  0  0  0
    1.6777    2.9013    2.7550 H   0  0  0  0  0  0  0  0  0  0  0  0
    0.6710    3.6597    1.5044 H   0  0  0  0  0  0  0  0  0  0  0  0
  1  2  1  0  0  0  0
  2  3  1  0  0  0  0
  2  4  1  0  0  0  0
  2  5  1  0  0  0  0
  5  6  2  0  0  0  0
  5  7  1  0  0  0  0
  7  8  1  0  0  0  0
  7  9  1  0  0  0  0
  9 10  1  0  0  0  0
  9 11  1  0  0  0  0
  9 18  1  0  0  0  0
 11 12  1  0  0  0  0
 11 13  1  0  0  0  0
 11 14  1  0  0  0  0
 14 15  2  0  0  0  0
 14 16  1  0  0  0  0
 16 17  1  0  0  0  0
 18 19  2  0  0  0  0
 18 20  1  0  0  0  0
 20 21  1  0  0  0  0
 20 22  1  0  0  0  0
 22 23  1  0  0  0  0
 22 24  1  0  0  0  0
 22 25  1  0  0  0  0
M  END
$$$$

  -OEChem-03222214023D

 25 24  0     1  0  0  0  0  0999 V2000
   -2.6369   -3.9691    0.4123 H   0  0  0  0  0  0  0  0  0  0  0  0
   -2.7312   -2.9090    0.1613 C   0  0  0  0  0  0  0  0  0  0  0  0
   -3.2918   -2.4077    0.9540 H   0  0  0  0  0  0  0  0  0  0  0  0
   -3.2806   -2.8165   -0.7787 H   0  0  0  0  0  0  0  0  0  0  0  0
   -1.3579   -2.2801    0.0216 C   0  0  0  0  0  0  0  0  0  0  0  0
   -0.3540   -2.9629    0.1544 O   0  0  0  0  0  0  0  0  0  0  0  0
   -1.2439   -0.9348   -0.2616 N   0  0  0  0  0  0  0  0  0  0  0  0
   -2.1026   -0.3843   -0.2734 H   0  0  0  0  0  0  0  0  0  0  0  0
    0.0166   -0.1791   -0.2715 C   0  0  1  0  0  0  0  0  0  0  0  0
    0.7204   -0.7434    0.3495 H   0  0  0  0  0  0  0  0  0  0  0  0
    0.6378   -0.1637   -1.6902 C   0  0  0  0  0  0  0  0  0  0  0  0
    1.7038   -0.3878   -1.5941 H   0  0  0  0  0  0  0  0  0  0  0  0
    0.1948   -0.9645   -2.2878 H   0  0  0  0  0  0  0  0  0  0  0  0
    0.5189    1.1340   -2.4859 C   0  0  0  0  0  0  0  0  0  0  0  0
    1.4111    1.3754   -3.2784 O   0  0  0  0  0  0  0  0  0  0  0  0
   -0.6215    1.8507   -2.4244 O   0  0  0  0  0  0  0  0  0  0  0  0
   -0.5067    2.5854   -3.0453 H   0  0  0  0  0  0  0  0  0  0  0  0
   -0.1043    1.1803    0.4553 C   0  0  0  0  0  0  0  0  0  0  0  0
   -1.1765    1.7725    0.4794 O   0  0  0  0  0  0  0  0  0  0  0  0
    0.8866    1.5813    1.3335 N   0  0  0  0  0  0  0  0  0  0  0  0
    1.7287    1.0157    1.3890 H   0  0  0  0  0  0  0  0  0  0  0  0
    0.7618    2.7424    2.2072 C   0  0  0  0  0  0  0  0  0  0  0  0
   -0.0754    2.6123    2.9010 H   0  0  0  0  0  0  0  0  0  0  0  0
    1.6773    2.8765    2.7914 H   0  0  0  0  0  0  0  0  0  0  0  0
    0.5928    3.6495    1.6173 H   0  0  0  0  0  0  0  0  0  0  0  0
  1  2  1  0  0  0  0
  2  3  1  0  0  0  0
  2  4  1  0  0  0  0
  2  5  1  0  0  0  0
  5  6  2  0  0  0  0
  5  7  1  0  0  0  0
  7  8  1  0  0  0  0
  7  9  1  0  0  0  0
  9 10  1  0  0  0  0
  9 11  1  0  0  0  0
  9 18  1  0  0  0  0
 11 12  1  0  0  0  0
 11 13  1  0  0  0  0
 11 14  1  0  0  0  0
 14 15  2  0  0  0  0
 14 16  1  0  0  0  0
 16 17  1  0  0  0  0
 18 19  2  0  0  0  0
 18 20  1  0  0  0  0
 20 21  1  0  0  0  0
 20 22  1  0  0  0  0
 22 23  1  0  0  0  0
 22 24  1  0  0  0  0
 22 25  1  0  0  0  0
M  END
$$$$

  -OEChem-03222214023D

 25 24  0     1  0  0  0  0  0999 V2000
   -2.6300   -3.9543    0.4124 H   0  0  0  0  0  0  0  0  0  0  0  0
   -2.7279   -2.8919    0.1722 C   0  0  0  0  0  0  0  0  0  0  0  0
   -3.2665   -2.3956    0.9831 H   0  0  0  0  0  0  0  0  0  0  0  0
   -3.3012   -2.7910   -0.7525 H   0  0  0  0  0  0  0  0  0  0  0  0
   -1.3569   -2.2653    0.0025 C   0  0  0  0  0  0  0  0  0  0  0  0
   -0.3518   -2.9505    0.1108 O   0  0  0  0  0  0  0  0  0  0  0  0
   -1.2461   -0.9176   -0.2703 N   0  0  0  0  0  0  0  0  0  0  0  0
   -2.1030   -0.3646   -0.2440 H   0  0  0  0  0  0  0  0  0  0  0  0
    0.0154   -0.1627   -0.2781 C   0  0  1  0  0  0  0  0  0  0  0  0
    0.7159   -0.7283    0.3457 H   0  0  0  0  0  0  0  0  0  0  0  0
    0.6461   -0.1582   -1.6956 C   0  0  0  0  0  0  0  0  0  0  0  0
    1.7099   -0.3831   -1.5829 H   0  0  0  0  0  0  0  0  0  0  0  0
    0.2093   -0.9716   -2.2808 H   0  0  0  0  0  0  0  0  0  0  0  0
    0.5592    1.1127   -2.5413 C   0  0  0  0  0  0  0  0  0  0  0  0
    1.3013    1.1621   -3.5052 O   0  0  0  0  0  0  0  0  0  0  0  0
   -0.3791    2.0470   -2.2954 O   0  0  0  0  0  0  0  0  0  0  0  0
   -0.2773    2.7130   -2.9915 H   0  0  0  0  0  0  0  0  0  0  0  0
   -0.1157    1.1881    0.4633 C   0  0  0  0  0  0  0  0  0  0  0  0
   -1.2050    1.7476    0.5244 O   0  0  0  0  0  0  0  0  0  0  0  0
    0.8730    1.5856    1.3463 N   0  0  0  0  0  0  0  0  0  0  0  0
    1.7261    1.0353    1.3819 H   0  0  0  0  0  0  0  0  0  0  0  0
    0.7263    2.7142    2.2585 C   0  0  0  0  0  0  0  0  0  0  0  0
   -0.0928    2.5338    2.9627 H   0  0  0  0  0  0  0  0  0  0  0  0
    1.6478    2.8614    2.8298 H   0  0  0  0  0  0  0  0  0  0  0  0
    0.5157    3.6328    1.7008 H   0  0  0  0  0  0  0  0  0  0  0  0
  1  2  1  0  0  0  0
  2  3  1  0  0  0  0
  2  4  1  0  0  0  0
  2  5  1  0  0  0  0
  5  6  2  0  0  0  0
  5  7  1  0  0  0  0
  7  8  1  0  0  0  0
  7  9  1  0  0  0  0
  9 10  1  0  0  0  0
  9 11  1  0  0  0  0
  9 18  1  0  0  0  0
 11 12  1  0  0  0  0
 11 13  1  0  0  0  0
 11 14  1  0  0  0  0
 14 15  2  0  0  0  0
 14 16  1  0  0  0  0
 16 17  1  0  0  0  0
 18 19  2  0  0  0  0
 18 20  1  0  0  0  0
 20 21  1  0  0  0  0
 20 22  1  0  0  0  0
 22 23  1  0  0  0  0
 22 24  1  0  0  0  0
 22 25  1  0  0  0  0
M  END
$$$$

  -OEChem-03222214023D

 25 24  0     1  0  0  0  0  0999 V2000
   -2.6340   -3.9517    0.4093 H   0  0  0  0  0  0  0  0  0  0  0  0
   -2.7183   -2.8896    0.1631 C   0  0  0  0  0  0  0  0  0  0  0  0
   -3.2556   -2.3832    0.9687 H   0  0  0  0  0  0  0  0  0  0  0  0
   -3.2853   -2.7868   -0.7652 H   0  0  0  0  0  0  0  0  0  0  0  0
   -1.3388   -2.2808   -0.0034 C   0  0  0  0  0  0  0  0  0  0  0  0
   -0.3436   -2.9812    0.0974 O   0  0  0  0  0  0  0  0  0  0  0  0
   -1.2069   -0.9335   -0.2682 N   0  0  0  0  0  0  0  0  0  0  0  0
   -2.0514   -0.3627   -0.2168 H   0  0  0  0  0  0  0  0  0  0  0  0
    0.0724   -0.2068   -0.2621 C   0  0  1  0  0  0  0  0  0  0  0  0
    0.7956   -0.7738    0.3341 H   0  0  0  0  0  0  0  0  0  0  0  0
    0.6283   -0.1556   -1.7172 C   0  0  0  0  0  0  0  0  0  0  0  0
    1.5815   -0.6906   -1.7147 H   0  0  0  0  0  0  0  0  0  0  0  0
   -0.0452   -0.7219   -2.3664 H   0  0  0  0  0  0  0  0  0  0  0  0
    0.8860    1.1775   -2.4306 C   0  0  0  0  0  0  0  0  0  0  0  0
    1.3186    1.0765   -3.5640 O   0  0  0  0  0  0  0  0  0  0  0  0
    0.7444    2.3684   -1.8154 O   0  0  0  0  0  0  0  0  0  0  0  0
    0.9737    3.0322   -2.4835 H   0  0  0  0  0  0  0  0  0  0  0  0
   -0.1249    1.1216    0.5038 C   0  0  0  0  0  0  0  0  0  0  0  0
   -1.2128    1.6890    0.4597 O   0  0  0  0  0  0  0  0  0  0  0  0
    0.8111    1.5389    1.4331 N   0  0  0  0  0  0  0  0  0  0  0  0
    1.6948    1.0399    1.4712 H   0  0  0  0  0  0  0  0  0  0  0  0
    0.6389    2.7283    2.2583 C   0  0  0  0  0  0  0  0  0  0  0  0
   -0.2599    2.6390    2.8776 H   0  0  0  0  0  0  0  0  0  0  0  0
    1.5013    2.8583    2.9192 H   0  0  0  0  0  0  0  0  0  0  0  0
    0.5464    3.6198    1.6291 H   0  0  0  0  0  0  0  0  0  0  0  0
  1  2  1  0  0  0  0
  2  3  1  0  0  0  0
  2  4  1  0  0  0  0
  2  5  1  0  0  0  0
  5  6  2  0  0  0  0
  5  7  1  0  0  0  0
  7  8  1  0  0  0  0
  7  9  1  0  0  0  0
  9 10  1  0  0  0  0
  9 11  1  0  0  0  0
  9 18  1  0  0  0  0
 11 12  1  0  0  0  0
 11 13  1  0  0  0  0
 11 14  1  0  0  0  0
 14 15  2  0  0  0  0
 14 16  1  0  0  0  0
 16 17  1  0  0  0  0
 18 19  2  0  0  0  0
 18 20  1  0  0  0  0
 20 21  1  0  0  0  0
 20 22  1  0  0  0  0
 22 23  1  0  0  0  0
 22 24  1  0  0  0  0
 22 25  1  0  0  0  0
M  END
$$$$

  -OEChem-03222214023D

 25 24  0     1  0  0  0  0  0999 V2000
   -2.6527   -3.9576    0.4053 H   0  0  0  0  0  0  0  0  0  0  0  0
   -2.7247   -2.8958    0.1536 C   0  0  0  0  0  0  0  0  0  0  0  0
   -3.2703   -2.3817    0.9487 H   0  0  0  0  0  0  0  0  0  0  0  0
   -3.2766   -2.7924   -0.7838 H   0  0  0  0  0  0  0  0  0  0  0  0
   -1.3384   -2.2980    0.0066 C   0  0  0  0  0  0  0  0  0  0  0  0
   -0.3494   -3.0036    0.1299 O   0  0  0  0  0  0  0  0  0  0  0  0
   -1.1945   -0.9530   -0.2633 N   0  0  0  0  0  0  0  0  0  0  0  0
   -2.0371   -0.3778   -0.2367 H   0  0  0  0  0  0  0  0  0  0  0  0
    0.0898   -0.2351   -0.2511 C   0  0  1  0  0  0  0  0  0  0  0  0
    0.8208   -0.8034    0.3341 H   0  0  0  0  0  0  0  0  0  0  0  0
    0.6140   -0.1559   -1.7161 C   0  0  0  0  0  0  0  0  0  0  0  0
    1.5658   -0.6915   -1.7494 H   0  0  0  0  0  0  0  0  0  0  0  0
   -0.0751   -0.7018   -2.3670 H   0  0  0  0  0  0  0  0  0  0  0  0
    0.8601    1.2031   -2.3809 C   0  0  0  0  0  0  0  0  0  0  0  0
    0.9862    1.1767   -3.5915 O   0  0  0  0  0  0  0  0  0  0  0  0
    1.1410    2.3021   -1.6493 O   0  0  0  0  0  0  0  0  0  0  0  0
    1.3051    3.0032   -2.2988 H   0  0  0  0  0  0  0  0  0  0  0  0
   -0.1236    1.0934    0.5103 C   0  0  0  0  0  0  0  0  0  0  0  0
   -1.1898    1.6907    0.3957 O   0  0  0  0  0  0  0  0  0  0  0  0
    0.7937    1.5206    1.4532 N   0  0  0  0  0  0  0  0  0  0  0  0
    1.6807    1.0284    1.5016 H   0  0  0  0  0  0  0  0  0  0  0  0
    0.6349    2.7552    2.2116 C   0  0  0  0  0  0  0  0  0  0  0  0
   -0.2926    2.7325    2.7935 H   0  0  0  0  0  0  0  0  0  0  0  0
    1.4723    2.8844    2.9039 H   0  0  0  0  0  0  0  0  0  0  0  0
    0.6066    3.6168    1.5365 H   0  0  0  0  0  0  0  0  0  0  0  0
  1  2  1  0  0  0  0
  2  3  1  0  0  0  0
  2  4  1  0  0  0  0
  2  5  1  0  0  0  0
  5  6  2  0  0  0  0
  5  7  1  0  0  0  0
  7  8  1  0  0  0  0
  7  9  1  0  0  0  0
  9 10  1  0  0  0  0
  9 11  1  0  0  0  0
  9 18  1  0  0  0  0
 11 12  1  0  0  0  0
 11 13  1  0  0  0  0
 11 14  1  0  0  0  0
 14 15  2  0  0  0  0
 14 16  1  0  0  0  0
 16 17  1  0  0  0  0
 18 19  2  0  0  0  0
 18 20  1  0  0  0  0
 20 21  1  0  0  0  0
 20 22  1  0  0  0  0
 22 23  1  0  0  0  0
 22 24  1  0  0  0  0
 22 25  1  0  0  0  0
M  END
$$$$

  -OEChem-03222214023D

 25 24  0     1  0  0  0  0  0999 V2000
   -2.6705   -3.9598    0.4104 H   0  0  0  0  0  0  0  0  0  0  0  0
   -2.7330   -2.9025    0.1383 C   0  0  0  0  0  0  0  0  0  0  0  0
   -3.3030   -2.3744    0.9066 H   0  0  0  0  0  0  0  0  0  0  0  0
   -3.2545   -2.8142   -0.8178 H   0  0  0  0  0  0  0  0  0  0  0  0
   -1.3419   -2.3085    0.0245 C   0  0  0  0  0  0  0  0  0  0  0  0
   -0.3582   -3.0135    0.1861 O   0  0  0  0  0  0  0  0  0  0  0  0
   -1.1879   -0.9675   -0.2591 N   0  0  0  0  0  0  0  0  0  0  0  0
   -2.0300   -0.3917   -0.2765 H   0  0  0  0  0  0  0  0  0  0  0  0
    0.0992   -0.2552   -0.2432 C   0  0  1  0  0  0  0  0  0  0  0  0
    0.8321   -0.8216    0.3413 H   0  0  0  0  0  0  0  0  0  0  0  0
    0.6142   -0.1650   -1.7086 C   0  0  0  0  0  0  0  0  0  0  0  0
    1.5681   -0.6950   -1.7593 H   0  0  0  0  0  0  0  0  0  0  0  0
   -0.0778   -0.6978   -2.3677 H   0  0  0  0  0  0  0  0  0  0  0  0
    0.8469    1.2195   -2.3173 C   0  0  0  0  0  0  0  0  0  0  0  0
    0.6889    1.3176   -3.5204 O   0  0  0  0  0  0  0  0  0  0  0  0
    1.4365    2.1862   -1.5797 O   0  0  0  0  0  0  0  0  0  0  0  0
    1.5382    2.9361   -2.1865 H   0  0  0  0  0  0  0  0  0  0  0  0
   -0.1129    1.0831    0.5010 C   0  0  0  0  0  0  0  0  0  0  0  0
   -1.1555    1.7081    0.3343 O   0  0  0  0  0  0  0  0  0  0  0  0
    0.7971    1.5175    1.4472 N   0  0  0  0  0  0  0  0  0  0  0  0
    1.6778    1.0159    1.5132 H   0  0  0  0  0  0  0  0  0  0  0  0
    0.6541    2.7782    2.1646 C   0  0  0  0  0  0  0  0  0  0  0  0
   -0.2983    2.8074    2.7045 H   0  0  0  0  0  0  0  0  0  0  0  0
    1.4641    2.8945    2.8911 H   0  0  0  0  0  0  0  0  0  0  0  0
    0.6894    3.6205    1.4659 H   0  0  0  0  0  0  0  0  0  0  0  0
  1  2  1  0  0  0  0
  2  3  1  0  0  0  0
  2  4  1  0  0  0  0
  2  5  1  0  0  0  0
  5  6  2  0  0  0  0
  5  7  1  0  0  0  0
  7  8  1  0  0  0  0
  7  9  1  0  0  0  0
  9 10  1  0  0  0  0
  9 11  1  0  0  0  0
  9 18  1  0  0  0  0
 11 12  1  0  0  0  0
 11 13  1  0  0  0  0
 11 14  1  0  0  0  0
 14 15  2  0  0  0  0
 14 16  1  0  0  0  0
 16 17  1  0  0  0  0
 18 19  2  0  0  0  0
 18 20  1  0  0  0  0
 20 21  1  0  0  0  0
 20 22  1  0  0  0  0
 22 23  1  0  0  0  0
 22 24  1  0  0  0  0
 22 25  1  0  0  0  0
M  END
$$$$

  -OEChem-03222214023D

 25 24  0     1  0  0  0  0  0999 V2000
   -2.6849   -3.9641    0.4012 H   0  0  0  0  0  0  0  0  0  0  0  0
   -2.7430   -2.9073    0.1259 C   0  0  0  0  0  0  0  0  0  0  0  0
   -3.3243   -2.3775    0.8844 H   0  0  0  0  0  0  0  0  0  0  0  0
   -3.2501   -2.8213   -0.8381 H   0  0  0  0  0  0  0  0  0  0  0  0
   -1.3501   -2.3140    0.0324 C   0  0  0  0  0  0  0  0  0  0  0  0
   -0.3701   -3.0173    0.2216 O   0  0  0  0  0  0  0  0  0  0  0  0
   -1.1898   -0.9763   -0.2638 N   0  0  0  0  0  0  0  0  0  0  0  0
   -2.0312   -0.4015   -0.3130 H   0  0  0  0  0  0  0  0  0  0  0  0
    0.0981   -0.2661   -0.2419 C   0  0  1  0  0  0  0  0  0  0  0  0
    0.8233   -0.8314    0.3532 H   0  0  0  0  0  0  0  0  0  0  0  0
    0.6312   -0.1815   -1.6983 C   0  0  0  0  0  0  0  0  0  0  0  0
    1.5880   -0.7066   -1.7426 H   0  0  0  0  0  0  0  0  0  0  0  0
   -0.0513   -0.7101   -2.3704 H   0  0  0  0  0  0  0  0  0  0  0  0
    0.8576    1.2178   -2.2681 C   0  0  0  0  0  0  0  0  0  0  0  0
    0.4588    1.4395   -3.3967 O   0  0  0  0  0  0  0  0  0  0  0  0
    1.6490    2.0761   -1.5860 O   0  0  0  0  0  0  0  0  0  0  0  0
    1.6932    2.8686   -2.1439 H   0  0  0  0  0  0  0  0  0  0  0  0
   -0.1005    1.0849    0.4826 C   0  0  0  0  0  0  0  0  0  0  0  0
   -1.1262    1.7289    0.2900 O   0  0  0  0  0  0  0  0  0  0  0  0
    0.8097    1.5211    1.4274 N   0  0  0  0  0  0  0  0  0  0  0  0
    1.6809    1.0052    1.5104 H   0  0  0  0  0  0  0  0  0  0  0  0
    0.6826    2.7960    2.1223 C   0  0  0  0  0  0  0  0  0  0  0  0
   -0.2707    2.8479    2.6587 H   0  0  0  0  0  0  0  0  0  0  0  0
    1.4923    2.9131    2.8489 H   0  0  0  0  0  0  0  0  0  0  0  0
    0.7320    3.6259    1.4095 H   0  0  0  0  0  0  0  0  0  0  0  0
  1  2  1  0  0  0  0
  2  3  1  0  0  0  0
  2  4  1  0  0  0  0
  2  5  1  0  0  0  0
  5  6  2  0  0  0  0
  5  7  1  0  0  0  0
  7  8  1  0  0  0  0
  7  9  1  0  0  0  0
  9 10  1  0  0  0  0
  9 11  1  0  0  0  0
  9 18  1  0  0  0  0
 11 12  1  0  0  0  0
 11 13  1  0  0  0  0
 11 14  1  0  0  0  0
 14 15  2  0  0  0  0
 14 16  1  0  0  0  0
 16 17  1  0  0  0  0
 18 19  2  0  0  0  0
 18 20  1  0  0  0  0
 20 21  1  0  0  0  0
 20 22  1  0  0  0  0
 22 23  1  0  0  0  0
 22 24  1  0  0  0  0
 22 25  1  0  0  0  0
M  END
$$$$

  -OEChem-03222214023D

 25 24  0     1  0  0  0  0  0999 V2000
   -2.6984   -3.9603    0.3942 H   0  0  0  0  0  0  0  0  0  0  0  0
   -2.7516   -2.9031    0.1196 C   0  0  0  0  0  0  0  0  0  0  0  0
   -3.3370   -2.3720    0.8739 H   0  0  0  0  0  0  0  0  0  0  0  0
   -3.2511   -2.8150   -0.8482 H   0  0  0  0  0  0  0  0  0  0  0  0
   -1.3563   -2.3138    0.0373 C   0  0  0  0  0  0  0  0  0  0  0  0
   -0.3799   -3.0176    0.2432 O   0  0  0  0  0  0  0  0  0  0  0  0
   -1.1894   -0.9799   -0.2715 N   0  0  0  0  0  0  0  0  0  0  0  0
   -2.0290   -0.4045   -0.3408 H   0  0  0  0  0  0  0  0  0  0  0  0
    0.0987   -0.2711   -0.2478 C   0  0  1  0  0  0  0  0  0  0  0  0
    0.8147   -0.8344    0.3603 H   0  0  0  0  0  0  0  0  0  0  0  0
    0.6523   -0.2037   -1.6948 C   0  0  0  0  0  0  0  0  0  0  0  0
    1.6118   -0.7251   -1.7248 H   0  0  0  0  0  0  0  0  0  0  0  0
   -0.0195   -0.7350   -2.3755 H   0  0  0  0  0  0  0  0  0  0  0  0
    0.8748    1.2003   -2.2477 C   0  0  0  0  0  0  0  0  0  0  0  0
    0.2671    1.5313   -3.2488 O   0  0  0  0  0  0  0  0  0  0  0  0
    1.8156    1.9739   -1.6612 O   0  0  0  0  0  0  0  0  0  0  0  0
    1.8046    2.8018   -2.1673 H   0  0  0  0  0  0  0  0  0  0  0  0
   -0.0838    1.0924    0.4578 C   0  0  0  0  0  0  0  0  0  0  0  0
   -1.1032    1.7436    0.2606 O   0  0  0  0  0  0  0  0  0  0  0  0
    0.8301    1.5309    1.3980 N   0  0  0  0  0  0  0  0  0  0  0  0
    1.6907    1.0006    1.4996 H   0  0  0  0  0  0  0  0  0  0  0  0
    0.7050    2.8057    2.0937 C   0  0  0  0  0  0  0  0  0  0  0  0
   -0.2412    2.8516    2.6430 H   0  0  0  0  0  0  0  0  0  0  0  0
    1.5240    2.9287    2.8087 H   0  0  0  0  0  0  0  0  0  0  0  0
    0.7389    3.6355    1.3801 H   0  0  0  0  0  0  0  0  0  0  0  0
  1  2  1  0  0  0  0
  2  3  1  0  0  0  0
  2  4  1  0  0  0  0
  2  5  1  0  0  0  0
  5  6  2  0  0  0  0
  5  7  1  0  0  0  0
  7  8  1  0  0  0  0
  7  9  1  0  0  0  0
  9 10  1  0  0  0  0
  9 11  1  0  0  0  0
  9 18  1  0  0  0  0
 11 12  1  0  0  0  0
 11 13  1  0  0  0  0
 11 14  1  0  0  0  0
 14 15  2  0  0  0  0
 14 16  1  0  0  0  0
 16 17  1  0  0  0  0
 18 19  2  0  0  0  0
 18 20  1  0  0  0  0
 20 21  1  0  0  0  0
 20 22  1  0  0  0  0
 22 23  1  0  0  0  0
 22 24  1  0  0  0  0
 22 25  1  0  0  0  0
M  END
$$$$

  -OEChem-03222214023D

 25 24  0     1  0  0  0  0  0999 V2000
   -2.7060   -3.9599    0.3981 H   0  0  0  0  0  0  0  0  0  0  0  0
   -2.7571   -2.9053    0.1135 C   0  0  0  0  0  0  0  0  0  0  0  0
   -3.3516   -2.3682    0.8566 H   0  0  0  0  0  0  0  0  0  0  0  0
   -3.2461   -2.8261   -0.8605 H   0  0  0  0  0  0  0  0  0  0  0  0
   -1.3616   -2.3147    0.0415 C   0  0  0  0  0  0  0  0  0  0  0  0
   -0.3863   -3.0158    0.2620 O   0  0  0  0  0  0  0  0  0  0  0  0
   -1.1946   -0.9831   -0.2767 N   0  0  0  0  0  0  0  0  0  0  0  0
   -2.0348   -0.4117   -0.3676 H   0  0  0  0  0  0  0  0  0  0  0  0
    0.0911   -0.2707   -0.2547 C   0  0  1  0  0  0  0  0  0  0  0  0
    0.7992   -0.8314    0.3651 H   0  0  0  0  0  0  0  0  0  0  0  0
    0.6671   -0.2201   -1.6916 C   0  0  0  0  0  0  0  0  0  0  0  0
    1.6294   -0.7372   -1.7042 H   0  0  0  0  0  0  0  0  0  0  0  0
    0.0075   -0.7575   -2.3790 H   0  0  0  0  0  0  0  0  0  0  0  0
    0.8850    1.1837   -2.2426 C   0  0  0  0  0  0  0  0  0  0  0  0
    0.1076    1.6133   -3.0742 O   0  0  0  0  0  0  0  0  0  0  0  0
    1.9493    1.8812   -1.7880 O   0  0  0  0  0  0  0  0  0  0  0  0
    1.8944    2.7370   -2.2425 H   0  0  0  0  0  0  0  0  0  0  0  0
   -0.0752    1.1020    0.4364 C   0  0  0  0  0  0  0  0  0  0  0  0
   -1.0940    1.7563    0.2501 O   0  0  0  0  0  0  0  0  0  0  0  0
    0.8484    1.5390    1.3680 N   0  0  0  0  0  0  0  0  0  0  0  0
    1.6996    0.9954    1.4790 H   0  0  0  0  0  0  0  0  0  0  0  0
    0.7322    2.8129    2.0673 C   0  0  0  0  0  0  0  0  0  0  0  0
   -0.2098    2.8607    2.6239 H   0  0  0  0  0  0  0  0  0  0  0  0
    1.5570    2.9319    2.7765 H   0  0  0  0  0  0  0  0  0  0  0  0
    0.7637    3.6441    1.3551 H   0  0  0  0  0  0  0  0  0  0  0  0
  1  2  1  0  0  0  0
  2  3  1  0  0  0  0
  2  4  1  0  0  0  0
  2  5  1  0  0  0  0
  5  6  2  0  0  0  0
  5  7  1  0  0  0  0
  7  8  1  0  0  0  0
  7  9  1  0  0  0  0
  9 10  1  0  0  0  0
  9 11  1  0  0  0  0
  9 18  1  0  0  0  0
 11 12  1  0  0  0  0
 11 13  1  0  0  0  0
 11 14  1  0  0  0  0
 14 15  2  0  0  0  0
 14 16  1  0  0  0  0
 16 17  1  0  0  0  0
 18 19  2  0  0  0  0
 18 20  1  0  0  0  0
 20 21  1  0  0  0  0
 20 22  1  0  0  0  0
 22 23  1  0  0  0  0
 22 24  1  0  0  0  0
 22 25  1  0  0  0  0
M  END
$$$$

  -OEChem-03222214023D

 25 24  0     1  0  0  0  0  0999 V2000
   -2.7060   -3.9512    0.4061 H   0  0  0  0  0  0  0  0  0  0  0  0
   -2.7589   -2.8962    0.1232 C   0  0  0  0  0  0  0  0  0  0  0  0
   -3.3462   -2.3594    0.8721 H   0  0  0  0  0  0  0  0  0  0  0  0
   -3.2564   -2.8157   -0.8464 H   0  0  0  0  0  0  0  0  0  0  0  0
   -1.3638   -2.3064    0.0394 C   0  0  0  0  0  0  0  0  0  0  0  0
   -0.3872   -3.0065    0.2576 O   0  0  0  0  0  0  0  0  0  0  0  0
   -1.1989   -0.9766   -0.2868 N   0  0  0  0  0  0  0  0  0  0  0  0
   -2.0399   -0.4060   -0.3760 H   0  0  0  0  0  0  0  0  0  0  0  0
    0.0843   -0.2604   -0.2694 C   0  0  1  0  0  0  0  0  0  0  0  0
    0.7848   -0.8165    0.3629 H   0  0  0  0  0  0  0  0  0  0  0  0
    0.6811   -0.2327   -1.6973 C   0  0  0  0  0  0  0  0  0  0  0  0
    1.6445   -0.7481   -1.6878 H   0  0  0  0  0  0  0  0  0  0  0  0
    0.0334   -0.7823   -2.3860 H   0  0  0  0  0  0  0  0  0  0  0  0
    0.8995    1.1625   -2.2673 C   0  0  0  0  0  0  0  0  0  0  0  0
    0.0016    1.6853   -2.8998 O   0  0  0  0  0  0  0  0  0  0  0  0
    2.0771    1.7697   -2.0064 O   0  0  0  0  0  0  0  0  0  0  0  0
    2.0017    2.6418   -2.4254 H   0  0  0  0  0  0  0  0  0  0  0  0
   -0.0713    1.1191    0.4105 C   0  0  0  0  0  0  0  0  0  0  0  0
   -1.1022    1.7618    0.2570 O   0  0  0  0  0  0  0  0  0  0  0  0
    0.8614    1.5549    1.3334 N   0  0  0  0  0  0  0  0  0  0  0  0
    1.7053    1.0016    1.4516 H   0  0  0  0  0  0  0  0  0  0  0  0
    0.7305    2.8058    2.0707 C   0  0  0  0  0  0  0  0  0  0  0  0
   -0.1895    2.8063    2.6651 H   0  0  0  0  0  0  0  0  0  0  0  0
    1.5791    2.9359    2.7492 H   0  0  0  0  0  0  0  0  0  0  0  0
    0.7046    3.6556    1.3804 H   0  0  0  0  0  0  0  0  0  0  0  0
  1  2  1  0  0  0  0
  2  3  1  0  0  0  0
  2  4  1  0  0  0  0
  2  5  1  0  0  0  0
  5  6  2  0  0  0  0
  5  7  1  0  0  0  0
  7  8  1  0  0  0  0
  7  9  1  0  0  0  0
  9 10  1  0  0  0  0
  9 11  1  0  0  0  0
  9 18  1  0  0  0  0
 11 12  1  0  0  0  0
 11 13  1  0  0  0  0
 11 14  1  0  0  0  0
 14 15  2  0  0  0  0
 14 16  1  0  0  0  0
 16 17  1  0  0  0  0
 18 19  2  0  0  0  0
 18 20  1  0  0  0  0
 20 21  1  0  0  0  0
 20 22  1  0  0  0  0
 22 23  1  0  0  0  0
 22 24  1  0  0  0  0
 22 25  1  0  0  0  0
M  END
$$$$

  -OEChem-03222214023D

 25 24  0     1  0  0  0  0  0999 V2000
   -2.6963   -3.9445    0.4178 H   0  0  0  0  0  0  0  0  0  0  0  0
   -2.7564   -2.8890    0.1384 C   0  0  0  0  0  0  0  0  0  0  0  0
   -3.3322   -2.3554    0.8985 H   0  0  0  0  0  0  0  0  0  0  0  0
   -3.2710   -2.8072   -0.8221 H   0  0  0  0  0  0  0  0  0  0  0  0
   -1.3642   -2.2961    0.0320 C   0  0  0  0  0  0  0  0  0  0  0  0
   -0.3826   -2.9949    0.2321 O   0  0  0  0  0  0  0  0  0  0  0  0
   -1.2067   -0.9657   -0.2957 N   0  0  0  0  0  0  0  0  0  0  0  0
   -2.0498   -0.3947   -0.3612 H   0  0  0  0  0  0  0  0  0  0  0  0
    0.0739   -0.2445   -0.2837 C   0  0  1  0  0  0  0  0  0  0  0  0
    0.7690   -0.7972    0.3573 H   0  0  0  0  0  0  0  0  0  0  0  0
    0.6900   -0.2332   -1.7043 C   0  0  0  0  0  0  0  0  0  0  0  0
    1.6529   -0.7494   -1.6737 H   0  0  0  0  0  0  0  0  0  0  0  0
    0.0514   -0.7942   -2.3919 H   0  0  0  0  0  0  0  0  0  0  0  0
    0.9144    1.1491   -2.3046 C   0  0  0  0  0  0  0  0  0  0  0  0
   -0.0420    1.7744   -2.7200 O   0  0  0  0  0  0  0  0  0  0  0  0
    2.1726    1.6382   -2.2960 O   0  0  0  0  0  0  0  0  0  0  0  0
    2.0967    2.5222   -2.6893 H   0  0  0  0  0  0  0  0  0  0  0  0
   -0.0782    1.1360    0.3950 C   0  0  0  0  0  0  0  0  0  0  0  0
   -1.1294    1.7555    0.2912 O   0  0  0  0  0  0  0  0  0  0  0  0
    0.8631    1.5689    1.3111 N   0  0  0  0  0  0  0  0  0  0  0  0
    1.7036    1.0102    1.4284 H   0  0  0  0  0  0  0  0  0  0  0  0
    0.7173    2.7945    2.0870 C   0  0  0  0  0  0  0  0  0  0  0  0
   -0.1739    2.7426    2.7212 H   0  0  0  0  0  0  0  0  0  0  0  0
    1.5903    2.9423    2.7296 H   0  0  0  0  0  0  0  0  0  0  0  0
    0.6268    3.6597    1.4217 H   0  0  0  0  0  0  0  0  0  0  0  0
  1  2  1  0  0  0  0
  2  3  1  0  0  0  0
  2  4  1  0  0  0  0
  2  5  1  0  0  0  0
  5  6  2  0  0  0  0
  5  7  1  0  0  0  0
  7  8  1  0  0  0  0
  7  9  1  0  0  0  0
  9 10  1  0  0  0  0
  9 11  1  0  0  0  0
  9 18  1  0  0  0  0
 11 12  1  0  0  0  0
 11 13  1  0  0  0  0
 11 14  1  0  0  0  0
 14 15  2  0  0  0  0
 14 16  1  0  0  0  0
 16 17  1  0  0  0  0
 18 19  2  0  0  0  0
 18 20  1  0  0  0  0
 20 21  1  0  0  0  0
 20 22  1  0  0  0  0
 22 23  1  0  0  0  0
 22 24  1  0  0  0  0
 22 25  1  0  0  0  0
M  END
$$$$

  -OEChem-03222214023D

 25 24  0     1  0  0  0  0  0999 V2000
   -2.6797   -3.9345    0.4286 H   0  0  0  0  0  0  0  0  0  0  0  0
   -2.7475   -2.8781    0.1543 C   0  0  0  0  0  0  0  0  0  0  0  0
   -3.3056   -2.3478    0.9297 H   0  0  0  0  0  0  0  0  0  0  0  0
   -3.2843   -2.7934   -0.7935 H   0  0  0  0  0  0  0  0  0  0  0  0
   -1.3589   -2.2831    0.0177 C   0  0  0  0  0  0  0  0  0  0  0  0
   -0.3718   -2.9817    0.1893 O   0  0  0  0  0  0  0  0  0  0  0  0
   -1.2109   -0.9501   -0.3030 N   0  0  0  0  0  0  0  0  0  0  0  0
   -2.0561   -0.3792   -0.3355 H   0  0  0  0  0  0  0  0  0  0  0  0
    0.0661   -0.2227   -0.2945 C   0  0  1  0  0  0  0  0  0  0  0  0
    0.7597   -0.7733    0.3499 H   0  0  0  0  0  0  0  0  0  0  0  0
    0.6924   -0.2236   -1.7122 C   0  0  0  0  0  0  0  0  0  0  0  0
    1.6542   -0.7408   -1.6631 H   0  0  0  0  0  0  0  0  0  0  0  0
    0.0602   -0.7990   -2.3933 H   0  0  0  0  0  0  0  0  0  0  0  0
    0.9265    1.1404   -2.3539 C   0  0  0  0  0  0  0  0  0  0  0  0
   -0.0171    1.8813   -2.5490 O   0  0  0  0  0  0  0  0  0  0  0  0
    2.2009    1.4776   -2.6441 O   0  0  0  0  0  0  0  0  0  0  0  0
    2.1411    2.3672   -3.0267 H   0  0  0  0  0  0  0  0  0  0  0  0
   -0.0905    1.1530    0.3942 C   0  0  0  0  0  0  0  0  0  0  0  0
   -1.1639    1.7414    0.3445 O   0  0  0  0  0  0  0  0  0  0  0  0
    0.8565    1.5824    1.3069 N   0  0  0  0  0  0  0  0  0  0  0  0
    1.7047    1.0323    1.4063 H   0  0  0  0  0  0  0  0  0  0  0  0
    0.6924    2.7784    2.1251 C   0  0  0  0  0  0  0  0  0  0  0  0
   -0.1753    2.6751    2.7852 H   0  0  0  0  0  0  0  0  0  0  0  0
    1.5804    2.9391    2.7436 H   0  0  0  0  0  0  0  0  0  0  0  0
    0.5491    3.6595    1.4907 H   0  0  0  0  0  0  0  0  0  0  0  0
  1  2  1  0  0  0  0
  2  3  1  0  0  0  0
  2  4  1  0  0  0  0
  2  5  1  0  0  0  0
  5  6  2  0  0  0  0
  5  7  1  0  0  0  0
  7  8  1  0  0  0  0
  7  9  1  0  0  0  0
  9 10  1  0  0  0  0
  9 11  1  0  0  0  0
  9 18  1  0  0  0  0
 11 12  1  0  0  0  0
 11 13  1  0  0  0  0
 11 14  1  0  0  0  0
 14 15  2  0  0  0  0
 14 16  1  0  0  0  0
 16 17  1  0  0  0  0
 18 19  2  0  0  0  0
 18 20  1  0  0  0  0
 20 21  1  0  0  0  0
 20 22  1  0  0  0  0
 22 23  1  0  0  0  0
 22 24  1  0  0  0  0
 22 25  1  0  0  0  0
M  END
$$$$

  -OEChem-03222214023D

 25 24  0     1  0  0  0  0  0999 V2000
   -2.6577   -3.9350    0.4281 H   0  0  0  0  0  0  0  0  0  0  0  0
   -2.7357   -2.8778    0.1596 C   0  0  0  0  0  0  0  0  0  0  0  0
   -3.2837   -2.3540    0.9465 H   0  0  0  0  0  0  0  0  0  0  0  0
   -3.2886   -2.7919   -0.7789 H   0  0  0  0  0  0  0  0  0  0  0  0
   -1.3527   -2.2746    0.0026 C   0  0  0  0  0  0  0  0  0  0  0  0
   -0.3595   -2.9717    0.1417 O   0  0  0  0  0  0  0  0  0  0  0  0
   -1.2167   -0.9364   -0.3023 N   0  0  0  0  0  0  0  0  0  0  0  0
   -2.0639   -0.3674   -0.2976 H   0  0  0  0  0  0  0  0  0  0  0  0
    0.0570   -0.2021   -0.2966 C   0  0  1  0  0  0  0  0  0  0  0  0
    0.7533   -0.7545    0.3434 H   0  0  0  0  0  0  0  0  0  0  0  0
    0.6849   -0.2028   -1.7165 C   0  0  0  0  0  0  0  0  0  0  0  0
    1.6462   -0.7194   -1.6569 H   0  0  0  0  0  0  0  0  0  0  0  0
    0.0562   -0.7903   -2.3903 H   0  0  0  0  0  0  0  0  0  0  0  0
    0.9297    1.1424   -2.3985 C   0  0  0  0  0  0  0  0  0  0  0  0
    0.0757    2.0064   -2.3844 O   0  0  0  0  0  0  0  0  0  0  0  0
    2.1328    1.3110   -2.9869 O   0  0  0  0  0  0  0  0  0  0  0  0
    2.1036    2.2051   -3.3623 H   0  0  0  0  0  0  0  0  0  0  0  0
   -0.1054    1.1631    0.4127 C   0  0  0  0  0  0  0  0  0  0  0  0
   -1.1949    1.7251    0.4048 O   0  0  0  0  0  0  0  0  0  0  0  0
    0.8458    1.5880    1.3235 N   0  0  0  0  0  0  0  0  0  0  0  0
    1.7073    1.0549    1.3950 H   0  0  0  0  0  0  0  0  0  0  0  0
    0.6779    2.7703    2.1605 C   0  0  0  0  0  0  0  0  0  0  0  0
   -0.1874    2.6525    2.8213 H   0  0  0  0  0  0  0  0  0  0  0  0
    1.5668    2.9261    2.7794 H   0  0  0  0  0  0  0  0  0  0  0  0
    0.5283    3.6602    1.5398 H   0  0  0  0  0  0  0  0  0  0  0  0
  1  2  1  0  0  0  0
  2  3  1  0  0  0  0
  2  4  1  0  0  0  0
  2  5  1  0  0  0  0
  5  6  2  0  0  0  0
  5  7  1  0  0  0  0
  7  8  1  0  0  0  0
  7  9  1  0  0  0  0
  9 10  1  0  0  0  0
  9 11  1  0  0  0  0
  9 18  1  0  0  0  0
 11 12  1  0  0  0  0
 11 13  1  0  0  0  0
 11 14  1  0  0  0  0
 14 15  2  0  0  0  0
 14 16  1  0  0  0  0
 16 17  1  0  0  0  0
 18 19  2  0  0  0  0
 18 20  1  0  0  0  0
 20 21  1  0  0  0  0
 20 22  1  0  0  0  0
 22 23  1  0  0  0  0
 22 24  1  0  0  0  0
 22 25  1  0  0  0  0
M  END
$$$$

  -OEChem-03222214023D

 25 24  0     1  0  0  0  0  0999 V2000
   -2.6410   -3.9305    0.4218 H   0  0  0  0  0  0  0  0  0  0  0  0
   -2.7250   -2.8707    0.1658 C   0  0  0  0  0  0  0  0  0  0  0  0
   -3.2563   -2.3555    0.9698 H   0  0  0  0  0  0  0  0  0  0  0  0
   -3.2980   -2.7753   -0.7596 H   0  0  0  0  0  0  0  0  0  0  0  0
   -1.3456   -2.2654   -0.0150 C   0  0  0  0  0  0  0  0  0  0  0  0
   -0.3498   -2.9644    0.0930 O   0  0  0  0  0  0  0  0  0  0  0  0
   -1.2154   -0.9229   -0.3034 N   0  0  0  0  0  0  0  0  0  0  0  0
   -2.0618   -0.3537   -0.2659 H   0  0  0  0  0  0  0  0  0  0  0  0
    0.0580   -0.1873   -0.2966 C   0  0  1  0  0  0  0  0  0  0  0  0
    0.7587   -0.7438    0.3351 H   0  0  0  0  0  0  0  0  0  0  0  0
    0.6766   -0.1814   -1.7237 C   0  0  0  0  0  0  0  0  0  0  0  0
    1.6365   -0.7012   -1.6658 H   0  0  0  0  0  0  0  0  0  0  0  0
    0.0433   -0.7733   -2.3892 H   0  0  0  0  0  0  0  0  0  0  0  0
    0.9341    1.1473   -2.4378 C   0  0  0  0  0  0  0  0  0  0  0  0
    0.2417    2.1238   -2.2335 O   0  0  0  0  0  0  0  0  0  0  0  0
    1.9743    1.1593   -3.2979 O   0  0  0  0  0  0  0  0  0  0  0  0
    1.9850    2.0572   -3.6649 H   0  0  0  0  0  0  0  0  0  0  0  0
   -0.1158    1.1652    0.4347 C   0  0  0  0  0  0  0  0  0  0  0  0
   -1.2145    1.7107    0.4434 O   0  0  0  0  0  0  0  0  0  0  0  0
    0.8334    1.5851    1.3500 N   0  0  0  0  0  0  0  0  0  0  0  0
    1.7075    1.0707    1.3981 H   0  0  0  0  0  0  0  0  0  0  0  0
    0.6601    2.7598    2.1965 C   0  0  0  0  0  0  0  0  0  0  0  0
   -0.1983    2.6283    2.8637 H   0  0  0  0  0  0  0  0  0  0  0  0
    1.5525    2.9208    2.8090 H   0  0  0  0  0  0  0  0  0  0  0  0
    0.4960    3.6522    1.5830 H   0  0  0  0  0  0  0  0  0  0  0  0
  1  2  1  0  0  0  0
  2  3  1  0  0  0  0
  2  4  1  0  0  0  0
  2  5  1  0  0  0  0
  5  6  2  0  0  0  0
  5  7  1  0  0  0  0
  7  8  1  0  0  0  0
  7  9  1  0  0  0  0
  9 10  1  0  0  0  0
  9 11  1  0  0  0  0
  9 18  1  0  0  0  0
 11 12  1  0  0  0  0
 11 13  1  0  0  0  0
 11 14  1  0  0  0  0
 14 15  2  0  0  0  0
 14 16  1  0  0  0  0
 16 17  1  0  0  0  0
 18 19  2  0  0  0  0
 18 20  1  0  0  0  0
 20 21  1  0  0  0  0
 20 22  1  0  0  0  0
 22 23  1  0  0  0  0
 22 24  1  0  0  0  0
 22 25  1  0  0  0  0
M  END
$$$$

  -OEChem-03222214023D

 25 24  0     1  0  0  0  0  0999 V2000
   -2.6359   -3.9291    0.4127 H   0  0  0  0  0  0  0  0  0  0  0  0
   -2.7193   -2.8685    0.1597 C   0  0  0  0  0  0  0  0  0  0  0  0
   -3.2477   -2.3547    0.9663 H   0  0  0  0  0  0  0  0  0  0  0  0
   -3.2947   -2.7701   -0.7638 H   0  0  0  0  0  0  0  0  0  0  0  0
   -1.3402   -2.2638   -0.0238 C   0  0  0  0  0  0  0  0  0  0  0  0
   -0.3447   -2.9656    0.0673 O   0  0  0  0  0  0  0  0  0  0  0  0
   -1.2107   -0.9183   -0.2975 N   0  0  0  0  0  0  0  0  0  0  0  0
   -2.0551   -0.3479   -0.2368 H   0  0  0  0  0  0  0  0  0  0  0  0
    0.0648   -0.1859   -0.2892 C   0  0  1  0  0  0  0  0  0  0  0  0
    0.7722   -0.7484    0.3295 H   0  0  0  0  0  0  0  0  0  0  0  0
    0.6638   -0.1651   -1.7270 C   0  0  0  0  0  0  0  0  0  0  0  0
    1.6199   -0.6930   -1.6867 H   0  0  0  0  0  0  0  0  0  0  0  0
    0.0163   -0.7496   -2.3853 H   0  0  0  0  0  0  0  0  0  0  0  0
    0.9291    1.1567   -2.4547 C   0  0  0  0  0  0  0  0  0  0  0  0
    0.4553    2.2108   -2.0818 O   0  0  0  0  0  0  0  0  0  0  0  0
    1.7294    1.0641   -3.5377 O   0  0  0  0  0  0  0  0  0  0  0  0
    1.7841    1.9676   -3.8864 H   0  0  0  0  0  0  0  0  0  0  0  0
   -0.1194    1.1545    0.4620 C   0  0  0  0  0  0  0  0  0  0  0  0
   -1.2214    1.6947    0.4679 O   0  0  0  0  0  0  0  0  0  0  0  0
    0.8250    1.5707    1.3838 N   0  0  0  0  0  0  0  0  0  0  0  0
    1.7158    1.0839    1.4014 H   0  0  0  0  0  0  0  0  0  0  0  0
    0.6564    2.7583    2.2130 C   0  0  0  0  0  0  0  0  0  0  0  0
   -0.2245    2.6560    2.8556 H   0  0  0  0  0  0  0  0  0  0  0  0
    1.5333    2.9026    2.8513 H   0  0  0  0  0  0  0  0  0  0  0  0
    0.5338    3.6481    1.5860 H   0  0  0  0  0  0  0  0  0  0  0  0
  1  2  1  0  0  0  0
  2  3  1  0  0  0  0
  2  4  1  0  0  0  0
  2  5  1  0  0  0  0
  5  6  2  0  0  0  0
  5  7  1  0  0  0  0
  7  8  1  0  0  0  0
  7  9  1  0  0  0  0
  9 10  1  0  0  0  0
  9 11  1  0  0  0  0
  9 18  1  0  0  0  0
 11 12  1  0  0  0  0
 11 13  1  0  0  0  0
 11 14  1  0  0  0  0
 14 15  2  0  0  0  0
 14 16  1  0  0  0  0
 16 17  1  0  0  0  0
 18 19  2  0  0  0  0
 18 20  1  0  0  0  0
 20 21  1  0  0  0  0
 20 22  1  0  0  0  0
 22 23  1  0  0  0  0
 22 24  1  0  0  0  0
 22 25  1  0  0  0  0
M  END
$$$$

  -OEChem-03222214023D

 25 24  0     1  0  0  0  0  0999 V2000
   -2.6409   -3.9271    0.4122 H   0  0  0  0  0  0  0  0  0  0  0  0
   -2.7206   -2.8672    0.1549 C   0  0  0  0  0  0  0  0  0  0  0  0
   -3.2509   -2.3490    0.9576 H   0  0  0  0  0  0  0  0  0  0  0  0
   -3.2921   -2.7704   -0.7714 H   0  0  0  0  0  0  0  0  0  0  0  0
   -1.3390   -2.2670   -0.0243 C   0  0  0  0  0  0  0  0  0  0  0  0
   -0.3464   -2.9736    0.0615 O   0  0  0  0  0  0  0  0  0  0  0  0
   -1.2037   -0.9206   -0.2910 N   0  0  0  0  0  0  0  0  0  0  0  0
   -2.0446   -0.3460   -0.2215 H   0  0  0  0  0  0  0  0  0  0  0  0
    0.0767   -0.1959   -0.2807 C   0  0  1  0  0  0  0  0  0  0  0  0
    0.7909   -0.7631    0.3260 H   0  0  0  0  0  0  0  0  0  0  0  0
    0.6522   -0.1576   -1.7292 C   0  0  0  0  0  0  0  0  0  0  0  0
    1.6032   -0.6952   -1.7130 H   0  0  0  0  0  0  0  0  0  0  0  0
   -0.0126   -0.7285   -2.3826 H   0  0  0  0  0  0  0  0  0  0  0  0
    0.9215    1.1668   -2.4525 C   0  0  0  0  0  0  0  0  0  0  0  0
    0.7048    2.2475   -1.9420 O   0  0  0  0  0  0  0  0  0  0  0  0
    1.4283    1.0422   -3.6973 O   0  0  0  0  0  0  0  0  0  0  0  0
    1.5289    1.9516   -4.0193 H   0  0  0  0  0  0  0  0  0  0  0  0
   -0.1176    1.1368    0.4816 C   0  0  0  0  0  0  0  0  0  0  0  0
   -1.2159    1.6852    0.4647 O   0  0  0  0  0  0  0  0  0  0  0  0
    0.8194    1.5508    1.4117 N   0  0  0  0  0  0  0  0  0  0  0  0
    1.7205    1.0831    1.4103 H   0  0  0  0  0  0  0  0  0  0  0  0
    0.6606    2.7598    2.2106 C   0  0  0  0  0  0  0  0  0  0  0  0
   -0.2469    2.7013    2.8207 H   0  0  0  0  0  0  0  0  0  0  0  0
    1.5171    2.8865    2.8795 H   0  0  0  0  0  0  0  0  0  0  0  0
    0.5928    3.6397    1.5621 H   0  0  0  0  0  0  0  0  0  0  0  0
  1  2  1  0  0  0  0
  2  3  1  0  0  0  0
  2  4  1  0  0  0  0
  2  5  1  0  0  0  0
  5  6  2  0  0  0  0
  5  7  1  0  0  0  0
  7  8  1  0  0  0  0
  7  9  1  0  0  0  0
  9 10  1  0  0  0  0
  9 11  1  0  0  0  0
  9 18  1  0  0  0  0
 11 12  1  0  0  0  0
 11 13  1  0  0  0  0
 11 14  1  0  0  0  0
 14 15  2  0  0  0  0
 14 16  1  0  0  0  0
 16 17  1  0  0  0  0
 18 19  2  0  0  0  0
 18 20  1  0  0  0  0
 20 21  1  0  0  0  0
 20 22  1  0  0  0  0
 22 23  1  0  0  0  0
 22 24  1  0  0  0  0
 22 25  1  0  0  0  0
M  END
$$$$

  -OEChem-03222214023D

 25 24  0     1  0  0  0  0  0999 V2000
   -2.6565   -3.9243    0.4183 H   0  0  0  0  0  0  0  0  0  0  0  0
   -2.7280   -2.8634    0.1625 C   0  0  0  0  0  0  0  0  0  0  0  0
   -3.2523   -2.3422    0.9672 H   0  0  0  0  0  0  0  0  0  0  0  0
   -3.3006   -2.7610   -0.7625 H   0  0  0  0  0  0  0  0  0  0  0  0
   -1.3418   -2.2746   -0.0197 C   0  0  0  0  0  0  0  0  0  0  0  0
   -0.3550   -2.9887    0.0690 O   0  0  0  0  0  0  0  0  0  0  0  0
   -1.1941   -0.9301   -0.2893 N   0  0  0  0  0  0  0  0  0  0  0  0
   -2.0300   -0.3476   -0.2255 H   0  0  0  0  0  0  0  0  0  0  0  0
    0.0935   -0.2178   -0.2763 C   0  0  1  0  0  0  0  0  0  0  0  0
    0.8119   -0.7878    0.3228 H   0  0  0  0  0  0  0  0  0  0  0  0
    0.6482   -0.1627   -1.7326 C   0  0  0  0  0  0  0  0  0  0  0  0
    1.5929   -0.7112   -1.7439 H   0  0  0  0  0  0  0  0  0  0  0  0
   -0.0352   -0.7131   -2.3850 H   0  0  0  0  0  0  0  0  0  0  0  0
    0.9200    1.1737   -2.4323 C   0  0  0  0  0  0  0  0  0  0  0  0
    0.9798    2.2240   -1.8230 O   0  0  0  0  0  0  0  0  0  0  0  0
    1.1050    1.0971   -3.7672 O   0  0  0  0  0  0  0  0  0  0  0  0
    1.2497    2.0123   -4.0536 H   0  0  0  0  0  0  0  0  0  0  0  0
   -0.1107    1.1138    0.4855 C   0  0  0  0  0  0  0  0  0  0  0  0
   -1.1992    1.6791    0.4278 O   0  0  0  0  0  0  0  0  0  0  0  0
    0.8138    1.5314    1.4257 N   0  0  0  0  0  0  0  0  0  0  0  0
    1.7199    1.0737    1.4220 H   0  0  0  0  0  0  0  0  0  0  0  0
    0.6597    2.7638    2.1890 C   0  0  0  0  0  0  0  0  0  0  0  0
   -0.2605    2.7363    2.7820 H   0  0  0  0  0  0  0  0  0  0  0  0
    1.5049    2.8944    2.8717 H   0  0  0  0  0  0  0  0  0  0  0  0
    0.6201    3.6271    1.5162 H   0  0  0  0  0  0  0  0  0  0  0  0
  1  2  1  0  0  0  0
  2  3  1  0  0  0  0
  2  4  1  0  0  0  0
  2  5  1  0  0  0  0
  5  6  2  0  0  0  0
  5  7  1  0  0  0  0
  7  8  1  0  0  0  0
  7  9  1  0  0  0  0
  9 10  1  0  0  0  0
  9 11  1  0  0  0  0
  9 18  1  0  0  0  0
 11 12  1  0  0  0  0
 11 13  1  0  0  0  0
 11 14  1  0  0  0  0
 14 15  2  0  0  0  0
 14 16  1  0  0  0  0
 16 17  1  0  0  0  0
 18 19  2  0  0  0  0
 18 20  1  0  0  0  0
 20 21  1  0  0  0  0
 20 22  1  0  0  0  0
 22 23  1  0  0  0  0
 22 24  1  0  0  0  0
 22 25  1  0  0  0  0
M  END
$$$$

  -OEChem-03222214023D

 25 24  0     1  0  0  0  0  0999 V2000
   -2.6773   -3.9269    0.4280 H   0  0  0  0  0  0  0  0  0  0  0  0
   -2.7372   -2.8665    0.1675 C   0  0  0  0  0  0  0  0  0  0  0  0
   -3.2656   -2.3373    0.9644 H   0  0  0  0  0  0  0  0  0  0  0  0
   -3.2993   -2.7634   -0.7638 H   0  0  0  0  0  0  0  0  0  0  0  0
   -1.3441   -2.2900   -0.0024 C   0  0  0  0  0  0  0  0  0  0  0  0
   -0.3643   -3.0108    0.1057 O   0  0  0  0  0  0  0  0  0  0  0  0
   -1.1833   -0.9494   -0.2839 N   0  0  0  0  0  0  0  0  0  0  0  0
   -2.0156   -0.3602   -0.2387 H   0  0  0  0  0  0  0  0  0  0  0  0
    0.1106   -0.2482   -0.2715 C   0  0  1  0  0  0  0  0  0  0  0  0
    0.8332   -0.8184    0.3222 H   0  0  0  0  0  0  0  0  0  0  0  0
    0.6444   -0.1782   -1.7339 C   0  0  0  0  0  0  0  0  0  0  0  0
    1.5837   -0.7341   -1.7736 H   0  0  0  0  0  0  0  0  0  0  0  0
   -0.0549   -0.7070   -2.3872 H   0  0  0  0  0  0  0  0  0  0  0  0
    0.9104    1.1789   -2.3926 C   0  0  0  0  0  0  0  0  0  0  0  0
    1.2462    2.1448   -1.7326 O   0  0  0  0  0  0  0  0  0  0  0  0
    0.7682    1.2255   -3.7343 O   0  0  0  0  0  0  0  0  0  0  0  0
    0.9557    2.1460   -3.9752 H   0  0  0  0  0  0  0  0  0  0  0  0
   -0.0993    1.0890    0.4790 C   0  0  0  0  0  0  0  0  0  0  0  0
   -1.1726    1.6759    0.3711 O   0  0  0  0  0  0  0  0  0  0  0  0
    0.8135    1.5174    1.4259 N   0  0  0  0  0  0  0  0  0  0  0  0
    1.7211    1.0621    1.4323 H   0  0  0  0  0  0  0  0  0  0  0  0
    0.6641    2.7767    2.1446 C   0  0  0  0  0  0  0  0  0  0  0  0
   -0.2734    2.7870    2.7104 H   0  0  0  0  0  0  0  0  0  0  0  0
    1.4915    2.9119    2.8475 H   0  0  0  0  0  0  0  0  0  0  0  0
    0.6625    3.6183    1.4437 H   0  0  0  0  0  0  0  0  0  0  0  0
  1  2  1  0  0  0  0
  2  3  1  0  0  0  0
  2  4  1  0  0  0  0
  2  5  1  0  0  0  0
  5  6  2  0  0  0  0
  5  7  1  0  0  0  0
  7  8  1  0  0  0  0
  7  9  1  0  0  0  0
  9 10  1  0  0  0  0
  9 11  1  0  0  0  0
  9 18  1  0  0  0  0
 11 12  1  0  0  0  0
 11 13  1  0  0  0  0
 11 14  1  0  0  0  0
 14 15  2  0  0  0  0
 14 16  1  0  0  0  0
 16 17  1  0  0  0  0
 18 19  2  0  0  0  0
 18 20  1  0  0  0  0
 20 21  1  0  0  0  0
 20 22  1  0  0  0  0
 22 23  1  0  0  0  0
 22 24  1  0  0  0  0
 22 25  1  0  0  0  0
M  END
$$$$

  -OEChem-03222214023D

 25 24  0     1  0  0  0  0  0999 V2000
   -2.6869   -3.9336    0.4617 H   0  0  0  0  0  0  0  0  0  0  0  0
   -2.7420   -2.8814    0.1687 C   0  0  0  0  0  0  0  0  0  0  0  0
   -3.2886   -2.3300    0.9378 H   0  0  0  0  0  0  0  0  0  0  0  0
   -3.2828   -2.8064   -0.7779 H   0  0  0  0  0  0  0  0  0  0  0  0
   -1.3466   -2.3075    0.0129 C   0  0  0  0  0  0  0  0  0  0  0  0
   -0.3686   -3.0265    0.1457 O   0  0  0  0  0  0  0  0  0  0  0  0
   -1.1826   -0.9704   -0.2824 N   0  0  0  0  0  0  0  0  0  0  0  0
   -2.0166   -0.3825   -0.2653 H   0  0  0  0  0  0  0  0  0  0  0  0
    0.1114   -0.2703   -0.2700 C   0  0  1  0  0  0  0  0  0  0  0  0
    0.8367   -0.8372    0.3238 H   0  0  0  0  0  0  0  0  0  0  0  0
    0.6391   -0.1942   -1.7312 C   0  0  0  0  0  0  0  0  0  0  0  0
    1.5827   -0.7423   -1.7816 H   0  0  0  0  0  0  0  0  0  0  0  0
   -0.0591   -0.7152   -2.3921 H   0  0  0  0  0  0  0  0  0  0  0  0
    0.8887    1.1846   -2.3431 C   0  0  0  0  0  0  0  0  0  0  0  0
    1.4716    2.0381   -1.6979 O   0  0  0  0  0  0  0  0  0  0  0  0
    0.4522    1.3853   -3.6051 O   0  0  0  0  0  0  0  0  0  0  0  0
    0.6745    2.3075   -3.8058 H   0  0  0  0  0  0  0  0  0  0  0  0
   -0.0942    1.0768    0.4631 C   0  0  0  0  0  0  0  0  0  0  0  0
   -1.1502    1.6851    0.3153 O   0  0  0  0  0  0  0  0  0  0  0  0
    0.8157    1.5134    1.4085 N   0  0  0  0  0  0  0  0  0  0  0  0
    1.7182    1.0478    1.4285 H   0  0  0  0  0  0  0  0  0  0  0  0
    0.6812    2.7920    2.0956 C   0  0  0  0  0  0  0  0  0  0  0  0
   -0.2771    2.8468    2.6228 H   0  0  0  0  0  0  0  0  0  0  0  0
    1.4836    2.9134    2.8294 H   0  0  0  0  0  0  0  0  0  0  0  0
    0.7368    3.6179    1.3786 H   0  0  0  0  0  0  0  0  0  0  0  0
  1  2  1  0  0  0  0
  2  3  1  0  0  0  0
  2  4  1  0  0  0  0
  2  5  1  0  0  0  0
  5  6  2  0  0  0  0
  5  7  1  0  0  0  0
  7  8  1  0  0  0  0
  7  9  1  0  0  0  0
  9 10  1  0  0  0  0
  9 11  1  0  0  0  0
  9 18  1  0  0  0  0
 11 12  1  0  0  0  0
 11 13  1  0  0  0  0
 11 14  1  0  0  0  0
 14 15  2  0  0  0  0
 14 16  1  0  0  0  0
 16 17  1  0  0  0  0
 18 19  2  0  0  0  0
 18 20  1  0  0  0  0
 20 21  1  0  0  0  0
 20 22  1  0  0  0  0
 22 23  1  0  0  0  0
 22 24  1  0  0  0  0
 22 25  1  0  0  0  0
M  END
$$$$

  -OEChem-03222214023D

 25 24  0     1  0  0  0  0  0999 V2000
   -2.6935   -3.9555    0.4606 H   0  0  0  0  0  0  0  0  0  0  0  0
   -2.7480   -2.9048    0.1627 C   0  0  0  0  0  0  0  0  0  0  0  0
   -3.3072   -2.3522    0.9217 H   0  0  0  0  0  0  0  0  0  0  0  0
   -3.2757   -2.8352   -0.7915 H   0  0  0  0  0  0  0  0  0  0  0  0
   -1.3521   -2.3272    0.0251 C   0  0  0  0  0  0  0  0  0  0  0  0
   -0.3742   -3.0410    0.1836 O   0  0  0  0  0  0  0  0  0  0  0  0
   -1.1878   -0.9928   -0.2820 N   0  0  0  0  0  0  0  0  0  0  0  0
   -2.0251   -0.4098   -0.2967 H   0  0  0  0  0  0  0  0  0  0  0  0
    0.1031   -0.2879   -0.2683 C   0  0  1  0  0  0  0  0  0  0  0  0
    0.8272   -0.8515    0.3298 H   0  0  0  0  0  0  0  0  0  0  0  0
    0.6381   -0.2073   -1.7233 C   0  0  0  0  0  0  0  0  0  0  0  0
    1.5893   -0.7425   -1.7759 H   0  0  0  0  0  0  0  0  0  0  0  0
   -0.0509   -0.7232   -2.3976 H   0  0  0  0  0  0  0  0  0  0  0  0
    0.8668    1.1935   -2.2839 C   0  0  0  0  0  0  0  0  0  0  0  0
    1.6598    1.9270   -1.7188 O   0  0  0  0  0  0  0  0  0  0  0  0
    0.1793    1.5536   -3.3888 O   0  0  0  0  0  0  0  0  0  0  0  0
    0.4310    2.4749   -3.5559 H   0  0  0  0  0  0  0  0  0  0  0  0
   -0.0932    1.0698    0.4470 C   0  0  0  0  0  0  0  0  0  0  0  0
   -1.1313    1.6983    0.2658 O   0  0  0  0  0  0  0  0  0  0  0  0
    0.8173    1.5138    1.3878 N   0  0  0  0  0  0  0  0  0  0  0  0
    1.7100    1.0307    1.4287 H   0  0  0  0  0  0  0  0  0  0  0  0
    0.7034    2.8128    2.0394 C   0  0  0  0  0  0  0  0  0  0  0  0
   -0.2553    2.8996    2.5616 H   0  0  0  0  0  0  0  0  0  0  0  0
    1.5057    2.9396    2.7726 H   0  0  0  0  0  0  0  0  0  0  0  0
    0.7769    3.6176    1.3003 H   0  0  0  0  0  0  0  0  0  0  0  0
  1  2  1  0  0  0  0
  2  3  1  0  0  0  0
  2  4  1  0  0  0  0
  2  5  1  0  0  0  0
  5  6  2  0  0  0  0
  5  7  1  0  0  0  0
  7  8  1  0  0  0  0
  7  9  1  0  0  0  0
  9 10  1  0  0  0  0
  9 11  1  0  0  0  0
  9 18  1  0  0  0  0
 11 12  1  0  0  0  0
 11 13  1  0  0  0  0
 11 14  1  0  0  0  0
 14 15  2  0  0  0  0
 14 16  1  0  0  0  0
 16 17  1  0  0  0  0
 18 19  2  0  0  0  0
 18 20  1  0  0  0  0
 20 21  1  0  0  0  0
 20 22  1  0  0  0  0
 22 23  1  0  0  0  0
 22 24  1  0  0  0  0
 22 25  1  0  0  0  0
M  END
$$$$

  -OEChem-03222214023D

 25 24  0     1  0  0  0  0  0999 V2000
   -2.6907   -3.9758    0.4426 H   0  0  0  0  0  0  0  0  0  0  0  0
   -2.7497   -2.9225    0.1546 C   0  0  0  0  0  0  0  0  0  0  0  0
   -3.3177   -2.3808    0.9147 H   0  0  0  0  0  0  0  0  0  0  0  0
   -3.2709   -2.8470   -0.8028 H   0  0  0  0  0  0  0  0  0  0  0  0
   -1.3565   -2.3352    0.0331 C   0  0  0  0  0  0  0  0  0  0  0  0
   -0.3758   -3.0401    0.2121 O   0  0  0  0  0  0  0  0  0  0  0  0
   -1.1984   -1.0019   -0.2822 N   0  0  0  0  0  0  0  0  0  0  0  0
   -2.0401   -0.4269   -0.3227 H   0  0  0  0  0  0  0  0  0  0  0  0
    0.0870   -0.2881   -0.2695 C   0  0  1  0  0  0  0  0  0  0  0  0
    0.8083   -0.8469    0.3367 H   0  0  0  0  0  0  0  0  0  0  0  0
    0.6387   -0.2143   -1.7154 C   0  0  0  0  0  0  0  0  0  0  0  0
    1.5976   -0.7371   -1.7571 H   0  0  0  0  0  0  0  0  0  0  0  0
   -0.0366   -0.7340   -2.4003 H   0  0  0  0  0  0  0  0  0  0  0  0
    0.8474    1.1980   -2.2472 C   0  0  0  0  0  0  0  0  0  0  0  0
    1.8061    1.8279   -1.8347 O   0  0  0  0  0  0  0  0  0  0  0  0
   -0.0329    1.6824   -3.1490 O   0  0  0  0  0  0  0  0  0  0  0  0
    0.2456    2.5962   -3.3133 H   0  0  0  0  0  0  0  0  0  0  0  0
   -0.0945    1.0782    0.4318 C   0  0  0  0  0  0  0  0  0  0  0  0
   -1.1234    1.7185    0.2449 O   0  0  0  0  0  0  0  0  0  0  0  0
    0.8251    1.5230    1.3629 N   0  0  0  0  0  0  0  0  0  0  0  0
    1.7080    1.0231    1.4177 H   0  0  0  0  0  0  0  0  0  0  0  0
    0.7215    2.8225    2.0151 C   0  0  0  0  0  0  0  0  0  0  0  0
   -0.2288    2.9087    2.5526 H   0  0  0  0  0  0  0  0  0  0  0  0
    1.5358    2.9499    2.7347 H   0  0  0  0  0  0  0  0  0  0  0  0
    0.7822    3.6274    1.2750 H   0  0  0  0  0  0  0  0  0  0  0  0
  1  2  1  0  0  0  0
  2  3  1  0  0  0  0
  2  4  1  0  0  0  0
  2  5  1  0  0  0  0
  5  6  2  0  0  0  0
  5  7  1  0  0  0  0
  7  8  1  0  0  0  0
  7  9  1  0  0  0  0
  9 10  1  0  0  0  0
  9 11  1  0  0  0  0
  9 18  1  0  0  0  0
 11 12  1  0  0  0  0
 11 13  1  0  0  0  0
 11 14  1  0  0  0  0
 14 15  2  0  0  0  0
 14 16  1  0  0  0  0
 16 17  1  0  0  0  0
 18 19  2  0  0  0  0
 18 20  1  0  0  0  0
 20 21  1  0  0  0  0
 20 22  1  0  0  0  0
 22 23  1  0  0  0  0
 22 24  1  0  0  0  0
 22 25  1  0  0  0  0
M  END
$$$$

  -OEChem-03222214023D

 25 24  0     1  0  0  0  0  0999 V2000
   -2.6812   -3.9854    0.4429 H   0  0  0  0  0  0  0  0  0  0  0  0
   -2.7479   -2.9332    0.1525 C   0  0  0  0  0  0  0  0  0  0  0  0
   -3.3220   -2.3947    0.9103 H   0  0  0  0  0  0  0  0  0  0  0  0
   -3.2677   -2.8641   -0.8061 H   0  0  0  0  0  0  0  0  0  0  0  0
   -1.3590   -2.3348    0.0321 C   0  0  0  0  0  0  0  0  0  0  0  0
   -0.3732   -3.0323    0.2131 O   0  0  0  0  0  0  0  0  0  0  0  0
   -1.2107   -0.9998   -0.2821 N   0  0  0  0  0  0  0  0  0  0  0  0
   -2.0574   -0.4331   -0.3331 H   0  0  0  0  0  0  0  0  0  0  0  0
    0.0686   -0.2752   -0.2709 C   0  0  1  0  0  0  0  0  0  0  0  0
    0.7862   -0.8327    0.3409 H   0  0  0  0  0  0  0  0  0  0  0  0
    0.6391   -0.2081   -1.7086 C   0  0  0  0  0  0  0  0  0  0  0  0
    1.6032   -0.7229   -1.7342 H   0  0  0  0  0  0  0  0  0  0  0  0
   -0.0230   -0.7355   -2.4001 H   0  0  0  0  0  0  0  0  0  0  0  0
    0.8350    1.2065   -2.2377 C   0  0  0  0  0  0  0  0  0  0  0  0
    1.9083    1.7472   -2.0373 O   0  0  0  0  0  0  0  0  0  0  0  0
   -0.1732    1.7786   -2.9293 O   0  0  0  0  0  0  0  0  0  0  0  0
    0.1302    2.6753   -3.1365 H   0  0  0  0  0  0  0  0  0  0  0  0
   -0.0987    1.0938    0.4277 C   0  0  0  0  0  0  0  0  0  0  0  0
   -1.1257    1.7403    0.2571 O   0  0  0  0  0  0  0  0  0  0  0  0
    0.8338    1.5327    1.3489 N   0  0  0  0  0  0  0  0  0  0  0  0
    1.7014    1.0088    1.4236 H   0  0  0  0  0  0  0  0  0  0  0  0
    0.7348    2.8197    2.0263 C   0  0  0  0  0  0  0  0  0  0  0  0
   -0.2035    2.8872    2.5870 H   0  0  0  0  0  0  0  0  0  0  0  0
    1.5647    2.9425    2.7289 H   0  0  0  0  0  0  0  0  0  0  0  0
    0.7712    3.6379    1.2994 H   0  0  0  0  0  0  0  0  0  0  0  0
  1  2  1  0  0  0  0
  2  3  1  0  0  0  0
  2  4  1  0  0  0  0
  2  5  1  0  0  0  0
  5  6  2  0  0  0  0
  5  7  1  0  0  0  0
  7  8  1  0  0  0  0
  7  9  1  0  0  0  0
  9 10  1  0  0  0  0
  9 11  1  0  0  0  0
  9 18  1  0  0  0  0
 11 12  1  0  0  0  0
 11 13  1  0  0  0  0
 11 14  1  0  0  0  0
 14 15  2  0  0  0  0
 14 16  1  0  0  0  0
 16 17  1  0  0  0  0
 18 19  2  0  0  0  0
 18 20  1  0  0  0  0
 20 21  1  0  0  0  0
 20 22  1  0  0  0  0
 22 23  1  0  0  0  0
 22 24  1  0  0  0  0
 22 25  1  0  0  0  0
M  END
$$$$

  -OEChem-03222214023D

 25 24  0     1  0  0  0  0  0999 V2000
   -2.6725   -3.9807    0.4328 H   0  0  0  0  0  0  0  0  0  0  0  0
   -2.7434   -2.9260    0.1529 C   0  0  0  0  0  0  0  0  0  0  0  0
   -3.3177   -2.3969    0.9173 H   0  0  0  0  0  0  0  0  0  0  0  0
   -3.2657   -2.8493   -0.8039 H   0  0  0  0  0  0  0  0  0  0  0  0
   -1.3570   -2.3214    0.0356 C   0  0  0  0  0  0  0  0  0  0  0  0
   -0.3679   -3.0141    0.2169 O   0  0  0  0  0  0  0  0  0  0  0  0
   -1.2151   -0.9855   -0.2769 N   0  0  0  0  0  0  0  0  0  0  0  0
   -2.0644   -0.4229   -0.3282 H   0  0  0  0  0  0  0  0  0  0  0  0
    0.0600   -0.2541   -0.2728 C   0  0  1  0  0  0  0  0  0  0  0  0
    0.7757   -0.8097    0.3428 H   0  0  0  0  0  0  0  0  0  0  0  0
    0.6409   -0.2026   -1.7067 C   0  0  0  0  0  0  0  0  0  0  0  0
    1.6066   -0.7155   -1.7173 H   0  0  0  0  0  0  0  0  0  0  0  0
   -0.0144   -0.7429   -2.3946 H   0  0  0  0  0  0  0  0  0  0  0  0
    0.8333    1.2040   -2.2590 C   0  0  0  0  0  0  0  0  0  0  0  0
    1.9662    1.6478   -2.3107 O   0  0  0  0  0  0  0  0  0  0  0  0
   -0.2466    1.8581   -2.7359 O   0  0  0  0  0  0  0  0  0  0  0  0
    0.0771    2.7256   -3.0212 H   0  0  0  0  0  0  0  0  0  0  0  0
   -0.0974    1.1155    0.4269 C   0  0  0  0  0  0  0  0  0  0  0  0
   -1.1370    1.7506    0.2984 O   0  0  0  0  0  0  0  0  0  0  0  0
    0.8480    1.5489    1.3376 N   0  0  0  0  0  0  0  0  0  0  0  0
    1.7057    1.0100    1.4208 H   0  0  0  0  0  0  0  0  0  0  0  0
    0.7330    2.8029    2.0726 C   0  0  0  0  0  0  0  0  0  0  0  0
   -0.1865    2.8166    2.6675 H   0  0  0  0  0  0  0  0  0  0  0  0
    1.5834    2.9231    2.7508 H   0  0  0  0  0  0  0  0  0  0  0  0
    0.7182    3.6519    1.3810 H   0  0  0  0  0  0  0  0  0  0  0  0
  1  2  1  0  0  0  0
  2  3  1  0  0  0  0
  2  4  1  0  0  0  0
  2  5  1  0  0  0  0
  5  6  2  0  0  0  0
  5  7  1  0  0  0  0
  7  8  1  0  0  0  0
  7  9  1  0  0  0  0
  9 10  1  0  0  0  0
  9 11  1  0  0  0  0
  9 18  1  0  0  0  0
 11 12  1  0  0  0  0
 11 13  1  0  0  0  0
 11 14  1  0  0  0  0
 14 15  2  0  0  0  0
 14 16  1  0  0  0  0
 16 17  1  0  0  0  0
 18 19  2  0  0  0  0
 18 20  1  0  0  0  0
 20 21  1  0  0  0  0
 20 22  1  0  0  0  0
 22 23  1  0  0  0  0
 22 24  1  0  0  0  0
 22 25  1  0  0  0  0
M  END
$$$$

  -OEChem-03222214023D

 25 24  0     1  0  0  0  0  0999 V2000
   -2.6604   -3.9726    0.4272 H   0  0  0  0  0  0  0  0  0  0  0  0
   -2.7384   -2.9151    0.1594 C   0  0  0  0  0  0  0  0  0  0  0  0
   -3.3046   -2.3960    0.9366 H   0  0  0  0  0  0  0  0  0  0  0  0
   -3.2734   -2.8300   -0.7894 H   0  0  0  0  0  0  0  0  0  0  0  0
   -1.3556   -2.3048    0.0300 C   0  0  0  0  0  0  0  0  0  0  0  0
   -0.3623   -2.9959    0.1936 O   0  0  0  0  0  0  0  0  0  0  0  0
   -1.2206   -0.9664   -0.2750 N   0  0  0  0  0  0  0  0  0  0  0  0
   -2.0714   -0.4043   -0.3039 H   0  0  0  0  0  0  0  0  0  0  0  0
    0.0518   -0.2305   -0.2747 C   0  0  1  0  0  0  0  0  0  0  0  0
    0.7635   -0.7872    0.3448 H   0  0  0  0  0  0  0  0  0  0  0  0
    0.6477   -0.1916   -1.7038 C   0  0  0  0  0  0  0  0  0  0  0  0
    1.6132   -0.7052   -1.6945 H   0  0  0  0  0  0  0  0  0  0  0  0
   -0.0004   -0.7441   -2.3886 H   0  0  0  0  0  0  0  0  0  0  0  0
    0.8473    1.2023   -2.2889 C   0  0  0  0  0  0  0  0  0  0  0  0
    1.9780    1.5328   -2.5964 O   0  0  0  0  0  0  0  0  0  0  0  0
   -0.2430    1.9483   -2.5628 O   0  0  0  0  0  0  0  0  0  0  0  0
    0.0915    2.7728   -2.9460 H   0  0  0  0  0  0  0  0  0  0  0  0
   -0.0985    1.1355    0.4332 C   0  0  0  0  0  0  0  0  0  0  0  0
   -1.1545    1.7517    0.3569 O   0  0  0  0  0  0  0  0  0  0  0  0
    0.8578    1.5603    1.3371 N   0  0  0  0  0  0  0  0  0  0  0  0
    1.7095    1.0123    1.4201 H   0  0  0  0  0  0  0  0  0  0  0  0
    0.7251    2.7784    2.1275 C   0  0  0  0  0  0  0  0  0  0  0  0
   -0.1647    2.7273    2.7639 H   0  0  0  0  0  0  0  0  0  0  0  0
    1.6012    2.9109    2.7696 H   0  0  0  0  0  0  0  0  0  0  0  0
    0.6406    3.6519    1.4724 H   0  0  0  0  0  0  0  0  0  0  0  0
  1  2  1  0  0  0  0
  2  3  1  0  0  0  0
  2  4  1  0  0  0  0
  2  5  1  0  0  0  0
  5  6  2  0  0  0  0
  5  7  1  0  0  0  0
  7  8  1  0  0  0  0
  7  9  1  0  0  0  0
  9 10  1  0  0  0  0
  9 11  1  0  0  0  0
  9 18  1  0  0  0  0
 11 12  1  0  0  0  0
 11 13  1  0  0  0  0
 11 14  1  0  0  0  0
 14 15  2  0  0  0  0
 14 16  1  0  0  0  0
 16 17  1  0  0  0  0
 18 19  2  0  0  0  0
 18 20  1  0  0  0  0
 20 21  1  0  0  0  0
 20 22  1  0  0  0  0
 22 23  1  0  0  0  0
 22 24  1  0  0  0  0
 22 25  1  0  0  0  0
M  END
$$$$

  -OEChem-03222214023D

 25 24  0     1  0  0  0  0  0999 V2000
   -2.6488   -3.9572    0.4274 H   0  0  0  0  0  0  0  0  0  0  0  0
   -2.7315   -2.8973    0.1705 C   0  0  0  0  0  0  0  0  0  0  0  0
   -3.2800   -2.3844    0.9644 H   0  0  0  0  0  0  0  0  0  0  0  0
   -3.2865   -2.8034   -0.7659 H   0  0  0  0  0  0  0  0  0  0  0  0
   -1.3513   -2.2870    0.0167 C   0  0  0  0  0  0  0  0  0  0  0  0
   -0.3553   -2.9801    0.1543 O   0  0  0  0  0  0  0  0  0  0  0  0
   -1.2226   -0.9457   -0.2781 N   0  0  0  0  0  0  0  0  0  0  0  0
   -2.0737   -0.3831   -0.2751 H   0  0  0  0  0  0  0  0  0  0  0  0
    0.0482   -0.2067   -0.2787 C   0  0  1  0  0  0  0  0  0  0  0  0
    0.7551   -0.7648    0.3448 H   0  0  0  0  0  0  0  0  0  0  0  0
    0.6592   -0.1804   -1.7038 C   0  0  0  0  0  0  0  0  0  0  0  0
    1.6227   -0.6972   -1.6741 H   0  0  0  0  0  0  0  0  0  0  0  0
    0.0163   -0.7460   -2.3827 H   0  0  0  0  0  0  0  0  0  0  0  0
    0.8751    1.1935   -2.3339 C   0  0  0  0  0  0  0  0  0  0  0  0
    1.9415    1.3907   -2.8873 O   0  0  0  0  0  0  0  0  0  0  0  0
   -0.1590    2.0563   -2.4018 O   0  0  0  0  0  0  0  0  0  0  0  0
    0.1710    2.8273   -2.8867 H   0  0  0  0  0  0  0  0  0  0  0  0
   -0.1029    1.1532    0.4416 C   0  0  0  0  0  0  0  0  0  0  0  0
   -1.1781    1.7409    0.4183 O   0  0  0  0  0  0  0  0  0  0  0  0
    0.8596    1.5704    1.3433 N   0  0  0  0  0  0  0  0  0  0  0  0
    1.7108    1.0205    1.4182 H   0  0  0  0  0  0  0  0  0  0  0  0
    0.7065    2.7477    2.1899 C   0  0  0  0  0  0  0  0  0  0  0  0
   -0.1500    2.6279    2.8616 H   0  0  0  0  0  0  0  0  0  0  0  0
    1.6042    2.8964    2.7977 H   0  0  0  0  0  0  0  0  0  0  0  0
    0.5521    3.6423    1.5774 H   0  0  0  0  0  0  0  0  0  0  0  0
  1  2  1  0  0  0  0
  2  3  1  0  0  0  0
  2  4  1  0  0  0  0
  2  5  1  0  0  0  0
  5  6  2  0  0  0  0
  5  7  1  0  0  0  0
  7  8  1  0  0  0  0
  7  9  1  0  0  0  0
  9 10  1  0  0  0  0
  9 11  1  0  0  0  0
  9 18  1  0  0  0  0
 11 12  1  0  0  0  0
 11 13  1  0  0  0  0
 11 14  1  0  0  0  0
 14 15  2  0  0  0  0
 14 16  1  0  0  0  0
 16 17  1  0  0  0  0
 18 19  2  0  0  0  0
 18 20  1  0  0  0  0
 20 21  1  0  0  0  0
 20 22  1  0  0  0  0
 22 23  1  0  0  0  0
 22 24  1  0  0  0  0
 22 25  1  0  0  0  0
M  END
$$$$

  -OEChem-03222214023D

 25 24  0     1  0  0  0  0  0999 V2000
   -2.6336   -3.9500    0.4231 H   0  0  0  0  0  0  0  0  0  0  0  0
   -2.7231   -2.8898    0.1703 C   0  0  0  0  0  0  0  0  0  0  0  0
   -3.2643   -2.3813    0.9719 H   0  0  0  0  0  0  0  0  0  0  0  0
   -3.2893   -2.7954   -0.7594 H   0  0  0  0  0  0  0  0  0  0  0  0
   -1.3471   -2.2736    0.0030 C   0  0  0  0  0  0  0  0  0  0  0  0
   -0.3473   -2.9649    0.1211 O   0  0  0  0  0  0  0  0  0  0  0  0
   -1.2251   -0.9287   -0.2786 N   0  0  0  0  0  0  0  0  0  0  0  0
   -2.0765   -0.3672   -0.2503 H   0  0  0  0  0  0  0  0  0  0  0  0
    0.0448   -0.1875   -0.2761 C   0  0  1  0  0  0  0  0  0  0  0  0
    0.7485   -0.7474    0.3492 H   0  0  0  0  0  0  0  0  0  0  0  0
    0.6644   -0.1695   -1.7006 C   0  0  0  0  0  0  0  0  0  0  0  0
    1.6258   -0.6891   -1.6542 H   0  0  0  0  0  0  0  0  0  0  0  0
    0.0247   -0.7478   -2.3718 H   0  0  0  0  0  0  0  0  0  0  0  0
    0.9011    1.1801   -2.3798 C   0  0  0  0  0  0  0  0  0  0  0  0
    1.8362    1.2358   -3.1573 O   0  0  0  0  0  0  0  0  0  0  0  0
    0.0127    2.1829   -2.2345 O   0  0  0  0  0  0  0  0  0  0  0  0
    0.3246    2.8974   -2.8097 H   0  0  0  0  0  0  0  0  0  0  0  0
   -0.1119    1.1630    0.4602 C   0  0  0  0  0  0  0  0  0  0  0  0
   -1.1993    1.7298    0.4690 O   0  0  0  0  0  0  0  0  0  0  0  0
    0.8523    1.5717    1.3644 N   0  0  0  0  0  0  0  0  0  0  0  0
    1.7083    1.0277    1.4240 H   0  0  0  0  0  0  0  0  0  0  0  0
    0.6901    2.7262    2.2403 C   0  0  0  0  0  0  0  0  0  0  0  0
   -0.1625    2.5808    2.9122 H   0  0  0  0  0  0  0  0  0  0  0  0
    1.5886    2.8696    2.8482 H   0  0  0  0  0  0  0  0  0  0  0  0
    0.5235    3.6335    1.6501 H   0  0  0  0  0  0  0  0  0  0  0  0
  1  2  1  0  0  0  0
  2  3  1  0  0  0  0
  2  4  1  0  0  0  0
  2  5  1  0  0  0  0
  5  6  2  0  0  0  0
  5  7  1  0  0  0  0
  7  8  1  0  0  0  0
  7  9  1  0  0  0  0
  9 10  1  0  0  0  0
  9 11  1  0  0  0  0
  9 18  1  0  0  0  0
 11 12  1  0  0  0  0
 11 13  1  0  0  0  0
 11 14  1  0  0  0  0
 14 15  2  0  0  0  0
 14 16  1  0  0  0  0
 16 17  1  0  0  0  0
 18 19  2  0  0  0  0
 18 20  1  0  0  0  0
 20 21  1  0  0  0  0
 20 22  1  0  0  0  0
 22 23  1  0  0  0  0
 22 24  1  0  0  0  0
 22 25  1  0  0  0  0
M  END
$$$$

  -OEChem-03222214023D

 25 24  0     1  0  0  0  0  0999 V2000
   -2.6338   -3.9444    0.4070 H   0  0  0  0  0  0  0  0  0  0  0  0
   -2.7196   -2.8802    0.1704 C   0  0  0  0  0  0  0  0  0  0  0  0
   -3.2456   -2.3794    0.9869 H   0  0  0  0  0  0  0  0  0  0  0  0
   -3.2991   -2.7688   -0.7492 H   0  0  0  0  0  0  0  0  0  0  0  0
   -1.3419   -2.2707   -0.0081 C   0  0  0  0  0  0  0  0  0  0  0  0
   -0.3441   -2.9677    0.0923 O   0  0  0  0  0  0  0  0  0  0  0  0
   -1.2165   -0.9237   -0.2775 N   0  0  0  0  0  0  0  0  0  0  0  0
   -2.0648   -0.3586   -0.2286 H   0  0  0  0  0  0  0  0  0  0  0  0
    0.0565   -0.1868   -0.2724 C   0  0  1  0  0  0  0  0  0  0  0  0
    0.7658   -0.7505    0.3430 H   0  0  0  0  0  0  0  0  0  0  0  0
    0.6575   -0.1625   -1.7082 C   0  0  0  0  0  0  0  0  0  0  0  0
    1.6149   -0.6893   -1.6688 H   0  0  0  0  0  0  0  0  0  0  0  0
    0.0074   -0.7435   -2.3675 H   0  0  0  0  0  0  0  0  0  0  0  0
    0.9131    1.1673   -2.4254 C   0  0  0  0  0  0  0  0  0  0  0  0
    1.6355    1.1017   -3.4031 O   0  0  0  0  0  0  0  0  0  0  0  0
    0.3175    2.3124   -2.0401 O   0  0  0  0  0  0  0  0  0  0  0  0
    0.5933    2.9812   -2.6848 H   0  0  0  0  0  0  0  0  0  0  0  0
   -0.1172    1.1520    0.4817 C   0  0  0  0  0  0  0  0  0  0  0  0
   -1.2123    1.7055    0.4878 O   0  0  0  0  0  0  0  0  0  0  0  0
    0.8367    1.5622    1.3963 N   0  0  0  0  0  0  0  0  0  0  0  0
    1.7059    1.0389    1.4432 H   0  0  0  0  0  0  0  0  0  0  0  0
    0.6599    2.7136    2.2734 C   0  0  0  0  0  0  0  0  0  0  0  0
   -0.1883    2.5551    2.9475 H   0  0  0  0  0  0  0  0  0  0  0  0
    1.5576    2.8704    2.8789 H   0  0  0  0  0  0  0  0  0  0  0  0
    0.4779    3.6188    1.6845 H   0  0  0  0  0  0  0  0  0  0  0  0
  1  2  1  0  0  0  0
  2  3  1  0  0  0  0
  2  4  1  0  0  0  0
  2  5  1  0  0  0  0
  5  6  2  0  0  0  0
  5  7  1  0  0  0  0
  7  8  1  0  0  0  0
  7  9  1  0  0  0  0
  9 10  1  0  0  0  0
  9 11  1  0  0  0  0
  9 18  1  0  0  0  0
 11 12  1  0  0  0  0
 11 13  1  0  0  0  0
 11 14  1  0  0  0  0
 14 15  2  0  0  0  0
 14 16  1  0  0  0  0
 16 17  1  0  0  0  0
 18 19  2  0  0  0  0
 18 20  1  0  0  0  0
 20 21  1  0  0  0  0
 20 22  1  0  0  0  0
 22 23  1  0  0  0  0
 22 24  1  0  0  0  0
 22 25  1  0  0  0  0
M  END
$$$$

  -OEChem-03222214023D

 25 24  0     1  0  0  0  0  0999 V2000
   -2.6580   -3.9408    0.4145 H   0  0  0  0  0  0  0  0  0  0  0  0
   -2.7197   -2.8831    0.1438 C   0  0  0  0  0  0  0  0  0  0  0  0
   -3.2756   -2.3526    0.9208 H   0  0  0  0  0  0  0  0  0  0  0  0
   -3.2553   -2.7926   -0.8043 H   0  0  0  0  0  0  0  0  0  0  0  0
   -1.3275   -2.2956    0.0104 C   0  0  0  0  0  0  0  0  0  0  0  0
   -0.3452   -3.0064    0.1550 O   0  0  0  0  0  0  0  0  0  0  0  0
   -1.1693   -0.9544   -0.2692 N   0  0  0  0  0  0  0  0  0  0  0  0
   -2.0067   -0.3711   -0.2563 H   0  0  0  0  0  0  0  0  0  0  0  0
    0.1229   -0.2504   -0.2408 C   0  0  1  0  0  0  0  0  0  0  0  0
    0.8571   -0.8102    0.3482 H   0  0  0  0  0  0  0  0  0  0  0  0
    0.6384   -0.1598   -1.7077 C   0  0  0  0  0  0  0  0  0  0  0  0
    1.3934   -0.9392   -1.8397 H   0  0  0  0  0  0  0  0  0  0  0  0
   -0.1904   -0.4039   -2.3782 H   0  0  0  0  0  0  0  0  0  0  0  0
    1.2250    1.1456   -2.2581 C   0  0  0  0  0  0  0  0  0  0  0  0
    1.5918    1.0964   -3.4177 O   0  0  0  0  0  0  0  0  0  0  0  0
    1.4612    2.2157   -1.4713 O   0  0  0  0  0  0  0  0  0  0  0  0
    1.8523    2.8798   -2.0599 H   0  0  0  0  0  0  0  0  0  0  0  0
   -0.1191    1.0803    0.5100 C   0  0  0  0  0  0  0  0  0  0  0  0
   -1.1750    1.6851    0.3473 O   0  0  0  0  0  0  0  0  0  0  0  0
    0.7699    1.5166    1.4759 N   0  0  0  0  0  0  0  0  0  0  0  0
    1.6594    1.0315    1.5456 H   0  0  0  0  0  0  0  0  0  0  0  0
    0.5935    2.7632    2.2103 C   0  0  0  0  0  0  0  0  0  0  0  0
   -0.3629    2.7630    2.7438 H   0  0  0  0  0  0  0  0  0  0  0  0
    1.3960    2.8871    2.9438 H   0  0  0  0  0  0  0  0  0  0  0  0
    0.6148    3.6167    1.5244 H   0  0  0  0  0  0  0  0  0  0  0  0
  1  2  1  0  0  0  0
  2  3  1  0  0  0  0
  2  4  1  0  0  0  0
  2  5  1  0  0  0  0
  5  6  2  0  0  0  0
  5  7  1  0  0  0  0
  7  8  1  0  0  0  0
  7  9  1  0  0  0  0
  9 10  1  0  0  0  0
  9 11  1  0  0  0  0
  9 18  1  0  0  0  0
 11 12  1  0  0  0  0
 11 13  1  0  0  0  0
 11 14  1  0  0  0  0
 14 15  2  0  0  0  0
 14 16  1  0  0  0  0
 16 17  1  0  0  0  0
 18 19  2  0  0  0  0
 18 20  1  0  0  0  0
 20 21  1  0  0  0  0
 20 22  1  0  0  0  0
 22 23  1  0  0  0  0
 22 24  1  0  0  0  0
 22 25  1  0  0  0  0
M  END
$$$$

  -OEChem-03222214023D

 25 24  0     1  0  0  0  0  0999 V2000
   -2.6735   -3.9471    0.4094 H   0  0  0  0  0  0  0  0  0  0  0  0
   -2.7276   -2.8901    0.1344 C   0  0  0  0  0  0  0  0  0  0  0  0
   -3.2959   -2.3562    0.8999 H   0  0  0  0  0  0  0  0  0  0  0  0
   -3.2463   -2.8005   -0.8232 H   0  0  0  0  0  0  0  0  0  0  0  0
   -1.3315   -2.3068    0.0234 C   0  0  0  0  0  0  0  0  0  0  0  0
   -0.3535   -3.0188    0.1889 O   0  0  0  0  0  0  0  0  0  0  0  0
   -1.1654   -0.9683   -0.2646 N   0  0  0  0  0  0  0  0  0  0  0  0
   -2.0017   -0.3836   -0.2773 H   0  0  0  0  0  0  0  0  0  0  0  0
    0.1287   -0.2683   -0.2343 C   0  0  1  0  0  0  0  0  0  0  0  0
    0.8670   -0.8271    0.3507 H   0  0  0  0  0  0  0  0  0  0  0  0
    0.6291   -0.1609   -1.7034 C   0  0  0  0  0  0  0  0  0  0  0  0
    1.3889   -0.9311   -1.8570 H   0  0  0  0  0  0  0  0  0  0  0  0
   -0.2027   -0.3947   -2.3744 H   0  0  0  0  0  0  0  0  0  0  0  0
    1.2068    1.1657   -2.2031 C   0  0  0  0  0  0  0  0  0  0  0  0
    1.3110    1.2786   -3.4106 O   0  0  0  0  0  0  0  0  0  0  0  0
    1.7742    2.0382   -1.3424 O   0  0  0  0  0  0  0  0  0  0  0  0
    2.1200    2.7498   -1.9037 H   0  0  0  0  0  0  0  0  0  0  0  0
   -0.1147    1.0685    0.5060 C   0  0  0  0  0  0  0  0  0  0  0  0
   -1.1499    1.6945    0.2991 O   0  0  0  0  0  0  0  0  0  0  0  0
    0.7666    1.5128    1.4750 N   0  0  0  0  0  0  0  0  0  0  0  0
    1.6581    1.0308    1.5453 H   0  0  0  0  0  0  0  0  0  0  0  0
    0.6055    2.7850    2.1680 C   0  0  0  0  0  0  0  0  0  0  0  0
   -0.3628    2.8252    2.6780 H   0  0  0  0  0  0  0  0  0  0  0  0
    1.3929    2.9102    2.9174 H   0  0  0  0  0  0  0  0  0  0  0  0
    0.6652    3.6167    1.4582 H   0  0  0  0  0  0  0  0  0  0  0  0
  1  2  1  0  0  0  0
  2  3  1  0  0  0  0
  2  4  1  0  0  0  0
  2  5  1  0  0  0  0
  5  6  2  0  0  0  0
  5  7  1  0  0  0  0
  7  8  1  0  0  0  0
  7  9  1  0  0  0  0
  9 10  1  0  0  0  0
  9 11  1  0  0  0  0
  9 18  1  0  0  0  0
 11 12  1  0  0  0  0
 11 13  1  0  0  0  0
 11 14  1  0  0  0  0
 14 15  2  0  0  0  0
 14 16  1  0  0  0  0
 16 17  1  0  0  0  0
 18 19  2  0  0  0  0
 18 20  1  0  0  0  0
 20 21  1  0  0  0  0
 20 22  1  0  0  0  0
 22 23  1  0  0  0  0
 22 24  1  0  0  0  0
 22 25  1  0  0  0  0
M  END
$$$$

  -OEChem-03222214023D

 25 24  0     1  0  0  0  0  0999 V2000
   -2.6859   -3.9485    0.4153 H   0  0  0  0  0  0  0  0  0  0  0  0
   -2.7367   -2.8933    0.1327 C   0  0  0  0  0  0  0  0  0  0  0  0
   -3.3121   -2.3541    0.8891 H   0  0  0  0  0  0  0  0  0  0  0  0
   -3.2458   -2.8105   -0.8305 H   0  0  0  0  0  0  0  0  0  0  0  0
   -1.3393   -2.3116    0.0307 C   0  0  0  0  0  0  0  0  0  0  0  0
   -0.3639   -3.0225    0.2156 O   0  0  0  0  0  0  0  0  0  0  0  0
   -1.1684   -0.9764   -0.2702 N   0  0  0  0  0  0  0  0  0  0  0  0
   -2.0038   -0.3916   -0.3049 H   0  0  0  0  0  0  0  0  0  0  0  0
    0.1267   -0.2790   -0.2370 C   0  0  1  0  0  0  0  0  0  0  0  0
    0.8605   -0.8366    0.3551 H   0  0  0  0  0  0  0  0  0  0  0  0
    0.6379   -0.1741   -1.6997 C   0  0  0  0  0  0  0  0  0  0  0  0
    1.4062   -0.9359   -1.8509 H   0  0  0  0  0  0  0  0  0  0  0  0
   -0.1848   -0.4064   -2.3828 H   0  0  0  0  0  0  0  0  0  0  0  0
    1.2114    1.1688   -2.1510 C   0  0  0  0  0  0  0  0  0  0  0  0
    1.0887    1.4565   -3.3271 O   0  0  0  0  0  0  0  0  0  0  0  0
    2.0009    1.8683   -1.3058 O   0  0  0  0  0  0  0  0  0  0  0  0
    2.3005    2.6315   -1.8248 H   0  0  0  0  0  0  0  0  0  0  0  0
   -0.1040    1.0697    0.4852 C   0  0  0  0  0  0  0  0  0  0  0  0
   -1.1244    1.7107    0.2565 O   0  0  0  0  0  0  0  0  0  0  0  0
    0.7782    1.5173    1.4513 N   0  0  0  0  0  0  0  0  0  0  0  0
    1.6625    1.0238    1.5337 H   0  0  0  0  0  0  0  0  0  0  0  0
    0.6282    2.7981    2.1308 C   0  0  0  0  0  0  0  0  0  0  0  0
   -0.3424    2.8546    2.6350 H   0  0  0  0  0  0  0  0  0  0  0  0
    1.4134    2.9210    2.8829 H   0  0  0  0  0  0  0  0  0  0  0  0
    0.7015    3.6221    1.4136 H   0  0  0  0  0  0  0  0  0  0  0  0
  1  2  1  0  0  0  0
  2  3  1  0  0  0  0
  2  4  1  0  0  0  0
  2  5  1  0  0  0  0
  5  6  2  0  0  0  0
  5  7  1  0  0  0  0
  7  8  1  0  0  0  0
  7  9  1  0  0  0  0
  9 10  1  0  0  0  0
  9 11  1  0  0  0  0
  9 18  1  0  0  0  0
 11 12  1  0  0  0  0
 11 13  1  0  0  0  0
 11 14  1  0  0  0  0
 14 15  2  0  0  0  0
 14 16  1  0  0  0  0
 16 17  1  0  0  0  0
 18 19  2  0  0  0  0
 18 20  1  0  0  0  0
 20 21  1  0  0  0  0
 20 22  1  0  0  0  0
 22 23  1  0  0  0  0
 22 24  1  0  0  0  0
 22 25  1  0  0  0  0
M  END
$$$$

  -OEChem-03222214023D

 25 24  0     1  0  0  0  0  0999 V2000
   -2.7005   -3.9484    0.4165 H   0  0  0  0  0  0  0  0  0  0  0  0
   -2.7466   -2.8940    0.1300 C   0  0  0  0  0  0  0  0  0  0  0  0
   -3.3249   -2.3501    0.8808 H   0  0  0  0  0  0  0  0  0  0  0  0
   -3.2498   -2.8135   -0.8366 H   0  0  0  0  0  0  0  0  0  0  0  0
   -1.3471   -2.3161    0.0356 C   0  0  0  0  0  0  0  0  0  0  0  0
   -0.3750   -3.0268    0.2373 O   0  0  0  0  0  0  0  0  0  0  0  0
   -1.1717   -0.9842   -0.2769 N   0  0  0  0  0  0  0  0  0  0  0  0
   -2.0066   -0.4002   -0.3308 H   0  0  0  0  0  0  0  0  0  0  0  0
    0.1231   -0.2871   -0.2436 C   0  0  1  0  0  0  0  0  0  0  0  0
    0.8491   -0.8440    0.3589 H   0  0  0  0  0  0  0  0  0  0  0  0
    0.6544   -0.1933   -1.6973 C   0  0  0  0  0  0  0  0  0  0  0  0
    1.4309   -0.9492   -1.8361 H   0  0  0  0  0  0  0  0  0  0  0  0
   -0.1550   -0.4297   -2.3944 H   0  0  0  0  0  0  0  0  0  0  0  0
    1.2237    1.1602   -2.1140 C   0  0  0  0  0  0  0  0  0  0  0  0
    0.9001    1.6094   -3.1978 O   0  0  0  0  0  0  0  0  0  0  0  0
    2.1703    1.7278   -1.3326 O   0  0  0  0  0  0  0  0  0  0  0  0
    2.4199    2.5403   -1.8011 H   0  0  0  0  0  0  0  0  0  0  0  0
   -0.0900    1.0731    0.4614 C   0  0  0  0  0  0  0  0  0  0  0  0
   -1.1046    1.7213    0.2302 O   0  0  0  0  0  0  0  0  0  0  0  0
    0.7987    1.5221    1.4207 N   0  0  0  0  0  0  0  0  0  0  0  0
    1.6752    1.0162    1.5144 H   0  0  0  0  0  0  0  0  0  0  0  0
    0.6579    2.8066    2.0953 C   0  0  0  0  0  0  0  0  0  0  0  0
   -0.3080    2.8677    2.6079 H   0  0  0  0  0  0  0  0  0  0  0  0
    1.4500    2.9316    2.8400 H   0  0  0  0  0  0  0  0  0  0  0  0
    0.7264    3.6274    1.3737 H   0  0  0  0  0  0  0  0  0  0  0  0
  1  2  1  0  0  0  0
  2  3  1  0  0  0  0
  2  4  1  0  0  0  0
  2  5  1  0  0  0  0
  5  6  2  0  0  0  0
  5  7  1  0  0  0  0
  7  8  1  0  0  0  0
  7  9  1  0  0  0  0
  9 10  1  0  0  0  0
  9 11  1  0  0  0  0
  9 18  1  0  0  0  0
 11 12  1  0  0  0  0
 11 13  1  0  0  0  0
 11 14  1  0  0  0  0
 14 15  2  0  0  0  0
 14 16  1  0  0  0  0
 16 17  1  0  0  0  0
 18 19  2  0  0  0  0
 18 20  1  0  0  0  0
 20 21  1  0  0  0  0
 20 22  1  0  0  0  0
 22 23  1  0  0  0  0
 22 24  1  0  0  0  0
 22 25  1  0  0  0  0
M  END
$$$$

  -OEChem-03222214023D

 25 24  0     1  0  0  0  0  0999 V2000
   -2.7080   -3.9473    0.4212 H   0  0  0  0  0  0  0  0  0  0  0  0
   -2.7535   -2.8940    0.1306 C   0  0  0  0  0  0  0  0  0  0  0  0
   -3.3342   -2.3472    0.8774 H   0  0  0  0  0  0  0  0  0  0  0  0
   -3.2536   -2.8163   -0.8378 H   0  0  0  0  0  0  0  0  0  0  0  0
   -1.3538   -2.3168    0.0382 C   0  0  0  0  0  0  0  0  0  0  0  0
   -0.3826   -3.0266    0.2485 O   0  0  0  0  0  0  0  0  0  0  0  0
   -1.1770   -0.9877   -0.2848 N   0  0  0  0  0  0  0  0  0  0  0  0
   -2.0116   -0.4044   -0.3500 H   0  0  0  0  0  0  0  0  0  0  0  0
    0.1167   -0.2898   -0.2549 C   0  0  1  0  0  0  0  0  0  0  0  0
    0.8346   -0.8447    0.3589 H   0  0  0  0  0  0  0  0  0  0  0  0
    0.6700   -0.2132   -1.6990 C   0  0  0  0  0  0  0  0  0  0  0  0
    1.4529   -0.9653   -1.8210 H   0  0  0  0  0  0  0  0  0  0  0  0
   -0.1260   -0.4569   -2.4089 H   0  0  0  0  0  0  0  0  0  0  0  0
    1.2356    1.1456   -2.0969 C   0  0  0  0  0  0  0  0  0  0  0  0
    0.7386    1.7339   -3.0389 O   0  0  0  0  0  0  0  0  0  0  0  0
    2.3075    1.6078   -1.4149 O   0  0  0  0  0  0  0  0  0  0  0  0
    2.5124    2.4607   -1.8305 H   0  0  0  0  0  0  0  0  0  0  0  0
   -0.0786    1.0801    0.4354 C   0  0  0  0  0  0  0  0  0  0  0  0
   -1.0941    1.7297    0.2156 O   0  0  0  0  0  0  0  0  0  0  0  0
    0.8205    1.5275    1.3853 N   0  0  0  0  0  0  0  0  0  0  0  0
    1.6876    1.0073    1.4888 H   0  0  0  0  0  0  0  0  0  0  0  0
    0.6872    2.8101    2.0651 C   0  0  0  0  0  0  0  0  0  0  0  0
   -0.2692    2.8658    2.5959 H   0  0  0  0  0  0  0  0  0  0  0  0
    1.4926    2.9367    2.7948 H   0  0  0  0  0  0  0  0  0  0  0  0
    0.7386    3.6326    1.3441 H   0  0  0  0  0  0  0  0  0  0  0  0
  1  2  1  0  0  0  0
  2  3  1  0  0  0  0
  2  4  1  0  0  0  0
  2  5  1  0  0  0  0
  5  6  2  0  0  0  0
  5  7  1  0  0  0  0
  7  8  1  0  0  0  0
  7  9  1  0  0  0  0
  9 10  1  0  0  0  0
  9 11  1  0  0  0  0
  9 18  1  0  0  0  0
 11 12  1  0  0  0  0
 11 13  1  0  0  0  0
 11 14  1  0  0  0  0
 14 15  2  0  0  0  0
 14 16  1  0  0  0  0
 16 17  1  0  0  0  0
 18 19  2  0  0  0  0
 18 20  1  0  0  0  0
 20 21  1  0  0  0  0
 20 22  1  0  0  0  0
 22 23  1  0  0  0  0
 22 24  1  0  0  0  0
 22 25  1  0  0  0  0
M  END
$$$$

  -OEChem-03222214023D

 25 24  0     1  0  0  0  0  0999 V2000
   -2.7116   -3.9394    0.4396 H   0  0  0  0  0  0  0  0  0  0  0  0
   -2.7566   -2.8893    0.1377 C   0  0  0  0  0  0  0  0  0  0  0  0
   -3.3368   -2.3348    0.8793 H   0  0  0  0  0  0  0  0  0  0  0  0
   -3.2573   -2.8222   -0.8313 H   0  0  0  0  0  0  0  0  0  0  0  0
   -1.3568   -2.3131    0.0375 C   0  0  0  0  0  0  0  0  0  0  0  0
   -0.3850   -3.0216    0.2495 O   0  0  0  0  0  0  0  0  0  0  0  0
   -1.1810   -0.9861   -0.2943 N   0  0  0  0  0  0  0  0  0  0  0  0
   -2.0161   -0.4035   -0.3579 H   0  0  0  0  0  0  0  0  0  0  0  0
    0.1110   -0.2854   -0.2705 C   0  0  1  0  0  0  0  0  0  0  0  0
    0.8227   -0.8369    0.3533 H   0  0  0  0  0  0  0  0  0  0  0  0
    0.6827   -0.2297   -1.7073 C   0  0  0  0  0  0  0  0  0  0  0  0
    1.4704   -0.9799   -1.8095 H   0  0  0  0  0  0  0  0  0  0  0  0
   -0.1017   -0.4848   -2.4258 H   0  0  0  0  0  0  0  0  0  0  0  0
    1.2451    1.1282   -2.1080 C   0  0  0  0  0  0  0  0  0  0  0  0
    0.6069    1.8307   -2.8686 O   0  0  0  0  0  0  0  0  0  0  0  0
    2.4304    1.4961   -1.5741 O   0  0  0  0  0  0  0  0  0  0  0  0
    2.6006    2.3791   -1.9394 H   0  0  0  0  0  0  0  0  0  0  0  0
   -0.0707    1.0917    0.4084 C   0  0  0  0  0  0  0  0  0  0  0  0
   -1.0963    1.7333    0.2163 O   0  0  0  0  0  0  0  0  0  0  0  0
    0.8397    1.5373    1.3486 N   0  0  0  0  0  0  0  0  0  0  0  0
    1.6966    1.0028    1.4631 H   0  0  0  0  0  0  0  0  0  0  0  0
    0.7029    2.8063    2.0532 C   0  0  0  0  0  0  0  0  0  0  0  0
   -0.2485    2.8449    2.5943 H   0  0  0  0  0  0  0  0  0  0  0  0
    1.5147    2.9267    2.7770 H   0  0  0  0  0  0  0  0  0  0  0  0
    0.7403    3.6419    1.3466 H   0  0  0  0  0  0  0  0  0  0  0  0
  1  2  1  0  0  0  0
  2  3  1  0  0  0  0
  2  4  1  0  0  0  0
  2  5  1  0  0  0  0
  5  6  2  0  0  0  0
  5  7  1  0  0  0  0
  7  8  1  0  0  0  0
  7  9  1  0  0  0  0
  9 10  1  0  0  0  0
  9 11  1  0  0  0  0
  9 18  1  0  0  0  0
 11 12  1  0  0  0  0
 11 13  1  0  0  0  0
 11 14  1  0  0  0  0
 14 15  2  0  0  0  0
 14 16  1  0  0  0  0
 16 17  1  0  0  0  0
 18 19  2  0  0  0  0
 18 20  1  0  0  0  0
 20 21  1  0  0  0  0
 20 22  1  0  0  0  0
 22 23  1  0  0  0  0
 22 24  1  0  0  0  0
 22 25  1  0  0  0  0
M  END
$$$$

  -OEChem-03222214023D

 25 24  0     1  0  0  0  0  0999 V2000
   -2.7117   -3.9293    0.4426 H   0  0  0  0  0  0  0  0  0  0  0  0
   -2.7574   -2.8760    0.1523 C   0  0  0  0  0  0  0  0  0  0  0  0
   -3.3205   -2.3257    0.9101 H   0  0  0  0  0  0  0  0  0  0  0  0
   -3.2760   -2.7966   -0.8061 H   0  0  0  0  0  0  0  0  0  0  0  0
   -1.3570   -2.3053    0.0323 C   0  0  0  0  0  0  0  0  0  0  0  0
   -0.3844   -3.0153    0.2357 O   0  0  0  0  0  0  0  0  0  0  0  0
   -1.1827   -0.9797   -0.3053 N   0  0  0  0  0  0  0  0  0  0  0  0
   -2.0179   -0.3962   -0.3613 H   0  0  0  0  0  0  0  0  0  0  0  0
    0.1085   -0.2776   -0.2860 C   0  0  1  0  0  0  0  0  0  0  0  0
    0.8152   -0.8265    0.3460 H   0  0  0  0  0  0  0  0  0  0  0  0
    0.6950   -0.2384   -1.7167 C   0  0  0  0  0  0  0  0  0  0  0  0
    1.4812   -0.9923   -1.8038 H   0  0  0  0  0  0  0  0  0  0  0  0
   -0.0833   -0.4999   -2.4391 H   0  0  0  0  0  0  0  0  0  0  0  0
    1.2604    1.1134   -2.1334 C   0  0  0  0  0  0  0  0  0  0  0  0
    0.5308    1.9184   -2.6795 O   0  0  0  0  0  0  0  0  0  0  0  0
    2.5474    1.3734   -1.8181 O   0  0  0  0  0  0  0  0  0  0  0  0
    2.7057    2.2723   -2.1479 H   0  0  0  0  0  0  0  0  0  0  0  0
   -0.0687    1.1033    0.3865 C   0  0  0  0  0  0  0  0  0  0  0  0
   -1.1117    1.7266    0.2303 O   0  0  0  0  0  0  0  0  0  0  0  0
    0.8474    1.5491    1.3212 N   0  0  0  0  0  0  0  0  0  0  0  0
    1.6977    1.0070    1.4471 H   0  0  0  0  0  0  0  0  0  0  0  0
    0.6913    2.7970    2.0586 C   0  0  0  0  0  0  0  0  0  0  0  0
   -0.2276    2.7779    2.6543 H   0  0  0  0  0  0  0  0  0  0  0  0
    1.5379    2.9456    2.7357 H   0  0  0  0  0  0  0  0  0  0  0  0
    0.6462    3.6461    1.3684 H   0  0  0  0  0  0  0  0  0  0  0  0
  1  2  1  0  0  0  0
  2  3  1  0  0  0  0
  2  4  1  0  0  0  0
  2  5  1  0  0  0  0
  5  6  2  0  0  0  0
  5  7  1  0  0  0  0
  7  8  1  0  0  0  0
  7  9  1  0  0  0  0
  9 10  1  0  0  0  0
  9 11  1  0  0  0  0
  9 18  1  0  0  0  0
 11 12  1  0  0  0  0
 11 13  1  0  0  0  0
 11 14  1  0  0  0  0
 14 15  2  0  0  0  0
 14 16  1  0  0  0  0
 16 17  1  0  0  0  0
 18 19  2  0  0  0  0
 18 20  1  0  0  0  0
 20 21  1  0  0  0  0
 20 22  1  0  0  0  0
 22 23  1  0  0  0  0
 22 24  1  0  0  0  0
 22 25  1  0  0  0  0
M  END
$$$$

  -OEChem-03222214023D

 25 24  0     1  0  0  0  0  0999 V2000
   -2.7035   -3.9225    0.4462 H   0  0  0  0  0  0  0  0  0  0  0  0
   -2.7527   -2.8684    0.1594 C   0  0  0  0  0  0  0  0  0  0  0  0
   -3.3083   -2.3207    0.9245 H   0  0  0  0  0  0  0  0  0  0  0  0
   -3.2813   -2.7861   -0.7933 H   0  0  0  0  0  0  0  0  0  0  0  0
   -1.3541   -2.2961    0.0262 C   0  0  0  0  0  0  0  0  0  0  0  0
   -0.3786   -3.0063    0.2150 O   0  0  0  0  0  0  0  0  0  0  0  0
   -1.1845   -0.9692   -0.3085 N   0  0  0  0  0  0  0  0  0  0  0  0
   -2.0205   -0.3848   -0.3434 H   0  0  0  0  0  0  0  0  0  0  0  0
    0.1049   -0.2633   -0.2926 C   0  0  1  0  0  0  0  0  0  0  0  0
    0.8096   -0.8099    0.3432 H   0  0  0  0  0  0  0  0  0  0  0  0
    0.7000   -0.2367   -1.7214 C   0  0  0  0  0  0  0  0  0  0  0  0
    1.4823   -0.9966   -1.7952 H   0  0  0  0  0  0  0  0  0  0  0  0
   -0.0765   -0.5055   -2.4427 H   0  0  0  0  0  0  0  0  0  0  0  0
    1.2706    1.1036   -2.1715 C   0  0  0  0  0  0  0  0  0  0  0  0
    0.5127    2.0011   -2.4845 O   0  0  0  0  0  0  0  0  0  0  0  0
    2.6126    1.2455   -2.1448 O   0  0  0  0  0  0  0  0  0  0  0  0
    2.7728    2.1521   -2.4514 H   0  0  0  0  0  0  0  0  0  0  0  0
   -0.0751    1.1154    0.3846 C   0  0  0  0  0  0  0  0  0  0  0  0
   -1.1381    1.7144    0.2704 O   0  0  0  0  0  0  0  0  0  0  0  0
    0.8449    1.5599    1.3170 N   0  0  0  0  0  0  0  0  0  0  0  0
    1.6977    1.0206    1.4373 H   0  0  0  0  0  0  0  0  0  0  0  0
    0.6746    2.7902    2.0810 C   0  0  0  0  0  0  0  0  0  0  0  0
   -0.2278    2.7357    2.6991 H   0  0  0  0  0  0  0  0  0  0  0  0
    1.5344    2.9500    2.7388 H   0  0  0  0  0  0  0  0  0  0  0  0
    0.5891    3.6501    1.4081 H   0  0  0  0  0  0  0  0  0  0  0  0
  1  2  1  0  0  0  0
  2  3  1  0  0  0  0
  2  4  1  0  0  0  0
  2  5  1  0  0  0  0
  5  6  2  0  0  0  0
  5  7  1  0  0  0  0
  7  8  1  0  0  0  0
  7  9  1  0  0  0  0
  9 10  1  0  0  0  0
  9 11  1  0  0  0  0
  9 18  1  0  0  0  0
 11 12  1  0  0  0  0
 11 13  1  0  0  0  0
 11 14  1  0  0  0  0
 14 15  2  0  0  0  0
 14 16  1  0  0  0  0
 16 17  1  0  0  0  0
 18 19  2  0  0  0  0
 18 20  1  0  0  0  0
 20 21  1  0  0  0  0
 20 22  1  0  0  0  0
 22 23  1  0  0  0  0
 22 24  1  0  0  0  0
 22 25  1  0  0  0  0
M  END
$$$$

  -OEChem-03222214023D

 25 24  0     1  0  0  0  0  0999 V2000
   -2.6828   -3.9218    0.4421 H   0  0  0  0  0  0  0  0  0  0  0  0
   -2.7421   -2.8663    0.1619 C   0  0  0  0  0  0  0  0  0  0  0  0
   -3.2906   -2.3261    0.9374 H   0  0  0  0  0  0  0  0  0  0  0  0
   -3.2836   -2.7821   -0.7834 H   0  0  0  0  0  0  0  0  0  0  0  0
   -1.3484   -2.2856    0.0131 C   0  0  0  0  0  0  0  0  0  0  0  0
   -0.3674   -2.9942    0.1776 O   0  0  0  0  0  0  0  0  0  0  0  0
   -1.1885   -0.9545   -0.3099 N   0  0  0  0  0  0  0  0  0  0  0  0
   -2.0263   -0.3716   -0.3176 H   0  0  0  0  0  0  0  0  0  0  0  0
    0.0982   -0.2432   -0.2917 C   0  0  1  0  0  0  0  0  0  0  0  0
    0.8009   -0.7900    0.3461 H   0  0  0  0  0  0  0  0  0  0  0  0
    0.7002   -0.2242   -1.7207 C   0  0  0  0  0  0  0  0  0  0  0  0
    1.4798   -0.9884   -1.7788 H   0  0  0  0  0  0  0  0  0  0  0  0
   -0.0737   -0.5059   -2.4392 H   0  0  0  0  0  0  0  0  0  0  0  0
    1.2792    1.0993   -2.2156 C   0  0  0  0  0  0  0  0  0  0  0  0
    0.5702    2.0831   -2.2985 O   0  0  0  0  0  0  0  0  0  0  0  0
    2.5964    1.1164   -2.5102 O   0  0  0  0  0  0  0  0  0  0  0  0
    2.7757    2.0241   -2.8023 H   0  0  0  0  0  0  0  0  0  0  0  0
   -0.0892    1.1276    0.3999 C   0  0  0  0  0  0  0  0  0  0  0  0
   -1.1665    1.7074    0.3169 O   0  0  0  0  0  0  0  0  0  0  0  0
    0.8321    1.5661    1.3340 N   0  0  0  0  0  0  0  0  0  0  0  0
    1.6915    1.0350    1.4395 H   0  0  0  0  0  0  0  0  0  0  0  0
    0.6569    2.7852    2.1142 C   0  0  0  0  0  0  0  0  0  0  0  0
   -0.2405    2.7157    2.7379 H   0  0  0  0  0  0  0  0  0  0  0  0
    1.5200    2.9444    2.7676 H   0  0  0  0  0  0  0  0  0  0  0  0
    0.5595    3.6520    1.4519 H   0  0  0  0  0  0  0  0  0  0  0  0
  1  2  1  0  0  0  0
  2  3  1  0  0  0  0
  2  4  1  0  0  0  0
  2  5  1  0  0  0  0
  5  6  2  0  0  0  0
  5  7  1  0  0  0  0
  7  8  1  0  0  0  0
  7  9  1  0  0  0  0
  9 10  1  0  0  0  0
  9 11  1  0  0  0  0
  9 18  1  0  0  0  0
 11 12  1  0  0  0  0
 11 13  1  0  0  0  0
 11 14  1  0  0  0  0
 14 15  2  0  0  0  0
 14 16  1  0  0  0  0
 16 17  1  0  0  0  0
 18 19  2  0  0  0  0
 18 20  1  0  0  0  0
 20 21  1  0  0  0  0
 20 22  1  0  0  0  0
 22 23  1  0  0  0  0
 22 24  1  0  0  0  0
 22 25  1  0  0  0  0
M  END
$$$$

  -OEChem-03222214023D

 25 24  0     1  0  0  0  0  0999 V2000
   -2.6694   -3.9164    0.4378 H   0  0  0  0  0  0  0  0  0  0  0  0
   -2.7312   -2.8603    0.1608 C   0  0  0  0  0  0  0  0  0  0  0  0
   -3.2706   -2.3218    0.9437 H   0  0  0  0  0  0  0  0  0  0  0  0
   -3.2832   -2.7732   -0.7781 H   0  0  0  0  0  0  0  0  0  0  0  0
   -1.3393   -2.2794   -0.0014 C   0  0  0  0  0  0  0  0  0  0  0  0
   -0.3562   -2.9897    0.1412 O   0  0  0  0  0  0  0  0  0  0  0  0
   -1.1839   -0.9440   -0.3076 N   0  0  0  0  0  0  0  0  0  0  0  0
   -2.0216   -0.3609   -0.2897 H   0  0  0  0  0  0  0  0  0  0  0  0
    0.1023   -0.2314   -0.2855 C   0  0  1  0  0  0  0  0  0  0  0  0
    0.8087   -0.7817    0.3456 H   0  0  0  0  0  0  0  0  0  0  0  0
    0.6982   -0.2052   -1.7202 C   0  0  0  0  0  0  0  0  0  0  0  0
    1.4711   -0.9761   -1.7784 H   0  0  0  0  0  0  0  0  0  0  0  0
   -0.0822   -0.4891   -2.4307 H   0  0  0  0  0  0  0  0  0  0  0  0
    1.2875    1.1025   -2.2534 C   0  0  0  0  0  0  0  0  0  0  0  0
    0.7050    2.1591   -2.1096 O   0  0  0  0  0  0  0  0  0  0  0  0
    2.4832    1.0075   -2.8725 O   0  0  0  0  0  0  0  0  0  0  0  0
    2.6938    1.9122   -3.1521 H   0  0  0  0  0  0  0  0  0  0  0  0
   -0.1006    1.1265    0.4279 C   0  0  0  0  0  0  0  0  0  0  0  0
   -1.1891    1.6890    0.3607 O   0  0  0  0  0  0  0  0  0  0  0  0
    0.8150    1.5612    1.3696 N   0  0  0  0  0  0  0  0  0  0  0  0
    1.6961    1.0611    1.4395 H   0  0  0  0  0  0  0  0  0  0  0  0
    0.6347    2.7800    2.1491 C   0  0  0  0  0  0  0  0  0  0  0  0
   -0.2712    2.7139    2.7608 H   0  0  0  0  0  0  0  0  0  0  0  0
    1.4895    2.9344    2.8145 H   0  0  0  0  0  0  0  0  0  0  0  0
    0.5499    3.6478    1.4864 H   0  0  0  0  0  0  0  0  0  0  0  0
  1  2  1  0  0  0  0
  2  3  1  0  0  0  0
  2  4  1  0  0  0  0
  2  5  1  0  0  0  0
  5  6  2  0  0  0  0
  5  7  1  0  0  0  0
  7  8  1  0  0  0  0
  7  9  1  0  0  0  0
  9 10  1  0  0  0  0
  9 11  1  0  0  0  0
  9 18  1  0  0  0  0
 11 12  1  0  0  0  0
 11 13  1  0  0  0  0
 11 14  1  0  0  0  0
 14 15  2  0  0  0  0
 14 16  1  0  0  0  0
 16 17  1  0  0  0  0
 18 19  2  0  0  0  0
 18 20  1  0  0  0  0
 20 21  1  0  0  0  0
 20 22  1  0  0  0  0
 22 23  1  0  0  0  0
 22 24  1  0  0  0  0
 22 25  1  0  0  0  0
M  END
$$$$

  -OEChem-03222214023D

 25 24  0     1  0  0  0  0  0999 V2000
   -2.6566   -3.9193    0.4148 H   0  0  0  0  0  0  0  0  0  0  0  0
   -2.7220   -2.8596    0.1523 C   0  0  0  0  0  0  0  0  0  0  0  0
   -3.2573   -2.3329    0.9462 H   0  0  0  0  0  0  0  0  0  0  0  0
   -3.2804   -2.7613   -0.7818 H   0  0  0  0  0  0  0  0  0  0  0  0
   -1.3320   -2.2745   -0.0114 C   0  0  0  0  0  0  0  0  0  0  0  0
   -0.3477   -2.9866    0.1137 O   0  0  0  0  0  0  0  0  0  0  0  0
   -1.1785   -0.9351   -0.3023 N   0  0  0  0  0  0  0  0  0  0  0  0
   -2.0151   -0.3508   -0.2671 H   0  0  0  0  0  0  0  0  0  0  0  0
    0.1093   -0.2248   -0.2749 C   0  0  1  0  0  0  0  0  0  0  0  0
    0.8196   -0.7800    0.3470 H   0  0  0  0  0  0  0  0  0  0  0  0
    0.6913   -0.1867   -1.7182 C   0  0  0  0  0  0  0  0  0  0  0  0
    1.4572   -0.9639   -1.7856 H   0  0  0  0  0  0  0  0  0  0  0  0
   -0.0992   -0.4658   -2.4192 H   0  0  0  0  0  0  0  0  0  0  0  0
    1.2895    1.1074   -2.2797 C   0  0  0  0  0  0  0  0  0  0  0  0
    0.8970    2.2035   -1.9327 O   0  0  0  0  0  0  0  0  0  0  0  0
    2.2794    0.9435   -3.1826 O   0  0  0  0  0  0  0  0  0  0  0  0
    2.5310    1.8424   -3.4463 H   0  0  0  0  0  0  0  0  0  0  0  0
   -0.1064    1.1213    0.4582 C   0  0  0  0  0  0  0  0  0  0  0  0
   -1.1959    1.6821    0.3835 O   0  0  0  0  0  0  0  0  0  0  0  0
    0.8018    1.5518    1.4091 N   0  0  0  0  0  0  0  0  0  0  0  0
    1.6936    1.0693    1.4613 H   0  0  0  0  0  0  0  0  0  0  0  0
    0.6239    2.7805    2.1735 C   0  0  0  0  0  0  0  0  0  0  0  0
   -0.2930    2.7323    2.7703 H   0  0  0  0  0  0  0  0  0  0  0  0
    1.4688    2.9304    2.8523 H   0  0  0  0  0  0  0  0  0  0  0  0
    0.5616    3.6426    1.5009 H   0  0  0  0  0  0  0  0  0  0  0  0
  1  2  1  0  0  0  0
  2  3  1  0  0  0  0
  2  4  1  0  0  0  0
  2  5  1  0  0  0  0
  5  6  2  0  0  0  0
  5  7  1  0  0  0  0
  7  8  1  0  0  0  0
  7  9  1  0  0  0  0
  9 10  1  0  0  0  0
  9 11  1  0  0  0  0
  9 18  1  0  0  0  0
 11 12  1  0  0  0  0
 11 13  1  0  0  0  0
 11 14  1  0  0  0  0
 14 15  2  0  0  0  0
 14 16  1  0  0  0  0
 16 17  1  0  0  0  0
 18 19  2  0  0  0  0
 18 20  1  0  0  0  0
 20 21  1  0  0  0  0
 20 22  1  0  0  0  0
 22 23  1  0  0  0  0
 22 24  1  0  0  0  0
 22 25  1  0  0  0  0
M  END
$$$$

  -OEChem-03222214023D

 25 24  0     1  0  0  0  0  0999 V2000
   -2.6593   -3.9100    0.4147 H   0  0  0  0  0  0  0  0  0  0  0  0
   -2.7198   -2.8507    0.1501 C   0  0  0  0  0  0  0  0  0  0  0  0
   -3.2529   -2.3197    0.9426 H   0  0  0  0  0  0  0  0  0  0  0  0
   -3.2775   -2.7516   -0.7843 H   0  0  0  0  0  0  0  0  0  0  0  0
   -1.3269   -2.2728   -0.0143 C   0  0  0  0  0  0  0  0  0  0  0  0
   -0.3465   -2.9912    0.1047 O   0  0  0  0  0  0  0  0  0  0  0  0
   -1.1661   -0.9329   -0.2977 N   0  0  0  0  0  0  0  0  0  0  0  0
   -1.9984   -0.3434   -0.2522 H   0  0  0  0  0  0  0  0  0  0  0  0
    0.1267   -0.2312   -0.2674 C   0  0  1  0  0  0  0  0  0  0  0  0
    0.8434   -0.7908    0.3431 H   0  0  0  0  0  0  0  0  0  0  0  0
    0.6857   -0.1747   -1.7209 C   0  0  0  0  0  0  0  0  0  0  0  0
    1.4413   -0.9591   -1.8128 H   0  0  0  0  0  0  0  0  0  0  0  0
   -0.1214   -0.4368   -2.4100 H   0  0  0  0  0  0  0  0  0  0  0  0
    1.2907    1.1133   -2.2915 C   0  0  0  0  0  0  0  0  0  0  0  0
    1.1335    2.1986   -1.7683 O   0  0  0  0  0  0  0  0  0  0  0  0
    2.0112    0.9511   -3.4213 O   0  0  0  0  0  0  0  0  0  0  0  0
    2.3055    1.8431   -3.6630 H   0  0  0  0  0  0  0  0  0  0  0  0
   -0.1030    1.1068    0.4773 C   0  0  0  0  0  0  0  0  0  0  0  0
   -1.1892    1.6721    0.3823 O   0  0  0  0  0  0  0  0  0  0  0  0
    0.7943    1.5368    1.4384 N   0  0  0  0  0  0  0  0  0  0  0  0
    1.6991    1.0774    1.4713 H   0  0  0  0  0  0  0  0  0  0  0  0
    0.6128    2.7743    2.1872 C   0  0  0  0  0  0  0  0  0  0  0  0
   -0.3245    2.7468    2.7529 H   0  0  0  0  0  0  0  0  0  0  0  0
    1.4366    2.9144    2.8935 H   0  0  0  0  0  0  0  0  0  0  0  0
    0.5889    3.6318    1.5061 H   0  0  0  0  0  0  0  0  0  0  0  0
  1  2  1  0  0  0  0
  2  3  1  0  0  0  0
  2  4  1  0  0  0  0
  2  5  1  0  0  0  0
  5  6  2  0  0  0  0
  5  7  1  0  0  0  0
  7  8  1  0  0  0  0
  7  9  1  0  0  0  0
  9 10  1  0  0  0  0
  9 11  1  0  0  0  0
  9 18  1  0  0  0  0
 11 12  1  0  0  0  0
 11 13  1  0  0  0  0
 11 14  1  0  0  0  0
 14 15  2  0  0  0  0
 14 16  1  0  0  0  0
 16 17  1  0  0  0  0
 18 19  2  0  0  0  0
 18 20  1  0  0  0  0
 20 21  1  0  0  0  0
 20 22  1  0  0  0  0
 22 23  1  0  0  0  0
 22 24  1  0  0  0  0
 22 25  1  0  0  0  0
M  END
$$$$

  -OEChem-03222214023D

 25 24  0     1  0  0  0  0  0999 V2000
   -2.6711   -3.9088    0.4154 H   0  0  0  0  0  0  0  0  0  0  0  0
   -2.7245   -2.8490    0.1509 C   0  0  0  0  0  0  0  0  0  0  0  0
   -3.2554   -2.3150    0.9428 H   0  0  0  0  0  0  0  0  0  0  0  0
   -3.2804   -2.7459   -0.7840 H   0  0  0  0  0  0  0  0  0  0  0  0
   -1.3280   -2.2794   -0.0120 C   0  0  0  0  0  0  0  0  0  0  0  0
   -0.3518   -3.0032    0.1075 O   0  0  0  0  0  0  0  0  0  0  0  0
   -1.1592   -0.9402   -0.2938 N   0  0  0  0  0  0  0  0  0  0  0  0
   -1.9883   -0.3461   -0.2493 H   0  0  0  0  0  0  0  0  0  0  0  0
    0.1384   -0.2469   -0.2613 C   0  0  1  0  0  0  0  0  0  0  0  0
    0.8599   -0.8101    0.3404 H   0  0  0  0  0  0  0  0  0  0  0  0
    0.6785   -0.1716   -1.7214 C   0  0  0  0  0  0  0  0  0  0  0  0
    1.4267   -0.9595   -1.8382 H   0  0  0  0  0  0  0  0  0  0  0  0
   -0.1409   -0.4157   -2.4026 H   0  0  0  0  0  0  0  0  0  0  0  0
    1.2860    1.1203   -2.2805 C   0  0  0  0  0  0  0  0  0  0  0  0
    1.3783    2.1377   -1.6212 O   0  0  0  0  0  0  0  0  0  0  0  0
    1.7150    1.0424   -3.5579 O   0  0  0  0  0  0  0  0  0  0  0  0
    2.0500    1.9285   -3.7657 H   0  0  0  0  0  0  0  0  0  0  0  0
   -0.0995    1.0880    0.4870 C   0  0  0  0  0  0  0  0  0  0  0  0
   -1.1750    1.6678    0.3604 O   0  0  0  0  0  0  0  0  0  0  0  0
    0.7891    1.5188    1.4555 N   0  0  0  0  0  0  0  0  0  0  0  0
    1.7003    1.0716    1.4769 H   0  0  0  0  0  0  0  0  0  0  0  0
    0.6173    2.7756    2.1734 C   0  0  0  0  0  0  0  0  0  0  0  0
   -0.3330    2.7804    2.7173 H   0  0  0  0  0  0  0  0  0  0  0  0
    1.4272    2.9126    2.8962 H   0  0  0  0  0  0  0  0  0  0  0  0
    0.6283    3.6187    1.4745 H   0  0  0  0  0  0  0  0  0  0  0  0
  1  2  1  0  0  0  0
  2  3  1  0  0  0  0
  2  4  1  0  0  0  0
  2  5  1  0  0  0  0
  5  6  2  0  0  0  0
  5  7  1  0  0  0  0
  7  8  1  0  0  0  0
  7  9  1  0  0  0  0
  9 10  1  0  0  0  0
  9 11  1  0  0  0  0
  9 18  1  0  0  0  0
 11 12  1  0  0  0  0
 11 13  1  0  0  0  0
 11 14  1  0  0  0  0
 14 15  2  0  0  0  0
 14 16  1  0  0  0  0
 16 17  1  0  0  0  0
 18 19  2  0  0  0  0
 18 20  1  0  0  0  0
 20 21  1  0  0  0  0
 20 22  1  0  0  0  0
 22 23  1  0  0  0  0
 22 24  1  0  0  0  0
 22 25  1  0  0  0  0
M  END
$$$$

  -OEChem-03222214023D

 25 24  0     1  0  0  0  0  0999 V2000
   -2.6861   -3.9125    0.4247 H   0  0  0  0  0  0  0  0  0  0  0  0
   -2.7326   -2.8537    0.1551 C   0  0  0  0  0  0  0  0  0  0  0  0
   -3.2668   -2.3137    0.9406 H   0  0  0  0  0  0  0  0  0  0  0  0
   -3.2810   -2.7528   -0.7844 H   0  0  0  0  0  0  0  0  0  0  0  0
   -1.3321   -2.2914   -0.0005 C   0  0  0  0  0  0  0  0  0  0  0  0
   -0.3602   -3.0197    0.1269 O   0  0  0  0  0  0  0  0  0  0  0  0
   -1.1554   -0.9544   -0.2884 N   0  0  0  0  0  0  0  0  0  0  0  0
   -1.9820   -0.3562   -0.2542 H   0  0  0  0  0  0  0  0  0  0  0  0
    0.1462   -0.2679   -0.2580 C   0  0  1  0  0  0  0  0  0  0  0  0
    0.8728   -0.8320    0.3366 H   0  0  0  0  0  0  0  0  0  0  0  0
    0.6680   -0.1773   -1.7227 C   0  0  0  0  0  0  0  0  0  0  0  0
    1.4115   -0.9651   -1.8652 H   0  0  0  0  0  0  0  0  0  0  0  0
   -0.1626   -0.4036   -2.3971 H   0  0  0  0  0  0  0  0  0  0  0  0
    1.2724    1.1265   -2.2537 C   0  0  0  0  0  0  0  0  0  0  0  0
    1.6143    2.0247   -1.5074 O   0  0  0  0  0  0  0  0  0  0  0  0
    1.4108    1.2009   -3.5943 O   0  0  0  0  0  0  0  0  0  0  0  0
    1.7875    2.0787   -3.7614 H   0  0  0  0  0  0  0  0  0  0  0  0
   -0.0933    1.0700    0.4848 C   0  0  0  0  0  0  0  0  0  0  0  0
   -1.1544    1.6673    0.3236 O   0  0  0  0  0  0  0  0  0  0  0  0
    0.7900    1.5063    1.4554 N   0  0  0  0  0  0  0  0  0  0  0  0
    1.7048    1.0658    1.4702 H   0  0  0  0  0  0  0  0  0  0  0  0
    0.6297    2.7823    2.1418 C   0  0  0  0  0  0  0  0  0  0  0  0
   -0.3324    2.8208    2.6634 H   0  0  0  0  0  0  0  0  0  0  0  0
    1.4260    2.9173    2.8802 H   0  0  0  0  0  0  0  0  0  0  0  0
    0.6755    3.6092    1.4251 H   0  0  0  0  0  0  0  0  0  0  0  0
  1  2  1  0  0  0  0
  2  3  1  0  0  0  0
  2  4  1  0  0  0  0
  2  5  1  0  0  0  0
  5  6  2  0  0  0  0
  5  7  1  0  0  0  0
  7  8  1  0  0  0  0
  7  9  1  0  0  0  0
  9 10  1  0  0  0  0
  9 11  1  0  0  0  0
  9 18  1  0  0  0  0
 11 12  1  0  0  0  0
 11 13  1  0  0  0  0
 11 14  1  0  0  0  0
 14 15  2  0  0  0  0
 14 16  1  0  0  0  0
 16 17  1  0  0  0  0
 18 19  2  0  0  0  0
 18 20  1  0  0  0  0
 20 21  1  0  0  0  0
 20 22  1  0  0  0  0
 22 23  1  0  0  0  0
 22 24  1  0  0  0  0
 22 25  1  0  0  0  0
M  END
$$$$

  -OEChem-03222214023D

 25 24  0     1  0  0  0  0  0999 V2000
   -2.6964   -3.9164    0.4563 H   0  0  0  0  0  0  0  0  0  0  0  0
   -2.7383   -2.8642    0.1611 C   0  0  0  0  0  0  0  0  0  0  0  0
   -3.2858   -2.3060    0.9245 H   0  0  0  0  0  0  0  0  0  0  0  0
   -3.2701   -2.7852   -0.7901 H   0  0  0  0  0  0  0  0  0  0  0  0
   -1.3357   -2.3052    0.0164 C   0  0  0  0  0  0  0  0  0  0  0  0
   -0.3663   -3.0326    0.1646 O   0  0  0  0  0  0  0  0  0  0  0  0
   -1.1548   -0.9717   -0.2839 N   0  0  0  0  0  0  0  0  0  0  0  0
   -1.9818   -0.3736   -0.2741 H   0  0  0  0  0  0  0  0  0  0  0  0
    0.1478   -0.2876   -0.2597 C   0  0  1  0  0  0  0  0  0  0  0  0
    0.8796   -0.8495    0.3310 H   0  0  0  0  0  0  0  0  0  0  0  0
    0.6549   -0.1889   -1.7269 C   0  0  0  0  0  0  0  0  0  0  0  0
    1.4002   -0.9713   -1.8879 H   0  0  0  0  0  0  0  0  0  0  0  0
   -0.1803   -0.4060   -2.3985 H   0  0  0  0  0  0  0  0  0  0  0  0
    1.2492    1.1326   -2.2185 C   0  0  0  0  0  0  0  0  0  0  0  0
    1.8255    1.8778   -1.4461 O   0  0  0  0  0  0  0  0  0  0  0  0
    1.1131    1.4023   -3.5345 O   0  0  0  0  0  0  0  0  0  0  0  0
    1.5252    2.2709   -3.6600 H   0  0  0  0  0  0  0  0  0  0  0  0
   -0.0858    1.0586    0.4699 C   0  0  0  0  0  0  0  0  0  0  0  0
   -1.1309    1.6739    0.2772 O   0  0  0  0  0  0  0  0  0  0  0  0
    0.7976    1.5036    1.4364 N   0  0  0  0  0  0  0  0  0  0  0  0
    1.7084    1.0542    1.4611 H   0  0  0  0  0  0  0  0  0  0  0  0
    0.6475    2.7914    2.1027 C   0  0  0  0  0  0  0  0  0  0  0  0
   -0.3285    2.8595    2.5949 H   0  0  0  0  0  0  0  0  0  0  0  0
    1.4241    2.9158    2.8634 H   0  0  0  0  0  0  0  0  0  0  0  0
    0.7350    3.6081    1.3784 H   0  0  0  0  0  0  0  0  0  0  0  0
  1  2  1  0  0  0  0
  2  3  1  0  0  0  0
  2  4  1  0  0  0  0
  2  5  1  0  0  0  0
  5  6  2  0  0  0  0
  5  7  1  0  0  0  0
  7  8  1  0  0  0  0
  7  9  1  0  0  0  0
  9 10  1  0  0  0  0
  9 11  1  0  0  0  0
  9 18  1  0  0  0  0
 11 12  1  0  0  0  0
 11 13  1  0  0  0  0
 11 14  1  0  0  0  0
 14 15  2  0  0  0  0
 14 16  1  0  0  0  0
 16 17  1  0  0  0  0
 18 19  2  0  0  0  0
 18 20  1  0  0  0  0
 20 21  1  0  0  0  0
 20 22  1  0  0  0  0
 22 23  1  0  0  0  0
 22 24  1  0  0  0  0
 22 25  1  0  0  0  0
M  END
$$$$

  -OEChem-03222214023D

 25 24  0     1  0  0  0  0  0999 V2000
   -2.6991   -3.9359    0.4723 H   0  0  0  0  0  0  0  0  0  0  0  0
   -2.7444   -2.8864    0.1683 C   0  0  0  0  0  0  0  0  0  0  0  0
   -3.2967   -2.3245    0.9254 H   0  0  0  0  0  0  0  0  0  0  0  0
   -3.2737   -2.8176   -0.7851 H   0  0  0  0  0  0  0  0  0  0  0  0
   -1.3433   -2.3228    0.0239 C   0  0  0  0  0  0  0  0  0  0  0  0
   -0.3719   -3.0456    0.1819 O   0  0  0  0  0  0  0  0  0  0  0  0
   -1.1664   -0.9908   -0.2865 N   0  0  0  0  0  0  0  0  0  0  0  0
   -1.9964   -0.3972   -0.2919 H   0  0  0  0  0  0  0  0  0  0  0  0
    0.1334   -0.3019   -0.2651 C   0  0  1  0  0  0  0  0  0  0  0  0
    0.8657   -0.8611    0.3273 H   0  0  0  0  0  0  0  0  0  0  0  0
    0.6461   -0.1989   -1.7270 C   0  0  0  0  0  0  0  0  0  0  0  0
    1.4035   -0.9688   -1.8908 H   0  0  0  0  0  0  0  0  0  0  0  0
   -0.1806   -0.4155   -2.4094 H   0  0  0  0  0  0  0  0  0  0  0  0
    1.2258    1.1444   -2.1660 C   0  0  0  0  0  0  0  0  0  0  0  0
    2.0036    1.7257   -1.4287 O   0  0  0  0  0  0  0  0  0  0  0  0
    0.8568    1.6197   -3.3749 O   0  0  0  0  0  0  0  0  0  0  0  0
    1.3038    2.4757   -3.4608 H   0  0  0  0  0  0  0  0  0  0  0  0
   -0.0872    1.0531    0.4508 C   0  0  0  0  0  0  0  0  0  0  0  0
   -1.1198    1.6822    0.2407 O   0  0  0  0  0  0  0  0  0  0  0  0
    0.8021    1.5029    1.4091 N   0  0  0  0  0  0  0  0  0  0  0  0
    1.7098    1.0463    1.4341 H   0  0  0  0  0  0  0  0  0  0  0  0
    0.6710    2.8053    2.0506 C   0  0  0  0  0  0  0  0  0  0  0  0
   -0.3032    2.8969    2.5425 H   0  0  0  0  0  0  0  0  0  0  0  0
    1.4503    2.9336    2.8078 H   0  0  0  0  0  0  0  0  0  0  0  0
    0.7693    3.6066    1.3107 H   0  0  0  0  0  0  0  0  0  0  0  0
  1  2  1  0  0  0  0
  2  3  1  0  0  0  0
  2  4  1  0  0  0  0
  2  5  1  0  0  0  0
  5  6  2  0  0  0  0
  5  7  1  0  0  0  0
  7  8  1  0  0  0  0
  7  9  1  0  0  0  0
  9 10  1  0  0  0  0
  9 11  1  0  0  0  0
  9 18  1  0  0  0  0
 11 12  1  0  0  0  0
 11 13  1  0  0  0  0
 11 14  1  0  0  0  0
 14 15  2  0  0  0  0
 14 16  1  0  0  0  0
 16 17  1  0  0  0  0
 18 19  2  0  0  0  0
 18 20  1  0  0  0  0
 20 21  1  0  0  0  0
 20 22  1  0  0  0  0
 22 23  1  0  0  0  0
 22 24  1  0  0  0  0
 22 25  1  0  0  0  0
M  END
$$$$

  -OEChem-03222214023D

 25 24  0     1  0  0  0  0  0999 V2000
   -2.6964   -3.9574    0.4723 H   0  0  0  0  0  0  0  0  0  0  0  0
   -2.7473   -2.9084    0.1673 C   0  0  0  0  0  0  0  0  0  0  0  0
   -3.3076   -2.3496    0.9208 H   0  0  0  0  0  0  0  0  0  0  0  0
   -3.2716   -2.8436   -0.7891 H   0  0  0  0  0  0  0  0  0  0  0  0
   -1.3493   -2.3357    0.0306 C   0  0  0  0  0  0  0  0  0  0  0  0
   -0.3742   -3.0501    0.2023 O   0  0  0  0  0  0  0  0  0  0  0  0
   -1.1798   -1.0047   -0.2884 N   0  0  0  0  0  0  0  0  0  0  0  0
   -2.0149   -0.4190   -0.3127 H   0  0  0  0  0  0  0  0  0  0  0  0
    0.1142   -0.3059   -0.2707 C   0  0  1  0  0  0  0  0  0  0  0  0
    0.8452   -0.8609    0.3273 H   0  0  0  0  0  0  0  0  0  0  0  0
    0.6417   -0.2064   -1.7242 C   0  0  0  0  0  0  0  0  0  0  0  0
    1.4152   -0.9625   -1.8795 H   0  0  0  0  0  0  0  0  0  0  0  0
   -0.1707   -0.4299   -2.4211 H   0  0  0  0  0  0  0  0  0  0  0  0
    1.2023    1.1556   -2.1190 C   0  0  0  0  0  0  0  0  0  0  0  0
    2.1499    1.5927   -1.4881 O   0  0  0  0  0  0  0  0  0  0  0  0
    0.6332    1.8073   -3.1556 O   0  0  0  0  0  0  0  0  0  0  0  0
    1.1071    2.6502   -3.2217 H   0  0  0  0  0  0  0  0  0  0  0  0
   -0.0902    1.0575    0.4315 C   0  0  0  0  0  0  0  0  0  0  0  0
   -1.1131    1.6984    0.2142 O   0  0  0  0  0  0  0  0  0  0  0  0
    0.8098    1.5094    1.3782 N   0  0  0  0  0  0  0  0  0  0  0  0
    1.7068    1.0325    1.4192 H   0  0  0  0  0  0  0  0  0  0  0  0
    0.6951    2.8176    2.0107 C   0  0  0  0  0  0  0  0  0  0  0  0
   -0.2721    2.9183    2.5147 H   0  0  0  0  0  0  0  0  0  0  0  0
    1.4853    2.9472    2.7564 H   0  0  0  0  0  0  0  0  0  0  0  0
    0.7878    3.6123    1.2630 H   0  0  0  0  0  0  0  0  0  0  0  0
  1  2  1  0  0  0  0
  2  3  1  0  0  0  0
  2  4  1  0  0  0  0
  2  5  1  0  0  0  0
  5  6  2  0  0  0  0
  5  7  1  0  0  0  0
  7  8  1  0  0  0  0
  7  9  1  0  0  0  0
  9 10  1  0  0  0  0
  9 11  1  0  0  0  0
  9 18  1  0  0  0  0
 11 12  1  0  0  0  0
 11 13  1  0  0  0  0
 11 14  1  0  0  0  0
 14 15  2  0  0  0  0
 14 16  1  0  0  0  0
 16 17  1  0  0  0  0
 18 19  2  0  0  0  0
 18 20  1  0  0  0  0
 20 21  1  0  0  0  0
 20 22  1  0  0  0  0
 22 23  1  0  0  0  0
 22 24  1  0  0  0  0
 22 25  1  0  0  0  0
M  END
$$$$

  -OEChem-03222214023D

 25 24  0     1  0  0  0  0  0999 V2000
   -2.6887   -3.9722    0.4647 H   0  0  0  0  0  0  0  0  0  0  0  0
   -2.7467   -2.9232    0.1610 C   0  0  0  0  0  0  0  0  0  0  0  0
   -3.3169   -2.3705    0.9117 H   0  0  0  0  0  0  0  0  0  0  0  0
   -3.2650   -2.8616   -0.7989 H   0  0  0  0  0  0  0  0  0  0  0  0
   -1.3527   -2.3383    0.0345 C   0  0  0  0  0  0  0  0  0  0  0  0
   -0.3730   -3.0433    0.2181 O   0  0  0  0  0  0  0  0  0  0  0  0
   -1.1921   -1.0070   -0.2883 N   0  0  0  0  0  0  0  0  0  0  0  0
   -2.0324   -0.4298   -0.3274 H   0  0  0  0  0  0  0  0  0  0  0  0
    0.0955   -0.2971   -0.2745 C   0  0  1  0  0  0  0  0  0  0  0  0
    0.8241   -0.8485    0.3301 H   0  0  0  0  0  0  0  0  0  0  0  0
    0.6410   -0.2088   -1.7201 C   0  0  0  0  0  0  0  0  0  0  0  0
    1.4275   -0.9549   -1.8588 H   0  0  0  0  0  0  0  0  0  0  0  0
   -0.1570   -0.4450   -2.4291 H   0  0  0  0  0  0  0  0  0  0  0  0
    1.1851    1.1632   -2.0965 C   0  0  0  0  0  0  0  0  0  0  0  0
    2.2682    1.4884   -1.6419 O   0  0  0  0  0  0  0  0  0  0  0  0
    0.4576    1.9426   -2.9249 O   0  0  0  0  0  0  0  0  0  0  0  0
    0.9567    2.7690   -3.0100 H   0  0  0  0  0  0  0  0  0  0  0  0
   -0.0941    1.0715    0.4197 C   0  0  0  0  0  0  0  0  0  0  0  0
   -1.1150    1.7176    0.2129 O   0  0  0  0  0  0  0  0  0  0  0  0
    0.8191    1.5209    1.3547 N   0  0  0  0  0  0  0  0  0  0  0  0
    1.7017    1.0198    1.4171 H   0  0  0  0  0  0  0  0  0  0  0  0
    0.7120    2.8218    2.0036 C   0  0  0  0  0  0  0  0  0  0  0  0
   -0.2461    2.9135    2.5263 H   0  0  0  0  0  0  0  0  0  0  0  0
    1.5156    2.9460    2.7359 H   0  0  0  0  0  0  0  0  0  0  0  0
    0.7886    3.6253    1.2636 H   0  0  0  0  0  0  0  0  0  0  0  0
  1  2  1  0  0  0  0
  2  3  1  0  0  0  0
  2  4  1  0  0  0  0
  2  5  1  0  0  0  0
  5  6  2  0  0  0  0
  5  7  1  0  0  0  0
  7  8  1  0  0  0  0
  7  9  1  0  0  0  0
  9 10  1  0  0  0  0
  9 11  1  0  0  0  0
  9 18  1  0  0  0  0
 11 12  1  0  0  0  0
 11 13  1  0  0  0  0
 11 14  1  0  0  0  0
 14 15  2  0  0  0  0
 14 16  1  0  0  0  0
 16 17  1  0  0  0  0
 18 19  2  0  0  0  0
 18 20  1  0  0  0  0
 20 21  1  0  0  0  0
 20 22  1  0  0  0  0
 22 23  1  0  0  0  0
 22 24  1  0  0  0  0
 22 25  1  0  0  0  0
M  END
$$$$

  -OEChem-03222214023D

 25 24  0     1  0  0  0  0  0999 V2000
   -2.6788   -3.9708    0.4651 H   0  0  0  0  0  0  0  0  0  0  0  0
   -2.7431   -2.9214    0.1642 C   0  0  0  0  0  0  0  0  0  0  0  0
   -3.3120   -2.3735    0.9192 H   0  0  0  0  0  0  0  0  0  0  0  0
   -3.2670   -2.8602   -0.7927 H   0  0  0  0  0  0  0  0  0  0  0  0
   -1.3524   -2.3298    0.0317 C   0  0  0  0  0  0  0  0  0  0  0  0
   -0.3688   -3.0305    0.2116 O   0  0  0  0  0  0  0  0  0  0  0  0
   -1.1991   -0.9975   -0.2908 N   0  0  0  0  0  0  0  0  0  0  0  0
   -2.0421   -0.4240   -0.3253 H   0  0  0  0  0  0  0  0  0  0  0  0
    0.0850   -0.2814   -0.2802 C   0  0  1  0  0  0  0  0  0  0  0  0
    0.8096   -0.8317    0.3303 H   0  0  0  0  0  0  0  0  0  0  0  0
    0.6456   -0.2060   -1.7199 C   0  0  0  0  0  0  0  0  0  0  0  0
    1.4366   -0.9509   -1.8414 H   0  0  0  0  0  0  0  0  0  0  0  0
   -0.1432   -0.4535   -2.4351 H   0  0  0  0  0  0  0  0  0  0  0  0
    1.1850    1.1656   -2.1045 C   0  0  0  0  0  0  0  0  0  0  0  0
    2.3598    1.3968   -1.8812 O   0  0  0  0  0  0  0  0  0  0  0  0
    0.3549    2.0393   -2.7121 O   0  0  0  0  0  0  0  0  0  0  0  0
    0.8787    2.8414   -2.8580 H   0  0  0  0  0  0  0  0  0  0  0  0
   -0.0953    1.0887    0.4129 C   0  0  0  0  0  0  0  0  0  0  0  0
   -1.1265    1.7269    0.2372 O   0  0  0  0  0  0  0  0  0  0  0  0
    0.8278    1.5341    1.3404 N   0  0  0  0  0  0  0  0  0  0  0  0
    1.6973    1.0137    1.4244 H   0  0  0  0  0  0  0  0  0  0  0  0
    0.7073    2.8112    2.0331 C   0  0  0  0  0  0  0  0  0  0  0  0
   -0.2381    2.8626    2.5836 H   0  0  0  0  0  0  0  0  0  0  0  0
    1.5275    2.9330    2.7471 H   0  0  0  0  0  0  0  0  0  0  0  0
    0.7440    3.6389    1.3173 H   0  0  0  0  0  0  0  0  0  0  0  0
  1  2  1  0  0  0  0
  2  3  1  0  0  0  0
  2  4  1  0  0  0  0
  2  5  1  0  0  0  0
  5  6  2  0  0  0  0
  5  7  1  0  0  0  0
  7  8  1  0  0  0  0
  7  9  1  0  0  0  0
  9 10  1  0  0  0  0
  9 11  1  0  0  0  0
  9 18  1  0  0  0  0
 11 12  1  0  0  0  0
 11 13  1  0  0  0  0
 11 14  1  0  0  0  0
 14 15  2  0  0  0  0
 14 16  1  0  0  0  0
 16 17  1  0  0  0  0
 18 19  2  0  0  0  0
 18 20  1  0  0  0  0
 20 21  1  0  0  0  0
 20 22  1  0  0  0  0
 22 23  1  0  0  0  0
 22 24  1  0  0  0  0
 22 25  1  0  0  0  0
M  END
$$$$

  -OEChem-03222214023D

 25 24  0     1  0  0  0  0  0999 V2000
   -2.6743   -3.9652    0.4361 H   0  0  0  0  0  0  0  0  0  0  0  0
   -2.7394   -2.9084    0.1630 C   0  0  0  0  0  0  0  0  0  0  0  0
   -3.2998   -2.3782    0.9369 H   0  0  0  0  0  0  0  0  0  0  0  0
   -3.2723   -2.8217   -0.7870 H   0  0  0  0  0  0  0  0  0  0  0  0
   -1.3495   -2.3153    0.0320 C   0  0  0  0  0  0  0  0  0  0  0  0
   -0.3645   -3.0154    0.2067 O   0  0  0  0  0  0  0  0  0  0  0  0
   -1.1992   -0.9824   -0.2881 N   0  0  0  0  0  0  0  0  0  0  0  0
   -2.0430   -0.4094   -0.3141 H   0  0  0  0  0  0  0  0  0  0  0  0
    0.0827   -0.2631   -0.2799 C   0  0  1  0  0  0  0  0  0  0  0  0
    0.8034   -0.8121    0.3361 H   0  0  0  0  0  0  0  0  0  0  0  0
    0.6548   -0.2037   -1.7163 C   0  0  0  0  0  0  0  0  0  0  0  0
    1.4435   -0.9542   -1.8207 H   0  0  0  0  0  0  0  0  0  0  0  0
   -0.1304   -0.4601   -2.4321 H   0  0  0  0  0  0  0  0  0  0  0  0
    1.1974    1.1596   -2.1285 C   0  0  0  0  0  0  0  0  0  0  0  0
    2.4059    1.3017   -2.1665 O   0  0  0  0  0  0  0  0  0  0  0  0
    0.3245    2.1132   -2.5150 O   0  0  0  0  0  0  0  0  0  0  0  0
    0.8629    2.8834   -2.7507 H   0  0  0  0  0  0  0  0  0  0  0  0
   -0.0953    1.1062    0.4155 C   0  0  0  0  0  0  0  0  0  0  0  0
   -1.1437    1.7261    0.2807 O   0  0  0  0  0  0  0  0  0  0  0  0
    0.8339    1.5479    1.3394 N   0  0  0  0  0  0  0  0  0  0  0  0
    1.6930    1.0136    1.4392 H   0  0  0  0  0  0  0  0  0  0  0  0
    0.6919    2.7949    2.0815 C   0  0  0  0  0  0  0  0  0  0  0  0
   -0.2160    2.7763    2.6936 H   0  0  0  0  0  0  0  0  0  0  0  0
    1.5509    2.9409    2.7435 H   0  0  0  0  0  0  0  0  0  0  0  0
    0.6362    3.6456    1.3941 H   0  0  0  0  0  0  0  0  0  0  0  0
  1  2  1  0  0  0  0
  2  3  1  0  0  0  0
  2  4  1  0  0  0  0
  2  5  1  0  0  0  0
  5  6  2  0  0  0  0
  5  7  1  0  0  0  0
  7  8  1  0  0  0  0
  7  9  1  0  0  0  0
  9 10  1  0  0  0  0
  9 11  1  0  0  0  0
  9 18  1  0  0  0  0
 11 12  1  0  0  0  0
 11 13  1  0  0  0  0
 11 14  1  0  0  0  0
 14 15  2  0  0  0  0
 14 16  1  0  0  0  0
 16 17  1  0  0  0  0
 18 19  2  0  0  0  0
 18 20  1  0  0  0  0
 20 21  1  0  0  0  0
 20 22  1  0  0  0  0
 22 23  1  0  0  0  0
 22 24  1  0  0  0  0
 22 25  1  0  0  0  0
M  END
$$$$

  -OEChem-03222214023D

 25 24  0     1  0  0  0  0  0999 V2000
   -2.6635   -3.9498    0.4423 H   0  0  0  0  0  0  0  0  0  0  0  0
   -2.7328   -2.8929    0.1702 C   0  0  0  0  0  0  0  0  0  0  0  0
   -3.2842   -2.3638    0.9513 H   0  0  0  0  0  0  0  0  0  0  0  0
   -3.2771   -2.8061   -0.7732 H   0  0  0  0  0  0  0  0  0  0  0  0
   -1.3448   -2.2988    0.0230 C   0  0  0  0  0  0  0  0  0  0  0  0
   -0.3575   -2.9989    0.1839 O   0  0  0  0  0  0  0  0  0  0  0  0
   -1.1982   -0.9636   -0.2900 N   0  0  0  0  0  0  0  0  0  0  0  0
   -2.0421   -0.3901   -0.2982 H   0  0  0  0  0  0  0  0  0  0  0  0
    0.0833   -0.2430   -0.2802 C   0  0  1  0  0  0  0  0  0  0  0  0
    0.7993   -0.7929    0.3402 H   0  0  0  0  0  0  0  0  0  0  0  0
    0.6663   -0.1964   -1.7144 C   0  0  0  0  0  0  0  0  0  0  0  0
    1.4499   -0.9546   -1.8018 H   0  0  0  0  0  0  0  0  0  0  0  0
   -0.1174   -0.4614   -2.4286 H   0  0  0  0  0  0  0  0  0  0  0  0
    1.2195    1.1526   -2.1653 C   0  0  0  0  0  0  0  0  0  0  0  0
    2.3964    1.2024   -2.4720 O   0  0  0  0  0  0  0  0  0  0  0  0
    0.3694    2.1865   -2.3320 O   0  0  0  0  0  0  0  0  0  0  0  0
    0.9066    2.9189   -2.6693 H   0  0  0  0  0  0  0  0  0  0  0  0
   -0.0965    1.1216    0.4240 C   0  0  0  0  0  0  0  0  0  0  0  0
   -1.1615    1.7210    0.3289 O   0  0  0  0  0  0  0  0  0  0  0  0
    0.8356    1.5564    1.3485 N   0  0  0  0  0  0  0  0  0  0  0  0
    1.6900    1.0157    1.4518 H   0  0  0  0  0  0  0  0  0  0  0  0
    0.6701    2.7690    2.1411 C   0  0  0  0  0  0  0  0  0  0  0  0
   -0.2215    2.6955    2.7726 H   0  0  0  0  0  0  0  0  0  0  0  0
    1.5399    2.9202    2.7877 H   0  0  0  0  0  0  0  0  0  0  0  0
    0.5685    3.6424    1.4883 H   0  0  0  0  0  0  0  0  0  0  0  0
  1  2  1  0  0  0  0
  2  3  1  0  0  0  0
  2  4  1  0  0  0  0
  2  5  1  0  0  0  0
  5  6  2  0  0  0  0
  5  7  1  0  0  0  0
  7  8  1  0  0  0  0
  7  9  1  0  0  0  0
  9 10  1  0  0  0  0
  9 11  1  0  0  0  0
  9 18  1  0  0  0  0
 11 12  1  0  0  0  0
 11 13  1  0  0  0  0
 11 14  1  0  0  0  0
 14 15  2  0  0  0  0
 14 16  1  0  0  0  0
 16 17  1  0  0  0  0
 18 19  2  0  0  0  0
 18 20  1  0  0  0  0
 20 21  1  0  0  0  0
 20 22  1  0  0  0  0
 22 23  1  0  0  0  0
 22 24  1  0  0  0  0
 22 25  1  0  0  0  0
M  END
$$$$

  -OEChem-03222214023D

 25 24  0     1  0  0  0  0  0999 V2000
   -2.6542   -3.9417    0.4348 H   0  0  0  0  0  0  0  0  0  0  0  0
   -2.7263   -2.8845    0.1650 C   0  0  0  0  0  0  0  0  0  0  0  0
   -3.2758   -2.3576    0.9488 H   0  0  0  0  0  0  0  0  0  0  0  0
   -3.2742   -2.7975   -0.7761 H   0  0  0  0  0  0  0  0  0  0  0  0
   -1.3400   -2.2875    0.0141 C   0  0  0  0  0  0  0  0  0  0  0  0
   -0.3508   -2.9879    0.1630 O   0  0  0  0  0  0  0  0  0  0  0  0
   -1.1962   -0.9491   -0.2864 N   0  0  0  0  0  0  0  0  0  0  0  0
   -2.0397   -0.3748   -0.2766 H   0  0  0  0  0  0  0  0  0  0  0  0
    0.0850   -0.2275   -0.2719 C   0  0  1  0  0  0  0  0  0  0  0  0
    0.7978   -0.7799    0.3499 H   0  0  0  0  0  0  0  0  0  0  0  0
    0.6753   -0.1877   -1.7068 C   0  0  0  0  0  0  0  0  0  0  0  0
    1.4528   -0.9537   -1.7814 H   0  0  0  0  0  0  0  0  0  0  0  0
   -0.1098   -0.4597   -2.4166 H   0  0  0  0  0  0  0  0  0  0  0  0
    1.2428    1.1424   -2.2037 C   0  0  0  0  0  0  0  0  0  0  0  0
    2.3187    1.1012   -2.7714 O   0  0  0  0  0  0  0  0  0  0  0  0
    0.4906    2.2598   -2.1425 O   0  0  0  0  0  0  0  0  0  0  0  0
    1.0089    2.9510   -2.5812 H   0  0  0  0  0  0  0  0  0  0  0  0
   -0.1020    1.1285    0.4471 C   0  0  0  0  0  0  0  0  0  0  0  0
   -1.1781    1.7127    0.3756 O   0  0  0  0  0  0  0  0  0  0  0  0
    0.8291    1.5559    1.3765 N   0  0  0  0  0  0  0  0  0  0  0  0
    1.6846    1.0165    1.4747 H   0  0  0  0  0  0  0  0  0  0  0  0
    0.6537    2.7522    2.1912 C   0  0  0  0  0  0  0  0  0  0  0  0
   -0.2398    2.6622    2.8178 H   0  0  0  0  0  0  0  0  0  0  0  0
    1.5198    2.8960    2.8442 H   0  0  0  0  0  0  0  0  0  0  0  0
    0.5501    3.6369    1.5542 H   0  0  0  0  0  0  0  0  0  0  0  0
  1  2  1  0  0  0  0
  2  3  1  0  0  0  0
  2  4  1  0  0  0  0
  2  5  1  0  0  0  0
  5  6  2  0  0  0  0
  5  7  1  0  0  0  0
  7  8  1  0  0  0  0
  7  9  1  0  0  0  0
  9 10  1  0  0  0  0
  9 11  1  0  0  0  0
  9 18  1  0  0  0  0
 11 12  1  0  0  0  0
 11 13  1  0  0  0  0
 11 14  1  0  0  0  0
 14 15  2  0  0  0  0
 14 16  1  0  0  0  0
 16 17  1  0  0  0  0
 18 19  2  0  0  0  0
 18 20  1  0  0  0  0
 20 21  1  0  0  0  0
 20 22  1  0  0  0  0
 22 23  1  0  0  0  0
 22 24  1  0  0  0  0
 22 25  1  0  0  0  0
M  END
$$$$

  -OEChem-03222214023D

 25 24  0     1  0  0  0  0  0999 V2000
   -2.6491   -3.9352    0.4184 H   0  0  0  0  0  0  0  0  0  0  0  0
   -2.7206   -2.8749    0.1607 C   0  0  0  0  0  0  0  0  0  0  0  0
   -3.2618   -2.3551    0.9550 H   0  0  0  0  0  0  0  0  0  0  0  0
   -3.2766   -2.7761   -0.7747 H   0  0  0  0  0  0  0  0  0  0  0  0
   -1.3337   -2.2804    0.0043 C   0  0  0  0  0  0  0  0  0  0  0  0
   -0.3455   -2.9848    0.1395 O   0  0  0  0  0  0  0  0  0  0  0  0
   -1.1875   -0.9396   -0.2841 N   0  0  0  0  0  0  0  0  0  0  0  0
   -2.0287   -0.3623   -0.2585 H   0  0  0  0  0  0  0  0  0  0  0  0
    0.0964   -0.2219   -0.2627 C   0  0  1  0  0  0  0  0  0  0  0  0
    0.8108   -0.7774    0.3545 H   0  0  0  0  0  0  0  0  0  0  0  0
    0.6778   -0.1798   -1.7043 C   0  0  0  0  0  0  0  0  0  0  0  0
    1.4446   -0.9562   -1.7792 H   0  0  0  0  0  0  0  0  0  0  0  0
   -0.1176   -0.4517   -2.4029 H   0  0  0  0  0  0  0  0  0  0  0  0
    1.2626    1.1270   -2.2501 C   0  0  0  0  0  0  0  0  0  0  0  0
    2.1608    1.0056   -3.0625 O   0  0  0  0  0  0  0  0  0  0  0  0
    0.7275    2.3228   -1.9343 O   0  0  0  0  0  0  0  0  0  0  0  0
    1.2138    2.9740   -2.4624 H   0  0  0  0  0  0  0  0  0  0  0  0
   -0.1070    1.1235    0.4720 C   0  0  0  0  0  0  0  0  0  0  0  0
   -1.1896    1.6971    0.3997 O   0  0  0  0  0  0  0  0  0  0  0  0
    0.8131    1.5497    1.4132 N   0  0  0  0  0  0  0  0  0  0  0  0
    1.6789    1.0258    1.5020 H   0  0  0  0  0  0  0  0  0  0  0  0
    0.6233    2.7406    2.2325 C   0  0  0  0  0  0  0  0  0  0  0  0
   -0.2719    2.6394    2.8550 H   0  0  0  0  0  0  0  0  0  0  0  0
    1.4854    2.8897    2.8895 H   0  0  0  0  0  0  0  0  0  0  0  0
    0.5136    3.6269    1.5987 H   0  0  0  0  0  0  0  0  0  0  0  0
  1  2  1  0  0  0  0
  2  3  1  0  0  0  0
  2  4  1  0  0  0  0
  2  5  1  0  0  0  0
  5  6  2  0  0  0  0
  5  7  1  0  0  0  0
  7  8  1  0  0  0  0
  7  9  1  0  0  0  0
  9 10  1  0  0  0  0
  9 11  1  0  0  0  0
  9 18  1  0  0  0  0
 11 12  1  0  0  0  0
 11 13  1  0  0  0  0
 11 14  1  0  0  0  0
 14 15  2  0  0  0  0
 14 16  1  0  0  0  0
 16 17  1  0  0  0  0
 18 19  2  0  0  0  0
 18 20  1  0  0  0  0
 20 21  1  0  0  0  0
 20 22  1  0  0  0  0
 22 23  1  0  0  0  0
 22 24  1  0  0  0  0
 22 25  1  0  0  0  0
M  END
$$$$

  -OEChem-03222214023D

 25 24  0     1  0  0  0  0  0999 V2000
   -2.6516   -3.9390    0.3985 H   0  0  0  0  0  0  0  0  0  0  0  0
   -2.7183   -2.8766    0.1478 C   0  0  0  0  0  0  0  0  0  0  0  0
   -3.2625   -2.3606    0.9426 H   0  0  0  0  0  0  0  0  0  0  0  0
   -3.2683   -2.7691   -0.7902 H   0  0  0  0  0  0  0  0  0  0  0  0
   -1.3286   -2.2859    0.0031 C   0  0  0  0  0  0  0  0  0  0  0  0
   -0.3434   -2.9949    0.1357 O   0  0  0  0  0  0  0  0  0  0  0  0
   -1.1768   -0.9437   -0.2751 N   0  0  0  0  0  0  0  0  0  0  0  0
   -2.0157   -0.3631   -0.2471 H   0  0  0  0  0  0  0  0  0  0  0  0
    0.1112   -0.2328   -0.2488 C   0  0  1  0  0  0  0  0  0  0  0  0
    0.8351   -0.7919    0.3539 H   0  0  0  0  0  0  0  0  0  0  0  0
    0.6610   -0.1696   -1.7046 C   0  0  0  0  0  0  0  0  0  0  0  0
    1.4186   -0.9523   -1.8036 H   0  0  0  0  0  0  0  0  0  0  0  0
   -0.1532   -0.4292   -2.3864 H   0  0  0  0  0  0  0  0  0  0  0  0
    1.2526    1.1260   -2.2746 C   0  0  0  0  0  0  0  0  0  0  0  0
    1.9002    0.9900   -3.2962 O   0  0  0  0  0  0  0  0  0  0  0  0
    1.0755    2.3256   -1.6862 O   0  0  0  0  0  0  0  0  0  0  0  0
    1.5166    2.9639   -2.2673 H   0  0  0  0  0  0  0  0  0  0  0  0
   -0.1142    1.1012    0.5006 C   0  0  0  0  0  0  0  0  0  0  0  0
   -1.1894    1.6837    0.3915 O   0  0  0  0  0  0  0  0  0  0  0  0
    0.7895    1.5308    1.4560 N   0  0  0  0  0  0  0  0  0  0  0  0
    1.6708    1.0317    1.5312 H   0  0  0  0  0  0  0  0  0  0  0  0
    0.6018    2.7480    2.2360 C   0  0  0  0  0  0  0  0  0  0  0  0
   -0.3197    2.6882    2.8246 H   0  0  0  0  0  0  0  0  0  0  0  0
    1.4409    2.8913    2.9235 H   0  0  0  0  0  0  0  0  0  0  0  0
    0.5420    3.6194    1.5754 H   0  0  0  0  0  0  0  0  0  0  0  0
  1  2  1  0  0  0  0
  2  3  1  0  0  0  0
  2  4  1  0  0  0  0
  2  5  1  0  0  0  0
  5  6  2  0  0  0  0
  5  7  1  0  0  0  0
  7  8  1  0  0  0  0
  7  9  1  0  0  0  0
  9 10  1  0  0  0  0
  9 11  1  0  0  0  0
  9 18  1  0  0  0  0
 11 12  1  0  0  0  0
 11 13  1  0  0  0  0
 11 14  1  0  0  0  0
 14 15  2  0  0  0  0
 14 16  1  0  0  0  0
 16 17  1  0  0  0  0
 18 19  2  0  0  0  0
 18 20  1  0  0  0  0
 20 21  1  0  0  0  0
 20 22  1  0  0  0  0
 22 23  1  0  0  0  0
 22 24  1  0  0  0  0
 22 25  1  0  0  0  0
M  END
$$$$

  -OEChem-03222214023D

 25 24  0     1  0  0  0  0  0999 V2000
   -2.6826   -3.9333    0.4043 H   0  0  0  0  0  0  0  0  0  0  0  0
   -2.7255   -2.8768    0.1255 C   0  0  0  0  0  0  0  0  0  0  0  0
   -3.2967   -2.3353    0.8834 H   0  0  0  0  0  0  0  0  0  0  0  0
   -3.2337   -2.7867   -0.8375 H   0  0  0  0  0  0  0  0  0  0  0  0
   -1.3241   -2.3050    0.0266 C   0  0  0  0  0  0  0  0  0  0  0  0
   -0.3539   -3.0221    0.2141 O   0  0  0  0  0  0  0  0  0  0  0  0
   -1.1440   -0.9710   -0.2729 N   0  0  0  0  0  0  0  0  0  0  0  0
   -1.9751   -0.3794   -0.2989 H   0  0  0  0  0  0  0  0  0  0  0  0
    0.1547   -0.2817   -0.2241 C   0  0  1  0  0  0  0  0  0  0  0  0
    0.8907   -0.8380    0.3663 H   0  0  0  0  0  0  0  0  0  0  0  0
    0.6480   -0.1703   -1.6911 C   0  0  0  0  0  0  0  0  0  0  0  0
    1.1734   -1.0953   -1.9433 H   0  0  0  0  0  0  0  0  0  0  0  0
   -0.2280   -0.1037   -2.3429 H   0  0  0  0  0  0  0  0  0  0  0  0
    1.5395    1.0074   -2.0920 C   0  0  0  0  0  0  0  0  0  0  0  0
    1.8852    1.0316   -3.2586 O   0  0  0  0  0  0  0  0  0  0  0  0
    2.0466    1.8515   -1.1685 O   0  0  0  0  0  0  0  0  0  0  0  0
    2.6052    2.4637   -1.6732 H   0  0  0  0  0  0  0  0  0  0  0  0
   -0.1032    1.0628    0.4983 C   0  0  0  0  0  0  0  0  0  0  0  0
   -1.1294    1.6909    0.2556 O   0  0  0  0  0  0  0  0  0  0  0  0
    0.7534    1.5177    1.4844 N   0  0  0  0  0  0  0  0  0  0  0  0
    1.6503    1.0477    1.5663 H   0  0  0  0  0  0  0  0  0  0  0  0
    0.5747    2.7981    2.1579 C   0  0  0  0  0  0  0  0  0  0  0  0
   -0.4071    2.8439    2.6407 H   0  0  0  0  0  0  0  0  0  0  0  0
    1.3413    2.9317    2.9273 H   0  0  0  0  0  0  0  0  0  0  0  0
    0.6535    3.6216    1.4403 H   0  0  0  0  0  0  0  0  0  0  0  0
  1  2  1  0  0  0  0
  2  3  1  0  0  0  0
  2  4  1  0  0  0  0
  2  5  1  0  0  0  0
  5  6  2  0  0  0  0
  5  7  1  0  0  0  0
  7  8  1  0  0  0  0
  7  9  1  0  0  0  0
  9 10  1  0  0  0  0
  9 11  1  0  0  0  0
  9 18  1  0  0  0  0
 11 12  1  0  0  0  0
 11 13  1  0  0  0  0
 11 14  1  0  0  0  0
 14 15  2  0  0  0  0
 14 16  1  0  0  0  0
 16 17  1  0  0  0  0
 18 19  2  0  0  0  0
 18 20  1  0  0  0  0
 20 21  1  0  0  0  0
 20 22  1  0  0  0  0
 22 23  1  0  0  0  0
 22 24  1  0  0  0  0
 22 25  1  0  0  0  0
M  END
$$$$

  -OEChem-03222214023D

 25 24  0     1  0  0  0  0  0999 V2000
   -2.6930   -3.9390    0.4132 H   0  0  0  0  0  0  0  0  0  0  0  0
   -2.7343   -2.8851    0.1240 C   0  0  0  0  0  0  0  0  0  0  0  0
   -3.3148   -2.3376    0.8705 H   0  0  0  0  0  0  0  0  0  0  0  0
   -3.2317   -2.8049   -0.8456 H   0  0  0  0  0  0  0  0  0  0  0  0
   -1.3323   -2.3123    0.0356 C   0  0  0  0  0  0  0  0  0  0  0  0
   -0.3638   -3.0269    0.2408 O   0  0  0  0  0  0  0  0  0  0  0  0
   -1.1493   -0.9808   -0.2738 N   0  0  0  0  0  0  0  0  0  0  0  0
   -1.9804   -0.3906   -0.3212 H   0  0  0  0  0  0  0  0  0  0  0  0
    0.1494   -0.2919   -0.2260 C   0  0  1  0  0  0  0  0  0  0  0  0
    0.8853   -0.8476    0.3654 H   0  0  0  0  0  0  0  0  0  0  0  0
    0.6456   -0.1724   -1.6885 C   0  0  0  0  0  0  0  0  0  0  0  0
    1.1839   -1.0877   -1.9463 H   0  0  0  0  0  0  0  0  0  0  0  0
   -0.2248   -0.1047   -2.3476 H   0  0  0  0  0  0  0  0  0  0  0  0
    1.5335    1.0215   -2.0377 C   0  0  0  0  0  0  0  0  0  0  0  0
    1.6789    1.2619   -3.2217 O   0  0  0  0  0  0  0  0  0  0  0  0
    2.2695    1.6219   -1.0758 O   0  0  0  0  0  0  0  0  0  0  0  0
    2.7957    2.2862   -1.5488 H   0  0  0  0  0  0  0  0  0  0  0  0
   -0.0977    1.0613    0.4833 C   0  0  0  0  0  0  0  0  0  0  0  0
   -1.1103    1.7027    0.2217 O   0  0  0  0  0  0  0  0  0  0  0  0
    0.7617    1.5198    1.4645 N   0  0  0  0  0  0  0  0  0  0  0  0
    1.6558    1.0436    1.5474 H   0  0  0  0  0  0  0  0  0  0  0  0
    0.5984    2.8109    2.1209 C   0  0  0  0  0  0  0  0  0  0  0  0
   -0.3862    2.8790    2.5956 H   0  0  0  0  0  0  0  0  0  0  0  0
    1.3616    2.9399    2.8944 H   0  0  0  0  0  0  0  0  0  0  0  0
    0.6968    3.6246    1.3948 H   0  0  0  0  0  0  0  0  0  0  0  0
  1  2  1  0  0  0  0
  2  3  1  0  0  0  0
  2  4  1  0  0  0  0
  2  5  1  0  0  0  0
  5  6  2  0  0  0  0
  5  7  1  0  0  0  0
  7  8  1  0  0  0  0
  7  9  1  0  0  0  0
  9 10  1  0  0  0  0
  9 11  1  0  0  0  0
  9 18  1  0  0  0  0
 11 12  1  0  0  0  0
 11 13  1  0  0  0  0
 11 14  1  0  0  0  0
 14 15  2  0  0  0  0
 14 16  1  0  0  0  0
 16 17  1  0  0  0  0
 18 19  2  0  0  0  0
 18 20  1  0  0  0  0
 20 21  1  0  0  0  0
 20 22  1  0  0  0  0
 22 23  1  0  0  0  0
 22 24  1  0  0  0  0
 22 25  1  0  0  0  0
M  END
$$$$

  -OEChem-03222214023D

 25 24  0     1  0  0  0  0  0999 V2000
   -2.7053   -3.9402    0.4215 H   0  0  0  0  0  0  0  0  0  0  0  0
   -2.7436   -2.8874    0.1280 C   0  0  0  0  0  0  0  0  0  0  0  0
   -3.3252   -2.3359    0.8707 H   0  0  0  0  0  0  0  0  0  0  0  0
   -3.2380   -2.8098   -0.8433 H   0  0  0  0  0  0  0  0  0  0  0  0
   -1.3405   -2.3175    0.0409 C   0  0  0  0  0  0  0  0  0  0  0  0
   -0.3737   -3.0320    0.2545 O   0  0  0  0  0  0  0  0  0  0  0  0
   -1.1560   -0.9889   -0.2799 N   0  0  0  0  0  0  0  0  0  0  0  0
   -1.9873   -0.4000   -0.3370 H   0  0  0  0  0  0  0  0  0  0  0  0
    0.1423   -0.2995   -0.2356 C   0  0  1  0  0  0  0  0  0  0  0  0
    0.8730   -0.8536    0.3635 H   0  0  0  0  0  0  0  0  0  0  0  0
    0.6552   -0.1870   -1.6906 C   0  0  0  0  0  0  0  0  0  0  0  0
    1.2075   -1.0959   -1.9409 H   0  0  0  0  0  0  0  0  0  0  0  0
   -0.2036   -0.1248   -2.3658 H   0  0  0  0  0  0  0  0  0  0  0  0
    1.5403    1.0194   -1.9919 C   0  0  0  0  0  0  0  0  0  0  0  0
    1.5109    1.4721   -3.1209 O   0  0  0  0  0  0  0  0  0  0  0  0
    2.4327    1.4250   -1.0597 O   0  0  0  0  0  0  0  0  0  0  0  0
    2.9233    2.1446   -1.4886 H   0  0  0  0  0  0  0  0  0  0  0  0
   -0.0867    1.0641    0.4585 C   0  0  0  0  0  0  0  0  0  0  0  0
   -1.0944    1.7118    0.1967 O   0  0  0  0  0  0  0  0  0  0  0  0
    0.7820    1.5238    1.4307 N   0  0  0  0  0  0  0  0  0  0  0  0
    1.6689    1.0349    1.5213 H   0  0  0  0  0  0  0  0  0  0  0  0
    0.6276    2.8162    2.0872 C   0  0  0  0  0  0  0  0  0  0  0  0
   -0.3530    2.8869    2.5697 H   0  0  0  0  0  0  0  0  0  0  0  0
    1.3972    2.9449    2.8544 H   0  0  0  0  0  0  0  0  0  0  0  0
    0.7219    3.6291    1.3597 H   0  0  0  0  0  0  0  0  0  0  0  0
  1  2  1  0  0  0  0
  2  3  1  0  0  0  0
  2  4  1  0  0  0  0
  2  5  1  0  0  0  0
  5  6  2  0  0  0  0
  5  7  1  0  0  0  0
  7  8  1  0  0  0  0
  7  9  1  0  0  0  0
  9 10  1  0  0  0  0
  9 11  1  0  0  0  0
  9 18  1  0  0  0  0
 11 12  1  0  0  0  0
 11 13  1  0  0  0  0
 11 14  1  0  0  0  0
 14 15  2  0  0  0  0
 14 16  1  0  0  0  0
 16 17  1  0  0  0  0
 18 19  2  0  0  0  0
 18 20  1  0  0  0  0
 20 21  1  0  0  0  0
 20 22  1  0  0  0  0
 22 23  1  0  0  0  0
 22 24  1  0  0  0  0
 22 25  1  0  0  0  0
M  END
$$$$

  -OEChem-03222214023D

 25 24  0     1  0  0  0  0  0999 V2000
   -2.7146   -3.9395    0.4327 H   0  0  0  0  0  0  0  0  0  0  0  0
   -2.7512   -2.8892    0.1304 C   0  0  0  0  0  0  0  0  0  0  0  0
   -3.3349   -2.3309    0.8664 H   0  0  0  0  0  0  0  0  0  0  0  0
   -3.2425   -2.8197   -0.8433 H   0  0  0  0  0  0  0  0  0  0  0  0
   -1.3473   -2.3210    0.0435 C   0  0  0  0  0  0  0  0  0  0  0  0
   -0.3815   -3.0346    0.2645 O   0  0  0  0  0  0  0  0  0  0  0  0
   -1.1620   -0.9950   -0.2866 N   0  0  0  0  0  0  0  0  0  0  0  0
   -1.9935   -0.4074   -0.3509 H   0  0  0  0  0  0  0  0  0  0  0  0
    0.1349   -0.3039   -0.2474 C   0  0  1  0  0  0  0  0  0  0  0  0
    0.8600   -0.8566    0.3600 H   0  0  0  0  0  0  0  0  0  0  0  0
    0.6661   -0.2061   -1.6947 C   0  0  0  0  0  0  0  0  0  0  0  0
    1.2297   -1.1117   -1.9316 H   0  0  0  0  0  0  0  0  0  0  0  0
   -0.1812   -0.1526   -2.3849 H   0  0  0  0  0  0  0  0  0  0  0  0
    1.5471    1.0092   -1.9647 C   0  0  0  0  0  0  0  0  0  0  0  0
    1.3571    1.6486   -2.9821 O   0  0  0  0  0  0  0  0  0  0  0  0
    2.5589    1.2688   -1.1056 O   0  0  0  0  0  0  0  0  0  0  0  0
    3.0085    2.0414   -1.4844 H   0  0  0  0  0  0  0  0  0  0  0  0
   -0.0751    1.0683    0.4337 C   0  0  0  0  0  0  0  0  0  0  0  0
   -1.0835    1.7187    0.1840 O   0  0  0  0  0  0  0  0  0  0  0  0
    0.8066    1.5251    1.3953 N   0  0  0  0  0  0  0  0  0  0  0  0
    1.6823    1.0185    1.4975 H   0  0  0  0  0  0  0  0  0  0  0  0
    0.6631    2.8165    2.0563 C   0  0  0  0  0  0  0  0  0  0  0  0
   -0.3127    2.8897    2.5481 H   0  0  0  0  0  0  0  0  0  0  0  0
    1.4404    2.9408    2.8164 H   0  0  0  0  0  0  0  0  0  0  0  0
    0.7533    3.6306    1.3295 H   0  0  0  0  0  0  0  0  0  0  0  0
  1  2  1  0  0  0  0
  2  3  1  0  0  0  0
  2  4  1  0  0  0  0
  2  5  1  0  0  0  0
  5  6  2  0  0  0  0
  5  7  1  0  0  0  0
  7  8  1  0  0  0  0
  7  9  1  0  0  0  0
  9 10  1  0  0  0  0
  9 11  1  0  0  0  0
  9 18  1  0  0  0  0
 11 12  1  0  0  0  0
 11 13  1  0  0  0  0
 11 14  1  0  0  0  0
 14 15  2  0  0  0  0
 14 16  1  0  0  0  0
 16 17  1  0  0  0  0
 18 19  2  0  0  0  0
 18 20  1  0  0  0  0
 20 21  1  0  0  0  0
 20 22  1  0  0  0  0
 22 23  1  0  0  0  0
 22 24  1  0  0  0  0
 22 25  1  0  0  0  0
M  END
$$$$

  -OEChem-03222214023D

 25 24  0     1  0  0  0  0  0999 V2000
   -2.7166   -3.9432    0.4425 H   0  0  0  0  0  0  0  0  0  0  0  0
   -2.7556   -2.8955    0.1315 C   0  0  0  0  0  0  0  0  0  0  0  0
   -3.3419   -2.3327    0.8619 H   0  0  0  0  0  0  0  0  0  0  0  0
   -3.2458   -2.8350   -0.8432 H   0  0  0  0  0  0  0  0  0  0  0  0
   -1.3532   -2.3245    0.0417 C   0  0  0  0  0  0  0  0  0  0  0  0
   -0.3857   -3.0366    0.2602 O   0  0  0  0  0  0  0  0  0  0  0  0
   -1.1703   -0.9994   -0.2934 N   0  0  0  0  0  0  0  0  0  0  0  0
   -2.0026   -0.4133   -0.3604 H   0  0  0  0  0  0  0  0  0  0  0  0
    0.1249   -0.3055   -0.2596 C   0  0  1  0  0  0  0  0  0  0  0  0
    0.8454   -0.8570    0.3544 H   0  0  0  0  0  0  0  0  0  0  0  0
    0.6718   -0.2208   -1.7000 C   0  0  0  0  0  0  0  0  0  0  0  0
    1.2437   -1.1243   -1.9239 H   0  0  0  0  0  0  0  0  0  0  0  0
   -0.1653   -0.1756   -2.4031 H   0  0  0  0  0  0  0  0  0  0  0  0
    1.5477    1.0009   -1.9495 C   0  0  0  0  0  0  0  0  0  0  0  0
    1.2154    1.7996   -2.8044 O   0  0  0  0  0  0  0  0  0  0  0  0
    2.6675    1.1344   -1.2042 O   0  0  0  0  0  0  0  0  0  0  0  0
    3.0790    1.9529   -1.5251 H   0  0  0  0  0  0  0  0  0  0  0  0
   -0.0688    1.0719    0.4143 C   0  0  0  0  0  0  0  0  0  0  0  0
   -1.0798    1.7233    0.1801 O   0  0  0  0  0  0  0  0  0  0  0  0
    0.8263    1.5235    1.3660 N   0  0  0  0  0  0  0  0  0  0  0  0
    1.6887    0.9971    1.4807 H   0  0  0  0  0  0  0  0  0  0  0  0
    0.7016    2.8184    2.0240 C   0  0  0  0  0  0  0  0  0  0  0  0
   -0.2659    2.9007    2.5304 H   0  0  0  0  0  0  0  0  0  0  0  0
    1.4914    2.9410    2.7714 H   0  0  0  0  0  0  0  0  0  0  0  0
    0.7864    3.6286    1.2922 H   0  0  0  0  0  0  0  0  0  0  0  0
  1  2  1  0  0  0  0
  2  3  1  0  0  0  0
  2  4  1  0  0  0  0
  2  5  1  0  0  0  0
  5  6  2  0  0  0  0
  5  7  1  0  0  0  0
  7  8  1  0  0  0  0
  7  9  1  0  0  0  0
  9 10  1  0  0  0  0
  9 11  1  0  0  0  0
  9 18  1  0  0  0  0
 11 12  1  0  0  0  0
 11 13  1  0  0  0  0
 11 14  1  0  0  0  0
 14 15  2  0  0  0  0
 14 16  1  0  0  0  0
 16 17  1  0  0  0  0
 18 19  2  0  0  0  0
 18 20  1  0  0  0  0
 20 21  1  0  0  0  0
 20 22  1  0  0  0  0
 22 23  1  0  0  0  0
 22 24  1  0  0  0  0
 22 25  1  0  0  0  0
M  END
$$$$

  -OEChem-03222214023D

 25 24  0     1  0  0  0  0  0999 V2000
   -2.7179   -3.9347    0.4520 H   0  0  0  0  0  0  0  0  0  0  0  0
   -2.7582   -2.8845    0.1495 C   0  0  0  0  0  0  0  0  0  0  0  0
   -3.3272   -2.3245    0.8956 H   0  0  0  0  0  0  0  0  0  0  0  0
   -3.2674   -2.8147   -0.8147 H   0  0  0  0  0  0  0  0  0  0  0  0
   -1.3553   -2.3184    0.0361 C   0  0  0  0  0  0  0  0  0  0  0  0
   -0.3872   -3.0308    0.2509 O   0  0  0  0  0  0  0  0  0  0  0  0
   -1.1729   -0.9954   -0.3082 N   0  0  0  0  0  0  0  0  0  0  0  0
   -2.0048   -0.4078   -0.3686 H   0  0  0  0  0  0  0  0  0  0  0  0
    0.1223   -0.3011   -0.2805 C   0  0  1  0  0  0  0  0  0  0  0  0
    0.8366   -0.8499    0.3431 H   0  0  0  0  0  0  0  0  0  0  0  0
    0.6853   -0.2347   -1.7154 C   0  0  0  0  0  0  0  0  0  0  0  0
    1.2594   -1.1408   -1.9243 H   0  0  0  0  0  0  0  0  0  0  0  0
   -0.1429   -0.1971   -2.4293 H   0  0  0  0  0  0  0  0  0  0  0  0
    1.5614    0.9865   -1.9660 C   0  0  0  0  0  0  0  0  0  0  0  0
    1.1183    1.9088   -2.6233 O   0  0  0  0  0  0  0  0  0  0  0  0
    2.7833    1.0059   -1.3909 O   0  0  0  0  0  0  0  0  0  0  0  0
    3.1693    1.8542   -1.6620 H   0  0  0  0  0  0  0  0  0  0  0  0
   -0.0628    1.0820    0.3832 C   0  0  0  0  0  0  0  0  0  0  0  0
   -1.0855    1.7234    0.1746 O   0  0  0  0  0  0  0  0  0  0  0  0
    0.8411    1.5319    1.3277 N   0  0  0  0  0  0  0  0  0  0  0  0
    1.6873    0.9859    1.4671 H   0  0  0  0  0  0  0  0  0  0  0  0
    0.7030    2.8076    2.0197 C   0  0  0  0  0  0  0  0  0  0  0  0
   -0.2424    2.8447    2.5712 H   0  0  0  0  0  0  0  0  0  0  0  0
    1.5224    2.9422    2.7322 H   0  0  0  0  0  0  0  0  0  0  0  0
    0.7260    3.6359    1.3036 H   0  0  0  0  0  0  0  0  0  0  0  0
  1  2  1  0  0  0  0
  2  3  1  0  0  0  0
  2  4  1  0  0  0  0
  2  5  1  0  0  0  0
  5  6  2  0  0  0  0
  5  7  1  0  0  0  0
  7  8  1  0  0  0  0
  7  9  1  0  0  0  0
  9 10  1  0  0  0  0
  9 11  1  0  0  0  0
  9 18  1  0  0  0  0
 11 12  1  0  0  0  0
 11 13  1  0  0  0  0
 11 14  1  0  0  0  0
 14 15  2  0  0  0  0
 14 16  1  0  0  0  0
 16 17  1  0  0  0  0
 18 19  2  0  0  0  0
 18 20  1  0  0  0  0
 20 21  1  0  0  0  0
 20 22  1  0  0  0  0
 22 23  1  0  0  0  0
 22 24  1  0  0  0  0
 22 25  1  0  0  0  0
M  END
$$$$

  -OEChem-03222214023D

 25 24  0     1  0  0  0  0  0999 V2000
   -2.7129   -3.9291    0.4503 H   0  0  0  0  0  0  0  0  0  0  0  0
   -2.7555   -2.8777    0.1526 C   0  0  0  0  0  0  0  0  0  0  0  0
   -3.3214   -2.3214    0.9038 H   0  0  0  0  0  0  0  0  0  0  0  0
   -3.2692   -2.8040   -0.8089 H   0  0  0  0  0  0  0  0  0  0  0  0
   -1.3533   -2.3106    0.0353 C   0  0  0  0  0  0  0  0  0  0  0  0
   -0.3839   -3.0229    0.2451 O   0  0  0  0  0  0  0  0  0  0  0  0
   -1.1726   -0.9877   -0.3100 N   0  0  0  0  0  0  0  0  0  0  0  0
   -2.0045   -0.3992   -0.3620 H   0  0  0  0  0  0  0  0  0  0  0  0
    0.1222   -0.2926   -0.2860 C   0  0  1  0  0  0  0  0  0  0  0  0
    0.8354   -0.8393    0.3404 H   0  0  0  0  0  0  0  0  0  0  0  0
    0.6883   -0.2393   -1.7204 C   0  0  0  0  0  0  0  0  0  0  0  0
    1.2580   -1.1505   -1.9202 H   0  0  0  0  0  0  0  0  0  0  0  0
   -0.1392   -0.2055   -2.4348 H   0  0  0  0  0  0  0  0  0  0  0  0
    1.5667    0.9754   -1.9936 C   0  0  0  0  0  0  0  0  0  0  0  0
    1.0575    1.9947   -2.4185 O   0  0  0  0  0  0  0  0  0  0  0  0
    2.8762    0.8774   -1.6804 O   0  0  0  0  0  0  0  0  0  0  0  0
    3.2542    1.7391   -1.9176 H   0  0  0  0  0  0  0  0  0  0  0  0
   -0.0633    1.0907    0.3777 C   0  0  0  0  0  0  0  0  0  0  0  0
   -1.1016    1.7162    0.1973 O   0  0  0  0  0  0  0  0  0  0  0  0
    0.8437    1.5404    1.3196 N   0  0  0  0  0  0  0  0  0  0  0  0
    1.6867    0.9916    1.4646 H   0  0  0  0  0  0  0  0  0  0  0  0
    0.6943    2.8045    2.0303 C   0  0  0  0  0  0  0  0  0  0  0  0
   -0.2401    2.8157    2.6014 H   0  0  0  0  0  0  0  0  0  0  0  0
    1.5257    2.9474    2.7272 H   0  0  0  0  0  0  0  0  0  0  0  0
    0.6858    3.6418    1.3243 H   0  0  0  0  0  0  0  0  0  0  0  0
  1  2  1  0  0  0  0
  2  3  1  0  0  0  0
  2  4  1  0  0  0  0
  2  5  1  0  0  0  0
  5  6  2  0  0  0  0
  5  7  1  0  0  0  0
  7  8  1  0  0  0  0
  7  9  1  0  0  0  0
  9 10  1  0  0  0  0
  9 11  1  0  0  0  0
  9 18  1  0  0  0  0
 11 12  1  0  0  0  0
 11 13  1  0  0  0  0
 11 14  1  0  0  0  0
 14 15  2  0  0  0  0
 14 16  1  0  0  0  0
 16 17  1  0  0  0  0
 18 19  2  0  0  0  0
 18 20  1  0  0  0  0
 20 21  1  0  0  0  0
 20 22  1  0  0  0  0
 22 23  1  0  0  0  0
 22 24  1  0  0  0  0
 22 25  1  0  0  0  0
M  END
$$$$

  -OEChem-03222214023D

 25 24  0     1  0  0  0  0  0999 V2000
   -2.7045   -3.9189    0.4588 H   0  0  0  0  0  0  0  0  0  0  0  0
   -2.7490   -2.8678    0.1599 C   0  0  0  0  0  0  0  0  0  0  0  0
   -3.3066   -2.3098    0.9161 H   0  0  0  0  0  0  0  0  0  0  0  0
   -3.2725   -2.7949   -0.7964 H   0  0  0  0  0  0  0  0  0  0  0  0
   -1.3478   -2.3015    0.0271 C   0  0  0  0  0  0  0  0  0  0  0  0
   -0.3764   -3.0157    0.2208 O   0  0  0  0  0  0  0  0  0  0  0  0
   -1.1704   -0.9768   -0.3127 N   0  0  0  0  0  0  0  0  0  0  0  0
   -2.0022   -0.3863   -0.3436 H   0  0  0  0  0  0  0  0  0  0  0  0
    0.1243   -0.2810   -0.2875 C   0  0  1  0  0  0  0  0  0  0  0  0
    0.8355   -0.8280    0.3409 H   0  0  0  0  0  0  0  0  0  0  0  0
    0.6943   -0.2357   -1.7232 C   0  0  0  0  0  0  0  0  0  0  0  0
    1.2553   -1.1542   -1.9146 H   0  0  0  0  0  0  0  0  0  0  0  0
   -0.1339   -0.2058   -2.4367 H   0  0  0  0  0  0  0  0  0  0  0  0
    1.5793    0.9676   -2.0326 C   0  0  0  0  0  0  0  0  0  0  0  0
    1.0725    2.0583   -2.2111 O   0  0  0  0  0  0  0  0  0  0  0  0
    2.9137    0.7651   -2.0397 O   0  0  0  0  0  0  0  0  0  0  0  0
    3.2980    1.6303   -2.2514 H   0  0  0  0  0  0  0  0  0  0  0  0
   -0.0701    1.0977    0.3845 C   0  0  0  0  0  0  0  0  0  0  0  0
   -1.1243    1.7045    0.2298 O   0  0  0  0  0  0  0  0  0  0  0  0
    0.8342    1.5465    1.3298 N   0  0  0  0  0  0  0  0  0  0  0  0
    1.6849    1.0083    1.4658 H   0  0  0  0  0  0  0  0  0  0  0  0
    0.6696    2.7991    2.0570 C   0  0  0  0  0  0  0  0  0  0  0  0
   -0.2657    2.7923    2.6267 H   0  0  0  0  0  0  0  0  0  0  0  0
    1.4982    2.9417    2.7572 H   0  0  0  0  0  0  0  0  0  0  0  0
    0.6532    3.6450    1.3616 H   0  0  0  0  0  0  0  0  0  0  0  0
  1  2  1  0  0  0  0
  2  3  1  0  0  0  0
  2  4  1  0  0  0  0
  2  5  1  0  0  0  0
  5  6  2  0  0  0  0
  5  7  1  0  0  0  0
  7  8  1  0  0  0  0
  7  9  1  0  0  0  0
  9 10  1  0  0  0  0
  9 11  1  0  0  0  0
  9 18  1  0  0  0  0
 11 12  1  0  0  0  0
 11 13  1  0  0  0  0
 11 14  1  0  0  0  0
 14 15  2  0  0  0  0
 14 16  1  0  0  0  0
 16 17  1  0  0  0  0
 18 19  2  0  0  0  0
 18 20  1  0  0  0  0
 20 21  1  0  0  0  0
 20 22  1  0  0  0  0
 22 23  1  0  0  0  0
 22 24  1  0  0  0  0
 22 25  1  0  0  0  0
M  END
$$$$

  -OEChem-03222214023D

 25 24  0     1  0  0  0  0  0999 V2000
   -2.6922   -3.9152    0.4505 H   0  0  0  0  0  0  0  0  0  0  0  0
   -2.7399   -2.8643    0.1519 C   0  0  0  0  0  0  0  0  0  0  0  0
   -3.2990   -2.3084    0.9085 H   0  0  0  0  0  0  0  0  0  0  0  0
   -3.2636   -2.7927   -0.8044 H   0  0  0  0  0  0  0  0  0  0  0  0
   -1.3403   -2.2949    0.0192 C   0  0  0  0  0  0  0  0  0  0  0  0
   -0.3673   -3.0110    0.1973 O   0  0  0  0  0  0  0  0  0  0  0  0
   -1.1651   -0.9666   -0.3067 N   0  0  0  0  0  0  0  0  0  0  0  0
   -1.9967   -0.3748   -0.3194 H   0  0  0  0  0  0  0  0  0  0  0  0
    0.1293   -0.2698   -0.2761 C   0  0  1  0  0  0  0  0  0  0  0  0
    0.8418   -0.8185    0.3495 H   0  0  0  0  0  0  0  0  0  0  0  0
    0.6958   -0.2259   -1.7163 C   0  0  0  0  0  0  0  0  0  0  0  0
    1.2464   -1.1519   -1.9030 H   0  0  0  0  0  0  0  0  0  0  0  0
   -0.1378   -0.1985   -2.4230 H   0  0  0  0  0  0  0  0  0  0  0  0
    1.5881    0.9630   -2.0713 C   0  0  0  0  0  0  0  0  0  0  0  0
    1.1576    2.0980   -2.0040 O   0  0  0  0  0  0  0  0  0  0  0  0
    2.8598    0.6821   -2.4254 O   0  0  0  0  0  0  0  0  0  0  0  0
    3.2624    1.5427   -2.6214 H   0  0  0  0  0  0  0  0  0  0  0  0
   -0.0795    1.0991    0.4130 C   0  0  0  0  0  0  0  0  0  0  0  0
   -1.1448    1.6909    0.2711 O   0  0  0  0  0  0  0  0  0  0  0  0
    0.8175    1.5461    1.3666 N   0  0  0  0  0  0  0  0  0  0  0  0
    1.6870    1.0329    1.4754 H   0  0  0  0  0  0  0  0  0  0  0  0
    0.6487    2.8017    2.0878 C   0  0  0  0  0  0  0  0  0  0  0  0
   -0.3006    2.8068    2.6338 H   0  0  0  0  0  0  0  0  0  0  0  0
    1.4607    2.9363    2.8087 H   0  0  0  0  0  0  0  0  0  0  0  0
    0.6592    3.6465    1.3909 H   0  0  0  0  0  0  0  0  0  0  0  0
  1  2  1  0  0  0  0
  2  3  1  0  0  0  0
  2  4  1  0  0  0  0
  2  5  1  0  0  0  0
  5  6  2  0  0  0  0
  5  7  1  0  0  0  0
  7  8  1  0  0  0  0
  7  9  1  0  0  0  0
  9 10  1  0  0  0  0
  9 11  1  0  0  0  0
  9 18  1  0  0  0  0
 11 12  1  0  0  0  0
 11 13  1  0  0  0  0
 11 14  1  0  0  0  0
 14 15  2  0  0  0  0
 14 16  1  0  0  0  0
 16 17  1  0  0  0  0
 18 19  2  0  0  0  0
 18 20  1  0  0  0  0
 20 21  1  0  0  0  0
 20 22  1  0  0  0  0
 22 23  1  0  0  0  0
 22 24  1  0  0  0  0
 22 25  1  0  0  0  0
M  END
$$$$

  -OEChem-03222214023D

 25 24  0     1  0  0  0  0  0999 V2000
   -2.6872   -3.9113    0.4273 H   0  0  0  0  0  0  0  0  0  0  0  0
   -2.7326   -2.8549    0.1482 C   0  0  0  0  0  0  0  0  0  0  0  0
   -3.2789   -2.3096    0.9217 H   0  0  0  0  0  0  0  0  0  0  0  0
   -3.2683   -2.7634   -0.7997 H   0  0  0  0  0  0  0  0  0  0  0  0
   -1.3316   -2.2901    0.0076 C   0  0  0  0  0  0  0  0  0  0  0  0
   -0.3598   -3.0108    0.1735 O   0  0  0  0  0  0  0  0  0  0  0  0
   -1.1543   -0.9589   -0.3051 N   0  0  0  0  0  0  0  0  0  0  0  0
   -1.9840   -0.3641   -0.3027 H   0  0  0  0  0  0  0  0  0  0  0  0
    0.1418   -0.2652   -0.2643 C   0  0  1  0  0  0  0  0  0  0  0  0
    0.8547   -0.8173    0.3576 H   0  0  0  0  0  0  0  0  0  0  0  0
    0.7023   -0.2108   -1.7100 C   0  0  0  0  0  0  0  0  0  0  0  0
    1.2420   -1.1424   -1.9007 H   0  0  0  0  0  0  0  0  0  0  0  0
   -0.1384   -0.1786   -2.4080 H   0  0  0  0  0  0  0  0  0  0  0  0
    1.6039    0.9627   -2.1017 C   0  0  0  0  0  0  0  0  0  0  0  0
    1.3202    2.1061   -1.8020 O   0  0  0  0  0  0  0  0  0  0  0  0
    2.7226    0.6454   -2.7872 O   0  0  0  0  0  0  0  0  0  0  0  0
    3.1586    1.4930   -2.9661 H   0  0  0  0  0  0  0  0  0  0  0  0
   -0.0875    1.0929    0.4406 C   0  0  0  0  0  0  0  0  0  0  0  0
   -1.1559    1.6788    0.2911 O   0  0  0  0  0  0  0  0  0  0  0  0
    0.7957    1.5375    1.4077 N   0  0  0  0  0  0  0  0  0  0  0  0
    1.6819    1.0497    1.4937 H   0  0  0  0  0  0  0  0  0  0  0  0
    0.6208    2.7998    2.1152 C   0  0  0  0  0  0  0  0  0  0  0  0
   -0.3272    2.8048    2.6636 H   0  0  0  0  0  0  0  0  0  0  0  0
    1.4339    2.9478    2.8324 H   0  0  0  0  0  0  0  0  0  0  0  0
    0.6237    3.6364    1.4084 H   0  0  0  0  0  0  0  0  0  0  0  0
  1  2  1  0  0  0  0
  2  3  1  0  0  0  0
  2  4  1  0  0  0  0
  2  5  1  0  0  0  0
  5  6  2  0  0  0  0
  5  7  1  0  0  0  0
  7  8  1  0  0  0  0
  7  9  1  0  0  0  0
  9 10  1  0  0  0  0
  9 11  1  0  0  0  0
  9 18  1  0  0  0  0
 11 12  1  0  0  0  0
 11 13  1  0  0  0  0
 11 14  1  0  0  0  0
 14 15  2  0  0  0  0
 14 16  1  0  0  0  0
 16 17  1  0  0  0  0
 18 19  2  0  0  0  0
 18 20  1  0  0  0  0
 20 21  1  0  0  0  0
 20 22  1  0  0  0  0
 22 23  1  0  0  0  0
 22 24  1  0  0  0  0
 22 25  1  0  0  0  0
M  END
$$$$

  -OEChem-03222214023D

 25 24  0     1  0  0  0  0  0999 V2000
   -2.6816   -3.9086    0.4222 H   0  0  0  0  0  0  0  0  0  0  0  0
   -2.7267   -2.8543    0.1353 C   0  0  0  0  0  0  0  0  0  0  0  0
   -3.2814   -2.3048    0.8997 H   0  0  0  0  0  0  0  0  0  0  0  0
   -3.2530   -2.7703   -0.8186 H   0  0  0  0  0  0  0  0  0  0  0  0
   -1.3254   -2.2883    0.0045 C   0  0  0  0  0  0  0  0  0  0  0  0
   -0.3544   -3.0110    0.1659 O   0  0  0  0  0  0  0  0  0  0  0  0
   -1.1461   -0.9547   -0.2976 N   0  0  0  0  0  0  0  0  0  0  0  0
   -1.9747   -0.3585   -0.2896 H   0  0  0  0  0  0  0  0  0  0  0  0
    0.1525   -0.2652   -0.2504 C   0  0  1  0  0  0  0  0  0  0  0  0
    0.8686   -0.8214    0.3639 H   0  0  0  0  0  0  0  0  0  0  0  0
    0.6987   -0.1981   -1.7028 C   0  0  0  0  0  0  0  0  0  0  0  0
    1.2298   -1.1324   -1.9036 H   0  0  0  0  0  0  0  0  0  0  0  0
   -0.1512   -0.1594   -2.3890 H   0  0  0  0  0  0  0  0  0  0  0  0
    1.6052    0.9647   -2.1198 C   0  0  0  0  0  0  0  0  0  0  0  0
    1.5135    2.0673   -1.6162 O   0  0  0  0  0  0  0  0  0  0  0  0
    2.5042    0.6799   -3.0857 O   0  0  0  0  0  0  0  0  0  0  0  0
    2.9766    1.5116   -3.2465 H   0  0  0  0  0  0  0  0  0  0  0  0
   -0.0895    1.0848    0.4681 C   0  0  0  0  0  0  0  0  0  0  0  0
   -1.1539    1.6745    0.3029 O   0  0  0  0  0  0  0  0  0  0  0  0
    0.7840    1.5275    1.4452 N   0  0  0  0  0  0  0  0  0  0  0  0
    1.6861    1.0653    1.5028 H   0  0  0  0  0  0  0  0  0  0  0  0
    0.6128    2.8008    2.1339 C   0  0  0  0  0  0  0  0  0  0  0  0
   -0.3556    2.8357    2.6441 H   0  0  0  0  0  0  0  0  0  0  0  0
    1.3998    2.9349    2.8822 H   0  0  0  0  0  0  0  0  0  0  0  0
    0.6658    3.6299    1.4202 H   0  0  0  0  0  0  0  0  0  0  0  0
  1  2  1  0  0  0  0
  2  3  1  0  0  0  0
  2  4  1  0  0  0  0
  2  5  1  0  0  0  0
  5  6  2  0  0  0  0
  5  7  1  0  0  0  0
  7  8  1  0  0  0  0
  7  9  1  0  0  0  0
  9 10  1  0  0  0  0
  9 11  1  0  0  0  0
  9 18  1  0  0  0  0
 11 12  1  0  0  0  0
 11 13  1  0  0  0  0
 11 14  1  0  0  0  0
 14 15  2  0  0  0  0
 14 16  1  0  0  0  0
 16 17  1  0  0  0  0
 18 19  2  0  0  0  0
 18 20  1  0  0  0  0
 20 21  1  0  0  0  0
 20 22  1  0  0  0  0
 22 23  1  0  0  0  0
 22 24  1  0  0  0  0
 22 25  1  0  0  0  0
M  END
$$$$

  -OEChem-03222214023D

 25 24  0     1  0  0  0  0  0999 V2000
   -2.6907   -3.9009    0.4155 H   0  0  0  0  0  0  0  0  0  0  0  0
   -2.7282   -2.8436    0.1386 C   0  0  0  0  0  0  0  0  0  0  0  0
   -3.2718   -2.2959    0.9123 H   0  0  0  0  0  0  0  0  0  0  0  0
   -3.2617   -2.7457   -0.8099 H   0  0  0  0  0  0  0  0  0  0  0  0
   -1.3231   -2.2886    0.0016 C   0  0  0  0  0  0  0  0  0  0  0  0
   -0.3564   -3.0184    0.1558 O   0  0  0  0  0  0  0  0  0  0  0  0
   -1.1355   -0.9557   -0.2975 N   0  0  0  0  0  0  0  0  0  0  0  0
   -1.9599   -0.3536   -0.2813 H   0  0  0  0  0  0  0  0  0  0  0  0
    0.1675   -0.2746   -0.2464 C   0  0  1  0  0  0  0  0  0  0  0  0
    0.8869   -0.8339    0.3618 H   0  0  0  0  0  0  0  0  0  0  0  0
    0.6987   -0.1926   -1.7042 C   0  0  0  0  0  0  0  0  0  0  0  0
    1.2197   -1.1283   -1.9232 H   0  0  0  0  0  0  0  0  0  0  0  0
   -0.1598   -0.1382   -2.3786 H   0  0  0  0  0  0  0  0  0  0  0  0
    1.6098    0.9647   -2.1263 C   0  0  0  0  0  0  0  0  0  0  0  0
    1.7337    1.9712   -1.4553 O   0  0  0  0  0  0  0  0  0  0  0  0
    2.2575    0.7884   -3.2973 O   0  0  0  0  0  0  0  0  0  0  0  0
    2.7667    1.6028   -3.4309 H   0  0  0  0  0  0  0  0  0  0  0  0
   -0.0845    1.0721    0.4763 C   0  0  0  0  0  0  0  0  0  0  0  0
   -1.1421    1.6682    0.2895 O   0  0  0  0  0  0  0  0  0  0  0  0
    0.7782    1.5162    1.4620 N   0  0  0  0  0  0  0  0  0  0  0  0
    1.6905    1.0722    1.5049 H   0  0  0  0  0  0  0  0  0  0  0  0
    0.6005    2.7947    2.1393 C   0  0  0  0  0  0  0  0  0  0  0  0
   -0.3731    2.8332    2.6391 H   0  0  0  0  0  0  0  0  0  0  0  0
    1.3796    2.9337    2.8948 H   0  0  0  0  0  0  0  0  0  0  0  0
    0.6612    3.6188    1.4205 H   0  0  0  0  0  0  0  0  0  0  0  0
  1  2  1  0  0  0  0
  2  3  1  0  0  0  0
  2  4  1  0  0  0  0
  2  5  1  0  0  0  0
  5  6  2  0  0  0  0
  5  7  1  0  0  0  0
  7  8  1  0  0  0  0
  7  9  1  0  0  0  0
  9 10  1  0  0  0  0
  9 11  1  0  0  0  0
  9 18  1  0  0  0  0
 11 12  1  0  0  0  0
 11 13  1  0  0  0  0
 11 14  1  0  0  0  0
 14 15  2  0  0  0  0
 14 16  1  0  0  0  0
 16 17  1  0  0  0  0
 18 19  2  0  0  0  0
 18 20  1  0  0  0  0
 20 21  1  0  0  0  0
 20 22  1  0  0  0  0
 22 23  1  0  0  0  0
 22 24  1  0  0  0  0
 22 25  1  0  0  0  0
M  END
$$$$

  -OEChem-03222214023D

 25 24  0     1  0  0  0  0  0999 V2000
   -2.6986   -3.9012    0.4275 H   0  0  0  0  0  0  0  0  0  0  0  0
   -2.7322   -2.8465    0.1402 C   0  0  0  0  0  0  0  0  0  0  0  0
   -3.2794   -2.2905    0.9052 H   0  0  0  0  0  0  0  0  0  0  0  0
   -3.2591   -2.7569   -0.8128 H   0  0  0  0  0  0  0  0  0  0  0  0
   -1.3252   -2.2956    0.0068 C   0  0  0  0  0  0  0  0  0  0  0  0
   -0.3610   -3.0285    0.1628 O   0  0  0  0  0  0  0  0  0  0  0  0
   -1.1337   -0.9636   -0.2936 N   0  0  0  0  0  0  0  0  0  0  0  0
   -1.9568   -0.3596   -0.2852 H   0  0  0  0  0  0  0  0  0  0  0  0
    0.1720   -0.2874   -0.2435 C   0  0  1  0  0  0  0  0  0  0  0  0
    0.8963   -0.8487    0.3568 H   0  0  0  0  0  0  0  0  0  0  0  0
    0.6867   -0.1903   -1.7056 C   0  0  0  0  0  0  0  0  0  0  0  0
    1.2027   -1.1231   -1.9461 H   0  0  0  0  0  0  0  0  0  0  0  0
   -0.1798   -0.1213   -2.3688 H   0  0  0  0  0  0  0  0  0  0  0  0
    1.5969    0.9709   -2.1154 C   0  0  0  0  0  0  0  0  0  0  0  0
    1.9381    1.8304   -1.3245 O   0  0  0  0  0  0  0  0  0  0  0  0
    1.9927    0.9698   -3.4059 O   0  0  0  0  0  0  0  0  0  0  0  0
    2.5424    1.7626   -3.5039 H   0  0  0  0  0  0  0  0  0  0  0  0
   -0.0800    1.0598    0.4791 C   0  0  0  0  0  0  0  0  0  0  0  0
   -1.1253    1.6696    0.2688 O   0  0  0  0  0  0  0  0  0  0  0  0
    0.7795    1.5060    1.4665 N   0  0  0  0  0  0  0  0  0  0  0  0
    1.6964    1.0698    1.4973 H   0  0  0  0  0  0  0  0  0  0  0  0
    0.6115    2.7958    2.1245 C   0  0  0  0  0  0  0  0  0  0  0  0
   -0.3707    2.8579    2.6046 H   0  0  0  0  0  0  0  0  0  0  0  0
    1.3777    2.9303    2.8940 H   0  0  0  0  0  0  0  0  0  0  0  0
    0.7013    3.6096    1.3972 H   0  0  0  0  0  0  0  0  0  0  0  0
  1  2  1  0  0  0  0
  2  3  1  0  0  0  0
  2  4  1  0  0  0  0
  2  5  1  0  0  0  0
  5  6  2  0  0  0  0
  5  7  1  0  0  0  0
  7  8  1  0  0  0  0
  7  9  1  0  0  0  0
  9 10  1  0  0  0  0
  9 11  1  0  0  0  0
  9 18  1  0  0  0  0
 11 12  1  0  0  0  0
 11 13  1  0  0  0  0
 11 14  1  0  0  0  0
 14 15  2  0  0  0  0
 14 16  1  0  0  0  0
 16 17  1  0  0  0  0
 18 19  2  0  0  0  0
 18 20  1  0  0  0  0
 20 21  1  0  0  0  0
 20 22  1  0  0  0  0
 22 23  1  0  0  0  0
 22 24  1  0  0  0  0
 22 25  1  0  0  0  0
M  END
$$$$

  -OEChem-03222214023D

 25 24  0     1  0  0  0  0  0999 V2000
   -2.7086   -3.9095    0.4375 H   0  0  0  0  0  0  0  0  0  0  0  0
   -2.7399   -2.8545    0.1514 C   0  0  0  0  0  0  0  0  0  0  0  0
   -3.2832   -2.2977    0.9188 H   0  0  0  0  0  0  0  0  0  0  0  0
   -3.2697   -2.7620   -0.7997 H   0  0  0  0  0  0  0  0  0  0  0  0
   -1.3317   -2.3078    0.0139 C   0  0  0  0  0  0  0  0  0  0  0  0
   -0.3696   -3.0424    0.1738 O   0  0  0  0  0  0  0  0  0  0  0  0
   -1.1374   -0.9777   -0.2930 N   0  0  0  0  0  0  0  0  0  0  0  0
   -1.9595   -0.3728   -0.2913 H   0  0  0  0  0  0  0  0  0  0  0  0
    0.1698   -0.3043   -0.2481 C   0  0  1  0  0  0  0  0  0  0  0  0
    0.8985   -0.8661    0.3464 H   0  0  0  0  0  0  0  0  0  0  0  0
    0.6742   -0.1932   -1.7109 C   0  0  0  0  0  0  0  0  0  0  0  0
    1.1901   -1.1205   -1.9716 H   0  0  0  0  0  0  0  0  0  0  0  0
   -0.1961   -0.1121   -2.3680 H   0  0  0  0  0  0  0  0  0  0  0  0
    1.5814    0.9802   -2.0867 C   0  0  0  0  0  0  0  0  0  0  0  0
    2.1261    1.6520   -1.2290 O   0  0  0  0  0  0  0  0  0  0  0  0
    1.7432    1.2069   -3.4075 O   0  0  0  0  0  0  0  0  0  0  0  0
    2.3261    1.9796   -3.4646 H   0  0  0  0  0  0  0  0  0  0  0  0
   -0.0758    1.0477    0.4682 C   0  0  0  0  0  0  0  0  0  0  0  0
   -1.1098    1.6695    0.2394 O   0  0  0  0  0  0  0  0  0  0  0  0
    0.7849    1.4989    1.4519 N   0  0  0  0  0  0  0  0  0  0  0  0
    1.7041    1.0656    1.4746 H   0  0  0  0  0  0  0  0  0  0  0  0
    0.6272    2.7996    2.0905 C   0  0  0  0  0  0  0  0  0  0  0  0
   -0.3539    2.8762    2.5711 H   0  0  0  0  0  0  0  0  0  0  0  0
    1.3960    2.9400    2.8562 H   0  0  0  0  0  0  0  0  0  0  0  0
    0.7214    3.6018    1.3510 H   0  0  0  0  0  0  0  0  0  0  0  0
  1  2  1  0  0  0  0
  2  3  1  0  0  0  0
  2  4  1  0  0  0  0
  2  5  1  0  0  0  0
  5  6  2  0  0  0  0
  5  7  1  0  0  0  0
  7  8  1  0  0  0  0
  7  9  1  0  0  0  0
  9 10  1  0  0  0  0
  9 11  1  0  0  0  0
  9 18  1  0  0  0  0
 11 12  1  0  0  0  0
 11 13  1  0  0  0  0
 11 14  1  0  0  0  0
 14 15  2  0  0  0  0
 14 16  1  0  0  0  0
 16 17  1  0  0  0  0
 18 19  2  0  0  0  0
 18 20  1  0  0  0  0
 20 21  1  0  0  0  0
 20 22  1  0  0  0  0
 22 23  1  0  0  0  0
 22 24  1  0  0  0  0
 22 25  1  0  0  0  0
M  END
$$$$

  -OEChem-03222214023D

 25 24  0     1  0  0  0  0  0999 V2000
   -2.7106   -3.9199    0.4691 H   0  0  0  0  0  0  0  0  0  0  0  0
   -2.7447   -2.8697    0.1659 C   0  0  0  0  0  0  0  0  0  0  0  0
   -3.2920   -2.3025    0.9228 H   0  0  0  0  0  0  0  0  0  0  0  0
   -3.2722   -2.7949   -0.7880 H   0  0  0  0  0  0  0  0  0  0  0  0
   -1.3378   -2.3203    0.0236 C   0  0  0  0  0  0  0  0  0  0  0  0
   -0.3740   -3.0508    0.1911 O   0  0  0  0  0  0  0  0  0  0  0  0
   -1.1476   -0.9920   -0.2943 N   0  0  0  0  0  0  0  0  0  0  0  0
   -1.9723   -0.3909   -0.3024 H   0  0  0  0  0  0  0  0  0  0  0  0
    0.1574   -0.3139   -0.2600 C   0  0  1  0  0  0  0  0  0  0  0  0
    0.8904   -0.8726    0.3324 H   0  0  0  0  0  0  0  0  0  0  0  0
    0.6593   -0.1979   -1.7209 C   0  0  0  0  0  0  0  0  0  0  0  0
    1.1865   -1.1162   -1.9899 H   0  0  0  0  0  0  0  0  0  0  0  0
   -0.2090   -0.1160   -2.3806 H   0  0  0  0  0  0  0  0  0  0  0  0
    1.5565    0.9933   -2.0528 C   0  0  0  0  0  0  0  0  0  0  0  0
    2.2816    1.4636   -1.1926 O   0  0  0  0  0  0  0  0  0  0  0  0
    1.5137    1.4613   -3.3186 O   0  0  0  0  0  0  0  0  0  0  0  0
    2.1308    2.2088   -3.3373 H   0  0  0  0  0  0  0  0  0  0  0  0
   -0.0739    1.0459    0.4447 C   0  0  0  0  0  0  0  0  0  0  0  0
   -1.1007    1.6762    0.2099 O   0  0  0  0  0  0  0  0  0  0  0  0
    0.7973    1.5023    1.4163 N   0  0  0  0  0  0  0  0  0  0  0  0
    1.7144    1.0632    1.4360 H   0  0  0  0  0  0  0  0  0  0  0  0
    0.6473    2.8033    2.0567 C   0  0  0  0  0  0  0  0  0  0  0  0
   -0.3360    2.8877    2.5314 H   0  0  0  0  0  0  0  0  0  0  0  0
    1.4123    2.9345    2.8281 H   0  0  0  0  0  0  0  0  0  0  0  0
    0.7533    3.6066    1.3200 H   0  0  0  0  0  0  0  0  0  0  0  0
  1  2  1  0  0  0  0
  2  3  1  0  0  0  0
  2  4  1  0  0  0  0
  2  5  1  0  0  0  0
  5  6  2  0  0  0  0
  5  7  1  0  0  0  0
  7  8  1  0  0  0  0
  7  9  1  0  0  0  0
  9 10  1  0  0  0  0
  9 11  1  0  0  0  0
  9 18  1  0  0  0  0
 11 12  1  0  0  0  0
 11 13  1  0  0  0  0
 11 14  1  0  0  0  0
 14 15  2  0  0  0  0
 14 16  1  0  0  0  0
 16 17  1  0  0  0  0
 18 19  2  0  0  0  0
 18 20  1  0  0  0  0
 20 21  1  0  0  0  0
 20 22  1  0  0  0  0
 22 23  1  0  0  0  0
 22 24  1  0  0  0  0
 22 25  1  0  0  0  0
M  END
$$$$

  -OEChem-03222214023D

 25 24  0     1  0  0  0  0  0999 V2000
   -2.7051   -3.9445    0.4780 H   0  0  0  0  0  0  0  0  0  0  0  0
   -2.7478   -2.8965    0.1685 C   0  0  0  0  0  0  0  0  0  0  0  0
   -3.3049   -2.3307    0.9191 H   0  0  0  0  0  0  0  0  0  0  0  0
   -3.2708   -2.8322   -0.7887 H   0  0  0  0  0  0  0  0  0  0  0  0
   -1.3453   -2.3347    0.0307 C   0  0  0  0  0  0  0  0  0  0  0  0
   -0.3762   -3.0561    0.2069 O   0  0  0  0  0  0  0  0  0  0  0  0
   -1.1650   -1.0067   -0.2947 N   0  0  0  0  0  0  0  0  0  0  0  0
   -1.9950   -0.4135   -0.3154 H   0  0  0  0  0  0  0  0  0  0  0  0
    0.1346   -0.3188   -0.2682 C   0  0  1  0  0  0  0  0  0  0  0  0
    0.8692   -0.8742    0.3255 H   0  0  0  0  0  0  0  0  0  0  0  0
    0.6452   -0.2015   -1.7230 C   0  0  0  0  0  0  0  0  0  0  0  0
    1.1917   -1.1089   -1.9907 H   0  0  0  0  0  0  0  0  0  0  0  0
   -0.2148   -0.1262   -2.3943 H   0  0  0  0  0  0  0  0  0  0  0  0
    1.5278    1.0113   -2.0028 C   0  0  0  0  0  0  0  0  0  0  0  0
    2.4090    1.2892   -1.2064 O   0  0  0  0  0  0  0  0  0  0  0  0
    1.3020    1.7122   -3.1342 O   0  0  0  0  0  0  0  0  0  0  0  0
    1.9456    2.4371   -3.1221 H   0  0  0  0  0  0  0  0  0  0  0  0
   -0.0785    1.0477    0.4261 C   0  0  0  0  0  0  0  0  0  0  0  0
   -1.0952    1.6909    0.1861 O   0  0  0  0  0  0  0  0  0  0  0  0
    0.8071    1.5049    1.3836 N   0  0  0  0  0  0  0  0  0  0  0  0
    1.7133    1.0436    1.4150 H   0  0  0  0  0  0  0  0  0  0  0  0
    0.6809    2.8155    2.0089 C   0  0  0  0  0  0  0  0  0  0  0  0
   -0.2943    2.9171    2.4968 H   0  0  0  0  0  0  0  0  0  0  0  0
    1.4587    2.9487    2.7669 H   0  0  0  0  0  0  0  0  0  0  0  0
    0.7849    3.6076    1.2601 H   0  0  0  0  0  0  0  0  0  0  0  0
  1  2  1  0  0  0  0
  2  3  1  0  0  0  0
  2  4  1  0  0  0  0
  2  5  1  0  0  0  0
  5  6  2  0  0  0  0
  5  7  1  0  0  0  0
  7  8  1  0  0  0  0
  7  9  1  0  0  0  0
  9 10  1  0  0  0  0
  9 11  1  0  0  0  0
  9 18  1  0  0  0  0
 11 12  1  0  0  0  0
 11 13  1  0  0  0  0
 11 14  1  0  0  0  0
 14 15  2  0  0  0  0
 14 16  1  0  0  0  0
 16 17  1  0  0  0  0
 18 19  2  0  0  0  0
 18 20  1  0  0  0  0
 20 21  1  0  0  0  0
 20 22  1  0  0  0  0
 22 23  1  0  0  0  0
 22 24  1  0  0  0  0
 22 25  1  0  0  0  0
M  END
$$$$

  -OEChem-03222214023D

 25 24  0     1  0  0  0  0  0999 V2000
   -2.6977   -3.9649    0.4605 H   0  0  0  0  0  0  0  0  0  0  0  0
   -2.7471   -2.9135    0.1631 C   0  0  0  0  0  0  0  0  0  0  0  0
   -3.3116   -2.3598    0.9174 H   0  0  0  0  0  0  0  0  0  0  0  0
   -3.2661   -2.8420   -0.7958 H   0  0  0  0  0  0  0  0  0  0  0  0
   -1.3484   -2.3397    0.0383 C   0  0  0  0  0  0  0  0  0  0  0  0
   -0.3746   -3.0515    0.2266 O   0  0  0  0  0  0  0  0  0  0  0  0
   -1.1785   -1.0121   -0.2942 N   0  0  0  0  0  0  0  0  0  0  0  0
   -2.0144   -0.4283   -0.3276 H   0  0  0  0  0  0  0  0  0  0  0  0
    0.1136   -0.3114   -0.2754 C   0  0  1  0  0  0  0  0  0  0  0  0
    0.8475   -0.8608    0.3248 H   0  0  0  0  0  0  0  0  0  0  0  0
    0.6398   -0.2083   -1.7230 C   0  0  0  0  0  0  0  0  0  0  0  0
    1.2078   -1.1078   -1.9735 H   0  0  0  0  0  0  0  0  0  0  0  0
   -0.2078   -0.1512   -2.4115 H   0  0  0  0  0  0  0  0  0  0  0  0
    1.5051    1.0210   -1.9708 C   0  0  0  0  0  0  0  0  0  0  0  0
    2.5214    1.1464   -1.3087 O   0  0  0  0  0  0  0  0  0  0  0  0
    1.1177    1.9030   -2.9162 O   0  0  0  0  0  0  0  0  0  0  0  0
    1.7847    2.6062   -2.9052 H   0  0  0  0  0  0  0  0  0  0  0  0
   -0.0832    1.0616    0.4076 C   0  0  0  0  0  0  0  0  0  0  0  0
   -1.0982    1.7092    0.1766 O   0  0  0  0  0  0  0  0  0  0  0  0
    0.8186    1.5179    1.3502 N   0  0  0  0  0  0  0  0  0  0  0  0
    1.7109    1.0317    1.4017 H   0  0  0  0  0  0  0  0  0  0  0  0
    0.7031    2.8231    1.9890 C   0  0  0  0  0  0  0  0  0  0  0  0
   -0.2604    2.9163    2.5012 H   0  0  0  0  0  0  0  0  0  0  0  0
    1.4990    2.9527    2.7289 H   0  0  0  0  0  0  0  0  0  0  0  0
    0.7859    3.6225    1.2451 H   0  0  0  0  0  0  0  0  0  0  0  0
  1  2  1  0  0  0  0
  2  3  1  0  0  0  0
  2  4  1  0  0  0  0
  2  5  1  0  0  0  0
  5  6  2  0  0  0  0
  5  7  1  0  0  0  0
  7  8  1  0  0  0  0
  7  9  1  0  0  0  0
  9 10  1  0  0  0  0
  9 11  1  0  0  0  0
  9 18  1  0  0  0  0
 11 12  1  0  0  0  0
 11 13  1  0  0  0  0
 11 14  1  0  0  0  0
 14 15  2  0  0  0  0
 14 16  1  0  0  0  0
 16 17  1  0  0  0  0
 18 19  2  0  0  0  0
 18 20  1  0  0  0  0
 20 21  1  0  0  0  0
 20 22  1  0  0  0  0
 22 23  1  0  0  0  0
 22 24  1  0  0  0  0
 22 25  1  0  0  0  0
M  END
$$$$

  -OEChem-03222214023D

 25 24  0     1  0  0  0  0  0999 V2000
   -2.6906   -3.9694    0.4531 H   0  0  0  0  0  0  0  0  0  0  0  0
   -2.7444   -2.9174    0.1592 C   0  0  0  0  0  0  0  0  0  0  0  0
   -3.3144   -2.3694    0.9133 H   0  0  0  0  0  0  0  0  0  0  0  0
   -3.2603   -2.8453   -0.8013 H   0  0  0  0  0  0  0  0  0  0  0  0
   -1.3484   -2.3360    0.0412 C   0  0  0  0  0  0  0  0  0  0  0  0
   -0.3717   -3.0412    0.2388 O   0  0  0  0  0  0  0  0  0  0  0  0
   -1.1841   -1.0085   -0.2942 N   0  0  0  0  0  0  0  0  0  0  0  0
   -2.0234   -0.4307   -0.3395 H   0  0  0  0  0  0  0  0  0  0  0  0
    0.1038   -0.3004   -0.2799 C   0  0  1  0  0  0  0  0  0  0  0  0
    0.8355   -0.8471    0.3256 H   0  0  0  0  0  0  0  0  0  0  0  0
    0.6413   -0.2103   -1.7229 C   0  0  0  0  0  0  0  0  0  0  0  0
    1.2192   -1.1079   -1.9584 H   0  0  0  0  0  0  0  0  0  0  0  0
   -0.1983   -0.1653   -2.4219 H   0  0  0  0  0  0  0  0  0  0  0  0
    1.4976    1.0254   -1.9641 C   0  0  0  0  0  0  0  0  0  0  0  0
    2.6258    1.0324   -1.5046 O   0  0  0  0  0  0  0  0  0  0  0  0
    0.9792    2.0414   -2.6858 O   0  0  0  0  0  0  0  0  0  0  0  0
    1.6685    2.7221   -2.7132 H   0  0  0  0  0  0  0  0  0  0  0  0
   -0.0846    1.0753    0.3979 C   0  0  0  0  0  0  0  0  0  0  0  0
   -1.1040    1.7208    0.1836 O   0  0  0  0  0  0  0  0  0  0  0  0
    0.8266    1.5299    1.3322 N   0  0  0  0  0  0  0  0  0  0  0  0
    1.7005    1.0164    1.4184 H   0  0  0  0  0  0  0  0  0  0  0  0
    0.7071    2.8219    1.9964 C   0  0  0  0  0  0  0  0  0  0  0  0
   -0.2447    2.8911    2.5337 H   0  0  0  0  0  0  0  0  0  0  0  0
    1.5191    2.9524    2.7183 H   0  0  0  0  0  0  0  0  0  0  0  0
    0.7587    3.6347    1.2645 H   0  0  0  0  0  0  0  0  0  0  0  0
  1  2  1  0  0  0  0
  2  3  1  0  0  0  0
  2  4  1  0  0  0  0
  2  5  1  0  0  0  0
  5  6  2  0  0  0  0
  5  7  1  0  0  0  0
  7  8  1  0  0  0  0
  7  9  1  0  0  0  0
  9 10  1  0  0  0  0
  9 11  1  0  0  0  0
  9 18  1  0  0  0  0
 11 12  1  0  0  0  0
 11 13  1  0  0  0  0
 11 14  1  0  0  0  0
 14 15  2  0  0  0  0
 14 16  1  0  0  0  0
 16 17  1  0  0  0  0
 18 19  2  0  0  0  0
 18 20  1  0  0  0  0
 20 21  1  0  0  0  0
 20 22  1  0  0  0  0
 22 23  1  0  0  0  0
 22 24  1  0  0  0  0
 22 25  1  0  0  0  0
M  END
$$$$

  -OEChem-03222214023D

 25 24  0     1  0  0  0  0  0999 V2000
   -2.6862   -3.9579    0.4600 H   0  0  0  0  0  0  0  0  0  0  0  0
   -2.7407   -2.9061    0.1657 C   0  0  0  0  0  0  0  0  0  0  0  0
   -3.3043   -2.3569    0.9238 H   0  0  0  0  0  0  0  0  0  0  0  0
   -3.2641   -2.8343   -0.7908 H   0  0  0  0  0  0  0  0  0  0  0  0
   -1.3450   -2.3260    0.0371 C   0  0  0  0  0  0  0  0  0  0  0  0
   -0.3674   -3.0303    0.2338 O   0  0  0  0  0  0  0  0  0  0  0  0
   -1.1819   -0.9985   -0.2991 N   0  0  0  0  0  0  0  0  0  0  0  0
   -2.0215   -0.4205   -0.3411 H   0  0  0  0  0  0  0  0  0  0  0  0
    0.1052   -0.2887   -0.2851 C   0  0  1  0  0  0  0  0  0  0  0  0
    0.8343   -0.8339    0.3248 H   0  0  0  0  0  0  0  0  0  0  0  0
    0.6503   -0.2092   -1.7261 C   0  0  0  0  0  0  0  0  0  0  0  0
    1.2271   -1.1105   -1.9509 H   0  0  0  0  0  0  0  0  0  0  0  0
   -0.1859   -0.1697   -2.4294 H   0  0  0  0  0  0  0  0  0  0  0  0
    1.5074    1.0240   -1.9799 C   0  0  0  0  0  0  0  0  0  0  0  0
    2.7037    0.9372   -1.7709 O   0  0  0  0  0  0  0  0  0  0  0  0
    0.9141    2.1374   -2.4591 O   0  0  0  0  0  0  0  0  0  0  0  0
    1.6222    2.7918   -2.5560 H   0  0  0  0  0  0  0  0  0  0  0  0
   -0.0842    1.0873    0.3918 C   0  0  0  0  0  0  0  0  0  0  0  0
   -1.1152    1.7213    0.2000 O   0  0  0  0  0  0  0  0  0  0  0  0
    0.8288    1.5407    1.3254 N   0  0  0  0  0  0  0  0  0  0  0  0
    1.6845    1.0049    1.4470 H   0  0  0  0  0  0  0  0  0  0  0  0
    0.6879    2.8093    2.0295 C   0  0  0  0  0  0  0  0  0  0  0  0
   -0.2489    2.8319    2.5962 H   0  0  0  0  0  0  0  0  0  0  0  0
    1.5172    2.9467    2.7299 H   0  0  0  0  0  0  0  0  0  0  0  0
    0.6910    3.6435    1.3201 H   0  0  0  0  0  0  0  0  0  0  0  0
  1  2  1  0  0  0  0
  2  3  1  0  0  0  0
  2  4  1  0  0  0  0
  2  5  1  0  0  0  0
  5  6  2  0  0  0  0
  5  7  1  0  0  0  0
  7  8  1  0  0  0  0
  7  9  1  0  0  0  0
  9 10  1  0  0  0  0
  9 11  1  0  0  0  0
  9 18  1  0  0  0  0
 11 12  1  0  0  0  0
 11 13  1  0  0  0  0
 11 14  1  0  0  0  0
 14 15  2  0  0  0  0
 14 16  1  0  0  0  0
 16 17  1  0  0  0  0
 18 19  2  0  0  0  0
 18 20  1  0  0  0  0
 20 21  1  0  0  0  0
 20 22  1  0  0  0  0
 22 23  1  0  0  0  0
 22 24  1  0  0  0  0
 22 25  1  0  0  0  0
M  END
$$$$

  -OEChem-03222214023D

 25 24  0     1  0  0  0  0  0999 V2000
   -2.6835   -3.9487    0.4458 H   0  0  0  0  0  0  0  0  0  0  0  0
   -2.7376   -2.8936    0.1635 C   0  0  0  0  0  0  0  0  0  0  0  0
   -3.2975   -2.3522    0.9300 H   0  0  0  0  0  0  0  0  0  0  0  0
   -3.2643   -2.8102   -0.7902 H   0  0  0  0  0  0  0  0  0  0  0  0
   -1.3416   -2.3139    0.0358 C   0  0  0  0  0  0  0  0  0  0  0  0
   -0.3640   -3.0191    0.2290 O   0  0  0  0  0  0  0  0  0  0  0  0
   -1.1780   -0.9854   -0.2962 N   0  0  0  0  0  0  0  0  0  0  0  0
   -2.0169   -0.4059   -0.3310 H   0  0  0  0  0  0  0  0  0  0  0  0
    0.1096   -0.2766   -0.2808 C   0  0  1  0  0  0  0  0  0  0  0  0
    0.8354   -0.8231    0.3315 H   0  0  0  0  0  0  0  0  0  0  0  0
    0.6606   -0.2063   -1.7214 C   0  0  0  0  0  0  0  0  0  0  0  0
    1.2293   -1.1154   -1.9365 H   0  0  0  0  0  0  0  0  0  0  0  0
   -0.1754   -0.1683   -2.4245 H   0  0  0  0  0  0  0  0  0  0  0  0
    1.5246    1.0181   -2.0032 C   0  0  0  0  0  0  0  0  0  0  0  0
    2.7292    0.8574   -2.0697 O   0  0  0  0  0  0  0  0  0  0  0  0
    0.9208    2.2006   -2.2441 O   0  0  0  0  0  0  0  0  0  0  0  0
    1.6354    2.8268   -2.4344 H   0  0  0  0  0  0  0  0  0  0  0  0
   -0.0839    1.0962    0.4016 C   0  0  0  0  0  0  0  0  0  0  0  0
   -1.1279    1.7162    0.2334 O   0  0  0  0  0  0  0  0  0  0  0  0
    0.8280    1.5477    1.3378 N   0  0  0  0  0  0  0  0  0  0  0  0
    1.6737    1.0014    1.4780 H   0  0  0  0  0  0  0  0  0  0  0  0
    0.6654    2.7960    2.0730 C   0  0  0  0  0  0  0  0  0  0  0  0
   -0.2488    2.7698    2.6753 H   0  0  0  0  0  0  0  0  0  0  0  0
    1.5159    2.9542    2.7430 H   0  0  0  0  0  0  0  0  0  0  0  0
    0.6076    3.6431    1.3814 H   0  0  0  0  0  0  0  0  0  0  0  0
  1  2  1  0  0  0  0
  2  3  1  0  0  0  0
  2  4  1  0  0  0  0
  2  5  1  0  0  0  0
  5  6  2  0  0  0  0
  5  7  1  0  0  0  0
  7  8  1  0  0  0  0
  7  9  1  0  0  0  0
  9 10  1  0  0  0  0
  9 11  1  0  0  0  0
  9 18  1  0  0  0  0
 11 12  1  0  0  0  0
 11 13  1  0  0  0  0
 11 14  1  0  0  0  0
 14 15  2  0  0  0  0
 14 16  1  0  0  0  0
 16 17  1  0  0  0  0
 18 19  2  0  0  0  0
 18 20  1  0  0  0  0
 20 21  1  0  0  0  0
 20 22  1  0  0  0  0
 22 23  1  0  0  0  0
 22 24  1  0  0  0  0
 22 25  1  0  0  0  0
M  END
$$$$

  -OEChem-03222214023D

 25 24  0     1  0  0  0  0  0999 V2000
   -2.6745   -3.9381    0.4422 H   0  0  0  0  0  0  0  0  0  0  0  0
   -2.7311   -2.8832    0.1593 C   0  0  0  0  0  0  0  0  0  0  0  0
   -3.2907   -2.3423    0.9263 H   0  0  0  0  0  0  0  0  0  0  0  0
   -3.2597   -2.8017   -0.7934 H   0  0  0  0  0  0  0  0  0  0  0  0
   -1.3362   -2.3016    0.0288 C   0  0  0  0  0  0  0  0  0  0  0  0
   -0.3574   -3.0075    0.2141 O   0  0  0  0  0  0  0  0  0  0  0  0
   -1.1733   -0.9706   -0.2937 N   0  0  0  0  0  0  0  0  0  0  0  0
   -2.0112   -0.3887   -0.3148 H   0  0  0  0  0  0  0  0  0  0  0  0
    0.1151   -0.2628   -0.2710 C   0  0  1  0  0  0  0  0  0  0  0  0
    0.8367   -0.8109    0.3449 H   0  0  0  0  0  0  0  0  0  0  0  0
    0.6718   -0.2019   -1.7127 C   0  0  0  0  0  0  0  0  0  0  0  0
    1.2291   -1.1207   -1.9173 H   0  0  0  0  0  0  0  0  0  0  0  0
   -0.1666   -0.1668   -2.4130 H   0  0  0  0  0  0  0  0  0  0  0  0
    1.5457    1.0079   -2.0366 C   0  0  0  0  0  0  0  0  0  0  0  0
    2.6918    0.7910   -2.3834 O   0  0  0  0  0  0  0  0  0  0  0  0
    0.9962    2.2401   -2.0447 O   0  0  0  0  0  0  0  0  0  0  0  0
    1.6987    2.8389   -2.3397 H   0  0  0  0  0  0  0  0  0  0  0  0
   -0.0872    1.1034    0.4222 C   0  0  0  0  0  0  0  0  0  0  0  0
   -1.1416    1.7113    0.2714 O   0  0  0  0  0  0  0  0  0  0  0  0
    0.8204    1.5488    1.3659 N   0  0  0  0  0  0  0  0  0  0  0  0
    1.6628    0.9994    1.5117 H   0  0  0  0  0  0  0  0  0  0  0  0
    0.6429    2.7812    2.1239 C   0  0  0  0  0  0  0  0  0  0  0  0
   -0.2763    2.7378    2.7178 H   0  0  0  0  0  0  0  0  0  0  0  0
    1.4865    2.9320    2.8044 H   0  0  0  0  0  0  0  0  0  0  0  0
    0.5857    3.6406    1.4475 H   0  0  0  0  0  0  0  0  0  0  0  0
  1  2  1  0  0  0  0
  2  3  1  0  0  0  0
  2  4  1  0  0  0  0
  2  5  1  0  0  0  0
  5  6  2  0  0  0  0
  5  7  1  0  0  0  0
  7  8  1  0  0  0  0
  7  9  1  0  0  0  0
  9 10  1  0  0  0  0
  9 11  1  0  0  0  0
  9 18  1  0  0  0  0
 11 12  1  0  0  0  0
 11 13  1  0  0  0  0
 11 14  1  0  0  0  0
 14 15  2  0  0  0  0
 14 16  1  0  0  0  0
 16 17  1  0  0  0  0
 18 19  2  0  0  0  0
 18 20  1  0  0  0  0
 20 21  1  0  0  0  0
 20 22  1  0  0  0  0
 22 23  1  0  0  0  0
 22 24  1  0  0  0  0
 22 25  1  0  0  0  0
M  END
$$$$

  -OEChem-03222214023D

 25 24  0     1  0  0  0  0  0999 V2000
   -2.6722   -3.9305    0.4315 H   0  0  0  0  0  0  0  0  0  0  0  0
   -2.7269   -2.8749    0.1509 C   0  0  0  0  0  0  0  0  0  0  0  0
   -3.2858   -2.3346    0.9191 H   0  0  0  0  0  0  0  0  0  0  0  0
   -3.2554   -2.7902   -0.8016 H   0  0  0  0  0  0  0  0  0  0  0  0
   -1.3307   -2.2955    0.0218 C   0  0  0  0  0  0  0  0  0  0  0  0
   -0.3532   -3.0055    0.1979 O   0  0  0  0  0  0  0  0  0  0  0  0
   -1.1648   -0.9621   -0.2887 N   0  0  0  0  0  0  0  0  0  0  0  0
   -2.0014   -0.3777   -0.3005 H   0  0  0  0  0  0  0  0  0  0  0  0
    0.1256   -0.2574   -0.2565 C   0  0  1  0  0  0  0  0  0  0  0  0
    0.8458   -0.8087    0.3580 H   0  0  0  0  0  0  0  0  0  0  0  0
    0.6805   -0.1965   -1.7020 C   0  0  0  0  0  0  0  0  0  0  0  0
    1.2241   -1.1243   -1.9032 H   0  0  0  0  0  0  0  0  0  0  0  0
   -0.1648   -0.1595   -2.3938 H   0  0  0  0  0  0  0  0  0  0  0  0
    1.5665    0.9949   -2.0738 C   0  0  0  0  0  0  0  0  0  0  0  0
    2.5826    0.7425   -2.6940 O   0  0  0  0  0  0  0  0  0  0  0  0
    1.1588    2.2564   -1.8264 O   0  0  0  0  0  0  0  0  0  0  0  0
    1.8336    2.8298   -2.2206 H   0  0  0  0  0  0  0  0  0  0  0  0
   -0.0923    1.0996    0.4507 C   0  0  0  0  0  0  0  0  0  0  0  0
   -1.1516    1.7000    0.2990 O   0  0  0  0  0  0  0  0  0  0  0  0
    0.8042    1.5422    1.4064 N   0  0  0  0  0  0  0  0  0  0  0  0
    1.6569    1.0069    1.5414 H   0  0  0  0  0  0  0  0  0  0  0  0
    0.6175    2.7730    2.1646 C   0  0  0  0  0  0  0  0  0  0  0  0
   -0.3147    2.7328    2.7380 H   0  0  0  0  0  0  0  0  0  0  0  0
    1.4468    2.9160    2.8639 H   0  0  0  0  0  0  0  0  0  0  0  0
    0.5799    3.6351    1.4903 H   0  0  0  0  0  0  0  0  0  0  0  0
  1  2  1  0  0  0  0
  2  3  1  0  0  0  0
  2  4  1  0  0  0  0
  2  5  1  0  0  0  0
  5  6  2  0  0  0  0
  5  7  1  0  0  0  0
  7  8  1  0  0  0  0
  7  9  1  0  0  0  0
  9 10  1  0  0  0  0
  9 11  1  0  0  0  0
  9 18  1  0  0  0  0
 11 12  1  0  0  0  0
 11 13  1  0  0  0  0
 11 14  1  0  0  0  0
 14 15  2  0  0  0  0
 14 16  1  0  0  0  0
 16 17  1  0  0  0  0
 18 19  2  0  0  0  0
 18 20  1  0  0  0  0
 20 21  1  0  0  0  0
 20 22  1  0  0  0  0
 22 23  1  0  0  0  0
 22 24  1  0  0  0  0
 22 25  1  0  0  0  0
M  END
$$$$

  -OEChem-03222214023D

 25 24  0     1  0  0  0  0  0999 V2000
   -2.6696   -3.9309    0.4140 H   0  0  0  0  0  0  0  0  0  0  0  0
   -2.7223   -2.8746    0.1355 C   0  0  0  0  0  0  0  0  0  0  0  0
   -3.2896   -2.3375    0.8995 H   0  0  0  0  0  0  0  0  0  0  0  0
   -3.2411   -2.7881   -0.8222 H   0  0  0  0  0  0  0  0  0  0  0  0
   -1.3254   -2.2938    0.0215 C   0  0  0  0  0  0  0  0  0  0  0  0
   -0.3492   -3.0054    0.1991 O   0  0  0  0  0  0  0  0  0  0  0  0
   -1.1559   -0.9584   -0.2793 N   0  0  0  0  0  0  0  0  0  0  0  0
   -1.9906   -0.3711   -0.2907 H   0  0  0  0  0  0  0  0  0  0  0  0
    0.1377   -0.2587   -0.2388 C   0  0  1  0  0  0  0  0  0  0  0  0
    0.8613   -0.8126    0.3692 H   0  0  0  0  0  0  0  0  0  0  0  0
    0.6757   -0.1889   -1.6931 C   0  0  0  0  0  0  0  0  0  0  0  0
    1.2051   -1.1231   -1.9016 H   0  0  0  0  0  0  0  0  0  0  0  0
   -0.1823   -0.1449   -2.3688 H   0  0  0  0  0  0  0  0  0  0  0  0
    1.5699    0.9838   -2.1111 C   0  0  0  0  0  0  0  0  0  0  0  0
    2.3865    0.7395   -2.9798 O   0  0  0  0  0  0  0  0  0  0  0  0
    1.4161    2.2171   -1.5883 O   0  0  0  0  0  0  0  0  0  0  0  0
    2.0496    2.7776   -2.0621 H   0  0  0  0  0  0  0  0  0  0  0  0
   -0.0989    1.0894    0.4807 C   0  0  0  0  0  0  0  0  0  0  0  0
   -1.1533    1.6933    0.3065 O   0  0  0  0  0  0  0  0  0  0  0  0
    0.7833    1.5321    1.4501 N   0  0  0  0  0  0  0  0  0  0  0  0
    1.6521    1.0193    1.5672 H   0  0  0  0  0  0  0  0  0  0  0  0
    0.5959    2.7752    2.1879 C   0  0  0  0  0  0  0  0  0  0  0  0
   -0.3599    2.7646    2.7224 H   0  0  0  0  0  0  0  0  0  0  0  0
    1.3980    2.9045    2.9207 H   0  0  0  0  0  0  0  0  0  0  0  0
    0.6082    3.6306    1.5042 H   0  0  0  0  0  0  0  0  0  0  0  0
  1  2  1  0  0  0  0
  2  3  1  0  0  0  0
  2  4  1  0  0  0  0
  2  5  1  0  0  0  0
  5  6  2  0  0  0  0
  5  7  1  0  0  0  0
  7  8  1  0  0  0  0
  7  9  1  0  0  0  0
  9 10  1  0  0  0  0
  9 11  1  0  0  0  0
  9 18  1  0  0  0  0
 11 12  1  0  0  0  0
 11 13  1  0  0  0  0
 11 14  1  0  0  0  0
 14 15  2  0  0  0  0
 14 16  1  0  0  0  0
 16 17  1  0  0  0  0
 18 19  2  0  0  0  0
 18 20  1  0  0  0  0
 20 21  1  0  0  0  0
 20 22  1  0  0  0  0
 22 23  1  0  0  0  0
 22 24  1  0  0  0  0
 22 25  1  0  0  0  0
M  END
$$$$

  -OEChem-03222214023D

 25 24  0     1  0  0  0  0  0999 V2000
   -2.6742   -3.9308    0.4028 H   0  0  0  0  0  0  0  0  0  0  0  0
   -2.7210   -2.8737    0.1266 C   0  0  0  0  0  0  0  0  0  0  0  0
   -3.2896   -2.3350    0.8887 H   0  0  0  0  0  0  0  0  0  0  0  0
   -3.2343   -2.7826   -0.8336 H   0  0  0  0  0  0  0  0  0  0  0  0
   -1.3214   -2.2986    0.0216 C   0  0  0  0  0  0  0  0  0  0  0  0
   -0.3484   -3.0135    0.2031 O   0  0  0  0  0  0  0  0  0  0  0  0
   -1.1467   -0.9632   -0.2743 N   0  0  0  0  0  0  0  0  0  0  0  0
   -1.9797   -0.3737   -0.2897 H   0  0  0  0  0  0  0  0  0  0  0  0
    0.1496   -0.2691   -0.2275 C   0  0  1  0  0  0  0  0  0  0  0  0
    0.8804   -0.8244    0.3703 H   0  0  0  0  0  0  0  0  0  0  0  0
    0.6621   -0.1781   -1.6908 C   0  0  0  0  0  0  0  0  0  0  0  0
    1.1858   -1.1105   -1.9199 H   0  0  0  0  0  0  0  0  0  0  0  0
   -0.2080   -0.1236   -2.3508 H   0  0  0  0  0  0  0  0  0  0  0  0
    1.5565    0.9903   -2.1204 C   0  0  0  0  0  0  0  0  0  0  0  0
    2.1352    0.8382   -3.1802 O   0  0  0  0  0  0  0  0  0  0  0  0
    1.7404    2.0793   -1.3464 O   0  0  0  0  0  0  0  0  0  0  0  0
    2.3313    2.6541   -1.8574 H   0  0  0  0  0  0  0  0  0  0  0  0
   -0.1061    1.0728    0.4988 C   0  0  0  0  0  0  0  0  0  0  0  0
   -1.1482    1.6867    0.2884 O   0  0  0  0  0  0  0  0  0  0  0  0
    0.7597    1.5199    1.4805 N   0  0  0  0  0  0  0  0  0  0  0  0
    1.6458    1.0332    1.5759 H   0  0  0  0  0  0  0  0  0  0  0  0
    0.5774    2.7838    2.1827 C   0  0  0  0  0  0  0  0  0  0  0  0
   -0.3949    2.8064    2.6861 H   0  0  0  0  0  0  0  0  0  0  0  0
    1.3587    2.9125    2.9378 H   0  0  0  0  0  0  0  0  0  0  0  0
    0.6308    3.6223    1.4803 H   0  0  0  0  0  0  0  0  0  0  0  0
  1  2  1  0  0  0  0
  2  3  1  0  0  0  0
  2  4  1  0  0  0  0
  2  5  1  0  0  0  0
  5  6  2  0  0  0  0
  5  7  1  0  0  0  0
  7  8  1  0  0  0  0
  7  9  1  0  0  0  0
  9 10  1  0  0  0  0
  9 11  1  0  0  0  0
  9 18  1  0  0  0  0
 11 12  1  0  0  0  0
 11 13  1  0  0  0  0
 11 14  1  0  0  0  0
 14 15  2  0  0  0  0
 14 16  1  0  0  0  0
 16 17  1  0  0  0  0
 18 19  2  0  0  0  0
 18 20  1  0  0  0  0
 20 21  1  0  0  0  0
 20 22  1  0  0  0  0
 22 23  1  0  0  0  0
 22 24  1  0  0  0  0
 22 25  1  0  0  0  0
M  END
$$$$

  -OEChem-03222214023D

 25 24  0     1  0  0  0  0  0999 V2000
   -2.7043   -3.9350    0.4080 H   0  0  0  0  0  0  0  0  0  0  0  0
   -2.7368   -2.8821    0.1145 C   0  0  0  0  0  0  0  0  0  0  0  0
   -3.3235   -2.3287    0.8518 H   0  0  0  0  0  0  0  0  0  0  0  0
   -3.2220   -2.8030   -0.8613 H   0  0  0  0  0  0  0  0  0  0  0  0
   -1.3311   -2.3165    0.0406 C   0  0  0  0  0  0  0  0  0  0  0  0
   -0.3688   -3.0334    0.2654 O   0  0  0  0  0  0  0  0  0  0  0  0
   -1.1394   -0.9886   -0.2790 N   0  0  0  0  0  0  0  0  0  0  0  0
   -1.9682   -0.3968   -0.3408 H   0  0  0  0  0  0  0  0  0  0  0  0
    0.1599   -0.3022   -0.2178 C   0  0  1  0  0  0  0  0  0  0  0  0
    0.8903   -0.8602    0.3783 H   0  0  0  0  0  0  0  0  0  0  0  0
    0.6576   -0.1790   -1.6752 C   0  0  0  0  0  0  0  0  0  0  0  0
    0.9615   -1.1704   -2.0218 H   0  0  0  0  0  0  0  0  0  0  0  0
   -0.1762    0.1532   -2.3003 H   0  0  0  0  0  0  0  0  0  0  0  0
    1.8099    0.7901   -1.9357 C   0  0  0  0  0  0  0  0  0  0  0  0
    2.1879    0.8776   -3.0887 O   0  0  0  0  0  0  0  0  0  0  0  0
    2.4617    1.3784   -0.9082 O   0  0  0  0  0  0  0  0  0  0  0  0
    3.1709    1.8898   -1.3301 H   0  0  0  0  0  0  0  0  0  0  0  0
   -0.0870    1.0605    0.4735 C   0  0  0  0  0  0  0  0  0  0  0  0
   -1.0939    1.7026    0.1923 O   0  0  0  0  0  0  0  0  0  0  0  0
    0.7606    1.5265    1.4612 N   0  0  0  0  0  0  0  0  0  0  0  0
    1.6598    1.0592    1.5422 H   0  0  0  0  0  0  0  0  0  0  0  0
    0.5950    2.8271    2.0982 C   0  0  0  0  0  0  0  0  0  0  0  0
   -0.3960    2.9069    2.5576 H   0  0  0  0  0  0  0  0  0  0  0  0
    1.3474    2.9624    2.8811 H   0  0  0  0  0  0  0  0  0  0  0  0
    0.7084    3.6306    1.3630 H   0  0  0  0  0  0  0  0  0  0  0  0
  1  2  1  0  0  0  0
  2  3  1  0  0  0  0
  2  4  1  0  0  0  0
  2  5  1  0  0  0  0
  5  6  2  0  0  0  0
  5  7  1  0  0  0  0
  7  8  1  0  0  0  0
  7  9  1  0  0  0  0
  9 10  1  0  0  0  0
  9 11  1  0  0  0  0
  9 18  1  0  0  0  0
 11 12  1  0  0  0  0
 11 13  1  0  0  0  0
 11 14  1  0  0  0  0
 14 15  2  0  0  0  0
 14 16  1  0  0  0  0
 16 17  1  0  0  0  0
 18 19  2  0  0  0  0
 18 20  1  0  0  0  0
 20 21  1  0  0  0  0
 20 22  1  0  0  0  0
 22 23  1  0  0  0  0
 22 24  1  0  0  0  0
 22 25  1  0  0  0  0
M  END
$$$$

  -OEChem-03222214023D

 25 24  0     1  0  0  0  0  0999 V2000
   -2.7119   -3.9417    0.4163 H   0  0  0  0  0  0  0  0  0  0  0  0
   -2.7446   -2.8910    0.1151 C   0  0  0  0  0  0  0  0  0  0  0  0
   -3.3371   -2.3336    0.8445 H   0  0  0  0  0  0  0  0  0  0  0  0
   -3.2239   -2.8198   -0.8642 H   0  0  0  0  0  0  0  0  0  0  0  0
   -1.3398   -2.3230    0.0461 C   0  0  0  0  0  0  0  0  0  0  0  0
   -0.3771   -3.0376    0.2767 O   0  0  0  0  0  0  0  0  0  0  0  0
   -1.1498   -0.9967   -0.2810 N   0  0  0  0  0  0  0  0  0  0  0  0
   -1.9799   -0.4077   -0.3497 H   0  0  0  0  0  0  0  0  0  0  0  0
    0.1475   -0.3068   -0.2248 C   0  0  1  0  0  0  0  0  0  0  0  0
    0.8753   -0.8639    0.3756 H   0  0  0  0  0  0  0  0  0  0  0  0
    0.6580   -0.1856   -1.6754 C   0  0  0  0  0  0  0  0  0  0  0  0
    0.9788   -1.1722   -2.0194 H   0  0  0  0  0  0  0  0  0  0  0  0
   -0.1680    0.1414   -2.3139 H   0  0  0  0  0  0  0  0  0  0  0  0
    1.8075    0.7957   -1.8886 C   0  0  0  0  0  0  0  0  0  0  0  0
    2.0446    1.1278   -3.0346 O   0  0  0  0  0  0  0  0  0  0  0  0
    2.6015    1.1348   -0.8469 O   0  0  0  0  0  0  0  0  0  0  0  0
    3.2868    1.7005   -1.2384 H   0  0  0  0  0  0  0  0  0  0  0  0
   -0.0810    1.0634    0.4558 C   0  0  0  0  0  0  0  0  0  0  0  0
   -1.0827    1.7130    0.1759 O   0  0  0  0  0  0  0  0  0  0  0  0
    0.7785    1.5285    1.4332 N   0  0  0  0  0  0  0  0  0  0  0  0
    1.6700    1.0463    1.5188 H   0  0  0  0  0  0  0  0  0  0  0  0
    0.6291    2.8325    2.0675 C   0  0  0  0  0  0  0  0  0  0  0  0
   -0.3592    2.9239    2.5303 H   0  0  0  0  0  0  0  0  0  0  0  0
    1.3856    2.9621    2.8473 H   0  0  0  0  0  0  0  0  0  0  0  0
    0.7484    3.6330    1.3300 H   0  0  0  0  0  0  0  0  0  0  0  0
  1  2  1  0  0  0  0
  2  3  1  0  0  0  0
  2  4  1  0  0  0  0
  2  5  1  0  0  0  0
  5  6  2  0  0  0  0
  5  7  1  0  0  0  0
  7  8  1  0  0  0  0
  7  9  1  0  0  0  0
  9 10  1  0  0  0  0
  9 11  1  0  0  0  0
  9 18  1  0  0  0  0
 11 12  1  0  0  0  0
 11 13  1  0  0  0  0
 11 14  1  0  0  0  0
 14 15  2  0  0  0  0
 14 16  1  0  0  0  0
 16 17  1  0  0  0  0
 18 19  2  0  0  0  0
 18 20  1  0  0  0  0
 20 21  1  0  0  0  0
 20 22  1  0  0  0  0
 22 23  1  0  0  0  0
 22 24  1  0  0  0  0
 22 25  1  0  0  0  0
M  END
$$$$

  -OEChem-03222214023D

 25 24  0     1  0  0  0  0  0999 V2000
   -2.7178   -3.9456    0.4281 H   0  0  0  0  0  0  0  0  0  0  0  0
   -2.7518   -2.8961    0.1230 C   0  0  0  0  0  0  0  0  0  0  0  0
   -3.3416   -2.3362    0.8528 H   0  0  0  0  0  0  0  0  0  0  0  0
   -3.2347   -2.8287   -0.8548 H   0  0  0  0  0  0  0  0  0  0  0  0
   -1.3474   -2.3283    0.0461 C   0  0  0  0  0  0  0  0  0  0  0  0
   -0.3837   -3.0418    0.2754 O   0  0  0  0  0  0  0  0  0  0  0  0
   -1.1596   -1.0037   -0.2889 N   0  0  0  0  0  0  0  0  0  0  0  0
   -1.9906   -0.4169   -0.3628 H   0  0  0  0  0  0  0  0  0  0  0  0
    0.1359   -0.3113   -0.2383 C   0  0  1  0  0  0  0  0  0  0  0  0
    0.8597   -0.8675    0.3681 H   0  0  0  0  0  0  0  0  0  0  0  0
    0.6626   -0.1984   -1.6814 C   0  0  0  0  0  0  0  0  0  0  0  0
    0.9978   -1.1824   -2.0183 H   0  0  0  0  0  0  0  0  0  0  0  0
   -0.1537    0.1233   -2.3353 H   0  0  0  0  0  0  0  0  0  0  0  0
    1.8088    0.7934   -1.8493 C   0  0  0  0  0  0  0  0  0  0  0  0
    1.9175    1.3606   -2.9199 O   0  0  0  0  0  0  0  0  0  0  0  0
    2.7093    0.9271   -0.8479 O   0  0  0  0  0  0  0  0  0  0  0  0
    3.3664    1.5523   -1.1942 H   0  0  0  0  0  0  0  0  0  0  0  0
   -0.0730    1.0656    0.4315 C   0  0  0  0  0  0  0  0  0  0  0  0
   -1.0718    1.7219    0.1589 O   0  0  0  0  0  0  0  0  0  0  0  0
    0.8011    1.5257    1.3978 N   0  0  0  0  0  0  0  0  0  0  0  0
    1.6784    1.0204    1.4982 H   0  0  0  0  0  0  0  0  0  0  0  0
    0.6672    2.8298    2.0351 C   0  0  0  0  0  0  0  0  0  0  0  0
   -0.3133    2.9253    2.5138 H   0  0  0  0  0  0  0  0  0  0  0  0
    1.4368    2.9563    2.8025 H   0  0  0  0  0  0  0  0  0  0  0  0
    0.7774    3.6297    1.2956 H   0  0  0  0  0  0  0  0  0  0  0  0
  1  2  1  0  0  0  0
  2  3  1  0  0  0  0
  2  4  1  0  0  0  0
  2  5  1  0  0  0  0
  5  6  2  0  0  0  0
  5  7  1  0  0  0  0
  7  8  1  0  0  0  0
  7  9  1  0  0  0  0
  9 10  1  0  0  0  0
  9 11  1  0  0  0  0
  9 18  1  0  0  0  0
 11 12  1  0  0  0  0
 11 13  1  0  0  0  0
 11 14  1  0  0  0  0
 14 15  2  0  0  0  0
 14 16  1  0  0  0  0
 16 17  1  0  0  0  0
 18 19  2  0  0  0  0
 18 20  1  0  0  0  0
 20 21  1  0  0  0  0
 20 22  1  0  0  0  0
 22 23  1  0  0  0  0
 22 24  1  0  0  0  0
 22 25  1  0  0  0  0
M  END
$$$$

  -OEChem-03222214023D

 25 24  0     1  0  0  0  0  0999 V2000
   -2.7216   -3.9487    0.4416 H   0  0  0  0  0  0  0  0  0  0  0  0
   -2.7581   -2.9004    0.1325 C   0  0  0  0  0  0  0  0  0  0  0  0
   -3.3398   -2.3374    0.8664 H   0  0  0  0  0  0  0  0  0  0  0  0
   -3.2513   -2.8364   -0.8403 H   0  0  0  0  0  0  0  0  0  0  0  0
   -1.3541   -2.3335    0.0394 C   0  0  0  0  0  0  0  0  0  0  0  0
   -0.3890   -3.0456    0.2674 O   0  0  0  0  0  0  0  0  0  0  0  0
   -1.1690   -1.0098   -0.3007 N   0  0  0  0  0  0  0  0  0  0  0  0
   -2.0015   -0.4253   -0.3766 H   0  0  0  0  0  0  0  0  0  0  0  0
    0.1248   -0.3141   -0.2558 C   0  0  1  0  0  0  0  0  0  0  0  0
    0.8443   -0.8696    0.3565 H   0  0  0  0  0  0  0  0  0  0  0  0
    0.6680   -0.2118   -1.6920 C   0  0  0  0  0  0  0  0  0  0  0  0
    1.0172   -1.1944   -2.0182 H   0  0  0  0  0  0  0  0  0  0  0  0
   -0.1385    0.1007   -2.3621 H   0  0  0  0  0  0  0  0  0  0  0  0
    1.8097    0.7892   -1.8256 C   0  0  0  0  0  0  0  0  0  0  0  0
    1.7965    1.5629   -2.7640 O   0  0  0  0  0  0  0  0  0  0  0  0
    2.8030    0.7547   -0.9079 O   0  0  0  0  0  0  0  0  0  0  0  0
    3.4287    1.4373   -1.1997 H   0  0  0  0  0  0  0  0  0  0  0  0
   -0.0667    1.0675    0.4066 C   0  0  0  0  0  0  0  0  0  0  0  0
   -1.0641    1.7294    0.1450 O   0  0  0  0  0  0  0  0  0  0  0  0
    0.8225    1.5205    1.3626 N   0  0  0  0  0  0  0  0  0  0  0  0
    1.6805    0.9879    1.4853 H   0  0  0  0  0  0  0  0  0  0  0  0
    0.7057    2.8237    2.0052 C   0  0  0  0  0  0  0  0  0  0  0  0
   -0.2621    2.9182    2.5091 H   0  0  0  0  0  0  0  0  0  0  0  0
    1.4954    2.9492    2.7522 H   0  0  0  0  0  0  0  0  0  0  0  0
    0.7969    3.6251    1.2646 H   0  0  0  0  0  0  0  0  0  0  0  0
  1  2  1  0  0  0  0
  2  3  1  0  0  0  0
  2  4  1  0  0  0  0
  2  5  1  0  0  0  0
  5  6  2  0  0  0  0
  5  7  1  0  0  0  0
  7  8  1  0  0  0  0
  7  9  1  0  0  0  0
  9 10  1  0  0  0  0
  9 11  1  0  0  0  0
  9 18  1  0  0  0  0
 11 12  1  0  0  0  0
 11 13  1  0  0  0  0
 11 14  1  0  0  0  0
 14 15  2  0  0  0  0
 14 16  1  0  0  0  0
 16 17  1  0  0  0  0
 18 19  2  0  0  0  0
 18 20  1  0  0  0  0
 20 21  1  0  0  0  0
 20 22  1  0  0  0  0
 22 23  1  0  0  0  0
 22 24  1  0  0  0  0
 22 25  1  0  0  0  0
M  END
$$$$

  -OEChem-03222214023D

 25 24  0     1  0  0  0  0  0999 V2000
   -2.7211   -3.9495    0.4497 H   0  0  0  0  0  0  0  0  0  0  0  0
   -2.7602   -2.9020    0.1380 C   0  0  0  0  0  0  0  0  0  0  0  0
   -3.3386   -2.3372    0.8731 H   0  0  0  0  0  0  0  0  0  0  0  0
   -3.2585   -2.8411   -0.8325 H   0  0  0  0  0  0  0  0  0  0  0  0
   -1.3572   -2.3342    0.0359 C   0  0  0  0  0  0  0  0  0  0  0  0
   -0.3904   -3.0460    0.2580 O   0  0  0  0  0  0  0  0  0  0  0  0
   -1.1747   -1.0110   -0.3082 N   0  0  0  0  0  0  0  0  0  0  0  0
   -2.0079   -0.4263   -0.3746 H   0  0  0  0  0  0  0  0  0  0  0  0
    0.1184   -0.3140   -0.2705 C   0  0  1  0  0  0  0  0  0  0  0  0
    0.8355   -0.8692    0.3445 H   0  0  0  0  0  0  0  0  0  0  0  0
    0.6691   -0.2223   -1.7035 C   0  0  0  0  0  0  0  0  0  0  0  0
    1.0247   -1.2051   -2.0227 H   0  0  0  0  0  0  0  0  0  0  0  0
   -0.1320    0.0842   -2.3826 H   0  0  0  0  0  0  0  0  0  0  0  0
    1.8076    0.7831   -1.8220 C   0  0  0  0  0  0  0  0  0  0  0  0
    1.6821    1.7266   -2.5790 O   0  0  0  0  0  0  0  0  0  0  0  0
    2.8983    0.5952   -1.0459 O   0  0  0  0  0  0  0  0  0  0  0  0
    3.4977    1.3210   -1.2831 H   0  0  0  0  0  0  0  0  0  0  0  0
   -0.0606    1.0705    0.3876 C   0  0  0  0  0  0  0  0  0  0  0  0
   -1.0623    1.7317    0.1418 O   0  0  0  0  0  0  0  0  0  0  0  0
    0.8404    1.5189    1.3349 N   0  0  0  0  0  0  0  0  0  0  0  0
    1.6816    0.9658    1.4794 H   0  0  0  0  0  0  0  0  0  0  0  0
    0.7312    2.8189    1.9850 C   0  0  0  0  0  0  0  0  0  0  0  0
   -0.2254    2.9064    2.5109 H   0  0  0  0  0  0  0  0  0  0  0  0
    1.5373    2.9462    2.7139 H   0  0  0  0  0  0  0  0  0  0  0  0
    0.8015    3.6230    1.2449 H   0  0  0  0  0  0  0  0  0  0  0  0
  1  2  1  0  0  0  0
  2  3  1  0  0  0  0
  2  4  1  0  0  0  0
  2  5  1  0  0  0  0
  5  6  2  0  0  0  0
  5  7  1  0  0  0  0
  7  8  1  0  0  0  0
  7  9  1  0  0  0  0
  9 10  1  0  0  0  0
  9 11  1  0  0  0  0
  9 18  1  0  0  0  0
 11 12  1  0  0  0  0
 11 13  1  0  0  0  0
 11 14  1  0  0  0  0
 14 15  2  0  0  0  0
 14 16  1  0  0  0  0
 16 17  1  0  0  0  0
 18 19  2  0  0  0  0
 18 20  1  0  0  0  0
 20 21  1  0  0  0  0
 20 22  1  0  0  0  0
 22 23  1  0  0  0  0
 22 24  1  0  0  0  0
 22 25  1  0  0  0  0
M  END
$$$$

  -OEChem-03222214023D

 25 24  0     1  0  0  0  0  0999 V2000
   -2.7207   -3.9441    0.4609 H   0  0  0  0  0  0  0  0  0  0  0  0
   -2.7592   -2.8987    0.1419 C   0  0  0  0  0  0  0  0  0  0  0  0
   -3.3371   -2.3282    0.8729 H   0  0  0  0  0  0  0  0  0  0  0  0
   -3.2578   -2.8442   -0.8288 H   0  0  0  0  0  0  0  0  0  0  0  0
   -1.3558   -2.3327    0.0357 C   0  0  0  0  0  0  0  0  0  0  0  0
   -0.3890   -3.0451    0.2563 O   0  0  0  0  0  0  0  0  0  0  0  0
   -1.1728   -1.0101   -0.3096 N   0  0  0  0  0  0  0  0  0  0  0  0
   -2.0053   -0.4244   -0.3760 H   0  0  0  0  0  0  0  0  0  0  0  0
    0.1211   -0.3143   -0.2782 C   0  0  1  0  0  0  0  0  0  0  0  0
    0.8402   -0.8698    0.3341 H   0  0  0  0  0  0  0  0  0  0  0  0
    0.6664   -0.2255   -1.7132 C   0  0  0  0  0  0  0  0  0  0  0  0
    1.0172   -1.2094   -2.0347 H   0  0  0  0  0  0  0  0  0  0  0  0
   -0.1355    0.0835   -2.3903 H   0  0  0  0  0  0  0  0  0  0  0  0
    1.8049    0.7785   -1.8350 C   0  0  0  0  0  0  0  0  0  0  0  0
    1.5917    1.8529   -2.3634 O   0  0  0  0  0  0  0  0  0  0  0  0
    2.9924    0.4469   -1.2842 O   0  0  0  0  0  0  0  0  0  0  0  0
    3.5729    1.2020   -1.4695 H   0  0  0  0  0  0  0  0  0  0  0  0
   -0.0560    1.0702    0.3808 C   0  0  0  0  0  0  0  0  0  0  0  0
   -1.0665    1.7241    0.1512 O   0  0  0  0  0  0  0  0  0  0  0  0
    0.8489    1.5191    1.3246 N   0  0  0  0  0  0  0  0  0  0  0  0
    1.6789    0.9554    1.4882 H   0  0  0  0  0  0  0  0  0  0  0  0
    0.7374    2.8169    1.9786 C   0  0  0  0  0  0  0  0  0  0  0  0
   -0.2189    2.9002    2.5057 H   0  0  0  0  0  0  0  0  0  0  0  0
    1.5441    2.9450    2.7067 H   0  0  0  0  0  0  0  0  0  0  0  0
    0.8046    3.6234    1.2407 H   0  0  0  0  0  0  0  0  0  0  0  0
  1  2  1  0  0  0  0
  2  3  1  0  0  0  0
  2  4  1  0  0  0  0
  2  5  1  0  0  0  0
  5  6  2  0  0  0  0
  5  7  1  0  0  0  0
  7  8  1  0  0  0  0
  7  9  1  0  0  0  0
  9 10  1  0  0  0  0
  9 11  1  0  0  0  0
  9 18  1  0  0  0  0
 11 12  1  0  0  0  0
 11 13  1  0  0  0  0
 11 14  1  0  0  0  0
 14 15  2  0  0  0  0
 14 16  1  0  0  0  0
 16 17  1  0  0  0  0
 18 19  2  0  0  0  0
 18 20  1  0  0  0  0
 20 21  1  0  0  0  0
 20 22  1  0  0  0  0
 22 23  1  0  0  0  0
 22 24  1  0  0  0  0
 22 25  1  0  0  0  0
M  END
$$$$

  -OEChem-03222214023D

 25 24  0     1  0  0  0  0  0999 V2000
   -2.7182   -3.9344    0.4608 H   0  0  0  0  0  0  0  0  0  0  0  0
   -2.7572   -2.8866    0.1502 C   0  0  0  0  0  0  0  0  0  0  0  0
   -3.3231   -2.3199    0.8936 H   0  0  0  0  0  0  0  0  0  0  0  0
   -3.2686   -2.8229   -0.8133 H   0  0  0  0  0  0  0  0  0  0  0  0
   -1.3531   -2.3250    0.0298 C   0  0  0  0  0  0  0  0  0  0  0  0
   -0.3866   -3.0405    0.2408 O   0  0  0  0  0  0  0  0  0  0  0  0
   -1.1685   -1.0026   -0.3149 N   0  0  0  0  0  0  0  0  0  0  0  0
   -1.9994   -0.4128   -0.3653 H   0  0  0  0  0  0  0  0  0  0  0  0
    0.1271   -0.3096   -0.2822 C   0  0  1  0  0  0  0  0  0  0  0  0
    0.8444   -0.8644    0.3328 H   0  0  0  0  0  0  0  0  0  0  0  0
    0.6735   -0.2286   -1.7185 C   0  0  0  0  0  0  0  0  0  0  0  0
    1.0154   -1.2172   -2.0355 H   0  0  0  0  0  0  0  0  0  0  0  0
   -0.1279    0.0813   -2.3952 H   0  0  0  0  0  0  0  0  0  0  0  0
    1.8171    0.7675   -1.8628 C   0  0  0  0  0  0  0  0  0  0  0  0
    1.5659    1.9240   -2.1426 O   0  0  0  0  0  0  0  0  0  0  0  0
    3.0657    0.3235   -1.6074 O   0  0  0  0  0  0  0  0  0  0  0  0
    3.6415    1.0901   -1.7554 H   0  0  0  0  0  0  0  0  0  0  0  0
   -0.0576    1.0737    0.3788 C   0  0  0  0  0  0  0  0  0  0  0  0
   -1.0807    1.7138    0.1646 O   0  0  0  0  0  0  0  0  0  0  0  0
    0.8428    1.5237    1.3266 N   0  0  0  0  0  0  0  0  0  0  0  0
    1.6774    0.9673    1.4881 H   0  0  0  0  0  0  0  0  0  0  0  0
    0.7157    2.8132    1.9942 C   0  0  0  0  0  0  0  0  0  0  0  0
   -0.2337    2.8727    2.5368 H   0  0  0  0  0  0  0  0  0  0  0  0
    1.5313    2.9505    2.7106 H   0  0  0  0  0  0  0  0  0  0  0  0
    0.7555    3.6276    1.2629 H   0  0  0  0  0  0  0  0  0  0  0  0
  1  2  1  0  0  0  0
  2  3  1  0  0  0  0
  2  4  1  0  0  0  0
  2  5  1  0  0  0  0
  5  6  2  0  0  0  0
  5  7  1  0  0  0  0
  7  8  1  0  0  0  0
  7  9  1  0  0  0  0
  9 10  1  0  0  0  0
  9 11  1  0  0  0  0
  9 18  1  0  0  0  0
 11 12  1  0  0  0  0
 11 13  1  0  0  0  0
 11 14  1  0  0  0  0
 14 15  2  0  0  0  0
 14 16  1  0  0  0  0
 16 17  1  0  0  0  0
 18 19  2  0  0  0  0
 18 20  1  0  0  0  0
 20 21  1  0  0  0  0
 20 22  1  0  0  0  0
 22 23  1  0  0  0  0
 22 24  1  0  0  0  0
 22 25  1  0  0  0  0
M  END
$$$$

  -OEChem-03222214023D

 25 24  0     1  0  0  0  0  0999 V2000
   -2.7150   -3.9255    0.4569 H   0  0  0  0  0  0  0  0  0  0  0  0
   -2.7523   -2.8767    0.1493 C   0  0  0  0  0  0  0  0  0  0  0  0
   -3.3148   -2.3105    0.8956 H   0  0  0  0  0  0  0  0  0  0  0  0
   -3.2662   -2.8091   -0.8125 H   0  0  0  0  0  0  0  0  0  0  0  0
   -1.3473   -2.3180    0.0260 C   0  0  0  0  0  0  0  0  0  0  0  0
   -0.3815   -3.0369    0.2292 O   0  0  0  0  0  0  0  0  0  0  0  0
   -1.1605   -0.9940   -0.3117 N   0  0  0  0  0  0  0  0  0  0  0  0
   -1.9893   -0.3998   -0.3484 H   0  0  0  0  0  0  0  0  0  0  0  0
    0.1368   -0.3042   -0.2744 C   0  0  1  0  0  0  0  0  0  0  0  0
    0.8533   -0.8598    0.3404 H   0  0  0  0  0  0  0  0  0  0  0  0
    0.6798   -0.2272   -1.7149 C   0  0  0  0  0  0  0  0  0  0  0  0
    1.0075   -1.2217   -2.0291 H   0  0  0  0  0  0  0  0  0  0  0  0
   -0.1253    0.0840   -2.3865 H   0  0  0  0  0  0  0  0  0  0  0  0
    1.8301    0.7573   -1.8980 C   0  0  0  0  0  0  0  0  0  0  0  0
    1.6028    1.9520   -1.9186 O   0  0  0  0  0  0  0  0  0  0  0  0
    3.0747    0.2428   -1.9875 O   0  0  0  0  0  0  0  0  0  0  0  0
    3.6584    1.0078   -2.1094 H   0  0  0  0  0  0  0  0  0  0  0  0
   -0.0628    1.0734    0.3965 C   0  0  0  0  0  0  0  0  0  0  0  0
   -1.0986    1.6980    0.1936 O   0  0  0  0  0  0  0  0  0  0  0  0
    0.8278    1.5252    1.3530 N   0  0  0  0  0  0  0  0  0  0  0  0
    1.6808    0.9922    1.4935 H   0  0  0  0  0  0  0  0  0  0  0  0
    0.6888    2.8147    2.0181 C   0  0  0  0  0  0  0  0  0  0  0  0
   -0.2695    2.8744    2.5450 H   0  0  0  0  0  0  0  0  0  0  0  0
    1.4922    2.9520    2.7482 H   0  0  0  0  0  0  0  0  0  0  0  0
    0.7406    3.6285    1.2869 H   0  0  0  0  0  0  0  0  0  0  0  0
  1  2  1  0  0  0  0
  2  3  1  0  0  0  0
  2  4  1  0  0  0  0
  2  5  1  0  0  0  0
  5  6  2  0  0  0  0
  5  7  1  0  0  0  0
  7  8  1  0  0  0  0
  7  9  1  0  0  0  0
  9 10  1  0  0  0  0
  9 11  1  0  0  0  0
  9 18  1  0  0  0  0
 11 12  1  0  0  0  0
 11 13  1  0  0  0  0
 11 14  1  0  0  0  0
 14 15  2  0  0  0  0
 14 16  1  0  0  0  0
 16 17  1  0  0  0  0
 18 19  2  0  0  0  0
 18 20  1  0  0  0  0
 20 21  1  0  0  0  0
 20 22  1  0  0  0  0
 22 23  1  0  0  0  0
 22 24  1  0  0  0  0
 22 25  1  0  0  0  0
M  END
$$$$

  -OEChem-03222214023D

 25 24  0     1  0  0  0  0  0999 V2000
   -2.7118   -3.9181    0.4443 H   0  0  0  0  0  0  0  0  0  0  0  0
   -2.7458   -2.8681    0.1404 C   0  0  0  0  0  0  0  0  0  0  0  0
   -3.3101   -2.3034    0.8865 H   0  0  0  0  0  0  0  0  0  0  0  0
   -3.2557   -2.7962   -0.8233 H   0  0  0  0  0  0  0  0  0  0  0  0
   -1.3393   -2.3116    0.0241 C   0  0  0  0  0  0  0  0  0  0  0  0
   -0.3752   -3.0350    0.2187 O   0  0  0  0  0  0  0  0  0  0  0  0
   -1.1493   -0.9856   -0.3038 N   0  0  0  0  0  0  0  0  0  0  0  0
   -1.9764   -0.3884   -0.3303 H   0  0  0  0  0  0  0  0  0  0  0  0
    0.1501   -0.2991   -0.2588 C   0  0  1  0  0  0  0  0  0  0  0  0
    0.8660   -0.8566    0.3549 H   0  0  0  0  0  0  0  0  0  0  0  0
    0.6869   -0.2241   -1.7049 C   0  0  0  0  0  0  0  0  0  0  0  0
    0.9994   -1.2248   -2.0157 H   0  0  0  0  0  0  0  0  0  0  0  0
   -0.1236    0.0884   -2.3686 H   0  0  0  0  0  0  0  0  0  0  0  0
    1.8439    0.7463   -1.9347 C   0  0  0  0  0  0  0  0  0  0  0  0
    1.7056    1.9328   -1.7062 O   0  0  0  0  0  0  0  0  0  0  0  0
    3.0024    0.2157   -2.3796 O   0  0  0  0  0  0  0  0  0  0  0  0
    3.6048    0.9686   -2.4833 H   0  0  0  0  0  0  0  0  0  0  0  0
   -0.0662    1.0715    0.4243 C   0  0  0  0  0  0  0  0  0  0  0  0
   -1.1084    1.6865    0.2203 O   0  0  0  0  0  0  0  0  0  0  0  0
    0.8113    1.5256    1.3923 N   0  0  0  0  0  0  0  0  0  0  0  0
    1.6880    1.0252    1.5013 H   0  0  0  0  0  0  0  0  0  0  0  0
    0.6599    2.8187    2.0480 C   0  0  0  0  0  0  0  0  0  0  0  0
   -0.3117    2.8847    2.5490 H   0  0  0  0  0  0  0  0  0  0  0  0
    1.4433    2.9566    2.7993 H   0  0  0  0  0  0  0  0  0  0  0  0
    0.7346    3.6288    1.3147 H   0  0  0  0  0  0  0  0  0  0  0  0
  1  2  1  0  0  0  0
  2  3  1  0  0  0  0
  2  4  1  0  0  0  0
  2  5  1  0  0  0  0
  5  6  2  0  0  0  0
  5  7  1  0  0  0  0
  7  8  1  0  0  0  0
  7  9  1  0  0  0  0
  9 10  1  0  0  0  0
  9 11  1  0  0  0  0
  9 18  1  0  0  0  0
 11 12  1  0  0  0  0
 11 13  1  0  0  0  0
 11 14  1  0  0  0  0
 14 15  2  0  0  0  0
 14 16  1  0  0  0  0
 16 17  1  0  0  0  0
 18 19  2  0  0  0  0
 18 20  1  0  0  0  0
 20 21  1  0  0  0  0
 20 22  1  0  0  0  0
 22 23  1  0  0  0  0
 22 24  1  0  0  0  0
 22 25  1  0  0  0  0
M  END
$$$$

  -OEChem-03222214023D

 25 24  0     1  0  0  0  0  0999 V2000
   -2.7074   -3.9143    0.4293 H   0  0  0  0  0  0  0  0  0  0  0  0
   -2.7396   -2.8633    0.1285 C   0  0  0  0  0  0  0  0  0  0  0  0
   -3.3086   -2.3011    0.8730 H   0  0  0  0  0  0  0  0  0  0  0  0
   -3.2435   -2.7882   -0.8382 H   0  0  0  0  0  0  0  0  0  0  0  0
   -1.3323   -2.3066    0.0230 C   0  0  0  0  0  0  0  0  0  0  0  0
   -0.3693   -3.0318    0.2170 O   0  0  0  0  0  0  0  0  0  0  0  0
   -1.1394   -0.9793   -0.2971 N   0  0  0  0  0  0  0  0  0  0  0  0
   -1.9653   -0.3801   -0.3224 H   0  0  0  0  0  0  0  0  0  0  0  0
    0.1614   -0.2958   -0.2432 C   0  0  1  0  0  0  0  0  0  0  0  0
    0.8776   -0.8540    0.3695 H   0  0  0  0  0  0  0  0  0  0  0  0
    0.6920   -0.2179   -1.6937 C   0  0  0  0  0  0  0  0  0  0  0  0
    0.9928   -1.2227   -2.0032 H   0  0  0  0  0  0  0  0  0  0  0  0
   -0.1244    0.0957   -2.3495 H   0  0  0  0  0  0  0  0  0  0  0  0
    1.8537    0.7403   -1.9621 C   0  0  0  0  0  0  0  0  0  0  0  0
    1.8541    1.8686   -1.5080 O   0  0  0  0  0  0  0  0  0  0  0  0
    2.8591    0.2593   -2.7240 O   0  0  0  0  0  0  0  0  0  0  0  0
    3.4897    0.9912   -2.8067 H   0  0  0  0  0  0  0  0  0  0  0  0
   -0.0707    1.0688    0.4487 C   0  0  0  0  0  0  0  0  0  0  0  0
   -1.1142    1.6798    0.2368 O   0  0  0  0  0  0  0  0  0  0  0  0
    0.7951    1.5220    1.4276 N   0  0  0  0  0  0  0  0  0  0  0  0
    1.6909    1.0500    1.5049 H   0  0  0  0  0  0  0  0  0  0  0  0
    0.6408    2.8209    2.0709 C   0  0  0  0  0  0  0  0  0  0  0  0
   -0.3406    2.8989    2.5506 H   0  0  0  0  0  0  0  0  0  0  0  0
    1.4092    2.9567    2.8381 H   0  0  0  0  0  0  0  0  0  0  0  0
    0.7383    3.6252    1.3340 H   0  0  0  0  0  0  0  0  0  0  0  0
  1  2  1  0  0  0  0
  2  3  1  0  0  0  0
  2  4  1  0  0  0  0
  2  5  1  0  0  0  0
  5  6  2  0  0  0  0
  5  7  1  0  0  0  0
  7  8  1  0  0  0  0
  7  9  1  0  0  0  0
  9 10  1  0  0  0  0
  9 11  1  0  0  0  0
  9 18  1  0  0  0  0
 11 12  1  0  0  0  0
 11 13  1  0  0  0  0
 11 14  1  0  0  0  0
 14 15  2  0  0  0  0
 14 16  1  0  0  0  0
 16 17  1  0  0  0  0
 18 19  2  0  0  0  0
 18 20  1  0  0  0  0
 20 21  1  0  0  0  0
 20 22  1  0  0  0  0
 22 23  1  0  0  0  0
 22 24  1  0  0  0  0
 22 25  1  0  0  0  0
M  END
$$$$

  -OEChem-03222214023D

 25 24  0     1  0  0  0  0  0999 V2000
   -2.7081   -3.9084    0.4228 H   0  0  0  0  0  0  0  0  0  0  0  0
   -2.7368   -2.8571    0.1231 C   0  0  0  0  0  0  0  0  0  0  0  0
   -3.3063   -2.2942    0.8664 H   0  0  0  0  0  0  0  0  0  0  0  0
   -3.2374   -2.7798   -0.8449 H   0  0  0  0  0  0  0  0  0  0  0  0
   -1.3282   -2.3039    0.0222 C   0  0  0  0  0  0  0  0  0  0  0  0
   -0.3677   -3.0331    0.2135 O   0  0  0  0  0  0  0  0  0  0  0  0
   -1.1315   -0.9762   -0.2937 N   0  0  0  0  0  0  0  0  0  0  0  0
   -1.9554   -0.3742   -0.3170 H   0  0  0  0  0  0  0  0  0  0  0  0
    0.1722   -0.2984   -0.2340 C   0  0  1  0  0  0  0  0  0  0  0  0
    0.8891   -0.8593    0.3754 H   0  0  0  0  0  0  0  0  0  0  0  0
    0.6949   -0.2120   -1.6880 C   0  0  0  0  0  0  0  0  0  0  0  0
    0.9887   -1.2169   -2.0031 H   0  0  0  0  0  0  0  0  0  0  0  0
   -0.1263    0.1069   -2.3353 H   0  0  0  0  0  0  0  0  0  0  0  0
    1.8602    0.7367   -1.9777 C   0  0  0  0  0  0  0  0  0  0  0  0
    2.0299    1.7523   -1.3301 O   0  0  0  0  0  0  0  0  0  0  0  0
    2.6695    0.3779   -2.9969 O   0  0  0  0  0  0  0  0  0  0  0  0
    3.3320    1.0832   -3.0585 H   0  0  0  0  0  0  0  0  0  0  0  0
   -0.0695    1.0629    0.4633 C   0  0  0  0  0  0  0  0  0  0  0  0
   -1.1080    1.6775    0.2363 O   0  0  0  0  0  0  0  0  0  0  0  0
    0.7862    1.5167    1.4504 N   0  0  0  0  0  0  0  0  0  0  0  0
    1.6960    1.0682    1.5027 H   0  0  0  0  0  0  0  0  0  0  0  0
    0.6263    2.8186    2.0862 C   0  0  0  0  0  0  0  0  0  0  0  0
   -0.3623    2.9026    2.5497 H   0  0  0  0  0  0  0  0  0  0  0  0
    1.3824    2.9542    2.8654 H   0  0  0  0  0  0  0  0  0  0  0  0
    0.7391    3.6195    1.3479 H   0  0  0  0  0  0  0  0  0  0  0  0
  1  2  1  0  0  0  0
  2  3  1  0  0  0  0
  2  4  1  0  0  0  0
  2  5  1  0  0  0  0
  5  6  2  0  0  0  0
  5  7  1  0  0  0  0
  7  8  1  0  0  0  0
  7  9  1  0  0  0  0
  9 10  1  0  0  0  0
  9 11  1  0  0  0  0
  9 18  1  0  0  0  0
 11 12  1  0  0  0  0
 11 13  1  0  0  0  0
 11 14  1  0  0  0  0
 14 15  2  0  0  0  0
 14 16  1  0  0  0  0
 16 17  1  0  0  0  0
 18 19  2  0  0  0  0
 18 20  1  0  0  0  0
 20 21  1  0  0  0  0
 20 22  1  0  0  0  0
 22 23  1  0  0  0  0
 22 24  1  0  0  0  0
 22 25  1  0  0  0  0
M  END
$$$$

  -OEChem-03222214023D

 25 24  0     1  0  0  0  0  0999 V2000
   -2.7142   -3.9040    0.4276 H   0  0  0  0  0  0  0  0  0  0  0  0
   -2.7393   -2.8522    0.1294 C   0  0  0  0  0  0  0  0  0  0  0  0
   -3.3018   -2.2874    0.8769 H   0  0  0  0  0  0  0  0  0  0  0  0
   -3.2455   -2.7709   -0.8354 H   0  0  0  0  0  0  0  0  0  0  0  0
   -1.3285   -2.3057    0.0205 C   0  0  0  0  0  0  0  0  0  0  0  0
   -0.3701   -3.0391    0.2063 O   0  0  0  0  0  0  0  0  0  0  0  0
   -1.1274   -0.9786   -0.2958 N   0  0  0  0  0  0  0  0  0  0  0  0
   -1.9492   -0.3735   -0.3142 H   0  0  0  0  0  0  0  0  0  0  0  0
    0.1787   -0.3049   -0.2346 C   0  0  1  0  0  0  0  0  0  0  0  0
    0.8980   -0.8669    0.3711 H   0  0  0  0  0  0  0  0  0  0  0  0
    0.6935   -0.2077   -1.6905 C   0  0  0  0  0  0  0  0  0  0  0  0
    0.9831   -1.2099   -2.0175 H   0  0  0  0  0  0  0  0  0  0  0  0
   -0.1312    0.1200   -2.3285 H   0  0  0  0  0  0  0  0  0  0  0  0
    1.8600    0.7383   -1.9818 C   0  0  0  0  0  0  0  0  0  0  0  0
    2.2047    1.5900   -1.1836 O   0  0  0  0  0  0  0  0  0  0  0  0
    2.4679    0.5669   -3.1745 O   0  0  0  0  0  0  0  0  0  0  0  0
    3.1632    1.2419   -3.2069 H   0  0  0  0  0  0  0  0  0  0  0  0
   -0.0657    1.0568    0.4626 C   0  0  0  0  0  0  0  0  0  0  0  0
   -1.0989    1.6758    0.2233 O   0  0  0  0  0  0  0  0  0  0  0  0
    0.7855    1.5122    1.4528 N   0  0  0  0  0  0  0  0  0  0  0  0
    1.7055    1.0814    1.4834 H   0  0  0  0  0  0  0  0  0  0  0  0
    0.6199    2.8130    2.0894 C   0  0  0  0  0  0  0  0  0  0  0  0
   -0.3715    2.8943    2.5474 H   0  0  0  0  0  0  0  0  0  0  0  0
    1.3711    2.9480    2.8734 H   0  0  0  0  0  0  0  0  0  0  0  0
    0.7358    3.6159    1.3537 H   0  0  0  0  0  0  0  0  0  0  0  0
  1  2  1  0  0  0  0
  2  3  1  0  0  0  0
  2  4  1  0  0  0  0
  2  5  1  0  0  0  0
  5  6  2  0  0  0  0
  5  7  1  0  0  0  0
  7  8  1  0  0  0  0
  7  9  1  0  0  0  0
  9 10  1  0  0  0  0
  9 11  1  0  0  0  0
  9 18  1  0  0  0  0
 11 12  1  0  0  0  0
 11 13  1  0  0  0  0
 11 14  1  0  0  0  0
 14 15  2  0  0  0  0
 14 16  1  0  0  0  0
 16 17  1  0  0  0  0
 18 19  2  0  0  0  0
 18 20  1  0  0  0  0
 20 21  1  0  0  0  0
 20 22  1  0  0  0  0
 22 23  1  0  0  0  0
 22 24  1  0  0  0  0
 22 25  1  0  0  0  0
M  END
$$$$

  -OEChem-03222214023D

 25 24  0     1  0  0  0  0  0999 V2000
   -2.7196   -3.9094    0.4392 H   0  0  0  0  0  0  0  0  0  0  0  0
   -2.7445   -2.8586    0.1369 C   0  0  0  0  0  0  0  0  0  0  0  0
   -3.3055   -2.2906    0.8829 H   0  0  0  0  0  0  0  0  0  0  0  0
   -3.2522   -2.7814   -0.8275 H   0  0  0  0  0  0  0  0  0  0  0  0
   -1.3334   -2.3131    0.0242 C   0  0  0  0  0  0  0  0  0  0  0  0
   -0.3756   -3.0472    0.2095 O   0  0  0  0  0  0  0  0  0  0  0  0
   -1.1320   -0.9867   -0.2953 N   0  0  0  0  0  0  0  0  0  0  0  0
   -1.9537   -0.3817   -0.3154 H   0  0  0  0  0  0  0  0  0  0  0  0
    0.1750   -0.3143   -0.2391 C   0  0  1  0  0  0  0  0  0  0  0  0
    0.8981   -0.8775    0.3612 H   0  0  0  0  0  0  0  0  0  0  0  0
    0.6827   -0.2036   -1.6954 C   0  0  0  0  0  0  0  0  0  0  0  0
    0.9727   -1.1999   -2.0383 H   0  0  0  0  0  0  0  0  0  0  0  0
   -0.1442    0.1337   -2.3262 H   0  0  0  0  0  0  0  0  0  0  0  0
    1.8481    0.7481   -1.9681 C   0  0  0  0  0  0  0  0  0  0  0  0
    2.3583    1.3926   -1.0690 O   0  0  0  0  0  0  0  0  0  0  0  0
    2.2654    0.8205   -3.2497 O   0  0  0  0  0  0  0  0  0  0  0  0
    2.9905    1.4643   -3.2482 H   0  0  0  0  0  0  0  0  0  0  0  0
   -0.0630    1.0498    0.4560 C   0  0  0  0  0  0  0  0  0  0  0  0
   -1.0885    1.6776    0.2073 O   0  0  0  0  0  0  0  0  0  0  0  0
    0.7913    1.5073    1.4421 N   0  0  0  0  0  0  0  0  0  0  0  0
    1.7134    1.0789    1.4619 H   0  0  0  0  0  0  0  0  0  0  0  0
    0.6328    2.8120    2.0724 C   0  0  0  0  0  0  0  0  0  0  0  0
   -0.3579    2.9006    2.5306 H   0  0  0  0  0  0  0  0  0  0  0  0
    1.3853    2.9463    2.8554 H   0  0  0  0  0  0  0  0  0  0  0  0
    0.7525    3.6109    1.3330 H   0  0  0  0  0  0  0  0  0  0  0  0
  1  2  1  0  0  0  0
  2  3  1  0  0  0  0
  2  4  1  0  0  0  0
  2  5  1  0  0  0  0
  5  6  2  0  0  0  0
  5  7  1  0  0  0  0
  7  8  1  0  0  0  0
  7  9  1  0  0  0  0
  9 10  1  0  0  0  0
  9 11  1  0  0  0  0
  9 18  1  0  0  0  0
 11 12  1  0  0  0  0
 11 13  1  0  0  0  0
 11 14  1  0  0  0  0
 14 15  2  0  0  0  0
 14 16  1  0  0  0  0
 16 17  1  0  0  0  0
 18 19  2  0  0  0  0
 18 20  1  0  0  0  0
 20 21  1  0  0  0  0
 20 22  1  0  0  0  0
 22 23  1  0  0  0  0
 22 24  1  0  0  0  0
 22 25  1  0  0  0  0
M  END
$$$$

  -OEChem-03222214023D

 25 24  0     1  0  0  0  0  0999 V2000
   -2.7211   -3.9209    0.4613 H   0  0  0  0  0  0  0  0  0  0  0  0
   -2.7496   -2.8732    0.1492 C   0  0  0  0  0  0  0  0  0  0  0  0
   -3.3124   -2.3007    0.8905 H   0  0  0  0  0  0  0  0  0  0  0  0
   -3.2581   -2.8063   -0.8155 H   0  0  0  0  0  0  0  0  0  0  0  0
   -1.3404   -2.3244    0.0299 C   0  0  0  0  0  0  0  0  0  0  0  0
   -0.3801   -3.0558    0.2131 O   0  0  0  0  0  0  0  0  0  0  0  0
   -1.1440   -0.9988   -0.2960 N   0  0  0  0  0  0  0  0  0  0  0  0
   -1.9678   -0.3972   -0.3199 H   0  0  0  0  0  0  0  0  0  0  0  0
    0.1606   -0.3219   -0.2492 C   0  0  1  0  0  0  0  0  0  0  0  0
    0.8875   -0.8841    0.3477 H   0  0  0  0  0  0  0  0  0  0  0  0
    0.6669   -0.2012   -1.7028 C   0  0  0  0  0  0  0  0  0  0  0  0
    0.9666   -1.1906   -2.0572 H   0  0  0  0  0  0  0  0  0  0  0  0
   -0.1596    0.1397   -2.3323 H   0  0  0  0  0  0  0  0  0  0  0  0
    1.8270    0.7648   -1.9383 C   0  0  0  0  0  0  0  0  0  0  0  0
    2.4831    1.1795   -0.9976 O   0  0  0  0  0  0  0  0  0  0  0  0
    2.0759    1.1108   -3.2191 O   0  0  0  0  0  0  0  0  0  0  0  0
    2.8258    1.7239   -3.1794 H   0  0  0  0  0  0  0  0  0  0  0  0
   -0.0630    1.0468    0.4392 C   0  0  0  0  0  0  0  0  0  0  0  0
   -1.0812    1.6842    0.1871 O   0  0  0  0  0  0  0  0  0  0  0  0
    0.8032    1.5049    1.4137 N   0  0  0  0  0  0  0  0  0  0  0  0
    1.7245    1.0723    1.4229 H   0  0  0  0  0  0  0  0  0  0  0  0
    0.6571    2.8122    2.0413 C   0  0  0  0  0  0  0  0  0  0  0  0
   -0.3309    2.9093    2.5039 H   0  0  0  0  0  0  0  0  0  0  0  0
    1.4140    2.9431    2.8206 H   0  0  0  0  0  0  0  0  0  0  0  0
    0.7792    3.6083    1.2995 H   0  0  0  0  0  0  0  0  0  0  0  0
  1  2  1  0  0  0  0
  2  3  1  0  0  0  0
  2  4  1  0  0  0  0
  2  5  1  0  0  0  0
  5  6  2  0  0  0  0
  5  7  1  0  0  0  0
  7  8  1  0  0  0  0
  7  9  1  0  0  0  0
  9 10  1  0  0  0  0
  9 11  1  0  0  0  0
  9 18  1  0  0  0  0
 11 12  1  0  0  0  0
 11 13  1  0  0  0  0
 11 14  1  0  0  0  0
 14 15  2  0  0  0  0
 14 16  1  0  0  0  0
 16 17  1  0  0  0  0
 18 19  2  0  0  0  0
 18 20  1  0  0  0  0
 20 21  1  0  0  0  0
 20 22  1  0  0  0  0
 22 23  1  0  0  0  0
 22 24  1  0  0  0  0
 22 25  1  0  0  0  0
M  END
$$$$

  -OEChem-03222214023D

 25 24  0     1  0  0  0  0  0999 V2000
   -2.7121   -3.9441    0.4744 H   0  0  0  0  0  0  0  0  0  0  0  0
   -2.7515   -2.8980    0.1583 C   0  0  0  0  0  0  0  0  0  0  0  0
   -3.3147   -2.3271    0.9005 H   0  0  0  0  0  0  0  0  0  0  0  0
   -3.2653   -2.8394   -0.8042 H   0  0  0  0  0  0  0  0  0  0  0  0
   -1.3476   -2.3380    0.0305 C   0  0  0  0  0  0  0  0  0  0  0  0
   -0.3813   -3.0614    0.2129 O   0  0  0  0  0  0  0  0  0  0  0  0
   -1.1636   -1.0117   -0.2997 N   0  0  0  0  0  0  0  0  0  0  0  0
   -1.9932   -0.4186   -0.3260 H   0  0  0  0  0  0  0  0  0  0  0  0
    0.1351   -0.3236   -0.2616 C   0  0  1  0  0  0  0  0  0  0  0  0
    0.8646   -0.8835    0.3346 H   0  0  0  0  0  0  0  0  0  0  0  0
    0.6494   -0.1975   -1.7098 C   0  0  0  0  0  0  0  0  0  0  0  0
    0.9691   -1.1791   -2.0679 H   0  0  0  0  0  0  0  0  0  0  0  0
   -0.1727    0.1386   -2.3479 H   0  0  0  0  0  0  0  0  0  0  0  0
    1.7989    0.7896   -1.8950 C   0  0  0  0  0  0  0  0  0  0  0  0
    2.5806    0.9763   -0.9768 O   0  0  0  0  0  0  0  0  0  0  0  0
    1.9023    1.4060   -3.0915 O   0  0  0  0  0  0  0  0  0  0  0  0
    2.6759    1.9856   -3.0177 H   0  0  0  0  0  0  0  0  0  0  0  0
   -0.0711    1.0488    0.4206 C   0  0  0  0  0  0  0  0  0  0  0  0
   -1.0811    1.6976    0.1684 O   0  0  0  0  0  0  0  0  0  0  0  0
    0.8118    1.5041    1.3809 N   0  0  0  0  0  0  0  0  0  0  0  0
    1.7198    1.0438    1.4032 H   0  0  0  0  0  0  0  0  0  0  0  0
    0.6935    2.8188    1.9988 C   0  0  0  0  0  0  0  0  0  0  0  0
   -0.2837    2.9308    2.4803 H   0  0  0  0  0  0  0  0  0  0  0  0
    1.4681    2.9484    2.7607 H   0  0  0  0  0  0  0  0  0  0  0  0
    0.8089    3.6068    1.2473 H   0  0  0  0  0  0  0  0  0  0  0  0
  1  2  1  0  0  0  0
  2  3  1  0  0  0  0
  2  4  1  0  0  0  0
  2  5  1  0  0  0  0
  5  6  2  0  0  0  0
  5  7  1  0  0  0  0
  7  8  1  0  0  0  0
  7  9  1  0  0  0  0
  9 10  1  0  0  0  0
  9 11  1  0  0  0  0
  9 18  1  0  0  0  0
 11 12  1  0  0  0  0
 11 13  1  0  0  0  0
 11 14  1  0  0  0  0
 14 15  2  0  0  0  0
 14 16  1  0  0  0  0
 16 17  1  0  0  0  0
 18 19  2  0  0  0  0
 18 20  1  0  0  0  0
 20 21  1  0  0  0  0
 20 22  1  0  0  0  0
 22 23  1  0  0  0  0
 22 24  1  0  0  0  0
 22 25  1  0  0  0  0
M  END
$$$$

  -OEChem-03222214023D

 25 24  0     1  0  0  0  0  0999 V2000
   -2.7036   -3.9669    0.4721 H   0  0  0  0  0  0  0  0  0  0  0  0
   -2.7512   -2.9209    0.1570 C   0  0  0  0  0  0  0  0  0  0  0  0
   -3.3227   -2.3562    0.8976 H   0  0  0  0  0  0  0  0  0  0  0  0
   -3.2623   -2.8662   -0.8072 H   0  0  0  0  0  0  0  0  0  0  0  0
   -1.3518   -2.3476    0.0352 C   0  0  0  0  0  0  0  0  0  0  0  0
   -0.3798   -3.0603    0.2282 O   0  0  0  0  0  0  0  0  0  0  0  0
   -1.1795   -1.0205   -0.2995 N   0  0  0  0  0  0  0  0  0  0  0  0
   -2.0155   -0.4377   -0.3400 H   0  0  0  0  0  0  0  0  0  0  0  0
    0.1119   -0.3184   -0.2707 C   0  0  1  0  0  0  0  0  0  0  0  0
    0.8431   -0.8741    0.3276 H   0  0  0  0  0  0  0  0  0  0  0  0
    0.6366   -0.1980   -1.7134 C   0  0  0  0  0  0  0  0  0  0  0  0
    0.9790   -1.1747   -2.0646 H   0  0  0  0  0  0  0  0  0  0  0  0
   -0.1798    0.1253   -2.3650 H   0  0  0  0  0  0  0  0  0  0  0  0
    1.7720    0.8097   -1.8572 C   0  0  0  0  0  0  0  0  0  0  0  0
    2.6708    0.7965   -1.0321 O   0  0  0  0  0  0  0  0  0  0  0  0
    1.7356    1.6628   -2.9030 O   0  0  0  0  0  0  0  0  0  0  0  0
    2.5287    2.2135   -2.8175 H   0  0  0  0  0  0  0  0  0  0  0  0
   -0.0768    1.0582    0.4038 C   0  0  0  0  0  0  0  0  0  0  0  0
   -1.0815    1.7159    0.1568 O   0  0  0  0  0  0  0  0  0  0  0  0
    0.8243    1.5111    1.3484 N   0  0  0  0  0  0  0  0  0  0  0  0
    1.7157    1.0209    1.3941 H   0  0  0  0  0  0  0  0  0  0  0  0
    0.7253    2.8265    1.9684 C   0  0  0  0  0  0  0  0  0  0  0  0
   -0.2420    2.9443    2.4684 H   0  0  0  0  0  0  0  0  0  0  0  0
    1.5151    2.9517    2.7155 H   0  0  0  0  0  0  0  0  0  0  0  0
    0.8309    3.6139    1.2147 H   0  0  0  0  0  0  0  0  0  0  0  0
  1  2  1  0  0  0  0
  2  3  1  0  0  0  0
  2  4  1  0  0  0  0
  2  5  1  0  0  0  0
  5  6  2  0  0  0  0
  5  7  1  0  0  0  0
  7  8  1  0  0  0  0
  7  9  1  0  0  0  0
  9 10  1  0  0  0  0
  9 11  1  0  0  0  0
  9 18  1  0  0  0  0
 11 12  1  0  0  0  0
 11 13  1  0  0  0  0
 11 14  1  0  0  0  0
 14 15  2  0  0  0  0
 14 16  1  0  0  0  0
 16 17  1  0  0  0  0
 18 19  2  0  0  0  0
 18 20  1  0  0  0  0
 20 21  1  0  0  0  0
 20 22  1  0  0  0  0
 22 23  1  0  0  0  0
 22 24  1  0  0  0  0
 22 25  1  0  0  0  0
M  END
$$$$

  -OEChem-03222214023D

 25 24  0     1  0  0  0  0  0999 V2000
   -2.6913   -3.9772    0.4744 H   0  0  0  0  0  0  0  0  0  0  0  0
   -2.7464   -2.9331    0.1533 C   0  0  0  0  0  0  0  0  0  0  0  0
   -3.3293   -2.3698    0.8860 H   0  0  0  0  0  0  0  0  0  0  0  0
   -3.2500   -2.8879   -0.8152 H   0  0  0  0  0  0  0  0  0  0  0  0
   -1.3517   -2.3478    0.0383 C   0  0  0  0  0  0  0  0  0  0  0  0
   -0.3749   -3.0522    0.2373 O   0  0  0  0  0  0  0  0  0  0  0  0
   -1.1894   -1.0204   -0.3003 N   0  0  0  0  0  0  0  0  0  0  0  0
   -2.0304   -0.4459   -0.3509 H   0  0  0  0  0  0  0  0  0  0  0  0
    0.0966   -0.3089   -0.2781 C   0  0  1  0  0  0  0  0  0  0  0  0
    0.8279   -0.8609    0.3236 H   0  0  0  0  0  0  0  0  0  0  0  0
    0.6299   -0.2010   -1.7167 C   0  0  0  0  0  0  0  0  0  0  0  0
    0.9884   -1.1765   -2.0550 H   0  0  0  0  0  0  0  0  0  0  0  0
   -0.1802    0.1091   -2.3824 H   0  0  0  0  0  0  0  0  0  0  0  0
    1.7542    0.8191   -1.8361 C   0  0  0  0  0  0  0  0  0  0  0  0
    2.7612    0.6423   -1.1723 O   0  0  0  0  0  0  0  0  0  0  0  0
    1.5878    1.8648   -2.6733 O   0  0  0  0  0  0  0  0  0  0  0  0
    2.4004    2.3883   -2.6024 H   0  0  0  0  0  0  0  0  0  0  0  0
   -0.0805    1.0710    0.3903 C   0  0  0  0  0  0  0  0  0  0  0  0
   -1.0826    1.7340    0.1499 O   0  0  0  0  0  0  0  0  0  0  0  0
    0.8334    1.5212    1.3239 N   0  0  0  0  0  0  0  0  0  0  0  0
    1.7022    0.9976    1.4084 H   0  0  0  0  0  0  0  0  0  0  0  0
    0.7432    2.8307    1.9575 C   0  0  0  0  0  0  0  0  0  0  0  0
   -0.2177    2.9448    2.4703 H   0  0  0  0  0  0  0  0  0  0  0  0
    1.5421    2.9486    2.6960 H   0  0  0  0  0  0  0  0  0  0  0  0
    0.8403    3.6246    1.2097 H   0  0  0  0  0  0  0  0  0  0  0  0
  1  2  1  0  0  0  0
  2  3  1  0  0  0  0
  2  4  1  0  0  0  0
  2  5  1  0  0  0  0
  5  6  2  0  0  0  0
  5  7  1  0  0  0  0
  7  8  1  0  0  0  0
  7  9  1  0  0  0  0
  9 10  1  0  0  0  0
  9 11  1  0  0  0  0
  9 18  1  0  0  0  0
 11 12  1  0  0  0  0
 11 13  1  0  0  0  0
 11 14  1  0  0  0  0
 14 15  2  0  0  0  0
 14 16  1  0  0  0  0
 16 17  1  0  0  0  0
 18 19  2  0  0  0  0
 18 20  1  0  0  0  0
 20 21  1  0  0  0  0
 20 22  1  0  0  0  0
 22 23  1  0  0  0  0
 22 24  1  0  0  0  0
 22 25  1  0  0  0  0
M  END
$$$$

  -OEChem-03222214023D

 25 24  0     1  0  0  0  0  0999 V2000
   -2.6862   -3.9737    0.4713 H   0  0  0  0  0  0  0  0  0  0  0  0
   -2.7425   -2.9290    0.1527 C   0  0  0  0  0  0  0  0  0  0  0  0
   -3.3259   -2.3683    0.8869 H   0  0  0  0  0  0  0  0  0  0  0  0
   -3.2461   -2.8825   -0.8158 H   0  0  0  0  0  0  0  0  0  0  0  0
   -1.3483   -2.3416    0.0401 C   0  0  0  0  0  0  0  0  0  0  0  0
   -0.3711   -3.0418    0.2514 O   0  0  0  0  0  0  0  0  0  0  0  0
   -1.1866   -1.0149   -0.3016 N   0  0  0  0  0  0  0  0  0  0  0  0
   -2.0280   -0.4416   -0.3596 H   0  0  0  0  0  0  0  0  0  0  0  0
    0.0989   -0.3024   -0.2825 C   0  0  1  0  0  0  0  0  0  0  0  0
    0.8313   -0.8520    0.3199 H   0  0  0  0  0  0  0  0  0  0  0  0
    0.6315   -0.2024   -1.7215 C   0  0  0  0  0  0  0  0  0  0  0  0
    0.9906   -1.1800   -2.0540 H   0  0  0  0  0  0  0  0  0  0  0  0
   -0.1770    0.1041   -2.3906 H   0  0  0  0  0  0  0  0  0  0  0  0
    1.7541    0.8190   -1.8410 C   0  0  0  0  0  0  0  0  0  0  0  0
    2.8501    0.5159   -1.4054 O   0  0  0  0  0  0  0  0  0  0  0  0
    1.4873    2.0063   -2.4249 O   0  0  0  0  0  0  0  0  0  0  0  0
    2.3197    2.5023   -2.4009 H   0  0  0  0  0  0  0  0  0  0  0  0
   -0.0784    1.0787    0.3828 C   0  0  0  0  0  0  0  0  0  0  0  0
   -1.0836    1.7389    0.1486 O   0  0  0  0  0  0  0  0  0  0  0  0
    0.8373    1.5303    1.3145 N   0  0  0  0  0  0  0  0  0  0  0  0
    1.6827    0.9797    1.4463 H   0  0  0  0  0  0  0  0  0  0  0  0
    0.7346    2.8285    1.9695 C   0  0  0  0  0  0  0  0  0  0  0  0
   -0.2205    2.9181    2.4979 H   0  0  0  0  0  0  0  0  0  0  0  0
    1.5428    2.9495    2.6972 H   0  0  0  0  0  0  0  0  0  0  0  0
    0.8069    3.6351    1.2324 H   0  0  0  0  0  0  0  0  0  0  0  0
  1  2  1  0  0  0  0
  2  3  1  0  0  0  0
  2  4  1  0  0  0  0
  2  5  1  0  0  0  0
  5  6  2  0  0  0  0
  5  7  1  0  0  0  0
  7  8  1  0  0  0  0
  7  9  1  0  0  0  0
  9 10  1  0  0  0  0
  9 11  1  0  0  0  0
  9 18  1  0  0  0  0
 11 12  1  0  0  0  0
 11 13  1  0  0  0  0
 11 14  1  0  0  0  0
 14 15  2  0  0  0  0
 14 16  1  0  0  0  0
 16 17  1  0  0  0  0
 18 19  2  0  0  0  0
 18 20  1  0  0  0  0
 20 21  1  0  0  0  0
 20 22  1  0  0  0  0
 22 23  1  0  0  0  0
 22 24  1  0  0  0  0
 22 25  1  0  0  0  0
M  END
$$$$

  -OEChem-03222214023D

 25 24  0     1  0  0  0  0  0999 V2000
   -2.6881   -3.9604    0.4497 H   0  0  0  0  0  0  0  0  0  0  0  0
   -2.7398   -2.9084    0.1553 C   0  0  0  0  0  0  0  0  0  0  0  0
   -3.3118   -2.3601    0.9077 H   0  0  0  0  0  0  0  0  0  0  0  0
   -3.2526   -2.8364   -0.8068 H   0  0  0  0  0  0  0  0  0  0  0  0
   -1.3430   -2.3277    0.0418 C   0  0  0  0  0  0  0  0  0  0  0  0
   -0.3683   -3.0298    0.2584 O   0  0  0  0  0  0  0  0  0  0  0  0
   -1.1761   -1.0027   -0.3034 N   0  0  0  0  0  0  0  0  0  0  0  0
   -2.0155   -0.4264   -0.3626 H   0  0  0  0  0  0  0  0  0  0  0  0
    0.1109   -0.2931   -0.2835 C   0  0  1  0  0  0  0  0  0  0  0  0
    0.8401   -0.8416    0.3236 H   0  0  0  0  0  0  0  0  0  0  0  0
    0.6447   -0.2074   -1.7236 C   0  0  0  0  0  0  0  0  0  0  0  0
    0.9958   -1.1916   -2.0457 H   0  0  0  0  0  0  0  0  0  0  0  0
   -0.1631    0.0962   -2.3948 H   0  0  0  0  0  0  0  0  0  0  0  0
    1.7717    0.8067   -1.8644 C   0  0  0  0  0  0  0  0  0  0  0  0
    2.9129    0.4195   -1.6946 O   0  0  0  0  0  0  0  0  0  0  0  0
    1.4602    2.0773   -2.1954 O   0  0  0  0  0  0  0  0  0  0  0  0
    2.3057    2.5475   -2.2534 H   0  0  0  0  0  0  0  0  0  0  0  0
   -0.0721    1.0893    0.3785 C   0  0  0  0  0  0  0  0  0  0  0  0
   -1.0898    1.7357    0.1587 O   0  0  0  0  0  0  0  0  0  0  0  0
    0.8386    1.5452    1.3135 N   0  0  0  0  0  0  0  0  0  0  0  0
    1.6699    0.9832    1.4783 H   0  0  0  0  0  0  0  0  0  0  0  0
    0.6986    2.8177    2.0106 C   0  0  0  0  0  0  0  0  0  0  0  0
   -0.2339    2.8406    2.5846 H   0  0  0  0  0  0  0  0  0  0  0  0
    1.5330    2.9634    2.7033 H   0  0  0  0  0  0  0  0  0  0  0  0
    0.6929    3.6472    1.2957 H   0  0  0  0  0  0  0  0  0  0  0  0
  1  2  1  0  0  0  0
  2  3  1  0  0  0  0
  2  4  1  0  0  0  0
  2  5  1  0  0  0  0
  5  6  2  0  0  0  0
  5  7  1  0  0  0  0
  7  8  1  0  0  0  0
  7  9  1  0  0  0  0
  9 10  1  0  0  0  0
  9 11  1  0  0  0  0
  9 18  1  0  0  0  0
 11 12  1  0  0  0  0
 11 13  1  0  0  0  0
 11 14  1  0  0  0  0
 14 15  2  0  0  0  0
 14 16  1  0  0  0  0
 16 17  1  0  0  0  0
 18 19  2  0  0  0  0
 18 20  1  0  0  0  0
 20 21  1  0  0  0  0
 20 22  1  0  0  0  0
 22 23  1  0  0  0  0
 22 24  1  0  0  0  0
 22 25  1  0  0  0  0
M  END
$$$$

  -OEChem-03222214023D

 25 24  0     1  0  0  0  0  0999 V2000
   -2.6869   -3.9457    0.4576 H   0  0  0  0  0  0  0  0  0  0  0  0
   -2.7359   -2.8962    0.1536 C   0  0  0  0  0  0  0  0  0  0  0  0
   -3.3106   -2.3405    0.8986 H   0  0  0  0  0  0  0  0  0  0  0  0
   -3.2445   -2.8320   -0.8113 H   0  0  0  0  0  0  0  0  0  0  0  0
   -1.3376   -2.3186    0.0406 C   0  0  0  0  0  0  0  0  0  0  0  0
   -0.3647   -3.0232    0.2575 O   0  0  0  0  0  0  0  0  0  0  0  0
   -1.1668   -0.9927   -0.2990 N   0  0  0  0  0  0  0  0  0  0  0  0
   -2.0041   -0.4127   -0.3538 H   0  0  0  0  0  0  0  0  0  0  0  0
    0.1226   -0.2875   -0.2740 C   0  0  1  0  0  0  0  0  0  0  0  0
    0.8501   -0.8377    0.3328 H   0  0  0  0  0  0  0  0  0  0  0  0
    0.6546   -0.2033   -1.7173 C   0  0  0  0  0  0  0  0  0  0  0  0
    0.9908   -1.1931   -2.0389 H   0  0  0  0  0  0  0  0  0  0  0  0
   -0.1560    0.1050   -2.3828 H   0  0  0  0  0  0  0  0  0  0  0  0
    1.7893    0.8002   -1.8905 C   0  0  0  0  0  0  0  0  0  0  0  0
    2.9189    0.3645   -2.0122 O   0  0  0  0  0  0  0  0  0  0  0  0
    1.4924    2.1144   -1.9664 O   0  0  0  0  0  0  0  0  0  0  0  0
    2.3368    2.5635   -2.1237 H   0  0  0  0  0  0  0  0  0  0  0  0
   -0.0727    1.0897    0.3960 C   0  0  0  0  0  0  0  0  0  0  0  0
   -1.0999    1.7248    0.1850 O   0  0  0  0  0  0  0  0  0  0  0  0
    0.8296    1.5451    1.3397 N   0  0  0  0  0  0  0  0  0  0  0  0
    1.6586    0.9833    1.5142 H   0  0  0  0  0  0  0  0  0  0  0  0
    0.6710    2.8080    2.0501 C   0  0  0  0  0  0  0  0  0  0  0  0
   -0.2771    2.8238    2.5980 H   0  0  0  0  0  0  0  0  0  0  0  0
    1.4857    2.9435    2.7679 H   0  0  0  0  0  0  0  0  0  0  0  0
    0.6856    3.6468    1.3463 H   0  0  0  0  0  0  0  0  0  0  0  0
  1  2  1  0  0  0  0
  2  3  1  0  0  0  0
  2  4  1  0  0  0  0
  2  5  1  0  0  0  0
  5  6  2  0  0  0  0
  5  7  1  0  0  0  0
  7  8  1  0  0  0  0
  7  9  1  0  0  0  0
  9 10  1  0  0  0  0
  9 11  1  0  0  0  0
  9 18  1  0  0  0  0
 11 12  1  0  0  0  0
 11 13  1  0  0  0  0
 11 14  1  0  0  0  0
 14 15  2  0  0  0  0
 14 16  1  0  0  0  0
 16 17  1  0  0  0  0
 18 19  2  0  0  0  0
 18 20  1  0  0  0  0
 20 21  1  0  0  0  0
 20 22  1  0  0  0  0
 22 23  1  0  0  0  0
 22 24  1  0  0  0  0
 22 25  1  0  0  0  0
M  END
$$$$

  -OEChem-03222214023D

 25 24  0     1  0  0  0  0  0999 V2000
   -2.6871   -3.9436    0.4264 H   0  0  0  0  0  0  0  0  0  0  0  0
   -2.7339   -2.8900    0.1372 C   0  0  0  0  0  0  0  0  0  0  0  0
   -3.3093   -2.3441    0.8887 H   0  0  0  0  0  0  0  0  0  0  0  0
   -3.2406   -2.8112   -0.8276 H   0  0  0  0  0  0  0  0  0  0  0  0
   -1.3345   -2.3133    0.0355 C   0  0  0  0  0  0  0  0  0  0  0  0
   -0.3630   -3.0218    0.2467 O   0  0  0  0  0  0  0  0  0  0  0  0
   -1.1594   -0.9851   -0.2924 N   0  0  0  0  0  0  0  0  0  0  0  0
   -1.9947   -0.4011   -0.3387 H   0  0  0  0  0  0  0  0  0  0  0  0
    0.1324   -0.2838   -0.2543 C   0  0  1  0  0  0  0  0  0  0  0  0
    0.8562   -0.8373    0.3541 H   0  0  0  0  0  0  0  0  0  0  0  0
    0.6651   -0.2033   -1.6999 C   0  0  0  0  0  0  0  0  0  0  0  0
    0.9853   -1.2004   -2.0160 H   0  0  0  0  0  0  0  0  0  0  0  0
   -0.1494    0.1079   -2.3591 H   0  0  0  0  0  0  0  0  0  0  0  0
    1.8084    0.7862   -1.9146 C   0  0  0  0  0  0  0  0  0  0  0  0
    2.8633    0.3389   -2.3240 O   0  0  0  0  0  0  0  0  0  0  0  0
    1.5916    2.1059   -1.7358 O   0  0  0  0  0  0  0  0  0  0  0  0
    2.4185    2.5410   -1.9938 H   0  0  0  0  0  0  0  0  0  0  0  0
   -0.0773    1.0861    0.4278 C   0  0  0  0  0  0  0  0  0  0  0  0
   -1.1075    1.7161    0.2136 O   0  0  0  0  0  0  0  0  0  0  0  0
    0.8114    1.5401    1.3855 N   0  0  0  0  0  0  0  0  0  0  0  0
    1.6491    0.9906    1.5539 H   0  0  0  0  0  0  0  0  0  0  0  0
    0.6486    2.8091    2.0839 C   0  0  0  0  0  0  0  0  0  0  0  0
   -0.2969    2.8248    2.6361 H   0  0  0  0  0  0  0  0  0  0  0  0
    1.4660    2.9571    2.7959 H   0  0  0  0  0  0  0  0  0  0  0  0
    0.6547    3.6406    1.3713 H   0  0  0  0  0  0  0  0  0  0  0  0
  1  2  1  0  0  0  0
  2  3  1  0  0  0  0
  2  4  1  0  0  0  0
  2  5  1  0  0  0  0
  5  6  2  0  0  0  0
  5  7  1  0  0  0  0
  7  8  1  0  0  0  0
  7  9  1  0  0  0  0
  9 10  1  0  0  0  0
  9 11  1  0  0  0  0
  9 18  1  0  0  0  0
 11 12  1  0  0  0  0
 11 13  1  0  0  0  0
 11 14  1  0  0  0  0
 14 15  2  0  0  0  0
 14 16  1  0  0  0  0
 16 17  1  0  0  0  0
 18 19  2  0  0  0  0
 18 20  1  0  0  0  0
 20 21  1  0  0  0  0
 20 22  1  0  0  0  0
 22 23  1  0  0  0  0
 22 24  1  0  0  0  0
 22 25  1  0  0  0  0
M  END
$$$$

  -OEChem-03222214023D

 25 24  0     1  0  0  0  0  0999 V2000
   -2.6873   -3.9370    0.4124 H   0  0  0  0  0  0  0  0  0  0  0  0
   -2.7308   -2.8830    0.1246 C   0  0  0  0  0  0  0  0  0  0  0  0
   -3.3094   -2.3370    0.8736 H   0  0  0  0  0  0  0  0  0  0  0  0
   -3.2320   -2.8024   -0.8429 H   0  0  0  0  0  0  0  0  0  0  0  0
   -1.3297   -2.3091    0.0315 C   0  0  0  0  0  0  0  0  0  0  0  0
   -0.3607   -3.0207    0.2440 O   0  0  0  0  0  0  0  0  0  0  0  0
   -1.1494   -0.9792   -0.2866 N   0  0  0  0  0  0  0  0  0  0  0  0
   -1.9823   -0.3915   -0.3312 H   0  0  0  0  0  0  0  0  0  0  0  0
    0.1448   -0.2830   -0.2356 C   0  0  1  0  0  0  0  0  0  0  0  0
    0.8665   -0.8390    0.3724 H   0  0  0  0  0  0  0  0  0  0  0  0
    0.6729   -0.2026   -1.6859 C   0  0  0  0  0  0  0  0  0  0  0  0
    0.9779   -1.2054   -2.0001 H   0  0  0  0  0  0  0  0  0  0  0  0
   -0.1476    0.1116   -2.3361 H   0  0  0  0  0  0  0  0  0  0  0  0
    1.8237    0.7708   -1.9468 C   0  0  0  0  0  0  0  0  0  0  0  0
    2.7439    0.3575   -2.6273 O   0  0  0  0  0  0  0  0  0  0  0  0
    1.7590    2.0438   -1.5050 O   0  0  0  0  0  0  0  0  0  0  0  0
    2.5529    2.4769   -1.8546 H   0  0  0  0  0  0  0  0  0  0  0  0
   -0.0834    1.0794    0.4573 C   0  0  0  0  0  0  0  0  0  0  0  0
   -1.1134    1.7066    0.2314 O   0  0  0  0  0  0  0  0  0  0  0  0
    0.7895    1.5320    1.4302 N   0  0  0  0  0  0  0  0  0  0  0  0
    1.6449    1.0047    1.5781 H   0  0  0  0  0  0  0  0  0  0  0  0
    0.6237    2.8081    2.1149 C   0  0  0  0  0  0  0  0  0  0  0  0
   -0.3411    2.8440    2.6318 H   0  0  0  0  0  0  0  0  0  0  0  0
    1.4167    2.9450    2.8563 H   0  0  0  0  0  0  0  0  0  0  0  0
    0.6710    3.6354    1.3989 H   0  0  0  0  0  0  0  0  0  0  0  0
  1  2  1  0  0  0  0
  2  3  1  0  0  0  0
  2  4  1  0  0  0  0
  2  5  1  0  0  0  0
  5  6  2  0  0  0  0
  5  7  1  0  0  0  0
  7  8  1  0  0  0  0
  7  9  1  0  0  0  0
  9 10  1  0  0  0  0
  9 11  1  0  0  0  0
  9 18  1  0  0  0  0
 11 12  1  0  0  0  0
 11 13  1  0  0  0  0
 11 14  1  0  0  0  0
 14 15  2  0  0  0  0
 14 16  1  0  0  0  0
 16 17  1  0  0  0  0
 18 19  2  0  0  0  0
 18 20  1  0  0  0  0
 20 21  1  0  0  0  0
 20 22  1  0  0  0  0
 22 23  1  0  0  0  0
 22 24  1  0  0  0  0
 22 25  1  0  0  0  0
M  END
$$$$

  -OEChem-03222214023D

 25 24  0     1  0  0  0  0  0999 V2000
   -2.6915   -3.9327    0.3985 H   0  0  0  0  0  0  0  0  0  0  0  0
   -2.7282   -2.8780    0.1118 C   0  0  0  0  0  0  0  0  0  0  0  0
   -3.3132   -2.3313    0.8553 H   0  0  0  0  0  0  0  0  0  0  0  0
   -3.2181   -2.7938   -0.8611 H   0  0  0  0  0  0  0  0  0  0  0  0
   -1.3243   -2.3084    0.0348 C   0  0  0  0  0  0  0  0  0  0  0  0
   -0.3589   -3.0244    0.2492 O   0  0  0  0  0  0  0  0  0  0  0  0
   -1.1375   -0.9781   -0.2777 N   0  0  0  0  0  0  0  0  0  0  0  0
   -1.9677   -0.3866   -0.3246 H   0  0  0  0  0  0  0  0  0  0  0  0
    0.1597   -0.2878   -0.2187 C   0  0  1  0  0  0  0  0  0  0  0  0
    0.8854   -0.8451    0.3835 H   0  0  0  0  0  0  0  0  0  0  0  0
    0.6690   -0.1968   -1.6770 C   0  0  0  0  0  0  0  0  0  0  0  0
    0.9622   -1.2006   -1.9988 H   0  0  0  0  0  0  0  0  0  0  0  0
   -0.1623    0.1241   -2.3104 H   0  0  0  0  0  0  0  0  0  0  0  0
    1.8227    0.7634   -1.9775 C   0  0  0  0  0  0  0  0  0  0  0  0
    2.5567    0.4448   -2.8943 O   0  0  0  0  0  0  0  0  0  0  0  0
    2.0001    1.8952   -1.2655 O   0  0  0  0  0  0  0  0  0  0  0  0
    2.7580    2.3367   -1.6796 H   0  0  0  0  0  0  0  0  0  0  0  0
   -0.0874    1.0693    0.4811 C   0  0  0  0  0  0  0  0  0  0  0  0
   -1.1111    1.6986    0.2315 O   0  0  0  0  0  0  0  0  0  0  0  0
    0.7682    1.5264    1.4669 N   0  0  0  0  0  0  0  0  0  0  0  0
    1.6447    1.0282    1.5894 H   0  0  0  0  0  0  0  0  0  0  0  0
    0.5980    2.8132    2.1300 C   0  0  0  0  0  0  0  0  0  0  0  0
   -0.3841    2.8714    2.6111 H   0  0  0  0  0  0  0  0  0  0  0  0
    1.3650    2.9464    2.8990 H   0  0  0  0  0  0  0  0  0  0  0  0
    0.6852    3.6303    1.4061 H   0  0  0  0  0  0  0  0  0  0  0  0
  1  2  1  0  0  0  0
  2  3  1  0  0  0  0
  2  4  1  0  0  0  0
  2  5  1  0  0  0  0
  5  6  2  0  0  0  0
  5  7  1  0  0  0  0
  7  8  1  0  0  0  0
  7  9  1  0  0  0  0
  9 10  1  0  0  0  0
  9 11  1  0  0  0  0
  9 18  1  0  0  0  0
 11 12  1  0  0  0  0
 11 13  1  0  0  0  0
 11 14  1  0  0  0  0
 14 15  2  0  0  0  0
 14 16  1  0  0  0  0
 16 17  1  0  0  0  0
 18 19  2  0  0  0  0
 18 20  1  0  0  0  0
 20 21  1  0  0  0  0
 20 22  1  0  0  0  0
 22 23  1  0  0  0  0
 22 24  1  0  0  0  0
 22 25  1  0  0  0  0
M  END
$$$$

  -OEChem-03222214023D

 25 24  0     1  0  0  0  0  0999 V2000
   -2.6963   -3.9294    0.4004 H   0  0  0  0  0  0  0  0  0  0  0  0
   -2.7296   -2.8748    0.1128 C   0  0  0  0  0  0  0  0  0  0  0  0
   -3.3122   -2.3254    0.8562 H   0  0  0  0  0  0  0  0  0  0  0  0
   -3.2198   -2.7899   -0.8600 H   0  0  0  0  0  0  0  0  0  0  0  0
   -1.3240   -2.3095    0.0345 C   0  0  0  0  0  0  0  0  0  0  0  0
   -0.3608   -3.0283    0.2491 O   0  0  0  0  0  0  0  0  0  0  0  0
   -1.1332   -0.9800   -0.2785 N   0  0  0  0  0  0  0  0  0  0  0  0
   -1.9617   -0.3863   -0.3268 H   0  0  0  0  0  0  0  0  0  0  0  0
    0.1665   -0.2946   -0.2155 C   0  0  1  0  0  0  0  0  0  0  0  0
    0.8953   -0.8533    0.3815 H   0  0  0  0  0  0  0  0  0  0  0  0
    0.6626   -0.1867   -1.6765 C   0  0  0  0  0  0  0  0  0  0  0  0
    0.9539   -1.1862   -2.0120 H   0  0  0  0  0  0  0  0  0  0  0  0
   -0.1736    0.1428   -2.2993 H   0  0  0  0  0  0  0  0  0  0  0  0
    1.8167    0.7714   -1.9765 C   0  0  0  0  0  0  0  0  0  0  0  0
    2.3591    0.6255   -3.0559 O   0  0  0  0  0  0  0  0  0  0  0  0
    2.2595    1.6520   -1.0543 O   0  0  0  0  0  0  0  0  0  0  0  0
    2.9899    2.1194   -1.4898 H   0  0  0  0  0  0  0  0  0  0  0  0
   -0.0874    1.0625    0.4841 C   0  0  0  0  0  0  0  0  0  0  0  0
   -1.1029    1.6967    0.2147 O   0  0  0  0  0  0  0  0  0  0  0  0
    0.7573    1.5259    1.4762 N   0  0  0  0  0  0  0  0  0  0  0  0
    1.6519    1.0541    1.5726 H   0  0  0  0  0  0  0  0  0  0  0  0
    0.5799    2.8189    2.1256 C   0  0  0  0  0  0  0  0  0  0  0  0
   -0.4105    2.8840    2.5884 H   0  0  0  0  0  0  0  0  0  0  0  0
    1.3332    2.9559    2.9072 H   0  0  0  0  0  0  0  0  0  0  0  0
    0.6827    3.6298    1.3970 H   0  0  0  0  0  0  0  0  0  0  0  0
  1  2  1  0  0  0  0
  2  3  1  0  0  0  0
  2  4  1  0  0  0  0
  2  5  1  0  0  0  0
  5  6  2  0  0  0  0
  5  7  1  0  0  0  0
  7  8  1  0  0  0  0
  7  9  1  0  0  0  0
  9 10  1  0  0  0  0
  9 11  1  0  0  0  0
  9 18  1  0  0  0  0
 11 12  1  0  0  0  0
 11 13  1  0  0  0  0
 11 14  1  0  0  0  0
 14 15  2  0  0  0  0
 14 16  1  0  0  0  0
 16 17  1  0  0  0  0
 18 19  2  0  0  0  0
 18 20  1  0  0  0  0
 20 21  1  0  0  0  0
 20 22  1  0  0  0  0
 22 23  1  0  0  0  0
 22 24  1  0  0  0  0
 22 25  1  0  0  0  0
M  END
$$$$
