
  -OEChem-02102214113D

 25 24  0     1  0  0  0  0  0999 V2000
   -2.5301   -3.6120   -0.3139 H   0  0  0  0  0  0  0  0  0  0  0  0
   -2.5225   -2.5664   -0.6349 C   0  0  0  0  0  0  0  0  0  0  0  0
   -3.2464   -2.0099   -0.0351 H   0  0  0  0  0  0  0  0  0  0  0  0
   -2.8157   -2.5208   -1.6864 H   0  0  0  0  0  0  0  0  0  0  0  0
   -1.1358   -1.9771   -0.4555 C   0  0  0  0  0  0  0  0  0  0  0  0
   -0.2517   -2.6569    0.0315 O   0  0  0  0  0  0  0  0  0  0  0  0
   -0.8887   -0.6757   -0.8522 N   0  0  0  0  0  0  0  0  0  0  0  0
   -1.6446   -0.1975   -1.3333 H   0  0  0  0  0  0  0  0  0  0  0  0
    0.4348   -0.0222   -0.8062 C   0  0  1  0  0  0  0  0  0  0  0  0
    1.1538   -0.5718   -1.4255 H   0  0  0  0  0  0  0  0  0  0  0  0
    0.1961    1.3865   -1.3965 C   0  0  0  0  0  0  0  0  0  0  0  0
   -0.1961    1.2777   -2.4113 H   0  0  0  0  0  0  0  0  0  0  0  0
   -0.5576    1.9019   -0.7946 H   0  0  0  0  0  0  0  0  0  0  0  0
    1.4170    2.3030   -1.4793 C   0  0  0  0  0  0  0  0  0  0  0  0
    1.2213    3.4132   -1.9429 O   0  0  0  0  0  0  0  0  0  0  0  0
    2.6459    1.8268   -1.1902 O   0  0  0  0  0  0  0  0  0  0  0  0
    3.2724    2.5507   -1.3365 H   0  0  0  0  0  0  0  0  0  0  0  0
    1.0096    0.0332    0.6346 C   0  0  0  0  0  0  0  0  0  0  0  0
    2.1824   -0.2291    0.8606 O   0  0  0  0  0  0  0  0  0  0  0  0
    0.1939    0.4160    1.6854 N   0  0  0  0  0  0  0  0  0  0  0  0
   -0.7990    0.4709    1.4875 H   0  0  0  0  0  0  0  0  0  0  0  0
    0.6304    0.3726    3.0756 C   0  0  0  0  0  0  0  0  0  0  0  0
    1.5159    1.0009    3.2186 H   0  0  0  0  0  0  0  0  0  0  0  0
   -0.1622    0.7404    3.7341 H   0  0  0  0  0  0  0  0  0  0  0  0
    0.8771   -0.6541    3.3663 H   0  0  0  0  0  0  0  0  0  0  0  0
  1  2  1  0  0  0  0
  2  3  1  0  0  0  0
  2  4  1  0  0  0  0
  2  5  1  0  0  0  0
  5  6  2  0  0  0  0
  5  7  1  0  0  0  0
  7  8  1  0  0  0  0
  7  9  1  0  0  0  0
  9 10  1  0  0  0  0
  9 11  1  0  0  0  0
  9 18  1  0  0  0  0
 11 12  1  0  0  0  0
 11 13  1  0  0  0  0
 11 14  1  0  0  0  0
 14 15  2  0  0  0  0
 14 16  1  0  0  0  0
 16 17  1  0  0  0  0
 18 19  2  0  0  0  0
 18 20  1  0  0  0  0
 20 21  1  0  0  0  0
 20 22  1  0  0  0  0
 22 23  1  0  0  0  0
 22 24  1  0  0  0  0
 22 25  1  0  0  0  0
M  END
$$$$

  -OEChem-02102214113D

 25 24  0     1  0  0  0  0  0999 V2000
   -2.5299   -3.6356   -0.3375 H   0  0  0  0  0  0  0  0  0  0  0  0
   -2.5287   -2.5902   -0.6594 C   0  0  0  0  0  0  0  0  0  0  0  0
   -3.2661   -2.0407   -0.0696 H   0  0  0  0  0  0  0  0  0  0  0  0
   -2.8092   -2.5479   -1.7146 H   0  0  0  0  0  0  0  0  0  0  0  0
   -1.1504   -1.9864   -0.4638 C   0  0  0  0  0  0  0  0  0  0  0  0
   -0.2633   -2.6568    0.0312 O   0  0  0  0  0  0  0  0  0  0  0  0
   -0.9135   -0.6814   -0.8543 N   0  0  0  0  0  0  0  0  0  0  0  0
   -1.6694   -0.2103   -1.3427 H   0  0  0  0  0  0  0  0  0  0  0  0
    0.4071   -0.0229   -0.8117 C   0  0  1  0  0  0  0  0  0  0  0  0
    1.1200   -0.5700   -1.4405 H   0  0  0  0  0  0  0  0  0  0  0  0
    0.1802    1.3939   -1.3803 C   0  0  0  0  0  0  0  0  0  0  0  0
   -0.2080    1.3100   -2.3987 H   0  0  0  0  0  0  0  0  0  0  0  0
   -0.5664    1.9122   -0.7718 H   0  0  0  0  0  0  0  0  0  0  0  0
    1.4307    2.2693   -1.4374 C   0  0  0  0  0  0  0  0  0  0  0  0
    1.2538    3.4639   -1.6037 O   0  0  0  0  0  0  0  0  0  0  0  0
    2.6466    1.6823   -1.4915 O   0  0  0  0  0  0  0  0  0  0  0  0
    3.3004    2.3952   -1.5411 H   0  0  0  0  0  0  0  0  0  0  0  0
    1.0005    0.0320    0.6208 C   0  0  0  0  0  0  0  0  0  0  0  0
    2.1941   -0.1448    0.8185 O   0  0  0  0  0  0  0  0  0  0  0  0
    0.1951    0.4071    1.6818 N   0  0  0  0  0  0  0  0  0  0  0  0
   -0.8034    0.4232    1.5052 H   0  0  0  0  0  0  0  0  0  0  0  0
    0.6643    0.4257    3.0619 C   0  0  0  0  0  0  0  0  0  0  0  0
    1.5190    1.1023    3.1676 H   0  0  0  0  0  0  0  0  0  0  0  0
   -0.1317    0.7712    3.7282 H   0  0  0  0  0  0  0  0  0  0  0  0
    0.9697   -0.5783    3.3752 H   0  0  0  0  0  0  0  0  0  0  0  0
  1  2  1  0  0  0  0
  2  3  1  0  0  0  0
  2  4  1  0  0  0  0
  2  5  1  0  0  0  0
  5  6  2  0  0  0  0
  5  7  1  0  0  0  0
  7  8  1  0  0  0  0
  7  9  1  0  0  0  0
  9 10  1  0  0  0  0
  9 11  1  0  0  0  0
  9 18  1  0  0  0  0
 11 12  1  0  0  0  0
 11 13  1  0  0  0  0
 11 14  1  0  0  0  0
 14 15  2  0  0  0  0
 14 16  1  0  0  0  0
 16 17  1  0  0  0  0
 18 19  2  0  0  0  0
 18 20  1  0  0  0  0
 20 21  1  0  0  0  0
 20 22  1  0  0  0  0
 22 23  1  0  0  0  0
 22 24  1  0  0  0  0
 22 25  1  0  0  0  0
M  END
$$$$

  -OEChem-02102214113D

 25 24  0     1  0  0  0  0  0999 V2000
   -2.5255   -3.6575   -0.3614 H   0  0  0  0  0  0  0  0  0  0  0  0
   -2.5348   -2.6107   -0.6789 C   0  0  0  0  0  0  0  0  0  0  0  0
   -3.2791   -2.0709   -0.0885 H   0  0  0  0  0  0  0  0  0  0  0  0
   -2.8134   -2.5671   -1.7345 H   0  0  0  0  0  0  0  0  0  0  0  0
   -1.1635   -1.9936   -0.4777 C   0  0  0  0  0  0  0  0  0  0  0  0
   -0.2699   -2.6557    0.0172 O   0  0  0  0  0  0  0  0  0  0  0  0
   -0.9393   -0.6841   -0.8594 N   0  0  0  0  0  0  0  0  0  0  0  0
   -1.6979   -0.2181   -1.3484 H   0  0  0  0  0  0  0  0  0  0  0  0
    0.3770   -0.0188   -0.8182 C   0  0  1  0  0  0  0  0  0  0  0  0
    1.0846   -0.5663   -1.4529 H   0  0  0  0  0  0  0  0  0  0  0  0
    0.1619    1.4002   -1.3809 C   0  0  0  0  0  0  0  0  0  0  0  0
   -0.2184    1.3295   -2.4029 H   0  0  0  0  0  0  0  0  0  0  0  0
   -0.5813    1.9258   -0.7743 H   0  0  0  0  0  0  0  0  0  0  0  0
    1.4378    2.2374   -1.4149 C   0  0  0  0  0  0  0  0  0  0  0  0
    1.3194    3.4442   -1.2896 O   0  0  0  0  0  0  0  0  0  0  0  0
    2.6000    1.6289   -1.7447 O   0  0  0  0  0  0  0  0  0  0  0  0
    3.2898    2.3078   -1.6997 H   0  0  0  0  0  0  0  0  0  0  0  0
    0.9899    0.0352    0.6050 C   0  0  0  0  0  0  0  0  0  0  0  0
    2.1973   -0.0694    0.7688 O   0  0  0  0  0  0  0  0  0  0  0  0
    0.1989    0.3992    1.6801 N   0  0  0  0  0  0  0  0  0  0  0  0
   -0.8038    0.3793    1.5292 H   0  0  0  0  0  0  0  0  0  0  0  0
    0.7032    0.4710    3.0461 C   0  0  0  0  0  0  0  0  0  0  0  0
    1.5269    1.1897    3.1139 H   0  0  0  0  0  0  0  0  0  0  0  0
   -0.0907    0.7932    3.7267 H   0  0  0  0  0  0  0  0  0  0  0  0
    1.0646   -0.5101    3.3723 H   0  0  0  0  0  0  0  0  0  0  0  0
  1  2  1  0  0  0  0
  2  3  1  0  0  0  0
  2  4  1  0  0  0  0
  2  5  1  0  0  0  0
  5  6  2  0  0  0  0
  5  7  1  0  0  0  0
  7  8  1  0  0  0  0
  7  9  1  0  0  0  0
  9 10  1  0  0  0  0
  9 11  1  0  0  0  0
  9 18  1  0  0  0  0
 11 12  1  0  0  0  0
 11 13  1  0  0  0  0
 11 14  1  0  0  0  0
 14 15  2  0  0  0  0
 14 16  1  0  0  0  0
 16 17  1  0  0  0  0
 18 19  2  0  0  0  0
 18 20  1  0  0  0  0
 20 21  1  0  0  0  0
 20 22  1  0  0  0  0
 22 23  1  0  0  0  0
 22 24  1  0  0  0  0
 22 25  1  0  0  0  0
M  END
$$$$

  -OEChem-02102214113D

 25 24  0     1  0  0  0  0  0999 V2000
   -2.5103   -3.6841   -0.4073 H   0  0  0  0  0  0  0  0  0  0  0  0
   -2.5368   -2.6287   -0.6938 C   0  0  0  0  0  0  0  0  0  0  0  0
   -3.2828   -2.1162   -0.0820 H   0  0  0  0  0  0  0  0  0  0  0  0
   -2.8256   -2.5584   -1.7452 H   0  0  0  0  0  0  0  0  0  0  0  0
   -1.1726   -1.9978   -0.4864 C   0  0  0  0  0  0  0  0  0  0  0  0
   -0.2728   -2.6531    0.0065 O   0  0  0  0  0  0  0  0  0  0  0  0
   -0.9605   -0.6846   -0.8623 N   0  0  0  0  0  0  0  0  0  0  0  0
   -1.7235   -0.2218   -1.3475 H   0  0  0  0  0  0  0  0  0  0  0  0
    0.3515   -0.0115   -0.8223 C   0  0  1  0  0  0  0  0  0  0  0  0
    1.0562   -0.5596   -1.4596 H   0  0  0  0  0  0  0  0  0  0  0  0
    0.1416    1.4041   -1.3909 C   0  0  0  0  0  0  0  0  0  0  0  0
   -0.2298    1.3352   -2.4162 H   0  0  0  0  0  0  0  0  0  0  0  0
   -0.6025    1.9372   -0.7916 H   0  0  0  0  0  0  0  0  0  0  0  0
    1.4325    2.2164   -1.4095 C   0  0  0  0  0  0  0  0  0  0  0  0
    1.3882    3.3691   -1.0152 O   0  0  0  0  0  0  0  0  0  0  0  0
    2.5297    1.6527   -1.9651 O   0  0  0  0  0  0  0  0  0  0  0  0
    3.2513    2.2887   -1.8457 H   0  0  0  0  0  0  0  0  0  0  0  0
    0.9826    0.0469    0.5913 C   0  0  0  0  0  0  0  0  0  0  0  0
    2.1961   -0.0253    0.7269 O   0  0  0  0  0  0  0  0  0  0  0  0
    0.2063    0.4036    1.6789 N   0  0  0  0  0  0  0  0  0  0  0  0
   -0.7989    0.3810    1.5460 H   0  0  0  0  0  0  0  0  0  0  0  0
    0.7366    0.5033    3.0328 C   0  0  0  0  0  0  0  0  0  0  0  0
    1.5447    1.2414    3.0748 H   0  0  0  0  0  0  0  0  0  0  0  0
   -0.0501    0.8158    3.7259 H   0  0  0  0  0  0  0  0  0  0  0  0
    1.1267   -0.4656    3.3622 H   0  0  0  0  0  0  0  0  0  0  0  0
  1  2  1  0  0  0  0
  2  3  1  0  0  0  0
  2  4  1  0  0  0  0
  2  5  1  0  0  0  0
  5  6  2  0  0  0  0
  5  7  1  0  0  0  0
  7  8  1  0  0  0  0
  7  9  1  0  0  0  0
  9 10  1  0  0  0  0
  9 11  1  0  0  0  0
  9 18  1  0  0  0  0
 11 12  1  0  0  0  0
 11 13  1  0  0  0  0
 11 14  1  0  0  0  0
 14 15  2  0  0  0  0
 14 16  1  0  0  0  0
 16 17  1  0  0  0  0
 18 19  2  0  0  0  0
 18 20  1  0  0  0  0
 20 21  1  0  0  0  0
 20 22  1  0  0  0  0
 22 23  1  0  0  0  0
 22 24  1  0  0  0  0
 22 25  1  0  0  0  0
M  END
$$$$

  -OEChem-02102214113D

 25 24  0     1  0  0  0  0  0999 V2000
   -2.5030   -3.6901   -0.4017 H   0  0  0  0  0  0  0  0  0  0  0  0
   -2.5351   -2.6353   -0.6895 C   0  0  0  0  0  0  0  0  0  0  0  0
   -3.2721   -2.1234   -0.0664 H   0  0  0  0  0  0  0  0  0  0  0  0
   -2.8401   -2.5669   -1.7364 H   0  0  0  0  0  0  0  0  0  0  0  0
   -1.1689   -2.0020   -0.5039 C   0  0  0  0  0  0  0  0  0  0  0  0
   -0.2584   -2.6567   -0.0301 O   0  0  0  0  0  0  0  0  0  0  0  0
   -0.9680   -0.6851   -0.8723 N   0  0  0  0  0  0  0  0  0  0  0  0
   -1.7415   -0.2179   -1.3360 H   0  0  0  0  0  0  0  0  0  0  0  0
    0.3380   -0.0020   -0.8301 C   0  0  1  0  0  0  0  0  0  0  0  0
    1.0444   -0.5465   -1.4690 H   0  0  0  0  0  0  0  0  0  0  0  0
    0.1241    1.4087   -1.4062 C   0  0  0  0  0  0  0  0  0  0  0  0
   -0.2404    1.3370   -2.4340 H   0  0  0  0  0  0  0  0  0  0  0  0
   -0.6249    1.9435   -0.8147 H   0  0  0  0  0  0  0  0  0  0  0  0
    1.4182    2.2143   -1.4136 C   0  0  0  0  0  0  0  0  0  0  0  0
    1.4539    3.2549   -0.7794 O   0  0  0  0  0  0  0  0  0  0  0  0
    2.4447    1.7517   -2.1633 O   0  0  0  0  0  0  0  0  0  0  0  0
    3.1918    2.3442   -1.9877 H   0  0  0  0  0  0  0  0  0  0  0  0
    0.9781    0.0578    0.5783 C   0  0  0  0  0  0  0  0  0  0  0  0
    2.1939   -0.0070    0.6984 O   0  0  0  0  0  0  0  0  0  0  0  0
    0.2089    0.4038    1.6742 N   0  0  0  0  0  0  0  0  0  0  0  0
   -0.7973    0.3853    1.5492 H   0  0  0  0  0  0  0  0  0  0  0  0
    0.7523    0.5166    3.0216 C   0  0  0  0  0  0  0  0  0  0  0  0
    1.5547    1.2615    3.0503 H   0  0  0  0  0  0  0  0  0  0  0  0
   -0.0299    0.8270    3.7207 H   0  0  0  0  0  0  0  0  0  0  0  0
    1.1537   -0.4469    3.3529 H   0  0  0  0  0  0  0  0  0  0  0  0
  1  2  1  0  0  0  0
  2  3  1  0  0  0  0
  2  4  1  0  0  0  0
  2  5  1  0  0  0  0
  5  6  2  0  0  0  0
  5  7  1  0  0  0  0
  7  8  1  0  0  0  0
  7  9  1  0  0  0  0
  9 10  1  0  0  0  0
  9 11  1  0  0  0  0
  9 18  1  0  0  0  0
 11 12  1  0  0  0  0
 11 13  1  0  0  0  0
 11 14  1  0  0  0  0
 14 15  2  0  0  0  0
 14 16  1  0  0  0  0
 16 17  1  0  0  0  0
 18 19  2  0  0  0  0
 18 20  1  0  0  0  0
 20 21  1  0  0  0  0
 20 22  1  0  0  0  0
 22 23  1  0  0  0  0
 22 24  1  0  0  0  0
 22 25  1  0  0  0  0
M  END
$$$$

  -OEChem-02102214113D

 25 24  0     1  0  0  0  0  0999 V2000
   -2.5003   -3.6938   -0.4082 H   0  0  0  0  0  0  0  0  0  0  0  0
   -2.5350   -2.6390   -0.6956 C   0  0  0  0  0  0  0  0  0  0  0  0
   -3.2724   -2.1289   -0.0713 H   0  0  0  0  0  0  0  0  0  0  0  0
   -2.8418   -2.5710   -1.7419 H   0  0  0  0  0  0  0  0  0  0  0  0
   -1.1693   -2.0036   -0.5117 C   0  0  0  0  0  0  0  0  0  0  0  0
   -0.2546   -2.6592   -0.0472 O   0  0  0  0  0  0  0  0  0  0  0  0
   -0.9726   -0.6845   -0.8741 N   0  0  0  0  0  0  0  0  0  0  0  0
   -1.7495   -0.2159   -1.3304 H   0  0  0  0  0  0  0  0  0  0  0  0
    0.3310    0.0029   -0.8278 C   0  0  1  0  0  0  0  0  0  0  0  0
    1.0394   -0.5401   -1.4658 H   0  0  0  0  0  0  0  0  0  0  0  0
    0.1125    1.4081   -1.4154 C   0  0  0  0  0  0  0  0  0  0  0  0
   -0.2484    1.3282   -2.4440 H   0  0  0  0  0  0  0  0  0  0  0  0
   -0.6414    1.9443   -0.8315 H   0  0  0  0  0  0  0  0  0  0  0  0
    1.4006    2.2219   -1.4212 C   0  0  0  0  0  0  0  0  0  0  0  0
    1.5303    3.1064   -0.5925 O   0  0  0  0  0  0  0  0  0  0  0  0
    2.3328    1.9179   -2.3524 O   0  0  0  0  0  0  0  0  0  0  0  0
    3.0985    2.4785   -2.1522 H   0  0  0  0  0  0  0  0  0  0  0  0
    0.9753    0.0625    0.5782 C   0  0  0  0  0  0  0  0  0  0  0  0
    2.1909   -0.0198    0.6908 O   0  0  0  0  0  0  0  0  0  0  0  0
    0.2127    0.4025    1.6804 N   0  0  0  0  0  0  0  0  0  0  0  0
   -0.7939    0.4094    1.5582 H   0  0  0  0  0  0  0  0  0  0  0  0
    0.7661    0.5245    3.0230 C   0  0  0  0  0  0  0  0  0  0  0  0
    1.5616    1.2770    3.0423 H   0  0  0  0  0  0  0  0  0  0  0  0
   -0.0132    0.8295    3.7278 H   0  0  0  0  0  0  0  0  0  0  0  0
    1.1795   -0.4340    3.3541 H   0  0  0  0  0  0  0  0  0  0  0  0
  1  2  1  0  0  0  0
  2  3  1  0  0  0  0
  2  4  1  0  0  0  0
  2  5  1  0  0  0  0
  5  6  2  0  0  0  0
  5  7  1  0  0  0  0
  7  8  1  0  0  0  0
  7  9  1  0  0  0  0
  9 10  1  0  0  0  0
  9 11  1  0  0  0  0
  9 18  1  0  0  0  0
 11 12  1  0  0  0  0
 11 13  1  0  0  0  0
 11 14  1  0  0  0  0
 14 15  2  0  0  0  0
 14 16  1  0  0  0  0
 16 17  1  0  0  0  0
 18 19  2  0  0  0  0
 18 20  1  0  0  0  0
 20 21  1  0  0  0  0
 20 22  1  0  0  0  0
 22 23  1  0  0  0  0
 22 24  1  0  0  0  0
 22 25  1  0  0  0  0
M  END
$$$$

  -OEChem-02102214113D

 25 24  0     1  0  0  0  0  0999 V2000
   -2.4926   -3.6936   -0.4152 H   0  0  0  0  0  0  0  0  0  0  0  0
   -2.5294   -2.6369   -0.6955 C   0  0  0  0  0  0  0  0  0  0  0  0
   -3.2652   -2.1313   -0.0658 H   0  0  0  0  0  0  0  0  0  0  0  0
   -2.8396   -2.5625   -1.7405 H   0  0  0  0  0  0  0  0  0  0  0  0
   -1.1642   -2.0011   -0.5119 C   0  0  0  0  0  0  0  0  0  0  0  0
   -0.2477   -2.6596   -0.0557 O   0  0  0  0  0  0  0  0  0  0  0  0
   -0.9689   -0.6808   -0.8712 N   0  0  0  0  0  0  0  0  0  0  0  0
   -1.7493   -0.2077   -1.3168 H   0  0  0  0  0  0  0  0  0  0  0  0
    0.3332    0.0088   -0.8195 C   0  0  1  0  0  0  0  0  0  0  0  0
    1.0442   -0.5373   -1.4516 H   0  0  0  0  0  0  0  0  0  0  0  0
    0.1112    1.4061   -1.4270 C   0  0  0  0  0  0  0  0  0  0  0  0
   -0.2475    1.3079   -2.4549 H   0  0  0  0  0  0  0  0  0  0  0  0
   -0.6494    1.9440   -0.8540 H   0  0  0  0  0  0  0  0  0  0  0  0
    1.3846    2.2435   -1.4406 C   0  0  0  0  0  0  0  0  0  0  0  0
    1.6294    2.9489   -0.4774 O   0  0  0  0  0  0  0  0  0  0  0  0
    2.1899    2.1404   -2.5218 O   0  0  0  0  0  0  0  0  0  0  0  0
    2.9718    2.6776   -2.3191 H   0  0  0  0  0  0  0  0  0  0  0  0
    0.9740    0.0677    0.5877 C   0  0  0  0  0  0  0  0  0  0  0  0
    2.1860   -0.0523    0.7045 O   0  0  0  0  0  0  0  0  0  0  0  0
    0.2114    0.4047    1.6908 N   0  0  0  0  0  0  0  0  0  0  0  0
   -0.7935    0.4441    1.5633 H   0  0  0  0  0  0  0  0  0  0  0  0
    0.7636    0.5121    3.0348 C   0  0  0  0  0  0  0  0  0  0  0  0
    1.5655    1.2576    3.0603 H   0  0  0  0  0  0  0  0  0  0  0  0
   -0.0136    0.8185    3.7410 H   0  0  0  0  0  0  0  0  0  0  0  0
    1.1682   -0.4524    3.3589 H   0  0  0  0  0  0  0  0  0  0  0  0
  1  2  1  0  0  0  0
  2  3  1  0  0  0  0
  2  4  1  0  0  0  0
  2  5  1  0  0  0  0
  5  6  2  0  0  0  0
  5  7  1  0  0  0  0
  7  8  1  0  0  0  0
  7  9  1  0  0  0  0
  9 10  1  0  0  0  0
  9 11  1  0  0  0  0
  9 18  1  0  0  0  0
 11 12  1  0  0  0  0
 11 13  1  0  0  0  0
 11 14  1  0  0  0  0
 14 15  2  0  0  0  0
 14 16  1  0  0  0  0
 16 17  1  0  0  0  0
 18 19  2  0  0  0  0
 18 20  1  0  0  0  0
 20 21  1  0  0  0  0
 20 22  1  0  0  0  0
 22 23  1  0  0  0  0
 22 24  1  0  0  0  0
 22 25  1  0  0  0  0
M  END
$$$$

  -OEChem-02102214113D

 25 24  0     1  0  0  0  0  0999 V2000
   -2.4937   -3.6743   -0.3919 H   0  0  0  0  0  0  0  0  0  0  0  0
   -2.5217   -2.6190   -0.6786 C   0  0  0  0  0  0  0  0  0  0  0  0
   -3.2478   -2.1022   -0.0466 H   0  0  0  0  0  0  0  0  0  0  0  0
   -2.8386   -2.5472   -1.7218 H   0  0  0  0  0  0  0  0  0  0  0  0
   -1.1488   -1.9961   -0.5082 C   0  0  0  0  0  0  0  0  0  0  0  0
   -0.2328   -2.6643   -0.0653 O   0  0  0  0  0  0  0  0  0  0  0  0
   -0.9462   -0.6773   -0.8687 N   0  0  0  0  0  0  0  0  0  0  0  0
   -1.7295   -0.1950   -1.2989 H   0  0  0  0  0  0  0  0  0  0  0  0
    0.3570    0.0104   -0.8104 C   0  0  1  0  0  0  0  0  0  0  0  0
    1.0737   -0.5394   -1.4327 H   0  0  0  0  0  0  0  0  0  0  0  0
    0.1282    1.3994   -1.4403 C   0  0  0  0  0  0  0  0  0  0  0  0
   -0.2307    1.2770   -2.4659 H   0  0  0  0  0  0  0  0  0  0  0  0
   -0.6415    1.9351   -0.8780 H   0  0  0  0  0  0  0  0  0  0  0  0
    1.3763    2.2760   -1.4741 C   0  0  0  0  0  0  0  0  0  0  0  0
    1.7621    2.7970   -0.4431 O   0  0  0  0  0  0  0  0  0  0  0  0
    2.0029    2.4169   -2.6642 O   0  0  0  0  0  0  0  0  0  0  0  0
    2.7906    2.9537   -2.4840 H   0  0  0  0  0  0  0  0  0  0  0  0
    0.9806    0.0664    0.6050 C   0  0  0  0  0  0  0  0  0  0  0  0
    2.1836   -0.1073    0.7444 O   0  0  0  0  0  0  0  0  0  0  0  0
    0.2062    0.4051    1.6995 N   0  0  0  0  0  0  0  0  0  0  0  0
   -0.7944    0.4756    1.5536 H   0  0  0  0  0  0  0  0  0  0  0  0
    0.7354    0.4729    3.0553 C   0  0  0  0  0  0  0  0  0  0  0  0
    1.5535    1.1990    3.1103 H   0  0  0  0  0  0  0  0  0  0  0  0
   -0.0481    0.7830    3.7531 H   0  0  0  0  0  0  0  0  0  0  0  0
    1.1122   -0.5068    3.3675 H   0  0  0  0  0  0  0  0  0  0  0  0
  1  2  1  0  0  0  0
  2  3  1  0  0  0  0
  2  4  1  0  0  0  0
  2  5  1  0  0  0  0
  5  6  2  0  0  0  0
  5  7  1  0  0  0  0
  7  8  1  0  0  0  0
  7  9  1  0  0  0  0
  9 10  1  0  0  0  0
  9 11  1  0  0  0  0
  9 18  1  0  0  0  0
 11 12  1  0  0  0  0
 11 13  1  0  0  0  0
 11 14  1  0  0  0  0
 14 15  2  0  0  0  0
 14 16  1  0  0  0  0
 16 17  1  0  0  0  0
 18 19  2  0  0  0  0
 18 20  1  0  0  0  0
 20 21  1  0  0  0  0
 20 22  1  0  0  0  0
 22 23  1  0  0  0  0
 22 24  1  0  0  0  0
 22 25  1  0  0  0  0
M  END
$$$$

  -OEChem-02102214113D

 25 24  0     1  0  0  0  0  0999 V2000
   -2.4969   -3.6509   -0.3623 H   0  0  0  0  0  0  0  0  0  0  0  0
   -2.5140   -2.5987   -0.6610 C   0  0  0  0  0  0  0  0  0  0  0  0
   -3.2328   -2.0671   -0.0328 H   0  0  0  0  0  0  0  0  0  0  0  0
   -2.8327   -2.5357   -1.7042 H   0  0  0  0  0  0  0  0  0  0  0  0
   -1.1336   -1.9891   -0.5014 C   0  0  0  0  0  0  0  0  0  0  0  0
   -0.2221   -2.6671   -0.0643 O   0  0  0  0  0  0  0  0  0  0  0  0
   -0.9203   -0.6725   -0.8658 N   0  0  0  0  0  0  0  0  0  0  0  0
   -1.7020   -0.1839   -1.2920 H   0  0  0  0  0  0  0  0  0  0  0  0
    0.3868    0.0095   -0.8035 C   0  0  1  0  0  0  0  0  0  0  0  0
    1.1081   -0.5422   -1.4184 H   0  0  0  0  0  0  0  0  0  0  0  0
    0.1517    1.3953   -1.4458 C   0  0  0  0  0  0  0  0  0  0  0  0
   -0.2109    1.2532   -2.4677 H   0  0  0  0  0  0  0  0  0  0  0  0
   -0.6244    1.9264   -0.8882 H   0  0  0  0  0  0  0  0  0  0  0  0
    1.3747    2.3099   -1.5038 C   0  0  0  0  0  0  0  0  0  0  0  0
    1.9315    2.6445   -0.4751 O   0  0  0  0  0  0  0  0  0  0  0  0
    1.7813    2.7053   -2.7318 O   0  0  0  0  0  0  0  0  0  0  0  0
    2.5751    3.2429   -2.5835 H   0  0  0  0  0  0  0  0  0  0  0  0
    0.9913    0.0609    0.6213 C   0  0  0  0  0  0  0  0  0  0  0  0
    2.1810   -0.1706    0.7879 O   0  0  0  0  0  0  0  0  0  0  0  0
    0.2026    0.4052    1.7044 N   0  0  0  0  0  0  0  0  0  0  0  0
   -0.7926    0.5011    1.5388 H   0  0  0  0  0  0  0  0  0  0  0  0
    0.7025    0.4305    3.0728 C   0  0  0  0  0  0  0  0  0  0  0  0
    1.5451    1.1249    3.1590 H   0  0  0  0  0  0  0  0  0  0  0  0
   -0.0850    0.7574    3.7584 H   0  0  0  0  0  0  0  0  0  0  0  0
    1.0357   -0.5679    3.3755 H   0  0  0  0  0  0  0  0  0  0  0  0
  1  2  1  0  0  0  0
  2  3  1  0  0  0  0
  2  4  1  0  0  0  0
  2  5  1  0  0  0  0
  5  6  2  0  0  0  0
  5  7  1  0  0  0  0
  7  8  1  0  0  0  0
  7  9  1  0  0  0  0
  9 10  1  0  0  0  0
  9 11  1  0  0  0  0
  9 18  1  0  0  0  0
 11 12  1  0  0  0  0
 11 13  1  0  0  0  0
 11 14  1  0  0  0  0
 14 15  2  0  0  0  0
 14 16  1  0  0  0  0
 16 17  1  0  0  0  0
 18 19  2  0  0  0  0
 18 20  1  0  0  0  0
 20 21  1  0  0  0  0
 20 22  1  0  0  0  0
 22 23  1  0  0  0  0
 22 24  1  0  0  0  0
 22 25  1  0  0  0  0
M  END
$$$$

  -OEChem-02102214113D

 25 24  0     1  0  0  0  0  0999 V2000
   -2.4996   -3.6268   -0.3403 H   0  0  0  0  0  0  0  0  0  0  0  0
   -2.5065   -2.5762   -0.6451 C   0  0  0  0  0  0  0  0  0  0  0  0
   -3.2189   -2.0337   -0.0193 H   0  0  0  0  0  0  0  0  0  0  0  0
   -2.8259   -2.5160   -1.6883 H   0  0  0  0  0  0  0  0  0  0  0  0
   -1.1198   -1.9796   -0.4907 C   0  0  0  0  0  0  0  0  0  0  0  0
   -0.2139   -2.6661   -0.0560 O   0  0  0  0  0  0  0  0  0  0  0  0
   -0.8947   -0.6670   -0.8622 N   0  0  0  0  0  0  0  0  0  0  0  0
   -1.6751   -0.1709   -1.2816 H   0  0  0  0  0  0  0  0  0  0  0  0
    0.4166    0.0079   -0.7990 C   0  0  1  0  0  0  0  0  0  0  0  0
    1.1412   -0.5466   -1.4073 H   0  0  0  0  0  0  0  0  0  0  0  0
    0.1759    1.3922   -1.4479 C   0  0  0  0  0  0  0  0  0  0  0  0
   -0.1890    1.2364   -2.4671 H   0  0  0  0  0  0  0  0  0  0  0  0
   -0.6049    1.9184   -0.8928 H   0  0  0  0  0  0  0  0  0  0  0  0
    1.3775    2.3356   -1.5294 C   0  0  0  0  0  0  0  0  0  0  0  0
    2.1128    2.4904   -0.5740 O   0  0  0  0  0  0  0  0  0  0  0  0
    1.5511    2.9769   -2.7076 O   0  0  0  0  0  0  0  0  0  0  0  0
    2.3532    3.5116   -2.5975 H   0  0  0  0  0  0  0  0  0  0  0  0
    1.0032    0.0577    0.6345 C   0  0  0  0  0  0  0  0  0  0  0  0
    2.1788   -0.2197    0.8277 O   0  0  0  0  0  0  0  0  0  0  0  0
    0.2013    0.4109    1.7053 N   0  0  0  0  0  0  0  0  0  0  0  0
   -0.7896    0.5166    1.5224 H   0  0  0  0  0  0  0  0  0  0  0  0
    0.6704    0.3892    3.0846 C   0  0  0  0  0  0  0  0  0  0  0  0
    1.5392    1.0454    3.2032 H   0  0  0  0  0  0  0  0  0  0  0  0
   -0.1180    0.7365    3.7590 H   0  0  0  0  0  0  0  0  0  0  0  0
    0.9550   -0.6277    3.3751 H   0  0  0  0  0  0  0  0  0  0  0  0
  1  2  1  0  0  0  0
  2  3  1  0  0  0  0
  2  4  1  0  0  0  0
  2  5  1  0  0  0  0
  5  6  2  0  0  0  0
  5  7  1  0  0  0  0
  7  8  1  0  0  0  0
  7  9  1  0  0  0  0
  9 10  1  0  0  0  0
  9 11  1  0  0  0  0
  9 18  1  0  0  0  0
 11 12  1  0  0  0  0
 11 13  1  0  0  0  0
 11 14  1  0  0  0  0
 14 15  2  0  0  0  0
 14 16  1  0  0  0  0
 16 17  1  0  0  0  0
 18 19  2  0  0  0  0
 18 20  1  0  0  0  0
 20 21  1  0  0  0  0
 20 22  1  0  0  0  0
 22 23  1  0  0  0  0
 22 24  1  0  0  0  0
 22 25  1  0  0  0  0
M  END
$$$$

  -OEChem-02102214113D

 25 24  0     1  0  0  0  0  0999 V2000
   -2.5069   -3.6081   -0.3237 H   0  0  0  0  0  0  0  0  0  0  0  0
   -2.5044   -2.5601   -0.6372 C   0  0  0  0  0  0  0  0  0  0  0  0
   -3.2179   -2.0076   -0.0213 H   0  0  0  0  0  0  0  0  0  0  0  0
   -2.8156   -2.5064   -1.6833 H   0  0  0  0  0  0  0  0  0  0  0  0
   -1.1149   -1.9720   -0.4775 C   0  0  0  0  0  0  0  0  0  0  0  0
   -0.2170   -2.6623   -0.0325 O   0  0  0  0  0  0  0  0  0  0  0  0
   -0.8789   -0.6640   -0.8584 N   0  0  0  0  0  0  0  0  0  0  0  0
   -1.6526   -0.1689   -1.2911 H   0  0  0  0  0  0  0  0  0  0  0  0
    0.4377    0.0023   -0.8002 C   0  0  1  0  0  0  0  0  0  0  0  0
    1.1618   -0.5523   -1.4088 H   0  0  0  0  0  0  0  0  0  0  0  0
    0.1914    1.3906   -1.4405 C   0  0  0  0  0  0  0  0  0  0  0  0
   -0.1827    1.2364   -2.4566 H   0  0  0  0  0  0  0  0  0  0  0  0
   -0.5860    1.9111   -0.8755 H   0  0  0  0  0  0  0  0  0  0  0  0
    1.3812    2.3483   -1.5393 C   0  0  0  0  0  0  0  0  0  0  0  0
    2.2825    2.3250   -0.7253 O   0  0  0  0  0  0  0  0  0  0  0  0
    1.3451    3.2186   -2.5741 O   0  0  0  0  0  0  0  0  0  0  0  0
    2.1590    3.7420   -2.5024 H   0  0  0  0  0  0  0  0  0  0  0  0
    1.0152    0.0530    0.6380 C   0  0  0  0  0  0  0  0  0  0  0  0
    2.1803   -0.2528    0.8499 O   0  0  0  0  0  0  0  0  0  0  0  0
    0.2058    0.4181    1.6996 N   0  0  0  0  0  0  0  0  0  0  0  0
   -0.7836    0.5195    1.5055 H   0  0  0  0  0  0  0  0  0  0  0  0
    0.6532    0.3670    3.0856 C   0  0  0  0  0  0  0  0  0  0  0  0
    1.5418    0.9923    3.2239 H   0  0  0  0  0  0  0  0  0  0  0  0
   -0.1329    0.7343    3.7520 H   0  0  0  0  0  0  0  0  0  0  0  0
    0.8995   -0.6618    3.3693 H   0  0  0  0  0  0  0  0  0  0  0  0
  1  2  1  0  0  0  0
  2  3  1  0  0  0  0
  2  4  1  0  0  0  0
  2  5  1  0  0  0  0
  5  6  2  0  0  0  0
  5  7  1  0  0  0  0
  7  8  1  0  0  0  0
  7  9  1  0  0  0  0
  9 10  1  0  0  0  0
  9 11  1  0  0  0  0
  9 18  1  0  0  0  0
 11 12  1  0  0  0  0
 11 13  1  0  0  0  0
 11 14  1  0  0  0  0
 14 15  2  0  0  0  0
 14 16  1  0  0  0  0
 16 17  1  0  0  0  0
 18 19  2  0  0  0  0
 18 20  1  0  0  0  0
 20 21  1  0  0  0  0
 20 22  1  0  0  0  0
 22 23  1  0  0  0  0
 22 24  1  0  0  0  0
 22 25  1  0  0  0  0
M  END
$$$$

  -OEChem-02102214113D

 25 24  0     1  0  0  0  0  0999 V2000
   -2.5105   -3.6002   -0.3159 H   0  0  0  0  0  0  0  0  0  0  0  0
   -2.5045   -2.5521   -0.6294 C   0  0  0  0  0  0  0  0  0  0  0  0
   -3.2189   -1.9978   -0.0163 H   0  0  0  0  0  0  0  0  0  0  0  0
   -2.8114   -2.4981   -1.6766 H   0  0  0  0  0  0  0  0  0  0  0  0
   -1.1145   -1.9666   -0.4641 C   0  0  0  0  0  0  0  0  0  0  0  0
   -0.2236   -2.6536   -0.0009 O   0  0  0  0  0  0  0  0  0  0  0  0
   -0.8729   -0.6625   -0.8554 N   0  0  0  0  0  0  0  0  0  0  0  0
   -1.6378   -0.1778   -1.3148 H   0  0  0  0  0  0  0  0  0  0  0  0
    0.4468   -0.0015   -0.8065 C   0  0  1  0  0  0  0  0  0  0  0  0
    1.1694   -0.5538   -1.4190 H   0  0  0  0  0  0  0  0  0  0  0  0
    0.1949    1.3926   -1.4314 C   0  0  0  0  0  0  0  0  0  0  0  0
   -0.1909    1.2503   -2.4445 H   0  0  0  0  0  0  0  0  0  0  0  0
   -0.5747    1.9088   -0.8513 H   0  0  0  0  0  0  0  0  0  0  0  0
    1.3831    2.3504   -1.5389 C   0  0  0  0  0  0  0  0  0  0  0  0
    2.4128    2.1603   -0.9236 O   0  0  0  0  0  0  0  0  0  0  0  0
    1.1962    3.4146   -2.3521 O   0  0  0  0  0  0  0  0  0  0  0  0
    2.0256    3.9172   -2.3174 H   0  0  0  0  0  0  0  0  0  0  0  0
    1.0232    0.0536    0.6330 C   0  0  0  0  0  0  0  0  0  0  0  0
    2.1849   -0.2578    0.8545 O   0  0  0  0  0  0  0  0  0  0  0  0
    0.2112    0.4285    1.6895 N   0  0  0  0  0  0  0  0  0  0  0  0
   -0.7790    0.5147    1.4908 H   0  0  0  0  0  0  0  0  0  0  0  0
    0.6464    0.3571    3.0787 C   0  0  0  0  0  0  0  0  0  0  0  0
    1.5411    0.9700    3.2321 H   0  0  0  0  0  0  0  0  0  0  0  0
   -0.1411    0.7261    3.7425 H   0  0  0  0  0  0  0  0  0  0  0  0
    0.8776   -0.6775    3.3537 H   0  0  0  0  0  0  0  0  0  0  0  0
  1  2  1  0  0  0  0
  2  3  1  0  0  0  0
  2  4  1  0  0  0  0
  2  5  1  0  0  0  0
  5  6  2  0  0  0  0
  5  7  1  0  0  0  0
  7  8  1  0  0  0  0
  7  9  1  0  0  0  0
  9 10  1  0  0  0  0
  9 11  1  0  0  0  0
  9 18  1  0  0  0  0
 11 12  1  0  0  0  0
 11 13  1  0  0  0  0
 11 14  1  0  0  0  0
 14 15  2  0  0  0  0
 14 16  1  0  0  0  0
 16 17  1  0  0  0  0
 18 19  2  0  0  0  0
 18 20  1  0  0  0  0
 20 21  1  0  0  0  0
 20 22  1  0  0  0  0
 22 23  1  0  0  0  0
 22 24  1  0  0  0  0
 22 25  1  0  0  0  0
M  END
$$$$

  -OEChem-02102214113D

 25 24  0     1  0  0  0  0  0999 V2000
   -2.5142   -3.6056   -0.3149 H   0  0  0  0  0  0  0  0  0  0  0  0
   -2.5081   -2.5594   -0.6344 C   0  0  0  0  0  0  0  0  0  0  0  0
   -3.2299   -2.0035   -0.0314 H   0  0  0  0  0  0  0  0  0  0  0  0
   -2.8054   -2.5122   -1.6848 H   0  0  0  0  0  0  0  0  0  0  0  0
   -1.1213   -1.9691   -0.4597 C   0  0  0  0  0  0  0  0  0  0  0  0
   -0.2329   -2.6506    0.0165 O   0  0  0  0  0  0  0  0  0  0  0  0
   -0.8800   -0.6666   -0.8558 N   0  0  0  0  0  0  0  0  0  0  0  0
   -1.6417   -0.1884   -1.3274 H   0  0  0  0  0  0  0  0  0  0  0  0
    0.4407   -0.0070   -0.8145 C   0  0  1  0  0  0  0  0  0  0  0  0
    1.1602   -0.5552   -1.4344 H   0  0  0  0  0  0  0  0  0  0  0  0
    0.1864    1.3947   -1.4188 C   0  0  0  0  0  0  0  0  0  0  0  0
   -0.2102    1.2718   -2.4299 H   0  0  0  0  0  0  0  0  0  0  0  0
   -0.5736    1.9059   -0.8221 H   0  0  0  0  0  0  0  0  0  0  0  0
    1.3830    2.3411   -1.5224 C   0  0  0  0  0  0  0  0  0  0  0  0
    2.4893    2.0069   -1.1477 O   0  0  0  0  0  0  0  0  0  0  0  0
    1.1180    3.5570   -2.0515 O   0  0  0  0  0  0  0  0  0  0  0  0
    1.9635    4.0331   -2.0460 H   0  0  0  0  0  0  0  0  0  0  0  0
    1.0238    0.0517    0.6224 C   0  0  0  0  0  0  0  0  0  0  0  0
    2.1917   -0.2361    0.8409 O   0  0  0  0  0  0  0  0  0  0  0  0
    0.2148    0.4309    1.6798 N   0  0  0  0  0  0  0  0  0  0  0  0
   -0.7775    0.5014    1.4855 H   0  0  0  0  0  0  0  0  0  0  0  0
    0.6565    0.3727    3.0678 C   0  0  0  0  0  0  0  0  0  0  0  0
    1.5484    0.9918    3.2125 H   0  0  0  0  0  0  0  0  0  0  0  0
   -0.1302    0.7427    3.7318 H   0  0  0  0  0  0  0  0  0  0  0  0
    0.8946   -0.6584    3.3497 H   0  0  0  0  0  0  0  0  0  0  0  0
  1  2  1  0  0  0  0
  2  3  1  0  0  0  0
  2  4  1  0  0  0  0
  2  5  1  0  0  0  0
  5  6  2  0  0  0  0
  5  7  1  0  0  0  0
  7  8  1  0  0  0  0
  7  9  1  0  0  0  0
  9 10  1  0  0  0  0
  9 11  1  0  0  0  0
  9 18  1  0  0  0  0
 11 12  1  0  0  0  0
 11 13  1  0  0  0  0
 11 14  1  0  0  0  0
 14 15  2  0  0  0  0
 14 16  1  0  0  0  0
 16 17  1  0  0  0  0
 18 19  2  0  0  0  0
 18 20  1  0  0  0  0
 20 21  1  0  0  0  0
 20 22  1  0  0  0  0
 22 23  1  0  0  0  0
 22 24  1  0  0  0  0
 22 25  1  0  0  0  0
M  END
$$$$

  -OEChem-02102214113D

 25 24  0     1  0  0  0  0  0999 V2000
   -2.5062   -3.6276   -0.3212 H   0  0  0  0  0  0  0  0  0  0  0  0
   -2.5104   -2.5824   -0.6437 C   0  0  0  0  0  0  0  0  0  0  0  0
   -3.2427   -2.0334   -0.0472 H   0  0  0  0  0  0  0  0  0  0  0  0
   -2.8012   -2.5419   -1.6962 H   0  0  0  0  0  0  0  0  0  0  0  0
   -1.1317   -1.9760   -0.4608 C   0  0  0  0  0  0  0  0  0  0  0  0
   -0.2405   -2.6456    0.0273 O   0  0  0  0  0  0  0  0  0  0  0  0
   -0.9009   -0.6718   -0.8580 N   0  0  0  0  0  0  0  0  0  0  0  0
   -1.6627   -0.2041   -1.3398 H   0  0  0  0  0  0  0  0  0  0  0  0
    0.4176   -0.0071   -0.8254 C   0  0  1  0  0  0  0  0  0  0  0  0
    1.1327   -0.5505   -1.4551 H   0  0  0  0  0  0  0  0  0  0  0  0
    0.1681    1.4038   -1.4059 C   0  0  0  0  0  0  0  0  0  0  0  0
   -0.2378    1.3070   -2.4161 H   0  0  0  0  0  0  0  0  0  0  0  0
   -0.5795    1.9136   -0.7921 H   0  0  0  0  0  0  0  0  0  0  0  0
    1.3862    2.3233   -1.4952 C   0  0  0  0  0  0  0  0  0  0  0  0
    2.5121    1.8769   -1.3891 O   0  0  0  0  0  0  0  0  0  0  0  0
    1.1249    3.6346   -1.6968 O   0  0  0  0  0  0  0  0  0  0  0  0
    1.9911    4.0717   -1.7127 H   0  0  0  0  0  0  0  0  0  0  0  0
    1.0136    0.0541    0.6062 C   0  0  0  0  0  0  0  0  0  0  0  0
    2.1962   -0.1775    0.8100 O   0  0  0  0  0  0  0  0  0  0  0  0
    0.2106    0.4295    1.6693 N   0  0  0  0  0  0  0  0  0  0  0  0
   -0.7864    0.4628    1.4895 H   0  0  0  0  0  0  0  0  0  0  0  0
    0.6732    0.4056    3.0515 C   0  0  0  0  0  0  0  0  0  0  0  0
    1.5490    1.0518    3.1743 H   0  0  0  0  0  0  0  0  0  0  0  0
   -0.1146    0.7637    3.7209 H   0  0  0  0  0  0  0  0  0  0  0  0
    0.9440   -0.6140    3.3456 H   0  0  0  0  0  0  0  0  0  0  0  0
  1  2  1  0  0  0  0
  2  3  1  0  0  0  0
  2  4  1  0  0  0  0
  2  5  1  0  0  0  0
  5  6  2  0  0  0  0
  5  7  1  0  0  0  0
  7  8  1  0  0  0  0
  7  9  1  0  0  0  0
  9 10  1  0  0  0  0
  9 11  1  0  0  0  0
  9 18  1  0  0  0  0
 11 12  1  0  0  0  0
 11 13  1  0  0  0  0
 11 14  1  0  0  0  0
 14 15  2  0  0  0  0
 14 16  1  0  0  0  0
 16 17  1  0  0  0  0
 18 19  2  0  0  0  0
 18 20  1  0  0  0  0
 20 21  1  0  0  0  0
 20 22  1  0  0  0  0
 22 23  1  0  0  0  0
 22 24  1  0  0  0  0
 22 25  1  0  0  0  0
M  END
$$$$

  -OEChem-02102214113D

 25 24  0     1  0  0  0  0  0999 V2000
   -2.4982   -3.6533   -0.3467 H   0  0  0  0  0  0  0  0  0  0  0  0
   -2.5124   -2.6073   -0.6663 C   0  0  0  0  0  0  0  0  0  0  0  0
   -3.2593   -2.0697   -0.0774 H   0  0  0  0  0  0  0  0  0  0  0  0
   -2.7906   -2.5676   -1.7222 H   0  0  0  0  0  0  0  0  0  0  0  0
   -1.1443   -1.9831   -0.4654 C   0  0  0  0  0  0  0  0  0  0  0  0
   -0.2512   -2.6394    0.0372 O   0  0  0  0  0  0  0  0  0  0  0  0
   -0.9256   -0.6754   -0.8573 N   0  0  0  0  0  0  0  0  0  0  0  0
   -1.6852   -0.2199   -1.3542 H   0  0  0  0  0  0  0  0  0  0  0  0
    0.3888   -0.0040   -0.8282 C   0  0  1  0  0  0  0  0  0  0  0  0
    1.0999   -0.5436   -1.4658 H   0  0  0  0  0  0  0  0  0  0  0  0
    0.1451    1.4125   -1.3919 C   0  0  0  0  0  0  0  0  0  0  0  0
   -0.2615    1.3363   -2.4034 H   0  0  0  0  0  0  0  0  0  0  0  0
   -0.5950    1.9236   -0.7697 H   0  0  0  0  0  0  0  0  0  0  0  0
    1.3865    2.3000   -1.4612 C   0  0  0  0  0  0  0  0  0  0  0  0
    2.4827    1.7990   -1.6297 O   0  0  0  0  0  0  0  0  0  0  0  0
    1.1881    3.6316   -1.3340 O   0  0  0  0  0  0  0  0  0  0  0  0
    2.0718    4.0302   -1.3759 H   0  0  0  0  0  0  0  0  0  0  0  0
    1.0001    0.0570    0.5962 C   0  0  0  0  0  0  0  0  0  0  0  0
    2.1987   -0.1019    0.7748 O   0  0  0  0  0  0  0  0  0  0  0  0
    0.2056    0.4236    1.6685 N   0  0  0  0  0  0  0  0  0  0  0  0
   -0.7955    0.4152    1.5082 H   0  0  0  0  0  0  0  0  0  0  0  0
    0.6958    0.4463    3.0410 C   0  0  0  0  0  0  0  0  0  0  0  0
    1.5442    1.1328    3.1337 H   0  0  0  0  0  0  0  0  0  0  0  0
   -0.0937    0.7819    3.7200 H   0  0  0  0  0  0  0  0  0  0  0  0
    1.0170   -0.5547    3.3484 H   0  0  0  0  0  0  0  0  0  0  0  0
  1  2  1  0  0  0  0
  2  3  1  0  0  0  0
  2  4  1  0  0  0  0
  2  5  1  0  0  0  0
  5  6  2  0  0  0  0
  5  7  1  0  0  0  0
  7  8  1  0  0  0  0
  7  9  1  0  0  0  0
  9 10  1  0  0  0  0
  9 11  1  0  0  0  0
  9 18  1  0  0  0  0
 11 12  1  0  0  0  0
 11 13  1  0  0  0  0
 11 14  1  0  0  0  0
 14 15  2  0  0  0  0
 14 16  1  0  0  0  0
 16 17  1  0  0  0  0
 18 19  2  0  0  0  0
 18 20  1  0  0  0  0
 20 21  1  0  0  0  0
 20 22  1  0  0  0  0
 22 23  1  0  0  0  0
 22 24  1  0  0  0  0
 22 25  1  0  0  0  0
M  END
$$$$

  -OEChem-02102214113D

 25 24  0     1  0  0  0  0  0999 V2000
   -2.4894   -3.6769   -0.3744 H   0  0  0  0  0  0  0  0  0  0  0  0
   -2.5136   -2.6283   -0.6846 C   0  0  0  0  0  0  0  0  0  0  0  0
   -3.2658   -2.1031   -0.0913 H   0  0  0  0  0  0  0  0  0  0  0  0
   -2.7924   -2.5817   -1.7400 H   0  0  0  0  0  0  0  0  0  0  0  0
   -1.1518   -1.9918   -0.4777 C   0  0  0  0  0  0  0  0  0  0  0  0
   -0.2539   -2.6389    0.0288 O   0  0  0  0  0  0  0  0  0  0  0  0
   -0.9455   -0.6795   -0.8603 N   0  0  0  0  0  0  0  0  0  0  0  0
   -1.7078   -0.2290   -1.3578 H   0  0  0  0  0  0  0  0  0  0  0  0
    0.3630    0.0021   -0.8282 C   0  0  1  0  0  0  0  0  0  0  0  0
    1.0739   -0.5346   -1.4689 H   0  0  0  0  0  0  0  0  0  0  0  0
    0.1261    1.4200   -1.3856 C   0  0  0  0  0  0  0  0  0  0  0  0
   -0.2712    1.3555   -2.4017 H   0  0  0  0  0  0  0  0  0  0  0  0
   -0.6138    1.9349   -0.7668 H   0  0  0  0  0  0  0  0  0  0  0  0
    1.3889    2.2762   -1.4296 C   0  0  0  0  0  0  0  0  0  0  0  0
    2.4202    1.7890   -1.8567 O   0  0  0  0  0  0  0  0  0  0  0  0
    1.2904    3.5503   -0.9867 O   0  0  0  0  0  0  0  0  0  0  0  0
    2.1865    3.9167   -1.0492 H   0  0  0  0  0  0  0  0  0  0  0  0
    0.9863    0.0638    0.5897 C   0  0  0  0  0  0  0  0  0  0  0  0
    2.1959   -0.0222    0.7430 O   0  0  0  0  0  0  0  0  0  0  0  0
    0.1988    0.4179    1.6708 N   0  0  0  0  0  0  0  0  0  0  0  0
   -0.8044    0.3726    1.5287 H   0  0  0  0  0  0  0  0  0  0  0  0
    0.7124    0.4833    3.0334 C   0  0  0  0  0  0  0  0  0  0  0  0
    1.5334    1.2051    3.1000 H   0  0  0  0  0  0  0  0  0  0  0  0
   -0.0779    0.7980    3.7212 H   0  0  0  0  0  0  0  0  0  0  0  0
    1.0798   -0.4984    3.3506 H   0  0  0  0  0  0  0  0  0  0  0  0
  1  2  1  0  0  0  0
  2  3  1  0  0  0  0
  2  4  1  0  0  0  0
  2  5  1  0  0  0  0
  5  6  2  0  0  0  0
  5  7  1  0  0  0  0
  7  8  1  0  0  0  0
  7  9  1  0  0  0  0
  9 10  1  0  0  0  0
  9 11  1  0  0  0  0
  9 18  1  0  0  0  0
 11 12  1  0  0  0  0
 11 13  1  0  0  0  0
 11 14  1  0  0  0  0
 14 15  2  0  0  0  0
 14 16  1  0  0  0  0
 16 17  1  0  0  0  0
 18 19  2  0  0  0  0
 18 20  1  0  0  0  0
 20 21  1  0  0  0  0
 20 22  1  0  0  0  0
 22 23  1  0  0  0  0
 22 24  1  0  0  0  0
 22 25  1  0  0  0  0
M  END
$$$$

  -OEChem-02102214113D

 25 24  0     1  0  0  0  0  0999 V2000
   -2.4868   -3.6889   -0.3799 H   0  0  0  0  0  0  0  0  0  0  0  0
   -2.5141   -2.6448   -0.7048 C   0  0  0  0  0  0  0  0  0  0  0  0
   -3.2783   -2.1173   -0.1290 H   0  0  0  0  0  0  0  0  0  0  0  0
   -2.7790   -2.6147   -1.7643 H   0  0  0  0  0  0  0  0  0  0  0  0
   -1.1594   -1.9961   -0.4895 C   0  0  0  0  0  0  0  0  0  0  0  0
   -0.2549   -2.6392    0.0107 O   0  0  0  0  0  0  0  0  0  0  0  0
   -0.9638   -0.6789   -0.8610 N   0  0  0  0  0  0  0  0  0  0  0  0
   -1.7285   -0.2302   -1.3566 H   0  0  0  0  0  0  0  0  0  0  0  0
    0.3408    0.0094   -0.8242 C   0  0  1  0  0  0  0  0  0  0  0  0
    1.0504   -0.5249   -1.4682 H   0  0  0  0  0  0  0  0  0  0  0  0
    0.1112    1.4272   -1.3801 C   0  0  0  0  0  0  0  0  0  0  0  0
   -0.2758    1.3691   -2.4007 H   0  0  0  0  0  0  0  0  0  0  0  0
   -0.6287    1.9490   -0.7670 H   0  0  0  0  0  0  0  0  0  0  0  0
    1.3911    2.2557   -1.4019 C   0  0  0  0  0  0  0  0  0  0  0  0
    2.3322    1.8516   -2.0620 O   0  0  0  0  0  0  0  0  0  0  0  0
    1.4140    3.4000   -0.6809 O   0  0  0  0  0  0  0  0  0  0  0  0
    2.3175    3.7428   -0.7653 H   0  0  0  0  0  0  0  0  0  0  0  0
    0.9751    0.0678    0.5880 C   0  0  0  0  0  0  0  0  0  0  0  0
    2.1899    0.0205    0.7200 O   0  0  0  0  0  0  0  0  0  0  0  0
    0.1959    0.4102    1.6785 N   0  0  0  0  0  0  0  0  0  0  0  0
   -0.8086    0.3529    1.5508 H   0  0  0  0  0  0  0  0  0  0  0  0
    0.7289    0.5142    3.0310 C   0  0  0  0  0  0  0  0  0  0  0  0
    1.5222    1.2679    3.0735 H   0  0  0  0  0  0  0  0  0  0  0  0
   -0.0617    0.8079    3.7279 H   0  0  0  0  0  0  0  0  0  0  0  0
    1.1391   -0.4481    3.3552 H   0  0  0  0  0  0  0  0  0  0  0  0
  1  2  1  0  0  0  0
  2  3  1  0  0  0  0
  2  4  1  0  0  0  0
  2  5  1  0  0  0  0
  5  6  2  0  0  0  0
  5  7  1  0  0  0  0
  7  8  1  0  0  0  0
  7  9  1  0  0  0  0
  9 10  1  0  0  0  0
  9 11  1  0  0  0  0
  9 18  1  0  0  0  0
 11 12  1  0  0  0  0
 11 13  1  0  0  0  0
 11 14  1  0  0  0  0
 14 15  2  0  0  0  0
 14 16  1  0  0  0  0
 16 17  1  0  0  0  0
 18 19  2  0  0  0  0
 18 20  1  0  0  0  0
 20 21  1  0  0  0  0
 20 22  1  0  0  0  0
 22 23  1  0  0  0  0
 22 24  1  0  0  0  0
 22 25  1  0  0  0  0
M  END
$$$$

  -OEChem-02102214113D

 25 24  0     1  0  0  0  0  0999 V2000
   -2.4883   -3.6901   -0.3865 H   0  0  0  0  0  0  0  0  0  0  0  0
   -2.5153   -2.6477   -0.7170 C   0  0  0  0  0  0  0  0  0  0  0  0
   -3.2823   -2.1181   -0.1470 H   0  0  0  0  0  0  0  0  0  0  0  0
   -2.7754   -2.6231   -1.7780 H   0  0  0  0  0  0  0  0  0  0  0  0
   -1.1622   -1.9966   -0.4985 C   0  0  0  0  0  0  0  0  0  0  0  0
   -0.2553   -2.6397   -0.0025 O   0  0  0  0  0  0  0  0  0  0  0  0
   -0.9698   -0.6769   -0.8618 N   0  0  0  0  0  0  0  0  0  0  0  0
   -1.7355   -0.2259   -1.3538 H   0  0  0  0  0  0  0  0  0  0  0  0
    0.3325    0.0141   -0.8171 C   0  0  1  0  0  0  0  0  0  0  0  0
    1.0436   -0.5200   -1.4596 H   0  0  0  0  0  0  0  0  0  0  0  0
    0.1072    1.4279   -1.3820 C   0  0  0  0  0  0  0  0  0  0  0  0
   -0.2695    1.3658   -2.4064 H   0  0  0  0  0  0  0  0  0  0  0  0
   -0.6366    1.9565   -0.7794 H   0  0  0  0  0  0  0  0  0  0  0  0
    1.3947    2.2426   -1.3878 C   0  0  0  0  0  0  0  0  0  0  0  0
    2.2326    1.9874   -2.2351 O   0  0  0  0  0  0  0  0  0  0  0  0
    1.5350    3.2129   -0.4557 O   0  0  0  0  0  0  0  0  0  0  0  0
    2.4349    3.5567   -0.5678 H   0  0  0  0  0  0  0  0  0  0  0  0
    0.9697    0.0700    0.5935 C   0  0  0  0  0  0  0  0  0  0  0  0
    2.1859    0.0224    0.7158 O   0  0  0  0  0  0  0  0  0  0  0  0
    0.1961    0.4056    1.6898 N   0  0  0  0  0  0  0  0  0  0  0  0
   -0.8096    0.3650    1.5658 H   0  0  0  0  0  0  0  0  0  0  0  0
    0.7384    0.5208    3.0377 C   0  0  0  0  0  0  0  0  0  0  0  0
    1.5200    1.2872    3.0716 H   0  0  0  0  0  0  0  0  0  0  0  0
   -0.0508    0.8031    3.7408 H   0  0  0  0  0  0  0  0  0  0  0  0
    1.1670   -0.4340    3.3605 H   0  0  0  0  0  0  0  0  0  0  0  0
  1  2  1  0  0  0  0
  2  3  1  0  0  0  0
  2  4  1  0  0  0  0
  2  5  1  0  0  0  0
  5  6  2  0  0  0  0
  5  7  1  0  0  0  0
  7  8  1  0  0  0  0
  7  9  1  0  0  0  0
  9 10  1  0  0  0  0
  9 11  1  0  0  0  0
  9 18  1  0  0  0  0
 11 12  1  0  0  0  0
 11 13  1  0  0  0  0
 11 14  1  0  0  0  0
 14 15  2  0  0  0  0
 14 16  1  0  0  0  0
 16 17  1  0  0  0  0
 18 19  2  0  0  0  0
 18 20  1  0  0  0  0
 20 21  1  0  0  0  0
 20 22  1  0  0  0  0
 22 23  1  0  0  0  0
 22 24  1  0  0  0  0
 22 25  1  0  0  0  0
M  END
$$$$

  -OEChem-02102214113D

 25 24  0     1  0  0  0  0  0999 V2000
   -2.4923   -3.6906   -0.4157 H   0  0  0  0  0  0  0  0  0  0  0  0
   -2.5209   -2.6405   -0.7210 C   0  0  0  0  0  0  0  0  0  0  0  0
   -3.2807   -2.1232   -0.1302 H   0  0  0  0  0  0  0  0  0  0  0  0
   -2.7924   -2.5903   -1.7781 H   0  0  0  0  0  0  0  0  0  0  0  0
   -1.1645   -1.9967   -0.5021 C   0  0  0  0  0  0  0  0  0  0  0  0
   -0.2586   -2.6472   -0.0140 O   0  0  0  0  0  0  0  0  0  0  0  0
   -0.9668   -0.6761   -0.8594 N   0  0  0  0  0  0  0  0  0  0  0  0
   -1.7326   -0.2167   -1.3433 H   0  0  0  0  0  0  0  0  0  0  0  0
    0.3370    0.0113   -0.8056 C   0  0  1  0  0  0  0  0  0  0  0  0
    1.0486   -0.5288   -1.4425 H   0  0  0  0  0  0  0  0  0  0  0  0
    0.1209    1.4192   -1.3888 C   0  0  0  0  0  0  0  0  0  0  0  0
   -0.2476    1.3440   -2.4156 H   0  0  0  0  0  0  0  0  0  0  0  0
   -0.6274    1.9558   -0.7994 H   0  0  0  0  0  0  0  0  0  0  0  0
    1.4073    2.2361   -1.3892 C   0  0  0  0  0  0  0  0  0  0  0  0
    2.1272    2.1724   -2.3705 O   0  0  0  0  0  0  0  0  0  0  0  0
    1.6524    3.0338   -0.3244 O   0  0  0  0  0  0  0  0  0  0  0  0
    2.5327    3.4124   -0.4724 H   0  0  0  0  0  0  0  0  0  0  0  0
    0.9710    0.0627    0.6061 C   0  0  0  0  0  0  0  0  0  0  0  0
    2.1864   -0.0098    0.7284 O   0  0  0  0  0  0  0  0  0  0  0  0
    0.1986    0.3973    1.7035 N   0  0  0  0  0  0  0  0  0  0  0  0
   -0.8073    0.3838    1.5755 H   0  0  0  0  0  0  0  0  0  0  0  0
    0.7405    0.5062    3.0518 C   0  0  0  0  0  0  0  0  0  0  0  0
    1.5332    1.2610    3.0857 H   0  0  0  0  0  0  0  0  0  0  0  0
   -0.0455    0.8012    3.7534 H   0  0  0  0  0  0  0  0  0  0  0  0
    1.1545   -0.4544    3.3762 H   0  0  0  0  0  0  0  0  0  0  0  0
  1  2  1  0  0  0  0
  2  3  1  0  0  0  0
  2  4  1  0  0  0  0
  2  5  1  0  0  0  0
  5  6  2  0  0  0  0
  5  7  1  0  0  0  0
  7  8  1  0  0  0  0
  7  9  1  0  0  0  0
  9 10  1  0  0  0  0
  9 11  1  0  0  0  0
  9 18  1  0  0  0  0
 11 12  1  0  0  0  0
 11 13  1  0  0  0  0
 11 14  1  0  0  0  0
 14 15  2  0  0  0  0
 14 16  1  0  0  0  0
 16 17  1  0  0  0  0
 18 19  2  0  0  0  0
 18 20  1  0  0  0  0
 20 21  1  0  0  0  0
 20 22  1  0  0  0  0
 22 23  1  0  0  0  0
 22 24  1  0  0  0  0
 22 25  1  0  0  0  0
M  END
$$$$

  -OEChem-02102214113D

 25 24  0     1  0  0  0  0  0999 V2000
   -2.5019   -3.6774   -0.4177 H   0  0  0  0  0  0  0  0  0  0  0  0
   -2.5270   -2.6232   -0.7086 C   0  0  0  0  0  0  0  0  0  0  0  0
   -3.2754   -2.1088   -0.1013 H   0  0  0  0  0  0  0  0  0  0  0  0
   -2.8121   -2.5573   -1.7613 H   0  0  0  0  0  0  0  0  0  0  0  0
   -1.1630   -1.9924   -0.4988 C   0  0  0  0  0  0  0  0  0  0  0  0
   -0.2594   -2.6528   -0.0199 O   0  0  0  0  0  0  0  0  0  0  0  0
   -0.9545   -0.6735   -0.8564 N   0  0  0  0  0  0  0  0  0  0  0  0
   -1.7210   -0.2025   -1.3278 H   0  0  0  0  0  0  0  0  0  0  0  0
    0.3531    0.0059   -0.7959 C   0  0  1  0  0  0  0  0  0  0  0  0
    1.0651   -0.5458   -1.4220 H   0  0  0  0  0  0  0  0  0  0  0  0
    0.1469    1.4058   -1.4057 C   0  0  0  0  0  0  0  0  0  0  0  0
   -0.2167    1.3089   -2.4327 H   0  0  0  0  0  0  0  0  0  0  0  0
   -0.6064    1.9512   -0.8312 H   0  0  0  0  0  0  0  0  0  0  0  0
    1.4253    2.2377   -1.4138 C   0  0  0  0  0  0  0  0  0  0  0  0
    2.0042    2.3829   -2.4765 O   0  0  0  0  0  0  0  0  0  0  0  0
    1.7791    2.8730   -0.2730 O   0  0  0  0  0  0  0  0  0  0  0  0
    2.6224    3.3133   -0.4592 H   0  0  0  0  0  0  0  0  0  0  0  0
    0.9778    0.0546    0.6194 C   0  0  0  0  0  0  0  0  0  0  0  0
    2.1882   -0.0675    0.7530 O   0  0  0  0  0  0  0  0  0  0  0  0
    0.2022    0.3951    1.7125 N   0  0  0  0  0  0  0  0  0  0  0  0
   -0.8018    0.4124    1.5726 H   0  0  0  0  0  0  0  0  0  0  0  0
    0.7306    0.4635    3.0685 C   0  0  0  0  0  0  0  0  0  0  0  0
    1.5458    1.1928    3.1253 H   0  0  0  0  0  0  0  0  0  0  0  0
   -0.0545    0.7701    3.7661 H   0  0  0  0  0  0  0  0  0  0  0  0
    1.1107   -0.5152    3.3799 H   0  0  0  0  0  0  0  0  0  0  0  0
  1  2  1  0  0  0  0
  2  3  1  0  0  0  0
  2  4  1  0  0  0  0
  2  5  1  0  0  0  0
  5  6  2  0  0  0  0
  5  7  1  0  0  0  0
  7  8  1  0  0  0  0
  7  9  1  0  0  0  0
  9 10  1  0  0  0  0
  9 11  1  0  0  0  0
  9 18  1  0  0  0  0
 11 12  1  0  0  0  0
 11 13  1  0  0  0  0
 11 14  1  0  0  0  0
 14 15  2  0  0  0  0
 14 16  1  0  0  0  0
 16 17  1  0  0  0  0
 18 19  2  0  0  0  0
 18 20  1  0  0  0  0
 20 21  1  0  0  0  0
 20 22  1  0  0  0  0
 22 23  1  0  0  0  0
 22 24  1  0  0  0  0
 22 25  1  0  0  0  0
M  END
$$$$

  -OEChem-02102214113D

 25 24  0     1  0  0  0  0  0999 V2000
   -2.5260   -3.6532   -0.4029 H   0  0  0  0  0  0  0  0  0  0  0  0
   -2.5359   -2.5996   -0.6971 C   0  0  0  0  0  0  0  0  0  0  0  0
   -3.2750   -2.0722   -0.0894 H   0  0  0  0  0  0  0  0  0  0  0  0
   -2.8223   -2.5323   -1.7494 H   0  0  0  0  0  0  0  0  0  0  0  0
   -1.1621   -1.9887   -0.4920 C   0  0  0  0  0  0  0  0  0  0  0  0
   -0.2658   -2.6631   -0.0192 O   0  0  0  0  0  0  0  0  0  0  0  0
   -0.9360   -0.6736   -0.8528 N   0  0  0  0  0  0  0  0  0  0  0  0
   -1.7001   -0.1908   -1.3162 H   0  0  0  0  0  0  0  0  0  0  0  0
    0.3780   -0.0062   -0.7875 C   0  0  1  0  0  0  0  0  0  0  0  0
    1.0904   -0.5691   -1.4031 H   0  0  0  0  0  0  0  0  0  0  0  0
    0.1756    1.3855   -1.4230 C   0  0  0  0  0  0  0  0  0  0  0  0
   -0.1894    1.2642   -2.4474 H   0  0  0  0  0  0  0  0  0  0  0  0
   -0.5824    1.9349   -0.8586 H   0  0  0  0  0  0  0  0  0  0  0  0
    1.4373    2.2456   -1.4528 C   0  0  0  0  0  0  0  0  0  0  0  0
    1.8455    2.6057   -2.5435 O   0  0  0  0  0  0  0  0  0  0  0  0
    1.9265    2.7133   -0.2825 O   0  0  0  0  0  0  0  0  0  0  0  0
    2.7156    3.2309   -0.5025 H   0  0  0  0  0  0  0  0  0  0  0  0
    0.9895    0.0389    0.6338 C   0  0  0  0  0  0  0  0  0  0  0  0
    2.1900   -0.1452    0.7854 O   0  0  0  0  0  0  0  0  0  0  0  0
    0.2088    0.3899    1.7201 N   0  0  0  0  0  0  0  0  0  0  0  0
   -0.7918    0.4429    1.5664 H   0  0  0  0  0  0  0  0  0  0  0  0
    0.7195    0.4207    3.0843 C   0  0  0  0  0  0  0  0  0  0  0  0
    1.5580    1.1209    3.1626 H   0  0  0  0  0  0  0  0  0  0  0  0
   -0.0646    0.7435    3.7758 H   0  0  0  0  0  0  0  0  0  0  0  0
    1.0623   -0.5747    3.3861 H   0  0  0  0  0  0  0  0  0  0  0  0
  1  2  1  0  0  0  0
  2  3  1  0  0  0  0
  2  4  1  0  0  0  0
  2  5  1  0  0  0  0
  5  6  2  0  0  0  0
  5  7  1  0  0  0  0
  7  8  1  0  0  0  0
  7  9  1  0  0  0  0
  9 10  1  0  0  0  0
  9 11  1  0  0  0  0
  9 18  1  0  0  0  0
 11 12  1  0  0  0  0
 11 13  1  0  0  0  0
 11 14  1  0  0  0  0
 14 15  2  0  0  0  0
 14 16  1  0  0  0  0
 16 17  1  0  0  0  0
 18 19  2  0  0  0  0
 18 20  1  0  0  0  0
 20 21  1  0  0  0  0
 20 22  1  0  0  0  0
 22 23  1  0  0  0  0
 22 24  1  0  0  0  0
 22 25  1  0  0  0  0
M  END
$$$$

  -OEChem-02102214113D

 25 24  0     1  0  0  0  0  0999 V2000
   -2.5416   -3.6265   -0.3703 H   0  0  0  0  0  0  0  0  0  0  0  0
   -2.5386   -2.5755   -0.6733 C   0  0  0  0  0  0  0  0  0  0  0  0
   -3.2634   -2.0318   -0.0629 H   0  0  0  0  0  0  0  0  0  0  0  0
   -2.8338   -2.5128   -1.7235 H   0  0  0  0  0  0  0  0  0  0  0  0
   -1.1540   -1.9839   -0.4860 C   0  0  0  0  0  0  0  0  0  0  0  0
   -0.2622   -2.6712   -0.0239 O   0  0  0  0  0  0  0  0  0  0  0  0
   -0.9134   -0.6731   -0.8536 N   0  0  0  0  0  0  0  0  0  0  0  0
   -1.6759   -0.1800   -1.3087 H   0  0  0  0  0  0  0  0  0  0  0  0
    0.4067   -0.0165   -0.7869 C   0  0  1  0  0  0  0  0  0  0  0  0
    1.1206   -0.5851   -1.3951 H   0  0  0  0  0  0  0  0  0  0  0  0
    0.2001    1.3704   -1.4379 C   0  0  0  0  0  0  0  0  0  0  0  0
   -0.1694    1.2284   -2.4580 H   0  0  0  0  0  0  0  0  0  0  0  0
   -0.5629    1.9163   -0.8772 H   0  0  0  0  0  0  0  0  0  0  0  0
    1.4376    2.2673   -1.4979 C   0  0  0  0  0  0  0  0  0  0  0  0
    1.6480    2.8391   -2.5539 O   0  0  0  0  0  0  0  0  0  0  0  0
    2.1196    2.5347   -0.3637 O   0  0  0  0  0  0  0  0  0  0  0  0
    2.8456    3.1276   -0.6089 H   0  0  0  0  0  0  0  0  0  0  0  0
    1.0006    0.0252    0.6432 C   0  0  0  0  0  0  0  0  0  0  0  0
    2.1847   -0.2277    0.8213 O   0  0  0  0  0  0  0  0  0  0  0  0
    0.2101    0.3872    1.7194 N   0  0  0  0  0  0  0  0  0  0  0  0
   -0.7849    0.4759    1.5476 H   0  0  0  0  0  0  0  0  0  0  0  0
    0.6939    0.3775    3.0940 C   0  0  0  0  0  0  0  0  0  0  0  0
    1.5624    1.0366    3.1983 H   0  0  0  0  0  0  0  0  0  0  0  0
   -0.0878    0.7287    3.7741 H   0  0  0  0  0  0  0  0  0  0  0  0
    0.9835   -0.6364    3.3896 H   0  0  0  0  0  0  0  0  0  0  0  0
  1  2  1  0  0  0  0
  2  3  1  0  0  0  0
  2  4  1  0  0  0  0
  2  5  1  0  0  0  0
  5  6  2  0  0  0  0
  5  7  1  0  0  0  0
  7  8  1  0  0  0  0
  7  9  1  0  0  0  0
  9 10  1  0  0  0  0
  9 11  1  0  0  0  0
  9 18  1  0  0  0  0
 11 12  1  0  0  0  0
 11 13  1  0  0  0  0
 11 14  1  0  0  0  0
 14 15  2  0  0  0  0
 14 16  1  0  0  0  0
 16 17  1  0  0  0  0
 18 19  2  0  0  0  0
 18 20  1  0  0  0  0
 20 21  1  0  0  0  0
 20 22  1  0  0  0  0
 22 23  1  0  0  0  0
 22 24  1  0  0  0  0
 22 25  1  0  0  0  0
M  END
$$$$

  -OEChem-02102214113D

 25 24  0     1  0  0  0  0  0999 V2000
   -2.5501   -3.6010   -0.3324 H   0  0  0  0  0  0  0  0  0  0  0  0
   -2.5339   -2.5530   -0.6454 C   0  0  0  0  0  0  0  0  0  0  0  0
   -3.2493   -1.9938   -0.0377 H   0  0  0  0  0  0  0  0  0  0  0  0
   -2.8325   -2.4964   -1.6949 H   0  0  0  0  0  0  0  0  0  0  0  0
   -1.1408   -1.9780   -0.4697 C   0  0  0  0  0  0  0  0  0  0  0  0
   -0.2565   -2.6727   -0.0046 O   0  0  0  0  0  0  0  0  0  0  0  0
   -0.8872   -0.6738   -0.8517 N   0  0  0  0  0  0  0  0  0  0  0  0
   -1.6466   -0.1785   -1.3093 H   0  0  0  0  0  0  0  0  0  0  0  0
    0.4374   -0.0248   -0.7914 C   0  0  1  0  0  0  0  0  0  0  0  0
    1.1541   -0.5920   -1.3973 H   0  0  0  0  0  0  0  0  0  0  0  0
    0.2120    1.3627   -1.4393 C   0  0  0  0  0  0  0  0  0  0  0  0
   -0.1700    1.2122   -2.4536 H   0  0  0  0  0  0  0  0  0  0  0  0
   -0.5521    1.8957   -0.8677 H   0  0  0  0  0  0  0  0  0  0  0  0
    1.4225    2.2950   -1.5316 C   0  0  0  0  0  0  0  0  0  0  0  0
    1.4294    3.0693   -2.4730 O   0  0  0  0  0  0  0  0  0  0  0  0
    2.3452    2.3212   -0.5486 O   0  0  0  0  0  0  0  0  0  0  0  0
    3.0048    2.9847   -0.7995 H   0  0  0  0  0  0  0  0  0  0  0  0
    1.0153    0.0218    0.6462 C   0  0  0  0  0  0  0  0  0  0  0  0
    2.1810   -0.2867    0.8553 O   0  0  0  0  0  0  0  0  0  0  0  0
    0.2105    0.3991    1.7068 N   0  0  0  0  0  0  0  0  0  0  0  0
   -0.7786    0.5052    1.5126 H   0  0  0  0  0  0  0  0  0  0  0  0
    0.6560    0.3429    3.0932 C   0  0  0  0  0  0  0  0  0  0  0  0
    1.5510    0.9585    3.2328 H   0  0  0  0  0  0  0  0  0  0  0  0
   -0.1272    0.7184    3.7585 H   0  0  0  0  0  0  0  0  0  0  0  0
    0.8902   -0.6885    3.3776 H   0  0  0  0  0  0  0  0  0  0  0  0
  1  2  1  0  0  0  0
  2  3  1  0  0  0  0
  2  4  1  0  0  0  0
  2  5  1  0  0  0  0
  5  6  2  0  0  0  0
  5  7  1  0  0  0  0
  7  8  1  0  0  0  0
  7  9  1  0  0  0  0
  9 10  1  0  0  0  0
  9 11  1  0  0  0  0
  9 18  1  0  0  0  0
 11 12  1  0  0  0  0
 11 13  1  0  0  0  0
 11 14  1  0  0  0  0
 14 15  2  0  0  0  0
 14 16  1  0  0  0  0
 16 17  1  0  0  0  0
 18 19  2  0  0  0  0
 18 20  1  0  0  0  0
 20 21  1  0  0  0  0
 20 22  1  0  0  0  0
 22 23  1  0  0  0  0
 22 24  1  0  0  0  0
 22 25  1  0  0  0  0
M  END
$$$$

  -OEChem-02102214113D

 25 24  0     1  0  0  0  0  0999 V2000
   -2.5423   -3.5947   -0.3070 H   0  0  0  0  0  0  0  0  0  0  0  0
   -2.5251   -2.5494   -0.6287 C   0  0  0  0  0  0  0  0  0  0  0  0
   -3.2401   -1.9847   -0.0258 H   0  0  0  0  0  0  0  0  0  0  0  0
   -2.8229   -2.5011   -1.6788 H   0  0  0  0  0  0  0  0  0  0  0  0
   -1.1317   -1.9740   -0.4563 C   0  0  0  0  0  0  0  0  0  0  0  0
   -0.2496   -2.6651    0.0180 O   0  0  0  0  0  0  0  0  0  0  0  0
   -0.8770   -0.6734   -0.8503 N   0  0  0  0  0  0  0  0  0  0  0  0
   -1.6337   -0.1859   -1.3206 H   0  0  0  0  0  0  0  0  0  0  0  0
    0.4487   -0.0246   -0.7992 C   0  0  1  0  0  0  0  0  0  0  0  0
    1.1683   -0.5821   -1.4105 H   0  0  0  0  0  0  0  0  0  0  0  0
    0.2075    1.3724   -1.4202 C   0  0  0  0  0  0  0  0  0  0  0  0
   -0.1847    1.2366   -2.4322 H   0  0  0  0  0  0  0  0  0  0  0  0
   -0.5523    1.8920   -0.8302 H   0  0  0  0  0  0  0  0  0  0  0  0
    1.4092    2.3145   -1.5219 C   0  0  0  0  0  0  0  0  0  0  0  0
    1.2664    3.2765   -2.2567 O   0  0  0  0  0  0  0  0  0  0  0  0
    2.5502    2.0609   -0.8504 O   0  0  0  0  0  0  0  0  0  0  0  0
    3.1728    2.7692   -1.0708 H   0  0  0  0  0  0  0  0  0  0  0  0
    1.0184    0.0272    0.6431 C   0  0  0  0  0  0  0  0  0  0  0  0
    2.1774   -0.2894    0.8731 O   0  0  0  0  0  0  0  0  0  0  0  0
    0.2029    0.4120    1.6933 N   0  0  0  0  0  0  0  0  0  0  0  0
   -0.7860    0.4995    1.4878 H   0  0  0  0  0  0  0  0  0  0  0  0
    0.6267    0.3402    3.0861 C   0  0  0  0  0  0  0  0  0  0  0  0
    1.5296    0.9398    3.2434 H   0  0  0  0  0  0  0  0  0  0  0  0
   -0.1597    0.7248    3.7424 H   0  0  0  0  0  0  0  0  0  0  0  0
    0.8397   -0.6967    3.3670 H   0  0  0  0  0  0  0  0  0  0  0  0
  1  2  1  0  0  0  0
  2  3  1  0  0  0  0
  2  4  1  0  0  0  0
  2  5  1  0  0  0  0
  5  6  2  0  0  0  0
  5  7  1  0  0  0  0
  7  8  1  0  0  0  0
  7  9  1  0  0  0  0
  9 10  1  0  0  0  0
  9 11  1  0  0  0  0
  9 18  1  0  0  0  0
 11 12  1  0  0  0  0
 11 13  1  0  0  0  0
 11 14  1  0  0  0  0
 14 15  2  0  0  0  0
 14 16  1  0  0  0  0
 16 17  1  0  0  0  0
 18 19  2  0  0  0  0
 18 20  1  0  0  0  0
 20 21  1  0  0  0  0
 20 22  1  0  0  0  0
 22 23  1  0  0  0  0
 22 24  1  0  0  0  0
 22 25  1  0  0  0  0
M  END
$$$$

  -OEChem-02102214113D

 25 24  0     1  0  0  0  0  0999 V2000
   -2.5264   -3.6510   -0.3530 H   0  0  0  0  0  0  0  0  0  0  0  0
   -2.5323   -2.6044   -0.6704 C   0  0  0  0  0  0  0  0  0  0  0  0
   -3.2732   -2.0619   -0.0785 H   0  0  0  0  0  0  0  0  0  0  0  0
   -2.8128   -2.5598   -1.7255 H   0  0  0  0  0  0  0  0  0  0  0  0
   -1.1582   -1.9924   -0.4713 C   0  0  0  0  0  0  0  0  0  0  0  0
   -0.2680   -2.6572    0.0259 O   0  0  0  0  0  0  0  0  0  0  0  0
   -0.9292   -0.6850   -0.8574 N   0  0  0  0  0  0  0  0  0  0  0  0
   -1.6893   -0.2142   -1.3392 H   0  0  0  0  0  0  0  0  0  0  0  0
    0.3876   -0.0200   -0.8111 C   0  0  1  0  0  0  0  0  0  0  0  0
    1.0911   -0.5790   -1.4402 H   0  0  0  0  0  0  0  0  0  0  0  0
    0.1758    1.3965   -1.3877 C   0  0  0  0  0  0  0  0  0  0  0  0
   -0.4278    1.3246   -2.2963 H   0  0  0  0  0  0  0  0  0  0  0  0
   -0.3715    2.0076   -0.6646 H   0  0  0  0  0  0  0  0  0  0  0  0
    1.4597    2.1325   -1.7684 C   0  0  0  0  0  0  0  0  0  0  0  0
    1.3229    3.2548   -2.2242 O   0  0  0  0  0  0  0  0  0  0  0  0
    2.6481    1.4921   -1.7137 O   0  0  0  0  0  0  0  0  0  0  0  0
    3.3224    2.1269   -1.9973 H   0  0  0  0  0  0  0  0  0  0  0  0
    0.9951    0.0424    0.6141 C   0  0  0  0  0  0  0  0  0  0  0  0
    2.1955   -0.1013    0.7966 O   0  0  0  0  0  0  0  0  0  0  0  0
    0.1971    0.4139    1.6820 N   0  0  0  0  0  0  0  0  0  0  0  0
   -0.8039    0.4040    1.5192 H   0  0  0  0  0  0  0  0  0  0  0  0
    0.6838    0.4502    3.0556 C   0  0  0  0  0  0  0  0  0  0  0  0
    1.5290    1.1408    3.1449 H   0  0  0  0  0  0  0  0  0  0  0  0
   -0.1088    0.7882    3.7298 H   0  0  0  0  0  0  0  0  0  0  0  0
    1.0091   -0.5465    3.3720 H   0  0  0  0  0  0  0  0  0  0  0  0
  1  2  1  0  0  0  0
  2  3  1  0  0  0  0
  2  4  1  0  0  0  0
  2  5  1  0  0  0  0
  5  6  2  0  0  0  0
  5  7  1  0  0  0  0
  7  8  1  0  0  0  0
  7  9  1  0  0  0  0
  9 10  1  0  0  0  0
  9 11  1  0  0  0  0
  9 18  1  0  0  0  0
 11 12  1  0  0  0  0
 11 13  1  0  0  0  0
 11 14  1  0  0  0  0
 14 15  2  0  0  0  0
 14 16  1  0  0  0  0
 16 17  1  0  0  0  0
 18 19  2  0  0  0  0
 18 20  1  0  0  0  0
 20 21  1  0  0  0  0
 20 22  1  0  0  0  0
 22 23  1  0  0  0  0
 22 24  1  0  0  0  0
 22 25  1  0  0  0  0
M  END
$$$$

  -OEChem-02102214113D

 25 24  0     1  0  0  0  0  0999 V2000
   -2.5175   -3.6790   -0.3992 H   0  0  0  0  0  0  0  0  0  0  0  0
   -2.5401   -2.6241   -0.6873 C   0  0  0  0  0  0  0  0  0  0  0  0
   -3.2837   -2.1084   -0.0754 H   0  0  0  0  0  0  0  0  0  0  0  0
   -2.8292   -2.5547   -1.7386 H   0  0  0  0  0  0  0  0  0  0  0  0
   -1.1733   -1.9986   -0.4808 C   0  0  0  0  0  0  0  0  0  0  0  0
   -0.2792   -2.6541    0.0219 O   0  0  0  0  0  0  0  0  0  0  0  0
   -0.9541   -0.6875   -0.8599 N   0  0  0  0  0  0  0  0  0  0  0  0
   -1.7145   -0.2212   -1.3459 H   0  0  0  0  0  0  0  0  0  0  0  0
    0.3597   -0.0175   -0.8118 C   0  0  1  0  0  0  0  0  0  0  0  0
    1.0567   -0.5822   -1.4430 H   0  0  0  0  0  0  0  0  0  0  0  0
    0.1649    1.4009   -1.3847 C   0  0  0  0  0  0  0  0  0  0  0  0
   -0.4283    1.3407   -2.3006 H   0  0  0  0  0  0  0  0  0  0  0  0
   -0.3817    2.0172   -0.6650 H   0  0  0  0  0  0  0  0  0  0  0  0
    1.4713    2.1059   -1.7460 C   0  0  0  0  0  0  0  0  0  0  0  0
    1.4097    3.3093   -1.9297 O   0  0  0  0  0  0  0  0  0  0  0  0
    2.5814    1.3710   -1.9851 O   0  0  0  0  0  0  0  0  0  0  0  0
    3.2909    1.9995   -2.1857 H   0  0  0  0  0  0  0  0  0  0  0  0
    0.9845    0.0476    0.6038 C   0  0  0  0  0  0  0  0  0  0  0  0
    2.1957   -0.0278    0.7542 O   0  0  0  0  0  0  0  0  0  0  0  0
    0.1995    0.4123    1.6832 N   0  0  0  0  0  0  0  0  0  0  0  0
   -0.8042    0.3675    1.5433 H   0  0  0  0  0  0  0  0  0  0  0  0
    0.7153    0.4841    3.0447 C   0  0  0  0  0  0  0  0  0  0  0  0
    1.5382    1.2044    3.1059 H   0  0  0  0  0  0  0  0  0  0  0  0
   -0.0732    0.8040    3.7324 H   0  0  0  0  0  0  0  0  0  0  0  0
    1.0814   -0.4968    3.3661 H   0  0  0  0  0  0  0  0  0  0  0  0
  1  2  1  0  0  0  0
  2  3  1  0  0  0  0
  2  4  1  0  0  0  0
  2  5  1  0  0  0  0
  5  6  2  0  0  0  0
  5  7  1  0  0  0  0
  7  8  1  0  0  0  0
  7  9  1  0  0  0  0
  9 10  1  0  0  0  0
  9 11  1  0  0  0  0
  9 18  1  0  0  0  0
 11 12  1  0  0  0  0
 11 13  1  0  0  0  0
 11 14  1  0  0  0  0
 14 15  2  0  0  0  0
 14 16  1  0  0  0  0
 16 17  1  0  0  0  0
 18 19  2  0  0  0  0
 18 20  1  0  0  0  0
 20 21  1  0  0  0  0
 20 22  1  0  0  0  0
 22 23  1  0  0  0  0
 22 24  1  0  0  0  0
 22 25  1  0  0  0  0
M  END
$$$$

  -OEChem-02102214113D

 25 24  0     1  0  0  0  0  0999 V2000
   -2.5164   -3.6978   -0.4314 H   0  0  0  0  0  0  0  0  0  0  0  0
   -2.5465   -2.6411   -0.7125 C   0  0  0  0  0  0  0  0  0  0  0  0
   -3.3000   -2.1361   -0.1037 H   0  0  0  0  0  0  0  0  0  0  0  0
   -2.8272   -2.5669   -1.7658 H   0  0  0  0  0  0  0  0  0  0  0  0
   -1.1876   -2.0041   -0.4904 C   0  0  0  0  0  0  0  0  0  0  0  0
   -0.2914   -2.6525    0.0182 O   0  0  0  0  0  0  0  0  0  0  0  0
   -0.9780   -0.6891   -0.8604 N   0  0  0  0  0  0  0  0  0  0  0  0
   -1.7382   -0.2287   -1.3522 H   0  0  0  0  0  0  0  0  0  0  0  0
    0.3325   -0.0142   -0.8116 C   0  0  1  0  0  0  0  0  0  0  0  0
    1.0247   -0.5801   -1.4469 H   0  0  0  0  0  0  0  0  0  0  0  0
    0.1444    1.4040   -1.3837 C   0  0  0  0  0  0  0  0  0  0  0  0
   -0.4412    1.3508   -2.3047 H   0  0  0  0  0  0  0  0  0  0  0  0
   -0.4021    2.0244   -0.6671 H   0  0  0  0  0  0  0  0  0  0  0  0
    1.4678    2.0821   -1.7294 C   0  0  0  0  0  0  0  0  0  0  0  0
    1.5110    3.2971   -1.6418 O   0  0  0  0  0  0  0  0  0  0  0  0
    2.4768    1.3313   -2.2291 O   0  0  0  0  0  0  0  0  0  0  0  0
    3.2265    1.9326   -2.3539 H   0  0  0  0  0  0  0  0  0  0  0  0
    0.9768    0.0516    0.5934 C   0  0  0  0  0  0  0  0  0  0  0  0
    2.1936    0.0164    0.7116 O   0  0  0  0  0  0  0  0  0  0  0  0
    0.2084    0.4081    1.6869 N   0  0  0  0  0  0  0  0  0  0  0  0
   -0.7973    0.3441    1.5709 H   0  0  0  0  0  0  0  0  0  0  0  0
    0.7550    0.5194    3.0335 C   0  0  0  0  0  0  0  0  0  0  0  0
    1.5591    1.2625    3.0609 H   0  0  0  0  0  0  0  0  0  0  0  0
   -0.0249    0.8313    3.7346 H   0  0  0  0  0  0  0  0  0  0  0  0
    1.1553   -0.4450    3.3638 H   0  0  0  0  0  0  0  0  0  0  0  0
  1  2  1  0  0  0  0
  2  3  1  0  0  0  0
  2  4  1  0  0  0  0
  2  5  1  0  0  0  0
  5  6  2  0  0  0  0
  5  7  1  0  0  0  0
  7  8  1  0  0  0  0
  7  9  1  0  0  0  0
  9 10  1  0  0  0  0
  9 11  1  0  0  0  0
  9 18  1  0  0  0  0
 11 12  1  0  0  0  0
 11 13  1  0  0  0  0
 11 14  1  0  0  0  0
 14 15  2  0  0  0  0
 14 16  1  0  0  0  0
 16 17  1  0  0  0  0
 18 19  2  0  0  0  0
 18 20  1  0  0  0  0
 20 21  1  0  0  0  0
 20 22  1  0  0  0  0
 22 23  1  0  0  0  0
 22 24  1  0  0  0  0
 22 25  1  0  0  0  0
M  END
$$$$

  -OEChem-02102214113D

 25 24  0     1  0  0  0  0  0999 V2000
   -2.5088   -3.7084   -0.4414 H   0  0  0  0  0  0  0  0  0  0  0  0
   -2.5462   -2.6517   -0.7215 C   0  0  0  0  0  0  0  0  0  0  0  0
   -3.3030   -2.1524   -0.1120 H   0  0  0  0  0  0  0  0  0  0  0  0
   -2.8279   -2.5787   -1.7746 H   0  0  0  0  0  0  0  0  0  0  0  0
   -1.1914   -2.0056   -0.4997 C   0  0  0  0  0  0  0  0  0  0  0  0
   -0.2884   -2.6502    0.0019 O   0  0  0  0  0  0  0  0  0  0  0  0
   -0.9921   -0.6871   -0.8634 N   0  0  0  0  0  0  0  0  0  0  0  0
   -1.7572   -0.2280   -1.3486 H   0  0  0  0  0  0  0  0  0  0  0  0
    0.3144   -0.0050   -0.8154 C   0  0  1  0  0  0  0  0  0  0  0  0
    1.0063   -0.5668   -1.4550 H   0  0  0  0  0  0  0  0  0  0  0  0
    0.1230    1.4100   -1.3903 C   0  0  0  0  0  0  0  0  0  0  0  0
   -0.4571    1.3575   -2.3147 H   0  0  0  0  0  0  0  0  0  0  0  0
   -0.4262    2.0333   -0.6783 H   0  0  0  0  0  0  0  0  0  0  0  0
    1.4567    2.0700   -1.7258 C   0  0  0  0  0  0  0  0  0  0  0  0
    1.6178    3.2292   -1.3853 O   0  0  0  0  0  0  0  0  0  0  0  0
    2.3563    1.3692   -2.4548 O   0  0  0  0  0  0  0  0  0  0  0  0
    3.1427    1.9323   -2.5227 H   0  0  0  0  0  0  0  0  0  0  0  0
    0.9716    0.0621    0.5825 C   0  0  0  0  0  0  0  0  0  0  0  0
    2.1905    0.0329    0.6816 O   0  0  0  0  0  0  0  0  0  0  0  0
    0.2145    0.4103    1.6862 N   0  0  0  0  0  0  0  0  0  0  0  0
   -0.7925    0.3470    1.5821 H   0  0  0  0  0  0  0  0  0  0  0  0
    0.7783    0.5359    3.0245 C   0  0  0  0  0  0  0  0  0  0  0  0
    1.5744    1.2880    3.0367 H   0  0  0  0  0  0  0  0  0  0  0  0
    0.0046    0.8437    3.7342 H   0  0  0  0  0  0  0  0  0  0  0  0
    1.1938   -0.4218    3.3552 H   0  0  0  0  0  0  0  0  0  0  0  0
  1  2  1  0  0  0  0
  2  3  1  0  0  0  0
  2  4  1  0  0  0  0
  2  5  1  0  0  0  0
  5  6  2  0  0  0  0
  5  7  1  0  0  0  0
  7  8  1  0  0  0  0
  7  9  1  0  0  0  0
  9 10  1  0  0  0  0
  9 11  1  0  0  0  0
  9 18  1  0  0  0  0
 11 12  1  0  0  0  0
 11 13  1  0  0  0  0
 11 14  1  0  0  0  0
 14 15  2  0  0  0  0
 14 16  1  0  0  0  0
 16 17  1  0  0  0  0
 18 19  2  0  0  0  0
 18 20  1  0  0  0  0
 20 21  1  0  0  0  0
 20 22  1  0  0  0  0
 22 23  1  0  0  0  0
 22 24  1  0  0  0  0
 22 25  1  0  0  0  0
M  END
$$$$

  -OEChem-02102214113D

 25 24  0     1  0  0  0  0  0999 V2000
   -2.4974   -3.7096   -0.4306 H   0  0  0  0  0  0  0  0  0  0  0  0
   -2.5404   -2.6537   -0.7128 C   0  0  0  0  0  0  0  0  0  0  0  0
   -3.2901   -2.1547   -0.0942 H   0  0  0  0  0  0  0  0  0  0  0  0
   -2.8365   -2.5832   -1.7622 H   0  0  0  0  0  0  0  0  0  0  0  0
   -1.1839   -2.0048   -0.5101 C   0  0  0  0  0  0  0  0  0  0  0  0
   -0.2713   -2.6483   -0.0249 O   0  0  0  0  0  0  0  0  0  0  0  0
   -0.9947   -0.6841   -0.8698 N   0  0  0  0  0  0  0  0  0  0  0  0
   -1.7686   -0.2241   -1.3400 H   0  0  0  0  0  0  0  0  0  0  0  0
    0.3066    0.0074   -0.8220 C   0  0  1  0  0  0  0  0  0  0  0  0
    1.0030   -0.5472   -1.4635 H   0  0  0  0  0  0  0  0  0  0  0  0
    0.1049    1.4168   -1.4036 C   0  0  0  0  0  0  0  0  0  0  0  0
   -0.4722    1.3588   -2.3296 H   0  0  0  0  0  0  0  0  0  0  0  0
   -0.4485    2.0418   -0.6963 H   0  0  0  0  0  0  0  0  0  0  0  0
    1.4404    2.0724   -1.7337 C   0  0  0  0  0  0  0  0  0  0  0  0
    1.7222    3.1174   -1.1738 O   0  0  0  0  0  0  0  0  0  0  0  0
    2.2273    1.4789   -2.6609 O   0  0  0  0  0  0  0  0  0  0  0  0
    3.0431    2.0027   -2.6895 H   0  0  0  0  0  0  0  0  0  0  0  0
    0.9682    0.0764    0.5735 C   0  0  0  0  0  0  0  0  0  0  0  0
    2.1872    0.0329    0.6667 O   0  0  0  0  0  0  0  0  0  0  0  0
    0.2152    0.4162    1.6824 N   0  0  0  0  0  0  0  0  0  0  0  0
   -0.7925    0.3657    1.5797 H   0  0  0  0  0  0  0  0  0  0  0  0
    0.7837    0.5329    3.0193 C   0  0  0  0  0  0  0  0  0  0  0  0
    1.5827    1.2820    3.0324 H   0  0  0  0  0  0  0  0  0  0  0  0
    0.0135    0.8402    3.7329 H   0  0  0  0  0  0  0  0  0  0  0  0
    1.1966   -0.4279    3.3443 H   0  0  0  0  0  0  0  0  0  0  0  0
  1  2  1  0  0  0  0
  2  3  1  0  0  0  0
  2  4  1  0  0  0  0
  2  5  1  0  0  0  0
  5  6  2  0  0  0  0
  5  7  1  0  0  0  0
  7  8  1  0  0  0  0
  7  9  1  0  0  0  0
  9 10  1  0  0  0  0
  9 11  1  0  0  0  0
  9 18  1  0  0  0  0
 11 12  1  0  0  0  0
 11 13  1  0  0  0  0
 11 14  1  0  0  0  0
 14 15  2  0  0  0  0
 14 16  1  0  0  0  0
 16 17  1  0  0  0  0
 18 19  2  0  0  0  0
 18 20  1  0  0  0  0
 20 21  1  0  0  0  0
 20 22  1  0  0  0  0
 22 23  1  0  0  0  0
 22 24  1  0  0  0  0
 22 25  1  0  0  0  0
M  END
$$$$

  -OEChem-02102214113D

 25 24  0     1  0  0  0  0  0999 V2000
   -2.4862   -3.7121   -0.4345 H   0  0  0  0  0  0  0  0  0  0  0  0
   -2.5339   -2.6551   -0.7124 C   0  0  0  0  0  0  0  0  0  0  0  0
   -3.2838   -2.1613   -0.0899 H   0  0  0  0  0  0  0  0  0  0  0  0
   -2.8329   -2.5821   -1.7607 H   0  0  0  0  0  0  0  0  0  0  0  0
   -1.1795   -2.0015   -0.5113 C   0  0  0  0  0  0  0  0  0  0  0  0
   -0.2628   -2.6449   -0.0342 O   0  0  0  0  0  0  0  0  0  0  0  0
   -0.9956   -0.6794   -0.8694 N   0  0  0  0  0  0  0  0  0  0  0  0
   -1.7737   -0.2194   -1.3325 H   0  0  0  0  0  0  0  0  0  0  0  0
    0.3029    0.0172   -0.8217 C   0  0  1  0  0  0  0  0  0  0  0  0
    1.0019   -0.5337   -1.4638 H   0  0  0  0  0  0  0  0  0  0  0  0
    0.0908    1.4210   -1.4128 C   0  0  0  0  0  0  0  0  0  0  0  0
   -0.4872    1.3539   -2.3379 H   0  0  0  0  0  0  0  0  0  0  0  0
   -0.4656    2.0482   -0.7100 H   0  0  0  0  0  0  0  0  0  0  0  0
    1.4218    2.0826   -1.7444 C   0  0  0  0  0  0  0  0  0  0  0  0
    1.8287    2.9663   -1.0109 O   0  0  0  0  0  0  0  0  0  0  0  0
    2.0844    1.6496   -2.8413 O   0  0  0  0  0  0  0  0  0  0  0  0
    2.9237    2.1361   -2.8499 H   0  0  0  0  0  0  0  0  0  0  0  0
    0.9662    0.0880    0.5728 C   0  0  0  0  0  0  0  0  0  0  0  0
    2.1834    0.0126    0.6663 O   0  0  0  0  0  0  0  0  0  0  0  0
    0.2166    0.4240    1.6851 N   0  0  0  0  0  0  0  0  0  0  0  0
   -0.7917    0.3971    1.5812 H   0  0  0  0  0  0  0  0  0  0  0  0
    0.7881    0.5289    3.0215 C   0  0  0  0  0  0  0  0  0  0  0  0
    1.5921    1.2725    3.0372 H   0  0  0  0  0  0  0  0  0  0  0  0
    0.0214    0.8366    3.7388 H   0  0  0  0  0  0  0  0  0  0  0  0
    1.1951   -0.4369    3.3391 H   0  0  0  0  0  0  0  0  0  0  0  0
  1  2  1  0  0  0  0
  2  3  1  0  0  0  0
  2  4  1  0  0  0  0
  2  5  1  0  0  0  0
  5  6  2  0  0  0  0
  5  7  1  0  0  0  0
  7  8  1  0  0  0  0
  7  9  1  0  0  0  0
  9 10  1  0  0  0  0
  9 11  1  0  0  0  0
  9 18  1  0  0  0  0
 11 12  1  0  0  0  0
 11 13  1  0  0  0  0
 11 14  1  0  0  0  0
 14 15  2  0  0  0  0
 14 16  1  0  0  0  0
 16 17  1  0  0  0  0
 18 19  2  0  0  0  0
 18 20  1  0  0  0  0
 20 21  1  0  0  0  0
 20 22  1  0  0  0  0
 22 23  1  0  0  0  0
 22 24  1  0  0  0  0
 22 25  1  0  0  0  0
M  END
$$$$

  -OEChem-02102214113D

 25 24  0     1  0  0  0  0  0999 V2000
   -2.4772   -3.7055   -0.4262 H   0  0  0  0  0  0  0  0  0  0  0  0
   -2.5248   -2.6484   -0.7035 C   0  0  0  0  0  0  0  0  0  0  0  0
   -3.2722   -2.1540   -0.0785 H   0  0  0  0  0  0  0  0  0  0  0  0
   -2.8265   -2.5742   -1.7510 H   0  0  0  0  0  0  0  0  0  0  0  0
   -1.1691   -1.9965   -0.5062 C   0  0  0  0  0  0  0  0  0  0  0  0
   -0.2507   -2.6421   -0.0353 O   0  0  0  0  0  0  0  0  0  0  0  0
   -0.9852   -0.6750   -0.8665 N   0  0  0  0  0  0  0  0  0  0  0  0
   -1.7658   -0.2142   -1.3245 H   0  0  0  0  0  0  0  0  0  0  0  0
    0.3121    0.0242   -0.8182 C   0  0  1  0  0  0  0  0  0  0  0  0
    1.0151   -0.5255   -1.4562 H   0  0  0  0  0  0  0  0  0  0  0  0
    0.0880    1.4208   -1.4242 C   0  0  0  0  0  0  0  0  0  0  0  0
   -0.4931    1.3384   -2.3465 H   0  0  0  0  0  0  0  0  0  0  0  0
   -0.4737    2.0493   -0.7272 H   0  0  0  0  0  0  0  0  0  0  0  0
    1.4056    2.1045   -1.7656 C   0  0  0  0  0  0  0  0  0  0  0  0
    1.9403    2.7979   -0.9192 O   0  0  0  0  0  0  0  0  0  0  0  0
    1.9260    1.8829   -2.9942 O   0  0  0  0  0  0  0  0  0  0  0  0
    2.7795    2.3440   -3.0037 H   0  0  0  0  0  0  0  0  0  0  0  0
    0.9686    0.0967    0.5798 C   0  0  0  0  0  0  0  0  0  0  0  0
    2.1808   -0.0258    0.6864 O   0  0  0  0  0  0  0  0  0  0  0  0
    0.2152    0.4329    1.6896 N   0  0  0  0  0  0  0  0  0  0  0  0
   -0.7923    0.4351    1.5752 H   0  0  0  0  0  0  0  0  0  0  0  0
    0.7766    0.5083    3.0322 C   0  0  0  0  0  0  0  0  0  0  0  0
    1.5934    1.2371    3.0650 H   0  0  0  0  0  0  0  0  0  0  0  0
    0.0093    0.8191    3.7473 H   0  0  0  0  0  0  0  0  0  0  0  0
    1.1639   -0.4690    3.3392 H   0  0  0  0  0  0  0  0  0  0  0  0
  1  2  1  0  0  0  0
  2  3  1  0  0  0  0
  2  4  1  0  0  0  0
  2  5  1  0  0  0  0
  5  6  2  0  0  0  0
  5  7  1  0  0  0  0
  7  8  1  0  0  0  0
  7  9  1  0  0  0  0
  9 10  1  0  0  0  0
  9 11  1  0  0  0  0
  9 18  1  0  0  0  0
 11 12  1  0  0  0  0
 11 13  1  0  0  0  0
 11 14  1  0  0  0  0
 14 15  2  0  0  0  0
 14 16  1  0  0  0  0
 16 17  1  0  0  0  0
 18 19  2  0  0  0  0
 18 20  1  0  0  0  0
 20 21  1  0  0  0  0
 20 22  1  0  0  0  0
 22 23  1  0  0  0  0
 22 24  1  0  0  0  0
 22 25  1  0  0  0  0
M  END
$$$$

  -OEChem-02102214113D

 25 24  0     1  0  0  0  0  0999 V2000
   -2.4662   -3.6832   -0.3701 H   0  0  0  0  0  0  0  0  0  0  0  0
   -2.5098   -2.6282   -0.6558 C   0  0  0  0  0  0  0  0  0  0  0  0
   -3.2307   -2.1191   -0.0119 H   0  0  0  0  0  0  0  0  0  0  0  0
   -2.8439   -2.5600   -1.6938 H   0  0  0  0  0  0  0  0  0  0  0  0
   -1.1405   -1.9917   -0.5074 C   0  0  0  0  0  0  0  0  0  0  0  0
   -0.2148   -2.6478   -0.0669 O   0  0  0  0  0  0  0  0  0  0  0  0
   -0.9540   -0.6722   -0.8744 N   0  0  0  0  0  0  0  0  0  0  0  0
   -1.7455   -0.1995   -1.3005 H   0  0  0  0  0  0  0  0  0  0  0  0
    0.3426    0.0295   -0.8234 C   0  0  1  0  0  0  0  0  0  0  0  0
    1.0550   -0.5191   -1.4522 H   0  0  0  0  0  0  0  0  0  0  0  0
    0.1057    1.4201   -1.4438 C   0  0  0  0  0  0  0  0  0  0  0  0
   -0.4785    1.3182   -2.3622 H   0  0  0  0  0  0  0  0  0  0  0  0
   -0.4647    2.0468   -0.7528 H   0  0  0  0  0  0  0  0  0  0  0  0
    1.4026    2.1379   -1.7995 C   0  0  0  0  0  0  0  0  0  0  0  0
    2.0718    2.6251   -0.9074 O   0  0  0  0  0  0  0  0  0  0  0  0
    1.7530    2.1782   -3.1053 O   0  0  0  0  0  0  0  0  0  0  0  0
    2.6121    2.6283   -3.1318 H   0  0  0  0  0  0  0  0  0  0  0  0
    0.9764    0.1019    0.5862 C   0  0  0  0  0  0  0  0  0  0  0  0
    2.1777   -0.0790    0.7266 O   0  0  0  0  0  0  0  0  0  0  0  0
    0.2031    0.4397    1.6824 N   0  0  0  0  0  0  0  0  0  0  0  0
   -0.8003    0.4698    1.5417 H   0  0  0  0  0  0  0  0  0  0  0  0
    0.7276    0.4584    3.0419 C   0  0  0  0  0  0  0  0  0  0  0  0
    1.5720    1.1520    3.1169 H   0  0  0  0  0  0  0  0  0  0  0  0
   -0.0472    0.7825    3.7431 H   0  0  0  0  0  0  0  0  0  0  0  0
    1.0657   -0.5414    3.3341 H   0  0  0  0  0  0  0  0  0  0  0  0
  1  2  1  0  0  0  0
  2  3  1  0  0  0  0
  2  4  1  0  0  0  0
  2  5  1  0  0  0  0
  5  6  2  0  0  0  0
  5  7  1  0  0  0  0
  7  8  1  0  0  0  0
  7  9  1  0  0  0  0
  9 10  1  0  0  0  0
  9 11  1  0  0  0  0
  9 18  1  0  0  0  0
 11 12  1  0  0  0  0
 11 13  1  0  0  0  0
 11 14  1  0  0  0  0
 14 15  2  0  0  0  0
 14 16  1  0  0  0  0
 16 17  1  0  0  0  0
 18 19  2  0  0  0  0
 18 20  1  0  0  0  0
 20 21  1  0  0  0  0
 20 22  1  0  0  0  0
 22 23  1  0  0  0  0
 22 24  1  0  0  0  0
 22 25  1  0  0  0  0
M  END
$$$$

  -OEChem-02102214113D

 25 24  0     1  0  0  0  0  0999 V2000
   -2.4792   -3.6635   -0.3521 H   0  0  0  0  0  0  0  0  0  0  0  0
   -2.5066   -2.6132   -0.6565 C   0  0  0  0  0  0  0  0  0  0  0  0
   -3.2351   -2.0866   -0.0357 H   0  0  0  0  0  0  0  0  0  0  0  0
   -2.8196   -2.5595   -1.7019 H   0  0  0  0  0  0  0  0  0  0  0  0
   -1.1344   -1.9870   -0.4921 C   0  0  0  0  0  0  0  0  0  0  0  0
   -0.2192   -2.6500   -0.0406 O   0  0  0  0  0  0  0  0  0  0  0  0
   -0.9333   -0.6716   -0.8664 N   0  0  0  0  0  0  0  0  0  0  0  0
   -1.7182   -0.1955   -1.3004 H   0  0  0  0  0  0  0  0  0  0  0  0
    0.3688    0.0208   -0.8157 C   0  0  1  0  0  0  0  0  0  0  0  0
    1.0833   -0.5302   -1.4393 H   0  0  0  0  0  0  0  0  0  0  0  0
    0.1242    1.4102   -1.4428 C   0  0  0  0  0  0  0  0  0  0  0  0
   -0.4672    1.2943   -2.3553 H   0  0  0  0  0  0  0  0  0  0  0  0
   -0.4493    2.0339   -0.7521 H   0  0  0  0  0  0  0  0  0  0  0  0
    1.3995    2.1593   -1.8204 C   0  0  0  0  0  0  0  0  0  0  0  0
    2.2149    2.4316   -0.9604 O   0  0  0  0  0  0  0  0  0  0  0  0
    1.5563    2.4845   -3.1242 O   0  0  0  0  0  0  0  0  0  0  0  0
    2.4177    2.9276   -3.1804 H   0  0  0  0  0  0  0  0  0  0  0  0
    0.9891    0.0918    0.6014 C   0  0  0  0  0  0  0  0  0  0  0  0
    2.1794   -0.1356    0.7651 O   0  0  0  0  0  0  0  0  0  0  0  0
    0.2061    0.4405    1.6876 N   0  0  0  0  0  0  0  0  0  0  0  0
   -0.7943    0.4893    1.5319 H   0  0  0  0  0  0  0  0  0  0  0  0
    0.7093    0.4384    3.0553 C   0  0  0  0  0  0  0  0  0  0  0  0
    1.5677    1.1122    3.1482 H   0  0  0  0  0  0  0  0  0  0  0  0
   -0.0690    0.7755    3.7463 H   0  0  0  0  0  0  0  0  0  0  0  0
    1.0209   -0.5705    3.3459 H   0  0  0  0  0  0  0  0  0  0  0  0
  1  2  1  0  0  0  0
  2  3  1  0  0  0  0
  2  4  1  0  0  0  0
  2  5  1  0  0  0  0
  5  6  2  0  0  0  0
  5  7  1  0  0  0  0
  7  8  1  0  0  0  0
  7  9  1  0  0  0  0
  9 10  1  0  0  0  0
  9 11  1  0  0  0  0
  9 18  1  0  0  0  0
 11 12  1  0  0  0  0
 11 13  1  0  0  0  0
 11 14  1  0  0  0  0
 14 15  2  0  0  0  0
 14 16  1  0  0  0  0
 16 17  1  0  0  0  0
 18 19  2  0  0  0  0
 18 20  1  0  0  0  0
 20 21  1  0  0  0  0
 20 22  1  0  0  0  0
 22 23  1  0  0  0  0
 22 24  1  0  0  0  0
 22 25  1  0  0  0  0
M  END
$$$$

  -OEChem-02102214113D

 25 24  0     1  0  0  0  0  0999 V2000
   -2.4835   -3.6486   -0.3365 H   0  0  0  0  0  0  0  0  0  0  0  0
   -2.5029   -2.5996   -0.6463 C   0  0  0  0  0  0  0  0  0  0  0  0
   -3.2291   -2.0645   -0.0300 H   0  0  0  0  0  0  0  0  0  0  0  0
   -2.8129   -2.5492   -1.6929 H   0  0  0  0  0  0  0  0  0  0  0  0
   -1.1266   -1.9826   -0.4815 C   0  0  0  0  0  0  0  0  0  0  0  0
   -0.2178   -2.6509   -0.0252 O   0  0  0  0  0  0  0  0  0  0  0  0
   -0.9146   -0.6713   -0.8645 N   0  0  0  0  0  0  0  0  0  0  0  0
   -1.6934   -0.1949   -1.3089 H   0  0  0  0  0  0  0  0  0  0  0  0
    0.3926    0.0127   -0.8160 C   0  0  1  0  0  0  0  0  0  0  0  0
    1.1085   -0.5390   -1.4375 H   0  0  0  0  0  0  0  0  0  0  0  0
    0.1437    1.4053   -1.4392 C   0  0  0  0  0  0  0  0  0  0  0  0
   -0.4553    1.2859   -2.3464 H   0  0  0  0  0  0  0  0  0  0  0  0
   -0.4286    2.0236   -0.7428 H   0  0  0  0  0  0  0  0  0  0  0  0
    1.4027    2.1759   -1.8337 C   0  0  0  0  0  0  0  0  0  0  0  0
    2.3520    2.2310   -1.0772 O   0  0  0  0  0  0  0  0  0  0  0  0
    1.3833    2.7807   -3.0435 O   0  0  0  0  0  0  0  0  0  0  0  0
    2.2502    3.2068   -3.1351 H   0  0  0  0  0  0  0  0  0  0  0  0
    0.9997    0.0829    0.6080 C   0  0  0  0  0  0  0  0  0  0  0  0
    2.1799   -0.1764    0.7946 O   0  0  0  0  0  0  0  0  0  0  0  0
    0.2064    0.4421    1.6836 N   0  0  0  0  0  0  0  0  0  0  0  0
   -0.7902    0.5098    1.5122 H   0  0  0  0  0  0  0  0  0  0  0  0
    0.6865    0.4186    3.0596 C   0  0  0  0  0  0  0  0  0  0  0  0
    1.5610    1.0686    3.1712 H   0  0  0  0  0  0  0  0  0  0  0  0
   -0.0942    0.7723    3.7396 H   0  0  0  0  0  0  0  0  0  0  0  0
    0.9663   -0.6000    3.3489 H   0  0  0  0  0  0  0  0  0  0  0  0
  1  2  1  0  0  0  0
  2  3  1  0  0  0  0
  2  4  1  0  0  0  0
  2  5  1  0  0  0  0
  5  6  2  0  0  0  0
  5  7  1  0  0  0  0
  7  8  1  0  0  0  0
  7  9  1  0  0  0  0
  9 10  1  0  0  0  0
  9 11  1  0  0  0  0
  9 18  1  0  0  0  0
 11 12  1  0  0  0  0
 11 13  1  0  0  0  0
 11 14  1  0  0  0  0
 14 15  2  0  0  0  0
 14 16  1  0  0  0  0
 16 17  1  0  0  0  0
 18 19  2  0  0  0  0
 18 20  1  0  0  0  0
 20 21  1  0  0  0  0
 20 22  1  0  0  0  0
 22 23  1  0  0  0  0
 22 24  1  0  0  0  0
 22 25  1  0  0  0  0
M  END
$$$$

  -OEChem-02102214113D

 25 24  0     1  0  0  0  0  0999 V2000
   -2.4874   -3.6392   -0.3246 H   0  0  0  0  0  0  0  0  0  0  0  0
   -2.5022   -2.5905   -0.6356 C   0  0  0  0  0  0  0  0  0  0  0  0
   -3.2251   -2.0517   -0.0187 H   0  0  0  0  0  0  0  0  0  0  0  0
   -2.8138   -2.5397   -1.6814 H   0  0  0  0  0  0  0  0  0  0  0  0
   -1.1229   -1.9796   -0.4745 C   0  0  0  0  0  0  0  0  0  0  0  0
   -0.2184   -2.6497   -0.0125 O   0  0  0  0  0  0  0  0  0  0  0  0
   -0.9045   -0.6714   -0.8646 N   0  0  0  0  0  0  0  0  0  0  0  0
   -1.6821   -0.1931   -1.3093 H   0  0  0  0  0  0  0  0  0  0  0  0
    0.4060    0.0073   -0.8199 C   0  0  1  0  0  0  0  0  0  0  0  0
    1.1220   -0.5444   -1.4410 H   0  0  0  0  0  0  0  0  0  0  0  0
    0.1590    1.4039   -1.4362 C   0  0  0  0  0  0  0  0  0  0  0  0
   -0.4420    1.2867   -2.3421 H   0  0  0  0  0  0  0  0  0  0  0  0
   -0.4120    2.0187   -0.7359 H   0  0  0  0  0  0  0  0  0  0  0  0
    1.4103    2.1837   -1.8401 C   0  0  0  0  0  0  0  0  0  0  0  0
    2.4592    2.0326   -1.2460 O   0  0  0  0  0  0  0  0  0  0  0  0
    1.2633    3.0433   -2.8740 O   0  0  0  0  0  0  0  0  0  0  0  0
    2.1349    3.4510   -2.9996 H   0  0  0  0  0  0  0  0  0  0  0  0
    1.0055    0.0776    0.6083 C   0  0  0  0  0  0  0  0  0  0  0  0
    2.1824   -0.1855    0.8087 O   0  0  0  0  0  0  0  0  0  0  0  0
    0.2053    0.4439    1.6767 N   0  0  0  0  0  0  0  0  0  0  0  0
   -0.7906    0.5022    1.4974 H   0  0  0  0  0  0  0  0  0  0  0  0
    0.6708    0.4062    3.0577 C   0  0  0  0  0  0  0  0  0  0  0  0
    1.5501    1.0470    3.1834 H   0  0  0  0  0  0  0  0  0  0  0  0
   -0.1134    0.7626    3.7322 H   0  0  0  0  0  0  0  0  0  0  0  0
    0.9379   -0.6169    3.3432 H   0  0  0  0  0  0  0  0  0  0  0  0
  1  2  1  0  0  0  0
  2  3  1  0  0  0  0
  2  4  1  0  0  0  0
  2  5  1  0  0  0  0
  5  6  2  0  0  0  0
  5  7  1  0  0  0  0
  7  8  1  0  0  0  0
  7  9  1  0  0  0  0
  9 10  1  0  0  0  0
  9 11  1  0  0  0  0
  9 18  1  0  0  0  0
 11 12  1  0  0  0  0
 11 13  1  0  0  0  0
 11 14  1  0  0  0  0
 14 15  2  0  0  0  0
 14 16  1  0  0  0  0
 16 17  1  0  0  0  0
 18 19  2  0  0  0  0
 18 20  1  0  0  0  0
 20 21  1  0  0  0  0
 20 22  1  0  0  0  0
 22 23  1  0  0  0  0
 22 24  1  0  0  0  0
 22 25  1  0  0  0  0
M  END
$$$$

  -OEChem-02102214113D

 25 24  0     1  0  0  0  0  0999 V2000
   -2.5033   -3.6366   -0.3220 H   0  0  0  0  0  0  0  0  0  0  0  0
   -2.5108   -2.5918   -0.6459 C   0  0  0  0  0  0  0  0  0  0  0  0
   -3.2405   -2.0432   -0.0458 H   0  0  0  0  0  0  0  0  0  0  0  0
   -2.8077   -2.5531   -1.6966 H   0  0  0  0  0  0  0  0  0  0  0  0
   -1.1317   -1.9830   -0.4726 C   0  0  0  0  0  0  0  0  0  0  0  0
   -0.2336   -2.6523    0.0032 O   0  0  0  0  0  0  0  0  0  0  0  0
   -0.9074   -0.6763   -0.8647 N   0  0  0  0  0  0  0  0  0  0  0  0
   -1.6779   -0.2019   -1.3257 H   0  0  0  0  0  0  0  0  0  0  0  0
    0.4062   -0.0033   -0.8226 C   0  0  1  0  0  0  0  0  0  0  0  0
    1.1187   -0.5550   -1.4481 H   0  0  0  0  0  0  0  0  0  0  0  0
    0.1630    1.4013   -1.4221 C   0  0  0  0  0  0  0  0  0  0  0  0
   -0.4437    1.2985   -2.3258 H   0  0  0  0  0  0  0  0  0  0  0  0
   -0.4002    2.0107   -0.7106 H   0  0  0  0  0  0  0  0  0  0  0  0
    1.4130    2.1819   -1.8279 C   0  0  0  0  0  0  0  0  0  0  0  0
    2.5165    1.8451   -1.4464 O   0  0  0  0  0  0  0  0  0  0  0  0
    1.2007    3.2591   -2.6176 O   0  0  0  0  0  0  0  0  0  0  0  0
    2.0780    3.6430   -2.7743 H   0  0  0  0  0  0  0  0  0  0  0  0
    1.0084    0.0664    0.6051 C   0  0  0  0  0  0  0  0  0  0  0  0
    2.1915   -0.1673    0.8040 O   0  0  0  0  0  0  0  0  0  0  0  0
    0.2088    0.4377    1.6724 N   0  0  0  0  0  0  0  0  0  0  0  0
   -0.7890    0.4724    1.4973 H   0  0  0  0  0  0  0  0  0  0  0  0
    0.6797    0.4207    3.0520 C   0  0  0  0  0  0  0  0  0  0  0  0
    1.5550    1.0690    3.1665 H   0  0  0  0  0  0  0  0  0  0  0  0
   -0.1045    0.7801    3.7250 H   0  0  0  0  0  0  0  0  0  0  0  0
    0.9552   -0.5968    3.3488 H   0  0  0  0  0  0  0  0  0  0  0  0
  1  2  1  0  0  0  0
  2  3  1  0  0  0  0
  2  4  1  0  0  0  0
  2  5  1  0  0  0  0
  5  6  2  0  0  0  0
  5  7  1  0  0  0  0
  7  8  1  0  0  0  0
  7  9  1  0  0  0  0
  9 10  1  0  0  0  0
  9 11  1  0  0  0  0
  9 18  1  0  0  0  0
 11 12  1  0  0  0  0
 11 13  1  0  0  0  0
 11 14  1  0  0  0  0
 14 15  2  0  0  0  0
 14 16  1  0  0  0  0
 16 17  1  0  0  0  0
 18 19  2  0  0  0  0
 18 20  1  0  0  0  0
 20 21  1  0  0  0  0
 20 22  1  0  0  0  0
 22 23  1  0  0  0  0
 22 24  1  0  0  0  0
 22 25  1  0  0  0  0
M  END
$$$$

  -OEChem-02102214113D

 25 24  0     1  0  0  0  0  0999 V2000
   -2.5079   -3.6492   -0.3320 H   0  0  0  0  0  0  0  0  0  0  0  0
   -2.5180   -2.6059   -0.6604 C   0  0  0  0  0  0  0  0  0  0  0  0
   -3.2586   -2.0594   -0.0719 H   0  0  0  0  0  0  0  0  0  0  0  0
   -2.8023   -2.5736   -1.7149 H   0  0  0  0  0  0  0  0  0  0  0  0
   -1.1451   -1.9876   -0.4723 C   0  0  0  0  0  0  0  0  0  0  0  0
   -0.2490   -2.6493    0.0176 O   0  0  0  0  0  0  0  0  0  0  0  0
   -0.9243   -0.6799   -0.8627 N   0  0  0  0  0  0  0  0  0  0  0  0
   -1.6898   -0.2140   -1.3403 H   0  0  0  0  0  0  0  0  0  0  0  0
    0.3899   -0.0080   -0.8260 C   0  0  1  0  0  0  0  0  0  0  0  0
    1.0955   -0.5602   -1.4588 H   0  0  0  0  0  0  0  0  0  0  0  0
    0.1584    1.4061   -1.4054 C   0  0  0  0  0  0  0  0  0  0  0  0
   -0.4560    1.3272   -2.3059 H   0  0  0  0  0  0  0  0  0  0  0  0
   -0.3910    2.0117   -0.6798 H   0  0  0  0  0  0  0  0  0  0  0  0
    1.4187    2.1733   -1.8065 C   0  0  0  0  0  0  0  0  0  0  0  0
    2.5224    1.6812   -1.6710 O   0  0  0  0  0  0  0  0  0  0  0  0
    1.2173    3.4124   -2.3095 O   0  0  0  0  0  0  0  0  0  0  0  0
    2.1024    3.7639   -2.4952 H   0  0  0  0  0  0  0  0  0  0  0  0
    1.0023    0.0590    0.5970 C   0  0  0  0  0  0  0  0  0  0  0  0
    2.1973   -0.1188    0.7805 O   0  0  0  0  0  0  0  0  0  0  0  0
    0.2078    0.4285    1.6686 N   0  0  0  0  0  0  0  0  0  0  0  0
   -0.7932    0.4263    1.5069 H   0  0  0  0  0  0  0  0  0  0  0  0
    0.6966    0.4461    3.0419 C   0  0  0  0  0  0  0  0  0  0  0  0
    1.5550    1.1201    3.1348 H   0  0  0  0  0  0  0  0  0  0  0  0
   -0.0884    0.7947    3.7196 H   0  0  0  0  0  0  0  0  0  0  0  0
    1.0032   -0.5589    3.3507 H   0  0  0  0  0  0  0  0  0  0  0  0
  1  2  1  0  0  0  0
  2  3  1  0  0  0  0
  2  4  1  0  0  0  0
  2  5  1  0  0  0  0
  5  6  2  0  0  0  0
  5  7  1  0  0  0  0
  7  8  1  0  0  0  0
  7  9  1  0  0  0  0
  9 10  1  0  0  0  0
  9 11  1  0  0  0  0
  9 18  1  0  0  0  0
 11 12  1  0  0  0  0
 11 13  1  0  0  0  0
 11 14  1  0  0  0  0
 14 15  2  0  0  0  0
 14 16  1  0  0  0  0
 16 17  1  0  0  0  0
 18 19  2  0  0  0  0
 18 20  1  0  0  0  0
 20 21  1  0  0  0  0
 20 22  1  0  0  0  0
 22 23  1  0  0  0  0
 22 24  1  0  0  0  0
 22 25  1  0  0  0  0
M  END
$$$$

  -OEChem-02102214113D

 25 24  0     1  0  0  0  0  0999 V2000
   -2.5062   -3.6697   -0.3637 H   0  0  0  0  0  0  0  0  0  0  0  0
   -2.5239   -2.6236   -0.6830 C   0  0  0  0  0  0  0  0  0  0  0  0
   -3.2750   -2.0896   -0.0964 H   0  0  0  0  0  0  0  0  0  0  0  0
   -2.7988   -2.5849   -1.7398 H   0  0  0  0  0  0  0  0  0  0  0  0
   -1.1594   -1.9930   -0.4772 C   0  0  0  0  0  0  0  0  0  0  0  0
   -0.2643   -2.6449    0.0278 O   0  0  0  0  0  0  0  0  0  0  0  0
   -0.9458   -0.6821   -0.8608 N   0  0  0  0  0  0  0  0  0  0  0  0
   -1.7079   -0.2242   -1.3516 H   0  0  0  0  0  0  0  0  0  0  0  0
    0.3664   -0.0071   -0.8241 C   0  0  1  0  0  0  0  0  0  0  0  0
    1.0659   -0.5613   -1.4618 H   0  0  0  0  0  0  0  0  0  0  0  0
    0.1457    1.4122   -1.3920 C   0  0  0  0  0  0  0  0  0  0  0  0
   -0.4673    1.3498   -2.2944 H   0  0  0  0  0  0  0  0  0  0  0  0
   -0.3975    2.0172   -0.6610 H   0  0  0  0  0  0  0  0  0  0  0  0
    1.4218    2.1589   -1.7801 C   0  0  0  0  0  0  0  0  0  0  0  0
    2.4770    1.5641   -1.8993 O   0  0  0  0  0  0  0  0  0  0  0  0
    1.2932    3.4897   -1.9830 O   0  0  0  0  0  0  0  0  0  0  0  0
    2.1854    3.8075   -2.1935 H   0  0  0  0  0  0  0  0  0  0  0  0
    0.9927    0.0583    0.5920 C   0  0  0  0  0  0  0  0  0  0  0  0
    2.1995   -0.0521    0.7510 O   0  0  0  0  0  0  0  0  0  0  0  0
    0.2074    0.4208    1.6725 N   0  0  0  0  0  0  0  0  0  0  0  0
   -0.7958    0.3807    1.5297 H   0  0  0  0  0  0  0  0  0  0  0  0
    0.7195    0.4755    3.0364 C   0  0  0  0  0  0  0  0  0  0  0  0
    1.5524    1.1831    3.1053 H   0  0  0  0  0  0  0  0  0  0  0  0
   -0.0663    0.8023    3.7239 H   0  0  0  0  0  0  0  0  0  0  0  0
    1.0702   -0.5125    3.3527 H   0  0  0  0  0  0  0  0  0  0  0  0
  1  2  1  0  0  0  0
  2  3  1  0  0  0  0
  2  4  1  0  0  0  0
  2  5  1  0  0  0  0
  5  6  2  0  0  0  0
  5  7  1  0  0  0  0
  7  8  1  0  0  0  0
  7  9  1  0  0  0  0
  9 10  1  0  0  0  0
  9 11  1  0  0  0  0
  9 18  1  0  0  0  0
 11 12  1  0  0  0  0
 11 13  1  0  0  0  0
 11 14  1  0  0  0  0
 14 15  2  0  0  0  0
 14 16  1  0  0  0  0
 16 17  1  0  0  0  0
 18 19  2  0  0  0  0
 18 20  1  0  0  0  0
 20 21  1  0  0  0  0
 20 22  1  0  0  0  0
 22 23  1  0  0  0  0
 22 24  1  0  0  0  0
 22 25  1  0  0  0  0
M  END
$$$$

  -OEChem-02102214113D

 25 24  0     1  0  0  0  0  0999 V2000
   -2.5058   -3.6856   -0.3809 H   0  0  0  0  0  0  0  0  0  0  0  0
   -2.5268   -2.6414   -0.7062 C   0  0  0  0  0  0  0  0  0  0  0  0
   -3.2908   -2.1100   -0.1342 H   0  0  0  0  0  0  0  0  0  0  0  0
   -2.7863   -2.6104   -1.7671 H   0  0  0  0  0  0  0  0  0  0  0  0
   -1.1702   -1.9988   -0.4845 C   0  0  0  0  0  0  0  0  0  0  0  0
   -0.2731   -2.6429    0.0275 O   0  0  0  0  0  0  0  0  0  0  0  0
   -0.9669   -0.6837   -0.8584 N   0  0  0  0  0  0  0  0  0  0  0  0
   -1.7278   -0.2327   -1.3576 H   0  0  0  0  0  0  0  0  0  0  0  0
    0.3414   -0.0023   -0.8201 C   0  0  1  0  0  0  0  0  0  0  0  0
    1.0374   -0.5564   -1.4622 H   0  0  0  0  0  0  0  0  0  0  0  0
    0.1293    1.4204   -1.3786 C   0  0  0  0  0  0  0  0  0  0  0  0
   -0.4801    1.3726   -2.2842 H   0  0  0  0  0  0  0  0  0  0  0  0
   -0.4097    2.0254   -0.6441 H   0  0  0  0  0  0  0  0  0  0  0  0
    1.4239    2.1421   -1.7498 C   0  0  0  0  0  0  0  0  0  0  0  0
    2.3907    1.5031   -2.1249 O   0  0  0  0  0  0  0  0  0  0  0  0
    1.4152    3.4910   -1.6520 O   0  0  0  0  0  0  0  0  0  0  0  0
    2.3119    3.7744   -1.8899 H   0  0  0  0  0  0  0  0  0  0  0  0
    0.9819    0.0611    0.5880 C   0  0  0  0  0  0  0  0  0  0  0  0
    2.1962    0.0146    0.7205 O   0  0  0  0  0  0  0  0  0  0  0  0
    0.2054    0.4129    1.6777 N   0  0  0  0  0  0  0  0  0  0  0  0
   -0.7985    0.3382    1.5544 H   0  0  0  0  0  0  0  0  0  0  0  0
    0.7413    0.5049    3.0300 C   0  0  0  0  0  0  0  0  0  0  0  0
    1.5469    1.2455    3.0734 H   0  0  0  0  0  0  0  0  0  0  0  0
   -0.0434    0.8099    3.7287 H   0  0  0  0  0  0  0  0  0  0  0  0
    1.1362   -0.4647    3.3512 H   0  0  0  0  0  0  0  0  0  0  0  0
  1  2  1  0  0  0  0
  2  3  1  0  0  0  0
  2  4  1  0  0  0  0
  2  5  1  0  0  0  0
  5  6  2  0  0  0  0
  5  7  1  0  0  0  0
  7  8  1  0  0  0  0
  7  9  1  0  0  0  0
  9 10  1  0  0  0  0
  9 11  1  0  0  0  0
  9 18  1  0  0  0  0
 11 12  1  0  0  0  0
 11 13  1  0  0  0  0
 11 14  1  0  0  0  0
 14 15  2  0  0  0  0
 14 16  1  0  0  0  0
 16 17  1  0  0  0  0
 18 19  2  0  0  0  0
 18 20  1  0  0  0  0
 20 21  1  0  0  0  0
 20 22  1  0  0  0  0
 22 23  1  0  0  0  0
 22 24  1  0  0  0  0
 22 25  1  0  0  0  0
M  END
$$$$

  -OEChem-02102214113D

 25 24  0     1  0  0  0  0  0999 V2000
   -2.4999   -3.6962   -0.3851 H   0  0  0  0  0  0  0  0  0  0  0  0
   -2.5249   -2.6565   -0.7243 C   0  0  0  0  0  0  0  0  0  0  0  0
   -3.3008   -2.1244   -0.1688 H   0  0  0  0  0  0  0  0  0  0  0  0
   -2.7707   -2.6409   -1.7888 H   0  0  0  0  0  0  0  0  0  0  0  0
   -1.1765   -2.0004   -0.4931 C   0  0  0  0  0  0  0  0  0  0  0  0
   -0.2754   -2.6368    0.0219 O   0  0  0  0  0  0  0  0  0  0  0  0
   -0.9840   -0.6814   -0.8586 N   0  0  0  0  0  0  0  0  0  0  0  0
   -1.7453   -0.2360   -1.3623 H   0  0  0  0  0  0  0  0  0  0  0  0
    0.3201    0.0070   -0.8175 C   0  0  1  0  0  0  0  0  0  0  0  0
    1.0152   -0.5439   -1.4633 H   0  0  0  0  0  0  0  0  0  0  0  0
    0.1110    1.4294   -1.3728 C   0  0  0  0  0  0  0  0  0  0  0  0
   -0.4913    1.3887   -2.2836 H   0  0  0  0  0  0  0  0  0  0  0  0
   -0.4280    2.0374   -0.6407 H   0  0  0  0  0  0  0  0  0  0  0  0
    1.4231    2.1246   -1.7266 C   0  0  0  0  0  0  0  0  0  0  0  0
    2.2755    1.5087   -2.3429 O   0  0  0  0  0  0  0  0  0  0  0  0
    1.5649    3.4122   -1.3375 O   0  0  0  0  0  0  0  0  0  0  0  0
    2.4648    3.6656   -1.5958 H   0  0  0  0  0  0  0  0  0  0  0  0
    0.9722    0.0706    0.5843 C   0  0  0  0  0  0  0  0  0  0  0  0
    2.1899    0.0573    0.6953 O   0  0  0  0  0  0  0  0  0  0  0  0
    0.2052    0.4128    1.6836 N   0  0  0  0  0  0  0  0  0  0  0  0
   -0.7994    0.3248    1.5742 H   0  0  0  0  0  0  0  0  0  0  0  0
    0.7577    0.5265    3.0277 C   0  0  0  0  0  0  0  0  0  0  0  0
    1.5400    1.2924    3.0569 H   0  0  0  0  0  0  0  0  0  0  0  0
   -0.0264    0.8088    3.7366 H   0  0  0  0  0  0  0  0  0  0  0  0
    1.1881   -0.4288    3.3463 H   0  0  0  0  0  0  0  0  0  0  0  0
  1  2  1  0  0  0  0
  2  3  1  0  0  0  0
  2  4  1  0  0  0  0
  2  5  1  0  0  0  0
  5  6  2  0  0  0  0
  5  7  1  0  0  0  0
  7  8  1  0  0  0  0
  7  9  1  0  0  0  0
  9 10  1  0  0  0  0
  9 11  1  0  0  0  0
  9 18  1  0  0  0  0
 11 12  1  0  0  0  0
 11 13  1  0  0  0  0
 11 14  1  0  0  0  0
 14 15  2  0  0  0  0
 14 16  1  0  0  0  0
 16 17  1  0  0  0  0
 18 19  2  0  0  0  0
 18 20  1  0  0  0  0
 20 21  1  0  0  0  0
 20 22  1  0  0  0  0
 22 23  1  0  0  0  0
 22 24  1  0  0  0  0
 22 25  1  0  0  0  0
M  END
$$$$

  -OEChem-02102214113D

 25 24  0     1  0  0  0  0  0999 V2000
   -2.4888   -3.7061   -0.4053 H   0  0  0  0  0  0  0  0  0  0  0  0
   -2.5206   -2.6649   -0.7391 C   0  0  0  0  0  0  0  0  0  0  0  0
   -3.3029   -2.1418   -0.1840 H   0  0  0  0  0  0  0  0  0  0  0  0
   -2.7620   -2.6456   -1.8046 H   0  0  0  0  0  0  0  0  0  0  0  0
   -1.1785   -1.9994   -0.4990 C   0  0  0  0  0  0  0  0  0  0  0  0
   -0.2749   -2.6304    0.0182 O   0  0  0  0  0  0  0  0  0  0  0  0
   -0.9947   -0.6774   -0.8577 N   0  0  0  0  0  0  0  0  0  0  0  0
   -1.7562   -0.2361   -1.3648 H   0  0  0  0  0  0  0  0  0  0  0  0
    0.3056    0.0174   -0.8124 C   0  0  1  0  0  0  0  0  0  0  0  0
    1.0027   -0.5288   -1.4604 H   0  0  0  0  0  0  0  0  0  0  0  0
    0.0970    1.4366   -1.3706 C   0  0  0  0  0  0  0  0  0  0  0  0
   -0.4966    1.3965   -2.2874 H   0  0  0  0  0  0  0  0  0  0  0  0
   -0.4444    2.0504   -0.6453 H   0  0  0  0  0  0  0  0  0  0  0  0
    1.4236    2.1075   -1.7077 C   0  0  0  0  0  0  0  0  0  0  0  0
    2.1489    1.5823   -2.5349 O   0  0  0  0  0  0  0  0  0  0  0  0
    1.7219    3.2630   -1.0711 O   0  0  0  0  0  0  0  0  0  0  0  0
    2.6183    3.4973   -1.3574 H   0  0  0  0  0  0  0  0  0  0  0  0
    0.9649    0.0819    0.5851 C   0  0  0  0  0  0  0  0  0  0  0  0
    2.1841    0.0757    0.6831 O   0  0  0  0  0  0  0  0  0  0  0  0
    0.2045    0.4164    1.6908 N   0  0  0  0  0  0  0  0  0  0  0  0
   -0.8007    0.3269    1.5890 H   0  0  0  0  0  0  0  0  0  0  0  0
    0.7681    0.5402    3.0290 C   0  0  0  0  0  0  0  0  0  0  0  0
    1.5401    1.3167    3.0493 H   0  0  0  0  0  0  0  0  0  0  0  0
   -0.0126    0.8129    3.7453 H   0  0  0  0  0  0  0  0  0  0  0  0
    1.2143   -0.4088    3.3447 H   0  0  0  0  0  0  0  0  0  0  0  0
  1  2  1  0  0  0  0
  2  3  1  0  0  0  0
  2  4  1  0  0  0  0
  2  5  1  0  0  0  0
  5  6  2  0  0  0  0
  5  7  1  0  0  0  0
  7  8  1  0  0  0  0
  7  9  1  0  0  0  0
  9 10  1  0  0  0  0
  9 11  1  0  0  0  0
  9 18  1  0  0  0  0
 11 12  1  0  0  0  0
 11 13  1  0  0  0  0
 11 14  1  0  0  0  0
 14 15  2  0  0  0  0
 14 16  1  0  0  0  0
 16 17  1  0  0  0  0
 18 19  2  0  0  0  0
 18 20  1  0  0  0  0
 20 21  1  0  0  0  0
 20 22  1  0  0  0  0
 22 23  1  0  0  0  0
 22 24  1  0  0  0  0
 22 25  1  0  0  0  0
M  END
$$$$

  -OEChem-02102214113D

 25 24  0     1  0  0  0  0  0999 V2000
   -2.4756   -3.7128   -0.4346 H   0  0  0  0  0  0  0  0  0  0  0  0
   -2.5170   -2.6636   -0.7411 C   0  0  0  0  0  0  0  0  0  0  0  0
   -3.2943   -2.1586   -0.1626 H   0  0  0  0  0  0  0  0  0  0  0  0
   -2.7731   -2.6188   -1.8025 H   0  0  0  0  0  0  0  0  0  0  0  0
   -1.1750   -1.9971   -0.5019 C   0  0  0  0  0  0  0  0  0  0  0  0
   -0.2672   -2.6300    0.0059 O   0  0  0  0  0  0  0  0  0  0  0  0
   -0.9933   -0.6738   -0.8572 N   0  0  0  0  0  0  0  0  0  0  0  0
   -1.7596   -0.2276   -1.3525 H   0  0  0  0  0  0  0  0  0  0  0  0
    0.3046    0.0244   -0.8064 C   0  0  1  0  0  0  0  0  0  0  0  0
    1.0052   -0.5214   -1.4511 H   0  0  0  0  0  0  0  0  0  0  0  0
    0.0964    1.4370   -1.3787 C   0  0  0  0  0  0  0  0  0  0  0  0
   -0.4899    1.3891   -2.3000 H   0  0  0  0  0  0  0  0  0  0  0  0
   -0.4491    2.0590   -0.6637 H   0  0  0  0  0  0  0  0  0  0  0  0
    1.4311    2.0947   -1.7041 C   0  0  0  0  0  0  0  0  0  0  0  0
    2.0308    1.7220   -2.6980 O   0  0  0  0  0  0  0  0  0  0  0  0
    1.8666    3.0786   -0.8846 O   0  0  0  0  0  0  0  0  0  0  0  0
    2.7499    3.3195   -1.2033 H   0  0  0  0  0  0  0  0  0  0  0  0
    0.9626    0.0902    0.5915 C   0  0  0  0  0  0  0  0  0  0  0  0
    2.1818    0.0625    0.6891 O   0  0  0  0  0  0  0  0  0  0  0  0
    0.2032    0.4214    1.6987 N   0  0  0  0  0  0  0  0  0  0  0  0
   -0.8033    0.3528    1.5936 H   0  0  0  0  0  0  0  0  0  0  0  0
    0.7660    0.5349    3.0381 C   0  0  0  0  0  0  0  0  0  0  0  0
    1.5510    1.2984    3.0605 H   0  0  0  0  0  0  0  0  0  0  0  0
   -0.0117    0.8203    3.7528 H   0  0  0  0  0  0  0  0  0  0  0  0
    1.1950   -0.4219    3.3539 H   0  0  0  0  0  0  0  0  0  0  0  0
  1  2  1  0  0  0  0
  2  3  1  0  0  0  0
  2  4  1  0  0  0  0
  2  5  1  0  0  0  0
  5  6  2  0  0  0  0
  5  7  1  0  0  0  0
  7  8  1  0  0  0  0
  7  9  1  0  0  0  0
  9 10  1  0  0  0  0
  9 11  1  0  0  0  0
  9 18  1  0  0  0  0
 11 12  1  0  0  0  0
 11 13  1  0  0  0  0
 11 14  1  0  0  0  0
 14 15  2  0  0  0  0
 14 16  1  0  0  0  0
 16 17  1  0  0  0  0
 18 19  2  0  0  0  0
 18 20  1  0  0  0  0
 20 21  1  0  0  0  0
 20 22  1  0  0  0  0
 22 23  1  0  0  0  0
 22 24  1  0  0  0  0
 22 25  1  0  0  0  0
M  END
$$$$

  -OEChem-02102214113D

 25 24  0     1  0  0  0  0  0999 V2000
   -2.4786   -3.7026   -0.4352 H   0  0  0  0  0  0  0  0  0  0  0  0
   -2.5182   -2.6502   -0.7309 C   0  0  0  0  0  0  0  0  0  0  0  0
   -3.2848   -2.1469   -0.1372 H   0  0  0  0  0  0  0  0  0  0  0  0
   -2.7877   -2.5933   -1.7882 H   0  0  0  0  0  0  0  0  0  0  0  0
   -1.1696   -1.9938   -0.5027 C   0  0  0  0  0  0  0  0  0  0  0  0
   -0.2622   -2.6338   -0.0035 O   0  0  0  0  0  0  0  0  0  0  0  0
   -0.9812   -0.6716   -0.8584 N   0  0  0  0  0  0  0  0  0  0  0  0
   -1.7481   -0.2182   -1.3462 H   0  0  0  0  0  0  0  0  0  0  0  0
    0.3179    0.0233   -0.8013 C   0  0  1  0  0  0  0  0  0  0  0  0
    1.0219   -0.5254   -1.4394 H   0  0  0  0  0  0  0  0  0  0  0  0
    0.1084    1.4280   -1.3921 C   0  0  0  0  0  0  0  0  0  0  0  0
   -0.4738    1.3651   -2.3155 H   0  0  0  0  0  0  0  0  0  0  0  0
   -0.4431    2.0569   -0.6879 H   0  0  0  0  0  0  0  0  0  0  0  0
    1.4415    2.0892   -1.7153 C   0  0  0  0  0  0  0  0  0  0  0  0
    1.9145    1.9173   -2.8258 O   0  0  0  0  0  0  0  0  0  0  0  0
    1.9957    2.8870   -0.7745 O   0  0  0  0  0  0  0  0  0  0  0  0
    2.8537    3.1668   -1.1279 H   0  0  0  0  0  0  0  0  0  0  0  0
    0.9672    0.0888    0.6007 C   0  0  0  0  0  0  0  0  0  0  0  0
    2.1836    0.0152    0.7096 O   0  0  0  0  0  0  0  0  0  0  0  0
    0.2042    0.4233    1.7044 N   0  0  0  0  0  0  0  0  0  0  0  0
   -0.8026    0.3844    1.5884 H   0  0  0  0  0  0  0  0  0  0  0  0
    0.7569    0.5110    3.0499 C   0  0  0  0  0  0  0  0  0  0  0  0
    1.5628    1.2518    3.0851 H   0  0  0  0  0  0  0  0  0  0  0  0
   -0.0193    0.8132    3.7594 H   0  0  0  0  0  0  0  0  0  0  0  0
    1.1565   -0.4595    3.3629 H   0  0  0  0  0  0  0  0  0  0  0  0
  1  2  1  0  0  0  0
  2  3  1  0  0  0  0
  2  4  1  0  0  0  0
  2  5  1  0  0  0  0
  5  6  2  0  0  0  0
  5  7  1  0  0  0  0
  7  8  1  0  0  0  0
  7  9  1  0  0  0  0
  9 10  1  0  0  0  0
  9 11  1  0  0  0  0
  9 18  1  0  0  0  0
 11 12  1  0  0  0  0
 11 13  1  0  0  0  0
 11 14  1  0  0  0  0
 14 15  2  0  0  0  0
 14 16  1  0  0  0  0
 16 17  1  0  0  0  0
 18 19  2  0  0  0  0
 18 20  1  0  0  0  0
 20 21  1  0  0  0  0
 20 22  1  0  0  0  0
 22 23  1  0  0  0  0
 22 24  1  0  0  0  0
 22 25  1  0  0  0  0
M  END
$$$$

  -OEChem-02102214113D

 25 24  0     1  0  0  0  0  0999 V2000
   -2.4891   -3.6859   -0.4137 H   0  0  0  0  0  0  0  0  0  0  0  0
   -2.5212   -2.6341   -0.7127 C   0  0  0  0  0  0  0  0  0  0  0  0
   -3.2771   -2.1212   -0.1135 H   0  0  0  0  0  0  0  0  0  0  0  0
   -2.8002   -2.5784   -1.7677 H   0  0  0  0  0  0  0  0  0  0  0  0
   -1.1639   -1.9904   -0.4993 C   0  0  0  0  0  0  0  0  0  0  0  0
   -0.2568   -2.6407   -0.0134 O   0  0  0  0  0  0  0  0  0  0  0  0
   -0.9660   -0.6706   -0.8591 N   0  0  0  0  0  0  0  0  0  0  0  0
   -1.7349   -0.2074   -1.3342 H   0  0  0  0  0  0  0  0  0  0  0  0
    0.3368    0.0177   -0.7989 C   0  0  1  0  0  0  0  0  0  0  0  0
    1.0429   -0.5376   -1.4288 H   0  0  0  0  0  0  0  0  0  0  0  0
    0.1280    1.4158   -1.4093 C   0  0  0  0  0  0  0  0  0  0  0  0
   -0.4551    1.3361   -2.3312 H   0  0  0  0  0  0  0  0  0  0  0  0
   -0.4277    2.0500   -0.7134 H   0  0  0  0  0  0  0  0  0  0  0  0
    1.4535    2.0912   -1.7406 C   0  0  0  0  0  0  0  0  0  0  0  0
    1.7903    2.1468   -2.9110 O   0  0  0  0  0  0  0  0  0  0  0  0
    2.1293    2.6907   -0.7350 O   0  0  0  0  0  0  0  0  0  0  0  0
    2.9514    3.0293   -1.1201 H   0  0  0  0  0  0  0  0  0  0  0  0
    0.9739    0.0817    0.6092 C   0  0  0  0  0  0  0  0  0  0  0  0
    2.1834   -0.0522    0.7366 O   0  0  0  0  0  0  0  0  0  0  0  0
    0.2051    0.4233    1.7069 N   0  0  0  0  0  0  0  0  0  0  0  0
   -0.8005    0.4195    1.5768 H   0  0  0  0  0  0  0  0  0  0  0  0
    0.7425    0.4774    3.0603 C   0  0  0  0  0  0  0  0  0  0  0  0
    1.5727    1.1896    3.1141 H   0  0  0  0  0  0  0  0  0  0  0  0
   -0.0318    0.7984    3.7634 H   0  0  0  0  0  0  0  0  0  0  0  0
    1.1048   -0.5095    3.3670 H   0  0  0  0  0  0  0  0  0  0  0  0
  1  2  1  0  0  0  0
  2  3  1  0  0  0  0
  2  4  1  0  0  0  0
  2  5  1  0  0  0  0
  5  6  2  0  0  0  0
  5  7  1  0  0  0  0
  7  8  1  0  0  0  0
  7  9  1  0  0  0  0
  9 10  1  0  0  0  0
  9 11  1  0  0  0  0
  9 18  1  0  0  0  0
 11 12  1  0  0  0  0
 11 13  1  0  0  0  0
 11 14  1  0  0  0  0
 14 15  2  0  0  0  0
 14 16  1  0  0  0  0
 16 17  1  0  0  0  0
 18 19  2  0  0  0  0
 18 20  1  0  0  0  0
 20 21  1  0  0  0  0
 20 22  1  0  0  0  0
 22 23  1  0  0  0  0
 22 24  1  0  0  0  0
 22 25  1  0  0  0  0
M  END
$$$$

  -OEChem-02102214113D

 25 24  0     1  0  0  0  0  0999 V2000
   -2.5055   -3.6638   -0.3855 H   0  0  0  0  0  0  0  0  0  0  0  0
   -2.5251   -2.6134   -0.6901 C   0  0  0  0  0  0  0  0  0  0  0  0
   -3.2703   -2.0871   -0.0892 H   0  0  0  0  0  0  0  0  0  0  0  0
   -2.8100   -2.5591   -1.7436 H   0  0  0  0  0  0  0  0  0  0  0  0
   -1.1577   -1.9872   -0.4890 C   0  0  0  0  0  0  0  0  0  0  0  0
   -0.2553   -2.6493   -0.0104 O   0  0  0  0  0  0  0  0  0  0  0  0
   -0.9446   -0.6721   -0.8579 N   0  0  0  0  0  0  0  0  0  0  0  0
   -1.7132   -0.1990   -1.3239 H   0  0  0  0  0  0  0  0  0  0  0  0
    0.3640    0.0066   -0.7982 C   0  0  1  0  0  0  0  0  0  0  0  0
    1.0717   -0.5561   -1.4192 H   0  0  0  0  0  0  0  0  0  0  0  0
    0.1515    1.3984   -1.4273 C   0  0  0  0  0  0  0  0  0  0  0  0
   -0.4371    1.2996   -2.3442 H   0  0  0  0  0  0  0  0  0  0  0  0
   -0.4074    2.0351   -0.7364 H   0  0  0  0  0  0  0  0  0  0  0  0
    1.4599    2.1001   -1.7795 C   0  0  0  0  0  0  0  0  0  0  0  0
    1.6459    2.3935   -2.9482 O   0  0  0  0  0  0  0  0  0  0  0  0
    2.2729    2.4898   -0.7737 O   0  0  0  0  0  0  0  0  0  0  0  0
    3.0429    2.9098   -1.1851 H   0  0  0  0  0  0  0  0  0  0  0  0
    0.9865    0.0708    0.6176 C   0  0  0  0  0  0  0  0  0  0  0  0
    2.1838   -0.1290    0.7710 O   0  0  0  0  0  0  0  0  0  0  0  0
    0.2087    0.4252    1.7054 N   0  0  0  0  0  0  0  0  0  0  0  0
   -0.7934    0.4612    1.5560 H   0  0  0  0  0  0  0  0  0  0  0  0
    0.7203    0.4381    3.0699 C   0  0  0  0  0  0  0  0  0  0  0  0
    1.5762    1.1166    3.1512 H   0  0  0  0  0  0  0  0  0  0  0  0
   -0.0553    0.7784    3.7626 H   0  0  0  0  0  0  0  0  0  0  0  0
    1.0381   -0.5667    3.3684 H   0  0  0  0  0  0  0  0  0  0  0  0
  1  2  1  0  0  0  0
  2  3  1  0  0  0  0
  2  4  1  0  0  0  0
  2  5  1  0  0  0  0
  5  6  2  0  0  0  0
  5  7  1  0  0  0  0
  7  8  1  0  0  0  0
  7  9  1  0  0  0  0
  9 10  1  0  0  0  0
  9 11  1  0  0  0  0
  9 18  1  0  0  0  0
 11 12  1  0  0  0  0
 11 13  1  0  0  0  0
 11 14  1  0  0  0  0
 14 15  2  0  0  0  0
 14 16  1  0  0  0  0
 16 17  1  0  0  0  0
 18 19  2  0  0  0  0
 18 20  1  0  0  0  0
 20 21  1  0  0  0  0
 20 22  1  0  0  0  0
 22 23  1  0  0  0  0
 22 24  1  0  0  0  0
 22 25  1  0  0  0  0
M  END
$$$$

  -OEChem-02102214113D

 25 24  0     1  0  0  0  0  0999 V2000
   -2.5159   -3.6395   -0.3458 H   0  0  0  0  0  0  0  0  0  0  0  0
   -2.5239   -2.5906   -0.6560 C   0  0  0  0  0  0  0  0  0  0  0  0
   -3.2518   -2.0497   -0.0468 H   0  0  0  0  0  0  0  0  0  0  0  0
   -2.8237   -2.5376   -1.7053 H   0  0  0  0  0  0  0  0  0  0  0  0
   -1.1443   -1.9844   -0.4787 C   0  0  0  0  0  0  0  0  0  0  0  0
   -0.2455   -2.6575   -0.0091 O   0  0  0  0  0  0  0  0  0  0  0  0
   -0.9179   -0.6752   -0.8604 N   0  0  0  0  0  0  0  0  0  0  0  0
   -1.6884   -0.1927   -1.3133 H   0  0  0  0  0  0  0  0  0  0  0  0
    0.3954   -0.0043   -0.8049 C   0  0  1  0  0  0  0  0  0  0  0  0
    1.1069   -0.5682   -1.4204 H   0  0  0  0  0  0  0  0  0  0  0  0
    0.1714    1.3861   -1.4388 C   0  0  0  0  0  0  0  0  0  0  0  0
   -0.4264    1.2743   -2.3485 H   0  0  0  0  0  0  0  0  0  0  0  0
   -0.3886    2.0171   -0.7439 H   0  0  0  0  0  0  0  0  0  0  0  0
    1.4562    2.1212   -1.8171 C   0  0  0  0  0  0  0  0  0  0  0  0
    1.4859    2.6560   -2.9123 O   0  0  0  0  0  0  0  0  0  0  0  0
    2.4337    2.2581   -0.8973 O   0  0  0  0  0  0  0  0  0  0  0  0
    3.1493    2.7568   -1.3185 H   0  0  0  0  0  0  0  0  0  0  0  0
    0.9994    0.0618    0.6202 C   0  0  0  0  0  0  0  0  0  0  0  0
    2.1820   -0.1906    0.8053 O   0  0  0  0  0  0  0  0  0  0  0  0
    0.2067    0.4294    1.6932 N   0  0  0  0  0  0  0  0  0  0  0  0
   -0.7909    0.4862    1.5212 H   0  0  0  0  0  0  0  0  0  0  0  0
    0.6838    0.4022    3.0702 C   0  0  0  0  0  0  0  0  0  0  0  0
    1.5614    1.0472    3.1841 H   0  0  0  0  0  0  0  0  0  0  0  0
   -0.0961    0.7599    3.7489 H   0  0  0  0  0  0  0  0  0  0  0  0
    0.9569   -0.6180    3.3595 H   0  0  0  0  0  0  0  0  0  0  0  0
  1  2  1  0  0  0  0
  2  3  1  0  0  0  0
  2  4  1  0  0  0  0
  2  5  1  0  0  0  0
  5  6  2  0  0  0  0
  5  7  1  0  0  0  0
  7  8  1  0  0  0  0
  7  9  1  0  0  0  0
  9 10  1  0  0  0  0
  9 11  1  0  0  0  0
  9 18  1  0  0  0  0
 11 12  1  0  0  0  0
 11 13  1  0  0  0  0
 11 14  1  0  0  0  0
 14 15  2  0  0  0  0
 14 16  1  0  0  0  0
 16 17  1  0  0  0  0
 18 19  2  0  0  0  0
 18 20  1  0  0  0  0
 20 21  1  0  0  0  0
 20 22  1  0  0  0  0
 22 23  1  0  0  0  0
 22 24  1  0  0  0  0
 22 25  1  0  0  0  0
M  END
$$$$

  -OEChem-02102214113D

 25 24  0     1  0  0  0  0  0999 V2000
   -2.5189   -3.6275   -0.3207 H   0  0  0  0  0  0  0  0  0  0  0  0
   -2.5208   -2.5810   -0.6390 C   0  0  0  0  0  0  0  0  0  0  0  0
   -3.2449   -2.0308   -0.0336 H   0  0  0  0  0  0  0  0  0  0  0  0
   -2.8208   -2.5347   -1.6886 H   0  0  0  0  0  0  0  0  0  0  0  0
   -1.1376   -1.9817   -0.4672 C   0  0  0  0  0  0  0  0  0  0  0  0
   -0.2424   -2.6578    0.0046 O   0  0  0  0  0  0  0  0  0  0  0  0
   -0.9045   -0.6767   -0.8593 N   0  0  0  0  0  0  0  0  0  0  0  0
   -1.6713   -0.1963   -1.3204 H   0  0  0  0  0  0  0  0  0  0  0  0
    0.4122   -0.0112   -0.8099 C   0  0  1  0  0  0  0  0  0  0  0  0
    1.1248   -0.5727   -1.4258 H   0  0  0  0  0  0  0  0  0  0  0  0
    0.1803    1.3847   -1.4321 C   0  0  0  0  0  0  0  0  0  0  0  0
   -0.4264    1.2744   -2.3361 H   0  0  0  0  0  0  0  0  0  0  0  0
   -0.3769    2.0065   -0.7266 H   0  0  0  0  0  0  0  0  0  0  0  0
    1.4472    2.1425   -1.8288 C   0  0  0  0  0  0  0  0  0  0  0  0
    1.3488    2.9090   -2.7717 O   0  0  0  0  0  0  0  0  0  0  0  0
    2.5814    1.9849   -1.1169 O   0  0  0  0  0  0  0  0  0  0  0  0
    3.2527    2.5522   -1.5234 H   0  0  0  0  0  0  0  0  0  0  0  0
    1.0054    0.0562    0.6212 C   0  0  0  0  0  0  0  0  0  0  0  0
    2.1795   -0.2168    0.8285 O   0  0  0  0  0  0  0  0  0  0  0  0
    0.2025    0.4330    1.6838 N   0  0  0  0  0  0  0  0  0  0  0  0
   -0.7926    0.4921    1.4987 H   0  0  0  0  0  0  0  0  0  0  0  0
    0.6587    0.3910    3.0676 C   0  0  0  0  0  0  0  0  0  0  0  0
    1.5462    1.0193    3.1978 H   0  0  0  0  0  0  0  0  0  0  0  0
   -0.1246    0.7593    3.7367 H   0  0  0  0  0  0  0  0  0  0  0  0
    0.9093   -0.6354    3.3556 H   0  0  0  0  0  0  0  0  0  0  0  0
  1  2  1  0  0  0  0
  2  3  1  0  0  0  0
  2  4  1  0  0  0  0
  2  5  1  0  0  0  0
  5  6  2  0  0  0  0
  5  7  1  0  0  0  0
  7  8  1  0  0  0  0
  7  9  1  0  0  0  0
  9 10  1  0  0  0  0
  9 11  1  0  0  0  0
  9 18  1  0  0  0  0
 11 12  1  0  0  0  0
 11 13  1  0  0  0  0
 11 14  1  0  0  0  0
 14 15  2  0  0  0  0
 14 16  1  0  0  0  0
 16 17  1  0  0  0  0
 18 19  2  0  0  0  0
 18 20  1  0  0  0  0
 20 21  1  0  0  0  0
 20 22  1  0  0  0  0
 22 23  1  0  0  0  0
 22 24  1  0  0  0  0
 22 25  1  0  0  0  0
M  END
$$$$

  -OEChem-02102214113D

 25 24  0     1  0  0  0  0  0999 V2000
   -2.5128   -3.6359   -0.3326 H   0  0  0  0  0  0  0  0  0  0  0  0
   -2.5196   -2.5862   -0.6403 C   0  0  0  0  0  0  0  0  0  0  0  0
   -3.2466   -2.0452   -0.0299 H   0  0  0  0  0  0  0  0  0  0  0  0
   -2.8192   -2.5306   -1.6896 H   0  0  0  0  0  0  0  0  0  0  0  0
   -1.1392   -1.9825   -0.4618 C   0  0  0  0  0  0  0  0  0  0  0  0
   -0.2460   -2.6533    0.0213 O   0  0  0  0  0  0  0  0  0  0  0  0
   -0.9076   -0.6779   -0.8565 N   0  0  0  0  0  0  0  0  0  0  0  0
   -1.6725   -0.2021   -1.3254 H   0  0  0  0  0  0  0  0  0  0  0  0
    0.4095   -0.0128   -0.8126 C   0  0  1  0  0  0  0  0  0  0  0  0
    1.1201   -0.5704   -1.4345 H   0  0  0  0  0  0  0  0  0  0  0  0
    0.1819    1.3935   -1.4116 C   0  0  0  0  0  0  0  0  0  0  0  0
   -0.4269    1.2996   -2.3153 H   0  0  0  0  0  0  0  0  0  0  0  0
   -0.3693    2.0081   -0.6949 H   0  0  0  0  0  0  0  0  0  0  0  0
    1.4496    2.1499   -1.8089 C   0  0  0  0  0  0  0  0  0  0  0  0
    1.2933    3.1204   -2.5298 O   0  0  0  0  0  0  0  0  0  0  0  0
    2.6614    1.7031   -1.4184 O   0  0  0  0  0  0  0  0  0  0  0  0
    3.3193    2.3144   -1.7808 H   0  0  0  0  0  0  0  0  0  0  0  0
    1.0028    0.0531    0.6194 C   0  0  0  0  0  0  0  0  0  0  0  0
    2.1857   -0.1757    0.8278 O   0  0  0  0  0  0  0  0  0  0  0  0
    0.1955    0.4300    1.6787 N   0  0  0  0  0  0  0  0  0  0  0  0
   -0.8011    0.4598    1.4941 H   0  0  0  0  0  0  0  0  0  0  0  0
    0.6509    0.4048    3.0633 C   0  0  0  0  0  0  0  0  0  0  0  0
    1.5241    1.0531    3.1923 H   0  0  0  0  0  0  0  0  0  0  0  0
   -0.1415    0.7595    3.7292 H   0  0  0  0  0  0  0  0  0  0  0  0
    0.9231   -0.6145    3.3574 H   0  0  0  0  0  0  0  0  0  0  0  0
  1  2  1  0  0  0  0
  2  3  1  0  0  0  0
  2  4  1  0  0  0  0
  2  5  1  0  0  0  0
  5  6  2  0  0  0  0
  5  7  1  0  0  0  0
  7  8  1  0  0  0  0
  7  9  1  0  0  0  0
  9 10  1  0  0  0  0
  9 11  1  0  0  0  0
  9 18  1  0  0  0  0
 11 12  1  0  0  0  0
 11 13  1  0  0  0  0
 11 14  1  0  0  0  0
 14 15  2  0  0  0  0
 14 16  1  0  0  0  0
 16 17  1  0  0  0  0
 18 19  2  0  0  0  0
 18 20  1  0  0  0  0
 20 21  1  0  0  0  0
 20 22  1  0  0  0  0
 22 23  1  0  0  0  0
 22 24  1  0  0  0  0
 22 25  1  0  0  0  0
M  END
$$$$

  -OEChem-02102214113D

 25 24  0     1  0  0  0  0  0999 V2000
   -2.5204   -3.6940   -0.4134 H   0  0  0  0  0  0  0  0  0  0  0  0
   -2.5478   -2.6382   -0.6980 C   0  0  0  0  0  0  0  0  0  0  0  0
   -3.2972   -2.1287   -0.0876 H   0  0  0  0  0  0  0  0  0  0  0  0
   -2.8328   -2.5669   -1.7504 H   0  0  0  0  0  0  0  0  0  0  0  0
   -1.1856   -2.0052   -0.4840 C   0  0  0  0  0  0  0  0  0  0  0  0
   -0.2897   -2.6559    0.0222 O   0  0  0  0  0  0  0  0  0  0  0  0
   -0.9735   -0.6914   -0.8569 N   0  0  0  0  0  0  0  0  0  0  0  0
   -1.7361   -0.2279   -1.3420 H   0  0  0  0  0  0  0  0  0  0  0  0
    0.3380   -0.0165   -0.8081 C   0  0  1  0  0  0  0  0  0  0  0  0
    1.0238   -0.5978   -1.4360 H   0  0  0  0  0  0  0  0  0  0  0  0
    0.1621    1.4032   -1.3926 C   0  0  0  0  0  0  0  0  0  0  0  0
   -0.6256    1.3878   -2.1503 H   0  0  0  0  0  0  0  0  0  0  0  0
   -0.1465    2.0939   -0.6026 H   0  0  0  0  0  0  0  0  0  0  0  0
    1.4094    1.9640   -2.0756 C   0  0  0  0  0  0  0  0  0  0  0  0
    1.3075    3.0833   -2.5474 O   0  0  0  0  0  0  0  0  0  0  0  0
    2.5200    1.2020   -2.2010 O   0  0  0  0  0  0  0  0  0  0  0  0
    3.1877    1.7537   -2.6350 H   0  0  0  0  0  0  0  0  0  0  0  0
    0.9781    0.0512    0.5990 C   0  0  0  0  0  0  0  0  0  0  0  0
    2.1929    0.0037    0.7305 O   0  0  0  0  0  0  0  0  0  0  0  0
    0.2024    0.4107    1.6867 N   0  0  0  0  0  0  0  0  0  0  0  0
   -0.8020    0.3452    1.5612 H   0  0  0  0  0  0  0  0  0  0  0  0
    0.7354    0.4993    3.0405 C   0  0  0  0  0  0  0  0  0  0  0  0
    1.5497    1.2304    3.0851 H   0  0  0  0  0  0  0  0  0  0  0  0
   -0.0479    0.8143    3.7363 H   0  0  0  0  0  0  0  0  0  0  0  0
    1.1181   -0.4745    3.3642 H   0  0  0  0  0  0  0  0  0  0  0  0
  1  2  1  0  0  0  0
  2  3  1  0  0  0  0
  2  4  1  0  0  0  0
  2  5  1  0  0  0  0
  5  6  2  0  0  0  0
  5  7  1  0  0  0  0
  7  8  1  0  0  0  0
  7  9  1  0  0  0  0
  9 10  1  0  0  0  0
  9 11  1  0  0  0  0
  9 18  1  0  0  0  0
 11 12  1  0  0  0  0
 11 13  1  0  0  0  0
 11 14  1  0  0  0  0
 14 15  2  0  0  0  0
 14 16  1  0  0  0  0
 16 17  1  0  0  0  0
 18 19  2  0  0  0  0
 18 20  1  0  0  0  0
 20 21  1  0  0  0  0
 20 22  1  0  0  0  0
 22 23  1  0  0  0  0
 22 24  1  0  0  0  0
 22 25  1  0  0  0  0
M  END
$$$$

  -OEChem-02102214113D

 25 24  0     1  0  0  0  0  0999 V2000
   -2.5253   -3.7098   -0.4483 H   0  0  0  0  0  0  0  0  0  0  0  0
   -2.5576   -2.6522   -0.7258 C   0  0  0  0  0  0  0  0  0  0  0  0
   -3.3195   -2.1529   -0.1225 H   0  0  0  0  0  0  0  0  0  0  0  0
   -2.8281   -2.5754   -1.7816 H   0  0  0  0  0  0  0  0  0  0  0  0
   -1.2039   -2.0098   -0.4882 C   0  0  0  0  0  0  0  0  0  0  0  0
   -0.3108   -2.6547    0.0304 O   0  0  0  0  0  0  0  0  0  0  0  0
   -0.9954   -0.6934   -0.8535 N   0  0  0  0  0  0  0  0  0  0  0  0
   -1.7527   -0.2351   -1.3518 H   0  0  0  0  0  0  0  0  0  0  0  0
    0.3156   -0.0186   -0.8015 C   0  0  1  0  0  0  0  0  0  0  0  0
    0.9952   -0.6063   -1.4297 H   0  0  0  0  0  0  0  0  0  0  0  0
    0.1510    1.4019   -1.3852 C   0  0  0  0  0  0  0  0  0  0  0  0
   -0.6286    1.3919   -2.1505 H   0  0  0  0  0  0  0  0  0  0  0  0
   -0.1613    2.0940   -0.5975 H   0  0  0  0  0  0  0  0  0  0  0  0
    1.4104    1.9472   -2.0578 C   0  0  0  0  0  0  0  0  0  0  0  0
    1.4317    3.1457   -2.2788 O   0  0  0  0  0  0  0  0  0  0  0  0
    2.3837    1.0979   -2.4620 O   0  0  0  0  0  0  0  0  0  0  0  0
    3.0909    1.6486   -2.8303 H   0  0  0  0  0  0  0  0  0  0  0  0
    0.9718    0.0497    0.5964 C   0  0  0  0  0  0  0  0  0  0  0  0
    2.1905    0.0394    0.6992 O   0  0  0  0  0  0  0  0  0  0  0  0
    0.2111    0.4059    1.6954 N   0  0  0  0  0  0  0  0  0  0  0  0
   -0.7945    0.3209    1.5914 H   0  0  0  0  0  0  0  0  0  0  0  0
    0.7704    0.5293    3.0358 C   0  0  0  0  0  0  0  0  0  0  0  0
    1.5681    1.2796    3.0512 H   0  0  0  0  0  0  0  0  0  0  0  0
   -0.0051    0.8385    3.7429 H   0  0  0  0  0  0  0  0  0  0  0  0
    1.1825   -0.4294    3.3677 H   0  0  0  0  0  0  0  0  0  0  0  0
  1  2  1  0  0  0  0
  2  3  1  0  0  0  0
  2  4  1  0  0  0  0
  2  5  1  0  0  0  0
  5  6  2  0  0  0  0
  5  7  1  0  0  0  0
  7  8  1  0  0  0  0
  7  9  1  0  0  0  0
  9 10  1  0  0  0  0
  9 11  1  0  0  0  0
  9 18  1  0  0  0  0
 11 12  1  0  0  0  0
 11 13  1  0  0  0  0
 11 14  1  0  0  0  0
 14 15  2  0  0  0  0
 14 16  1  0  0  0  0
 16 17  1  0  0  0  0
 18 19  2  0  0  0  0
 18 20  1  0  0  0  0
 20 21  1  0  0  0  0
 20 22  1  0  0  0  0
 22 23  1  0  0  0  0
 22 24  1  0  0  0  0
 22 25  1  0  0  0  0
M  END
$$$$

  -OEChem-02102214113D

 25 24  0     1  0  0  0  0  0999 V2000
   -2.5183   -3.7152   -0.4448 H   0  0  0  0  0  0  0  0  0  0  0  0
   -2.5556   -2.6585   -0.7247 C   0  0  0  0  0  0  0  0  0  0  0  0
   -3.3152   -2.1604   -0.1177 H   0  0  0  0  0  0  0  0  0  0  0  0
   -2.8332   -2.5853   -1.7789 H   0  0  0  0  0  0  0  0  0  0  0  0
   -1.2023   -2.0116   -0.4972 C   0  0  0  0  0  0  0  0  0  0  0  0
   -0.3029   -2.6537    0.0140 O   0  0  0  0  0  0  0  0  0  0  0  0
   -1.0029   -0.6925   -0.8579 N   0  0  0  0  0  0  0  0  0  0  0  0
   -1.7654   -0.2351   -1.3487 H   0  0  0  0  0  0  0  0  0  0  0  0
    0.3037   -0.0103   -0.8045 C   0  0  1  0  0  0  0  0  0  0  0  0
    0.9857   -0.5949   -1.4331 H   0  0  0  0  0  0  0  0  0  0  0  0
    0.1381    1.4088   -1.3894 C   0  0  0  0  0  0  0  0  0  0  0  0
   -0.6341    1.3991   -2.1621 H   0  0  0  0  0  0  0  0  0  0  0  0
   -0.1806    2.1022   -0.6053 H   0  0  0  0  0  0  0  0  0  0  0  0
    1.4088    1.9375   -2.0521 C   0  0  0  0  0  0  0  0  0  0  0  0
    1.5827    3.1437   -2.0303 O   0  0  0  0  0  0  0  0  0  0  0  0
    2.2193    1.0788   -2.7143 O   0  0  0  0  0  0  0  0  0  0  0  0
    2.9658    1.6078   -3.0349 H   0  0  0  0  0  0  0  0  0  0  0  0
    0.9658    0.0599    0.5891 C   0  0  0  0  0  0  0  0  0  0  0  0
    2.1856    0.0560    0.6791 O   0  0  0  0  0  0  0  0  0  0  0  0
    0.2110    0.4084    1.6942 N   0  0  0  0  0  0  0  0  0  0  0  0
   -0.7949    0.3185    1.5978 H   0  0  0  0  0  0  0  0  0  0  0  0
    0.7801    0.5339    3.0301 C   0  0  0  0  0  0  0  0  0  0  0  0
    1.5773    1.2849    3.0390 H   0  0  0  0  0  0  0  0  0  0  0  0
    0.0097    0.8427    3.7430 H   0  0  0  0  0  0  0  0  0  0  0  0
    1.1956   -0.4243    3.3591 H   0  0  0  0  0  0  0  0  0  0  0  0
  1  2  1  0  0  0  0
  2  3  1  0  0  0  0
  2  4  1  0  0  0  0
  2  5  1  0  0  0  0
  5  6  2  0  0  0  0
  5  7  1  0  0  0  0
  7  8  1  0  0  0  0
  7  9  1  0  0  0  0
  9 10  1  0  0  0  0
  9 11  1  0  0  0  0
  9 18  1  0  0  0  0
 11 12  1  0  0  0  0
 11 13  1  0  0  0  0
 11 14  1  0  0  0  0
 14 15  2  0  0  0  0
 14 16  1  0  0  0  0
 16 17  1  0  0  0  0
 18 19  2  0  0  0  0
 18 20  1  0  0  0  0
 20 21  1  0  0  0  0
 20 22  1  0  0  0  0
 22 23  1  0  0  0  0
 22 24  1  0  0  0  0
 22 25  1  0  0  0  0
M  END
$$$$

  -OEChem-02102214113D

 25 24  0     1  0  0  0  0  0999 V2000
   -2.5058   -3.7203   -0.4517 H   0  0  0  0  0  0  0  0  0  0  0  0
   -2.5504   -2.6628   -0.7277 C   0  0  0  0  0  0  0  0  0  0  0  0
   -3.3107   -2.1716   -0.1159 H   0  0  0  0  0  0  0  0  0  0  0  0
   -2.8326   -2.5868   -1.7805 H   0  0  0  0  0  0  0  0  0  0  0  0
   -1.2002   -2.0085   -0.5027 C   0  0  0  0  0  0  0  0  0  0  0  0
   -0.2943   -2.6473    0.0011 O   0  0  0  0  0  0  0  0  0  0  0  0
   -1.0102   -0.6869   -0.8592 N   0  0  0  0  0  0  0  0  0  0  0  0
   -1.7757   -0.2334   -1.3488 H   0  0  0  0  0  0  0  0  0  0  0  0
    0.2927    0.0021   -0.8080 C   0  0  1  0  0  0  0  0  0  0  0  0
    0.9776   -0.5743   -1.4417 H   0  0  0  0  0  0  0  0  0  0  0  0
    0.1179    1.4180   -1.3933 C   0  0  0  0  0  0  0  0  0  0  0  0
   -0.6531    1.4077   -2.1673 H   0  0  0  0  0  0  0  0  0  0  0  0
   -0.2003    2.1141   -0.6111 H   0  0  0  0  0  0  0  0  0  0  0  0
    1.3965    1.9277   -2.0510 C   0  0  0  0  0  0  0  0  0  0  0  0
    1.7403    3.0715   -1.8091 O   0  0  0  0  0  0  0  0  0  0  0  0
    2.0362    1.1241   -2.9329 O   0  0  0  0  0  0  0  0  0  0  0  0
    2.8248    1.6134   -3.2142 H   0  0  0  0  0  0  0  0  0  0  0  0
    0.9626    0.0726    0.5816 C   0  0  0  0  0  0  0  0  0  0  0  0
    2.1830    0.0635    0.6623 O   0  0  0  0  0  0  0  0  0  0  0  0
    0.2143    0.4139    1.6934 N   0  0  0  0  0  0  0  0  0  0  0  0
   -0.7926    0.3324    1.6012 H   0  0  0  0  0  0  0  0  0  0  0  0
    0.7911    0.5354    3.0262 C   0  0  0  0  0  0  0  0  0  0  0  0
    1.5876    1.2871    3.0326 H   0  0  0  0  0  0  0  0  0  0  0  0
    0.0247    0.8417    3.7443 H   0  0  0  0  0  0  0  0  0  0  0  0
    1.2092   -0.4237    3.3499 H   0  0  0  0  0  0  0  0  0  0  0  0
  1  2  1  0  0  0  0
  2  3  1  0  0  0  0
  2  4  1  0  0  0  0
  2  5  1  0  0  0  0
  5  6  2  0  0  0  0
  5  7  1  0  0  0  0
  7  8  1  0  0  0  0
  7  9  1  0  0  0  0
  9 10  1  0  0  0  0
  9 11  1  0  0  0  0
  9 18  1  0  0  0  0
 11 12  1  0  0  0  0
 11 13  1  0  0  0  0
 11 14  1  0  0  0  0
 14 15  2  0  0  0  0
 14 16  1  0  0  0  0
 16 17  1  0  0  0  0
 18 19  2  0  0  0  0
 18 20  1  0  0  0  0
 20 21  1  0  0  0  0
 20 22  1  0  0  0  0
 22 23  1  0  0  0  0
 22 24  1  0  0  0  0
 22 25  1  0  0  0  0
M  END
$$$$

  -OEChem-02102214113D

 25 24  0     1  0  0  0  0  0999 V2000
   -2.4910   -3.7236   -0.4542 H   0  0  0  0  0  0  0  0  0  0  0  0
   -2.5431   -2.6659   -0.7281 C   0  0  0  0  0  0  0  0  0  0  0  0
   -3.3040   -2.1803   -0.1125 H   0  0  0  0  0  0  0  0  0  0  0  0
   -2.8300   -2.5904   -1.7797 H   0  0  0  0  0  0  0  0  0  0  0  0
   -1.1961   -2.0035   -0.5076 C   0  0  0  0  0  0  0  0  0  0  0  0
   -0.2833   -2.6391   -0.0123 O   0  0  0  0  0  0  0  0  0  0  0  0
   -1.0160   -0.6796   -0.8607 N   0  0  0  0  0  0  0  0  0  0  0  0
   -1.7872   -0.2287   -1.3438 H   0  0  0  0  0  0  0  0  0  0  0  0
    0.2826    0.0176   -0.8121 C   0  0  1  0  0  0  0  0  0  0  0  0
    0.9705   -0.5496   -1.4514 H   0  0  0  0  0  0  0  0  0  0  0  0
    0.0952    1.4287   -1.4010 C   0  0  0  0  0  0  0  0  0  0  0  0
   -0.6753    1.4137   -2.1755 H   0  0  0  0  0  0  0  0  0  0  0  0
   -0.2245    2.1284   -0.6226 H   0  0  0  0  0  0  0  0  0  0  0  0
    1.3774    1.9276   -2.0556 C   0  0  0  0  0  0  0  0  0  0  0  0
    1.8844    2.9486   -1.6258 O   0  0  0  0  0  0  0  0  0  0  0  0
    1.8642    1.2334   -3.1106 O   0  0  0  0  0  0  0  0  0  0  0  0
    2.6889    1.6787   -3.3606 H   0  0  0  0  0  0  0  0  0  0  0  0
    0.9580    0.0891    0.5747 C   0  0  0  0  0  0  0  0  0  0  0  0
    2.1783    0.0596    0.6509 O   0  0  0  0  0  0  0  0  0  0  0  0
    0.2158    0.4225    1.6929 N   0  0  0  0  0  0  0  0  0  0  0  0
   -0.7922    0.3511    1.6044 H   0  0  0  0  0  0  0  0  0  0  0  0
    0.8006    0.5321    3.0233 C   0  0  0  0  0  0  0  0  0  0  0  0
    1.5995    1.2813    3.0306 H   0  0  0  0  0  0  0  0  0  0  0  0
    0.0394    0.8348    3.7484 H   0  0  0  0  0  0  0  0  0  0  0  0
    1.2177   -0.4306    3.3367 H   0  0  0  0  0  0  0  0  0  0  0  0
  1  2  1  0  0  0  0
  2  3  1  0  0  0  0
  2  4  1  0  0  0  0
  2  5  1  0  0  0  0
  5  6  2  0  0  0  0
  5  7  1  0  0  0  0
  7  8  1  0  0  0  0
  7  9  1  0  0  0  0
  9 10  1  0  0  0  0
  9 11  1  0  0  0  0
  9 18  1  0  0  0  0
 11 12  1  0  0  0  0
 11 13  1  0  0  0  0
 11 14  1  0  0  0  0
 14 15  2  0  0  0  0
 14 16  1  0  0  0  0
 16 17  1  0  0  0  0
 18 19  2  0  0  0  0
 18 20  1  0  0  0  0
 20 21  1  0  0  0  0
 20 22  1  0  0  0  0
 22 23  1  0  0  0  0
 22 24  1  0  0  0  0
 22 25  1  0  0  0  0
M  END
$$$$

  -OEChem-02102214113D

 25 24  0     1  0  0  0  0  0999 V2000
   -2.4831   -3.7203   -0.4480 H   0  0  0  0  0  0  0  0  0  0  0  0
   -2.5362   -2.6643   -0.7285 C   0  0  0  0  0  0  0  0  0  0  0  0
   -3.3015   -2.1769   -0.1200 H   0  0  0  0  0  0  0  0  0  0  0  0
   -2.8176   -2.5960   -1.7821 H   0  0  0  0  0  0  0  0  0  0  0  0
   -1.1914   -1.9977   -0.5052 C   0  0  0  0  0  0  0  0  0  0  0  0
   -0.2756   -2.6330   -0.0154 O   0  0  0  0  0  0  0  0  0  0  0  0
   -1.0149   -0.6730   -0.8576 N   0  0  0  0  0  0  0  0  0  0  0  0
   -1.7892   -0.2234   -1.3371 H   0  0  0  0  0  0  0  0  0  0  0  0
    0.2820    0.0281   -0.8128 C   0  0  1  0  0  0  0  0  0  0  0  0
    0.9717   -0.5322   -1.4568 H   0  0  0  0  0  0  0  0  0  0  0  0
    0.0801    1.4352   -1.4057 C   0  0  0  0  0  0  0  0  0  0  0  0
   -0.6950    1.4138   -2.1757 H   0  0  0  0  0  0  0  0  0  0  0  0
   -0.2387    2.1369   -0.6288 H   0  0  0  0  0  0  0  0  0  0  0  0
    1.3568    1.9379   -2.0657 C   0  0  0  0  0  0  0  0  0  0  0  0
    2.0136    2.7870   -1.4908 O   0  0  0  0  0  0  0  0  0  0  0  0
    1.6936    1.4119   -3.2661 O   0  0  0  0  0  0  0  0  0  0  0  0
    2.5428    1.8182   -3.5008 H   0  0  0  0  0  0  0  0  0  0  0  0
    0.9594    0.0988    0.5735 C   0  0  0  0  0  0  0  0  0  0  0  0
    2.1781    0.0377    0.6532 O   0  0  0  0  0  0  0  0  0  0  0  0
    0.2189    0.4288    1.6938 N   0  0  0  0  0  0  0  0  0  0  0  0
   -0.7899    0.3777    1.6019 H   0  0  0  0  0  0  0  0  0  0  0  0
    0.8028    0.5239    3.0258 C   0  0  0  0  0  0  0  0  0  0  0  0
    1.6023    1.2724    3.0411 H   0  0  0  0  0  0  0  0  0  0  0  0
    0.0409    0.8197    3.7533 H   0  0  0  0  0  0  0  0  0  0  0  0
    1.2192   -0.4421    3.3304 H   0  0  0  0  0  0  0  0  0  0  0  0
  1  2  1  0  0  0  0
  2  3  1  0  0  0  0
  2  4  1  0  0  0  0
  2  5  1  0  0  0  0
  5  6  2  0  0  0  0
  5  7  1  0  0  0  0
  7  8  1  0  0  0  0
  7  9  1  0  0  0  0
  9 10  1  0  0  0  0
  9 11  1  0  0  0  0
  9 18  1  0  0  0  0
 11 12  1  0  0  0  0
 11 13  1  0  0  0  0
 11 14  1  0  0  0  0
 14 15  2  0  0  0  0
 14 16  1  0  0  0  0
 16 17  1  0  0  0  0
 18 19  2  0  0  0  0
 18 20  1  0  0  0  0
 20 21  1  0  0  0  0
 20 22  1  0  0  0  0
 22 23  1  0  0  0  0
 22 24  1  0  0  0  0
 22 25  1  0  0  0  0
M  END
$$$$

  -OEChem-02102214113D

 25 24  0     1  0  0  0  0  0999 V2000
   -2.4664   -3.7119   -0.4258 H   0  0  0  0  0  0  0  0  0  0  0  0
   -2.5228   -2.6553   -0.7032 C   0  0  0  0  0  0  0  0  0  0  0  0
   -3.2736   -2.1668   -0.0777 H   0  0  0  0  0  0  0  0  0  0  0  0
   -2.8259   -2.5840   -1.7506 H   0  0  0  0  0  0  0  0  0  0  0  0
   -1.1722   -1.9927   -0.5066 C   0  0  0  0  0  0  0  0  0  0  0  0
   -0.2484   -2.6309   -0.0361 O   0  0  0  0  0  0  0  0  0  0  0  0
   -0.9999   -0.6686   -0.8628 N   0  0  0  0  0  0  0  0  0  0  0  0
   -1.7834   -0.2144   -1.3224 H   0  0  0  0  0  0  0  0  0  0  0  0
    0.2936    0.0387   -0.8185 C   0  0  1  0  0  0  0  0  0  0  0  0
    0.9900   -0.5159   -1.4599 H   0  0  0  0  0  0  0  0  0  0  0  0
    0.0751    1.4407   -1.4182 C   0  0  0  0  0  0  0  0  0  0  0  0
   -0.7046    1.4087   -2.1836 H   0  0  0  0  0  0  0  0  0  0  0  0
   -0.2472    2.1431   -0.6439 H   0  0  0  0  0  0  0  0  0  0  0  0
    1.3424    1.9588   -2.0839 C   0  0  0  0  0  0  0  0  0  0  0  0
    2.1326    2.6016   -1.4176 O   0  0  0  0  0  0  0  0  0  0  0  0
    1.5333    1.6543   -3.3881 O   0  0  0  0  0  0  0  0  0  0  0  0
    2.4005    2.0239   -3.6178 H   0  0  0  0  0  0  0  0  0  0  0  0
    0.9614    0.1124    0.5733 C   0  0  0  0  0  0  0  0  0  0  0  0
    2.1757    0.0100    0.6710 O   0  0  0  0  0  0  0  0  0  0  0  0
    0.2126    0.4408    1.6888 N   0  0  0  0  0  0  0  0  0  0  0  0
   -0.7955    0.4088    1.5840 H   0  0  0  0  0  0  0  0  0  0  0  0
    0.7810    0.4967    3.0298 C   0  0  0  0  0  0  0  0  0  0  0  0
    1.6017    1.2209    3.0686 H   0  0  0  0  0  0  0  0  0  0  0  0
    0.0187    0.8024    3.7527 H   0  0  0  0  0  0  0  0  0  0  0  0
    1.1649   -0.4862    3.3225 H   0  0  0  0  0  0  0  0  0  0  0  0
  1  2  1  0  0  0  0
  2  3  1  0  0  0  0
  2  4  1  0  0  0  0
  2  5  1  0  0  0  0
  5  6  2  0  0  0  0
  5  7  1  0  0  0  0
  7  8  1  0  0  0  0
  7  9  1  0  0  0  0
  9 10  1  0  0  0  0
  9 11  1  0  0  0  0
  9 18  1  0  0  0  0
 11 12  1  0  0  0  0
 11 13  1  0  0  0  0
 11 14  1  0  0  0  0
 14 15  2  0  0  0  0
 14 16  1  0  0  0  0
 16 17  1  0  0  0  0
 18 19  2  0  0  0  0
 18 20  1  0  0  0  0
 20 21  1  0  0  0  0
 20 22  1  0  0  0  0
 22 23  1  0  0  0  0
 22 24  1  0  0  0  0
 22 25  1  0  0  0  0
M  END
$$$$

  -OEChem-02102214113D

 25 24  0     1  0  0  0  0  0999 V2000
   -2.4631   -3.6989   -0.3988 H   0  0  0  0  0  0  0  0  0  0  0  0
   -2.5135   -2.6438   -0.6827 C   0  0  0  0  0  0  0  0  0  0  0  0
   -3.2576   -2.1465   -0.0564 H   0  0  0  0  0  0  0  0  0  0  0  0
   -2.8217   -2.5769   -1.7288 H   0  0  0  0  0  0  0  0  0  0  0  0
   -1.1574   -1.9892   -0.4973 C   0  0  0  0  0  0  0  0  0  0  0  0
   -0.2354   -2.6317   -0.0297 O   0  0  0  0  0  0  0  0  0  0  0  0
   -0.9791   -0.6681   -0.8620 N   0  0  0  0  0  0  0  0  0  0  0  0
   -1.7634   -0.2115   -1.3179 H   0  0  0  0  0  0  0  0  0  0  0  0
    0.3160    0.0372   -0.8201 C   0  0  1  0  0  0  0  0  0  0  0  0
    1.0172   -0.5156   -1.4577 H   0  0  0  0  0  0  0  0  0  0  0  0
    0.0859    1.4375   -1.4243 C   0  0  0  0  0  0  0  0  0  0  0  0
   -0.7019    1.3960   -2.1810 H   0  0  0  0  0  0  0  0  0  0  0  0
   -0.2366    2.1384   -0.6493 H   0  0  0  0  0  0  0  0  0  0  0  0
    1.3366    1.9802   -2.1039 C   0  0  0  0  0  0  0  0  0  0  0  0
    2.2510    2.3925   -1.4158 O   0  0  0  0  0  0  0  0  0  0  0  0
    1.3702    1.9551   -3.4560 O   0  0  0  0  0  0  0  0  0  0  0  0
    2.2416    2.3040   -3.7015 H   0  0  0  0  0  0  0  0  0  0  0  0
    0.9702    0.1123    0.5791 C   0  0  0  0  0  0  0  0  0  0  0  0
    2.1778   -0.0334    0.7014 O   0  0  0  0  0  0  0  0  0  0  0  0
    0.2088    0.4471    1.6844 N   0  0  0  0  0  0  0  0  0  0  0  0
   -0.7976    0.4361    1.5614 H   0  0  0  0  0  0  0  0  0  0  0  0
    0.7536    0.4728    3.0358 C   0  0  0  0  0  0  0  0  0  0  0  0
    1.5882    1.1792    3.0992 H   0  0  0  0  0  0  0  0  0  0  0  0
   -0.0154    0.7841    3.7491 H   0  0  0  0  0  0  0  0  0  0  0  0
    1.1123   -0.5219    3.3213 H   0  0  0  0  0  0  0  0  0  0  0  0
  1  2  1  0  0  0  0
  2  3  1  0  0  0  0
  2  4  1  0  0  0  0
  2  5  1  0  0  0  0
  5  6  2  0  0  0  0
  5  7  1  0  0  0  0
  7  8  1  0  0  0  0
  7  9  1  0  0  0  0
  9 10  1  0  0  0  0
  9 11  1  0  0  0  0
  9 18  1  0  0  0  0
 11 12  1  0  0  0  0
 11 13  1  0  0  0  0
 11 14  1  0  0  0  0
 14 15  2  0  0  0  0
 14 16  1  0  0  0  0
 16 17  1  0  0  0  0
 18 19  2  0  0  0  0
 18 20  1  0  0  0  0
 20 21  1  0  0  0  0
 20 22  1  0  0  0  0
 22 23  1  0  0  0  0
 22 24  1  0  0  0  0
 22 25  1  0  0  0  0
M  END
$$$$

  -OEChem-02102214113D

 25 24  0     1  0  0  0  0  0999 V2000
   -2.4647   -3.6845   -0.3609 H   0  0  0  0  0  0  0  0  0  0  0  0
   -2.5073   -2.6329   -0.6586 C   0  0  0  0  0  0  0  0  0  0  0  0
   -3.2415   -2.1200   -0.0329 H   0  0  0  0  0  0  0  0  0  0  0  0
   -2.8235   -2.5770   -1.7029 H   0  0  0  0  0  0  0  0  0  0  0  0
   -1.1432   -1.9893   -0.4933 C   0  0  0  0  0  0  0  0  0  0  0  0
   -0.2212   -2.6391   -0.0362 O   0  0  0  0  0  0  0  0  0  0  0  0
   -0.9580   -0.6710   -0.8654 N   0  0  0  0  0  0  0  0  0  0  0  0
   -1.7451   -0.2076   -1.3090 H   0  0  0  0  0  0  0  0  0  0  0  0
    0.3398    0.0308   -0.8253 C   0  0  1  0  0  0  0  0  0  0  0  0
    1.0451   -0.5205   -1.4593 H   0  0  0  0  0  0  0  0  0  0  0  0
    0.1041    1.4331   -1.4281 C   0  0  0  0  0  0  0  0  0  0  0  0
   -0.6908    1.3860   -2.1774 H   0  0  0  0  0  0  0  0  0  0  0  0
   -0.2171    2.1307   -0.6500 H   0  0  0  0  0  0  0  0  0  0  0  0
    1.3395    1.9995   -2.1203 C   0  0  0  0  0  0  0  0  0  0  0  0
    2.3597    2.1683   -1.4809 O   0  0  0  0  0  0  0  0  0  0  0  0
    1.2309    2.2828   -3.4387 O   0  0  0  0  0  0  0  0  0  0  0  0
    2.1033    2.6120   -3.7071 H   0  0  0  0  0  0  0  0  0  0  0  0
    0.9789    0.1045    0.5825 C   0  0  0  0  0  0  0  0  0  0  0  0
    2.1797   -0.0698    0.7298 O   0  0  0  0  0  0  0  0  0  0  0  0
    0.2035    0.4450    1.6767 N   0  0  0  0  0  0  0  0  0  0  0  0
   -0.8005    0.4504    1.5357 H   0  0  0  0  0  0  0  0  0  0  0  0
    0.7233    0.4522    3.0384 C   0  0  0  0  0  0  0  0  0  0  0  0
    1.5707    1.1411    3.1215 H   0  0  0  0  0  0  0  0  0  0  0  0
   -0.0527    0.7755    3.7386 H   0  0  0  0  0  0  0  0  0  0  0  0
    1.0560   -0.5511    3.3251 H   0  0  0  0  0  0  0  0  0  0  0  0
  1  2  1  0  0  0  0
  2  3  1  0  0  0  0
  2  4  1  0  0  0  0
  2  5  1  0  0  0  0
  5  6  2  0  0  0  0
  5  7  1  0  0  0  0
  7  8  1  0  0  0  0
  7  9  1  0  0  0  0
  9 10  1  0  0  0  0
  9 11  1  0  0  0  0
  9 18  1  0  0  0  0
 11 12  1  0  0  0  0
 11 13  1  0  0  0  0
 11 14  1  0  0  0  0
 14 15  2  0  0  0  0
 14 16  1  0  0  0  0
 16 17  1  0  0  0  0
 18 19  2  0  0  0  0
 18 20  1  0  0  0  0
 20 21  1  0  0  0  0
 20 22  1  0  0  0  0
 22 23  1  0  0  0  0
 22 24  1  0  0  0  0
 22 25  1  0  0  0  0
M  END
$$$$

  -OEChem-02102214113D

 25 24  0     1  0  0  0  0  0999 V2000
   -2.4758   -3.6758   -0.3472 H   0  0  0  0  0  0  0  0  0  0  0  0
   -2.5087   -2.6271   -0.6566 C   0  0  0  0  0  0  0  0  0  0  0  0
   -3.2461   -2.1032   -0.0438 H   0  0  0  0  0  0  0  0  0  0  0  0
   -2.8144   -2.5809   -1.7045 H   0  0  0  0  0  0  0  0  0  0  0  0
   -1.1421   -1.9903   -0.4850 C   0  0  0  0  0  0  0  0  0  0  0  0
   -0.2270   -2.6437   -0.0195 O   0  0  0  0  0  0  0  0  0  0  0  0
   -0.9473   -0.6748   -0.8631 N   0  0  0  0  0  0  0  0  0  0  0  0
   -1.7299   -0.2105   -1.3139 H   0  0  0  0  0  0  0  0  0  0  0  0
    0.3547    0.0206   -0.8253 C   0  0  1  0  0  0  0  0  0  0  0  0
    1.0605   -0.5316   -1.4581 H   0  0  0  0  0  0  0  0  0  0  0  0
    0.1201    1.4266   -1.4247 C   0  0  0  0  0  0  0  0  0  0  0  0
   -0.6779    1.3770   -2.1704 H   0  0  0  0  0  0  0  0  0  0  0  0
   -0.2015    2.1217   -0.6443 H   0  0  0  0  0  0  0  0  0  0  0  0
    1.3434    2.0105   -2.1276 C   0  0  0  0  0  0  0  0  0  0  0  0
    2.4381    1.9393   -1.6045 O   0  0  0  0  0  0  0  0  0  0  0  0
    1.1312    2.5971   -3.3281 O   0  0  0  0  0  0  0  0  0  0  0  0
    2.0023    2.9048   -3.6249 H   0  0  0  0  0  0  0  0  0  0  0  0
    0.9858    0.0931    0.5874 C   0  0  0  0  0  0  0  0  0  0  0  0
    2.1837   -0.0881    0.7485 O   0  0  0  0  0  0  0  0  0  0  0  0
    0.2035    0.4413    1.6746 N   0  0  0  0  0  0  0  0  0  0  0  0
   -0.7993    0.4457    1.5257 H   0  0  0  0  0  0  0  0  0  0  0  0
    0.7123    0.4486    3.0405 C   0  0  0  0  0  0  0  0  0  0  0  0
    1.5633    1.1323    3.1286 H   0  0  0  0  0  0  0  0  0  0  0  0
   -0.0670    0.7787    3.7339 H   0  0  0  0  0  0  0  0  0  0  0  0
    1.0364   -0.5558    3.3325 H   0  0  0  0  0  0  0  0  0  0  0  0
  1  2  1  0  0  0  0
  2  3  1  0  0  0  0
  2  4  1  0  0  0  0
  2  5  1  0  0  0  0
  5  6  2  0  0  0  0
  5  7  1  0  0  0  0
  7  8  1  0  0  0  0
  7  9  1  0  0  0  0
  9 10  1  0  0  0  0
  9 11  1  0  0  0  0
  9 18  1  0  0  0  0
 11 12  1  0  0  0  0
 11 13  1  0  0  0  0
 11 14  1  0  0  0  0
 14 15  2  0  0  0  0
 14 16  1  0  0  0  0
 16 17  1  0  0  0  0
 18 19  2  0  0  0  0
 18 20  1  0  0  0  0
 20 21  1  0  0  0  0
 20 22  1  0  0  0  0
 22 23  1  0  0  0  0
 22 24  1  0  0  0  0
 22 25  1  0  0  0  0
M  END
$$$$

  -OEChem-02102214113D

 25 24  0     1  0  0  0  0  0999 V2000
   -2.4894   -3.6711   -0.3367 H   0  0  0  0  0  0  0  0  0  0  0  0
   -2.5144   -2.6256   -0.6577 C   0  0  0  0  0  0  0  0  0  0  0  0
   -3.2520   -2.0907   -0.0550 H   0  0  0  0  0  0  0  0  0  0  0  0
   -2.8136   -2.5884   -1.7078 H   0  0  0  0  0  0  0  0  0  0  0  0
   -1.1456   -1.9943   -0.4844 C   0  0  0  0  0  0  0  0  0  0  0  0
   -0.2352   -2.6491   -0.0117 O   0  0  0  0  0  0  0  0  0  0  0  0
   -0.9450   -0.6805   -0.8647 N   0  0  0  0  0  0  0  0  0  0  0  0
   -1.7234   -0.2159   -1.3223 H   0  0  0  0  0  0  0  0  0  0  0  0
    0.3601    0.0091   -0.8268 C   0  0  1  0  0  0  0  0  0  0  0  0
    1.0632   -0.5468   -1.4594 H   0  0  0  0  0  0  0  0  0  0  0  0
    0.1337    1.4207   -1.4181 C   0  0  0  0  0  0  0  0  0  0  0  0
   -0.6652    1.3771   -2.1630 H   0  0  0  0  0  0  0  0  0  0  0  0
   -0.1865    2.1109   -0.6331 H   0  0  0  0  0  0  0  0  0  0  0  0
    1.3506    2.0159   -2.1244 C   0  0  0  0  0  0  0  0  0  0  0  0
    2.4762    1.7227   -1.7706 O   0  0  0  0  0  0  0  0  0  0  0  0
    1.0924    2.8775   -3.1348 O   0  0  0  0  0  0  0  0  0  0  0  0
    1.9605    3.1643   -3.4598 H   0  0  0  0  0  0  0  0  0  0  0  0
    0.9880    0.0799    0.5877 C   0  0  0  0  0  0  0  0  0  0  0  0
    2.1887   -0.0779    0.7520 O   0  0  0  0  0  0  0  0  0  0  0  0
    0.2022    0.4326    1.6708 N   0  0  0  0  0  0  0  0  0  0  0  0
   -0.8008    0.4205    1.5220 H   0  0  0  0  0  0  0  0  0  0  0  0
    0.7099    0.4553    3.0370 C   0  0  0  0  0  0  0  0  0  0  0  0
    1.5566    1.1449    3.1196 H   0  0  0  0  0  0  0  0  0  0  0  0
   -0.0719    0.7872    3.7266 H   0  0  0  0  0  0  0  0  0  0  0  0
    1.0398   -0.5446    3.3383 H   0  0  0  0  0  0  0  0  0  0  0  0
  1  2  1  0  0  0  0
  2  3  1  0  0  0  0
  2  4  1  0  0  0  0
  2  5  1  0  0  0  0
  5  6  2  0  0  0  0
  5  7  1  0  0  0  0
  7  8  1  0  0  0  0
  7  9  1  0  0  0  0
  9 10  1  0  0  0  0
  9 11  1  0  0  0  0
  9 18  1  0  0  0  0
 11 12  1  0  0  0  0
 11 13  1  0  0  0  0
 11 14  1  0  0  0  0
 14 15  2  0  0  0  0
 14 16  1  0  0  0  0
 16 17  1  0  0  0  0
 18 19  2  0  0  0  0
 18 20  1  0  0  0  0
 20 21  1  0  0  0  0
 20 22  1  0  0  0  0
 22 23  1  0  0  0  0
 22 24  1  0  0  0  0
 22 25  1  0  0  0  0
M  END
$$$$

  -OEChem-02102214113D

 25 24  0     1  0  0  0  0  0999 V2000
   -2.4978   -3.6801   -0.3736 H   0  0  0  0  0  0  0  0  0  0  0  0
   -2.5234   -2.6297   -0.6773 C   0  0  0  0  0  0  0  0  0  0  0  0
   -3.2707   -2.1078   -0.0751 H   0  0  0  0  0  0  0  0  0  0  0  0
   -2.8097   -2.5767   -1.7304 H   0  0  0  0  0  0  0  0  0  0  0  0
   -1.1593   -1.9963   -0.4774 C   0  0  0  0  0  0  0  0  0  0  0  0
   -0.2583   -2.6475    0.0178 O   0  0  0  0  0  0  0  0  0  0  0  0
   -0.9531   -0.6838   -0.8585 N   0  0  0  0  0  0  0  0  0  0  0  0
   -1.7225   -0.2247   -1.3364 H   0  0  0  0  0  0  0  0  0  0  0  0
    0.3552   -0.0008   -0.8218 C   0  0  1  0  0  0  0  0  0  0  0  0
    1.0514   -0.5641   -1.4553 H   0  0  0  0  0  0  0  0  0  0  0  0
    0.1410    1.4154   -1.4068 C   0  0  0  0  0  0  0  0  0  0  0  0
   -0.6588    1.3815   -2.1508 H   0  0  0  0  0  0  0  0  0  0  0  0
   -0.1737    2.1024   -0.6166 H   0  0  0  0  0  0  0  0  0  0  0  0
    1.3561    2.0138   -2.1147 C   0  0  0  0  0  0  0  0  0  0  0  0
    2.4642    1.5332   -1.9702 O   0  0  0  0  0  0  0  0  0  0  0  0
    1.1132    3.0953   -2.8900 O   0  0  0  0  0  0  0  0  0  0  0  0
    1.9761    3.3588   -3.2468 H   0  0  0  0  0  0  0  0  0  0  0  0
    0.9887    0.0699    0.5896 C   0  0  0  0  0  0  0  0  0  0  0  0
    2.1955   -0.0455    0.7437 O   0  0  0  0  0  0  0  0  0  0  0  0
    0.2062    0.4278    1.6735 N   0  0  0  0  0  0  0  0  0  0  0  0
   -0.7973    0.3918    1.5326 H   0  0  0  0  0  0  0  0  0  0  0  0
    0.7223    0.4733    3.0359 C   0  0  0  0  0  0  0  0  0  0  0  0
    1.5547    1.1816    3.1076 H   0  0  0  0  0  0  0  0  0  0  0  0
   -0.0620    0.7937    3.7280 H   0  0  0  0  0  0  0  0  0  0  0  0
    1.0753   -0.5167    3.3434 H   0  0  0  0  0  0  0  0  0  0  0  0
  1  2  1  0  0  0  0
  2  3  1  0  0  0  0
  2  4  1  0  0  0  0
  2  5  1  0  0  0  0
  5  6  2  0  0  0  0
  5  7  1  0  0  0  0
  7  8  1  0  0  0  0
  7  9  1  0  0  0  0
  9 10  1  0  0  0  0
  9 11  1  0  0  0  0
  9 18  1  0  0  0  0
 11 12  1  0  0  0  0
 11 13  1  0  0  0  0
 11 14  1  0  0  0  0
 14 15  2  0  0  0  0
 14 16  1  0  0  0  0
 16 17  1  0  0  0  0
 18 19  2  0  0  0  0
 18 20  1  0  0  0  0
 20 21  1  0  0  0  0
 20 22  1  0  0  0  0
 22 23  1  0  0  0  0
 22 24  1  0  0  0  0
 22 25  1  0  0  0  0
M  END
$$$$

  -OEChem-02102214113D

 25 24  0     1  0  0  0  0  0999 V2000
   -2.4932   -3.6985   -0.4148 H   0  0  0  0  0  0  0  0  0  0  0  0
   -2.5294   -2.6417   -0.6952 C   0  0  0  0  0  0  0  0  0  0  0  0
   -3.2837   -2.1409   -0.0838 H   0  0  0  0  0  0  0  0  0  0  0  0
   -2.8135   -2.5686   -1.7477 H   0  0  0  0  0  0  0  0  0  0  0  0
   -1.1727   -1.9984   -0.4768 C   0  0  0  0  0  0  0  0  0  0  0  0
   -0.2750   -2.6416    0.0352 O   0  0  0  0  0  0  0  0  0  0  0  0
   -0.9692   -0.6846   -0.8552 N   0  0  0  0  0  0  0  0  0  0  0  0
   -1.7329   -0.2325   -1.3486 H   0  0  0  0  0  0  0  0  0  0  0  0
    0.3396   -0.0026   -0.8172 C   0  0  1  0  0  0  0  0  0  0  0  0
    1.0293   -0.5743   -1.4503 H   0  0  0  0  0  0  0  0  0  0  0  0
    0.1415    1.4182   -1.3970 C   0  0  0  0  0  0  0  0  0  0  0  0
   -0.6563    1.3979   -2.1433 H   0  0  0  0  0  0  0  0  0  0  0  0
   -0.1687    2.1032   -0.6030 H   0  0  0  0  0  0  0  0  0  0  0  0
    1.3646    2.0098   -2.0985 C   0  0  0  0  0  0  0  0  0  0  0  0
    2.4053    1.3837   -2.1805 O   0  0  0  0  0  0  0  0  0  0  0  0
    1.2032    3.2488   -2.6160 O   0  0  0  0  0  0  0  0  0  0  0  0
    2.0616    3.4828   -3.0028 H   0  0  0  0  0  0  0  0  0  0  0  0
    0.9814    0.0683    0.5895 C   0  0  0  0  0  0  0  0  0  0  0  0
    2.1940   -0.0008    0.7258 O   0  0  0  0  0  0  0  0  0  0  0  0
    0.2060    0.4252    1.6787 N   0  0  0  0  0  0  0  0  0  0  0  0
   -0.7984    0.3639    1.5515 H   0  0  0  0  0  0  0  0  0  0  0  0
    0.7378    0.4903    3.0345 C   0  0  0  0  0  0  0  0  0  0  0  0
    1.5573    1.2145    3.0907 H   0  0  0  0  0  0  0  0  0  0  0  0
   -0.0440    0.8007    3.7340 H   0  0  0  0  0  0  0  0  0  0  0  0
    1.1135   -0.4905    3.3444 H   0  0  0  0  0  0  0  0  0  0  0  0
  1  2  1  0  0  0  0
  2  3  1  0  0  0  0
  2  4  1  0  0  0  0
  2  5  1  0  0  0  0
  5  6  2  0  0  0  0
  5  7  1  0  0  0  0
  7  8  1  0  0  0  0
  7  9  1  0  0  0  0
  9 10  1  0  0  0  0
  9 11  1  0  0  0  0
  9 18  1  0  0  0  0
 11 12  1  0  0  0  0
 11 13  1  0  0  0  0
 11 14  1  0  0  0  0
 14 15  2  0  0  0  0
 14 16  1  0  0  0  0
 16 17  1  0  0  0  0
 18 19  2  0  0  0  0
 18 20  1  0  0  0  0
 20 21  1  0  0  0  0
 20 22  1  0  0  0  0
 22 23  1  0  0  0  0
 22 24  1  0  0  0  0
 22 25  1  0  0  0  0
M  END
$$$$

  -OEChem-02102214113D

 25 24  0     1  0  0  0  0  0999 V2000
   -2.4956   -3.7115   -0.4409 H   0  0  0  0  0  0  0  0  0  0  0  0
   -2.5352   -2.6544   -0.7191 C   0  0  0  0  0  0  0  0  0  0  0  0
   -3.3015   -2.1609   -0.1167 H   0  0  0  0  0  0  0  0  0  0  0  0
   -2.8054   -2.5803   -1.7751 H   0  0  0  0  0  0  0  0  0  0  0  0
   -1.1863   -2.0020   -0.4805 C   0  0  0  0  0  0  0  0  0  0  0  0
   -0.2926   -2.6383    0.0471 O   0  0  0  0  0  0  0  0  0  0  0  0
   -0.9864   -0.6857   -0.8521 N   0  0  0  0  0  0  0  0  0  0  0  0
   -1.7437   -0.2406   -1.3617 H   0  0  0  0  0  0  0  0  0  0  0  0
    0.3214   -0.0028   -0.8106 C   0  0  1  0  0  0  0  0  0  0  0  0
    1.0058   -0.5798   -1.4442 H   0  0  0  0  0  0  0  0  0  0  0  0
    0.1345    1.4205   -1.3865 C   0  0  0  0  0  0  0  0  0  0  0  0
   -0.6601    1.4108   -2.1363 H   0  0  0  0  0  0  0  0  0  0  0  0
   -0.1736    2.1035   -0.5900 H   0  0  0  0  0  0  0  0  0  0  0  0
    1.3683    2.0012   -2.0784 C   0  0  0  0  0  0  0  0  0  0  0  0
    2.3017    1.2851   -2.3944 O   0  0  0  0  0  0  0  0  0  0  0  0
    1.3394    3.3314   -2.3205 O   0  0  0  0  0  0  0  0  0  0  0  0
    2.1926    3.5402   -2.7320 H   0  0  0  0  0  0  0  0  0  0  0  0
    0.9745    0.0677    0.5896 C   0  0  0  0  0  0  0  0  0  0  0  0
    2.1916    0.0474    0.7032 O   0  0  0  0  0  0  0  0  0  0  0  0
    0.2082    0.4203    1.6864 N   0  0  0  0  0  0  0  0  0  0  0  0
   -0.7960    0.3278    1.5768 H   0  0  0  0  0  0  0  0  0  0  0  0
    0.7595    0.5127    3.0327 C   0  0  0  0  0  0  0  0  0  0  0  0
    1.5653    1.2534    3.0674 H   0  0  0  0  0  0  0  0  0  0  0  0
   -0.0172    0.8166    3.7408 H   0  0  0  0  0  0  0  0  0  0  0  0
    1.1589   -0.4570    3.3481 H   0  0  0  0  0  0  0  0  0  0  0  0
  1  2  1  0  0  0  0
  2  3  1  0  0  0  0
  2  4  1  0  0  0  0
  2  5  1  0  0  0  0
  5  6  2  0  0  0  0
  5  7  1  0  0  0  0
  7  8  1  0  0  0  0
  7  9  1  0  0  0  0
  9 10  1  0  0  0  0
  9 11  1  0  0  0  0
  9 18  1  0  0  0  0
 11 12  1  0  0  0  0
 11 13  1  0  0  0  0
 11 14  1  0  0  0  0
 14 15  2  0  0  0  0
 14 16  1  0  0  0  0
 16 17  1  0  0  0  0
 18 19  2  0  0  0  0
 18 20  1  0  0  0  0
 20 21  1  0  0  0  0
 20 22  1  0  0  0  0
 22 23  1  0  0  0  0
 22 24  1  0  0  0  0
 22 25  1  0  0  0  0
M  END
$$$$

  -OEChem-02102214113D

 25 24  0     1  0  0  0  0  0999 V2000
   -2.5075   -3.7099   -0.4190 H   0  0  0  0  0  0  0  0  0  0  0  0
   -2.5367   -2.6652   -0.7415 C   0  0  0  0  0  0  0  0  0  0  0  0
   -3.3202   -2.1465   -0.1842 H   0  0  0  0  0  0  0  0  0  0  0  0
   -2.7739   -2.6341   -1.8077 H   0  0  0  0  0  0  0  0  0  0  0  0
   -1.1949   -2.0040   -0.4891 C   0  0  0  0  0  0  0  0  0  0  0  0
   -0.2996   -2.6364    0.0407 O   0  0  0  0  0  0  0  0  0  0  0  0
   -1.0029   -0.6838   -0.8501 N   0  0  0  0  0  0  0  0  0  0  0  0
   -1.7591   -0.2420   -1.3641 H   0  0  0  0  0  0  0  0  0  0  0  0
    0.3028    0.0019   -0.8061 C   0  0  1  0  0  0  0  0  0  0  0  0
    0.9845   -0.5737   -1.4438 H   0  0  0  0  0  0  0  0  0  0  0  0
    0.1215    1.4282   -1.3735 C   0  0  0  0  0  0  0  0  0  0  0  0
   -0.6709    1.4301   -2.1255 H   0  0  0  0  0  0  0  0  0  0  0  0
   -0.1820    2.1092   -0.5732 H   0  0  0  0  0  0  0  0  0  0  0  0
    1.3684    1.9912   -2.0550 C   0  0  0  0  0  0  0  0  0  0  0  0
    2.1586    1.2428   -2.6037 O   0  0  0  0  0  0  0  0  0  0  0  0
    1.5143    3.3356   -2.0265 O   0  0  0  0  0  0  0  0  0  0  0  0
    2.3606    3.5164   -2.4645 H   0  0  0  0  0  0  0  0  0  0  0  0
    0.9675    0.0668    0.5879 C   0  0  0  0  0  0  0  0  0  0  0  0
    2.1867    0.0772    0.6815 O   0  0  0  0  0  0  0  0  0  0  0  0
    0.2107    0.4098    1.6939 N   0  0  0  0  0  0  0  0  0  0  0  0
   -0.7935    0.3020    1.5984 H   0  0  0  0  0  0  0  0  0  0  0  0
    0.7794    0.5310    3.0307 C   0  0  0  0  0  0  0  0  0  0  0  0
    1.5604    1.2987    3.0470 H   0  0  0  0  0  0  0  0  0  0  0  0
    0.0040    0.8147    3.7483 H   0  0  0  0  0  0  0  0  0  0  0  0
    1.2160   -0.4220    3.3480 H   0  0  0  0  0  0  0  0  0  0  0  0
  1  2  1  0  0  0  0
  2  3  1  0  0  0  0
  2  4  1  0  0  0  0
  2  5  1  0  0  0  0
  5  6  2  0  0  0  0
  5  7  1  0  0  0  0
  7  8  1  0  0  0  0
  7  9  1  0  0  0  0
  9 10  1  0  0  0  0
  9 11  1  0  0  0  0
  9 18  1  0  0  0  0
 11 12  1  0  0  0  0
 11 13  1  0  0  0  0
 11 14  1  0  0  0  0
 14 15  2  0  0  0  0
 14 16  1  0  0  0  0
 16 17  1  0  0  0  0
 18 19  2  0  0  0  0
 18 20  1  0  0  0  0
 20 21  1  0  0  0  0
 20 22  1  0  0  0  0
 22 23  1  0  0  0  0
 22 24  1  0  0  0  0
 22 25  1  0  0  0  0
M  END
$$$$

  -OEChem-02102214113D

 25 24  0     1  0  0  0  0  0999 V2000
   -2.4942   -3.7197   -0.4374 H   0  0  0  0  0  0  0  0  0  0  0  0
   -2.5313   -2.6737   -0.7552 C   0  0  0  0  0  0  0  0  0  0  0  0
   -3.3226   -2.1657   -0.1992 H   0  0  0  0  0  0  0  0  0  0  0  0
   -2.7636   -2.6397   -1.8224 H   0  0  0  0  0  0  0  0  0  0  0  0
   -1.1965   -2.0015   -0.4922 C   0  0  0  0  0  0  0  0  0  0  0  0
   -0.2995   -2.6271    0.0431 O   0  0  0  0  0  0  0  0  0  0  0  0
   -1.0130   -0.6786   -0.8480 N   0  0  0  0  0  0  0  0  0  0  0  0
   -1.7671   -0.2448   -1.3719 H   0  0  0  0  0  0  0  0  0  0  0  0
    0.2891    0.0135   -0.8028 C   0  0  1  0  0  0  0  0  0  0  0  0
    0.9731   -0.5562   -1.4438 H   0  0  0  0  0  0  0  0  0  0  0  0
    0.1050    1.4384   -1.3683 C   0  0  0  0  0  0  0  0  0  0  0  0
   -0.6823    1.4429   -2.1256 H   0  0  0  0  0  0  0  0  0  0  0  0
   -0.2000    2.1216   -0.5703 H   0  0  0  0  0  0  0  0  0  0  0  0
    1.3655    1.9779   -2.0394 C   0  0  0  0  0  0  0  0  0  0  0  0
    1.9928    1.2603   -2.7999 O   0  0  0  0  0  0  0  0  0  0  0  0
    1.7125    3.2551   -1.7600 O   0  0  0  0  0  0  0  0  0  0  0  0
    2.5504    3.4079   -2.2235 H   0  0  0  0  0  0  0  0  0  0  0  0
    0.9621    0.0796    0.5866 C   0  0  0  0  0  0  0  0  0  0  0  0
    2.1823    0.1004    0.6670 O   0  0  0  0  0  0  0  0  0  0  0  0
    0.2117    0.4154    1.6989 N   0  0  0  0  0  0  0  0  0  0  0  0
   -0.7928    0.3042    1.6103 H   0  0  0  0  0  0  0  0  0  0  0  0
    0.7889    0.5394    3.0317 C   0  0  0  0  0  0  0  0  0  0  0  0
    1.5631    1.3140    3.0439 H   0  0  0  0  0  0  0  0  0  0  0  0
    0.0156    0.8147    3.7551 H   0  0  0  0  0  0  0  0  0  0  0  0
    1.2363   -0.4101    3.3443 H   0  0  0  0  0  0  0  0  0  0  0  0
  1  2  1  0  0  0  0
  2  3  1  0  0  0  0
  2  4  1  0  0  0  0
  2  5  1  0  0  0  0
  5  6  2  0  0  0  0
  5  7  1  0  0  0  0
  7  8  1  0  0  0  0
  7  9  1  0  0  0  0
  9 10  1  0  0  0  0
  9 11  1  0  0  0  0
  9 18  1  0  0  0  0
 11 12  1  0  0  0  0
 11 13  1  0  0  0  0
 11 14  1  0  0  0  0
 14 15  2  0  0  0  0
 14 16  1  0  0  0  0
 16 17  1  0  0  0  0
 18 19  2  0  0  0  0
 18 20  1  0  0  0  0
 20 21  1  0  0  0  0
 20 22  1  0  0  0  0
 22 23  1  0  0  0  0
 22 24  1  0  0  0  0
 22 25  1  0  0  0  0
M  END
$$$$

  -OEChem-02102214113D

 25 24  0     1  0  0  0  0  0999 V2000
   -2.4796   -3.7229   -0.4491 H   0  0  0  0  0  0  0  0  0  0  0  0
   -2.5234   -2.6751   -0.7600 C   0  0  0  0  0  0  0  0  0  0  0  0
   -3.3138   -2.1736   -0.1967 H   0  0  0  0  0  0  0  0  0  0  0  0
   -2.7612   -2.6358   -1.8257 H   0  0  0  0  0  0  0  0  0  0  0  0
   -1.1906   -1.9982   -0.5001 C   0  0  0  0  0  0  0  0  0  0  0  0
   -0.2878   -2.6227    0.0267 O   0  0  0  0  0  0  0  0  0  0  0  0
   -1.0148   -0.6728   -0.8495 N   0  0  0  0  0  0  0  0  0  0  0  0
   -1.7727   -0.2384   -1.3675 H   0  0  0  0  0  0  0  0  0  0  0  0
    0.2830    0.0261   -0.8003 C   0  0  1  0  0  0  0  0  0  0  0  0
    0.9715   -0.5349   -1.4449 H   0  0  0  0  0  0  0  0  0  0  0  0
    0.0928    1.4469   -1.3680 C   0  0  0  0  0  0  0  0  0  0  0  0
   -0.6892    1.4498   -2.1312 H   0  0  0  0  0  0  0  0  0  0  0  0
   -0.2147    2.1351   -0.5753 H   0  0  0  0  0  0  0  0  0  0  0  0
    1.3670    1.9624   -2.0264 C   0  0  0  0  0  0  0  0  0  0  0  0
    1.8306    1.3416   -2.9682 O   0  0  0  0  0  0  0  0  0  0  0  0
    1.9070    3.1025   -1.5392 O   0  0  0  0  0  0  0  0  0  0  0  0
    2.7300    3.2393   -2.0330 H   0  0  0  0  0  0  0  0  0  0  0  0
    0.9576    0.0918    0.5878 C   0  0  0  0  0  0  0  0  0  0  0  0
    2.1784    0.1032    0.6647 O   0  0  0  0  0  0  0  0  0  0  0  0
    0.2090    0.4194    1.7035 N   0  0  0  0  0  0  0  0  0  0  0  0
   -0.7963    0.3164    1.6151 H   0  0  0  0  0  0  0  0  0  0  0  0
    0.7889    0.5408    3.0351 C   0  0  0  0  0  0  0  0  0  0  0  0
    1.5636    1.3151    3.0470 H   0  0  0  0  0  0  0  0  0  0  0  0
    0.0173    0.8157    3.7606 H   0  0  0  0  0  0  0  0  0  0  0  0
    1.2359   -0.4098    3.3451 H   0  0  0  0  0  0  0  0  0  0  0  0
  1  2  1  0  0  0  0
  2  3  1  0  0  0  0
  2  4  1  0  0  0  0
  2  5  1  0  0  0  0
  5  6  2  0  0  0  0
  5  7  1  0  0  0  0
  7  8  1  0  0  0  0
  7  9  1  0  0  0  0
  9 10  1  0  0  0  0
  9 11  1  0  0  0  0
  9 18  1  0  0  0  0
 11 12  1  0  0  0  0
 11 13  1  0  0  0  0
 11 14  1  0  0  0  0
 14 15  2  0  0  0  0
 14 16  1  0  0  0  0
 16 17  1  0  0  0  0
 18 19  2  0  0  0  0
 18 20  1  0  0  0  0
 20 21  1  0  0  0  0
 20 22  1  0  0  0  0
 22 23  1  0  0  0  0
 22 24  1  0  0  0  0
 22 25  1  0  0  0  0
M  END
$$$$

  -OEChem-02102214113D

 25 24  0     1  0  0  0  0  0999 V2000
   -2.4786   -3.7173   -0.4427 H   0  0  0  0  0  0  0  0  0  0  0  0
   -2.5200   -2.6722   -0.7629 C   0  0  0  0  0  0  0  0  0  0  0  0
   -3.3121   -2.1655   -0.2066 H   0  0  0  0  0  0  0  0  0  0  0  0
   -2.7540   -2.6415   -1.8297 H   0  0  0  0  0  0  0  0  0  0  0  0
   -1.1872   -1.9947   -0.5044 C   0  0  0  0  0  0  0  0  0  0  0  0
   -0.2812   -2.6206    0.0155 O   0  0  0  0  0  0  0  0  0  0  0  0
   -1.0137   -0.6680   -0.8503 N   0  0  0  0  0  0  0  0  0  0  0  0
   -1.7728   -0.2333   -1.3667 H   0  0  0  0  0  0  0  0  0  0  0  0
    0.2821    0.0341   -0.7968 C   0  0  1  0  0  0  0  0  0  0  0  0
    0.9740   -0.5221   -1.4421 H   0  0  0  0  0  0  0  0  0  0  0  0
    0.0881    1.4495   -1.3726 C   0  0  0  0  0  0  0  0  0  0  0  0
   -0.6891    1.4470   -2.1409 H   0  0  0  0  0  0  0  0  0  0  0  0
   -0.2217    2.1447   -0.5870 H   0  0  0  0  0  0  0  0  0  0  0  0
    1.3719    1.9484   -2.0211 C   0  0  0  0  0  0  0  0  0  0  0  0
    1.6866    1.4890   -3.1060 O   0  0  0  0  0  0  0  0  0  0  0  0
    2.0791    2.9007   -1.3718 O   0  0  0  0  0  0  0  0  0  0  0  0
    2.8812    3.0463   -1.8962 H   0  0  0  0  0  0  0  0  0  0  0  0
    0.9554    0.0995    0.5920 C   0  0  0  0  0  0  0  0  0  0  0  0
    2.1761    0.0881    0.6703 O   0  0  0  0  0  0  0  0  0  0  0  0
    0.2086    0.4232    1.7100 N   0  0  0  0  0  0  0  0  0  0  0  0
   -0.7981    0.3355    1.6203 H   0  0  0  0  0  0  0  0  0  0  0  0
    0.7905    0.5364    3.0414 C   0  0  0  0  0  0  0  0  0  0  0  0
    1.5694    1.3060    3.0543 H   0  0  0  0  0  0  0  0  0  0  0  0
    0.0217    0.8131    3.7689 H   0  0  0  0  0  0  0  0  0  0  0  0
    1.2328   -0.4175    3.3475 H   0  0  0  0  0  0  0  0  0  0  0  0
  1  2  1  0  0  0  0
  2  3  1  0  0  0  0
  2  4  1  0  0  0  0
  2  5  1  0  0  0  0
  5  6  2  0  0  0  0
  5  7  1  0  0  0  0
  7  8  1  0  0  0  0
  7  9  1  0  0  0  0
  9 10  1  0  0  0  0
  9 11  1  0  0  0  0
  9 18  1  0  0  0  0
 11 12  1  0  0  0  0
 11 13  1  0  0  0  0
 11 14  1  0  0  0  0
 14 15  2  0  0  0  0
 14 16  1  0  0  0  0
 16 17  1  0  0  0  0
 18 19  2  0  0  0  0
 18 20  1  0  0  0  0
 20 21  1  0  0  0  0
 20 22  1  0  0  0  0
 22 23  1  0  0  0  0
 22 24  1  0  0  0  0
 22 25  1  0  0  0  0
M  END
$$$$

  -OEChem-02102214113D

 25 24  0     1  0  0  0  0  0999 V2000
   -2.4669   -3.7152   -0.4589 H   0  0  0  0  0  0  0  0  0  0  0  0
   -2.5164   -2.6610   -0.7467 C   0  0  0  0  0  0  0  0  0  0  0  0
   -3.2961   -2.1720   -0.1580 H   0  0  0  0  0  0  0  0  0  0  0  0
   -2.7745   -2.5987   -1.8066 H   0  0  0  0  0  0  0  0  0  0  0  0
   -1.1784   -1.9899   -0.4989 C   0  0  0  0  0  0  0  0  0  0  0  0
   -0.2712   -2.6201    0.0131 O   0  0  0  0  0  0  0  0  0  0  0  0
   -0.9998   -0.6654   -0.8508 N   0  0  0  0  0  0  0  0  0  0  0  0
   -1.7635   -0.2241   -1.3544 H   0  0  0  0  0  0  0  0  0  0  0  0
    0.2966    0.0356   -0.7957 C   0  0  1  0  0  0  0  0  0  0  0  0
    0.9923   -0.5232   -1.4347 H   0  0  0  0  0  0  0  0  0  0  0  0
    0.0978    1.4427   -1.3899 C   0  0  0  0  0  0  0  0  0  0  0  0
   -0.6795    1.4265   -2.1588 H   0  0  0  0  0  0  0  0  0  0  0  0
   -0.2161    2.1461   -0.6134 H   0  0  0  0  0  0  0  0  0  0  0  0
    1.3816    1.9407   -2.0389 C   0  0  0  0  0  0  0  0  0  0  0  0
    1.5646    1.6904   -3.2181 O   0  0  0  0  0  0  0  0  0  0  0  0
    2.2233    2.6841   -1.2866 O   0  0  0  0  0  0  0  0  0  0  0  0
    2.9962    2.8688   -1.8409 H   0  0  0  0  0  0  0  0  0  0  0  0
    0.9607    0.1057    0.5979 C   0  0  0  0  0  0  0  0  0  0  0  0
    2.1786    0.0434    0.6926 O   0  0  0  0  0  0  0  0  0  0  0  0
    0.2076    0.4357    1.7100 N   0  0  0  0  0  0  0  0  0  0  0  0
   -0.7995    0.3746    1.6067 H   0  0  0  0  0  0  0  0  0  0  0  0
    0.7742    0.5134    3.0504 C   0  0  0  0  0  0  0  0  0  0  0  0
    1.5811    1.2533    3.0828 H   0  0  0  0  0  0  0  0  0  0  0  0
    0.0058    0.8114    3.7699 H   0  0  0  0  0  0  0  0  0  0  0  0
    1.1757   -0.4597    3.3523 H   0  0  0  0  0  0  0  0  0  0  0  0
  1  2  1  0  0  0  0
  2  3  1  0  0  0  0
  2  4  1  0  0  0  0
  2  5  1  0  0  0  0
  5  6  2  0  0  0  0
  5  7  1  0  0  0  0
  7  8  1  0  0  0  0
  7  9  1  0  0  0  0
  9 10  1  0  0  0  0
  9 11  1  0  0  0  0
  9 18  1  0  0  0  0
 11 12  1  0  0  0  0
 11 13  1  0  0  0  0
 11 14  1  0  0  0  0
 14 15  2  0  0  0  0
 14 16  1  0  0  0  0
 16 17  1  0  0  0  0
 18 19  2  0  0  0  0
 18 20  1  0  0  0  0
 20 21  1  0  0  0  0
 20 22  1  0  0  0  0
 22 23  1  0  0  0  0
 22 24  1  0  0  0  0
 22 25  1  0  0  0  0
M  END
$$$$

  -OEChem-02102214113D

 25 24  0     1  0  0  0  0  0999 V2000
   -2.4773   -3.6983   -0.4272 H   0  0  0  0  0  0  0  0  0  0  0  0
   -2.5177   -2.6456   -0.7214 C   0  0  0  0  0  0  0  0  0  0  0  0
   -3.2826   -2.1429   -0.1250 H   0  0  0  0  0  0  0  0  0  0  0  0
   -2.7905   -2.5876   -1.7780 H   0  0  0  0  0  0  0  0  0  0  0  0
   -1.1683   -1.9894   -0.4954 C   0  0  0  0  0  0  0  0  0  0  0  0
   -0.2606   -2.6296    0.0029 O   0  0  0  0  0  0  0  0  0  0  0  0
   -0.9797   -0.6682   -0.8548 N   0  0  0  0  0  0  0  0  0  0  0  0
   -1.7470   -0.2171   -1.3440 H   0  0  0  0  0  0  0  0  0  0  0  0
    0.3198    0.0278   -0.8001 C   0  0  1  0  0  0  0  0  0  0  0  0
    1.0191   -0.5322   -1.4336 H   0  0  0  0  0  0  0  0  0  0  0  0
    0.1140    1.4312   -1.4039 C   0  0  0  0  0  0  0  0  0  0  0  0
   -0.6698    1.4048   -2.1662 H   0  0  0  0  0  0  0  0  0  0  0  0
   -0.1994    2.1365   -0.6293 H   0  0  0  0  0  0  0  0  0  0  0  0
    1.3883    1.9436   -2.0627 C   0  0  0  0  0  0  0  0  0  0  0  0
    1.4444    1.9400   -3.2807 O   0  0  0  0  0  0  0  0  0  0  0  0
    2.3551    2.4518   -1.2678 O   0  0  0  0  0  0  0  0  0  0  0  0
    3.0904    2.6988   -1.8481 H   0  0  0  0  0  0  0  0  0  0  0  0
    0.9703    0.0985    0.6008 C   0  0  0  0  0  0  0  0  0  0  0  0
    2.1822   -0.0164    0.7187 O   0  0  0  0  0  0  0  0  0  0  0  0
    0.2071    0.4369    1.7036 N   0  0  0  0  0  0  0  0  0  0  0  0
   -0.7994    0.4081    1.5821 H   0  0  0  0  0  0  0  0  0  0  0  0
    0.7523    0.4872    3.0543 C   0  0  0  0  0  0  0  0  0  0  0  0
    1.5804    1.2019    3.1069 H   0  0  0  0  0  0  0  0  0  0  0  0
   -0.0193    0.8027    3.7629 H   0  0  0  0  0  0  0  0  0  0  0  0
    1.1194   -0.4996    3.3553 H   0  0  0  0  0  0  0  0  0  0  0  0
  1  2  1  0  0  0  0
  2  3  1  0  0  0  0
  2  4  1  0  0  0  0
  2  5  1  0  0  0  0
  5  6  2  0  0  0  0
  5  7  1  0  0  0  0
  7  8  1  0  0  0  0
  7  9  1  0  0  0  0
  9 10  1  0  0  0  0
  9 11  1  0  0  0  0
  9 18  1  0  0  0  0
 11 12  1  0  0  0  0
 11 13  1  0  0  0  0
 11 14  1  0  0  0  0
 14 15  2  0  0  0  0
 14 16  1  0  0  0  0
 16 17  1  0  0  0  0
 18 19  2  0  0  0  0
 18 20  1  0  0  0  0
 20 21  1  0  0  0  0
 20 22  1  0  0  0  0
 22 23  1  0  0  0  0
 22 24  1  0  0  0  0
 22 25  1  0  0  0  0
M  END
$$$$

  -OEChem-02102214113D

 25 24  0     1  0  0  0  0  0999 V2000
   -2.4806   -3.6837   -0.3936 H   0  0  0  0  0  0  0  0  0  0  0  0
   -2.5164   -2.6316   -0.6909 C   0  0  0  0  0  0  0  0  0  0  0  0
   -3.2674   -2.1204   -0.0842 H   0  0  0  0  0  0  0  0  0  0  0  0
   -2.8049   -2.5745   -1.7432 H   0  0  0  0  0  0  0  0  0  0  0  0
   -1.1582   -1.9865   -0.4879 C   0  0  0  0  0  0  0  0  0  0  0  0
   -0.2496   -2.6332    0.0000 O   0  0  0  0  0  0  0  0  0  0  0  0
   -0.9623   -0.6692   -0.8578 N   0  0  0  0  0  0  0  0  0  0  0  0
   -1.7333   -0.2117   -1.3352 H   0  0  0  0  0  0  0  0  0  0  0  0
    0.3404    0.0220   -0.8066 C   0  0  1  0  0  0  0  0  0  0  0  0
    1.0428   -0.5414   -1.4333 H   0  0  0  0  0  0  0  0  0  0  0  0
    0.1302    1.4223   -1.4213 C   0  0  0  0  0  0  0  0  0  0  0  0
   -0.6593    1.3860   -2.1774 H   0  0  0  0  0  0  0  0  0  0  0  0
   -0.1820    2.1298   -0.6485 H   0  0  0  0  0  0  0  0  0  0  0  0
    1.3930    1.9506   -2.0935 C   0  0  0  0  0  0  0  0  0  0  0  0
    1.3381    2.2047   -3.2848 O   0  0  0  0  0  0  0  0  0  0  0  0
    2.4745    2.1997   -1.3248 O   0  0  0  0  0  0  0  0  0  0  0  0
    3.1713    2.5213   -1.9157 H   0  0  0  0  0  0  0  0  0  0  0  0
    0.9770    0.0940    0.6022 C   0  0  0  0  0  0  0  0  0  0  0  0
    2.1800   -0.0720    0.7459 O   0  0  0  0  0  0  0  0  0  0  0  0
    0.2038    0.4416    1.6955 N   0  0  0  0  0  0  0  0  0  0  0  0
   -0.8009    0.4376    1.5572 H   0  0  0  0  0  0  0  0  0  0  0  0
    0.7266    0.4570    3.0561 C   0  0  0  0  0  0  0  0  0  0  0  0
    1.5751    1.1452    3.1331 H   0  0  0  0  0  0  0  0  0  0  0  0
   -0.0474    0.7860    3.7559 H   0  0  0  0  0  0  0  0  0  0  0  0
    1.0586   -0.5447    3.3491 H   0  0  0  0  0  0  0  0  0  0  0  0
  1  2  1  0  0  0  0
  2  3  1  0  0  0  0
  2  4  1  0  0  0  0
  2  5  1  0  0  0  0
  5  6  2  0  0  0  0
  5  7  1  0  0  0  0
  7  8  1  0  0  0  0
  7  9  1  0  0  0  0
  9 10  1  0  0  0  0
  9 11  1  0  0  0  0
  9 18  1  0  0  0  0
 11 12  1  0  0  0  0
 11 13  1  0  0  0  0
 11 14  1  0  0  0  0
 14 15  2  0  0  0  0
 14 16  1  0  0  0  0
 16 17  1  0  0  0  0
 18 19  2  0  0  0  0
 18 20  1  0  0  0  0
 20 21  1  0  0  0  0
 20 22  1  0  0  0  0
 22 23  1  0  0  0  0
 22 24  1  0  0  0  0
 22 25  1  0  0  0  0
M  END
$$$$

  -OEChem-02102214113D

 25 24  0     1  0  0  0  0  0999 V2000
   -2.4907   -3.6707   -0.3666 H   0  0  0  0  0  0  0  0  0  0  0  0
   -2.5180   -2.6206   -0.6715 C   0  0  0  0  0  0  0  0  0  0  0  0
   -3.2627   -2.0984   -0.0664 H   0  0  0  0  0  0  0  0  0  0  0  0
   -2.8092   -2.5688   -1.7233 H   0  0  0  0  0  0  0  0  0  0  0  0
   -1.1532   -1.9865   -0.4777 C   0  0  0  0  0  0  0  0  0  0  0  0
   -0.2478   -2.6403    0.0060 O   0  0  0  0  0  0  0  0  0  0  0  0
   -0.9469   -0.6734   -0.8574 N   0  0  0  0  0  0  0  0  0  0  0  0
   -1.7180   -0.2101   -1.3289 H   0  0  0  0  0  0  0  0  0  0  0  0
    0.3604    0.0110   -0.8121 C   0  0  1  0  0  0  0  0  0  0  0  0
    1.0636   -0.5527   -1.4375 H   0  0  0  0  0  0  0  0  0  0  0  0
    0.1451    1.4136   -1.4241 C   0  0  0  0  0  0  0  0  0  0  0  0
   -0.6523    1.3726   -2.1721 H   0  0  0  0  0  0  0  0  0  0  0  0
   -0.1646    2.1164   -0.6460 H   0  0  0  0  0  0  0  0  0  0  0  0
    1.3902    1.9651   -2.1140 C   0  0  0  0  0  0  0  0  0  0  0  0
    1.2402    2.4825   -3.2079 O   0  0  0  0  0  0  0  0  0  0  0  0
    2.5730    1.9210   -1.4663 O   0  0  0  0  0  0  0  0  0  0  0  0
    3.2318    2.3217   -2.0522 H   0  0  0  0  0  0  0  0  0  0  0  0
    0.9862    0.0832    0.6031 C   0  0  0  0  0  0  0  0  0  0  0  0
    2.1830   -0.1049    0.7680 O   0  0  0  0  0  0  0  0  0  0  0  0
    0.2028    0.4409    1.6863 N   0  0  0  0  0  0  0  0  0  0  0  0
   -0.7995    0.4506    1.5331 H   0  0  0  0  0  0  0  0  0  0  0  0
    0.7043    0.4416    3.0550 C   0  0  0  0  0  0  0  0  0  0  0  0
    1.5618    1.1163    3.1491 H   0  0  0  0  0  0  0  0  0  0  0  0
   -0.0757    0.7788    3.7441 H   0  0  0  0  0  0  0  0  0  0  0  0
    1.0163   -0.5665    3.3479 H   0  0  0  0  0  0  0  0  0  0  0  0
  1  2  1  0  0  0  0
  2  3  1  0  0  0  0
  2  4  1  0  0  0  0
  2  5  1  0  0  0  0
  5  6  2  0  0  0  0
  5  7  1  0  0  0  0
  7  8  1  0  0  0  0
  7  9  1  0  0  0  0
  9 10  1  0  0  0  0
  9 11  1  0  0  0  0
  9 18  1  0  0  0  0
 11 12  1  0  0  0  0
 11 13  1  0  0  0  0
 11 14  1  0  0  0  0
 14 15  2  0  0  0  0
 14 16  1  0  0  0  0
 16 17  1  0  0  0  0
 18 19  2  0  0  0  0
 18 20  1  0  0  0  0
 20 21  1  0  0  0  0
 20 22  1  0  0  0  0
 22 23  1  0  0  0  0
 22 24  1  0  0  0  0
 22 25  1  0  0  0  0
M  END
$$$$

  -OEChem-02102214113D

 25 24  0     1  0  0  0  0  0999 V2000
   -2.5051   -3.6643   -0.3507 H   0  0  0  0  0  0  0  0  0  0  0  0
   -2.5233   -2.6169   -0.6652 C   0  0  0  0  0  0  0  0  0  0  0  0
   -3.2633   -2.0824   -0.0651 H   0  0  0  0  0  0  0  0  0  0  0  0
   -2.8139   -2.5721   -1.7176 H   0  0  0  0  0  0  0  0  0  0  0  0
   -1.1534   -1.9921   -0.4778 C   0  0  0  0  0  0  0  0  0  0  0  0
   -0.2500   -2.6508    0.0033 O   0  0  0  0  0  0  0  0  0  0  0  0
   -0.9414   -0.6804   -0.8597 N   0  0  0  0  0  0  0  0  0  0  0  0
   -1.7126   -0.2128   -1.3269 H   0  0  0  0  0  0  0  0  0  0  0  0
    0.3684   -0.0007   -0.8158 C   0  0  1  0  0  0  0  0  0  0  0  0
    1.0703   -0.5642   -1.4426 H   0  0  0  0  0  0  0  0  0  0  0  0
    0.1564    1.4091   -1.4144 C   0  0  0  0  0  0  0  0  0  0  0  0
   -0.6441    1.3738   -2.1590 H   0  0  0  0  0  0  0  0  0  0  0  0
   -0.1503    2.1034   -0.6274 H   0  0  0  0  0  0  0  0  0  0  0  0
    1.3907    1.9783   -2.1116 C   0  0  0  0  0  0  0  0  0  0  0  0
    1.1929    2.7439   -3.0396 O   0  0  0  0  0  0  0  0  0  0  0  0
    2.6226    1.6330   -1.6819 O   0  0  0  0  0  0  0  0  0  0  0  0
    3.2592    2.1057   -2.2379 H   0  0  0  0  0  0  0  0  0  0  0  0
    0.9883    0.0679    0.6029 C   0  0  0  0  0  0  0  0  0  0  0  0
    2.1871   -0.0986    0.7757 O   0  0  0  0  0  0  0  0  0  0  0  0
    0.1985    0.4286    1.6806 N   0  0  0  0  0  0  0  0  0  0  0  0
   -0.8034    0.4304    1.5240 H   0  0  0  0  0  0  0  0  0  0  0  0
    0.6950    0.4469    3.0510 C   0  0  0  0  0  0  0  0  0  0  0  0
    1.5461    1.1303    3.1414 H   0  0  0  0  0  0  0  0  0  0  0  0
   -0.0903    0.7839    3.7342 H   0  0  0  0  0  0  0  0  0  0  0  0
    1.0147   -0.5556    3.3546 H   0  0  0  0  0  0  0  0  0  0  0  0
  1  2  1  0  0  0  0
  2  3  1  0  0  0  0
  2  4  1  0  0  0  0
  2  5  1  0  0  0  0
  5  6  2  0  0  0  0
  5  7  1  0  0  0  0
  7  8  1  0  0  0  0
  7  9  1  0  0  0  0
  9 10  1  0  0  0  0
  9 11  1  0  0  0  0
  9 18  1  0  0  0  0
 11 12  1  0  0  0  0
 11 13  1  0  0  0  0
 11 14  1  0  0  0  0
 14 15  2  0  0  0  0
 14 16  1  0  0  0  0
 16 17  1  0  0  0  0
 18 19  2  0  0  0  0
 18 20  1  0  0  0  0
 20 21  1  0  0  0  0
 20 22  1  0  0  0  0
 22 23  1  0  0  0  0
 22 24  1  0  0  0  0
 22 25  1  0  0  0  0
M  END
$$$$

  -OEChem-02102214113D

 25 24  0     1  0  0  0  0  0999 V2000
   -2.5225   -3.6709   -0.3601 H   0  0  0  0  0  0  0  0  0  0  0  0
   -2.5369   -2.6258   -0.6828 C   0  0  0  0  0  0  0  0  0  0  0  0
   -3.2854   -2.0873   -0.0968 H   0  0  0  0  0  0  0  0  0  0  0  0
   -2.8138   -2.5893   -1.7391 H   0  0  0  0  0  0  0  0  0  0  0  0
   -1.1695   -1.9994   -0.4825 C   0  0  0  0  0  0  0  0  0  0  0  0
   -0.2700   -2.6568    0.0079 O   0  0  0  0  0  0  0  0  0  0  0  0
   -0.9556   -0.6867   -0.8589 N   0  0  0  0  0  0  0  0  0  0  0  0
   -1.7219   -0.2197   -1.3346 H   0  0  0  0  0  0  0  0  0  0  0  0
    0.3560   -0.0113   -0.8125 C   0  0  1  0  0  0  0  0  0  0  0  0
    1.0501   -0.5815   -1.4418 H   0  0  0  0  0  0  0  0  0  0  0  0
    0.1618    1.4060   -1.3987 C   0  0  0  0  0  0  0  0  0  0  0  0
   -0.6343    1.3831   -2.1480 H   0  0  0  0  0  0  0  0  0  0  0  0
   -0.1441    2.0953   -0.6071 H   0  0  0  0  0  0  0  0  0  0  0  0
    1.3990    1.9769   -2.0910 C   0  0  0  0  0  0  0  0  0  0  0  0
    1.2205    2.9502   -2.8031 O   0  0  0  0  0  0  0  0  0  0  0  0
    2.6012    1.3805   -1.9335 O   0  0  0  0  0  0  0  0  0  0  0  0
    3.2433    1.9058   -2.4331 H   0  0  0  0  0  0  0  0  0  0  0  0
    0.9839    0.0531    0.6023 C   0  0  0  0  0  0  0  0  0  0  0  0
    2.1919   -0.0511    0.7586 O   0  0  0  0  0  0  0  0  0  0  0  0
    0.1993    0.4127    1.6840 N   0  0  0  0  0  0  0  0  0  0  0  0
   -0.8043    0.3787    1.5418 H   0  0  0  0  0  0  0  0  0  0  0  0
    0.7141    0.4746    3.0464 C   0  0  0  0  0  0  0  0  0  0  0  0
    1.5424    1.1881    3.1111 H   0  0  0  0  0  0  0  0  0  0  0  0
   -0.0723    0.7985    3.7345 H   0  0  0  0  0  0  0  0  0  0  0  0
    1.0720   -0.5102    3.3647 H   0  0  0  0  0  0  0  0  0  0  0  0
  1  2  1  0  0  0  0
  2  3  1  0  0  0  0
  2  4  1  0  0  0  0
  2  5  1  0  0  0  0
  5  6  2  0  0  0  0
  5  7  1  0  0  0  0
  7  8  1  0  0  0  0
  7  9  1  0  0  0  0
  9 10  1  0  0  0  0
  9 11  1  0  0  0  0
  9 18  1  0  0  0  0
 11 12  1  0  0  0  0
 11 13  1  0  0  0  0
 11 14  1  0  0  0  0
 14 15  2  0  0  0  0
 14 16  1  0  0  0  0
 16 17  1  0  0  0  0
 18 19  2  0  0  0  0
 18 20  1  0  0  0  0
 20 21  1  0  0  0  0
 20 22  1  0  0  0  0
 22 23  1  0  0  0  0
 22 24  1  0  0  0  0
 22 25  1  0  0  0  0
M  END
$$$$

  -OEChem-02102214113D

 25 24  0     1  0  0  0  0  0999 V2000
   -2.5288   -3.7170   -0.4449 H   0  0  0  0  0  0  0  0  0  0  0  0
   -2.5629   -2.6599   -0.7240 C   0  0  0  0  0  0  0  0  0  0  0  0
   -3.3290   -2.1620   -0.1248 H   0  0  0  0  0  0  0  0  0  0  0  0
   -2.8298   -2.5860   -1.7810 H   0  0  0  0  0  0  0  0  0  0  0  0
   -1.2117   -2.0132   -0.4814 C   0  0  0  0  0  0  0  0  0  0  0  0
   -0.3198   -2.6546    0.0434 O   0  0  0  0  0  0  0  0  0  0  0  0
   -1.0046   -0.6970   -0.8485 N   0  0  0  0  0  0  0  0  0  0  0  0
   -1.7584   -0.2457   -1.3580 H   0  0  0  0  0  0  0  0  0  0  0  0
    0.3074   -0.0223   -0.7998 C   0  0  1  0  0  0  0  0  0  0  0  0
    0.9841   -0.6230   -1.4174 H   0  0  0  0  0  0  0  0  0  0  0  0
    0.1552    1.4007   -1.3936 C   0  0  0  0  0  0  0  0  0  0  0  0
   -0.7869    1.4706   -1.9429 H   0  0  0  0  0  0  0  0  0  0  0  0
    0.1175    2.1366   -0.5849 H   0  0  0  0  0  0  0  0  0  0  0  0
    1.2589    1.8138   -2.3682 C   0  0  0  0  0  0  0  0  0  0  0  0
    1.1592    2.9302   -2.8471 O   0  0  0  0  0  0  0  0  0  0  0  0
    2.2515    0.9525   -2.6922 O   0  0  0  0  0  0  0  0  0  0  0  0
    2.8475    1.4331   -3.2862 H   0  0  0  0  0  0  0  0  0  0  0  0
    0.9662    0.0467    0.5966 C   0  0  0  0  0  0  0  0  0  0  0  0
    2.1853    0.0415    0.6947 O   0  0  0  0  0  0  0  0  0  0  0  0
    0.2086    0.4037    1.6976 N   0  0  0  0  0  0  0  0  0  0  0  0
   -0.7970    0.3158    1.5968 H   0  0  0  0  0  0  0  0  0  0  0  0
    0.7721    0.5292    3.0364 C   0  0  0  0  0  0  0  0  0  0  0  0
    1.5689    1.2806    3.0485 H   0  0  0  0  0  0  0  0  0  0  0  0
   -0.0017    0.8380    3.7456 H   0  0  0  0  0  0  0  0  0  0  0  0
    1.1867   -0.4287    3.3681 H   0  0  0  0  0  0  0  0  0  0  0  0
  1  2  1  0  0  0  0
  2  3  1  0  0  0  0
  2  4  1  0  0  0  0
  2  5  1  0  0  0  0
  5  6  2  0  0  0  0
  5  7  1  0  0  0  0
  7  8  1  0  0  0  0
  7  9  1  0  0  0  0
  9 10  1  0  0  0  0
  9 11  1  0  0  0  0
  9 18  1  0  0  0  0
 11 12  1  0  0  0  0
 11 13  1  0  0  0  0
 11 14  1  0  0  0  0
 14 15  2  0  0  0  0
 14 16  1  0  0  0  0
 16 17  1  0  0  0  0
 18 19  2  0  0  0  0
 18 20  1  0  0  0  0
 20 21  1  0  0  0  0
 20 22  1  0  0  0  0
 22 23  1  0  0  0  0
 22 24  1  0  0  0  0
 22 25  1  0  0  0  0
M  END
$$$$

  -OEChem-02102214113D

 25 24  0     1  0  0  0  0  0999 V2000
   -2.5266   -3.7229   -0.4582 H   0  0  0  0  0  0  0  0  0  0  0  0
   -2.5626   -2.6655   -0.7360 C   0  0  0  0  0  0  0  0  0  0  0  0
   -3.3362   -2.1720   -0.1429 H   0  0  0  0  0  0  0  0  0  0  0  0
   -2.8201   -2.5909   -1.7953 H   0  0  0  0  0  0  0  0  0  0  0  0
   -1.2165   -2.0136   -0.4802 C   0  0  0  0  0  0  0  0  0  0  0  0
   -0.3262   -2.6523    0.0508 O   0  0  0  0  0  0  0  0  0  0  0  0
   -1.0120   -0.6963   -0.8449 N   0  0  0  0  0  0  0  0  0  0  0  0
   -1.7630   -0.2494   -1.3622 H   0  0  0  0  0  0  0  0  0  0  0  0
    0.2990   -0.0205   -0.7951 C   0  0  1  0  0  0  0  0  0  0  0  0
    0.9762   -0.6229   -1.4103 H   0  0  0  0  0  0  0  0  0  0  0  0
    0.1512    1.4028   -1.3892 C   0  0  0  0  0  0  0  0  0  0  0  0
   -0.7861    1.4741   -1.9458 H   0  0  0  0  0  0  0  0  0  0  0  0
    0.1081    2.1390   -0.5807 H   0  0  0  0  0  0  0  0  0  0  0  0
    1.2613    1.8074   -2.3596 C   0  0  0  0  0  0  0  0  0  0  0  0
    1.3407    2.9946   -2.6236 O   0  0  0  0  0  0  0  0  0  0  0  0
    2.0345    0.8629   -2.9459 O   0  0  0  0  0  0  0  0  0  0  0  0
    2.6704    1.3403   -3.5006 H   0  0  0  0  0  0  0  0  0  0  0  0
    0.9629    0.0495    0.5981 C   0  0  0  0  0  0  0  0  0  0  0  0
    2.1830    0.0508    0.6847 O   0  0  0  0  0  0  0  0  0  0  0  0
    0.2114    0.4048    1.7038 N   0  0  0  0  0  0  0  0  0  0  0  0
   -0.7950    0.3165    1.6098 H   0  0  0  0  0  0  0  0  0  0  0  0
    0.7835    0.5379    3.0380 C   0  0  0  0  0  0  0  0  0  0  0  0
    1.5778    1.2920    3.0415 H   0  0  0  0  0  0  0  0  0  0  0  0
    0.0136    0.8467    3.7514 H   0  0  0  0  0  0  0  0  0  0  0  0
    1.2035   -0.4173    3.3704 H   0  0  0  0  0  0  0  0  0  0  0  0
  1  2  1  0  0  0  0
  2  3  1  0  0  0  0
  2  4  1  0  0  0  0
  2  5  1  0  0  0  0
  5  6  2  0  0  0  0
  5  7  1  0  0  0  0
  7  8  1  0  0  0  0
  7  9  1  0  0  0  0
  9 10  1  0  0  0  0
  9 11  1  0  0  0  0
  9 18  1  0  0  0  0
 11 12  1  0  0  0  0
 11 13  1  0  0  0  0
 11 14  1  0  0  0  0
 14 15  2  0  0  0  0
 14 16  1  0  0  0  0
 16 17  1  0  0  0  0
 18 19  2  0  0  0  0
 18 20  1  0  0  0  0
 20 21  1  0  0  0  0
 20 22  1  0  0  0  0
 22 23  1  0  0  0  0
 22 24  1  0  0  0  0
 22 25  1  0  0  0  0
M  END
$$$$

  -OEChem-02102214113D

 25 24  0     1  0  0  0  0  0999 V2000
   -2.5135   -3.7233   -0.4530 H   0  0  0  0  0  0  0  0  0  0  0  0
   -2.5550   -2.6659   -0.7299 C   0  0  0  0  0  0  0  0  0  0  0  0
   -3.3248   -2.1748   -0.1299 H   0  0  0  0  0  0  0  0  0  0  0  0
   -2.8215   -2.5912   -1.7869 H   0  0  0  0  0  0  0  0  0  0  0  0
   -1.2091   -2.0098   -0.4851 C   0  0  0  0  0  0  0  0  0  0  0  0
   -0.3131   -2.6451    0.0406 O   0  0  0  0  0  0  0  0  0  0  0  0
   -1.0130   -0.6907   -0.8477 N   0  0  0  0  0  0  0  0  0  0  0  0
   -1.7670   -0.2472   -1.3637 H   0  0  0  0  0  0  0  0  0  0  0  0
    0.2944   -0.0086   -0.7992 C   0  0  1  0  0  0  0  0  0  0  0  0
    0.9770   -0.6029   -1.4172 H   0  0  0  0  0  0  0  0  0  0  0  0
    0.1401    1.4135   -1.3906 C   0  0  0  0  0  0  0  0  0  0  0  0
   -0.7941    1.4838   -1.9523 H   0  0  0  0  0  0  0  0  0  0  0  0
    0.0948    2.1518   -0.5837 H   0  0  0  0  0  0  0  0  0  0  0  0
    1.2588    1.7974   -2.3570 C   0  0  0  0  0  0  0  0  0  0  0  0
    1.5494    2.9790   -2.4253 O   0  0  0  0  0  0  0  0  0  0  0  0
    1.7937    0.8515   -3.1653 O   0  0  0  0  0  0  0  0  0  0  0  0
    2.4741    1.3019   -3.6893 H   0  0  0  0  0  0  0  0  0  0  0  0
    0.9596    0.0610    0.5926 C   0  0  0  0  0  0  0  0  0  0  0  0
    2.1799    0.0587    0.6758 O   0  0  0  0  0  0  0  0  0  0  0  0
    0.2091    0.4097    1.7007 N   0  0  0  0  0  0  0  0  0  0  0  0
   -0.7972    0.3208    1.6071 H   0  0  0  0  0  0  0  0  0  0  0  0
    0.7828    0.5309    3.0351 C   0  0  0  0  0  0  0  0  0  0  0  0
    1.5811    1.2807    3.0431 H   0  0  0  0  0  0  0  0  0  0  0  0
    0.0152    0.8391    3.7511 H   0  0  0  0  0  0  0  0  0  0  0  0
    1.1980   -0.4288    3.3606 H   0  0  0  0  0  0  0  0  0  0  0  0
  1  2  1  0  0  0  0
  2  3  1  0  0  0  0
  2  4  1  0  0  0  0
  2  5  1  0  0  0  0
  5  6  2  0  0  0  0
  5  7  1  0  0  0  0
  7  8  1  0  0  0  0
  7  9  1  0  0  0  0
  9 10  1  0  0  0  0
  9 11  1  0  0  0  0
  9 18  1  0  0  0  0
 11 12  1  0  0  0  0
 11 13  1  0  0  0  0
 11 14  1  0  0  0  0
 14 15  2  0  0  0  0
 14 16  1  0  0  0  0
 16 17  1  0  0  0  0
 18 19  2  0  0  0  0
 18 20  1  0  0  0  0
 20 21  1  0  0  0  0
 20 22  1  0  0  0  0
 22 23  1  0  0  0  0
 22 24  1  0  0  0  0
 22 25  1  0  0  0  0
M  END
$$$$

  -OEChem-02102214113D

 25 24  0     1  0  0  0  0  0999 V2000
   -2.5181   -3.7160   -0.4309 H   0  0  0  0  0  0  0  0  0  0  0  0
   -2.5514   -2.6698   -0.7485 C   0  0  0  0  0  0  0  0  0  0  0  0
   -3.3403   -2.1584   -0.1920 H   0  0  0  0  0  0  0  0  0  0  0  0
   -2.7841   -2.6346   -1.8156 H   0  0  0  0  0  0  0  0  0  0  0  0
   -1.2139   -2.0030   -0.4868 C   0  0  0  0  0  0  0  0  0  0  0  0
   -0.3165   -2.6334    0.0425 O   0  0  0  0  0  0  0  0  0  0  0  0
   -1.0259   -0.6811   -0.8432 N   0  0  0  0  0  0  0  0  0  0  0  0
   -1.7772   -0.2464   -1.3705 H   0  0  0  0  0  0  0  0  0  0  0  0
    0.2796    0.0048   -0.7991 C   0  0  1  0  0  0  0  0  0  0  0  0
    0.9611   -0.5795   -1.4289 H   0  0  0  0  0  0  0  0  0  0  0  0
    0.1157    1.4257   -1.3858 C   0  0  0  0  0  0  0  0  0  0  0  0
   -0.8185    1.4980   -1.9473 H   0  0  0  0  0  0  0  0  0  0  0  0
    0.0733    2.1657   -0.5802 H   0  0  0  0  0  0  0  0  0  0  0  0
    1.2402    1.7861   -2.3508 C   0  0  0  0  0  0  0  0  0  0  0  0
    1.7472    2.8890   -2.2465 O   0  0  0  0  0  0  0  0  0  0  0  0
    1.5579    0.9066   -3.3304 O   0  0  0  0  0  0  0  0  0  0  0  0
    2.2870    1.3133   -3.8242 H   0  0  0  0  0  0  0  0  0  0  0  0
    0.9574    0.0707    0.5870 C   0  0  0  0  0  0  0  0  0  0  0  0
    2.1784    0.0632    0.6579 O   0  0  0  0  0  0  0  0  0  0  0  0
    0.2176    0.4115    1.7046 N   0  0  0  0  0  0  0  0  0  0  0  0
   -0.7899    0.3269    1.6203 H   0  0  0  0  0  0  0  0  0  0  0  0
    0.8050    0.5333    3.0330 C   0  0  0  0  0  0  0  0  0  0  0  0
    1.5846    1.3025    3.0385 H   0  0  0  0  0  0  0  0  0  0  0  0
    0.0389    0.8154    3.7615 H   0  0  0  0  0  0  0  0  0  0  0  0
    1.2475   -0.4190    3.3441 H   0  0  0  0  0  0  0  0  0  0  0  0
  1  2  1  0  0  0  0
  2  3  1  0  0  0  0
  2  4  1  0  0  0  0
  2  5  1  0  0  0  0
  5  6  2  0  0  0  0
  5  7  1  0  0  0  0
  7  8  1  0  0  0  0
  7  9  1  0  0  0  0
  9 10  1  0  0  0  0
  9 11  1  0  0  0  0
  9 18  1  0  0  0  0
 11 12  1  0  0  0  0
 11 13  1  0  0  0  0
 11 14  1  0  0  0  0
 14 15  2  0  0  0  0
 14 16  1  0  0  0  0
 16 17  1  0  0  0  0
 18 19  2  0  0  0  0
 18 20  1  0  0  0  0
 20 21  1  0  0  0  0
 20 22  1  0  0  0  0
 22 23  1  0  0  0  0
 22 24  1  0  0  0  0
 22 25  1  0  0  0  0
M  END
$$$$

  -OEChem-02102214113D

 25 24  0     1  0  0  0  0  0999 V2000
   -2.4851   -3.7251   -0.4583 H   0  0  0  0  0  0  0  0  0  0  0  0
   -2.5406   -2.6671   -0.7306 C   0  0  0  0  0  0  0  0  0  0  0  0
   -3.3104   -2.1871   -0.1219 H   0  0  0  0  0  0  0  0  0  0  0  0
   -2.8175   -2.5909   -1.7848 H   0  0  0  0  0  0  0  0  0  0  0  0
   -1.1999   -1.9972   -0.4946 C   0  0  0  0  0  0  0  0  0  0  0  0
   -0.2901   -2.6266    0.0140 O   0  0  0  0  0  0  0  0  0  0  0  0
   -1.0233   -0.6732   -0.8491 N   0  0  0  0  0  0  0  0  0  0  0  0
   -1.7850   -0.2384   -1.3612 H   0  0  0  0  0  0  0  0  0  0  0  0
    0.2760    0.0243   -0.8084 C   0  0  1  0  0  0  0  0  0  0  0  0
    0.9623   -0.5486   -1.4446 H   0  0  0  0  0  0  0  0  0  0  0  0
    0.0948    1.4408   -1.3965 C   0  0  0  0  0  0  0  0  0  0  0  0
   -0.8403    1.5068   -1.9575 H   0  0  0  0  0  0  0  0  0  0  0  0
    0.0516    2.1854   -0.5952 H   0  0  0  0  0  0  0  0  0  0  0  0
    1.2219    1.7887   -2.3603 C   0  0  0  0  0  0  0  0  0  0  0  0
    1.9200    2.7554   -2.1120 O   0  0  0  0  0  0  0  0  0  0  0  0
    1.3611    1.0279   -3.4716 O   0  0  0  0  0  0  0  0  0  0  0  0
    2.1307    1.3863   -3.9410 H   0  0  0  0  0  0  0  0  0  0  0  0
    0.9543    0.0920    0.5773 C   0  0  0  0  0  0  0  0  0  0  0  0
    2.1746    0.0656    0.6515 O   0  0  0  0  0  0  0  0  0  0  0  0
    0.2134    0.4236    1.6970 N   0  0  0  0  0  0  0  0  0  0  0  0
   -0.7942    0.3462    1.6085 H   0  0  0  0  0  0  0  0  0  0  0  0
    0.7973    0.5164    3.0294 C   0  0  0  0  0  0  0  0  0  0  0  0
    1.6004    1.2609    3.0458 H   0  0  0  0  0  0  0  0  0  0  0  0
    0.0365    0.8161    3.7564 H   0  0  0  0  0  0  0  0  0  0  0  0
    1.2088   -0.4516    3.3343 H   0  0  0  0  0  0  0  0  0  0  0  0
  1  2  1  0  0  0  0
  2  3  1  0  0  0  0
  2  4  1  0  0  0  0
  2  5  1  0  0  0  0
  5  6  2  0  0  0  0
  5  7  1  0  0  0  0
  7  8  1  0  0  0  0
  7  9  1  0  0  0  0
  9 10  1  0  0  0  0
  9 11  1  0  0  0  0
  9 18  1  0  0  0  0
 11 12  1  0  0  0  0
 11 13  1  0  0  0  0
 11 14  1  0  0  0  0
 14 15  2  0  0  0  0
 14 16  1  0  0  0  0
 16 17  1  0  0  0  0
 18 19  2  0  0  0  0
 18 20  1  0  0  0  0
 20 21  1  0  0  0  0
 20 22  1  0  0  0  0
 22 23  1  0  0  0  0
 22 24  1  0  0  0  0
 22 25  1  0  0  0  0
M  END
$$$$

  -OEChem-02102214113D

 25 24  0     1  0  0  0  0  0999 V2000
   -2.4827   -3.7179   -0.4395 H   0  0  0  0  0  0  0  0  0  0  0  0
   -2.5352   -2.6643   -0.7288 C   0  0  0  0  0  0  0  0  0  0  0  0
   -3.3085   -2.1740   -0.1327 H   0  0  0  0  0  0  0  0  0  0  0  0
   -2.8050   -2.6046   -1.7858 H   0  0  0  0  0  0  0  0  0  0  0  0
   -1.1948   -1.9924   -0.4960 C   0  0  0  0  0  0  0  0  0  0  0  0
   -0.2809   -2.6232    0.0034 O   0  0  0  0  0  0  0  0  0  0  0  0
   -1.0219   -0.6673   -0.8486 N   0  0  0  0  0  0  0  0  0  0  0  0
   -1.7890   -0.2306   -1.3510 H   0  0  0  0  0  0  0  0  0  0  0  0
    0.2758    0.0337   -0.8117 C   0  0  1  0  0  0  0  0  0  0  0  0
    0.9626   -0.5314   -1.4545 H   0  0  0  0  0  0  0  0  0  0  0  0
    0.0819    1.4491   -1.3965 C   0  0  0  0  0  0  0  0  0  0  0  0
   -0.8578    1.5139   -1.9500 H   0  0  0  0  0  0  0  0  0  0  0  0
    0.0432    2.1938   -0.5953 H   0  0  0  0  0  0  0  0  0  0  0  0
    1.2032    1.7985   -2.3644 C   0  0  0  0  0  0  0  0  0  0  0  0
    2.0671    2.5772   -2.0043 O   0  0  0  0  0  0  0  0  0  0  0  0
    1.1752    1.2212   -3.5881 O   0  0  0  0  0  0  0  0  0  0  0  0
    1.9701    1.5383   -4.0453 H   0  0  0  0  0  0  0  0  0  0  0  0
    0.9557    0.0984    0.5738 C   0  0  0  0  0  0  0  0  0  0  0  0
    2.1749    0.0524    0.6516 O   0  0  0  0  0  0  0  0  0  0  0  0
    0.2147    0.4252    1.6950 N   0  0  0  0  0  0  0  0  0  0  0  0
   -0.7934    0.3577    1.6046 H   0  0  0  0  0  0  0  0  0  0  0  0
    0.7979    0.5088    3.0281 C   0  0  0  0  0  0  0  0  0  0  0  0
    1.5986    1.2558    3.0505 H   0  0  0  0  0  0  0  0  0  0  0  0
    0.0361    0.7997    3.7575 H   0  0  0  0  0  0  0  0  0  0  0  0
    1.2123   -0.4604    3.3252 H   0  0  0  0  0  0  0  0  0  0  0  0
  1  2  1  0  0  0  0
  2  3  1  0  0  0  0
  2  4  1  0  0  0  0
  2  5  1  0  0  0  0
  5  6  2  0  0  0  0
  5  7  1  0  0  0  0
  7  8  1  0  0  0  0
  7  9  1  0  0  0  0
  9 10  1  0  0  0  0
  9 11  1  0  0  0  0
  9 18  1  0  0  0  0
 11 12  1  0  0  0  0
 11 13  1  0  0  0  0
 11 14  1  0  0  0  0
 14 15  2  0  0  0  0
 14 16  1  0  0  0  0
 16 17  1  0  0  0  0
 18 19  2  0  0  0  0
 18 20  1  0  0  0  0
 20 21  1  0  0  0  0
 20 22  1  0  0  0  0
 22 23  1  0  0  0  0
 22 24  1  0  0  0  0
 22 25  1  0  0  0  0
M  END
$$$$

  -OEChem-02102214113D

 25 24  0     1  0  0  0  0  0999 V2000
   -2.4842   -3.7064   -0.4055 H   0  0  0  0  0  0  0  0  0  0  0  0
   -2.5299   -2.6587   -0.7167 C   0  0  0  0  0  0  0  0  0  0  0  0
   -3.2990   -2.1511   -0.1297 H   0  0  0  0  0  0  0  0  0  0  0  0
   -2.8007   -2.6185   -1.7746 H   0  0  0  0  0  0  0  0  0  0  0  0
   -1.1846   -1.9914   -0.4994 C   0  0  0  0  0  0  0  0  0  0  0  0
   -0.2664   -2.6262   -0.0137 O   0  0  0  0  0  0  0  0  0  0  0  0
   -1.0117   -0.6664   -0.8523 N   0  0  0  0  0  0  0  0  0  0  0  0
   -1.7846   -0.2243   -1.3410 H   0  0  0  0  0  0  0  0  0  0  0  0
    0.2849    0.0371   -0.8160 C   0  0  1  0  0  0  0  0  0  0  0  0
    0.9756   -0.5209   -1.4608 H   0  0  0  0  0  0  0  0  0  0  0  0
    0.0778    1.4521   -1.3981 C   0  0  0  0  0  0  0  0  0  0  0  0
   -0.8673    1.5129   -1.9433 H   0  0  0  0  0  0  0  0  0  0  0  0
    0.0409    2.1965   -0.5968 H   0  0  0  0  0  0  0  0  0  0  0  0
    1.1904    1.8144   -2.3710 C   0  0  0  0  0  0  0  0  0  0  0  0
    2.1867    2.3684   -1.9452 O   0  0  0  0  0  0  0  0  0  0  0  0
    1.0144    1.4818   -3.6705 O   0  0  0  0  0  0  0  0  0  0  0  0
    1.8249    1.7628   -4.1240 H   0  0  0  0  0  0  0  0  0  0  0  0
    0.9597    0.1002    0.5728 C   0  0  0  0  0  0  0  0  0  0  0  0
    2.1769    0.0311    0.6626 O   0  0  0  0  0  0  0  0  0  0  0  0
    0.2135    0.4249    1.6913 N   0  0  0  0  0  0  0  0  0  0  0  0
   -0.7944    0.3708    1.5928 H   0  0  0  0  0  0  0  0  0  0  0  0
    0.7877    0.4970    3.0290 C   0  0  0  0  0  0  0  0  0  0  0  0
    1.5916    1.2401    3.0613 H   0  0  0  0  0  0  0  0  0  0  0  0
    0.0223    0.7871    3.7551 H   0  0  0  0  0  0  0  0  0  0  0  0
    1.1956   -0.4761    3.3228 H   0  0  0  0  0  0  0  0  0  0  0  0
  1  2  1  0  0  0  0
  2  3  1  0  0  0  0
  2  4  1  0  0  0  0
  2  5  1  0  0  0  0
  5  6  2  0  0  0  0
  5  7  1  0  0  0  0
  7  8  1  0  0  0  0
  7  9  1  0  0  0  0
  9 10  1  0  0  0  0
  9 11  1  0  0  0  0
  9 18  1  0  0  0  0
 11 12  1  0  0  0  0
 11 13  1  0  0  0  0
 11 14  1  0  0  0  0
 14 15  2  0  0  0  0
 14 16  1  0  0  0  0
 16 17  1  0  0  0  0
 18 19  2  0  0  0  0
 18 20  1  0  0  0  0
 20 21  1  0  0  0  0
 20 22  1  0  0  0  0
 22 23  1  0  0  0  0
 22 24  1  0  0  0  0
 22 25  1  0  0  0  0
M  END
$$$$

  -OEChem-02102214113D

 25 24  0     1  0  0  0  0  0999 V2000
   -2.4633   -3.7100   -0.4248 H   0  0  0  0  0  0  0  0  0  0  0  0
   -2.5199   -2.6533   -0.7016 C   0  0  0  0  0  0  0  0  0  0  0  0
   -3.2791   -2.1679   -0.0838 H   0  0  0  0  0  0  0  0  0  0  0  0
   -2.8119   -2.5822   -1.7520 H   0  0  0  0  0  0  0  0  0  0  0  0
   -1.1735   -1.9865   -0.4902 C   0  0  0  0  0  0  0  0  0  0  0  0
   -0.2554   -2.6203   -0.0033 O   0  0  0  0  0  0  0  0  0  0  0  0
   -1.0002   -0.6637   -0.8511 N   0  0  0  0  0  0  0  0  0  0  0  0
   -1.7751   -0.2231   -1.3377 H   0  0  0  0  0  0  0  0  0  0  0  0
    0.2958    0.0415   -0.8183 C   0  0  1  0  0  0  0  0  0  0  0  0
    0.9910   -0.5156   -1.4589 H   0  0  0  0  0  0  0  0  0  0  0  0
    0.0808    1.4542   -1.4054 C   0  0  0  0  0  0  0  0  0  0  0  0
   -0.8692    1.5086   -1.9431 H   0  0  0  0  0  0  0  0  0  0  0  0
    0.0455    2.2009   -0.6067 H   0  0  0  0  0  0  0  0  0  0  0  0
    1.1850    1.8272   -2.3851 C   0  0  0  0  0  0  0  0  0  0  0  0
    2.2803    2.1322   -1.9526 O   0  0  0  0  0  0  0  0  0  0  0  0
    0.8884    1.7778   -3.7043 O   0  0  0  0  0  0  0  0  0  0  0  0
    1.7065    2.0230   -4.1649 H   0  0  0  0  0  0  0  0  0  0  0  0
    0.9623    0.1093    0.5755 C   0  0  0  0  0  0  0  0  0  0  0  0
    2.1766    0.0177    0.6807 O   0  0  0  0  0  0  0  0  0  0  0  0
    0.2084    0.4382    1.6879 N   0  0  0  0  0  0  0  0  0  0  0  0
   -0.7988    0.3908    1.5793 H   0  0  0  0  0  0  0  0  0  0  0  0
    0.7694    0.4792    3.0326 C   0  0  0  0  0  0  0  0  0  0  0  0
    1.5889    1.2041    3.0843 H   0  0  0  0  0  0  0  0  0  0  0  0
    0.0028    0.7748    3.7550 H   0  0  0  0  0  0  0  0  0  0  0  0
    1.1533   -0.5067    3.3155 H   0  0  0  0  0  0  0  0  0  0  0  0
  1  2  1  0  0  0  0
  2  3  1  0  0  0  0
  2  4  1  0  0  0  0
  2  5  1  0  0  0  0
  5  6  2  0  0  0  0
  5  7  1  0  0  0  0
  7  8  1  0  0  0  0
  7  9  1  0  0  0  0
  9 10  1  0  0  0  0
  9 11  1  0  0  0  0
  9 18  1  0  0  0  0
 11 12  1  0  0  0  0
 11 13  1  0  0  0  0
 11 14  1  0  0  0  0
 14 15  2  0  0  0  0
 14 16  1  0  0  0  0
 16 17  1  0  0  0  0
 18 19  2  0  0  0  0
 18 20  1  0  0  0  0
 20 21  1  0  0  0  0
 20 22  1  0  0  0  0
 22 23  1  0  0  0  0
 22 24  1  0  0  0  0
 22 25  1  0  0  0  0
M  END
$$$$

  -OEChem-02102214113D

 25 24  0     1  0  0  0  0  0999 V2000
   -2.4633   -3.7033   -0.3973 H   0  0  0  0  0  0  0  0  0  0  0  0
   -2.5161   -2.6482   -0.6810 C   0  0  0  0  0  0  0  0  0  0  0  0
   -3.2649   -2.1538   -0.0578 H   0  0  0  0  0  0  0  0  0  0  0  0
   -2.8197   -2.5820   -1.7285 H   0  0  0  0  0  0  0  0  0  0  0  0
   -1.1630   -1.9893   -0.4893 C   0  0  0  0  0  0  0  0  0  0  0  0
   -0.2422   -2.6287   -0.0150 O   0  0  0  0  0  0  0  0  0  0  0  0
   -0.9863   -0.6679   -0.8549 N   0  0  0  0  0  0  0  0  0  0  0  0
   -1.7672   -0.2189   -1.3243 H   0  0  0  0  0  0  0  0  0  0  0  0
    0.3110    0.0360   -0.8236 C   0  0  1  0  0  0  0  0  0  0  0  0
    1.0087   -0.5202   -1.4621 H   0  0  0  0  0  0  0  0  0  0  0  0
    0.0944    1.4508   -1.4090 C   0  0  0  0  0  0  0  0  0  0  0  0
   -0.8596    1.5023   -1.9395 H   0  0  0  0  0  0  0  0  0  0  0  0
    0.0603    2.1956   -0.6086 H   0  0  0  0  0  0  0  0  0  0  0  0
    1.1885    1.8424   -2.3954 C   0  0  0  0  0  0  0  0  0  0  0  0
    2.3440    1.8876   -2.0184 O   0  0  0  0  0  0  0  0  0  0  0  0
    0.8071    2.1127   -3.6651 O   0  0  0  0  0  0  0  0  0  0  0  0
    1.6237    2.3309   -4.1414 H   0  0  0  0  0  0  0  0  0  0  0  0
    0.9674    0.1026    0.5758 C   0  0  0  0  0  0  0  0  0  0  0  0
    2.1796    0.0044    0.6968 O   0  0  0  0  0  0  0  0  0  0  0  0
    0.2028    0.4343    1.6802 N   0  0  0  0  0  0  0  0  0  0  0  0
   -0.8032    0.3905    1.5595 H   0  0  0  0  0  0  0  0  0  0  0  0
    0.7473    0.4673    3.0319 C   0  0  0  0  0  0  0  0  0  0  0  0
    1.5728    1.1842    3.0954 H   0  0  0  0  0  0  0  0  0  0  0  0
   -0.0256    0.7692    3.7448 H   0  0  0  0  0  0  0  0  0  0  0  0
    1.1180   -0.5226    3.3180 H   0  0  0  0  0  0  0  0  0  0  0  0
  1  2  1  0  0  0  0
  2  3  1  0  0  0  0
  2  4  1  0  0  0  0
  2  5  1  0  0  0  0
  5  6  2  0  0  0  0
  5  7  1  0  0  0  0
  7  8  1  0  0  0  0
  7  9  1  0  0  0  0
  9 10  1  0  0  0  0
  9 11  1  0  0  0  0
  9 18  1  0  0  0  0
 11 12  1  0  0  0  0
 11 13  1  0  0  0  0
 11 14  1  0  0  0  0
 14 15  2  0  0  0  0
 14 16  1  0  0  0  0
 16 17  1  0  0  0  0
 18 19  2  0  0  0  0
 18 20  1  0  0  0  0
 20 21  1  0  0  0  0
 20 22  1  0  0  0  0
 22 23  1  0  0  0  0
 22 24  1  0  0  0  0
 22 25  1  0  0  0  0
M  END
$$$$

  -OEChem-02102214113D

 25 24  0     1  0  0  0  0  0999 V2000
   -2.4703   -3.7034   -0.3952 H   0  0  0  0  0  0  0  0  0  0  0  0
   -2.5190   -2.6485   -0.6804 C   0  0  0  0  0  0  0  0  0  0  0  0
   -3.2694   -2.1513   -0.0613 H   0  0  0  0  0  0  0  0  0  0  0  0
   -2.8180   -2.5831   -1.7292 H   0  0  0  0  0  0  0  0  0  0  0  0
   -1.1650   -1.9930   -0.4835 C   0  0  0  0  0  0  0  0  0  0  0  0
   -0.2494   -2.6335   -0.0008 O   0  0  0  0  0  0  0  0  0  0  0  0
   -0.9817   -0.6738   -0.8537 N   0  0  0  0  0  0  0  0  0  0  0  0
   -1.7596   -0.2240   -1.3268 H   0  0  0  0  0  0  0  0  0  0  0  0
    0.3188    0.0247   -0.8236 C   0  0  1  0  0  0  0  0  0  0  0  0
    1.0146   -0.5365   -1.4600 H   0  0  0  0  0  0  0  0  0  0  0  0
    0.1087    1.4429   -1.4073 C   0  0  0  0  0  0  0  0  0  0  0  0
   -0.8474    1.4946   -1.9343 H   0  0  0  0  0  0  0  0  0  0  0  0
    0.0754    2.1848   -0.6046 H   0  0  0  0  0  0  0  0  0  0  0  0
    1.1942    1.8511   -2.3992 C   0  0  0  0  0  0  0  0  0  0  0  0
    2.3640    1.6446   -2.1369 O   0  0  0  0  0  0  0  0  0  0  0  0
    0.7818    2.4370   -3.5471 O   0  0  0  0  0  0  0  0  0  0  0  0
    1.5912    2.6315   -4.0457 H   0  0  0  0  0  0  0  0  0  0  0  0
    0.9709    0.0916    0.5784 C   0  0  0  0  0  0  0  0  0  0  0  0
    2.1832    0.0039    0.7059 O   0  0  0  0  0  0  0  0  0  0  0  0
    0.2016    0.4299    1.6778 N   0  0  0  0  0  0  0  0  0  0  0  0
   -0.8036    0.3778    1.5540 H   0  0  0  0  0  0  0  0  0  0  0  0
    0.7409    0.4720    3.0314 C   0  0  0  0  0  0  0  0  0  0  0  0
    1.5631    1.1925    3.0947 H   0  0  0  0  0  0  0  0  0  0  0  0
   -0.0358    0.7740    3.7401 H   0  0  0  0  0  0  0  0  0  0  0  0
    1.1146   -0.5149    3.3241 H   0  0  0  0  0  0  0  0  0  0  0  0
  1  2  1  0  0  0  0
  2  3  1  0  0  0  0
  2  4  1  0  0  0  0
  2  5  1  0  0  0  0
  5  6  2  0  0  0  0
  5  7  1  0  0  0  0
  7  8  1  0  0  0  0
  7  9  1  0  0  0  0
  9 10  1  0  0  0  0
  9 11  1  0  0  0  0
  9 18  1  0  0  0  0
 11 12  1  0  0  0  0
 11 13  1  0  0  0  0
 11 14  1  0  0  0  0
 14 15  2  0  0  0  0
 14 16  1  0  0  0  0
 16 17  1  0  0  0  0
 18 19  2  0  0  0  0
 18 20  1  0  0  0  0
 20 21  1  0  0  0  0
 20 22  1  0  0  0  0
 22 23  1  0  0  0  0
 22 24  1  0  0  0  0
 22 25  1  0  0  0  0
M  END
$$$$

  -OEChem-02102214113D

 25 24  0     1  0  0  0  0  0999 V2000
   -2.4822   -3.7073   -0.4020 H   0  0  0  0  0  0  0  0  0  0  0  0
   -2.5266   -2.6527   -0.6886 C   0  0  0  0  0  0  0  0  0  0  0  0
   -3.2814   -2.1535   -0.0766 H   0  0  0  0  0  0  0  0  0  0  0  0
   -2.8164   -2.5877   -1.7401 H   0  0  0  0  0  0  0  0  0  0  0  0
   -1.1734   -1.9990   -0.4806 C   0  0  0  0  0  0  0  0  0  0  0  0
   -0.2648   -2.6383    0.0167 O   0  0  0  0  0  0  0  0  0  0  0  0
   -0.9844   -0.6812   -0.8525 N   0  0  0  0  0  0  0  0  0  0  0  0
   -1.7561   -0.2328   -1.3372 H   0  0  0  0  0  0  0  0  0  0  0  0
    0.3193    0.0116   -0.8209 C   0  0  1  0  0  0  0  0  0  0  0  0
    1.0097   -0.5585   -1.4546 H   0  0  0  0  0  0  0  0  0  0  0  0
    0.1222    1.4338   -1.4032 C   0  0  0  0  0  0  0  0  0  0  0  0
   -0.8325    1.4894   -1.9317 H   0  0  0  0  0  0  0  0  0  0  0  0
    0.0880    2.1714   -0.5966 H   0  0  0  0  0  0  0  0  0  0  0  0
    1.2027    1.8585   -2.3960 C   0  0  0  0  0  0  0  0  0  0  0  0
    2.3372    1.4296   -2.2950 O   0  0  0  0  0  0  0  0  0  0  0  0
    0.8204    2.7236   -3.3632 O   0  0  0  0  0  0  0  0  0  0  0  0
    1.6181    2.8975   -3.8873 H   0  0  0  0  0  0  0  0  0  0  0  0
    0.9714    0.0788    0.5807 C   0  0  0  0  0  0  0  0  0  0  0  0
    2.1860    0.0205    0.7041 O   0  0  0  0  0  0  0  0  0  0  0  0
    0.2023    0.4223    1.6785 N   0  0  0  0  0  0  0  0  0  0  0  0
   -0.8026    0.3549    1.5589 H   0  0  0  0  0  0  0  0  0  0  0  0
    0.7446    0.4854    3.0301 C   0  0  0  0  0  0  0  0  0  0  0  0
    1.5593    1.2154    3.0834 H   0  0  0  0  0  0  0  0  0  0  0  0
   -0.0338    0.7873    3.7371 H   0  0  0  0  0  0  0  0  0  0  0  0
    1.1295   -0.4943    3.3329 H   0  0  0  0  0  0  0  0  0  0  0  0
  1  2  1  0  0  0  0
  2  3  1  0  0  0  0
  2  4  1  0  0  0  0
  2  5  1  0  0  0  0
  5  6  2  0  0  0  0
  5  7  1  0  0  0  0
  7  8  1  0  0  0  0
  7  9  1  0  0  0  0
  9 10  1  0  0  0  0
  9 11  1  0  0  0  0
  9 18  1  0  0  0  0
 11 12  1  0  0  0  0
 11 13  1  0  0  0  0
 11 14  1  0  0  0  0
 14 15  2  0  0  0  0
 14 16  1  0  0  0  0
 16 17  1  0  0  0  0
 18 19  2  0  0  0  0
 18 20  1  0  0  0  0
 20 21  1  0  0  0  0
 20 22  1  0  0  0  0
 22 23  1  0  0  0  0
 22 24  1  0  0  0  0
 22 25  1  0  0  0  0
M  END
$$$$

  -OEChem-02102214113D

 25 24  0     1  0  0  0  0  0999 V2000
   -2.4938   -3.7152   -0.4314 H   0  0  0  0  0  0  0  0  0  0  0  0
   -2.5364   -2.6582   -0.7096 C   0  0  0  0  0  0  0  0  0  0  0  0
   -3.3015   -2.1662   -0.1047 H   0  0  0  0  0  0  0  0  0  0  0  0
   -2.8112   -2.5855   -1.7646 H   0  0  0  0  0  0  0  0  0  0  0  0
   -1.1877   -2.0031   -0.4766 C   0  0  0  0  0  0  0  0  0  0  0  0
   -0.2897   -2.6389    0.0443 O   0  0  0  0  0  0  0  0  0  0  0  0
   -0.9922   -0.6862   -0.8486 N   0  0  0  0  0  0  0  0  0  0  0  0
   -1.7528   -0.2439   -1.3558 H   0  0  0  0  0  0  0  0  0  0  0  0
    0.3147    0.0003   -0.8133 C   0  0  1  0  0  0  0  0  0  0  0  0
    0.9991   -0.5816   -1.4424 H   0  0  0  0  0  0  0  0  0  0  0  0
    0.1312    1.4249   -1.3973 C   0  0  0  0  0  0  0  0  0  0  0  0
   -0.8208    1.4846   -1.9302 H   0  0  0  0  0  0  0  0  0  0  0  0
    0.0929    2.1593   -0.5880 H   0  0  0  0  0  0  0  0  0  0  0  0
    1.2099    1.8625   -2.3885 C   0  0  0  0  0  0  0  0  0  0  0  0
    2.2619    1.2560   -2.4785 O   0  0  0  0  0  0  0  0  0  0  0  0
    0.9144    2.9475   -3.1403 O   0  0  0  0  0  0  0  0  0  0  0  0
    1.6971    3.1036   -3.6920 H   0  0  0  0  0  0  0  0  0  0  0  0
    0.9707    0.0697    0.5861 C   0  0  0  0  0  0  0  0  0  0  0  0
    2.1875    0.0394    0.6990 O   0  0  0  0  0  0  0  0  0  0  0  0
    0.2066    0.4190    1.6856 N   0  0  0  0  0  0  0  0  0  0  0  0
   -0.7980    0.3307    1.5761 H   0  0  0  0  0  0  0  0  0  0  0  0
    0.7592    0.5047    3.0320 C   0  0  0  0  0  0  0  0  0  0  0  0
    1.5652    1.2452    3.0696 H   0  0  0  0  0  0  0  0  0  0  0  0
   -0.0171    0.8049    3.7421 H   0  0  0  0  0  0  0  0  0  0  0  0
    1.1593   -0.4661    3.3428 H   0  0  0  0  0  0  0  0  0  0  0  0
  1  2  1  0  0  0  0
  2  3  1  0  0  0  0
  2  4  1  0  0  0  0
  2  5  1  0  0  0  0
  5  6  2  0  0  0  0
  5  7  1  0  0  0  0
  7  8  1  0  0  0  0
  7  9  1  0  0  0  0
  9 10  1  0  0  0  0
  9 11  1  0  0  0  0
  9 18  1  0  0  0  0
 11 12  1  0  0  0  0
 11 13  1  0  0  0  0
 11 14  1  0  0  0  0
 14 15  2  0  0  0  0
 14 16  1  0  0  0  0
 16 17  1  0  0  0  0
 18 19  2  0  0  0  0
 18 20  1  0  0  0  0
 20 21  1  0  0  0  0
 20 22  1  0  0  0  0
 22 23  1  0  0  0  0
 22 24  1  0  0  0  0
 22 25  1  0  0  0  0
M  END
$$$$

  -OEChem-02102214113D

 25 24  0     1  0  0  0  0  0999 V2000
   -2.4976   -3.7199   -0.4443 H   0  0  0  0  0  0  0  0  0  0  0  0
   -2.5408   -2.6620   -0.7191 C   0  0  0  0  0  0  0  0  0  0  0  0
   -3.3094   -2.1729   -0.1159 H   0  0  0  0  0  0  0  0  0  0  0  0
   -2.8106   -2.5857   -1.7752 H   0  0  0  0  0  0  0  0  0  0  0  0
   -1.1944   -2.0054   -0.4772 C   0  0  0  0  0  0  0  0  0  0  0  0
   -0.3007   -2.6382    0.0546 O   0  0  0  0  0  0  0  0  0  0  0  0
   -0.9976   -0.6885   -0.8480 N   0  0  0  0  0  0  0  0  0  0  0  0
   -1.7517   -0.2500   -1.3679 H   0  0  0  0  0  0  0  0  0  0  0  0
    0.3106   -0.0051   -0.8096 C   0  0  1  0  0  0  0  0  0  0  0  0
    0.9916   -0.5947   -1.4343 H   0  0  0  0  0  0  0  0  0  0  0  0
    0.1369    1.4222   -1.3920 C   0  0  0  0  0  0  0  0  0  0  0  0
   -0.8135    1.4898   -1.9265 H   0  0  0  0  0  0  0  0  0  0  0  0
    0.1005    2.1525   -0.5784 H   0  0  0  0  0  0  0  0  0  0  0  0
    1.2168    1.8658   -2.3803 C   0  0  0  0  0  0  0  0  0  0  0  0
    2.1417    1.1303   -2.6761 O   0  0  0  0  0  0  0  0  0  0  0  0
    1.0619    3.1050   -2.8998 O   0  0  0  0  0  0  0  0  0  0  0  0
    1.8271    3.2429   -3.4799 H   0  0  0  0  0  0  0  0  0  0  0  0
    0.9692    0.0643    0.5876 C   0  0  0  0  0  0  0  0  0  0  0  0
    2.1874    0.0556    0.6913 O   0  0  0  0  0  0  0  0  0  0  0  0
    0.2076    0.4153    1.6880 N   0  0  0  0  0  0  0  0  0  0  0  0
   -0.7968    0.3180    1.5836 H   0  0  0  0  0  0  0  0  0  0  0  0
    0.7656    0.5137    3.0312 C   0  0  0  0  0  0  0  0  0  0  0  0
    1.5691    1.2575    3.0603 H   0  0  0  0  0  0  0  0  0  0  0  0
   -0.0090    0.8171    3.7418 H   0  0  0  0  0  0  0  0  0  0  0  0
    1.1700   -0.4536    3.3479 H   0  0  0  0  0  0  0  0  0  0  0  0
  1  2  1  0  0  0  0
  2  3  1  0  0  0  0
  2  4  1  0  0  0  0
  2  5  1  0  0  0  0
  5  6  2  0  0  0  0
  5  7  1  0  0  0  0
  7  8  1  0  0  0  0
  7  9  1  0  0  0  0
  9 10  1  0  0  0  0
  9 11  1  0  0  0  0
  9 18  1  0  0  0  0
 11 12  1  0  0  0  0
 11 13  1  0  0  0  0
 11 14  1  0  0  0  0
 14 15  2  0  0  0  0
 14 16  1  0  0  0  0
 16 17  1  0  0  0  0
 18 19  2  0  0  0  0
 18 20  1  0  0  0  0
 20 21  1  0  0  0  0
 20 22  1  0  0  0  0
 22 23  1  0  0  0  0
 22 24  1  0  0  0  0
 22 25  1  0  0  0  0
M  END
$$$$

  -OEChem-02102214113D

 25 24  0     1  0  0  0  0  0999 V2000
   -2.5268   -3.7056   -0.3966 H   0  0  0  0  0  0  0  0  0  0  0  0
   -2.5465   -2.6672   -0.7396 C   0  0  0  0  0  0  0  0  0  0  0  0
   -3.3352   -2.1348   -0.2028 H   0  0  0  0  0  0  0  0  0  0  0  0
   -2.7693   -2.6556   -1.8091 H   0  0  0  0  0  0  0  0  0  0  0  0
   -1.2044   -2.0079   -0.4818 C   0  0  0  0  0  0  0  0  0  0  0  0
   -0.3138   -2.6399    0.0563 O   0  0  0  0  0  0  0  0  0  0  0  0
   -1.0080   -0.6890   -0.8457 N   0  0  0  0  0  0  0  0  0  0  0  0
   -1.7581   -0.2526   -1.3730 H   0  0  0  0  0  0  0  0  0  0  0  0
    0.3010   -0.0079   -0.8057 C   0  0  1  0  0  0  0  0  0  0  0  0
    0.9794   -0.5982   -1.4324 H   0  0  0  0  0  0  0  0  0  0  0  0
    0.1339    1.4239   -1.3793 C   0  0  0  0  0  0  0  0  0  0  0  0
   -0.8164    1.5026   -1.9120 H   0  0  0  0  0  0  0  0  0  0  0  0
    0.1028    2.1478   -0.5595 H   0  0  0  0  0  0  0  0  0  0  0  0
    1.2176    1.8649   -2.3646 C   0  0  0  0  0  0  0  0  0  0  0  0
    1.9740    1.0535   -2.8691 O   0  0  0  0  0  0  0  0  0  0  0  0
    1.2567    3.1876   -2.6447 O   0  0  0  0  0  0  0  0  0  0  0  0
    2.0027    3.3052   -3.2533 H   0  0  0  0  0  0  0  0  0  0  0  0
    0.9670    0.0557    0.5876 C   0  0  0  0  0  0  0  0  0  0  0  0
    2.1865    0.0685    0.6776 O   0  0  0  0  0  0  0  0  0  0  0  0
    0.2128    0.4026    1.6942 N   0  0  0  0  0  0  0  0  0  0  0  0
   -0.7920    0.2976    1.6006 H   0  0  0  0  0  0  0  0  0  0  0  0
    0.7831    0.5274    3.0299 C   0  0  0  0  0  0  0  0  0  0  0  0
    1.5616    1.2976    3.0440 H   0  0  0  0  0  0  0  0  0  0  0  0
    0.0075    0.8095    3.7481 H   0  0  0  0  0  0  0  0  0  0  0  0
    1.2232   -0.4236    3.3479 H   0  0  0  0  0  0  0  0  0  0  0  0
  1  2  1  0  0  0  0
  2  3  1  0  0  0  0
  2  4  1  0  0  0  0
  2  5  1  0  0  0  0
  5  6  2  0  0  0  0
  5  7  1  0  0  0  0
  7  8  1  0  0  0  0
  7  9  1  0  0  0  0
  9 10  1  0  0  0  0
  9 11  1  0  0  0  0
  9 18  1  0  0  0  0
 11 12  1  0  0  0  0
 11 13  1  0  0  0  0
 11 14  1  0  0  0  0
 14 15  2  0  0  0  0
 14 16  1  0  0  0  0
 16 17  1  0  0  0  0
 18 19  2  0  0  0  0
 18 20  1  0  0  0  0
 20 21  1  0  0  0  0
 20 22  1  0  0  0  0
 22 23  1  0  0  0  0
 22 24  1  0  0  0  0
 22 25  1  0  0  0  0
M  END
$$$$

  -OEChem-02102214113D

 25 24  0     1  0  0  0  0  0999 V2000
   -2.5164   -3.7158   -0.4273 H   0  0  0  0  0  0  0  0  0  0  0  0
   -2.5431   -2.6742   -0.7604 C   0  0  0  0  0  0  0  0  0  0  0  0
   -3.3434   -2.1551   -0.2278 H   0  0  0  0  0  0  0  0  0  0  0  0
   -2.7537   -2.6547   -1.8324 H   0  0  0  0  0  0  0  0  0  0  0  0
   -1.2113   -2.0032   -0.4806 C   0  0  0  0  0  0  0  0  0  0  0  0
   -0.3239   -2.6280    0.0712 O   0  0  0  0  0  0  0  0  0  0  0  0
   -1.0204   -0.6822   -0.8398 N   0  0  0  0  0  0  0  0  0  0  0  0
   -1.7621   -0.2570   -1.3878 H   0  0  0  0  0  0  0  0  0  0  0  0
    0.2877    0.0006   -0.7990 C   0  0  1  0  0  0  0  0  0  0  0  0
    0.9666   -0.5867   -1.4282 H   0  0  0  0  0  0  0  0  0  0  0  0
    0.1222    1.4327   -1.3697 C   0  0  0  0  0  0  0  0  0  0  0  0
   -0.8256    1.5170   -1.9059 H   0  0  0  0  0  0  0  0  0  0  0  0
    0.0931    2.1567   -0.5496 H   0  0  0  0  0  0  0  0  0  0  0  0
    1.2158    1.8552   -2.3502 C   0  0  0  0  0  0  0  0  0  0  0  0
    1.7755    1.0224   -3.0429 O   0  0  0  0  0  0  0  0  0  0  0  0
    1.4874    3.1789   -2.4143 O   0  0  0  0  0  0  0  0  0  0  0  0
    2.2140    3.2691   -3.0501 H   0  0  0  0  0  0  0  0  0  0  0  0
    0.9617    0.0628    0.5901 C   0  0  0  0  0  0  0  0  0  0  0  0
    2.1822    0.0847    0.6671 O   0  0  0  0  0  0  0  0  0  0  0  0
    0.2151    0.4054    1.7031 N   0  0  0  0  0  0  0  0  0  0  0  0
   -0.7897    0.2922    1.6188 H   0  0  0  0  0  0  0  0  0  0  0  0
    0.7972    0.5351    3.0333 C   0  0  0  0  0  0  0  0  0  0  0  0
    1.5718    1.3092    3.0391 H   0  0  0  0  0  0  0  0  0  0  0  0
    0.0269    0.8144    3.7584 H   0  0  0  0  0  0  0  0  0  0  0  0
    1.2451   -0.4132    3.3491 H   0  0  0  0  0  0  0  0  0  0  0  0
  1  2  1  0  0  0  0
  2  3  1  0  0  0  0
  2  4  1  0  0  0  0
  2  5  1  0  0  0  0
  5  6  2  0  0  0  0
  5  7  1  0  0  0  0
  7  8  1  0  0  0  0
  7  9  1  0  0  0  0
  9 10  1  0  0  0  0
  9 11  1  0  0  0  0
  9 18  1  0  0  0  0
 11 12  1  0  0  0  0
 11 13  1  0  0  0  0
 11 14  1  0  0  0  0
 14 15  2  0  0  0  0
 14 16  1  0  0  0  0
 16 17  1  0  0  0  0
 18 19  2  0  0  0  0
 18 20  1  0  0  0  0
 20 21  1  0  0  0  0
 20 22  1  0  0  0  0
 22 23  1  0  0  0  0
 22 24  1  0  0  0  0
 22 25  1  0  0  0  0
M  END
$$$$

  -OEChem-02102214113D

 25 24  0     1  0  0  0  0  0999 V2000
   -2.5013   -3.7199   -0.4461 H   0  0  0  0  0  0  0  0  0  0  0  0
   -2.5344   -2.6763   -0.7720 C   0  0  0  0  0  0  0  0  0  0  0  0
   -3.3390   -2.1660   -0.2372 H   0  0  0  0  0  0  0  0  0  0  0  0
   -2.7431   -2.6505   -1.8442 H   0  0  0  0  0  0  0  0  0  0  0  0
   -1.2077   -1.9985   -0.4853 C   0  0  0  0  0  0  0  0  0  0  0  0
   -0.3177   -2.6199    0.0665 O   0  0  0  0  0  0  0  0  0  0  0  0
   -1.0253   -0.6747   -0.8377 N   0  0  0  0  0  0  0  0  0  0  0  0
   -1.7667   -0.2544   -1.3900 H   0  0  0  0  0  0  0  0  0  0  0  0
    0.2787    0.0145   -0.7954 C   0  0  1  0  0  0  0  0  0  0  0  0
    0.9607   -0.5631   -1.4308 H   0  0  0  0  0  0  0  0  0  0  0  0
    0.1067    1.4448   -1.3628 C   0  0  0  0  0  0  0  0  0  0  0  0
   -0.8383    1.5296   -1.9041 H   0  0  0  0  0  0  0  0  0  0  0  0
    0.0770    2.1716   -0.5454 H   0  0  0  0  0  0  0  0  0  0  0  0
    1.2130    1.8416   -2.3363 C   0  0  0  0  0  0  0  0  0  0  0  0
    1.5663    1.0509   -3.1952 O   0  0  0  0  0  0  0  0  0  0  0  0
    1.7305    3.0847   -2.2067 O   0  0  0  0  0  0  0  0  0  0  0  0
    2.4354    3.1507   -2.8691 H   0  0  0  0  0  0  0  0  0  0  0  0
    0.9577    0.0748    0.5907 C   0  0  0  0  0  0  0  0  0  0  0  0
    2.1788    0.0958    0.6606 O   0  0  0  0  0  0  0  0  0  0  0  0
    0.2147    0.4084    1.7084 N   0  0  0  0  0  0  0  0  0  0  0  0
   -0.7901    0.2942    1.6266 H   0  0  0  0  0  0  0  0  0  0  0  0
    0.8014    0.5360    3.0367 C   0  0  0  0  0  0  0  0  0  0  0  0
    1.5745    1.3118    3.0417 H   0  0  0  0  0  0  0  0  0  0  0  0
    0.0330    0.8120    3.7651 H   0  0  0  0  0  0  0  0  0  0  0  0
    1.2520   -0.4122    3.3482 H   0  0  0  0  0  0  0  0  0  0  0  0
  1  2  1  0  0  0  0
  2  3  1  0  0  0  0
  2  4  1  0  0  0  0
  2  5  1  0  0  0  0
  5  6  2  0  0  0  0
  5  7  1  0  0  0  0
  7  8  1  0  0  0  0
  7  9  1  0  0  0  0
  9 10  1  0  0  0  0
  9 11  1  0  0  0  0
  9 18  1  0  0  0  0
 11 12  1  0  0  0  0
 11 13  1  0  0  0  0
 11 14  1  0  0  0  0
 14 15  2  0  0  0  0
 14 16  1  0  0  0  0
 16 17  1  0  0  0  0
 18 19  2  0  0  0  0
 18 20  1  0  0  0  0
 20 21  1  0  0  0  0
 20 22  1  0  0  0  0
 22 23  1  0  0  0  0
 22 24  1  0  0  0  0
 22 25  1  0  0  0  0
M  END
$$$$

  -OEChem-02102214113D

 25 24  0     1  0  0  0  0  0999 V2000
   -2.4784   -3.7244   -0.4649 H   0  0  0  0  0  0  0  0  0  0  0  0
   -2.5239   -2.6764   -0.7744 C   0  0  0  0  0  0  0  0  0  0  0  0
   -3.3269   -2.1816   -0.2232 H   0  0  0  0  0  0  0  0  0  0  0  0
   -2.7444   -2.6363   -1.8438 H   0  0  0  0  0  0  0  0  0  0  0  0
   -1.2001   -1.9915   -0.4913 C   0  0  0  0  0  0  0  0  0  0  0  0
   -0.3033   -2.6104    0.0525 O   0  0  0  0  0  0  0  0  0  0  0  0
   -1.0263   -0.6652   -0.8386 N   0  0  0  0  0  0  0  0  0  0  0  0
   -1.7713   -0.2460   -1.3871 H   0  0  0  0  0  0  0  0  0  0  0  0
    0.2736    0.0312   -0.7930 C   0  0  1  0  0  0  0  0  0  0  0  0
    0.9592   -0.5377   -1.4335 H   0  0  0  0  0  0  0  0  0  0  0  0
    0.0949    1.4569   -1.3629 C   0  0  0  0  0  0  0  0  0  0  0  0
   -0.8457    1.5386   -1.9128 H   0  0  0  0  0  0  0  0  0  0  0  0
    0.0617    2.1899   -0.5514 H   0  0  0  0  0  0  0  0  0  0  0  0
    1.2157    1.8253   -2.3267 C   0  0  0  0  0  0  0  0  0  0  0  0
    1.3743    1.1415   -3.3243 O   0  0  0  0  0  0  0  0  0  0  0  0
    1.9619    2.9156   -2.0370 O   0  0  0  0  0  0  0  0  0  0  0  0
    2.6411    2.9680   -2.7265 H   0  0  0  0  0  0  0  0  0  0  0  0
    0.9534    0.0909    0.5923 C   0  0  0  0  0  0  0  0  0  0  0  0
    2.1746    0.1009    0.6616 O   0  0  0  0  0  0  0  0  0  0  0  0
    0.2108    0.4164    1.7125 N   0  0  0  0  0  0  0  0  0  0  0  0
   -0.7948    0.3093    1.6294 H   0  0  0  0  0  0  0  0  0  0  0  0
    0.7982    0.5299    3.0416 C   0  0  0  0  0  0  0  0  0  0  0  0
    1.5784    1.2984    3.0514 H   0  0  0  0  0  0  0  0  0  0  0  0
    0.0324    0.8083    3.7715 H   0  0  0  0  0  0  0  0  0  0  0  0
    1.2401   -0.4244    3.3468 H   0  0  0  0  0  0  0  0  0  0  0  0
  1  2  1  0  0  0  0
  2  3  1  0  0  0  0
  2  4  1  0  0  0  0
  2  5  1  0  0  0  0
  5  6  2  0  0  0  0
  5  7  1  0  0  0  0
  7  8  1  0  0  0  0
  7  9  1  0  0  0  0
  9 10  1  0  0  0  0
  9 11  1  0  0  0  0
  9 18  1  0  0  0  0
 11 12  1  0  0  0  0
 11 13  1  0  0  0  0
 11 14  1  0  0  0  0
 14 15  2  0  0  0  0
 14 16  1  0  0  0  0
 16 17  1  0  0  0  0
 18 19  2  0  0  0  0
 18 20  1  0  0  0  0
 20 21  1  0  0  0  0
 20 22  1  0  0  0  0
 22 23  1  0  0  0  0
 22 24  1  0  0  0  0
 22 25  1  0  0  0  0
M  END
$$$$

  -OEChem-02102214113D

 25 24  0     1  0  0  0  0  0999 V2000
   -2.4677   -3.7236   -0.4720 H   0  0  0  0  0  0  0  0  0  0  0  0
   -2.5180   -2.6736   -0.7743 C   0  0  0  0  0  0  0  0  0  0  0  0
   -3.3194   -2.1848   -0.2155 H   0  0  0  0  0  0  0  0  0  0  0  0
   -2.7448   -2.6272   -1.8421 H   0  0  0  0  0  0  0  0  0  0  0  0
   -1.1943   -1.9867   -0.4942 C   0  0  0  0  0  0  0  0  0  0  0  0
   -0.2936   -2.6062    0.0422 O   0  0  0  0  0  0  0  0  0  0  0  0
   -1.0228   -0.6596   -0.8399 N   0  0  0  0  0  0  0  0  0  0  0  0
   -1.7720   -0.2372   -1.3804 H   0  0  0  0  0  0  0  0  0  0  0  0
    0.2745    0.0412   -0.7915 C   0  0  1  0  0  0  0  0  0  0  0  0
    0.9635   -0.5227   -1.4334 H   0  0  0  0  0  0  0  0  0  0  0  0
    0.0891    1.4614   -1.3679 C   0  0  0  0  0  0  0  0  0  0  0  0
   -0.8494    1.5375   -1.9229 H   0  0  0  0  0  0  0  0  0  0  0  0
    0.0539    2.2019   -0.5634 H   0  0  0  0  0  0  0  0  0  0  0  0
    1.2196    1.8106   -2.3249 C   0  0  0  0  0  0  0  0  0  0  0  0
    1.2128    1.2996   -3.4323 O   0  0  0  0  0  0  0  0  0  0  0  0
    2.1565    2.6914   -1.9074 O   0  0  0  0  0  0  0  0  0  0  0  0
    2.8090    2.7547   -2.6211 H   0  0  0  0  0  0  0  0  0  0  0  0
    0.9529    0.1033    0.5945 C   0  0  0  0  0  0  0  0  0  0  0  0
    2.1737    0.0932    0.6677 O   0  0  0  0  0  0  0  0  0  0  0  0
    0.2097    0.4260    1.7151 N   0  0  0  0  0  0  0  0  0  0  0  0
   -0.7963    0.3274    1.6287 H   0  0  0  0  0  0  0  0  0  0  0  0
    0.7950    0.5234    3.0464 C   0  0  0  0  0  0  0  0  0  0  0  0
    1.5845    1.2823    3.0638 H   0  0  0  0  0  0  0  0  0  0  0  0
    0.0309    0.8061    3.7765 H   0  0  0  0  0  0  0  0  0  0  0  0
    1.2246   -0.4383    3.3457 H   0  0  0  0  0  0  0  0  0  0  0  0
  1  2  1  0  0  0  0
  2  3  1  0  0  0  0
  2  4  1  0  0  0  0
  2  5  1  0  0  0  0
  5  6  2  0  0  0  0
  5  7  1  0  0  0  0
  7  8  1  0  0  0  0
  7  9  1  0  0  0  0
  9 10  1  0  0  0  0
  9 11  1  0  0  0  0
  9 18  1  0  0  0  0
 11 12  1  0  0  0  0
 11 13  1  0  0  0  0
 11 14  1  0  0  0  0
 14 15  2  0  0  0  0
 14 16  1  0  0  0  0
 16 17  1  0  0  0  0
 18 19  2  0  0  0  0
 18 20  1  0  0  0  0
 20 21  1  0  0  0  0
 20 22  1  0  0  0  0
 22 23  1  0  0  0  0
 22 24  1  0  0  0  0
 22 25  1  0  0  0  0
M  END
$$$$

  -OEChem-02102214113D

 25 24  0     1  0  0  0  0  0999 V2000
   -2.4693   -3.7123   -0.4438 H   0  0  0  0  0  0  0  0  0  0  0  0
   -2.5152   -2.6644   -0.7540 C   0  0  0  0  0  0  0  0  0  0  0  0
   -3.3050   -2.1646   -0.1883 H   0  0  0  0  0  0  0  0  0  0  0  0
   -2.7565   -2.6245   -1.8188 H   0  0  0  0  0  0  0  0  0  0  0  0
   -1.1824   -1.9862   -0.4977 C   0  0  0  0  0  0  0  0  0  0  0  0
   -0.2752   -2.6116    0.0206 O   0  0  0  0  0  0  0  0  0  0  0  0
   -1.0097   -0.6601   -0.8461 N   0  0  0  0  0  0  0  0  0  0  0  0
   -1.7664   -0.2308   -1.3706 H   0  0  0  0  0  0  0  0  0  0  0  0
    0.2867    0.0423   -0.7967 C   0  0  1  0  0  0  0  0  0  0  0  0
    0.9796   -0.5192   -1.4365 H   0  0  0  0  0  0  0  0  0  0  0  0
    0.0949    1.4589   -1.3791 C   0  0  0  0  0  0  0  0  0  0  0  0
   -0.8459    1.5295   -1.9316 H   0  0  0  0  0  0  0  0  0  0  0  0
    0.0600    2.2033   -0.5782 H   0  0  0  0  0  0  0  0  0  0  0  0
    1.2262    1.8057   -2.3357 C   0  0  0  0  0  0  0  0  0  0  0  0
    1.0874    1.5225   -3.5136 O   0  0  0  0  0  0  0  0  0  0  0  0
    2.3101    2.4394   -1.8357 O   0  0  0  0  0  0  0  0  0  0  0  0
    2.9332    2.5426   -2.5703 H   0  0  0  0  0  0  0  0  0  0  0  0
    0.9564    0.1054    0.5942 C   0  0  0  0  0  0  0  0  0  0  0  0
    2.1754    0.0633    0.6819 O   0  0  0  0  0  0  0  0  0  0  0  0
    0.2061    0.4291    1.7100 N   0  0  0  0  0  0  0  0  0  0  0  0
   -0.8007    0.3496    1.6127 H   0  0  0  0  0  0  0  0  0  0  0  0
    0.7793    0.5091    3.0477 C   0  0  0  0  0  0  0  0  0  0  0  0
    1.5804    1.2552    3.0777 H   0  0  0  0  0  0  0  0  0  0  0  0
    0.0125    0.7994    3.7719 H   0  0  0  0  0  0  0  0  0  0  0  0
    1.1905   -0.4611    3.3456 H   0  0  0  0  0  0  0  0  0  0  0  0
  1  2  1  0  0  0  0
  2  3  1  0  0  0  0
  2  4  1  0  0  0  0
  2  5  1  0  0  0  0
  5  6  2  0  0  0  0
  5  7  1  0  0  0  0
  7  8  1  0  0  0  0
  7  9  1  0  0  0  0
  9 10  1  0  0  0  0
  9 11  1  0  0  0  0
  9 18  1  0  0  0  0
 11 12  1  0  0  0  0
 11 13  1  0  0  0  0
 11 14  1  0  0  0  0
 14 15  2  0  0  0  0
 14 16  1  0  0  0  0
 16 17  1  0  0  0  0
 18 19  2  0  0  0  0
 18 20  1  0  0  0  0
 20 21  1  0  0  0  0
 20 22  1  0  0  0  0
 22 23  1  0  0  0  0
 22 24  1  0  0  0  0
 22 25  1  0  0  0  0
M  END
$$$$

  -OEChem-02102214113D

 25 24  0     1  0  0  0  0  0999 V2000
   -2.4753   -3.7052   -0.4327 H   0  0  0  0  0  0  0  0  0  0  0  0
   -2.5173   -2.6555   -0.7371 C   0  0  0  0  0  0  0  0  0  0  0  0
   -3.2970   -2.1531   -0.1598 H   0  0  0  0  0  0  0  0  0  0  0  0
   -2.7702   -2.6086   -1.7992 H   0  0  0  0  0  0  0  0  0  0  0  0
   -1.1772   -1.9875   -0.4920 C   0  0  0  0  0  0  0  0  0  0  0  0
   -0.2704   -2.6198    0.0180 O   0  0  0  0  0  0  0  0  0  0  0  0
   -0.9957   -0.6644   -0.8480 N   0  0  0  0  0  0  0  0  0  0  0  0
   -1.7562   -0.2278   -1.3608 H   0  0  0  0  0  0  0  0  0  0  0  0
    0.3035    0.0339   -0.8011 C   0  0  1  0  0  0  0  0  0  0  0  0
    0.9985   -0.5285   -1.4373 H   0  0  0  0  0  0  0  0  0  0  0  0
    0.1068    1.4485   -1.3886 C   0  0  0  0  0  0  0  0  0  0  0  0
   -0.8399    1.5156   -1.9315 H   0  0  0  0  0  0  0  0  0  0  0  0
    0.0777    2.1945   -0.5891 H   0  0  0  0  0  0  0  0  0  0  0  0
    1.2313    1.8021   -2.3524 C   0  0  0  0  0  0  0  0  0  0  0  0
    0.9894    1.7796   -3.5473 O   0  0  0  0  0  0  0  0  0  0  0  0
    2.4233    2.1692   -1.8335 O   0  0  0  0  0  0  0  0  0  0  0  0
    3.0128    2.3412   -2.5826 H   0  0  0  0  0  0  0  0  0  0  0  0
    0.9639    0.0989    0.5949 C   0  0  0  0  0  0  0  0  0  0  0  0
    2.1800    0.0266    0.6996 O   0  0  0  0  0  0  0  0  0  0  0  0
    0.2061    0.4308    1.7035 N   0  0  0  0  0  0  0  0  0  0  0  0
   -0.8006    0.3728    1.5935 H   0  0  0  0  0  0  0  0  0  0  0  0
    0.7642    0.4971    3.0484 C   0  0  0  0  0  0  0  0  0  0  0  0
    1.5784    1.2284    3.0900 H   0  0  0  0  0  0  0  0  0  0  0  0
   -0.0064    0.7994    3.7640 H   0  0  0  0  0  0  0  0  0  0  0  0
    1.1542   -0.4811    3.3488 H   0  0  0  0  0  0  0  0  0  0  0  0
  1  2  1  0  0  0  0
  2  3  1  0  0  0  0
  2  4  1  0  0  0  0
  2  5  1  0  0  0  0
  5  6  2  0  0  0  0
  5  7  1  0  0  0  0
  7  8  1  0  0  0  0
  7  9  1  0  0  0  0
  9 10  1  0  0  0  0
  9 11  1  0  0  0  0
  9 18  1  0  0  0  0
 11 12  1  0  0  0  0
 11 13  1  0  0  0  0
 11 14  1  0  0  0  0
 14 15  2  0  0  0  0
 14 16  1  0  0  0  0
 16 17  1  0  0  0  0
 18 19  2  0  0  0  0
 18 20  1  0  0  0  0
 20 21  1  0  0  0  0
 20 22  1  0  0  0  0
 22 23  1  0  0  0  0
 22 24  1  0  0  0  0
 22 25  1  0  0  0  0
M  END
$$$$

  -OEChem-02102214113D

 25 24  0     1  0  0  0  0  0999 V2000
   -2.4705   -3.7015   -0.4233 H   0  0  0  0  0  0  0  0  0  0  0  0
   -2.5161   -2.6470   -0.7104 C   0  0  0  0  0  0  0  0  0  0  0  0
   -3.2800   -2.1508   -0.1073 H   0  0  0  0  0  0  0  0  0  0  0  0
   -2.7941   -2.5829   -1.7652 H   0  0  0  0  0  0  0  0  0  0  0  0
   -1.1682   -1.9870   -0.4867 C   0  0  0  0  0  0  0  0  0  0  0  0
   -0.2591   -2.6234    0.0138 O   0  0  0  0  0  0  0  0  0  0  0  0
   -0.9825   -0.6668   -0.8516 N   0  0  0  0  0  0  0  0  0  0  0  0
   -1.7487   -0.2241   -1.3507 H   0  0  0  0  0  0  0  0  0  0  0  0
    0.3178    0.0303   -0.8079 C   0  0  1  0  0  0  0  0  0  0  0  0
    1.0162   -0.5341   -1.4382 H   0  0  0  0  0  0  0  0  0  0  0  0
    0.1182    1.4427   -1.4034 C   0  0  0  0  0  0  0  0  0  0  0  0
   -0.8316    1.5032   -1.9422 H   0  0  0  0  0  0  0  0  0  0  0  0
    0.0904    2.1906   -0.6060 H   0  0  0  0  0  0  0  0  0  0  0  0
    1.2358    1.8054   -2.3741 C   0  0  0  0  0  0  0  0  0  0  0  0
    0.9300    2.0528   -3.5284 O   0  0  0  0  0  0  0  0  0  0  0  0
    2.4985    1.8795   -1.9008 O   0  0  0  0  0  0  0  0  0  0  0  0
    3.0656    2.1193   -2.6485 H   0  0  0  0  0  0  0  0  0  0  0  0
    0.9675    0.0987    0.5943 C   0  0  0  0  0  0  0  0  0  0  0  0
    2.1803    0.0049    0.7173 O   0  0  0  0  0  0  0  0  0  0  0  0
    0.2009    0.4367    1.6952 N   0  0  0  0  0  0  0  0  0  0  0  0
   -0.8050    0.3891    1.5731 H   0  0  0  0  0  0  0  0  0  0  0  0
    0.7427    0.4777    3.0479 C   0  0  0  0  0  0  0  0  0  0  0  0
    1.5688    1.1942    3.1086 H   0  0  0  0  0  0  0  0  0  0  0  0
   -0.0315    0.7852    3.7572 H   0  0  0  0  0  0  0  0  0  0  0  0
    1.1121   -0.5107    3.3412 H   0  0  0  0  0  0  0  0  0  0  0  0
  1  2  1  0  0  0  0
  2  3  1  0  0  0  0
  2  4  1  0  0  0  0
  2  5  1  0  0  0  0
  5  6  2  0  0  0  0
  5  7  1  0  0  0  0
  7  8  1  0  0  0  0
  7  9  1  0  0  0  0
  9 10  1  0  0  0  0
  9 11  1  0  0  0  0
  9 18  1  0  0  0  0
 11 12  1  0  0  0  0
 11 13  1  0  0  0  0
 11 14  1  0  0  0  0
 14 15  2  0  0  0  0
 14 16  1  0  0  0  0
 16 17  1  0  0  0  0
 18 19  2  0  0  0  0
 18 20  1  0  0  0  0
 20 21  1  0  0  0  0
 20 22  1  0  0  0  0
 22 23  1  0  0  0  0
 22 24  1  0  0  0  0
 22 25  1  0  0  0  0
M  END
$$$$

  -OEChem-02102214113D

 25 24  0     1  0  0  0  0  0999 V2000
   -2.4886   -3.6924   -0.3973 H   0  0  0  0  0  0  0  0  0  0  0  0
   -2.5236   -2.6411   -0.6970 C   0  0  0  0  0  0  0  0  0  0  0  0
   -3.2796   -2.1295   -0.0969 H   0  0  0  0  0  0  0  0  0  0  0  0
   -2.8049   -2.5866   -1.7515 H   0  0  0  0  0  0  0  0  0  0  0  0
   -1.1676   -1.9940   -0.4867 C   0  0  0  0  0  0  0  0  0  0  0  0
   -0.2593   -2.6389    0.0043 O   0  0  0  0  0  0  0  0  0  0  0  0
   -0.9735   -0.6761   -0.8549 N   0  0  0  0  0  0  0  0  0  0  0  0
   -1.7428   -0.2230   -1.3394 H   0  0  0  0  0  0  0  0  0  0  0  0
    0.3304    0.0146   -0.8133 C   0  0  1  0  0  0  0  0  0  0  0  0
    1.0273   -0.5515   -1.4437 H   0  0  0  0  0  0  0  0  0  0  0  0
    0.1330    1.4312   -1.4024 C   0  0  0  0  0  0  0  0  0  0  0  0
   -0.8216    1.4937   -1.9326 H   0  0  0  0  0  0  0  0  0  0  0  0
    0.1106    2.1730   -0.5991 H   0  0  0  0  0  0  0  0  0  0  0  0
    1.2386    1.8139   -2.3817 C   0  0  0  0  0  0  0  0  0  0  0  0
    0.9039    2.3370   -3.4310 O   0  0  0  0  0  0  0  0  0  0  0  0
    2.5247    1.5904   -2.0350 O   0  0  0  0  0  0  0  0  0  0  0  0
    3.0730    1.9099   -2.7666 H   0  0  0  0  0  0  0  0  0  0  0  0
    0.9738    0.0795    0.5928 C   0  0  0  0  0  0  0  0  0  0  0  0
    2.1857   -0.0101    0.7264 O   0  0  0  0  0  0  0  0  0  0  0  0
    0.1996    0.4231    1.6869 N   0  0  0  0  0  0  0  0  0  0  0  0
   -0.8054    0.3809    1.5566 H   0  0  0  0  0  0  0  0  0  0  0  0
    0.7307    0.4789    3.0433 C   0  0  0  0  0  0  0  0  0  0  0  0
    1.5536    1.1991    3.1037 H   0  0  0  0  0  0  0  0  0  0  0  0
   -0.0504    0.7901    3.7434 H   0  0  0  0  0  0  0  0  0  0  0  0
    1.1011   -0.5052    3.3496 H   0  0  0  0  0  0  0  0  0  0  0  0
  1  2  1  0  0  0  0
  2  3  1  0  0  0  0
  2  4  1  0  0  0  0
  2  5  1  0  0  0  0
  5  6  2  0  0  0  0
  5  7  1  0  0  0  0
  7  8  1  0  0  0  0
  7  9  1  0  0  0  0
  9 10  1  0  0  0  0
  9 11  1  0  0  0  0
  9 18  1  0  0  0  0
 11 12  1  0  0  0  0
 11 13  1  0  0  0  0
 11 14  1  0  0  0  0
 14 15  2  0  0  0  0
 14 16  1  0  0  0  0
 16 17  1  0  0  0  0
 18 19  2  0  0  0  0
 18 20  1  0  0  0  0
 20 21  1  0  0  0  0
 20 22  1  0  0  0  0
 22 23  1  0  0  0  0
 22 24  1  0  0  0  0
 22 25  1  0  0  0  0
M  END
$$$$

  -OEChem-02102214113D

 25 24  0     1  0  0  0  0  0999 V2000
   -2.4953   -3.7013   -0.4144 H   0  0  0  0  0  0  0  0  0  0  0  0
   -2.5348   -2.6444   -0.6934 C   0  0  0  0  0  0  0  0  0  0  0  0
   -3.2868   -2.1455   -0.0777 H   0  0  0  0  0  0  0  0  0  0  0  0
   -2.8249   -2.5708   -1.7443 H   0  0  0  0  0  0  0  0  0  0  0  0
   -1.1782   -1.9989   -0.4811 C   0  0  0  0  0  0  0  0  0  0  0  0
   -0.2744   -2.6426    0.0196 O   0  0  0  0  0  0  0  0  0  0  0  0
   -0.9792   -0.6829   -0.8539 N   0  0  0  0  0  0  0  0  0  0  0  0
   -1.7454   -0.2299   -1.3431 H   0  0  0  0  0  0  0  0  0  0  0  0
    0.3277    0.0025   -0.8130 C   0  0  1  0  0  0  0  0  0  0  0  0
    1.0189   -0.5751   -1.4390 H   0  0  0  0  0  0  0  0  0  0  0  0
    0.1450    1.4208   -1.4053 C   0  0  0  0  0  0  0  0  0  0  0  0
   -0.8070    1.4851   -1.9392 H   0  0  0  0  0  0  0  0  0  0  0  0
    0.1205    2.1614   -0.6009 H   0  0  0  0  0  0  0  0  0  0  0  0
    1.2473    1.8147   -2.3862 C   0  0  0  0  0  0  0  0  0  0  0  0
    0.9404    2.5834   -3.2815 O   0  0  0  0  0  0  0  0  0  0  0  0
    2.4968    1.3277   -2.2174 O   0  0  0  0  0  0  0  0  0  0  0  0
    3.0468    1.7204   -2.9114 H   0  0  0  0  0  0  0  0  0  0  0  0
    0.9717    0.0707    0.5923 C   0  0  0  0  0  0  0  0  0  0  0  0
    2.1856    0.0048    0.7223 O   0  0  0  0  0  0  0  0  0  0  0  0
    0.1987    0.4214    1.6849 N   0  0  0  0  0  0  0  0  0  0  0  0
   -0.8063    0.3661    1.5587 H   0  0  0  0  0  0  0  0  0  0  0  0
    0.7334    0.4855    3.0394 C   0  0  0  0  0  0  0  0  0  0  0  0
    1.5524    1.2105    3.0948 H   0  0  0  0  0  0  0  0  0  0  0  0
   -0.0472    0.7945    3.7409 H   0  0  0  0  0  0  0  0  0  0  0  0
    1.1105   -0.4953    3.3477 H   0  0  0  0  0  0  0  0  0  0  0  0
  1  2  1  0  0  0  0
  2  3  1  0  0  0  0
  2  4  1  0  0  0  0
  2  5  1  0  0  0  0
  5  6  2  0  0  0  0
  5  7  1  0  0  0  0
  7  8  1  0  0  0  0
  7  9  1  0  0  0  0
  9 10  1  0  0  0  0
  9 11  1  0  0  0  0
  9 18  1  0  0  0  0
 11 12  1  0  0  0  0
 11 13  1  0  0  0  0
 11 14  1  0  0  0  0
 14 15  2  0  0  0  0
 14 16  1  0  0  0  0
 16 17  1  0  0  0  0
 18 19  2  0  0  0  0
 18 20  1  0  0  0  0
 20 21  1  0  0  0  0
 20 22  1  0  0  0  0
 22 23  1  0  0  0  0
 22 24  1  0  0  0  0
 22 25  1  0  0  0  0
M  END
$$$$

  -OEChem-02102214113D

 25 24  0     1  0  0  0  0  0999 V2000
   -2.5172   -3.7063   -0.4169 H   0  0  0  0  0  0  0  0  0  0  0  0
   -2.5511   -2.6502   -0.7005 C   0  0  0  0  0  0  0  0  0  0  0  0
   -3.3049   -2.1459   -0.0912 H   0  0  0  0  0  0  0  0  0  0  0  0
   -2.8346   -2.5798   -1.7534 H   0  0  0  0  0  0  0  0  0  0  0  0
   -1.1934   -2.0087   -0.4828 C   0  0  0  0  0  0  0  0  0  0  0  0
   -0.2946   -2.6537    0.0254 O   0  0  0  0  0  0  0  0  0  0  0  0
   -0.9888   -0.6930   -0.8538 N   0  0  0  0  0  0  0  0  0  0  0  0
   -1.7511   -0.2372   -1.3465 H   0  0  0  0  0  0  0  0  0  0  0  0
    0.3210   -0.0135   -0.8096 C   0  0  1  0  0  0  0  0  0  0  0  0
    1.0041   -0.6033   -1.4322 H   0  0  0  0  0  0  0  0  0  0  0  0
    0.1547    1.4086   -1.4008 C   0  0  0  0  0  0  0  0  0  0  0  0
   -0.7931    1.4764   -1.9411 H   0  0  0  0  0  0  0  0  0  0  0  0
    0.1244    2.1451   -0.5926 H   0  0  0  0  0  0  0  0  0  0  0  0
    1.2549    1.8180   -2.3797 C   0  0  0  0  0  0  0  0  0  0  0  0
    1.0248    2.7919   -3.0759 O   0  0  0  0  0  0  0  0  0  0  0  0
    2.4085    1.1145   -2.4423 O   0  0  0  0  0  0  0  0  0  0  0  0
    2.9740    1.5659   -3.0865 H   0  0  0  0  0  0  0  0  0  0  0  0
    0.9702    0.0547    0.5923 C   0  0  0  0  0  0  0  0  0  0  0  0
    2.1870    0.0241    0.7093 O   0  0  0  0  0  0  0  0  0  0  0  0
    0.2015    0.4094    1.6866 N   0  0  0  0  0  0  0  0  0  0  0  0
   -0.8034    0.3331    1.5708 H   0  0  0  0  0  0  0  0  0  0  0  0
    0.7468    0.5053    3.0350 C   0  0  0  0  0  0  0  0  0  0  0  0
    1.5548    1.2436    3.0706 H   0  0  0  0  0  0  0  0  0  0  0  0
   -0.0323    0.8153    3.7376 H   0  0  0  0  0  0  0  0  0  0  0  0
    1.1413   -0.4642    3.3573 H   0  0  0  0  0  0  0  0  0  0  0  0
  1  2  1  0  0  0  0
  2  3  1  0  0  0  0
  2  4  1  0  0  0  0
  2  5  1  0  0  0  0
  5  6  2  0  0  0  0
  5  7  1  0  0  0  0
  7  8  1  0  0  0  0
  7  9  1  0  0  0  0
  9 10  1  0  0  0  0
  9 11  1  0  0  0  0
  9 18  1  0  0  0  0
 11 12  1  0  0  0  0
 11 13  1  0  0  0  0
 11 14  1  0  0  0  0
 14 15  2  0  0  0  0
 14 16  1  0  0  0  0
 16 17  1  0  0  0  0
 18 19  2  0  0  0  0
 18 20  1  0  0  0  0
 20 21  1  0  0  0  0
 20 22  1  0  0  0  0
 22 23  1  0  0  0  0
 22 24  1  0  0  0  0
 22 25  1  0  0  0  0
M  END
$$$$

  -OEChem-02102214113D

 25 24  0     1  0  0  0  0  0999 V2000
   -2.5252   -3.7187   -0.4224 H   0  0  0  0  0  0  0  0  0  0  0  0
   -2.5589   -2.6640   -0.7104 C   0  0  0  0  0  0  0  0  0  0  0  0
   -3.3289   -2.1628   -0.1194 H   0  0  0  0  0  0  0  0  0  0  0  0
   -2.8197   -2.5984   -1.7694 H   0  0  0  0  0  0  0  0  0  0  0  0
   -1.2097   -2.0142   -0.4652 C   0  0  0  0  0  0  0  0  0  0  0  0
   -0.3225   -2.6506    0.0737 O   0  0  0  0  0  0  0  0  0  0  0  0
   -1.0002   -0.7015   -0.8447 N   0  0  0  0  0  0  0  0  0  0  0  0
   -1.7456   -0.2627   -1.3769 H   0  0  0  0  0  0  0  0  0  0  0  0
    0.3144   -0.0303   -0.8053 C   0  0  1  0  0  0  0  0  0  0  0  0
    1.0022   -0.6328   -1.4079 H   0  0  0  0  0  0  0  0  0  0  0  0
    0.1637    1.3981   -1.3953 C   0  0  0  0  0  0  0  0  0  0  0  0
   -0.8775    1.5817   -1.6706 H   0  0  0  0  0  0  0  0  0  0  0  0
    0.4280    2.1368   -0.6322 H   0  0  0  0  0  0  0  0  0  0  0  0
    1.0222    1.6931   -2.6263 C   0  0  0  0  0  0  0  0  0  0  0  0
    0.9133    2.8113   -3.0988 O   0  0  0  0  0  0  0  0  0  0  0  0
    1.8134    0.7352   -3.1643 O   0  0  0  0  0  0  0  0  0  0  0  0
    2.2727    1.1508   -3.9100 H   0  0  0  0  0  0  0  0  0  0  0  0
    0.9629    0.0402    0.5959 C   0  0  0  0  0  0  0  0  0  0  0  0
    2.1817    0.0311    0.6986 O   0  0  0  0  0  0  0  0  0  0  0  0
    0.2003    0.4046    1.6911 N   0  0  0  0  0  0  0  0  0  0  0  0
   -0.8050    0.3205    1.5839 H   0  0  0  0  0  0  0  0  0  0  0  0
    0.7551    0.5256    3.0338 C   0  0  0  0  0  0  0  0  0  0  0  0
    1.5601    1.2680    3.0517 H   0  0  0  0  0  0  0  0  0  0  0  0
   -0.0207    0.8438    3.7367 H   0  0  0  0  0  0  0  0  0  0  0  0
    1.1562   -0.4367    3.3692 H   0  0  0  0  0  0  0  0  0  0  0  0
  1  2  1  0  0  0  0
  2  3  1  0  0  0  0
  2  4  1  0  0  0  0
  2  5  1  0  0  0  0
  5  6  2  0  0  0  0
  5  7  1  0  0  0  0
  7  8  1  0  0  0  0
  7  9  1  0  0  0  0
  9 10  1  0  0  0  0
  9 11  1  0  0  0  0
  9 18  1  0  0  0  0
 11 12  1  0  0  0  0
 11 13  1  0  0  0  0
 11 14  1  0  0  0  0
 14 15  2  0  0  0  0
 14 16  1  0  0  0  0
 16 17  1  0  0  0  0
 18 19  2  0  0  0  0
 18 20  1  0  0  0  0
 20 21  1  0  0  0  0
 20 22  1  0  0  0  0
 22 23  1  0  0  0  0
 22 24  1  0  0  0  0
 22 25  1  0  0  0  0
M  END
$$$$

  -OEChem-02102214113D

 25 24  0     1  0  0  0  0  0999 V2000
   -2.5181   -3.7215   -0.4394 H   0  0  0  0  0  0  0  0  0  0  0  0
   -2.5534   -2.6668   -0.7270 C   0  0  0  0  0  0  0  0  0  0  0  0
   -3.3367   -2.1703   -0.1495 H   0  0  0  0  0  0  0  0  0  0  0  0
   -2.7963   -2.6024   -1.7903 H   0  0  0  0  0  0  0  0  0  0  0  0
   -1.2130   -2.0087   -0.4585 C   0  0  0  0  0  0  0  0  0  0  0  0
   -0.3310   -2.6390    0.0962 O   0  0  0  0  0  0  0  0  0  0  0  0
   -1.0057   -0.6958   -0.8377 N   0  0  0  0  0  0  0  0  0  0  0  0
   -1.7428   -0.2684   -1.3903 H   0  0  0  0  0  0  0  0  0  0  0  0
    0.3089   -0.0253   -0.8005 C   0  0  1  0  0  0  0  0  0  0  0  0
    0.9982   -0.6248   -1.4052 H   0  0  0  0  0  0  0  0  0  0  0  0
    0.1595    1.4035   -1.3878 C   0  0  0  0  0  0  0  0  0  0  0  0
   -0.8799    1.5890   -1.6684 H   0  0  0  0  0  0  0  0  0  0  0  0
    0.4229    2.1426   -0.6243 H   0  0  0  0  0  0  0  0  0  0  0  0
    1.0220    1.6824   -2.6183 C   0  0  0  0  0  0  0  0  0  0  0  0
    1.1523    2.8516   -2.9358 O   0  0  0  0  0  0  0  0  0  0  0  0
    1.5132    0.6553   -3.3519 O   0  0  0  0  0  0  0  0  0  0  0  0
    2.0205    1.0595   -4.0727 H   0  0  0  0  0  0  0  0  0  0  0  0
    0.9618    0.0448    0.5982 C   0  0  0  0  0  0  0  0  0  0  0  0
    2.1814    0.0357    0.6932 O   0  0  0  0  0  0  0  0  0  0  0  0
    0.2042    0.4091    1.6967 N   0  0  0  0  0  0  0  0  0  0  0  0
   -0.8015    0.3221    1.5947 H   0  0  0  0  0  0  0  0  0  0  0  0
    0.7655    0.5304    3.0364 C   0  0  0  0  0  0  0  0  0  0  0  0
    1.5672    1.2765    3.0510 H   0  0  0  0  0  0  0  0  0  0  0  0
   -0.0079    0.8439    3.7440 H   0  0  0  0  0  0  0  0  0  0  0  0
    1.1727   -0.4306    3.3682 H   0  0  0  0  0  0  0  0  0  0  0  0
  1  2  1  0  0  0  0
  2  3  1  0  0  0  0
  2  4  1  0  0  0  0
  2  5  1  0  0  0  0
  5  6  2  0  0  0  0
  5  7  1  0  0  0  0
  7  8  1  0  0  0  0
  7  9  1  0  0  0  0
  9 10  1  0  0  0  0
  9 11  1  0  0  0  0
  9 18  1  0  0  0  0
 11 12  1  0  0  0  0
 11 13  1  0  0  0  0
 11 14  1  0  0  0  0
 14 15  2  0  0  0  0
 14 16  1  0  0  0  0
 16 17  1  0  0  0  0
 18 19  2  0  0  0  0
 18 20  1  0  0  0  0
 20 21  1  0  0  0  0
 20 22  1  0  0  0  0
 22 23  1  0  0  0  0
 22 24  1  0  0  0  0
 22 25  1  0  0  0  0
M  END
$$$$

  -OEChem-02102214113D

 25 24  0     1  0  0  0  0  0999 V2000
   -2.5354   -3.7014   -0.3801 H   0  0  0  0  0  0  0  0  0  0  0  0
   -2.5497   -2.6666   -0.7341 C   0  0  0  0  0  0  0  0  0  0  0  0
   -3.3437   -2.1277   -0.2118 H   0  0  0  0  0  0  0  0  0  0  0  0
   -2.7605   -2.6658   -1.8062 H   0  0  0  0  0  0  0  0  0  0  0  0
   -1.2103   -2.0055   -0.4680 C   0  0  0  0  0  0  0  0  0  0  0  0
   -0.3227   -2.6359    0.0776 O   0  0  0  0  0  0  0  0  0  0  0  0
   -1.0115   -0.6889   -0.8388 N   0  0  0  0  0  0  0  0  0  0  0  0
   -1.7491   -0.2660   -1.3943 H   0  0  0  0  0  0  0  0  0  0  0  0
    0.3000   -0.0125   -0.8019 C   0  0  1  0  0  0  0  0  0  0  0  0
    0.9913   -0.6006   -1.4166 H   0  0  0  0  0  0  0  0  0  0  0  0
    0.1433    1.4165   -1.3822 C   0  0  0  0  0  0  0  0  0  0  0  0
   -0.8943    1.6007   -1.6692 H   0  0  0  0  0  0  0  0  0  0  0  0
    0.4040    2.1579   -0.6195 H   0  0  0  0  0  0  0  0  0  0  0  0
    1.0138    1.6708   -2.6101 C   0  0  0  0  0  0  0  0  0  0  0  0
    1.3991    2.8118   -2.7947 O   0  0  0  0  0  0  0  0  0  0  0  0
    1.2221    0.6631   -3.4911 O   0  0  0  0  0  0  0  0  0  0  0  0
    1.7799    1.0346   -4.1923 H   0  0  0  0  0  0  0  0  0  0  0  0
    0.9598    0.0520    0.5937 C   0  0  0  0  0  0  0  0  0  0  0  0
    2.1799    0.0424    0.6812 O   0  0  0  0  0  0  0  0  0  0  0  0
    0.2077    0.4053    1.6994 N   0  0  0  0  0  0  0  0  0  0  0  0
   -0.7989    0.3232    1.6023 H   0  0  0  0  0  0  0  0  0  0  0  0
    0.7778    0.5251    3.0356 C   0  0  0  0  0  0  0  0  0  0  0  0
    1.5639    1.2875    3.0501 H   0  0  0  0  0  0  0  0  0  0  0  0
    0.0045    0.8151    3.7533 H   0  0  0  0  0  0  0  0  0  0  0  0
    1.2081   -0.4302    3.3546 H   0  0  0  0  0  0  0  0  0  0  0  0
  1  2  1  0  0  0  0
  2  3  1  0  0  0  0
  2  4  1  0  0  0  0
  2  5  1  0  0  0  0
  5  6  2  0  0  0  0
  5  7  1  0  0  0  0
  7  8  1  0  0  0  0
  7  9  1  0  0  0  0
  9 10  1  0  0  0  0
  9 11  1  0  0  0  0
  9 18  1  0  0  0  0
 11 12  1  0  0  0  0
 11 13  1  0  0  0  0
 11 14  1  0  0  0  0
 14 15  2  0  0  0  0
 14 16  1  0  0  0  0
 16 17  1  0  0  0  0
 18 19  2  0  0  0  0
 18 20  1  0  0  0  0
 20 21  1  0  0  0  0
 20 22  1  0  0  0  0
 22 23  1  0  0  0  0
 22 24  1  0  0  0  0
 22 25  1  0  0  0  0
M  END
$$$$

  -OEChem-02102214113D

 25 24  0     1  0  0  0  0  0999 V2000
   -2.5231   -3.7049   -0.3983 H   0  0  0  0  0  0  0  0  0  0  0  0
   -2.5458   -2.6668   -0.7426 C   0  0  0  0  0  0  0  0  0  0  0  0
   -3.3422   -2.1384   -0.2132 H   0  0  0  0  0  0  0  0  0  0  0  0
   -2.7596   -2.6576   -1.8141 H   0  0  0  0  0  0  0  0  0  0  0  0
   -1.2103   -1.9986   -0.4742 C   0  0  0  0  0  0  0  0  0  0  0  0
   -0.3180   -2.6264    0.0668 O   0  0  0  0  0  0  0  0  0  0  0  0
   -1.0200   -0.6788   -0.8380 N   0  0  0  0  0  0  0  0  0  0  0  0
   -1.7593   -0.2594   -1.3939 H   0  0  0  0  0  0  0  0  0  0  0  0
    0.2880    0.0036   -0.8037 C   0  0  1  0  0  0  0  0  0  0  0  0
    0.9782   -0.5744   -1.4304 H   0  0  0  0  0  0  0  0  0  0  0  0
    0.1203    1.4309   -1.3801 C   0  0  0  0  0  0  0  0  0  0  0  0
   -0.9168    1.6119   -1.6709 H   0  0  0  0  0  0  0  0  0  0  0  0
    0.3790    2.1764   -0.6207 H   0  0  0  0  0  0  0  0  0  0  0  0
    0.9958    1.6607   -2.6065 C   0  0  0  0  0  0  0  0  0  0  0  0
    1.6220    2.7031   -2.6778 O   0  0  0  0  0  0  0  0  0  0  0  0
    0.9686    0.7358   -3.5956 O   0  0  0  0  0  0  0  0  0  0  0  0
    1.5769    1.0614   -4.2777 H   0  0  0  0  0  0  0  0  0  0  0  0
    0.9571    0.0645    0.5875 C   0  0  0  0  0  0  0  0  0  0  0  0
    2.1775    0.0496    0.6672 O   0  0  0  0  0  0  0  0  0  0  0  0
    0.2115    0.4082    1.7005 N   0  0  0  0  0  0  0  0  0  0  0  0
   -0.7955    0.3243    1.6094 H   0  0  0  0  0  0  0  0  0  0  0  0
    0.7905    0.5212    3.0333 C   0  0  0  0  0  0  0  0  0  0  0  0
    1.5785    1.2816    3.0456 H   0  0  0  0  0  0  0  0  0  0  0  0
    0.0227    0.8105    3.7571 H   0  0  0  0  0  0  0  0  0  0  0  0
    1.2204   -0.4363    3.3456 H   0  0  0  0  0  0  0  0  0  0  0  0
  1  2  1  0  0  0  0
  2  3  1  0  0  0  0
  2  4  1  0  0  0  0
  2  5  1  0  0  0  0
  5  6  2  0  0  0  0
  5  7  1  0  0  0  0
  7  8  1  0  0  0  0
  7  9  1  0  0  0  0
  9 10  1  0  0  0  0
  9 11  1  0  0  0  0
  9 18  1  0  0  0  0
 11 12  1  0  0  0  0
 11 13  1  0  0  0  0
 11 14  1  0  0  0  0
 14 15  2  0  0  0  0
 14 16  1  0  0  0  0
 16 17  1  0  0  0  0
 18 19  2  0  0  0  0
 18 20  1  0  0  0  0
 20 21  1  0  0  0  0
 20 22  1  0  0  0  0
 22 23  1  0  0  0  0
 22 24  1  0  0  0  0
 22 25  1  0  0  0  0
M  END
$$$$

  -OEChem-02102214113D

 25 24  0     1  0  0  0  0  0999 V2000
   -2.4806   -3.7216   -0.4667 H   0  0  0  0  0  0  0  0  0  0  0  0
   -2.5361   -2.6641   -0.7410 C   0  0  0  0  0  0  0  0  0  0  0  0
   -3.3247   -2.1888   -0.1530 H   0  0  0  0  0  0  0  0  0  0  0  0
   -2.7858   -2.5902   -1.8022 H   0  0  0  0  0  0  0  0  0  0  0  0
   -1.2062   -1.9855   -0.4707 C   0  0  0  0  0  0  0  0  0  0  0  0
   -0.3092   -2.6077    0.0686 O   0  0  0  0  0  0  0  0  0  0  0  0
   -1.0246   -0.6649   -0.8354 N   0  0  0  0  0  0  0  0  0  0  0  0
   -1.7653   -0.2527   -1.3950 H   0  0  0  0  0  0  0  0  0  0  0  0
    0.2806    0.0233   -0.8067 C   0  0  1  0  0  0  0  0  0  0  0  0
    0.9700   -0.5487   -1.4403 H   0  0  0  0  0  0  0  0  0  0  0  0
    0.1005    1.4463   -1.3849 C   0  0  0  0  0  0  0  0  0  0  0  0
   -0.9379    1.6230   -1.6745 H   0  0  0  0  0  0  0  0  0  0  0  0
    0.3595    2.1984   -0.6320 H   0  0  0  0  0  0  0  0  0  0  0  0
    0.9761    1.6572   -2.6127 C   0  0  0  0  0  0  0  0  0  0  0  0
    1.8114    2.5432   -2.5913 O   0  0  0  0  0  0  0  0  0  0  0  0
    0.7489    0.8665   -3.6882 O   0  0  0  0  0  0  0  0  0  0  0  0
    1.3980    1.1380   -4.3563 H   0  0  0  0  0  0  0  0  0  0  0  0
    0.9548    0.0864    0.5819 C   0  0  0  0  0  0  0  0  0  0  0  0
    2.1747    0.0545    0.6608 O   0  0  0  0  0  0  0  0  0  0  0  0
    0.2124    0.4265    1.6980 N   0  0  0  0  0  0  0  0  0  0  0  0
   -0.7951    0.3508    1.6054 H   0  0  0  0  0  0  0  0  0  0  0  0
    0.7912    0.5059    3.0334 C   0  0  0  0  0  0  0  0  0  0  0  0
    1.5995    1.2444    3.0580 H   0  0  0  0  0  0  0  0  0  0  0  0
    0.0297    0.8059    3.7594 H   0  0  0  0  0  0  0  0  0  0  0  0
    1.1944   -0.4672    3.3329 H   0  0  0  0  0  0  0  0  0  0  0  0
  1  2  1  0  0  0  0
  2  3  1  0  0  0  0
  2  4  1  0  0  0  0
  2  5  1  0  0  0  0
  5  6  2  0  0  0  0
  5  7  1  0  0  0  0
  7  8  1  0  0  0  0
  7  9  1  0  0  0  0
  9 10  1  0  0  0  0
  9 11  1  0  0  0  0
  9 18  1  0  0  0  0
 11 12  1  0  0  0  0
 11 13  1  0  0  0  0
 11 14  1  0  0  0  0
 14 15  2  0  0  0  0
 14 16  1  0  0  0  0
 16 17  1  0  0  0  0
 18 19  2  0  0  0  0
 18 20  1  0  0  0  0
 20 21  1  0  0  0  0
 20 22  1  0  0  0  0
 22 23  1  0  0  0  0
 22 24  1  0  0  0  0
 22 25  1  0  0  0  0
M  END
$$$$

  -OEChem-02102214113D

 25 24  0     1  0  0  0  0  0999 V2000
   -2.4905   -3.7089   -0.4279 H   0  0  0  0  0  0  0  0  0  0  0  0
   -2.5356   -2.6601   -0.7351 C   0  0  0  0  0  0  0  0  0  0  0  0
   -3.3208   -2.1598   -0.1636 H   0  0  0  0  0  0  0  0  0  0  0  0
   -2.7824   -2.6167   -1.7986 H   0  0  0  0  0  0  0  0  0  0  0  0
   -1.1998   -1.9859   -0.4843 C   0  0  0  0  0  0  0  0  0  0  0  0
   -0.2933   -2.6139    0.0318 O   0  0  0  0  0  0  0  0  0  0  0  0
   -1.0222   -0.6627   -0.8415 N   0  0  0  0  0  0  0  0  0  0  0  0
   -1.7745   -0.2399   -1.3778 H   0  0  0  0  0  0  0  0  0  0  0  0
    0.2799    0.0313   -0.8122 C   0  0  1  0  0  0  0  0  0  0  0  0
    0.9713   -0.5315   -1.4522 H   0  0  0  0  0  0  0  0  0  0  0  0
    0.0879    1.4552   -1.3823 C   0  0  0  0  0  0  0  0  0  0  0  0
   -0.9524    1.6302   -1.6664 H   0  0  0  0  0  0  0  0  0  0  0  0
    0.3481    2.2070   -0.6299 H   0  0  0  0  0  0  0  0  0  0  0  0
    0.9603    1.6694   -2.6101 C   0  0  0  0  0  0  0  0  0  0  0  0
    1.9625    2.3531   -2.5098 O   0  0  0  0  0  0  0  0  0  0  0  0
    0.5664    1.0793   -3.7627 O   0  0  0  0  0  0  0  0  0  0  0  0
    1.2451    1.3063   -4.4180 H   0  0  0  0  0  0  0  0  0  0  0  0
    0.9547    0.0883    0.5767 C   0  0  0  0  0  0  0  0  0  0  0  0
    2.1743    0.0539    0.6572 O   0  0  0  0  0  0  0  0  0  0  0  0
    0.2115    0.4182    1.6955 N   0  0  0  0  0  0  0  0  0  0  0  0
   -0.7957    0.3385    1.6043 H   0  0  0  0  0  0  0  0  0  0  0  0
    0.7922    0.5006    3.0299 C   0  0  0  0  0  0  0  0  0  0  0  0
    1.5958    1.2443    3.0531 H   0  0  0  0  0  0  0  0  0  0  0  0
    0.0302    0.7957    3.7574 H   0  0  0  0  0  0  0  0  0  0  0  0
    1.2023   -0.4700    3.3284 H   0  0  0  0  0  0  0  0  0  0  0  0
  1  2  1  0  0  0  0
  2  3  1  0  0  0  0
  2  4  1  0  0  0  0
  2  5  1  0  0  0  0
  5  6  2  0  0  0  0
  5  7  1  0  0  0  0
  7  8  1  0  0  0  0
  7  9  1  0  0  0  0
  9 10  1  0  0  0  0
  9 11  1  0  0  0  0
  9 18  1  0  0  0  0
 11 12  1  0  0  0  0
 11 13  1  0  0  0  0
 11 14  1  0  0  0  0
 14 15  2  0  0  0  0
 14 16  1  0  0  0  0
 16 17  1  0  0  0  0
 18 19  2  0  0  0  0
 18 20  1  0  0  0  0
 20 21  1  0  0  0  0
 20 22  1  0  0  0  0
 22 23  1  0  0  0  0
 22 24  1  0  0  0  0
 22 25  1  0  0  0  0
M  END
$$$$

  -OEChem-02102214113D

 25 24  0     1  0  0  0  0  0999 V2000
   -2.4829   -3.7063   -0.4236 H   0  0  0  0  0  0  0  0  0  0  0  0
   -2.5303   -2.6549   -0.7214 C   0  0  0  0  0  0  0  0  0  0  0  0
   -3.3059   -2.1578   -0.1340 H   0  0  0  0  0  0  0  0  0  0  0  0
   -2.7929   -2.6023   -1.7808 H   0  0  0  0  0  0  0  0  0  0  0  0
   -1.1900   -1.9850   -0.4845 C   0  0  0  0  0  0  0  0  0  0  0  0
   -0.2809   -2.6154    0.0239 O   0  0  0  0  0  0  0  0  0  0  0  0
   -1.0122   -0.6624   -0.8447 N   0  0  0  0  0  0  0  0  0  0  0  0
   -1.7686   -0.2373   -1.3731 H   0  0  0  0  0  0  0  0  0  0  0  0
    0.2893    0.0332   -0.8181 C   0  0  1  0  0  0  0  0  0  0  0  0
    0.9837   -0.5239   -1.4598 H   0  0  0  0  0  0  0  0  0  0  0  0
    0.0873    1.4581   -1.3824 C   0  0  0  0  0  0  0  0  0  0  0  0
   -0.9566    1.6325   -1.6541 H   0  0  0  0  0  0  0  0  0  0  0  0
    0.3535    2.2085   -0.6311 H   0  0  0  0  0  0  0  0  0  0  0  0
    0.9501    1.6827   -2.6148 C   0  0  0  0  0  0  0  0  0  0  0  0
    2.0745    2.1272   -2.4763 O   0  0  0  0  0  0  0  0  0  0  0  0
    0.4159    1.3538   -3.8137 O   0  0  0  0  0  0  0  0  0  0  0  0
    1.1068    1.5435   -4.4681 H   0  0  0  0  0  0  0  0  0  0  0  0
    0.9597    0.0906    0.5736 C   0  0  0  0  0  0  0  0  0  0  0  0
    2.1778    0.0411    0.6648 O   0  0  0  0  0  0  0  0  0  0  0  0
    0.2102    0.4212    1.6882 N   0  0  0  0  0  0  0  0  0  0  0  0
   -0.7968    0.3536    1.5873 H   0  0  0  0  0  0  0  0  0  0  0  0
    0.7789    0.4896    3.0284 C   0  0  0  0  0  0  0  0  0  0  0  0
    1.5876    1.2273    3.0649 H   0  0  0  0  0  0  0  0  0  0  0  0
    0.0119    0.7845    3.7507 H   0  0  0  0  0  0  0  0  0  0  0  0
    1.1789   -0.4862    3.3236 H   0  0  0  0  0  0  0  0  0  0  0  0
  1  2  1  0  0  0  0
  2  3  1  0  0  0  0
  2  4  1  0  0  0  0
  2  5  1  0  0  0  0
  5  6  2  0  0  0  0
  5  7  1  0  0  0  0
  7  8  1  0  0  0  0
  7  9  1  0  0  0  0
  9 10  1  0  0  0  0
  9 11  1  0  0  0  0
  9 18  1  0  0  0  0
 11 12  1  0  0  0  0
 11 13  1  0  0  0  0
 11 14  1  0  0  0  0
 14 15  2  0  0  0  0
 14 16  1  0  0  0  0
 16 17  1  0  0  0  0
 18 19  2  0  0  0  0
 18 20  1  0  0  0  0
 20 21  1  0  0  0  0
 20 22  1  0  0  0  0
 22 23  1  0  0  0  0
 22 24  1  0  0  0  0
 22 25  1  0  0  0  0
M  END
$$$$

  -OEChem-02102214113D

 25 24  0     1  0  0  0  0  0999 V2000
   -2.4729   -3.7085   -0.4351 H   0  0  0  0  0  0  0  0  0  0  0  0
   -2.5263   -2.6522   -0.7143 C   0  0  0  0  0  0  0  0  0  0  0  0
   -3.2965   -2.1666   -0.1103 H   0  0  0  0  0  0  0  0  0  0  0  0
   -2.8005   -2.5824   -1.7697 H   0  0  0  0  0  0  0  0  0  0  0  0
   -1.1847   -1.9834   -0.4802 C   0  0  0  0  0  0  0  0  0  0  0  0
   -0.2754   -2.6146    0.0265 O   0  0  0  0  0  0  0  0  0  0  0  0
   -1.0057   -0.6621   -0.8441 N   0  0  0  0  0  0  0  0  0  0  0  0
   -1.7672   -0.2327   -1.3616 H   0  0  0  0  0  0  0  0  0  0  0  0
    0.2953    0.0349   -0.8191 C   0  0  1  0  0  0  0  0  0  0  0  0
    0.9924   -0.5219   -1.4582 H   0  0  0  0  0  0  0  0  0  0  0  0
    0.0891    1.4585   -1.3862 C   0  0  0  0  0  0  0  0  0  0  0  0
   -0.9571    1.6301   -1.6509 H   0  0  0  0  0  0  0  0  0  0  0  0
    0.3574    2.2103   -0.6372 H   0  0  0  0  0  0  0  0  0  0  0  0
    0.9464    1.6929   -2.6215 C   0  0  0  0  0  0  0  0  0  0  0  0
    2.1417    1.8763   -2.4864 O   0  0  0  0  0  0  0  0  0  0  0  0
    0.3248    1.6587   -3.8231 O   0  0  0  0  0  0  0  0  0  0  0  0
    1.0208    1.8117   -4.4816 H   0  0  0  0  0  0  0  0  0  0  0  0
    0.9610    0.0947    0.5750 C   0  0  0  0  0  0  0  0  0  0  0  0
    2.1783    0.0427    0.6741 O   0  0  0  0  0  0  0  0  0  0  0  0
    0.2071    0.4269    1.6864 N   0  0  0  0  0  0  0  0  0  0  0  0
   -0.7994    0.3560    1.5815 H   0  0  0  0  0  0  0  0  0  0  0  0
    0.7705    0.4814    3.0297 C   0  0  0  0  0  0  0  0  0  0  0  0
    1.5829    1.2145    3.0755 H   0  0  0  0  0  0  0  0  0  0  0  0
    0.0024    0.7739    3.7519 H   0  0  0  0  0  0  0  0  0  0  0  0
    1.1643   -0.4991    3.3176 H   0  0  0  0  0  0  0  0  0  0  0  0
  1  2  1  0  0  0  0
  2  3  1  0  0  0  0
  2  4  1  0  0  0  0
  2  5  1  0  0  0  0
  5  6  2  0  0  0  0
  5  7  1  0  0  0  0
  7  8  1  0  0  0  0
  7  9  1  0  0  0  0
  9 10  1  0  0  0  0
  9 11  1  0  0  0  0
  9 18  1  0  0  0  0
 11 12  1  0  0  0  0
 11 13  1  0  0  0  0
 11 14  1  0  0  0  0
 14 15  2  0  0  0  0
 14 16  1  0  0  0  0
 16 17  1  0  0  0  0
 18 19  2  0  0  0  0
 18 20  1  0  0  0  0
 20 21  1  0  0  0  0
 20 22  1  0  0  0  0
 22 23  1  0  0  0  0
 22 24  1  0  0  0  0
 22 25  1  0  0  0  0
M  END
$$$$

  -OEChem-02102214113D

 25 24  0     1  0  0  0  0  0999 V2000
   -2.4947   -3.6974   -0.3856 H   0  0  0  0  0  0  0  0  0  0  0  0
   -2.5301   -2.6526   -0.7072 C   0  0  0  0  0  0  0  0  0  0  0  0
   -3.2991   -2.1333   -0.1306 H   0  0  0  0  0  0  0  0  0  0  0  0
   -2.7933   -2.6207   -1.7671 H   0  0  0  0  0  0  0  0  0  0  0  0
   -1.1814   -1.9936   -0.4875 C   0  0  0  0  0  0  0  0  0  0  0  0
   -0.2708   -2.6311    0.0087 O   0  0  0  0  0  0  0  0  0  0  0  0
   -0.9986   -0.6725   -0.8500 N   0  0  0  0  0  0  0  0  0  0  0  0
   -1.7646   -0.2343   -1.3530 H   0  0  0  0  0  0  0  0  0  0  0  0
    0.3038    0.0223   -0.8226 C   0  0  1  0  0  0  0  0  0  0  0  0
    1.0012   -0.5335   -1.4618 H   0  0  0  0  0  0  0  0  0  0  0  0
    0.0988    1.4506   -1.3830 C   0  0  0  0  0  0  0  0  0  0  0  0
   -0.9492    1.6221   -1.6403 H   0  0  0  0  0  0  0  0  0  0  0  0
    0.3690    2.1971   -0.6299 H   0  0  0  0  0  0  0  0  0  0  0  0
    0.9487    1.7084   -2.6205 C   0  0  0  0  0  0  0  0  0  0  0  0
    2.1601    1.6248   -2.5400 O   0  0  0  0  0  0  0  0  0  0  0  0
    0.2949    2.0057   -3.7674 O   0  0  0  0  0  0  0  0  0  0  0  0
    0.9860    2.1338   -4.4362 H   0  0  0  0  0  0  0  0  0  0  0  0
    0.9644    0.0781    0.5748 C   0  0  0  0  0  0  0  0  0  0  0  0
    2.1814    0.0316    0.6809 O   0  0  0  0  0  0  0  0  0  0  0  0
    0.2051    0.4101    1.6828 N   0  0  0  0  0  0  0  0  0  0  0  0
   -0.8010    0.3415    1.5744 H   0  0  0  0  0  0  0  0  0  0  0  0
    0.7640    0.4877    3.0267 C   0  0  0  0  0  0  0  0  0  0  0  0
    1.5650    1.2337    3.0660 H   0  0  0  0  0  0  0  0  0  0  0  0
   -0.0106    0.7769    3.7430 H   0  0  0  0  0  0  0  0  0  0  0  0
    1.1721   -0.4830    3.3276 H   0  0  0  0  0  0  0  0  0  0  0  0
  1  2  1  0  0  0  0
  2  3  1  0  0  0  0
  2  4  1  0  0  0  0
  2  5  1  0  0  0  0
  5  6  2  0  0  0  0
  5  7  1  0  0  0  0
  7  8  1  0  0  0  0
  7  9  1  0  0  0  0
  9 10  1  0  0  0  0
  9 11  1  0  0  0  0
  9 18  1  0  0  0  0
 11 12  1  0  0  0  0
 11 13  1  0  0  0  0
 11 14  1  0  0  0  0
 14 15  2  0  0  0  0
 14 16  1  0  0  0  0
 16 17  1  0  0  0  0
 18 19  2  0  0  0  0
 18 20  1  0  0  0  0
 20 21  1  0  0  0  0
 20 22  1  0  0  0  0
 22 23  1  0  0  0  0
 22 24  1  0  0  0  0
 22 25  1  0  0  0  0
M  END
$$$$

  -OEChem-02102214113D

 25 24  0     1  0  0  0  0  0999 V2000
   -2.4834   -3.7106   -0.4200 H   0  0  0  0  0  0  0  0  0  0  0  0
   -2.5302   -2.6549   -0.7025 C   0  0  0  0  0  0  0  0  0  0  0  0
   -3.2936   -2.1618   -0.0961 H   0  0  0  0  0  0  0  0  0  0  0  0
   -2.8091   -2.5862   -1.7567 H   0  0  0  0  0  0  0  0  0  0  0  0
   -1.1824   -1.9956   -0.4777 C   0  0  0  0  0  0  0  0  0  0  0  0
   -0.2768   -2.6303    0.0312 O   0  0  0  0  0  0  0  0  0  0  0  0
   -0.9956   -0.6769   -0.8473 N   0  0  0  0  0  0  0  0  0  0  0  0
   -1.7594   -0.2392   -1.3542 H   0  0  0  0  0  0  0  0  0  0  0  0
    0.3083    0.0151   -0.8208 C   0  0  1  0  0  0  0  0  0  0  0  0
    1.0031   -0.5518   -1.4526 H   0  0  0  0  0  0  0  0  0  0  0  0
    0.1111    1.4427   -1.3900 C   0  0  0  0  0  0  0  0  0  0  0  0
   -0.9373    1.6115   -1.6474 H   0  0  0  0  0  0  0  0  0  0  0  0
    0.3776    2.1900   -0.6366 H   0  0  0  0  0  0  0  0  0  0  0  0
    0.9565    1.7178   -2.6296 C   0  0  0  0  0  0  0  0  0  0  0  0
    2.1277    1.3859   -2.6508 O   0  0  0  0  0  0  0  0  0  0  0  0
    0.3356    2.3244   -3.6677 O   0  0  0  0  0  0  0  0  0  0  0  0
    1.0133    2.4263   -4.3545 H   0  0  0  0  0  0  0  0  0  0  0  0
    0.9658    0.0772    0.5779 C   0  0  0  0  0  0  0  0  0  0  0  0
    2.1831    0.0450    0.6867 O   0  0  0  0  0  0  0  0  0  0  0  0
    0.2026    0.4172    1.6808 N   0  0  0  0  0  0  0  0  0  0  0  0
   -0.8024    0.3356    1.5700 H   0  0  0  0  0  0  0  0  0  0  0  0
    0.7560    0.4878    3.0276 C   0  0  0  0  0  0  0  0  0  0  0  0
    1.5641    1.2256    3.0724 H   0  0  0  0  0  0  0  0  0  0  0  0
   -0.0189    0.7834    3.7411 H   0  0  0  0  0  0  0  0  0  0  0  0
    1.1528   -0.4876    3.3284 H   0  0  0  0  0  0  0  0  0  0  0  0
  1  2  1  0  0  0  0
  2  3  1  0  0  0  0
  2  4  1  0  0  0  0
  2  5  1  0  0  0  0
  5  6  2  0  0  0  0
  5  7  1  0  0  0  0
  7  8  1  0  0  0  0
  7  9  1  0  0  0  0
  9 10  1  0  0  0  0
  9 11  1  0  0  0  0
  9 18  1  0  0  0  0
 11 12  1  0  0  0  0
 11 13  1  0  0  0  0
 11 14  1  0  0  0  0
 14 15  2  0  0  0  0
 14 16  1  0  0  0  0
 16 17  1  0  0  0  0
 18 19  2  0  0  0  0
 18 20  1  0  0  0  0
 20 21  1  0  0  0  0
 20 22  1  0  0  0  0
 22 23  1  0  0  0  0
 22 24  1  0  0  0  0
 22 25  1  0  0  0  0
M  END
$$$$

  -OEChem-02102214113D

 25 24  0     1  0  0  0  0  0999 V2000
   -2.4926   -3.7154   -0.4210 H   0  0  0  0  0  0  0  0  0  0  0  0
   -2.5359   -2.6603   -0.7061 C   0  0  0  0  0  0  0  0  0  0  0  0
   -3.3028   -2.1646   -0.1062 H   0  0  0  0  0  0  0  0  0  0  0  0
   -2.8073   -2.5937   -1.7624 H   0  0  0  0  0  0  0  0  0  0  0  0
   -1.1889   -2.0026   -0.4727 C   0  0  0  0  0  0  0  0  0  0  0  0
   -0.2902   -2.6358    0.0501 O   0  0  0  0  0  0  0  0  0  0  0  0
   -0.9962   -0.6861   -0.8468 N   0  0  0  0  0  0  0  0  0  0  0  0
   -1.7549   -0.2501   -1.3624 H   0  0  0  0  0  0  0  0  0  0  0  0
    0.3109    0.0006   -0.8191 C   0  0  1  0  0  0  0  0  0  0  0  0
    1.0019   -0.5781   -1.4436 H   0  0  0  0  0  0  0  0  0  0  0  0
    0.1253    1.4304   -1.3926 C   0  0  0  0  0  0  0  0  0  0  0  0
   -0.9231    1.6012   -1.6495 H   0  0  0  0  0  0  0  0  0  0  0  0
    0.3903    2.1739   -0.6353 H   0  0  0  0  0  0  0  0  0  0  0  0
    0.9652    1.7296   -2.6330 C   0  0  0  0  0  0  0  0  0  0  0  0
    2.0421    1.1853   -2.7978 O   0  0  0  0  0  0  0  0  0  0  0  0
    0.4404    2.6160   -3.5102 O   0  0  0  0  0  0  0  0  0  0  0  0
    1.0981    2.7047   -4.2179 H   0  0  0  0  0  0  0  0  0  0  0  0
    0.9664    0.0663    0.5803 C   0  0  0  0  0  0  0  0  0  0  0  0
    2.1842    0.0479    0.6878 O   0  0  0  0  0  0  0  0  0  0  0  0
    0.2026    0.4138    1.6804 N   0  0  0  0  0  0  0  0  0  0  0  0
   -0.8017    0.3221    1.5715 H   0  0  0  0  0  0  0  0  0  0  0  0
    0.7560    0.4994    3.0265 C   0  0  0  0  0  0  0  0  0  0  0  0
    1.5624    1.2395    3.0643 H   0  0  0  0  0  0  0  0  0  0  0  0
   -0.0197    0.8005    3.7369 H   0  0  0  0  0  0  0  0  0  0  0  0
    1.1550   -0.4720    3.3373 H   0  0  0  0  0  0  0  0  0  0  0  0
  1  2  1  0  0  0  0
  2  3  1  0  0  0  0
  2  4  1  0  0  0  0
  2  5  1  0  0  0  0
  5  6  2  0  0  0  0
  5  7  1  0  0  0  0
  7  8  1  0  0  0  0
  7  9  1  0  0  0  0
  9 10  1  0  0  0  0
  9 11  1  0  0  0  0
  9 18  1  0  0  0  0
 11 12  1  0  0  0  0
 11 13  1  0  0  0  0
 11 14  1  0  0  0  0
 14 15  2  0  0  0  0
 14 16  1  0  0  0  0
 16 17  1  0  0  0  0
 18 19  2  0  0  0  0
 18 20  1  0  0  0  0
 20 21  1  0  0  0  0
 20 22  1  0  0  0  0
 22 23  1  0  0  0  0
 22 24  1  0  0  0  0
 22 25  1  0  0  0  0
M  END
$$$$

  -OEChem-02102214113D

 25 24  0     1  0  0  0  0  0999 V2000
   -2.5154   -3.7118   -0.3997 H   0  0  0  0  0  0  0  0  0  0  0  0
   -2.5443   -2.6665   -0.7210 C   0  0  0  0  0  0  0  0  0  0  0  0
   -3.3275   -2.1486   -0.1624 H   0  0  0  0  0  0  0  0  0  0  0  0
   -2.7818   -2.6344   -1.7870 H   0  0  0  0  0  0  0  0  0  0  0  0
   -1.2017   -2.0068   -0.4676 C   0  0  0  0  0  0  0  0  0  0  0  0
   -0.3127   -2.6368    0.0756 O   0  0  0  0  0  0  0  0  0  0  0  0
   -1.0027   -0.6915   -0.8440 N   0  0  0  0  0  0  0  0  0  0  0  0
   -1.7492   -0.2625   -1.3828 H   0  0  0  0  0  0  0  0  0  0  0  0
    0.3091   -0.0138   -0.8153 C   0  0  1  0  0  0  0  0  0  0  0  0
    0.9953   -0.6024   -1.4349 H   0  0  0  0  0  0  0  0  0  0  0  0
    0.1362    1.4202   -1.3871 C   0  0  0  0  0  0  0  0  0  0  0  0
   -0.9112    1.5982   -1.6422 H   0  0  0  0  0  0  0  0  0  0  0  0
    0.4040    2.1564   -0.6234 H   0  0  0  0  0  0  0  0  0  0  0  0
    0.9707    1.7389   -2.6281 C   0  0  0  0  0  0  0  0  0  0  0  0
    1.9014    1.0267   -2.9605 O   0  0  0  0  0  0  0  0  0  0  0  0
    0.6016    2.8431   -3.3168 O   0  0  0  0  0  0  0  0  0  0  0  0
    1.2331    2.9191   -4.0492 H   0  0  0  0  0  0  0  0  0  0  0  0
    0.9666    0.0512    0.5827 C   0  0  0  0  0  0  0  0  0  0  0  0
    2.1851    0.0425    0.6842 O   0  0  0  0  0  0  0  0  0  0  0  0
    0.2068    0.4062    1.6830 N   0  0  0  0  0  0  0  0  0  0  0  0
   -0.7980    0.3128    1.5798 H   0  0  0  0  0  0  0  0  0  0  0  0
    0.7671    0.5172    3.0241 C   0  0  0  0  0  0  0  0  0  0  0  0
    1.5605    1.2718    3.0470 H   0  0  0  0  0  0  0  0  0  0  0  0
   -0.0092    0.8130    3.7360 H   0  0  0  0  0  0  0  0  0  0  0  0
    1.1856   -0.4431    3.3433 H   0  0  0  0  0  0  0  0  0  0  0  0
  1  2  1  0  0  0  0
  2  3  1  0  0  0  0
  2  4  1  0  0  0  0
  2  5  1  0  0  0  0
  5  6  2  0  0  0  0
  5  7  1  0  0  0  0
  7  8  1  0  0  0  0
  7  9  1  0  0  0  0
  9 10  1  0  0  0  0
  9 11  1  0  0  0  0
  9 18  1  0  0  0  0
 11 12  1  0  0  0  0
 11 13  1  0  0  0  0
 11 14  1  0  0  0  0
 14 15  2  0  0  0  0
 14 16  1  0  0  0  0
 16 17  1  0  0  0  0
 18 19  2  0  0  0  0
 18 20  1  0  0  0  0
 20 21  1  0  0  0  0
 20 22  1  0  0  0  0
 22 23  1  0  0  0  0
 22 24  1  0  0  0  0
 22 25  1  0  0  0  0
M  END
$$$$

  -OEChem-02102214113D

 25 24  0     1  0  0  0  0  0999 V2000
   -2.5323   -3.7042   -0.3784 H   0  0  0  0  0  0  0  0  0  0  0  0
   -2.5477   -2.6682   -0.7292 C   0  0  0  0  0  0  0  0  0  0  0  0
   -3.3396   -2.1304   -0.2026 H   0  0  0  0  0  0  0  0  0  0  0  0
   -2.7624   -2.6645   -1.8005 H   0  0  0  0  0  0  0  0  0  0  0  0
   -1.2071   -2.0083   -0.4660 C   0  0  0  0  0  0  0  0  0  0  0  0
   -0.3234   -2.6365    0.0878 O   0  0  0  0  0  0  0  0  0  0  0  0
   -1.0059   -0.6936   -0.8427 N   0  0  0  0  0  0  0  0  0  0  0  0
   -1.7451   -0.2710   -1.3962 H   0  0  0  0  0  0  0  0  0  0  0  0
    0.3073   -0.0188   -0.8136 C   0  0  1  0  0  0  0  0  0  0  0  0
    0.9934   -0.6107   -1.4298 H   0  0  0  0  0  0  0  0  0  0  0  0
    0.1406    1.4176   -1.3834 C   0  0  0  0  0  0  0  0  0  0  0  0
   -0.9058    1.6026   -1.6366 H   0  0  0  0  0  0  0  0  0  0  0  0
    0.4123    2.1490   -0.6161 H   0  0  0  0  0  0  0  0  0  0  0  0
    0.9733    1.7440   -2.6240 C   0  0  0  0  0  0  0  0  0  0  0  0
    1.7160    0.9163   -3.1222 O   0  0  0  0  0  0  0  0  0  0  0  0
    0.8142    2.9909   -3.1237 O   0  0  0  0  0  0  0  0  0  0  0  0
    1.4176    3.0504   -3.8808 H   0  0  0  0  0  0  0  0  0  0  0  0
    0.9661    0.0458    0.5838 C   0  0  0  0  0  0  0  0  0  0  0  0
    2.1854    0.0479    0.6793 O   0  0  0  0  0  0  0  0  0  0  0  0
    0.2091    0.4028    1.6853 N   0  0  0  0  0  0  0  0  0  0  0  0
   -0.7958    0.3038    1.5865 H   0  0  0  0  0  0  0  0  0  0  0  0
    0.7735    0.5232    3.0238 C   0  0  0  0  0  0  0  0  0  0  0  0
    1.5603    1.2848    3.0417 H   0  0  0  0  0  0  0  0  0  0  0  0
   -0.0025    0.8150    3.7375 H   0  0  0  0  0  0  0  0  0  0  0  0
    1.2010   -0.4326    3.3453 H   0  0  0  0  0  0  0  0  0  0  0  0
  1  2  1  0  0  0  0
  2  3  1  0  0  0  0
  2  4  1  0  0  0  0
  2  5  1  0  0  0  0
  5  6  2  0  0  0  0
  5  7  1  0  0  0  0
  7  8  1  0  0  0  0
  7  9  1  0  0  0  0
  9 10  1  0  0  0  0
  9 11  1  0  0  0  0
  9 18  1  0  0  0  0
 11 12  1  0  0  0  0
 11 13  1  0  0  0  0
 11 14  1  0  0  0  0
 14 15  2  0  0  0  0
 14 16  1  0  0  0  0
 16 17  1  0  0  0  0
 18 19  2  0  0  0  0
 18 20  1  0  0  0  0
 20 21  1  0  0  0  0
 20 22  1  0  0  0  0
 22 23  1  0  0  0  0
 22 24  1  0  0  0  0
 22 25  1  0  0  0  0
M  END
$$$$

  -OEChem-02102214113D

 25 24  0     1  0  0  0  0  0999 V2000
   -2.5234   -3.7115   -0.4081 H   0  0  0  0  0  0  0  0  0  0  0  0
   -2.5455   -2.6714   -0.7464 C   0  0  0  0  0  0  0  0  0  0  0  0
   -3.3472   -2.1473   -0.2209 H   0  0  0  0  0  0  0  0  0  0  0  0
   -2.7502   -2.6563   -1.8196 H   0  0  0  0  0  0  0  0  0  0  0  0
   -1.2134   -2.0029   -0.4621 C   0  0  0  0  0  0  0  0  0  0  0  0
   -0.3341   -2.6262    0.1045 O   0  0  0  0  0  0  0  0  0  0  0  0
   -1.0143   -0.6871   -0.8364 N   0  0  0  0  0  0  0  0  0  0  0  0
   -1.7443   -0.2749   -1.4097 H   0  0  0  0  0  0  0  0  0  0  0  0
    0.2995   -0.0141   -0.8078 C   0  0  1  0  0  0  0  0  0  0  0  0
    0.9855   -0.6051   -1.4250 H   0  0  0  0  0  0  0  0  0  0  0  0
    0.1367    1.4238   -1.3746 C   0  0  0  0  0  0  0  0  0  0  0  0
   -0.9083    1.6157   -1.6283 H   0  0  0  0  0  0  0  0  0  0  0  0
    0.4126    2.1523   -0.6059 H   0  0  0  0  0  0  0  0  0  0  0  0
    0.9733    1.7402   -2.6146 C   0  0  0  0  0  0  0  0  0  0  0  0
    1.4927    0.8478   -3.2627 O   0  0  0  0  0  0  0  0  0  0  0  0
    1.0689    3.0482   -2.9456 O   0  0  0  0  0  0  0  0  0  0  0  0
    1.6422    3.0829   -3.7270 H   0  0  0  0  0  0  0  0  0  0  0  0
    0.9630    0.0477    0.5868 C   0  0  0  0  0  0  0  0  0  0  0  0
    2.1831    0.0550    0.6736 O   0  0  0  0  0  0  0  0  0  0  0  0
    0.2111    0.4033    1.6921 N   0  0  0  0  0  0  0  0  0  0  0  0
   -0.7941    0.3014    1.5985 H   0  0  0  0  0  0  0  0  0  0  0  0
    0.7831    0.5270    3.0272 C   0  0  0  0  0  0  0  0  0  0  0  0
    1.5708    1.2877    3.0380 H   0  0  0  0  0  0  0  0  0  0  0  0
    0.0114    0.8219    3.7444 H   0  0  0  0  0  0  0  0  0  0  0  0
    1.2116   -0.4279    3.3494 H   0  0  0  0  0  0  0  0  0  0  0  0
  1  2  1  0  0  0  0
  2  3  1  0  0  0  0
  2  4  1  0  0  0  0
  2  5  1  0  0  0  0
  5  6  2  0  0  0  0
  5  7  1  0  0  0  0
  7  8  1  0  0  0  0
  7  9  1  0  0  0  0
  9 10  1  0  0  0  0
  9 11  1  0  0  0  0
  9 18  1  0  0  0  0
 11 12  1  0  0  0  0
 11 13  1  0  0  0  0
 11 14  1  0  0  0  0
 14 15  2  0  0  0  0
 14 16  1  0  0  0  0
 16 17  1  0  0  0  0
 18 19  2  0  0  0  0
 18 20  1  0  0  0  0
 20 21  1  0  0  0  0
 20 22  1  0  0  0  0
 22 23  1  0  0  0  0
 22 24  1  0  0  0  0
 22 25  1  0  0  0  0
M  END
$$$$

  -OEChem-02102214113D

 25 24  0     1  0  0  0  0  0999 V2000
   -2.5139   -3.7135   -0.4274 H   0  0  0  0  0  0  0  0  0  0  0  0
   -2.5391   -2.6720   -0.7608 C   0  0  0  0  0  0  0  0  0  0  0  0
   -3.3479   -2.1553   -0.2388 H   0  0  0  0  0  0  0  0  0  0  0  0
   -2.7356   -2.6531   -1.8354 H   0  0  0  0  0  0  0  0  0  0  0  0
   -1.2132   -1.9963   -0.4641 C   0  0  0  0  0  0  0  0  0  0  0  0
   -0.3344   -2.6151    0.1080 O   0  0  0  0  0  0  0  0  0  0  0  0
   -1.0199   -0.6781   -0.8325 N   0  0  0  0  0  0  0  0  0  0  0  0
   -1.7465   -0.2717   -1.4141 H   0  0  0  0  0  0  0  0  0  0  0  0
    0.2916   -0.0011   -0.8027 C   0  0  1  0  0  0  0  0  0  0  0  0
    0.9795   -0.5846   -1.4259 H   0  0  0  0  0  0  0  0  0  0  0  0
    0.1255    1.4361   -1.3663 C   0  0  0  0  0  0  0  0  0  0  0  0
   -0.9176    1.6300   -1.6250 H   0  0  0  0  0  0  0  0  0  0  0  0
    0.4014    2.1652   -0.5980 H   0  0  0  0  0  0  0  0  0  0  0  0
    0.9711    1.7312   -2.6037 C   0  0  0  0  0  0  0  0  0  0  0  0
    1.2515    0.8334   -3.3801 O   0  0  0  0  0  0  0  0  0  0  0  0
    1.3461    3.0176   -2.7877 O   0  0  0  0  0  0  0  0  0  0  0  0
    1.8894    3.0248   -3.5908 H   0  0  0  0  0  0  0  0  0  0  0  0
    0.9606    0.0581    0.5894 C   0  0  0  0  0  0  0  0  0  0  0  0
    2.1813    0.0678    0.6695 O   0  0  0  0  0  0  0  0  0  0  0  0
    0.2126    0.4067    1.6995 N   0  0  0  0  0  0  0  0  0  0  0  0
   -0.7924    0.2993    1.6106 H   0  0  0  0  0  0  0  0  0  0  0  0
    0.7895    0.5235    3.0328 C   0  0  0  0  0  0  0  0  0  0  0  0
    1.5779    1.2837    3.0448 H   0  0  0  0  0  0  0  0  0  0  0  0
    0.0201    0.8154    3.7538 H   0  0  0  0  0  0  0  0  0  0  0  0
    1.2182   -0.4335    3.3486 H   0  0  0  0  0  0  0  0  0  0  0  0
  1  2  1  0  0  0  0
  2  3  1  0  0  0  0
  2  4  1  0  0  0  0
  2  5  1  0  0  0  0
  5  6  2  0  0  0  0
  5  7  1  0  0  0  0
  7  8  1  0  0  0  0
  7  9  1  0  0  0  0
  9 10  1  0  0  0  0
  9 11  1  0  0  0  0
  9 18  1  0  0  0  0
 11 12  1  0  0  0  0
 11 13  1  0  0  0  0
 11 14  1  0  0  0  0
 14 15  2  0  0  0  0
 14 16  1  0  0  0  0
 16 17  1  0  0  0  0
 18 19  2  0  0  0  0
 18 20  1  0  0  0  0
 20 21  1  0  0  0  0
 20 22  1  0  0  0  0
 22 23  1  0  0  0  0
 22 24  1  0  0  0  0
 22 25  1  0  0  0  0
M  END
$$$$

  -OEChem-02102214113D

 25 24  0     1  0  0  0  0  0999 V2000
   -2.4932   -3.7169   -0.4487 H   0  0  0  0  0  0  0  0  0  0  0  0
   -2.5296   -2.6726   -0.7721 C   0  0  0  0  0  0  0  0  0  0  0  0
   -3.3422   -2.1689   -0.2433 H   0  0  0  0  0  0  0  0  0  0  0  0
   -2.7285   -2.6451   -1.8462 H   0  0  0  0  0  0  0  0  0  0  0  0
   -1.2097   -1.9875   -0.4710 C   0  0  0  0  0  0  0  0  0  0  0  0
   -0.3264   -2.6033    0.0980 O   0  0  0  0  0  0  0  0  0  0  0  0
   -1.0256   -0.6656   -0.8309 N   0  0  0  0  0  0  0  0  0  0  0  0
   -1.7510   -0.2635   -1.4175 H   0  0  0  0  0  0  0  0  0  0  0  0
    0.2825    0.0174   -0.7978 C   0  0  1  0  0  0  0  0  0  0  0  0
    0.9715   -0.5569   -1.4293 H   0  0  0  0  0  0  0  0  0  0  0  0
    0.1119    1.4524   -1.3592 C   0  0  0  0  0  0  0  0  0  0  0  0
   -0.9290    1.6453   -1.6286 H   0  0  0  0  0  0  0  0  0  0  0  0
    0.3837    2.1860   -0.5936 H   0  0  0  0  0  0  0  0  0  0  0  0
    0.9718    1.7170   -2.5908 C   0  0  0  0  0  0  0  0  0  0  0  0
    1.0151    0.8771   -3.4746 O   0  0  0  0  0  0  0  0  0  0  0  0
    1.6264    2.8993   -2.6499 O   0  0  0  0  0  0  0  0  0  0  0  0
    2.1380    2.8835   -3.4733 H   0  0  0  0  0  0  0  0  0  0  0  0
    0.9559    0.0721    0.5919 C   0  0  0  0  0  0  0  0  0  0  0  0
    2.1769    0.0793    0.6665 O   0  0  0  0  0  0  0  0  0  0  0  0
    0.2113    0.4103    1.7073 N   0  0  0  0  0  0  0  0  0  0  0  0
   -0.7939    0.3020    1.6207 H   0  0  0  0  0  0  0  0  0  0  0  0
    0.7927    0.5179    3.0398 C   0  0  0  0  0  0  0  0  0  0  0  0
    1.5826    1.2764    3.0541 H   0  0  0  0  0  0  0  0  0  0  0  0
    0.0263    0.8070    3.7652 H   0  0  0  0  0  0  0  0  0  0  0  0
    1.2206   -0.4417    3.3486 H   0  0  0  0  0  0  0  0  0  0  0  0
  1  2  1  0  0  0  0
  2  3  1  0  0  0  0
  2  4  1  0  0  0  0
  2  5  1  0  0  0  0
  5  6  2  0  0  0  0
  5  7  1  0  0  0  0
  7  8  1  0  0  0  0
  7  9  1  0  0  0  0
  9 10  1  0  0  0  0
  9 11  1  0  0  0  0
  9 18  1  0  0  0  0
 11 12  1  0  0  0  0
 11 13  1  0  0  0  0
 11 14  1  0  0  0  0
 14 15  2  0  0  0  0
 14 16  1  0  0  0  0
 16 17  1  0  0  0  0
 18 19  2  0  0  0  0
 18 20  1  0  0  0  0
 20 21  1  0  0  0  0
 20 22  1  0  0  0  0
 22 23  1  0  0  0  0
 22 24  1  0  0  0  0
 22 25  1  0  0  0  0
M  END
$$$$

  -OEChem-02102214113D

 25 24  0     1  0  0  0  0  0999 V2000
   -2.4800   -3.7151   -0.4649 H   0  0  0  0  0  0  0  0  0  0  0  0
   -2.5208   -2.6686   -0.7801 C   0  0  0  0  0  0  0  0  0  0  0  0
   -3.3338   -2.1713   -0.2457 H   0  0  0  0  0  0  0  0  0  0  0  0
   -2.7225   -2.6338   -1.8534 H   0  0  0  0  0  0  0  0  0  0  0  0
   -1.2026   -1.9811   -0.4773 C   0  0  0  0  0  0  0  0  0  0  0  0
   -0.3150   -2.5970    0.0849 O   0  0  0  0  0  0  0  0  0  0  0  0
   -1.0239   -0.6570   -0.8311 N   0  0  0  0  0  0  0  0  0  0  0  0
   -1.7514   -0.2546   -1.4152 H   0  0  0  0  0  0  0  0  0  0  0  0
    0.2807    0.0316   -0.7943 C   0  0  1  0  0  0  0  0  0  0  0  0
    0.9712   -0.5344   -1.4324 H   0  0  0  0  0  0  0  0  0  0  0  0
    0.1016    1.4632   -1.3546 C   0  0  0  0  0  0  0  0  0  0  0  0
   -0.9381    1.6512   -1.6328 H   0  0  0  0  0  0  0  0  0  0  0  0
    0.3684    2.2033   -0.5938 H   0  0  0  0  0  0  0  0  0  0  0  0
    0.9729    1.7007   -2.5804 C   0  0  0  0  0  0  0  0  0  0  0  0
    0.8024    0.9878   -3.5555 O   0  0  0  0  0  0  0  0  0  0  0  0
    1.8747    2.7075   -2.5339 O   0  0  0  0  0  0  0  0  0  0  0  0
    2.3504    2.6858   -3.3782 H   0  0  0  0  0  0  0  0  0  0  0  0
    0.9547    0.0845    0.5949 C   0  0  0  0  0  0  0  0  0  0  0  0
    2.1757    0.0829    0.6699 O   0  0  0  0  0  0  0  0  0  0  0  0
    0.2100    0.4152    1.7124 N   0  0  0  0  0  0  0  0  0  0  0  0
   -0.7955    0.3104    1.6249 H   0  0  0  0  0  0  0  0  0  0  0  0
    0.7919    0.5133    3.0453 C   0  0  0  0  0  0  0  0  0  0  0  0
    1.5844    1.2691    3.0637 H   0  0  0  0  0  0  0  0  0  0  0  0
    0.0265    0.8007    3.7723 H   0  0  0  0  0  0  0  0  0  0  0  0
    1.2164   -0.4497    3.3483 H   0  0  0  0  0  0  0  0  0  0  0  0
  1  2  1  0  0  0  0
  2  3  1  0  0  0  0
  2  4  1  0  0  0  0
  2  5  1  0  0  0  0
  5  6  2  0  0  0  0
  5  7  1  0  0  0  0
  7  8  1  0  0  0  0
  7  9  1  0  0  0  0
  9 10  1  0  0  0  0
  9 11  1  0  0  0  0
  9 18  1  0  0  0  0
 11 12  1  0  0  0  0
 11 13  1  0  0  0  0
 11 14  1  0  0  0  0
 14 15  2  0  0  0  0
 14 16  1  0  0  0  0
 16 17  1  0  0  0  0
 18 19  2  0  0  0  0
 18 20  1  0  0  0  0
 20 21  1  0  0  0  0
 20 22  1  0  0  0  0
 22 23  1  0  0  0  0
 22 24  1  0  0  0  0
 22 25  1  0  0  0  0
M  END
$$$$

  -OEChem-02102214113D

 25 24  0     1  0  0  0  0  0999 V2000
   -2.4749   -3.7134   -0.4728 H   0  0  0  0  0  0  0  0  0  0  0  0
   -2.5176   -2.6642   -0.7791 C   0  0  0  0  0  0  0  0  0  0  0  0
   -3.3243   -2.1704   -0.2323 H   0  0  0  0  0  0  0  0  0  0  0  0
   -2.7308   -2.6200   -1.8498 H   0  0  0  0  0  0  0  0  0  0  0  0
   -1.1956   -1.9803   -0.4843 C   0  0  0  0  0  0  0  0  0  0  0  0
   -0.3036   -2.6000    0.0664 O   0  0  0  0  0  0  0  0  0  0  0  0
   -1.0175   -0.6554   -0.8349 N   0  0  0  0  0  0  0  0  0  0  0  0
   -1.7499   -0.2480   -1.4096 H   0  0  0  0  0  0  0  0  0  0  0  0
    0.2848    0.0370   -0.7943 C   0  0  1  0  0  0  0  0  0  0  0  0
    0.9781   -0.5235   -1.4342 H   0  0  0  0  0  0  0  0  0  0  0  0
    0.0984    1.4654   -1.3558 C   0  0  0  0  0  0  0  0  0  0  0  0
   -0.9415    1.6497   -1.6370 H   0  0  0  0  0  0  0  0  0  0  0  0
    0.3633    2.2104   -0.5989 H   0  0  0  0  0  0  0  0  0  0  0  0
    0.9770    1.6880   -2.5773 C   0  0  0  0  0  0  0  0  0  0  0  0
    0.6357    1.1685   -3.6266 O   0  0  0  0  0  0  0  0  0  0  0  0
    2.0777    2.4616   -2.4429 O   0  0  0  0  0  0  0  0  0  0  0  0
    2.5191    2.4625   -3.3056 H   0  0  0  0  0  0  0  0  0  0  0  0
    0.9561    0.0899    0.5964 C   0  0  0  0  0  0  0  0  0  0  0  0
    2.1767    0.0804    0.6755 O   0  0  0  0  0  0  0  0  0  0  0  0
    0.2086    0.4167    1.7131 N   0  0  0  0  0  0  0  0  0  0  0  0
   -0.7970    0.3162    1.6221 H   0  0  0  0  0  0  0  0  0  0  0  0
    0.7869    0.5127    3.0477 C   0  0  0  0  0  0  0  0  0  0  0  0
    1.5830    1.2646    3.0682 H   0  0  0  0  0  0  0  0  0  0  0  0
    0.0209    0.8048    3.7722 H   0  0  0  0  0  0  0  0  0  0  0  0
    1.2059   -0.4521    3.3526 H   0  0  0  0  0  0  0  0  0  0  0  0
  1  2  1  0  0  0  0
  2  3  1  0  0  0  0
  2  4  1  0  0  0  0
  2  5  1  0  0  0  0
  5  6  2  0  0  0  0
  5  7  1  0  0  0  0
  7  8  1  0  0  0  0
  7  9  1  0  0  0  0
  9 10  1  0  0  0  0
  9 11  1  0  0  0  0
  9 18  1  0  0  0  0
 11 12  1  0  0  0  0
 11 13  1  0  0  0  0
 11 14  1  0  0  0  0
 14 15  2  0  0  0  0
 14 16  1  0  0  0  0
 16 17  1  0  0  0  0
 18 19  2  0  0  0  0
 18 20  1  0  0  0  0
 20 21  1  0  0  0  0
 20 22  1  0  0  0  0
 22 23  1  0  0  0  0
 22 24  1  0  0  0  0
 22 25  1  0  0  0  0
M  END
$$$$

  -OEChem-02102214113D

 25 24  0     1  0  0  0  0  0999 V2000
   -2.4713   -3.7101   -0.4661 H   0  0  0  0  0  0  0  0  0  0  0  0
   -2.5151   -2.6592   -0.7665 C   0  0  0  0  0  0  0  0  0  0  0  0
   -3.3143   -2.1663   -0.2078 H   0  0  0  0  0  0  0  0  0  0  0  0
   -2.7402   -2.6096   -1.8346 H   0  0  0  0  0  0  0  0  0  0  0  0
   -1.1882   -1.9801   -0.4837 C   0  0  0  0  0  0  0  0  0  0  0  0
   -0.2923   -2.6043    0.0552 O   0  0  0  0  0  0  0  0  0  0  0  0
   -1.0078   -0.6564   -0.8381 N   0  0  0  0  0  0  0  0  0  0  0  0
   -1.7485   -0.2400   -1.3954 H   0  0  0  0  0  0  0  0  0  0  0  0
    0.2944    0.0362   -0.7979 C   0  0  1  0  0  0  0  0  0  0  0  0
    0.9903   -0.5234   -1.4357 H   0  0  0  0  0  0  0  0  0  0  0  0
    0.1040    1.4619   -1.3631 C   0  0  0  0  0  0  0  0  0  0  0  0
   -0.9374    1.6445   -1.6405 H   0  0  0  0  0  0  0  0  0  0  0  0
    0.3718    2.2098   -0.6104 H   0  0  0  0  0  0  0  0  0  0  0  0
    0.9826    1.6804   -2.5852 C   0  0  0  0  0  0  0  0  0  0  0  0
    0.5169    1.4036   -3.6777 O   0  0  0  0  0  0  0  0  0  0  0  0
    2.2233    2.1836   -2.4011 O   0  0  0  0  0  0  0  0  0  0  0  0
    2.6341    2.2329   -3.2773 H   0  0  0  0  0  0  0  0  0  0  0  0
    0.9591    0.0909    0.5959 C   0  0  0  0  0  0  0  0  0  0  0  0
    2.1783    0.0610    0.6861 O   0  0  0  0  0  0  0  0  0  0  0  0
    0.2062    0.4205    1.7082 N   0  0  0  0  0  0  0  0  0  0  0  0
   -0.8002    0.3396    1.6077 H   0  0  0  0  0  0  0  0  0  0  0  0
    0.7747    0.5054    3.0476 C   0  0  0  0  0  0  0  0  0  0  0  0
    1.5762    1.2512    3.0776 H   0  0  0  0  0  0  0  0  0  0  0  0
    0.0052    0.7990    3.7677 H   0  0  0  0  0  0  0  0  0  0  0  0
    1.1841   -0.4640    3.3508 H   0  0  0  0  0  0  0  0  0  0  0  0
  1  2  1  0  0  0  0
  2  3  1  0  0  0  0
  2  4  1  0  0  0  0
  2  5  1  0  0  0  0
  5  6  2  0  0  0  0
  5  7  1  0  0  0  0
  7  8  1  0  0  0  0
  7  9  1  0  0  0  0
  9 10  1  0  0  0  0
  9 11  1  0  0  0  0
  9 18  1  0  0  0  0
 11 12  1  0  0  0  0
 11 13  1  0  0  0  0
 11 14  1  0  0  0  0
 14 15  2  0  0  0  0
 14 16  1  0  0  0  0
 16 17  1  0  0  0  0
 18 19  2  0  0  0  0
 18 20  1  0  0  0  0
 20 21  1  0  0  0  0
 20 22  1  0  0  0  0
 22 23  1  0  0  0  0
 22 24  1  0  0  0  0
 22 25  1  0  0  0  0
M  END
$$$$

  -OEChem-02102214113D

 25 24  0     1  0  0  0  0  0999 V2000
   -2.4757   -3.7059   -0.4599 H   0  0  0  0  0  0  0  0  0  0  0  0
   -2.5172   -2.6528   -0.7525 C   0  0  0  0  0  0  0  0  0  0  0  0
   -3.3058   -2.1587   -0.1801 H   0  0  0  0  0  0  0  0  0  0  0  0
   -2.7566   -2.5943   -1.8170 H   0  0  0  0  0  0  0  0  0  0  0  0
   -1.1826   -1.9834   -0.4829 C   0  0  0  0  0  0  0  0  0  0  0  0
   -0.2850   -2.6133    0.0464 O   0  0  0  0  0  0  0  0  0  0  0  0
   -0.9960   -0.6621   -0.8420 N   0  0  0  0  0  0  0  0  0  0  0  0
   -1.7418   -0.2384   -1.3868 H   0  0  0  0  0  0  0  0  0  0  0  0
    0.3072    0.0293   -0.8027 C   0  0  1  0  0  0  0  0  0  0  0  0
    1.0063   -0.5303   -1.4371 H   0  0  0  0  0  0  0  0  0  0  0  0
    0.1113    1.4538   -1.3699 C   0  0  0  0  0  0  0  0  0  0  0  0
   -0.9331    1.6344   -1.6383 H   0  0  0  0  0  0  0  0  0  0  0  0
    0.3841    2.2023   -0.6199 H   0  0  0  0  0  0  0  0  0  0  0  0
    0.9852    1.6771   -2.5951 C   0  0  0  0  0  0  0  0  0  0  0  0
    0.4451    1.6708   -3.6883 O   0  0  0  0  0  0  0  0  0  0  0  0
    2.3073    1.8857   -2.4101 O   0  0  0  0  0  0  0  0  0  0  0  0
    2.6973    1.9956   -3.2901 H   0  0  0  0  0  0  0  0  0  0  0  0
    0.9650    0.0868    0.5952 C   0  0  0  0  0  0  0  0  0  0  0  0
    2.1829    0.0448    0.6971 O   0  0  0  0  0  0  0  0  0  0  0  0
    0.2053    0.4212    1.7017 N   0  0  0  0  0  0  0  0  0  0  0  0
   -0.8006    0.3476    1.5928 H   0  0  0  0  0  0  0  0  0  0  0  0
    0.7627    0.5016    3.0460 C   0  0  0  0  0  0  0  0  0  0  0  0
    1.5676    1.2433    3.0843 H   0  0  0  0  0  0  0  0  0  0  0  0
   -0.0115    0.7983    3.7597 H   0  0  0  0  0  0  0  0  0  0  0  0
    1.1647   -0.4701    3.3516 H   0  0  0  0  0  0  0  0  0  0  0  0
  1  2  1  0  0  0  0
  2  3  1  0  0  0  0
  2  4  1  0  0  0  0
  2  5  1  0  0  0  0
  5  6  2  0  0  0  0
  5  7  1  0  0  0  0
  7  8  1  0  0  0  0
  7  9  1  0  0  0  0
  9 10  1  0  0  0  0
  9 11  1  0  0  0  0
  9 18  1  0  0  0  0
 11 12  1  0  0  0  0
 11 13  1  0  0  0  0
 11 14  1  0  0  0  0
 14 15  2  0  0  0  0
 14 16  1  0  0  0  0
 16 17  1  0  0  0  0
 18 19  2  0  0  0  0
 18 20  1  0  0  0  0
 20 21  1  0  0  0  0
 20 22  1  0  0  0  0
 22 23  1  0  0  0  0
 22 24  1  0  0  0  0
 22 25  1  0  0  0  0
M  END
$$$$

  -OEChem-02102214113D

 25 24  0     1  0  0  0  0  0999 V2000
   -2.4865   -3.7001   -0.4230 H   0  0  0  0  0  0  0  0  0  0  0  0
   -2.5226   -2.6502   -0.7277 C   0  0  0  0  0  0  0  0  0  0  0  0
   -3.2973   -2.1424   -0.1483 H   0  0  0  0  0  0  0  0  0  0  0  0
   -2.7786   -2.6020   -1.7889 H   0  0  0  0  0  0  0  0  0  0  0  0
   -1.1774   -1.9907   -0.4875 C   0  0  0  0  0  0  0  0  0  0  0  0
   -0.2742   -2.6273    0.0236 O   0  0  0  0  0  0  0  0  0  0  0  0
   -0.9883   -0.6702   -0.8495 N   0  0  0  0  0  0  0  0  0  0  0  0
   -1.7452   -0.2334   -1.3678 H   0  0  0  0  0  0  0  0  0  0  0  0
    0.3154    0.0206   -0.8105 C   0  0  1  0  0  0  0  0  0  0  0  0
    1.0154   -0.5412   -1.4416 H   0  0  0  0  0  0  0  0  0  0  0  0
    0.1233    1.4457   -1.3805 C   0  0  0  0  0  0  0  0  0  0  0  0
   -0.9219    1.6258   -1.6460 H   0  0  0  0  0  0  0  0  0  0  0  0
    0.3987    2.1921   -0.6295 H   0  0  0  0  0  0  0  0  0  0  0  0
    0.9951    1.6785   -2.6074 C   0  0  0  0  0  0  0  0  0  0  0  0
    0.4381    1.9541   -3.6563 O   0  0  0  0  0  0  0  0  0  0  0  0
    2.3367    1.5926   -2.4704 O   0  0  0  0  0  0  0  0  0  0  0  0
    2.7182    1.7788   -3.3412 H   0  0  0  0  0  0  0  0  0  0  0  0
    0.9664    0.0778    0.5912 C   0  0  0  0  0  0  0  0  0  0  0  0
    2.1832    0.0344    0.7026 O   0  0  0  0  0  0  0  0  0  0  0  0
    0.2004    0.4139    1.6931 N   0  0  0  0  0  0  0  0  0  0  0  0
   -0.8053    0.3487    1.5771 H   0  0  0  0  0  0  0  0  0  0  0  0
    0.7487    0.4946    3.0415 C   0  0  0  0  0  0  0  0  0  0  0  0
    1.5550    1.2345    3.0847 H   0  0  0  0  0  0  0  0  0  0  0  0
   -0.0300    0.7939    3.7493 H   0  0  0  0  0  0  0  0  0  0  0  0
    1.1462   -0.4777    3.3513 H   0  0  0  0  0  0  0  0  0  0  0  0
  1  2  1  0  0  0  0
  2  3  1  0  0  0  0
  2  4  1  0  0  0  0
  2  5  1  0  0  0  0
  5  6  2  0  0  0  0
  5  7  1  0  0  0  0
  7  8  1  0  0  0  0
  7  9  1  0  0  0  0
  9 10  1  0  0  0  0
  9 11  1  0  0  0  0
  9 18  1  0  0  0  0
 11 12  1  0  0  0  0
 11 13  1  0  0  0  0
 11 14  1  0  0  0  0
 14 15  2  0  0  0  0
 14 16  1  0  0  0  0
 16 17  1  0  0  0  0
 18 19  2  0  0  0  0
 18 20  1  0  0  0  0
 20 21  1  0  0  0  0
 20 22  1  0  0  0  0
 22 23  1  0  0  0  0
 22 24  1  0  0  0  0
 22 25  1  0  0  0  0
M  END
$$$$

  -OEChem-02102214113D

 25 24  0     1  0  0  0  0  0999 V2000
   -2.5019   -3.7000   -0.4068 H   0  0  0  0  0  0  0  0  0  0  0  0
   -2.5346   -2.6501   -0.7126 C   0  0  0  0  0  0  0  0  0  0  0  0
   -3.3022   -2.1373   -0.1281 H   0  0  0  0  0  0  0  0  0  0  0  0
   -2.7986   -2.6016   -1.7718 H   0  0  0  0  0  0  0  0  0  0  0  0
   -1.1835   -1.9986   -0.4839 C   0  0  0  0  0  0  0  0  0  0  0  0
   -0.2814   -2.6390    0.0243 O   0  0  0  0  0  0  0  0  0  0  0  0
   -0.9874   -0.6809   -0.8518 N   0  0  0  0  0  0  0  0  0  0  0  0
   -1.7460   -0.2379   -1.3620 H   0  0  0  0  0  0  0  0  0  0  0  0
    0.3191    0.0051   -0.8134 C   0  0  1  0  0  0  0  0  0  0  0  0
    1.0164   -0.5661   -1.4386 H   0  0  0  0  0  0  0  0  0  0  0  0
    0.1357    1.4304   -1.3892 C   0  0  0  0  0  0  0  0  0  0  0  0
   -0.9098    1.6103   -1.6538 H   0  0  0  0  0  0  0  0  0  0  0  0
    0.4104    2.1754   -0.6366 H   0  0  0  0  0  0  0  0  0  0  0  0
    1.0035    1.6784   -2.6182 C   0  0  0  0  0  0  0  0  0  0  0  0
    0.4803    2.2257   -3.5738 O   0  0  0  0  0  0  0  0  0  0  0  0
    2.3073    1.3223   -2.5811 O   0  0  0  0  0  0  0  0  0  0  0  0
    2.6930    1.5891   -3.4289 H   0  0  0  0  0  0  0  0  0  0  0  0
    0.9670    0.0663    0.5896 C   0  0  0  0  0  0  0  0  0  0  0  0
    2.1839    0.0312    0.7046 O   0  0  0  0  0  0  0  0  0  0  0  0
    0.1986    0.4107    1.6871 N   0  0  0  0  0  0  0  0  0  0  0  0
   -0.8065    0.3375    1.5704 H   0  0  0  0  0  0  0  0  0  0  0  0
    0.7447    0.4975    3.0358 C   0  0  0  0  0  0  0  0  0  0  0  0
    1.5489    1.2398    3.0772 H   0  0  0  0  0  0  0  0  0  0  0  0
   -0.0355    0.7969    3.7419 H   0  0  0  0  0  0  0  0  0  0  0  0
    1.1448   -0.4727    3.3489 H   0  0  0  0  0  0  0  0  0  0  0  0
  1  2  1  0  0  0  0
  2  3  1  0  0  0  0
  2  4  1  0  0  0  0
  2  5  1  0  0  0  0
  5  6  2  0  0  0  0
  5  7  1  0  0  0  0
  7  8  1  0  0  0  0
  7  9  1  0  0  0  0
  9 10  1  0  0  0  0
  9 11  1  0  0  0  0
  9 18  1  0  0  0  0
 11 12  1  0  0  0  0
 11 13  1  0  0  0  0
 11 14  1  0  0  0  0
 14 15  2  0  0  0  0
 14 16  1  0  0  0  0
 16 17  1  0  0  0  0
 18 19  2  0  0  0  0
 18 20  1  0  0  0  0
 20 21  1  0  0  0  0
 20 22  1  0  0  0  0
 22 23  1  0  0  0  0
 22 24  1  0  0  0  0
 22 25  1  0  0  0  0
M  END
$$$$

  -OEChem-02102214113D

 25 24  0     1  0  0  0  0  0999 V2000
   -2.5151   -3.7067   -0.4137 H   0  0  0  0  0  0  0  0  0  0  0  0
   -2.5470   -2.6535   -0.7076 C   0  0  0  0  0  0  0  0  0  0  0  0
   -3.3109   -2.1452   -0.1145 H   0  0  0  0  0  0  0  0  0  0  0  0
   -2.8150   -2.5933   -1.7652 H   0  0  0  0  0  0  0  0  0  0  0  0
   -1.1940   -2.0069   -0.4766 C   0  0  0  0  0  0  0  0  0  0  0  0
   -0.2974   -2.6481    0.0403 O   0  0  0  0  0  0  0  0  0  0  0  0
   -0.9910   -0.6919   -0.8504 N   0  0  0  0  0  0  0  0  0  0  0  0
   -1.7463   -0.2475   -1.3642 H   0  0  0  0  0  0  0  0  0  0  0  0
    0.3192   -0.0128   -0.8124 C   0  0  1  0  0  0  0  0  0  0  0  0
    1.0109   -0.5975   -1.4300 H   0  0  0  0  0  0  0  0  0  0  0  0
    0.1465    1.4132   -1.3956 C   0  0  0  0  0  0  0  0  0  0  0  0
   -0.8989    1.5944   -1.6597 H   0  0  0  0  0  0  0  0  0  0  0  0
    0.4207    2.1560   -0.6406 H   0  0  0  0  0  0  0  0  0  0  0  0
    1.0084    1.6819   -2.6271 C   0  0  0  0  0  0  0  0  0  0  0  0
    0.5689    2.4724   -3.4445 O   0  0  0  0  0  0  0  0  0  0  0  0
    2.2161    1.0834   -2.7433 O   0  0  0  0  0  0  0  0  0  0  0  0
    2.6155    1.4222   -3.5585 H   0  0  0  0  0  0  0  0  0  0  0  0
    0.9664    0.0529    0.5906 C   0  0  0  0  0  0  0  0  0  0  0  0
    2.1838    0.0266    0.7039 O   0  0  0  0  0  0  0  0  0  0  0  0
    0.1994    0.4070    1.6862 N   0  0  0  0  0  0  0  0  0  0  0  0
   -0.8059    0.3340    1.5715 H   0  0  0  0  0  0  0  0  0  0  0  0
    0.7470    0.5070    3.0334 C   0  0  0  0  0  0  0  0  0  0  0  0
    1.5503    1.2506    3.0670 H   0  0  0  0  0  0  0  0  0  0  0  0
   -0.0326    0.8121    3.7377 H   0  0  0  0  0  0  0  0  0  0  0  0
    1.1484   -0.4599    3.3553 H   0  0  0  0  0  0  0  0  0  0  0  0
  1  2  1  0  0  0  0
  2  3  1  0  0  0  0
  2  4  1  0  0  0  0
  2  5  1  0  0  0  0
  5  6  2  0  0  0  0
  5  7  1  0  0  0  0
  7  8  1  0  0  0  0
  7  9  1  0  0  0  0
  9 10  1  0  0  0  0
  9 11  1  0  0  0  0
  9 18  1  0  0  0  0
 11 12  1  0  0  0  0
 11 13  1  0  0  0  0
 11 14  1  0  0  0  0
 14 15  2  0  0  0  0
 14 16  1  0  0  0  0
 16 17  1  0  0  0  0
 18 19  2  0  0  0  0
 18 20  1  0  0  0  0
 20 21  1  0  0  0  0
 20 22  1  0  0  0  0
 22 23  1  0  0  0  0
 22 24  1  0  0  0  0
 22 25  1  0  0  0  0
M  END
$$$$

  -OEChem-02102214113D

 25 24  0     1  0  0  0  0  0999 V2000
   -2.5224   -3.7165   -0.4243 H   0  0  0  0  0  0  0  0  0  0  0  0
   -2.5574   -2.6608   -0.7084 C   0  0  0  0  0  0  0  0  0  0  0  0
   -3.3232   -2.1605   -0.1110 H   0  0  0  0  0  0  0  0  0  0  0  0
   -2.8249   -2.5916   -1.7655 H   0  0  0  0  0  0  0  0  0  0  0  0
   -1.2062   -2.0129   -0.4698 C   0  0  0  0  0  0  0  0  0  0  0  0
   -0.3146   -2.6517    0.0587 O   0  0  0  0  0  0  0  0  0  0  0  0
   -0.9990   -0.6993   -0.8469 N   0  0  0  0  0  0  0  0  0  0  0  0
   -1.7500   -0.2564   -1.3681 H   0  0  0  0  0  0  0  0  0  0  0  0
    0.3141   -0.0254   -0.8085 C   0  0  1  0  0  0  0  0  0  0  0  0
    1.0004   -0.6236   -1.4176 H   0  0  0  0  0  0  0  0  0  0  0  0
    0.1559    1.4013   -1.3983 C   0  0  0  0  0  0  0  0  0  0  0  0
   -0.8873    1.5832   -1.6690 H   0  0  0  0  0  0  0  0  0  0  0  0
    0.4241    2.1423   -0.6389 H   0  0  0  0  0  0  0  0  0  0  0  0
    1.0152    1.6883   -2.6298 C   0  0  0  0  0  0  0  0  0  0  0  0
    0.7143    2.6754   -3.2785 O   0  0  0  0  0  0  0  0  0  0  0  0
    2.0572    0.8832   -2.9428 O   0  0  0  0  0  0  0  0  0  0  0  0
    2.4837    1.2766   -3.7190 H   0  0  0  0  0  0  0  0  0  0  0  0
    0.9638    0.0434    0.5927 C   0  0  0  0  0  0  0  0  0  0  0  0
    2.1823    0.0315    0.6982 O   0  0  0  0  0  0  0  0  0  0  0  0
    0.2003    0.4040    1.6885 N   0  0  0  0  0  0  0  0  0  0  0  0
   -0.8050    0.3229    1.5794 H   0  0  0  0  0  0  0  0  0  0  0  0
    0.7536    0.5191    3.0322 C   0  0  0  0  0  0  0  0  0  0  0  0
    1.5592    1.2608    3.0537 H   0  0  0  0  0  0  0  0  0  0  0  0
   -0.0227    0.8352    3.7353 H   0  0  0  0  0  0  0  0  0  0  0  0
    1.1537   -0.4447    3.3644 H   0  0  0  0  0  0  0  0  0  0  0  0
  1  2  1  0  0  0  0
  2  3  1  0  0  0  0
  2  4  1  0  0  0  0
  2  5  1  0  0  0  0
  5  6  2  0  0  0  0
  5  7  1  0  0  0  0
  7  8  1  0  0  0  0
  7  9  1  0  0  0  0
  9 10  1  0  0  0  0
  9 11  1  0  0  0  0
  9 18  1  0  0  0  0
 11 12  1  0  0  0  0
 11 13  1  0  0  0  0
 11 14  1  0  0  0  0
 14 15  2  0  0  0  0
 14 16  1  0  0  0  0
 16 17  1  0  0  0  0
 18 19  2  0  0  0  0
 18 20  1  0  0  0  0
 20 21  1  0  0  0  0
 20 22  1  0  0  0  0
 22 23  1  0  0  0  0
 22 24  1  0  0  0  0
 22 25  1  0  0  0  0
M  END
$$$$

  -OEChem-02102214113D

 25 24  0     1  0  0  0  0  0999 V2000
   -2.5146   -3.7198   -0.4218 H   0  0  0  0  0  0  0  0  0  0  0  0
   -2.5477   -2.6645   -0.7075 C   0  0  0  0  0  0  0  0  0  0  0  0
   -3.3240   -2.1659   -0.1225 H   0  0  0  0  0  0  0  0  0  0  0  0
   -2.7987   -2.5973   -1.7688 H   0  0  0  0  0  0  0  0  0  0  0  0
   -1.2029   -2.0119   -0.4482 C   0  0  0  0  0  0  0  0  0  0  0  0
   -0.3234   -2.6426    0.1099 O   0  0  0  0  0  0  0  0  0  0  0  0
   -0.9895   -0.7042   -0.8419 N   0  0  0  0  0  0  0  0  0  0  0  0
   -1.7221   -0.2830   -1.4055 H   0  0  0  0  0  0  0  0  0  0  0  0
    0.3277   -0.0381   -0.8116 C   0  0  1  0  0  0  0  0  0  0  0  0
    1.0320   -0.6275   -1.4091 H   0  0  0  0  0  0  0  0  0  0  0  0
    0.1667    1.3926   -1.3876 C   0  0  0  0  0  0  0  0  0  0  0  0
   -0.8838    1.6934   -1.3702 H   0  0  0  0  0  0  0  0  0  0  0  0
    0.7129    2.0972   -0.7518 H   0  0  0  0  0  0  0  0  0  0  0  0
    0.7091    1.5840   -2.8035 C   0  0  0  0  0  0  0  0  0  0  0  0
    0.5945    2.7003   -3.2779 O   0  0  0  0  0  0  0  0  0  0  0  0
    1.2283    0.5370   -3.4879 O   0  0  0  0  0  0  0  0  0  0  0  0
    1.5160    0.8907   -4.3437 H   0  0  0  0  0  0  0  0  0  0  0  0
    0.9639    0.0358    0.5955 C   0  0  0  0  0  0  0  0  0  0  0  0
    2.1820    0.0160    0.7073 O   0  0  0  0  0  0  0  0  0  0  0  0
    0.1952    0.4104    1.6828 N   0  0  0  0  0  0  0  0  0  0  0  0
   -0.8098    0.3360    1.5664 H   0  0  0  0  0  0  0  0  0  0  0  0
    0.7389    0.5280    3.0301 C   0  0  0  0  0  0  0  0  0  0  0  0
    1.5529    1.2604    3.0532 H   0  0  0  0  0  0  0  0  0  0  0  0
   -0.0393    0.8570    3.7253 H   0  0  0  0  0  0  0  0  0  0  0  0
    1.1252   -0.4382    3.3714 H   0  0  0  0  0  0  0  0  0  0  0  0
  1  2  1  0  0  0  0
  2  3  1  0  0  0  0
  2  4  1  0  0  0  0
  2  5  1  0  0  0  0
  5  6  2  0  0  0  0
  5  7  1  0  0  0  0
  7  8  1  0  0  0  0
  7  9  1  0  0  0  0
  9 10  1  0  0  0  0
  9 11  1  0  0  0  0
  9 18  1  0  0  0  0
 11 12  1  0  0  0  0
 11 13  1  0  0  0  0
 11 14  1  0  0  0  0
 14 15  2  0  0  0  0
 14 16  1  0  0  0  0
 16 17  1  0  0  0  0
 18 19  2  0  0  0  0
 18 20  1  0  0  0  0
 20 21  1  0  0  0  0
 20 22  1  0  0  0  0
 22 23  1  0  0  0  0
 22 24  1  0  0  0  0
 22 25  1  0  0  0  0
M  END
$$$$

  -OEChem-02102214113D

 25 24  0     1  0  0  0  0  0999 V2000
   -2.5384   -3.6964   -0.3611 H   0  0  0  0  0  0  0  0  0  0  0  0
   -2.5449   -2.6644   -0.7236 C   0  0  0  0  0  0  0  0  0  0  0  0
   -3.3419   -2.1180   -0.2139 H   0  0  0  0  0  0  0  0  0  0  0  0
   -2.7445   -2.6715   -1.7979 H   0  0  0  0  0  0  0  0  0  0  0  0
   -1.2054   -2.0070   -0.4484 C   0  0  0  0  0  0  0  0  0  0  0  0
   -0.3311   -2.6342    0.1219 O   0  0  0  0  0  0  0  0  0  0  0  0
   -0.9932   -0.6976   -0.8376 N   0  0  0  0  0  0  0  0  0  0  0  0
   -1.7141   -0.2886   -1.4250 H   0  0  0  0  0  0  0  0  0  0  0  0
    0.3249   -0.0336   -0.8095 C   0  0  1  0  0  0  0  0  0  0  0  0
    1.0275   -0.6151   -1.4178 H   0  0  0  0  0  0  0  0  0  0  0  0
    0.1635    1.4001   -1.3755 C   0  0  0  0  0  0  0  0  0  0  0  0
   -0.8863    1.7019   -1.3605 H   0  0  0  0  0  0  0  0  0  0  0  0
    0.7097    2.1035   -0.7383 H   0  0  0  0  0  0  0  0  0  0  0  0
    0.7055    1.5762   -2.7919 C   0  0  0  0  0  0  0  0  0  0  0  0
    0.8666    2.7196   -3.1808 O   0  0  0  0  0  0  0  0  0  0  0  0
    0.8815    0.4905   -3.5830 O   0  0  0  0  0  0  0  0  0  0  0  0
    1.2156    0.8285   -4.4285 H   0  0  0  0  0  0  0  0  0  0  0  0
    0.9672    0.0334    0.5950 C   0  0  0  0  0  0  0  0  0  0  0  0
    2.1860    0.0151    0.7005 O   0  0  0  0  0  0  0  0  0  0  0  0
    0.2021    0.4046    1.6857 N   0  0  0  0  0  0  0  0  0  0  0  0
   -0.8031    0.3242    1.5736 H   0  0  0  0  0  0  0  0  0  0  0  0
    0.7511    0.5298    3.0300 C   0  0  0  0  0  0  0  0  0  0  0  0
    1.5449    1.2839    3.0514 H   0  0  0  0  0  0  0  0  0  0  0  0
   -0.0317    0.8347    3.7310 H   0  0  0  0  0  0  0  0  0  0  0  0
    1.1652   -0.4272    3.3647 H   0  0  0  0  0  0  0  0  0  0  0  0
  1  2  1  0  0  0  0
  2  3  1  0  0  0  0
  2  4  1  0  0  0  0
  2  5  1  0  0  0  0
  5  6  2  0  0  0  0
  5  7  1  0  0  0  0
  7  8  1  0  0  0  0
  7  9  1  0  0  0  0
  9 10  1  0  0  0  0
  9 11  1  0  0  0  0
  9 18  1  0  0  0  0
 11 12  1  0  0  0  0
 11 13  1  0  0  0  0
 11 14  1  0  0  0  0
 14 15  2  0  0  0  0
 14 16  1  0  0  0  0
 16 17  1  0  0  0  0
 18 19  2  0  0  0  0
 18 20  1  0  0  0  0
 20 21  1  0  0  0  0
 20 22  1  0  0  0  0
 22 23  1  0  0  0  0
 22 24  1  0  0  0  0
 22 25  1  0  0  0  0
M  END
$$$$

  -OEChem-02102214113D

 25 24  0     1  0  0  0  0  0999 V2000
   -2.5241   -3.7035   -0.3970 H   0  0  0  0  0  0  0  0  0  0  0  0
   -2.5402   -2.6653   -0.7413 C   0  0  0  0  0  0  0  0  0  0  0  0
   -3.3450   -2.1358   -0.2260 H   0  0  0  0  0  0  0  0  0  0  0  0
   -2.7349   -2.6559   -1.8163 H   0  0  0  0  0  0  0  0  0  0  0  0
   -1.2095   -1.9977   -0.4495 C   0  0  0  0  0  0  0  0  0  0  0  0
   -0.3341   -2.6207    0.1236 O   0  0  0  0  0  0  0  0  0  0  0  0
   -1.0058   -0.6855   -0.8327 N   0  0  0  0  0  0  0  0  0  0  0  0
   -1.7235   -0.2852   -1.4299 H   0  0  0  0  0  0  0  0  0  0  0  0
    0.3095   -0.0164   -0.8061 C   0  0  1  0  0  0  0  0  0  0  0  0
    1.0097   -0.5918   -1.4241 H   0  0  0  0  0  0  0  0  0  0  0  0
    0.1428    1.4144   -1.3734 C   0  0  0  0  0  0  0  0  0  0  0  0
   -0.9081    1.7127   -1.3697 H   0  0  0  0  0  0  0  0  0  0  0  0
    0.6834    2.1252   -0.7388 H   0  0  0  0  0  0  0  0  0  0  0  0
    0.6927    1.5576   -2.7886 C   0  0  0  0  0  0  0  0  0  0  0  0
    1.1282    2.6464   -3.1183 O   0  0  0  0  0  0  0  0  0  0  0  0
    0.5786    0.5106   -3.6412 O   0  0  0  0  0  0  0  0  0  0  0  0
    0.9716    0.8064   -4.4775 H   0  0  0  0  0  0  0  0  0  0  0  0
    0.9622    0.0487    0.5935 C   0  0  0  0  0  0  0  0  0  0  0  0
    2.1817    0.0263    0.6882 O   0  0  0  0  0  0  0  0  0  0  0  0
    0.2071    0.4121    1.6938 N   0  0  0  0  0  0  0  0  0  0  0  0
   -0.7993    0.3344    1.5907 H   0  0  0  0  0  0  0  0  0  0  0  0
    0.7696    0.5245    3.0338 C   0  0  0  0  0  0  0  0  0  0  0  0
    1.5701    1.2716    3.0525 H   0  0  0  0  0  0  0  0  0  0  0  0
   -0.0036    0.8314    3.7443 H   0  0  0  0  0  0  0  0  0  0  0  0
    1.1789   -0.4379    3.3587 H   0  0  0  0  0  0  0  0  0  0  0  0
  1  2  1  0  0  0  0
  2  3  1  0  0  0  0
  2  4  1  0  0  0  0
  2  5  1  0  0  0  0
  5  6  2  0  0  0  0
  5  7  1  0  0  0  0
  7  8  1  0  0  0  0
  7  9  1  0  0  0  0
  9 10  1  0  0  0  0
  9 11  1  0  0  0  0
  9 18  1  0  0  0  0
 11 12  1  0  0  0  0
 11 13  1  0  0  0  0
 11 14  1  0  0  0  0
 14 15  2  0  0  0  0
 14 16  1  0  0  0  0
 16 17  1  0  0  0  0
 18 19  2  0  0  0  0
 18 20  1  0  0  0  0
 20 21  1  0  0  0  0
 20 22  1  0  0  0  0
 22 23  1  0  0  0  0
 22 24  1  0  0  0  0
 22 25  1  0  0  0  0
M  END
$$$$

  -OEChem-02102214113D

 25 24  0     1  0  0  0  0  0999 V2000
   -2.5112   -3.7046   -0.4165 H   0  0  0  0  0  0  0  0  0  0  0  0
   -2.5379   -2.6620   -0.7460 C   0  0  0  0  0  0  0  0  0  0  0  0
   -3.3425   -2.1463   -0.2166 H   0  0  0  0  0  0  0  0  0  0  0  0
   -2.7421   -2.6392   -1.8191 H   0  0  0  0  0  0  0  0  0  0  0  0
   -1.2094   -1.9891   -0.4552 C   0  0  0  0  0  0  0  0  0  0  0  0
   -0.3287   -2.6112    0.1108 O   0  0  0  0  0  0  0  0  0  0  0  0
   -1.0123   -0.6741   -0.8324 N   0  0  0  0  0  0  0  0  0  0  0  0
   -1.7292   -0.2783   -1.4339 H   0  0  0  0  0  0  0  0  0  0  0  0
    0.3007   -0.0007   -0.8081 C   0  0  1  0  0  0  0  0  0  0  0  0
    0.9981   -0.5684   -1.4365 H   0  0  0  0  0  0  0  0  0  0  0  0
    0.1247    1.4294   -1.3698 C   0  0  0  0  0  0  0  0  0  0  0  0
   -0.9268    1.7258   -1.3674 H   0  0  0  0  0  0  0  0  0  0  0  0
    0.6641    2.1441   -0.7385 H   0  0  0  0  0  0  0  0  0  0  0  0
    0.6758    1.5494   -2.7849 C   0  0  0  0  0  0  0  0  0  0  0  0
    1.3611    2.5177   -3.0609 O   0  0  0  0  0  0  0  0  0  0  0  0
    0.3135    0.6069   -3.6881 O   0  0  0  0  0  0  0  0  0  0  0  0
    0.7531    0.8542   -4.5171 H   0  0  0  0  0  0  0  0  0  0  0  0
    0.9604    0.0600    0.5881 C   0  0  0  0  0  0  0  0  0  0  0  0
    2.1801    0.0335    0.6777 O   0  0  0  0  0  0  0  0  0  0  0  0
    0.2094    0.4155    1.6936 N   0  0  0  0  0  0  0  0  0  0  0  0
   -0.7971    0.3348    1.5943 H   0  0  0  0  0  0  0  0  0  0  0  0
    0.7773    0.5166    3.0321 C   0  0  0  0  0  0  0  0  0  0  0  0
    1.5819    1.2594    3.0524 H   0  0  0  0  0  0  0  0  0  0  0  0
    0.0087    0.8231    3.7478 H   0  0  0  0  0  0  0  0  0  0  0  0
    1.1826   -0.4502    3.3488 H   0  0  0  0  0  0  0  0  0  0  0  0
  1  2  1  0  0  0  0
  2  3  1  0  0  0  0
  2  4  1  0  0  0  0
  2  5  1  0  0  0  0
  5  6  2  0  0  0  0
  5  7  1  0  0  0  0
  7  8  1  0  0  0  0
  7  9  1  0  0  0  0
  9 10  1  0  0  0  0
  9 11  1  0  0  0  0
  9 18  1  0  0  0  0
 11 12  1  0  0  0  0
 11 13  1  0  0  0  0
 11 14  1  0  0  0  0
 14 15  2  0  0  0  0
 14 16  1  0  0  0  0
 16 17  1  0  0  0  0
 18 19  2  0  0  0  0
 18 20  1  0  0  0  0
 20 21  1  0  0  0  0
 20 22  1  0  0  0  0
 22 23  1  0  0  0  0
 22 24  1  0  0  0  0
 22 25  1  0  0  0  0
M  END
$$$$

  -OEChem-02102214113D

 25 24  0     1  0  0  0  0  0999 V2000
   -2.5076   -3.6998   -0.4206 H   0  0  0  0  0  0  0  0  0  0  0  0
   -2.5369   -2.6561   -0.7467 C   0  0  0  0  0  0  0  0  0  0  0  0
   -3.3374   -2.1421   -0.2095 H   0  0  0  0  0  0  0  0  0  0  0  0
   -2.7489   -2.6292   -1.8184 H   0  0  0  0  0  0  0  0  0  0  0  0
   -1.2066   -1.9839   -0.4635 C   0  0  0  0  0  0  0  0  0  0  0  0
   -0.3210   -2.6077    0.0927 O   0  0  0  0  0  0  0  0  0  0  0  0
   -1.0132   -0.6669   -0.8355 N   0  0  0  0  0  0  0  0  0  0  0  0
   -1.7351   -0.2669   -1.4286 H   0  0  0  0  0  0  0  0  0  0  0  0
    0.2973    0.0106   -0.8115 C   0  0  1  0  0  0  0  0  0  0  0  0
    0.9948   -0.5501   -1.4465 H   0  0  0  0  0  0  0  0  0  0  0  0
    0.1088    1.4398   -1.3677 C   0  0  0  0  0  0  0  0  0  0  0  0
   -0.9445    1.7301   -1.3649 H   0  0  0  0  0  0  0  0  0  0  0  0
    0.6441    2.1591   -0.7383 H   0  0  0  0  0  0  0  0  0  0  0  0
    0.6579    1.5517   -2.7826 C   0  0  0  0  0  0  0  0  0  0  0  0
    1.5509    2.3486   -3.0072 O   0  0  0  0  0  0  0  0  0  0  0  0
    0.0916    0.7718   -3.7340 O   0  0  0  0  0  0  0  0  0  0  0  0
    0.5677    0.9735   -4.5552 H   0  0  0  0  0  0  0  0  0  0  0  0
    0.9598    0.0678    0.5837 C   0  0  0  0  0  0  0  0  0  0  0  0
    2.1793    0.0359    0.6719 O   0  0  0  0  0  0  0  0  0  0  0  0
    0.2109    0.4162    1.6930 N   0  0  0  0  0  0  0  0  0  0  0  0
   -0.7958    0.3352    1.5956 H   0  0  0  0  0  0  0  0  0  0  0  0
    0.7819    0.5078    3.0311 C   0  0  0  0  0  0  0  0  0  0  0  0
    1.5889    1.2478    3.0541 H   0  0  0  0  0  0  0  0  0  0  0  0
    0.0157    0.8129    3.7502 H   0  0  0  0  0  0  0  0  0  0  0  0
    1.1850   -0.4621    3.3416 H   0  0  0  0  0  0  0  0  0  0  0  0
  1  2  1  0  0  0  0
  2  3  1  0  0  0  0
  2  4  1  0  0  0  0
  2  5  1  0  0  0  0
  5  6  2  0  0  0  0
  5  7  1  0  0  0  0
  7  8  1  0  0  0  0
  7  9  1  0  0  0  0
  9 10  1  0  0  0  0
  9 11  1  0  0  0  0
  9 18  1  0  0  0  0
 11 12  1  0  0  0  0
 11 13  1  0  0  0  0
 11 14  1  0  0  0  0
 14 15  2  0  0  0  0
 14 16  1  0  0  0  0
 16 17  1  0  0  0  0
 18 19  2  0  0  0  0
 18 20  1  0  0  0  0
 20 21  1  0  0  0  0
 20 22  1  0  0  0  0
 22 23  1  0  0  0  0
 22 24  1  0  0  0  0
 22 25  1  0  0  0  0
M  END
$$$$

  -OEChem-02102214113D

 25 24  0     1  0  0  0  0  0999 V2000
   -2.5010   -3.6992   -0.4272 H   0  0  0  0  0  0  0  0  0  0  0  0
   -2.5355   -2.6526   -0.7434 C   0  0  0  0  0  0  0  0  0  0  0  0
   -3.3311   -2.1449   -0.1931 H   0  0  0  0  0  0  0  0  0  0  0  0
   -2.7590   -2.6168   -1.8124 H   0  0  0  0  0  0  0  0  0  0  0  0
   -1.2030   -1.9808   -0.4691 C   0  0  0  0  0  0  0  0  0  0  0  0
   -0.3110   -2.6082    0.0725 O   0  0  0  0  0  0  0  0  0  0  0  0
   -1.0123   -0.6626   -0.8383 N   0  0  0  0  0  0  0  0  0  0  0  0
   -1.7430   -0.2547   -1.4153 H   0  0  0  0  0  0  0  0  0  0  0  0
    0.2971    0.0173   -0.8155 C   0  0  1  0  0  0  0  0  0  0  0  0
    0.9955   -0.5375   -1.4545 H   0  0  0  0  0  0  0  0  0  0  0  0
    0.1014    1.4473   -1.3644 C   0  0  0  0  0  0  0  0  0  0  0  0
   -0.9520    1.7379   -1.3544 H   0  0  0  0  0  0  0  0  0  0  0  0
    0.6397    2.1668   -0.7381 H   0  0  0  0  0  0  0  0  0  0  0  0
    0.6460    1.5591   -2.7800 C   0  0  0  0  0  0  0  0  0  0  0  0
    1.7013    2.1370   -2.9665 O   0  0  0  0  0  0  0  0  0  0  0  0
   -0.0888    0.9998   -3.7701 O   0  0  0  0  0  0  0  0  0  0  0  0
    0.4112    1.1573   -4.5868 H   0  0  0  0  0  0  0  0  0  0  0  0
    0.9608    0.0713    0.5796 C   0  0  0  0  0  0  0  0  0  0  0  0
    2.1798    0.0330    0.6703 O   0  0  0  0  0  0  0  0  0  0  0  0
    0.2110    0.4155    1.6897 N   0  0  0  0  0  0  0  0  0  0  0  0
   -0.7959    0.3407    1.5899 H   0  0  0  0  0  0  0  0  0  0  0  0
    0.7803    0.5021    3.0287 C   0  0  0  0  0  0  0  0  0  0  0  0
    1.5882    1.2412    3.0553 H   0  0  0  0  0  0  0  0  0  0  0  0
    0.0135    0.8056    3.7477 H   0  0  0  0  0  0  0  0  0  0  0  0
    1.1818   -0.4692    3.3365 H   0  0  0  0  0  0  0  0  0  0  0  0
  1  2  1  0  0  0  0
  2  3  1  0  0  0  0
  2  4  1  0  0  0  0
  2  5  1  0  0  0  0
  5  6  2  0  0  0  0
  5  7  1  0  0  0  0
  7  8  1  0  0  0  0
  7  9  1  0  0  0  0
  9 10  1  0  0  0  0
  9 11  1  0  0  0  0
  9 18  1  0  0  0  0
 11 12  1  0  0  0  0
 11 13  1  0  0  0  0
 11 14  1  0  0  0  0
 14 15  2  0  0  0  0
 14 16  1  0  0  0  0
 16 17  1  0  0  0  0
 18 19  2  0  0  0  0
 18 20  1  0  0  0  0
 20 21  1  0  0  0  0
 20 22  1  0  0  0  0
 22 23  1  0  0  0  0
 22 24  1  0  0  0  0
 22 25  1  0  0  0  0
M  END
$$$$

  -OEChem-02102214113D

 25 24  0     1  0  0  0  0  0999 V2000
   -2.4908   -3.6980   -0.4291 H   0  0  0  0  0  0  0  0  0  0  0  0
   -2.5321   -2.6465   -0.7279 C   0  0  0  0  0  0  0  0  0  0  0  0
   -3.3135   -2.1469   -0.1506 H   0  0  0  0  0  0  0  0  0  0  0  0
   -2.7815   -2.5938   -1.7905 H   0  0  0  0  0  0  0  0  0  0  0  0
   -1.1931   -1.9797   -0.4740 C   0  0  0  0  0  0  0  0  0  0  0  0
   -0.2959   -2.6100    0.0551 O   0  0  0  0  0  0  0  0  0  0  0  0
   -1.0034   -0.6614   -0.8433 N   0  0  0  0  0  0  0  0  0  0  0  0
   -1.7435   -0.2459   -1.4025 H   0  0  0  0  0  0  0  0  0  0  0  0
    0.3042    0.0225   -0.8213 C   0  0  1  0  0  0  0  0  0  0  0  0
    1.0058   -0.5281   -1.4607 H   0  0  0  0  0  0  0  0  0  0  0  0
    0.0997    1.4525   -1.3668 C   0  0  0  0  0  0  0  0  0  0  0  0
   -0.9544    1.7410   -1.3490 H   0  0  0  0  0  0  0  0  0  0  0  0
    0.6401    2.1731   -0.7438 H   0  0  0  0  0  0  0  0  0  0  0  0
    0.6389    1.5720   -2.7834 C   0  0  0  0  0  0  0  0  0  0  0  0
    1.7986    1.9018   -2.9516 O   0  0  0  0  0  0  0  0  0  0  0  0
   -0.2117    1.2764   -3.7940 O   0  0  0  0  0  0  0  0  0  0  0  0
    0.3010    1.3932   -4.6097 H   0  0  0  0  0  0  0  0  0  0  0  0
    0.9638    0.0764    0.5758 C   0  0  0  0  0  0  0  0  0  0  0  0
    2.1820    0.0334    0.6741 O   0  0  0  0  0  0  0  0  0  0  0  0
    0.2082    0.4179    1.6829 N   0  0  0  0  0  0  0  0  0  0  0  0
   -0.7981    0.3464    1.5760 H   0  0  0  0  0  0  0  0  0  0  0  0
    0.7680    0.4893    3.0268 C   0  0  0  0  0  0  0  0  0  0  0  0
    1.5804    1.2227    3.0661 H   0  0  0  0  0  0  0  0  0  0  0  0
   -0.0023    0.7915    3.7424 H   0  0  0  0  0  0  0  0  0  0  0  0
    1.1605   -0.4874    3.3289 H   0  0  0  0  0  0  0  0  0  0  0  0
  1  2  1  0  0  0  0
  2  3  1  0  0  0  0
  2  4  1  0  0  0  0
  2  5  1  0  0  0  0
  5  6  2  0  0  0  0
  5  7  1  0  0  0  0
  7  8  1  0  0  0  0
  7  9  1  0  0  0  0
  9 10  1  0  0  0  0
  9 11  1  0  0  0  0
  9 18  1  0  0  0  0
 11 12  1  0  0  0  0
 11 13  1  0  0  0  0
 11 14  1  0  0  0  0
 14 15  2  0  0  0  0
 14 16  1  0  0  0  0
 16 17  1  0  0  0  0
 18 19  2  0  0  0  0
 18 20  1  0  0  0  0
 20 21  1  0  0  0  0
 20 22  1  0  0  0  0
 22 23  1  0  0  0  0
 22 24  1  0  0  0  0
 22 25  1  0  0  0  0
M  END
$$$$

  -OEChem-02102214113D

 25 24  0     1  0  0  0  0  0999 V2000
   -2.4967   -3.6956   -0.4148 H   0  0  0  0  0  0  0  0  0  0  0  0
   -2.5335   -2.6469   -0.7236 C   0  0  0  0  0  0  0  0  0  0  0  0
   -3.3126   -2.1386   -0.1504 H   0  0  0  0  0  0  0  0  0  0  0  0
   -2.7832   -2.6029   -1.7865 H   0  0  0  0  0  0  0  0  0  0  0  0
   -1.1909   -1.9843   -0.4780 C   0  0  0  0  0  0  0  0  0  0  0  0
   -0.2908   -2.6186    0.0412 O   0  0  0  0  0  0  0  0  0  0  0  0
   -1.0002   -0.6658   -0.8463 N   0  0  0  0  0  0  0  0  0  0  0  0
   -1.7484   -0.2403   -1.3868 H   0  0  0  0  0  0  0  0  0  0  0  0
    0.3074    0.0183   -0.8234 C   0  0  1  0  0  0  0  0  0  0  0  0
    1.0103   -0.5309   -1.4629 H   0  0  0  0  0  0  0  0  0  0  0  0
    0.1025    1.4497   -1.3660 C   0  0  0  0  0  0  0  0  0  0  0  0
   -0.9514    1.7380   -1.3406 H   0  0  0  0  0  0  0  0  0  0  0  0
    0.6458    2.1685   -0.7438 H   0  0  0  0  0  0  0  0  0  0  0  0
    0.6378    1.5839   -2.7834 C   0  0  0  0  0  0  0  0  0  0  0  0
    1.8408    1.6449   -2.9599 O   0  0  0  0  0  0  0  0  0  0  0  0
   -0.2690    1.5994   -3.7881 O   0  0  0  0  0  0  0  0  0  0  0  0
    0.2479    1.6836   -4.6050 H   0  0  0  0  0  0  0  0  0  0  0  0
    0.9647    0.0703    0.5755 C   0  0  0  0  0  0  0  0  0  0  0  0
    2.1826    0.0330    0.6774 O   0  0  0  0  0  0  0  0  0  0  0  0
    0.2070    0.4105    1.6818 N   0  0  0  0  0  0  0  0  0  0  0  0
   -0.7991    0.3389    1.5740 H   0  0  0  0  0  0  0  0  0  0  0  0
    0.7653    0.4909    3.0259 C   0  0  0  0  0  0  0  0  0  0  0  0
    1.5699    1.2330    3.0634 H   0  0  0  0  0  0  0  0  0  0  0  0
   -0.0086    0.7868    3.7404 H   0  0  0  0  0  0  0  0  0  0  0  0
    1.1679   -0.4808    3.3312 H   0  0  0  0  0  0  0  0  0  0  0  0
  1  2  1  0  0  0  0
  2  3  1  0  0  0  0
  2  4  1  0  0  0  0
  2  5  1  0  0  0  0
  5  6  2  0  0  0  0
  5  7  1  0  0  0  0
  7  8  1  0  0  0  0
  7  9  1  0  0  0  0
  9 10  1  0  0  0  0
  9 11  1  0  0  0  0
  9 18  1  0  0  0  0
 11 12  1  0  0  0  0
 11 13  1  0  0  0  0
 11 14  1  0  0  0  0
 14 15  2  0  0  0  0
 14 16  1  0  0  0  0
 16 17  1  0  0  0  0
 18 19  2  0  0  0  0
 18 20  1  0  0  0  0
 20 21  1  0  0  0  0
 20 22  1  0  0  0  0
 22 23  1  0  0  0  0
 22 24  1  0  0  0  0
 22 25  1  0  0  0  0
M  END
$$$$

  -OEChem-02102214113D

 25 24  0     1  0  0  0  0  0999 V2000
   -2.5023   -3.6950   -0.3970 H   0  0  0  0  0  0  0  0  0  0  0  0
   -2.5346   -2.6485   -0.7135 C   0  0  0  0  0  0  0  0  0  0  0  0
   -3.3077   -2.1314   -0.1402 H   0  0  0  0  0  0  0  0  0  0  0  0
   -2.7896   -2.6112   -1.7754 H   0  0  0  0  0  0  0  0  0  0  0  0
   -1.1871   -1.9918   -0.4796 C   0  0  0  0  0  0  0  0  0  0  0  0
   -0.2869   -2.6284    0.0365 O   0  0  0  0  0  0  0  0  0  0  0  0
   -0.9936   -0.6744   -0.8505 N   0  0  0  0  0  0  0  0  0  0  0  0
   -1.7462   -0.2428   -1.3797 H   0  0  0  0  0  0  0  0  0  0  0  0
    0.3147    0.0089   -0.8267 C   0  0  1  0  0  0  0  0  0  0  0  0
    1.0178   -0.5435   -1.4629 H   0  0  0  0  0  0  0  0  0  0  0  0
    0.1116    1.4429   -1.3676 C   0  0  0  0  0  0  0  0  0  0  0  0
   -0.9423    1.7305   -1.3341 H   0  0  0  0  0  0  0  0  0  0  0  0
    0.6567    2.1574   -0.7425 H   0  0  0  0  0  0  0  0  0  0  0  0
    0.6418    1.6005   -2.7862 C   0  0  0  0  0  0  0  0  0  0  0  0
    1.8212    1.3961   -3.0094 O   0  0  0  0  0  0  0  0  0  0  0  0
   -0.2524    1.9396   -3.7437 O   0  0  0  0  0  0  0  0  0  0  0  0
    0.2558    1.9953   -4.5685 H   0  0  0  0  0  0  0  0  0  0  0  0
    0.9669    0.0624    0.5745 C   0  0  0  0  0  0  0  0  0  0  0  0
    2.1845    0.0317    0.6820 O   0  0  0  0  0  0  0  0  0  0  0  0
    0.2037    0.4054    1.6762 N   0  0  0  0  0  0  0  0  0  0  0  0
   -0.8017    0.3322    1.5643 H   0  0  0  0  0  0  0  0  0  0  0  0
    0.7560    0.4931    3.0221 C   0  0  0  0  0  0  0  0  0  0  0  0
    1.5572    1.2388    3.0602 H   0  0  0  0  0  0  0  0  0  0  0  0
   -0.0221    0.7881    3.7325 H   0  0  0  0  0  0  0  0  0  0  0  0
    1.1619   -0.4757    3.3322 H   0  0  0  0  0  0  0  0  0  0  0  0
  1  2  1  0  0  0  0
  2  3  1  0  0  0  0
  2  4  1  0  0  0  0
  2  5  1  0  0  0  0
  5  6  2  0  0  0  0
  5  7  1  0  0  0  0
  7  8  1  0  0  0  0
  7  9  1  0  0  0  0
  9 10  1  0  0  0  0
  9 11  1  0  0  0  0
  9 18  1  0  0  0  0
 11 12  1  0  0  0  0
 11 13  1  0  0  0  0
 11 14  1  0  0  0  0
 14 15  2  0  0  0  0
 14 16  1  0  0  0  0
 16 17  1  0  0  0  0
 18 19  2  0  0  0  0
 18 20  1  0  0  0  0
 20 21  1  0  0  0  0
 20 22  1  0  0  0  0
 22 23  1  0  0  0  0
 22 24  1  0  0  0  0
 22 25  1  0  0  0  0
M  END
$$$$

  -OEChem-02102214113D

 25 24  0     1  0  0  0  0  0999 V2000
   -2.4956   -3.7086   -0.4312 H   0  0  0  0  0  0  0  0  0  0  0  0
   -2.5356   -2.6527   -0.7147 C   0  0  0  0  0  0  0  0  0  0  0  0
   -3.3077   -2.1575   -0.1211 H   0  0  0  0  0  0  0  0  0  0  0  0
   -2.7978   -2.5840   -1.7733 H   0  0  0  0  0  0  0  0  0  0  0  0
   -1.1904   -1.9955   -0.4683 C   0  0  0  0  0  0  0  0  0  0  0  0
   -0.2974   -2.6287    0.0639 O   0  0  0  0  0  0  0  0  0  0  0  0
   -0.9923   -0.6808   -0.8463 N   0  0  0  0  0  0  0  0  0  0  0  0
   -1.7424   -0.2513   -1.3803 H   0  0  0  0  0  0  0  0  0  0  0  0
    0.3172    0.0006   -0.8228 C   0  0  1  0  0  0  0  0  0  0  0  0
    1.0191   -0.5645   -1.4482 H   0  0  0  0  0  0  0  0  0  0  0  0
    0.1204    1.4330   -1.3774 C   0  0  0  0  0  0  0  0  0  0  0  0
   -0.9343    1.7182   -1.3457 H   0  0  0  0  0  0  0  0  0  0  0  0
    0.6610    2.1493   -0.7512 H   0  0  0  0  0  0  0  0  0  0  0  0
    0.6489    1.6106   -2.7969 C   0  0  0  0  0  0  0  0  0  0  0  0
    1.7412    1.1641   -3.0990 O   0  0  0  0  0  0  0  0  0  0  0  0
   -0.1590    2.2559   -3.6697 O   0  0  0  0  0  0  0  0  0  0  0  0
    0.3303    2.2873   -4.5069 H   0  0  0  0  0  0  0  0  0  0  0  0
    0.9670    0.0624    0.5793 C   0  0  0  0  0  0  0  0  0  0  0  0
    2.1850    0.0409    0.6874 O   0  0  0  0  0  0  0  0  0  0  0  0
    0.2028    0.4134    1.6779 N   0  0  0  0  0  0  0  0  0  0  0  0
   -0.8019    0.3268    1.5671 H   0  0  0  0  0  0  0  0  0  0  0  0
    0.7541    0.4969    3.0248 C   0  0  0  0  0  0  0  0  0  0  0  0
    1.5618    1.2356    3.0643 H   0  0  0  0  0  0  0  0  0  0  0  0
   -0.0222    0.7990    3.7341 H   0  0  0  0  0  0  0  0  0  0  0  0
    1.1511   -0.4753    3.3362 H   0  0  0  0  0  0  0  0  0  0  0  0
  1  2  1  0  0  0  0
  2  3  1  0  0  0  0
  2  4  1  0  0  0  0
  2  5  1  0  0  0  0
  5  6  2  0  0  0  0
  5  7  1  0  0  0  0
  7  8  1  0  0  0  0
  7  9  1  0  0  0  0
  9 10  1  0  0  0  0
  9 11  1  0  0  0  0
  9 18  1  0  0  0  0
 11 12  1  0  0  0  0
 11 13  1  0  0  0  0
 11 14  1  0  0  0  0
 14 15  2  0  0  0  0
 14 16  1  0  0  0  0
 16 17  1  0  0  0  0
 18 19  2  0  0  0  0
 18 20  1  0  0  0  0
 20 21  1  0  0  0  0
 20 22  1  0  0  0  0
 22 23  1  0  0  0  0
 22 24  1  0  0  0  0
 22 25  1  0  0  0  0
M  END
$$$$

  -OEChem-02102214113D

 25 24  0     1  0  0  0  0  0999 V2000
   -2.5218   -3.7003   -0.3666 H   0  0  0  0  0  0  0  0  0  0  0  0
   -2.5422   -2.6619   -0.7094 C   0  0  0  0  0  0  0  0  0  0  0  0
   -3.3233   -2.1273   -0.1638 H   0  0  0  0  0  0  0  0  0  0  0  0
   -2.7771   -2.6502   -1.7765 H   0  0  0  0  0  0  0  0  0  0  0  0
   -1.1955   -2.0066   -0.4658 C   0  0  0  0  0  0  0  0  0  0  0  0
   -0.3063   -2.6386    0.0746 O   0  0  0  0  0  0  0  0  0  0  0  0
   -0.9928   -0.6939   -0.8492 N   0  0  0  0  0  0  0  0  0  0  0  0
   -1.7375   -0.2672   -1.3926 H   0  0  0  0  0  0  0  0  0  0  0  0
    0.3204   -0.0190   -0.8268 C   0  0  1  0  0  0  0  0  0  0  0  0
    1.0203   -0.5925   -1.4460 H   0  0  0  0  0  0  0  0  0  0  0  0
    0.1354    1.4185   -1.3789 C   0  0  0  0  0  0  0  0  0  0  0  0
   -0.9175    1.7084   -1.3397 H   0  0  0  0  0  0  0  0  0  0  0  0
    0.6805    2.1257   -0.7459 H   0  0  0  0  0  0  0  0  0  0  0  0
    0.6556    1.6289   -2.7993 C   0  0  0  0  0  0  0  0  0  0  0  0
    1.5976    0.9791   -3.2168 O   0  0  0  0  0  0  0  0  0  0  0  0
    0.0077    2.5562   -3.5411 O   0  0  0  0  0  0  0  0  0  0  0  0
    0.4704    2.5816   -4.3935 H   0  0  0  0  0  0  0  0  0  0  0  0
    0.9671    0.0434    0.5767 C   0  0  0  0  0  0  0  0  0  0  0  0
    2.1852    0.0294    0.6859 O   0  0  0  0  0  0  0  0  0  0  0  0
    0.2012    0.4018    1.6717 N   0  0  0  0  0  0  0  0  0  0  0  0
   -0.8034    0.3149    1.5610 H   0  0  0  0  0  0  0  0  0  0  0  0
    0.7517    0.5120    3.0168 C   0  0  0  0  0  0  0  0  0  0  0  0
    1.5473    1.2641    3.0447 H   0  0  0  0  0  0  0  0  0  0  0  0
   -0.0291    0.8109    3.7225 H   0  0  0  0  0  0  0  0  0  0  0  0
    1.1644   -0.4493    3.3406 H   0  0  0  0  0  0  0  0  0  0  0  0
  1  2  1  0  0  0  0
  2  3  1  0  0  0  0
  2  4  1  0  0  0  0
  2  5  1  0  0  0  0
  5  6  2  0  0  0  0
  5  7  1  0  0  0  0
  7  8  1  0  0  0  0
  7  9  1  0  0  0  0
  9 10  1  0  0  0  0
  9 11  1  0  0  0  0
  9 18  1  0  0  0  0
 11 12  1  0  0  0  0
 11 13  1  0  0  0  0
 11 14  1  0  0  0  0
 14 15  2  0  0  0  0
 14 16  1  0  0  0  0
 16 17  1  0  0  0  0
 18 19  2  0  0  0  0
 18 20  1  0  0  0  0
 20 21  1  0  0  0  0
 20 22  1  0  0  0  0
 22 23  1  0  0  0  0
 22 24  1  0  0  0  0
 22 25  1  0  0  0  0
M  END
$$$$

  -OEChem-02102214113D

 25 24  0     1  0  0  0  0  0999 V2000
   -2.5346   -3.7013   -0.3729 H   0  0  0  0  0  0  0  0  0  0  0  0
   -2.5459   -2.6660   -0.7259 C   0  0  0  0  0  0  0  0  0  0  0  0
   -3.3412   -2.1262   -0.2064 H   0  0  0  0  0  0  0  0  0  0  0  0
   -2.7519   -2.6638   -1.7989 H   0  0  0  0  0  0  0  0  0  0  0  0
   -1.2062   -2.0079   -0.4540 C   0  0  0  0  0  0  0  0  0  0  0  0
   -0.3291   -2.6355    0.1108 O   0  0  0  0  0  0  0  0  0  0  0  0
   -0.9973   -0.6978   -0.8424 N   0  0  0  0  0  0  0  0  0  0  0  0
   -1.7306   -0.2810   -1.4083 H   0  0  0  0  0  0  0  0  0  0  0  0
    0.3194   -0.0298   -0.8221 C   0  0  1  0  0  0  0  0  0  0  0  0
    1.0172   -0.6107   -1.4362 H   0  0  0  0  0  0  0  0  0  0  0  0
    0.1423    1.4093   -1.3769 C   0  0  0  0  0  0  0  0  0  0  0  0
   -0.9092    1.7039   -1.3357 H   0  0  0  0  0  0  0  0  0  0  0  0
    0.6911    2.1114   -0.7416 H   0  0  0  0  0  0  0  0  0  0  0  0
    0.6571    1.6346   -2.7980 C   0  0  0  0  0  0  0  0  0  0  0  0
    1.4003    0.8297   -3.3314 O   0  0  0  0  0  0  0  0  0  0  0  0
    0.2255    2.7615   -3.4090 O   0  0  0  0  0  0  0  0  0  0  0  0
    0.6518    2.7698   -4.2803 H   0  0  0  0  0  0  0  0  0  0  0  0
    0.9685    0.0359    0.5800 C   0  0  0  0  0  0  0  0  0  0  0  0
    2.1874    0.0271    0.6838 O   0  0  0  0  0  0  0  0  0  0  0  0
    0.2060    0.4030    1.6744 N   0  0  0  0  0  0  0  0  0  0  0  0
   -0.7991    0.3153    1.5673 H   0  0  0  0  0  0  0  0  0  0  0  0
    0.7610    0.5250    3.0166 C   0  0  0  0  0  0  0  0  0  0  0  0
    1.5538    1.2803    3.0366 H   0  0  0  0  0  0  0  0  0  0  0  0
   -0.0185    0.8264    3.7227 H   0  0  0  0  0  0  0  0  0  0  0  0
    1.1786   -0.4322    3.3462 H   0  0  0  0  0  0  0  0  0  0  0  0
  1  2  1  0  0  0  0
  2  3  1  0  0  0  0
  2  4  1  0  0  0  0
  2  5  1  0  0  0  0
  5  6  2  0  0  0  0
  5  7  1  0  0  0  0
  7  8  1  0  0  0  0
  7  9  1  0  0  0  0
  9 10  1  0  0  0  0
  9 11  1  0  0  0  0
  9 18  1  0  0  0  0
 11 12  1  0  0  0  0
 11 13  1  0  0  0  0
 11 14  1  0  0  0  0
 14 15  2  0  0  0  0
 14 16  1  0  0  0  0
 16 17  1  0  0  0  0
 18 19  2  0  0  0  0
 18 20  1  0  0  0  0
 20 21  1  0  0  0  0
 20 22  1  0  0  0  0
 22 23  1  0  0  0  0
 22 24  1  0  0  0  0
 22 25  1  0  0  0  0
M  END
$$$$

  -OEChem-02102214113D

 25 24  0     1  0  0  0  0  0999 V2000
   -2.5255   -3.7078   -0.3858 H   0  0  0  0  0  0  0  0  0  0  0  0
   -2.5439   -2.6700   -0.7311 C   0  0  0  0  0  0  0  0  0  0  0  0
   -3.3450   -2.1402   -0.2102 H   0  0  0  0  0  0  0  0  0  0  0  0
   -2.7465   -2.6621   -1.8047 H   0  0  0  0  0  0  0  0  0  0  0  0
   -1.2107   -2.0030   -0.4486 C   0  0  0  0  0  0  0  0  0  0  0  0
   -0.3382   -2.6226    0.1324 O   0  0  0  0  0  0  0  0  0  0  0  0
   -1.0048   -0.6929   -0.8393 N   0  0  0  0  0  0  0  0  0  0  0  0
   -1.7272   -0.2902   -1.4289 H   0  0  0  0  0  0  0  0  0  0  0  0
    0.3131   -0.0271   -0.8202 C   0  0  1  0  0  0  0  0  0  0  0  0
    1.0109   -0.6101   -1.4324 H   0  0  0  0  0  0  0  0  0  0  0  0
    0.1433    1.4127   -1.3760 C   0  0  0  0  0  0  0  0  0  0  0  0
   -0.9058    1.7150   -1.3347 H   0  0  0  0  0  0  0  0  0  0  0  0
    0.6971    2.1106   -0.7401 H   0  0  0  0  0  0  0  0  0  0  0  0
    0.6596    1.6373   -2.7971 C   0  0  0  0  0  0  0  0  0  0  0  0
    1.1665    0.7280   -3.4310 O   0  0  0  0  0  0  0  0  0  0  0  0
    0.4976    2.8853   -3.2928 O   0  0  0  0  0  0  0  0  0  0  0  0
    0.8908    2.8726   -4.1793 H   0  0  0  0  0  0  0  0  0  0  0  0
    0.9641    0.0394    0.5809 C   0  0  0  0  0  0  0  0  0  0  0  0
    2.1834    0.0294    0.6802 O   0  0  0  0  0  0  0  0  0  0  0  0
    0.2058    0.4087    1.6773 N   0  0  0  0  0  0  0  0  0  0  0  0
   -0.7993    0.3153    1.5743 H   0  0  0  0  0  0  0  0  0  0  0  0
    0.7655    0.5243    3.0184 C   0  0  0  0  0  0  0  0  0  0  0  0
    1.5648    1.2729    3.0379 H   0  0  0  0  0  0  0  0  0  0  0  0
   -0.0096    0.8307    3.7272 H   0  0  0  0  0  0  0  0  0  0  0  0
    1.1757   -0.4373    3.3449 H   0  0  0  0  0  0  0  0  0  0  0  0
  1  2  1  0  0  0  0
  2  3  1  0  0  0  0
  2  4  1  0  0  0  0
  2  5  1  0  0  0  0
  5  6  2  0  0  0  0
  5  7  1  0  0  0  0
  7  8  1  0  0  0  0
  7  9  1  0  0  0  0
  9 10  1  0  0  0  0
  9 11  1  0  0  0  0
  9 18  1  0  0  0  0
 11 12  1  0  0  0  0
 11 13  1  0  0  0  0
 11 14  1  0  0  0  0
 14 15  2  0  0  0  0
 14 16  1  0  0  0  0
 16 17  1  0  0  0  0
 18 19  2  0  0  0  0
 18 20  1  0  0  0  0
 20 21  1  0  0  0  0
 20 22  1  0  0  0  0
 22 23  1  0  0  0  0
 22 24  1  0  0  0  0
 22 25  1  0  0  0  0
M  END
$$$$

  -OEChem-02102214113D

 25 24  0     1  0  0  0  0  0999 V2000
   -2.5188   -3.7092   -0.4136 H   0  0  0  0  0  0  0  0  0  0  0  0
   -2.5401   -2.6679   -0.7477 C   0  0  0  0  0  0  0  0  0  0  0  0
   -3.3492   -2.1482   -0.2292 H   0  0  0  0  0  0  0  0  0  0  0  0
   -2.7327   -2.6493   -1.8232 H   0  0  0  0  0  0  0  0  0  0  0  0
   -1.2138   -1.9957   -0.4457 C   0  0  0  0  0  0  0  0  0  0  0  0
   -0.3456   -2.6126    0.1447 O   0  0  0  0  0  0  0  0  0  0  0  0
   -1.0096   -0.6844   -0.8326 N   0  0  0  0  0  0  0  0  0  0  0  0
   -1.7239   -0.2908   -1.4383 H   0  0  0  0  0  0  0  0  0  0  0  0
    0.3077   -0.0185   -0.8140 C   0  0  1  0  0  0  0  0  0  0  0  0
    1.0054   -0.5971   -1.4312 H   0  0  0  0  0  0  0  0  0  0  0  0
    0.1378    1.4210   -1.3679 C   0  0  0  0  0  0  0  0  0  0  0  0
   -0.9103    1.7270   -1.3290 H   0  0  0  0  0  0  0  0  0  0  0  0
    0.6934    2.1181   -0.7324 H   0  0  0  0  0  0  0  0  0  0  0  0
    0.6572    1.6309   -2.7893 C   0  0  0  0  0  0  0  0  0  0  0  0
    0.9056    0.6749   -3.5044 O   0  0  0  0  0  0  0  0  0  0  0  0
    0.7922    2.9148   -3.1928 O   0  0  0  0  0  0  0  0  0  0  0  0
    1.1470    2.8760   -4.0945 H   0  0  0  0  0  0  0  0  0  0  0  0
    0.9636    0.0447    0.5847 C   0  0  0  0  0  0  0  0  0  0  0  0
    2.1836    0.0386    0.6774 O   0  0  0  0  0  0  0  0  0  0  0  0
    0.2091    0.4106    1.6848 N   0  0  0  0  0  0  0  0  0  0  0  0
   -0.7960    0.3125    1.5857 H   0  0  0  0  0  0  0  0  0  0  0  0
    0.7733    0.5217    3.0243 C   0  0  0  0  0  0  0  0  0  0  0  0
    1.5763    1.2663    3.0424 H   0  0  0  0  0  0  0  0  0  0  0  0
    0.0020    0.8315    3.7357 H   0  0  0  0  0  0  0  0  0  0  0  0
    1.1797   -0.4421    3.3487 H   0  0  0  0  0  0  0  0  0  0  0  0
  1  2  1  0  0  0  0
  2  3  1  0  0  0  0
  2  4  1  0  0  0  0
  2  5  1  0  0  0  0
  5  6  2  0  0  0  0
  5  7  1  0  0  0  0
  7  8  1  0  0  0  0
  7  9  1  0  0  0  0
  9 10  1  0  0  0  0
  9 11  1  0  0  0  0
  9 18  1  0  0  0  0
 11 12  1  0  0  0  0
 11 13  1  0  0  0  0
 11 14  1  0  0  0  0
 14 15  2  0  0  0  0
 14 16  1  0  0  0  0
 16 17  1  0  0  0  0
 18 19  2  0  0  0  0
 18 20  1  0  0  0  0
 20 21  1  0  0  0  0
 20 22  1  0  0  0  0
 22 23  1  0  0  0  0
 22 24  1  0  0  0  0
 22 25  1  0  0  0  0
M  END
$$$$

  -OEChem-02102214113D

 25 24  0     1  0  0  0  0  0999 V2000
   -2.5142   -3.7046   -0.4198 H   0  0  0  0  0  0  0  0  0  0  0  0
   -2.5343   -2.6671   -0.7661 C   0  0  0  0  0  0  0  0  0  0  0  0
   -3.3545   -2.1456   -0.2672 H   0  0  0  0  0  0  0  0  0  0  0  0
   -2.7091   -2.6610   -1.8447 H   0  0  0  0  0  0  0  0  0  0  0  0
   -1.2158   -1.9860   -0.4496 C   0  0  0  0  0  0  0  0  0  0  0  0
   -0.3479   -2.5994    0.1453 O   0  0  0  0  0  0  0  0  0  0  0  0
   -1.0172   -0.6712   -0.8279 N   0  0  0  0  0  0  0  0  0  0  0  0
   -1.7258   -0.2836   -1.4443 H   0  0  0  0  0  0  0  0  0  0  0  0
    0.2989   -0.0029   -0.8070 C   0  0  1  0  0  0  0  0  0  0  0  0
    0.9950   -0.5742   -1.4334 H   0  0  0  0  0  0  0  0  0  0  0  0
    0.1282    1.4364   -1.3572 C   0  0  0  0  0  0  0  0  0  0  0  0
   -0.9193    1.7449   -1.3256 H   0  0  0  0  0  0  0  0  0  0  0  0
    0.6833    2.1343   -0.7220 H   0  0  0  0  0  0  0  0  0  0  0  0
    0.6570    1.6216   -2.7770 C   0  0  0  0  0  0  0  0  0  0  0  0
    0.6404    0.6809   -3.5536 O   0  0  0  0  0  0  0  0  0  0  0  0
    1.0982    2.8560   -3.1106 O   0  0  0  0  0  0  0  0  0  0  0  0
    1.4144    2.7910   -4.0249 H   0  0  0  0  0  0  0  0  0  0  0  0
    0.9609    0.0537    0.5889 C   0  0  0  0  0  0  0  0  0  0  0  0
    2.1814    0.0456    0.6749 O   0  0  0  0  0  0  0  0  0  0  0  0
    0.2116    0.4112    1.6952 N   0  0  0  0  0  0  0  0  0  0  0  0
   -0.7940    0.3129    1.6009 H   0  0  0  0  0  0  0  0  0  0  0  0
    0.7829    0.5151    3.0321 C   0  0  0  0  0  0  0  0  0  0  0  0
    1.5827    1.2630    3.0505 H   0  0  0  0  0  0  0  0  0  0  0  0
    0.0144    0.8165    3.7502 H   0  0  0  0  0  0  0  0  0  0  0  0
    1.1956   -0.4493    3.3471 H   0  0  0  0  0  0  0  0  0  0  0  0
  1  2  1  0  0  0  0
  2  3  1  0  0  0  0
  2  4  1  0  0  0  0
  2  5  1  0  0  0  0
  5  6  2  0  0  0  0
  5  7  1  0  0  0  0
  7  8  1  0  0  0  0
  7  9  1  0  0  0  0
  9 10  1  0  0  0  0
  9 11  1  0  0  0  0
  9 18  1  0  0  0  0
 11 12  1  0  0  0  0
 11 13  1  0  0  0  0
 11 14  1  0  0  0  0
 14 15  2  0  0  0  0
 14 16  1  0  0  0  0
 16 17  1  0  0  0  0
 18 19  2  0  0  0  0
 18 20  1  0  0  0  0
 20 21  1  0  0  0  0
 20 22  1  0  0  0  0
 22 23  1  0  0  0  0
 22 24  1  0  0  0  0
 22 25  1  0  0  0  0
M  END
$$$$

  -OEChem-02102214113D

 25 24  0     1  0  0  0  0  0999 V2000
   -2.4965   -3.7069   -0.4606 H   0  0  0  0  0  0  0  0  0  0  0  0
   -2.5272   -2.6607   -0.7783 C   0  0  0  0  0  0  0  0  0  0  0  0
   -3.3452   -2.1585   -0.2566 H   0  0  0  0  0  0  0  0  0  0  0  0
   -2.7138   -2.6267   -1.8545 H   0  0  0  0  0  0  0  0  0  0  0  0
   -1.2100   -1.9790   -0.4579 C   0  0  0  0  0  0  0  0  0  0  0  0
   -0.3394   -2.5951    0.1301 O   0  0  0  0  0  0  0  0  0  0  0  0
   -1.0143   -0.6616   -0.8279 N   0  0  0  0  0  0  0  0  0  0  0  0
   -1.7204   -0.2747   -1.4478 H   0  0  0  0  0  0  0  0  0  0  0  0
    0.2995    0.0100   -0.8017 C   0  0  1  0  0  0  0  0  0  0  0  0
    0.9957   -0.5525   -1.4364 H   0  0  0  0  0  0  0  0  0  0  0  0
    0.1217    1.4478   -1.3470 C   0  0  0  0  0  0  0  0  0  0  0  0
   -0.9271    1.7531   -1.3238 H   0  0  0  0  0  0  0  0  0  0  0  0
    0.6725    2.1501   -0.7129 H   0  0  0  0  0  0  0  0  0  0  0  0
    0.6597    1.6063   -2.7639 C   0  0  0  0  0  0  0  0  0  0  0  0
    0.3929    0.7488   -3.5900 O   0  0  0  0  0  0  0  0  0  0  0  0
    1.3847    2.7139   -3.0418 O   0  0  0  0  0  0  0  0  0  0  0  0
    1.6526    2.6366   -3.9703 H   0  0  0  0  0  0  0  0  0  0  0  0
    0.9624    0.0615    0.5935 C   0  0  0  0  0  0  0  0  0  0  0  0
    2.1829    0.0506    0.6791 O   0  0  0  0  0  0  0  0  0  0  0  0
    0.2121    0.4113    1.7015 N   0  0  0  0  0  0  0  0  0  0  0  0
   -0.7934    0.3155    1.6049 H   0  0  0  0  0  0  0  0  0  0  0  0
    0.7813    0.5115    3.0396 C   0  0  0  0  0  0  0  0  0  0  0  0
    1.5868    1.2532    3.0600 H   0  0  0  0  0  0  0  0  0  0  0  0
    0.0133    0.8195    3.7555 H   0  0  0  0  0  0  0  0  0  0  0  0
    1.1855   -0.4559    3.3562 H   0  0  0  0  0  0  0  0  0  0  0  0
  1  2  1  0  0  0  0
  2  3  1  0  0  0  0
  2  4  1  0  0  0  0
  2  5  1  0  0  0  0
  5  6  2  0  0  0  0
  5  7  1  0  0  0  0
  7  8  1  0  0  0  0
  7  9  1  0  0  0  0
  9 10  1  0  0  0  0
  9 11  1  0  0  0  0
  9 18  1  0  0  0  0
 11 12  1  0  0  0  0
 11 13  1  0  0  0  0
 11 14  1  0  0  0  0
 14 15  2  0  0  0  0
 14 16  1  0  0  0  0
 16 17  1  0  0  0  0
 18 19  2  0  0  0  0
 18 20  1  0  0  0  0
 20 21  1  0  0  0  0
 20 22  1  0  0  0  0
 22 23  1  0  0  0  0
 22 24  1  0  0  0  0
 22 25  1  0  0  0  0
M  END
$$$$

  -OEChem-02102214113D

 25 24  0     1  0  0  0  0  0999 V2000
   -2.4906   -3.7003   -0.4632 H   0  0  0  0  0  0  0  0  0  0  0  0
   -2.5206   -2.6563   -0.7881 C   0  0  0  0  0  0  0  0  0  0  0  0
   -3.3421   -2.1513   -0.2744 H   0  0  0  0  0  0  0  0  0  0  0  0
   -2.7008   -2.6297   -1.8655 H   0  0  0  0  0  0  0  0  0  0  0  0
   -1.2059   -1.9719   -0.4645 C   0  0  0  0  0  0  0  0  0  0  0  0
   -0.3331   -2.5873    0.1208 O   0  0  0  0  0  0  0  0  0  0  0  0
   -1.0139   -0.6524   -0.8283 N   0  0  0  0  0  0  0  0  0  0  0  0
   -1.7208   -0.2637   -1.4467 H   0  0  0  0  0  0  0  0  0  0  0  0
    0.2974    0.0230   -0.7978 C   0  0  1  0  0  0  0  0  0  0  0  0
    0.9940   -0.5345   -1.4365 H   0  0  0  0  0  0  0  0  0  0  0  0
    0.1138    1.4583   -1.3425 C   0  0  0  0  0  0  0  0  0  0  0  0
   -0.9365    1.7592   -1.3297 H   0  0  0  0  0  0  0  0  0  0  0  0
    0.6577    2.1674   -0.7101 H   0  0  0  0  0  0  0  0  0  0  0  0
    0.6617    1.5918   -2.7559 C   0  0  0  0  0  0  0  0  0  0  0  0
    0.1788    0.8849   -3.6252 O   0  0  0  0  0  0  0  0  0  0  0  0
    1.6395    2.4988   -2.9811 O   0  0  0  0  0  0  0  0  0  0  0  0
    1.8689    2.4260   -3.9200 H   0  0  0  0  0  0  0  0  0  0  0  0
    0.9609    0.0718    0.5970 C   0  0  0  0  0  0  0  0  0  0  0  0
    2.1813    0.0585    0.6811 O   0  0  0  0  0  0  0  0  0  0  0  0
    0.2112    0.4146    1.7073 N   0  0  0  0  0  0  0  0  0  0  0  0
   -0.7942    0.3154    1.6119 H   0  0  0  0  0  0  0  0  0  0  0  0
    0.7831    0.5059    3.0448 C   0  0  0  0  0  0  0  0  0  0  0  0
    1.5865    1.2497    3.0689 H   0  0  0  0  0  0  0  0  0  0  0  0
    0.0161    0.8057    3.7651 H   0  0  0  0  0  0  0  0  0  0  0  0
    1.1909   -0.4629    3.3525 H   0  0  0  0  0  0  0  0  0  0  0  0
  1  2  1  0  0  0  0
  2  3  1  0  0  0  0
  2  4  1  0  0  0  0
  2  5  1  0  0  0  0
  5  6  2  0  0  0  0
  5  7  1  0  0  0  0
  7  8  1  0  0  0  0
  7  9  1  0  0  0  0
  9 10  1  0  0  0  0
  9 11  1  0  0  0  0
  9 18  1  0  0  0  0
 11 12  1  0  0  0  0
 11 13  1  0  0  0  0
 11 14  1  0  0  0  0
 14 15  2  0  0  0  0
 14 16  1  0  0  0  0
 16 17  1  0  0  0  0
 18 19  2  0  0  0  0
 18 20  1  0  0  0  0
 20 21  1  0  0  0  0
 20 22  1  0  0  0  0
 22 23  1  0  0  0  0
 22 24  1  0  0  0  0
 22 25  1  0  0  0  0
M  END
$$$$

  -OEChem-02102214113D

 25 24  0     1  0  0  0  0  0999 V2000
   -2.4728   -3.7017   -0.4791 H   0  0  0  0  0  0  0  0  0  0  0  0
   -2.5137   -2.6496   -0.7756 C   0  0  0  0  0  0  0  0  0  0  0  0
   -3.3215   -2.1599   -0.2265 H   0  0  0  0  0  0  0  0  0  0  0  0
   -2.7238   -2.5953   -1.8465 H   0  0  0  0  0  0  0  0  0  0  0  0
   -1.1922   -1.9697   -0.4706 C   0  0  0  0  0  0  0  0  0  0  0  0
   -0.3114   -2.5891    0.0982 O   0  0  0  0  0  0  0  0  0  0  0  0
   -1.0021   -0.6500   -0.8348 N   0  0  0  0  0  0  0  0  0  0  0  0
   -1.7162   -0.2560   -1.4419 H   0  0  0  0  0  0  0  0  0  0  0  0
    0.3063    0.0310   -0.8015 C   0  0  1  0  0  0  0  0  0  0  0  0
    1.0081   -0.5216   -1.4388 H   0  0  0  0  0  0  0  0  0  0  0  0
    0.1125    1.4631   -1.3470 C   0  0  0  0  0  0  0  0  0  0  0  0
   -0.9399    1.7578   -1.3369 H   0  0  0  0  0  0  0  0  0  0  0  0
    0.6524    2.1796   -0.7195 H   0  0  0  0  0  0  0  0  0  0  0  0
    0.6652    1.5821   -2.7583 C   0  0  0  0  0  0  0  0  0  0  0  0
    0.0168    1.0835   -3.6634 O   0  0  0  0  0  0  0  0  0  0  0  0
    1.8366    2.2327   -2.9402 O   0  0  0  0  0  0  0  0  0  0  0  0
    2.0329    2.1857   -3.8882 H   0  0  0  0  0  0  0  0  0  0  0  0
    0.9630    0.0824    0.5966 C   0  0  0  0  0  0  0  0  0  0  0  0
    2.1824    0.0573    0.6902 O   0  0  0  0  0  0  0  0  0  0  0  0
    0.2066    0.4227    1.7034 N   0  0  0  0  0  0  0  0  0  0  0  0
   -0.7987    0.3319    1.5989 H   0  0  0  0  0  0  0  0  0  0  0  0
    0.7675    0.4955    3.0467 C   0  0  0  0  0  0  0  0  0  0  0  0
    1.5809    1.2279    3.0844 H   0  0  0  0  0  0  0  0  0  0  0  0
   -0.0018    0.8004    3.7624 H   0  0  0  0  0  0  0  0  0  0  0  0
    1.1591   -0.4811    3.3503 H   0  0  0  0  0  0  0  0  0  0  0  0
  1  2  1  0  0  0  0
  2  3  1  0  0  0  0
  2  4  1  0  0  0  0
  2  5  1  0  0  0  0
  5  6  2  0  0  0  0
  5  7  1  0  0  0  0
  7  8  1  0  0  0  0
  7  9  1  0  0  0  0
  9 10  1  0  0  0  0
  9 11  1  0  0  0  0
  9 18  1  0  0  0  0
 11 12  1  0  0  0  0
 11 13  1  0  0  0  0
 11 14  1  0  0  0  0
 14 15  2  0  0  0  0
 14 16  1  0  0  0  0
 16 17  1  0  0  0  0
 18 19  2  0  0  0  0
 18 20  1  0  0  0  0
 20 21  1  0  0  0  0
 20 22  1  0  0  0  0
 22 23  1  0  0  0  0
 22 24  1  0  0  0  0
 22 25  1  0  0  0  0
M  END
$$$$

  -OEChem-02102214113D

 25 24  0     1  0  0  0  0  0999 V2000
   -2.4723   -3.6989   -0.4730 H   0  0  0  0  0  0  0  0  0  0  0  0
   -2.5133   -2.6448   -0.7620 C   0  0  0  0  0  0  0  0  0  0  0  0
   -3.3087   -2.1550   -0.1954 H   0  0  0  0  0  0  0  0  0  0  0  0
   -2.7422   -2.5823   -1.8287 H   0  0  0  0  0  0  0  0  0  0  0  0
   -1.1831   -1.9737   -0.4759 C   0  0  0  0  0  0  0  0  0  0  0  0
   -0.2946   -2.6008    0.0720 O   0  0  0  0  0  0  0  0  0  0  0  0
   -0.9905   -0.6548   -0.8412 N   0  0  0  0  0  0  0  0  0  0  0  0
   -1.7191   -0.2450   -1.4199 H   0  0  0  0  0  0  0  0  0  0  0  0
    0.3168    0.0281   -0.8062 C   0  0  1  0  0  0  0  0  0  0  0  0
    1.0227   -0.5229   -1.4405 H   0  0  0  0  0  0  0  0  0  0  0  0
    0.1177    1.4578   -1.3534 C   0  0  0  0  0  0  0  0  0  0  0  0
   -0.9355    1.7505   -1.3398 H   0  0  0  0  0  0  0  0  0  0  0  0
    0.6588    2.1767   -0.7300 H   0  0  0  0  0  0  0  0  0  0  0  0
    0.6712    1.5744   -2.7642 C   0  0  0  0  0  0  0  0  0  0  0  0
   -0.0843    1.3300   -3.6899 O   0  0  0  0  0  0  0  0  0  0  0  0
    1.9632    1.9394   -2.9222 O   0  0  0  0  0  0  0  0  0  0  0  0
    2.1341    1.9450   -3.8762 H   0  0  0  0  0  0  0  0  0  0  0  0
    0.9665    0.0807    0.5956 C   0  0  0  0  0  0  0  0  0  0  0  0
    2.1847    0.0473    0.6992 O   0  0  0  0  0  0  0  0  0  0  0  0
    0.2038    0.4212    1.6981 N   0  0  0  0  0  0  0  0  0  0  0  0
   -0.8015    0.3440    1.5854 H   0  0  0  0  0  0  0  0  0  0  0  0
    0.7546    0.4938    3.0455 C   0  0  0  0  0  0  0  0  0  0  0  0
    1.5684    1.2253    3.0886 H   0  0  0  0  0  0  0  0  0  0  0  0
   -0.0199    0.7997    3.7552 H   0  0  0  0  0  0  0  0  0  0  0  0
    1.1427   -0.4832    3.3524 H   0  0  0  0  0  0  0  0  0  0  0  0
  1  2  1  0  0  0  0
  2  3  1  0  0  0  0
  2  4  1  0  0  0  0
  2  5  1  0  0  0  0
  5  6  2  0  0  0  0
  5  7  1  0  0  0  0
  7  8  1  0  0  0  0
  7  9  1  0  0  0  0
  9 10  1  0  0  0  0
  9 11  1  0  0  0  0
  9 18  1  0  0  0  0
 11 12  1  0  0  0  0
 11 13  1  0  0  0  0
 11 14  1  0  0  0  0
 14 15  2  0  0  0  0
 14 16  1  0  0  0  0
 16 17  1  0  0  0  0
 18 19  2  0  0  0  0
 18 20  1  0  0  0  0
 20 21  1  0  0  0  0
 20 22  1  0  0  0  0
 22 23  1  0  0  0  0
 22 24  1  0  0  0  0
 22 25  1  0  0  0  0
M  END
$$$$

  -OEChem-02102214113D

 25 24  0     1  0  0  0  0  0999 V2000
   -2.4900   -3.6919   -0.4369 H   0  0  0  0  0  0  0  0  0  0  0  0
   -2.5202   -2.6440   -0.7489 C   0  0  0  0  0  0  0  0  0  0  0  0
   -3.3062   -2.1326   -0.1883 H   0  0  0  0  0  0  0  0  0  0  0  0
   -2.7551   -2.6021   -1.8153 H   0  0  0  0  0  0  0  0  0  0  0  0
   -1.1804   -1.9826   -0.4858 C   0  0  0  0  0  0  0  0  0  0  0  0
   -0.2869   -2.6163    0.0460 O   0  0  0  0  0  0  0  0  0  0  0  0
   -0.9853   -0.6638   -0.8496 N   0  0  0  0  0  0  0  0  0  0  0  0
   -1.7247   -0.2402   -1.4040 H   0  0  0  0  0  0  0  0  0  0  0  0
    0.3213    0.0203   -0.8107 C   0  0  1  0  0  0  0  0  0  0  0  0
    1.0300   -0.5301   -1.4424 H   0  0  0  0  0  0  0  0  0  0  0  0
    0.1231    1.4497   -1.3586 C   0  0  0  0  0  0  0  0  0  0  0  0
   -0.9306    1.7415   -1.3438 H   0  0  0  0  0  0  0  0  0  0  0  0
    0.6640    2.1680   -0.7345 H   0  0  0  0  0  0  0  0  0  0  0  0
    0.6803    1.5707   -2.7681 C   0  0  0  0  0  0  0  0  0  0  0  0
   -0.1149    1.6058   -3.6918 O   0  0  0  0  0  0  0  0  0  0  0  0
    2.0213    1.6354   -2.9261 O   0  0  0  0  0  0  0  0  0  0  0  0
    2.1849    1.7065   -3.8785 H   0  0  0  0  0  0  0  0  0  0  0  0
    0.9668    0.0732    0.5931 C   0  0  0  0  0  0  0  0  0  0  0  0
    2.1847    0.0456    0.7011 O   0  0  0  0  0  0  0  0  0  0  0  0
    0.2004    0.4127    1.6934 N   0  0  0  0  0  0  0  0  0  0  0  0
   -0.8046    0.3321    1.5799 H   0  0  0  0  0  0  0  0  0  0  0  0
    0.7501    0.4979    3.0407 C   0  0  0  0  0  0  0  0  0  0  0  0
    1.5554    1.2391    3.0804 H   0  0  0  0  0  0  0  0  0  0  0  0
   -0.0279    0.7977    3.7491 H   0  0  0  0  0  0  0  0  0  0  0  0
    1.1498   -0.4729    3.3521 H   0  0  0  0  0  0  0  0  0  0  0  0
  1  2  1  0  0  0  0
  2  3  1  0  0  0  0
  2  4  1  0  0  0  0
  2  5  1  0  0  0  0
  5  6  2  0  0  0  0
  5  7  1  0  0  0  0
  7  8  1  0  0  0  0
  7  9  1  0  0  0  0
  9 10  1  0  0  0  0
  9 11  1  0  0  0  0
  9 18  1  0  0  0  0
 11 12  1  0  0  0  0
 11 13  1  0  0  0  0
 11 14  1  0  0  0  0
 14 15  2  0  0  0  0
 14 16  1  0  0  0  0
 16 17  1  0  0  0  0
 18 19  2  0  0  0  0
 18 20  1  0  0  0  0
 20 21  1  0  0  0  0
 20 22  1  0  0  0  0
 22 23  1  0  0  0  0
 22 24  1  0  0  0  0
 22 25  1  0  0  0  0
M  END
$$$$

  -OEChem-02102214113D

 25 24  0     1  0  0  0  0  0999 V2000
   -2.4954   -3.6960   -0.4281 H   0  0  0  0  0  0  0  0  0  0  0  0
   -2.5264   -2.6452   -0.7305 C   0  0  0  0  0  0  0  0  0  0  0  0
   -3.3020   -2.1356   -0.1537 H   0  0  0  0  0  0  0  0  0  0  0  0
   -2.7772   -2.5941   -1.7927 H   0  0  0  0  0  0  0  0  0  0  0  0
   -1.1803   -1.9909   -0.4821 C   0  0  0  0  0  0  0  0  0  0  0  0
   -0.2855   -2.6292    0.0415 O   0  0  0  0  0  0  0  0  0  0  0  0
   -0.9800   -0.6745   -0.8524 N   0  0  0  0  0  0  0  0  0  0  0  0
   -1.7272   -0.2405   -1.3877 H   0  0  0  0  0  0  0  0  0  0  0  0
    0.3286    0.0066   -0.8155 C   0  0  1  0  0  0  0  0  0  0  0  0
    1.0369   -0.5501   -1.4419 H   0  0  0  0  0  0  0  0  0  0  0  0
    0.1343    1.4359   -1.3685 C   0  0  0  0  0  0  0  0  0  0  0  0
   -0.9188    1.7298   -1.3474 H   0  0  0  0  0  0  0  0  0  0  0  0
    0.6797    2.1513   -0.7453 H   0  0  0  0  0  0  0  0  0  0  0  0
    0.6878    1.5681   -2.7801 C   0  0  0  0  0  0  0  0  0  0  0  0
   -0.0881    1.8869   -3.6648 O   0  0  0  0  0  0  0  0  0  0  0  0
    2.0068    1.3482   -2.9813 O   0  0  0  0  0  0  0  0  0  0  0  0
    2.1716    1.4978   -3.9245 H   0  0  0  0  0  0  0  0  0  0  0  0
    0.9688    0.0630    0.5908 C   0  0  0  0  0  0  0  0  0  0  0  0
    2.1860    0.0323    0.7061 O   0  0  0  0  0  0  0  0  0  0  0  0
    0.1977    0.4093    1.6858 N   0  0  0  0  0  0  0  0  0  0  0  0
   -0.8072    0.3384    1.5661 H   0  0  0  0  0  0  0  0  0  0  0  0
    0.7393    0.4996    3.0361 C   0  0  0  0  0  0  0  0  0  0  0  0
    1.5454    1.2397    3.0776 H   0  0  0  0  0  0  0  0  0  0  0  0
   -0.0425    0.8039    3.7383 H   0  0  0  0  0  0  0  0  0  0  0  0
    1.1351   -0.4705    3.3548 H   0  0  0  0  0  0  0  0  0  0  0  0
  1  2  1  0  0  0  0
  2  3  1  0  0  0  0
  2  4  1  0  0  0  0
  2  5  1  0  0  0  0
  5  6  2  0  0  0  0
  5  7  1  0  0  0  0
  7  8  1  0  0  0  0
  7  9  1  0  0  0  0
  9 10  1  0  0  0  0
  9 11  1  0  0  0  0
  9 18  1  0  0  0  0
 11 12  1  0  0  0  0
 11 13  1  0  0  0  0
 11 14  1  0  0  0  0
 14 15  2  0  0  0  0
 14 16  1  0  0  0  0
 16 17  1  0  0  0  0
 18 19  2  0  0  0  0
 18 20  1  0  0  0  0
 20 21  1  0  0  0  0
 20 22  1  0  0  0  0
 22 23  1  0  0  0  0
 22 24  1  0  0  0  0
 22 25  1  0  0  0  0
M  END
$$$$

  -OEChem-02102214113D

 25 24  0     1  0  0  0  0  0999 V2000
   -2.5107   -3.6996   -0.4120 H   0  0  0  0  0  0  0  0  0  0  0  0
   -2.5382   -2.6495   -0.7168 C   0  0  0  0  0  0  0  0  0  0  0  0
   -3.3090   -2.1353   -0.1380 H   0  0  0  0  0  0  0  0  0  0  0  0
   -2.7928   -2.5993   -1.7782 H   0  0  0  0  0  0  0  0  0  0  0  0
   -1.1882   -2.0011   -0.4747 C   0  0  0  0  0  0  0  0  0  0  0  0
   -0.2970   -2.6397    0.0546 O   0  0  0  0  0  0  0  0  0  0  0  0
   -0.9819   -0.6876   -0.8523 N   0  0  0  0  0  0  0  0  0  0  0  0
   -1.7290   -0.2513   -1.3855 H   0  0  0  0  0  0  0  0  0  0  0  0
    0.3300   -0.0119   -0.8177 C   0  0  1  0  0  0  0  0  0  0  0  0
    1.0346   -0.5801   -1.4365 H   0  0  0  0  0  0  0  0  0  0  0  0
    0.1445    1.4181   -1.3774 C   0  0  0  0  0  0  0  0  0  0  0  0
   -0.9073    1.7161   -1.3506 H   0  0  0  0  0  0  0  0  0  0  0  0
    0.6956    2.1287   -0.7534 H   0  0  0  0  0  0  0  0  0  0  0  0
    0.6932    1.5692   -2.7913 C   0  0  0  0  0  0  0  0  0  0  0  0
   -0.0019    2.1587   -3.6010 O   0  0  0  0  0  0  0  0  0  0  0  0
    1.9274    1.0912   -3.0721 O   0  0  0  0  0  0  0  0  0  0  0  0
    2.1078    1.3185   -3.9967 H   0  0  0  0  0  0  0  0  0  0  0  0
    0.9684    0.0493    0.5894 C   0  0  0  0  0  0  0  0  0  0  0  0
    2.1856    0.0222    0.7065 O   0  0  0  0  0  0  0  0  0  0  0  0
    0.1964    0.4051    1.6808 N   0  0  0  0  0  0  0  0  0  0  0  0
   -0.8083    0.3311    1.5613 H   0  0  0  0  0  0  0  0  0  0  0  0
    0.7372    0.5081    3.0304 C   0  0  0  0  0  0  0  0  0  0  0  0
    1.5393    1.2530    3.0664 H   0  0  0  0  0  0  0  0  0  0  0  0
   -0.0466    0.8132    3.7301 H   0  0  0  0  0  0  0  0  0  0  0  0
    1.1385   -0.4575    3.3559 H   0  0  0  0  0  0  0  0  0  0  0  0
  1  2  1  0  0  0  0
  2  3  1  0  0  0  0
  2  4  1  0  0  0  0
  2  5  1  0  0  0  0
  5  6  2  0  0  0  0
  5  7  1  0  0  0  0
  7  8  1  0  0  0  0
  7  9  1  0  0  0  0
  9 10  1  0  0  0  0
  9 11  1  0  0  0  0
  9 18  1  0  0  0  0
 11 12  1  0  0  0  0
 11 13  1  0  0  0  0
 11 14  1  0  0  0  0
 14 15  2  0  0  0  0
 14 16  1  0  0  0  0
 16 17  1  0  0  0  0
 18 19  2  0  0  0  0
 18 20  1  0  0  0  0
 20 21  1  0  0  0  0
 20 22  1  0  0  0  0
 22 23  1  0  0  0  0
 22 24  1  0  0  0  0
 22 25  1  0  0  0  0
M  END
$$$$

  -OEChem-02102214113D

 25 24  0     1  0  0  0  0  0999 V2000
   -2.5168   -3.7087   -0.4015 H   0  0  0  0  0  0  0  0  0  0  0  0
   -2.5473   -2.6556   -0.6960 C   0  0  0  0  0  0  0  0  0  0  0  0
   -3.3096   -2.1463   -0.1017 H   0  0  0  0  0  0  0  0  0  0  0  0
   -2.8169   -2.5955   -1.7531 H   0  0  0  0  0  0  0  0  0  0  0  0
   -1.1928   -2.0111   -0.4670 C   0  0  0  0  0  0  0  0  0  0  0  0
   -0.3017   -2.6502    0.0618 O   0  0  0  0  0  0  0  0  0  0  0  0
   -0.9823   -0.7006   -0.8534 N   0  0  0  0  0  0  0  0  0  0  0  0
   -1.7320   -0.2612   -1.3799 H   0  0  0  0  0  0  0  0  0  0  0  0
    0.3313   -0.0272   -0.8199 C   0  0  1  0  0  0  0  0  0  0  0  0
    1.0355   -0.6072   -1.4271 H   0  0  0  0  0  0  0  0  0  0  0  0
    0.1556    1.4023   -1.3904 C   0  0  0  0  0  0  0  0  0  0  0  0
   -0.8963    1.6997   -1.3665 H   0  0  0  0  0  0  0  0  0  0  0  0
    0.7035    2.1105   -0.7609 H   0  0  0  0  0  0  0  0  0  0  0  0
    0.7017    1.5782   -2.8054 C   0  0  0  0  0  0  0  0  0  0  0  0
    0.1451    2.4037   -3.5086 O   0  0  0  0  0  0  0  0  0  0  0  0
    1.7824    0.8675   -3.2046 O   0  0  0  0  0  0  0  0  0  0  0  0
    1.9889    1.1649   -4.1038 H   0  0  0  0  0  0  0  0  0  0  0  0
    0.9653    0.0426    0.5888 C   0  0  0  0  0  0  0  0  0  0  0  0
    2.1825    0.0205    0.7079 O   0  0  0  0  0  0  0  0  0  0  0  0
    0.1916    0.4074    1.6762 N   0  0  0  0  0  0  0  0  0  0  0  0
   -0.8129    0.3325    1.5555 H   0  0  0  0  0  0  0  0  0  0  0  0
    0.7299    0.5115    3.0269 C   0  0  0  0  0  0  0  0  0  0  0  0
    1.5409    1.2467    3.0615 H   0  0  0  0  0  0  0  0  0  0  0  0
   -0.0517    0.8295    3.7232 H   0  0  0  0  0  0  0  0  0  0  0  0
    1.1187   -0.4571    3.3586 H   0  0  0  0  0  0  0  0  0  0  0  0
  1  2  1  0  0  0  0
  2  3  1  0  0  0  0
  2  4  1  0  0  0  0
  2  5  1  0  0  0  0
  5  6  2  0  0  0  0
  5  7  1  0  0  0  0
  7  8  1  0  0  0  0
  7  9  1  0  0  0  0
  9 10  1  0  0  0  0
  9 11  1  0  0  0  0
  9 18  1  0  0  0  0
 11 12  1  0  0  0  0
 11 13  1  0  0  0  0
 11 14  1  0  0  0  0
 14 15  2  0  0  0  0
 14 16  1  0  0  0  0
 16 17  1  0  0  0  0
 18 19  2  0  0  0  0
 18 20  1  0  0  0  0
 20 21  1  0  0  0  0
 20 22  1  0  0  0  0
 22 23  1  0  0  0  0
 22 24  1  0  0  0  0
 22 25  1  0  0  0  0
M  END
$$$$

  -OEChem-02102214113D

 25 24  0     1  0  0  0  0  0999 V2000
   -2.5493   -3.6894   -0.3321 H   0  0  0  0  0  0  0  0  0  0  0  0
   -2.5527   -2.6582   -0.6974 C   0  0  0  0  0  0  0  0  0  0  0  0
   -3.3317   -2.1018   -0.1708 H   0  0  0  0  0  0  0  0  0  0  0  0
   -2.7773   -2.6653   -1.7667 H   0  0  0  0  0  0  0  0  0  0  0  0
   -1.1998   -2.0152   -0.4556 C   0  0  0  0  0  0  0  0  0  0  0  0
   -0.3162   -2.6529    0.0875 O   0  0  0  0  0  0  0  0  0  0  0  0
   -0.9837   -0.7073   -0.8474 N   0  0  0  0  0  0  0  0  0  0  0  0
   -1.7256   -0.2731   -1.3886 H   0  0  0  0  0  0  0  0  0  0  0  0
    0.3333   -0.0408   -0.8176 C   0  0  1  0  0  0  0  0  0  0  0  0
    1.0354   -0.6280   -1.4199 H   0  0  0  0  0  0  0  0  0  0  0  0
    0.1643    1.3910   -1.3886 C   0  0  0  0  0  0  0  0  0  0  0  0
   -0.8866    1.6905   -1.3599 H   0  0  0  0  0  0  0  0  0  0  0  0
    0.7147    2.0943   -0.7558 H   0  0  0  0  0  0  0  0  0  0  0  0
    0.7005    1.5895   -2.8058 C   0  0  0  0  0  0  0  0  0  0  0  0
    0.3367    2.5993   -3.3831 O   0  0  0  0  0  0  0  0  0  0  0  0
    1.5388    0.6806   -3.3572 O   0  0  0  0  0  0  0  0  0  0  0  0
    1.7799    1.0270   -4.2301 H   0  0  0  0  0  0  0  0  0  0  0  0
    0.9680    0.0303    0.5906 C   0  0  0  0  0  0  0  0  0  0  0  0
    2.1854    0.0077    0.7076 O   0  0  0  0  0  0  0  0  0  0  0  0
    0.1959    0.4031    1.6761 N   0  0  0  0  0  0  0  0  0  0  0  0
   -0.8089    0.3328    1.5551 H   0  0  0  0  0  0  0  0  0  0  0  0
    0.7341    0.5190    3.0258 C   0  0  0  0  0  0  0  0  0  0  0  0
    1.5255    1.2752    3.0602 H   0  0  0  0  0  0  0  0  0  0  0  0
   -0.0548    0.8152    3.7236 H   0  0  0  0  0  0  0  0  0  0  0  0
    1.1486   -0.4397    3.3551 H   0  0  0  0  0  0  0  0  0  0  0  0
  1  2  1  0  0  0  0
  2  3  1  0  0  0  0
  2  4  1  0  0  0  0
  2  5  1  0  0  0  0
  5  6  2  0  0  0  0
  5  7  1  0  0  0  0
  7  8  1  0  0  0  0
  7  9  1  0  0  0  0
  9 10  1  0  0  0  0
  9 11  1  0  0  0  0
  9 18  1  0  0  0  0
 11 12  1  0  0  0  0
 11 13  1  0  0  0  0
 11 14  1  0  0  0  0
 14 15  2  0  0  0  0
 14 16  1  0  0  0  0
 16 17  1  0  0  0  0
 18 19  2  0  0  0  0
 18 20  1  0  0  0  0
 20 21  1  0  0  0  0
 20 22  1  0  0  0  0
 22 23  1  0  0  0  0
 22 24  1  0  0  0  0
 22 25  1  0  0  0  0
M  END
$$$$

  -OEChem-02102214113D

 25 24  0     1  0  0  0  0  0999 V2000
   -2.5427   -3.6941   -0.3366 H   0  0  0  0  0  0  0  0  0  0  0  0
   -2.5434   -2.6689   -0.7176 C   0  0  0  0  0  0  0  0  0  0  0  0
   -3.3423   -2.1112   -0.2233 H   0  0  0  0  0  0  0  0  0  0  0  0
   -2.7353   -2.6946   -1.7930 H   0  0  0  0  0  0  0  0  0  0  0  0
   -1.2036   -2.0107   -0.4448 C   0  0  0  0  0  0  0  0  0  0  0  0
   -0.3296   -2.6360    0.1278 O   0  0  0  0  0  0  0  0  0  0  0  0
   -0.9898   -0.7040   -0.8412 N   0  0  0  0  0  0  0  0  0  0  0  0
   -1.7102   -0.2971   -1.4306 H   0  0  0  0  0  0  0  0  0  0  0  0
    0.3279   -0.0398   -0.8137 C   0  0  1  0  0  0  0  0  0  0  0  0
    1.0370   -0.6127   -1.4232 H   0  0  0  0  0  0  0  0  0  0  0  0
    0.1599    1.3906   -1.3752 C   0  0  0  0  0  0  0  0  0  0  0  0
   -0.8198    1.7918   -1.1032 H   0  0  0  0  0  0  0  0  0  0  0  0
    0.9158    2.0392   -0.9206 H   0  0  0  0  0  0  0  0  0  0  0  0
    0.3520    1.5008   -2.8859 C   0  0  0  0  0  0  0  0  0  0  0  0
    0.2292    2.6110   -3.3721 O   0  0  0  0  0  0  0  0  0  0  0  0
    0.5862    0.3885   -3.6230 O   0  0  0  0  0  0  0  0  0  0  0  0
    0.6892    0.6908   -4.5389 H   0  0  0  0  0  0  0  0  0  0  0  0
    0.9641    0.0345    0.5931 C   0  0  0  0  0  0  0  0  0  0  0  0
    2.1823    0.0101    0.7036 O   0  0  0  0  0  0  0  0  0  0  0  0
    0.1977    0.4113    1.6812 N   0  0  0  0  0  0  0  0  0  0  0  0
   -0.8075    0.3342    1.5675 H   0  0  0  0  0  0  0  0  0  0  0  0
    0.7451    0.5323    3.0269 C   0  0  0  0  0  0  0  0  0  0  0  0
    1.5426    1.2825    3.0508 H   0  0  0  0  0  0  0  0  0  0  0  0
   -0.0366    0.8399    3.7278 H   0  0  0  0  0  0  0  0  0  0  0  0
    1.1545   -0.4269    3.3610 H   0  0  0  0  0  0  0  0  0  0  0  0
  1  2  1  0  0  0  0
  2  3  1  0  0  0  0
  2  4  1  0  0  0  0
  2  5  1  0  0  0  0
  5  6  2  0  0  0  0
  5  7  1  0  0  0  0
  7  8  1  0  0  0  0
  7  9  1  0  0  0  0
  9 10  1  0  0  0  0
  9 11  1  0  0  0  0
  9 18  1  0  0  0  0
 11 12  1  0  0  0  0
 11 13  1  0  0  0  0
 11 14  1  0  0  0  0
 14 15  2  0  0  0  0
 14 16  1  0  0  0  0
 16 17  1  0  0  0  0
 18 19  2  0  0  0  0
 18 20  1  0  0  0  0
 20 21  1  0  0  0  0
 20 22  1  0  0  0  0
 22 23  1  0  0  0  0
 22 24  1  0  0  0  0
 22 25  1  0  0  0  0
M  END
$$$$

  -OEChem-02102214113D

 25 24  0     1  0  0  0  0  0999 V2000
   -2.5373   -3.6986   -0.3618 H   0  0  0  0  0  0  0  0  0  0  0  0
   -2.5407   -2.6710   -0.7365 C   0  0  0  0  0  0  0  0  0  0  0  0
   -3.3515   -2.1231   -0.2507 H   0  0  0  0  0  0  0  0  0  0  0  0
   -2.7165   -2.6917   -1.8148 H   0  0  0  0  0  0  0  0  0  0  0  0
   -1.2108   -2.0034   -0.4401 C   0  0  0  0  0  0  0  0  0  0  0  0
   -0.3430   -2.6228    0.1484 O   0  0  0  0  0  0  0  0  0  0  0  0
   -0.9997   -0.6955   -0.8340 N   0  0  0  0  0  0  0  0  0  0  0  0
   -1.7044   -0.3062   -1.4538 H   0  0  0  0  0  0  0  0  0  0  0  0
    0.3192   -0.0336   -0.8089 C   0  0  1  0  0  0  0  0  0  0  0  0
    1.0233   -0.6029   -1.4278 H   0  0  0  0  0  0  0  0  0  0  0  0
    0.1533    1.3973   -1.3677 C   0  0  0  0  0  0  0  0  0  0  0  0
   -0.8274    1.7992   -1.1016 H   0  0  0  0  0  0  0  0  0  0  0  0
    0.9086    2.0470   -0.9128 H   0  0  0  0  0  0  0  0  0  0  0  0
    0.3459    1.4881   -2.8785 C   0  0  0  0  0  0  0  0  0  0  0  0
    0.5107    2.5983   -3.3516 O   0  0  0  0  0  0  0  0  0  0  0  0
    0.2390    0.3665   -3.6318 O   0  0  0  0  0  0  0  0  0  0  0  0
    0.3964    0.6461   -4.5475 H   0  0  0  0  0  0  0  0  0  0  0  0
    0.9638    0.0374    0.5940 C   0  0  0  0  0  0  0  0  0  0  0  0
    2.1828    0.0109    0.6956 O   0  0  0  0  0  0  0  0  0  0  0  0
    0.2043    0.4133    1.6871 N   0  0  0  0  0  0  0  0  0  0  0  0
   -0.8016    0.3345    1.5797 H   0  0  0  0  0  0  0  0  0  0  0  0
    0.7601    0.5363    3.0289 C   0  0  0  0  0  0  0  0  0  0  0  0
    1.5621    1.2819    3.0447 H   0  0  0  0  0  0  0  0  0  0  0  0
   -0.0156    0.8512    3.7332 H   0  0  0  0  0  0  0  0  0  0  0  0
    1.1655   -0.4242    3.3639 H   0  0  0  0  0  0  0  0  0  0  0  0
  1  2  1  0  0  0  0
  2  3  1  0  0  0  0
  2  4  1  0  0  0  0
  2  5  1  0  0  0  0
  5  6  2  0  0  0  0
  5  7  1  0  0  0  0
  7  8  1  0  0  0  0
  7  9  1  0  0  0  0
  9 10  1  0  0  0  0
  9 11  1  0  0  0  0
  9 18  1  0  0  0  0
 11 12  1  0  0  0  0
 11 13  1  0  0  0  0
 11 14  1  0  0  0  0
 14 15  2  0  0  0  0
 14 16  1  0  0  0  0
 16 17  1  0  0  0  0
 18 19  2  0  0  0  0
 18 20  1  0  0  0  0
 20 21  1  0  0  0  0
 20 22  1  0  0  0  0
 22 23  1  0  0  0  0
 22 24  1  0  0  0  0
 22 25  1  0  0  0  0
M  END
$$$$

  -OEChem-02102214113D

 25 24  0     1  0  0  0  0  0999 V2000
   -2.5229   -3.7031   -0.3984 H   0  0  0  0  0  0  0  0  0  0  0  0
   -2.5357   -2.6680   -0.7515 C   0  0  0  0  0  0  0  0  0  0  0  0
   -3.3541   -2.1382   -0.2585 H   0  0  0  0  0  0  0  0  0  0  0  0
   -2.7062   -2.6678   -1.8308 H   0  0  0  0  0  0  0  0  0  0  0  0
   -1.2149   -1.9923   -0.4347 C   0  0  0  0  0  0  0  0  0  0  0  0
   -0.3513   -2.6065    0.1653 O   0  0  0  0  0  0  0  0  0  0  0  0
   -1.0072   -0.6835   -0.8271 N   0  0  0  0  0  0  0  0  0  0  0  0
   -1.7004   -0.3083   -1.4688 H   0  0  0  0  0  0  0  0  0  0  0  0
    0.3115   -0.0220   -0.8064 C   0  0  1  0  0  0  0  0  0  0  0  0
    1.0108   -0.5883   -1.4341 H   0  0  0  0  0  0  0  0  0  0  0  0
    0.1430    1.4076   -1.3642 C   0  0  0  0  0  0  0  0  0  0  0  0
   -0.8381    1.8105   -1.1010 H   0  0  0  0  0  0  0  0  0  0  0  0
    0.8978    2.0609   -0.9131 H   0  0  0  0  0  0  0  0  0  0  0  0
    0.3345    1.4712   -2.8752 C   0  0  0  0  0  0  0  0  0  0  0  0
    0.7743    2.5032   -3.3496 O   0  0  0  0  0  0  0  0  0  0  0  0
   -0.0804    0.4220   -3.6266 O   0  0  0  0  0  0  0  0  0  0  0  0
    0.1185    0.6626   -4.5455 H   0  0  0  0  0  0  0  0  0  0  0  0
    0.9637    0.0469    0.5931 C   0  0  0  0  0  0  0  0  0  0  0  0
    2.1831    0.0173    0.6883 O   0  0  0  0  0  0  0  0  0  0  0  0
    0.2097    0.4209    1.6907 N   0  0  0  0  0  0  0  0  0  0  0  0
   -0.7966    0.3414    1.5873 H   0  0  0  0  0  0  0  0  0  0  0  0
    0.7701    0.5304    3.0318 C   0  0  0  0  0  0  0  0  0  0  0  0
    1.5784    1.2691    3.0508 H   0  0  0  0  0  0  0  0  0  0  0  0
   -0.0015    0.8471    3.7399 H   0  0  0  0  0  0  0  0  0  0  0  0
    1.1682   -0.4358    3.3594 H   0  0  0  0  0  0  0  0  0  0  0  0
  1  2  1  0  0  0  0
  2  3  1  0  0  0  0
  2  4  1  0  0  0  0
  2  5  1  0  0  0  0
  5  6  2  0  0  0  0
  5  7  1  0  0  0  0
  7  8  1  0  0  0  0
  7  9  1  0  0  0  0
  9 10  1  0  0  0  0
  9 11  1  0  0  0  0
  9 18  1  0  0  0  0
 11 12  1  0  0  0  0
 11 13  1  0  0  0  0
 11 14  1  0  0  0  0
 14 15  2  0  0  0  0
 14 16  1  0  0  0  0
 16 17  1  0  0  0  0
 18 19  2  0  0  0  0
 18 20  1  0  0  0  0
 20 21  1  0  0  0  0
 20 22  1  0  0  0  0
 22 23  1  0  0  0  0
 22 24  1  0  0  0  0
 22 25  1  0  0  0  0
M  END
$$$$

  -OEChem-02102214113D

 25 24  0     1  0  0  0  0  0999 V2000
   -2.5070   -3.7099   -0.4399 H   0  0  0  0  0  0  0  0  0  0  0  0
   -2.5361   -2.6625   -0.7543 C   0  0  0  0  0  0  0  0  0  0  0  0
   -3.3494   -2.1591   -0.2262 H   0  0  0  0  0  0  0  0  0  0  0  0
   -2.7285   -2.6244   -1.8292 H   0  0  0  0  0  0  0  0  0  0  0  0
   -1.2152   -1.9858   -0.4390 C   0  0  0  0  0  0  0  0  0  0  0  0
   -0.3491   -2.6011    0.1563 O   0  0  0  0  0  0  0  0  0  0  0  0
   -1.0095   -0.6757   -0.8280 N   0  0  0  0  0  0  0  0  0  0  0  0
   -1.7033   -0.2997   -1.4694 H   0  0  0  0  0  0  0  0  0  0  0  0
    0.3075   -0.0112   -0.8077 C   0  0  1  0  0  0  0  0  0  0  0  0
    1.0061   -0.5730   -1.4401 H   0  0  0  0  0  0  0  0  0  0  0  0
    0.1295    1.4173   -1.3629 C   0  0  0  0  0  0  0  0  0  0  0  0
   -0.8546    1.8152   -1.1037 H   0  0  0  0  0  0  0  0  0  0  0  0
    0.8791    2.0776   -0.9132 H   0  0  0  0  0  0  0  0  0  0  0  0
    0.3203    1.4634   -2.8734 C   0  0  0  0  0  0  0  0  0  0  0  0
    1.0008    2.3560   -3.3461 O   0  0  0  0  0  0  0  0  0  0  0  0
   -0.3408    0.5493   -3.6246 O   0  0  0  0  0  0  0  0  0  0  0  0
   -0.1022    0.7466   -4.5446 H   0  0  0  0  0  0  0  0  0  0  0  0
    0.9628    0.0562    0.5906 C   0  0  0  0  0  0  0  0  0  0  0  0
    2.1821    0.0204    0.6835 O   0  0  0  0  0  0  0  0  0  0  0  0
    0.2117    0.4257    1.6917 N   0  0  0  0  0  0  0  0  0  0  0  0
   -0.7947    0.3457    1.5904 H   0  0  0  0  0  0  0  0  0  0  0  0
    0.7755    0.5231    3.0325 C   0  0  0  0  0  0  0  0  0  0  0  0
    1.5935    1.2510    3.0536 H   0  0  0  0  0  0  0  0  0  0  0  0
    0.0093    0.8476    3.7430 H   0  0  0  0  0  0  0  0  0  0  0  0
    1.1613   -0.4495    3.3559 H   0  0  0  0  0  0  0  0  0  0  0  0
  1  2  1  0  0  0  0
  2  3  1  0  0  0  0
  2  4  1  0  0  0  0
  2  5  1  0  0  0  0
  5  6  2  0  0  0  0
  5  7  1  0  0  0  0
  7  8  1  0  0  0  0
  7  9  1  0  0  0  0
  9 10  1  0  0  0  0
  9 11  1  0  0  0  0
  9 18  1  0  0  0  0
 11 12  1  0  0  0  0
 11 13  1  0  0  0  0
 11 14  1  0  0  0  0
 14 15  2  0  0  0  0
 14 16  1  0  0  0  0
 16 17  1  0  0  0  0
 18 19  2  0  0  0  0
 18 20  1  0  0  0  0
 20 21  1  0  0  0  0
 20 22  1  0  0  0  0
 22 23  1  0  0  0  0
 22 24  1  0  0  0  0
 22 25  1  0  0  0  0
M  END
$$$$

  -OEChem-02102214113D

 25 24  0     1  0  0  0  0  0999 V2000
   -2.5086   -3.7031   -0.4519 H   0  0  0  0  0  0  0  0  0  0  0  0
   -2.5373   -2.6544   -0.7619 C   0  0  0  0  0  0  0  0  0  0  0  0
   -3.3480   -2.1513   -0.2296 H   0  0  0  0  0  0  0  0  0  0  0  0
   -2.7329   -2.6113   -1.8360 H   0  0  0  0  0  0  0  0  0  0  0  0
   -1.2144   -1.9812   -0.4484 C   0  0  0  0  0  0  0  0  0  0  0  0
   -0.3440   -2.6019    0.1346 O   0  0  0  0  0  0  0  0  0  0  0  0
   -1.0095   -0.6691   -0.8304 N   0  0  0  0  0  0  0  0  0  0  0  0
   -1.7093   -0.2846   -1.4607 H   0  0  0  0  0  0  0  0  0  0  0  0
    0.3065   -0.0034   -0.8094 C   0  0  1  0  0  0  0  0  0  0  0  0
    1.0054   -0.5582   -1.4478 H   0  0  0  0  0  0  0  0  0  0  0  0
    0.1170    1.4261   -1.3545 C   0  0  0  0  0  0  0  0  0  0  0  0
   -0.8682    1.8193   -1.0917 H   0  0  0  0  0  0  0  0  0  0  0  0
    0.8643    2.0909   -0.9075 H   0  0  0  0  0  0  0  0  0  0  0  0
    0.3029    1.4630   -2.8644 C   0  0  0  0  0  0  0  0  0  0  0  0
    1.1804    2.1645   -3.3342 O   0  0  0  0  0  0  0  0  0  0  0  0
   -0.5566    0.7328   -3.6161 O   0  0  0  0  0  0  0  0  0  0  0  0
   -0.2891    0.8839   -4.5370 H   0  0  0  0  0  0  0  0  0  0  0  0
    0.9647    0.0570    0.5877 C   0  0  0  0  0  0  0  0  0  0  0  0
    2.1839    0.0199    0.6800 O   0  0  0  0  0  0  0  0  0  0  0  0
    0.2144    0.4199    1.6915 N   0  0  0  0  0  0  0  0  0  0  0  0
   -0.7922    0.3422    1.5910 H   0  0  0  0  0  0  0  0  0  0  0  0
    0.7805    0.5200    3.0308 C   0  0  0  0  0  0  0  0  0  0  0  0
    1.5961    1.2507    3.0491 H   0  0  0  0  0  0  0  0  0  0  0  0
    0.0148    0.8425    3.7426 H   0  0  0  0  0  0  0  0  0  0  0  0
    1.1702   -0.4510    3.3543 H   0  0  0  0  0  0  0  0  0  0  0  0
  1  2  1  0  0  0  0
  2  3  1  0  0  0  0
  2  4  1  0  0  0  0
  2  5  1  0  0  0  0
  5  6  2  0  0  0  0
  5  7  1  0  0  0  0
  7  8  1  0  0  0  0
  7  9  1  0  0  0  0
  9 10  1  0  0  0  0
  9 11  1  0  0  0  0
  9 18  1  0  0  0  0
 11 12  1  0  0  0  0
 11 13  1  0  0  0  0
 11 14  1  0  0  0  0
 14 15  2  0  0  0  0
 14 16  1  0  0  0  0
 16 17  1  0  0  0  0
 18 19  2  0  0  0  0
 18 20  1  0  0  0  0
 20 21  1  0  0  0  0
 20 22  1  0  0  0  0
 22 23  1  0  0  0  0
 22 24  1  0  0  0  0
 22 25  1  0  0  0  0
M  END
$$$$

  -OEChem-02102214113D

 25 24  0     1  0  0  0  0  0999 V2000
   -2.5061   -3.6951   -0.4503 H   0  0  0  0  0  0  0  0  0  0  0  0
   -2.5379   -2.6449   -0.7546 C   0  0  0  0  0  0  0  0  0  0  0  0
   -3.3386   -2.1434   -0.2058 H   0  0  0  0  0  0  0  0  0  0  0  0
   -2.7515   -2.5968   -1.8253 H   0  0  0  0  0  0  0  0  0  0  0  0
   -1.2080   -1.9766   -0.4597 C   0  0  0  0  0  0  0  0  0  0  0  0
   -0.3292   -2.6033    0.1038 O   0  0  0  0  0  0  0  0  0  0  0  0
   -1.0038   -0.6629   -0.8369 N   0  0  0  0  0  0  0  0  0  0  0  0
   -1.7170   -0.2632   -1.4425 H   0  0  0  0  0  0  0  0  0  0  0  0
    0.3106    0.0062   -0.8152 C   0  0  1  0  0  0  0  0  0  0  0  0
    1.0122   -0.5414   -1.4570 H   0  0  0  0  0  0  0  0  0  0  0  0
    0.1096    1.4358   -1.3520 C   0  0  0  0  0  0  0  0  0  0  0  0
   -0.8755    1.8252   -1.0828 H   0  0  0  0  0  0  0  0  0  0  0  0
    0.8560    2.1043   -0.9092 H   0  0  0  0  0  0  0  0  0  0  0  0
    0.2908    1.4716   -2.8611 C   0  0  0  0  0  0  0  0  0  0  0  0
    1.3120    1.9437   -3.3265 O   0  0  0  0  0  0  0  0  0  0  0  0
   -0.7140    0.9639   -3.6150 O   0  0  0  0  0  0  0  0  0  0  0  0
   -0.4248    1.0670   -4.5359 H   0  0  0  0  0  0  0  0  0  0  0  0
    0.9677    0.0623    0.5828 C   0  0  0  0  0  0  0  0  0  0  0  0
    2.1865    0.0236    0.6788 O   0  0  0  0  0  0  0  0  0  0  0  0
    0.2146    0.4190    1.6866 N   0  0  0  0  0  0  0  0  0  0  0  0
   -0.7917    0.3449    1.5816 H   0  0  0  0  0  0  0  0  0  0  0  0
    0.7753    0.5075    3.0292 C   0  0  0  0  0  0  0  0  0  0  0  0
    1.5897    1.2392    3.0577 H   0  0  0  0  0  0  0  0  0  0  0  0
    0.0058    0.8221    3.7407 H   0  0  0  0  0  0  0  0  0  0  0  0
    1.1652   -0.4659    3.3453 H   0  0  0  0  0  0  0  0  0  0  0  0
  1  2  1  0  0  0  0
  2  3  1  0  0  0  0
  2  4  1  0  0  0  0
  2  5  1  0  0  0  0
  5  6  2  0  0  0  0
  5  7  1  0  0  0  0
  7  8  1  0  0  0  0
  7  9  1  0  0  0  0
  9 10  1  0  0  0  0
  9 11  1  0  0  0  0
  9 18  1  0  0  0  0
 11 12  1  0  0  0  0
 11 13  1  0  0  0  0
 11 14  1  0  0  0  0
 14 15  2  0  0  0  0
 14 16  1  0  0  0  0
 16 17  1  0  0  0  0
 18 19  2  0  0  0  0
 18 20  1  0  0  0  0
 20 21  1  0  0  0  0
 20 22  1  0  0  0  0
 22 23  1  0  0  0  0
 22 24  1  0  0  0  0
 22 25  1  0  0  0  0
M  END
$$$$

  -OEChem-02102214113D

 25 24  0     1  0  0  0  0  0999 V2000
   -2.5083   -3.6892   -0.4413 H   0  0  0  0  0  0  0  0  0  0  0  0
   -2.5388   -2.6393   -0.7469 C   0  0  0  0  0  0  0  0  0  0  0  0
   -3.3289   -2.1327   -0.1877 H   0  0  0  0  0  0  0  0  0  0  0  0
   -2.7671   -2.5919   -1.8143 H   0  0  0  0  0  0  0  0  0  0  0  0
   -1.2019   -1.9770   -0.4715 C   0  0  0  0  0  0  0  0  0  0  0  0
   -0.3159   -2.6092    0.0742 O   0  0  0  0  0  0  0  0  0  0  0  0
   -1.0002   -0.6612   -0.8435 N   0  0  0  0  0  0  0  0  0  0  0  0
   -1.7290   -0.2454   -1.4186 H   0  0  0  0  0  0  0  0  0  0  0  0
    0.3120    0.0126   -0.8189 C   0  0  1  0  0  0  0  0  0  0  0  0
    1.0163   -0.5305   -1.4617 H   0  0  0  0  0  0  0  0  0  0  0  0
    0.1060    1.4428   -1.3507 C   0  0  0  0  0  0  0  0  0  0  0  0
   -0.8792    1.8298   -1.0780 H   0  0  0  0  0  0  0  0  0  0  0  0
    0.8518    2.1124   -0.9088 H   0  0  0  0  0  0  0  0  0  0  0  0
    0.2877    1.4843   -2.8590 C   0  0  0  0  0  0  0  0  0  0  0  0
    1.3947    1.6987   -3.3180 O   0  0  0  0  0  0  0  0  0  0  0  0
   -0.8067    1.2421   -3.6189 O   0  0  0  0  0  0  0  0  0  0  0  0
   -0.5026    1.3024   -4.5388 H   0  0  0  0  0  0  0  0  0  0  0  0
    0.9676    0.0654    0.5799 C   0  0  0  0  0  0  0  0  0  0  0  0
    2.1862    0.0294    0.6782 O   0  0  0  0  0  0  0  0  0  0  0  0
    0.2117    0.4154    1.6843 N   0  0  0  0  0  0  0  0  0  0  0  0
   -0.7942    0.3361    1.5789 H   0  0  0  0  0  0  0  0  0  0  0  0
    0.7718    0.4995    3.0274 C   0  0  0  0  0  0  0  0  0  0  0  0
    1.5819    1.2357    3.0603 H   0  0  0  0  0  0  0  0  0  0  0  0
    0.0006    0.8054    3.7407 H   0  0  0  0  0  0  0  0  0  0  0  0
    1.1677   -0.4732    3.3378 H   0  0  0  0  0  0  0  0  0  0  0  0
  1  2  1  0  0  0  0
  2  3  1  0  0  0  0
  2  4  1  0  0  0  0
  2  5  1  0  0  0  0
  5  6  2  0  0  0  0
  5  7  1  0  0  0  0
  7  8  1  0  0  0  0
  7  9  1  0  0  0  0
  9 10  1  0  0  0  0
  9 11  1  0  0  0  0
  9 18  1  0  0  0  0
 11 12  1  0  0  0  0
 11 13  1  0  0  0  0
 11 14  1  0  0  0  0
 14 15  2  0  0  0  0
 14 16  1  0  0  0  0
 16 17  1  0  0  0  0
 18 19  2  0  0  0  0
 18 20  1  0  0  0  0
 20 21  1  0  0  0  0
 20 22  1  0  0  0  0
 22 23  1  0  0  0  0
 22 24  1  0  0  0  0
 22 25  1  0  0  0  0
M  END
$$$$

  -OEChem-02102214113D

 25 24  0     1  0  0  0  0  0999 V2000
   -2.4990   -3.6871   -0.4458 H   0  0  0  0  0  0  0  0  0  0  0  0
   -2.5351   -2.6307   -0.7270 C   0  0  0  0  0  0  0  0  0  0  0  0
   -3.3059   -2.1340   -0.1328 H   0  0  0  0  0  0  0  0  0  0  0  0
   -2.7958   -2.5589   -1.7857 H   0  0  0  0  0  0  0  0  0  0  0  0
   -1.1882   -1.9786   -0.4787 C   0  0  0  0  0  0  0  0  0  0  0  0
   -0.2958   -2.6158    0.0501 O   0  0  0  0  0  0  0  0  0  0  0  0
   -0.9876   -0.6630   -0.8507 N   0  0  0  0  0  0  0  0  0  0  0  0
   -1.7316   -0.2335   -1.3948 H   0  0  0  0  0  0  0  0  0  0  0  0
    0.3216    0.0166   -0.8243 C   0  0  1  0  0  0  0  0  0  0  0  0
    1.0307   -0.5244   -1.4638 H   0  0  0  0  0  0  0  0  0  0  0  0
    0.1085    1.4456   -1.3573 C   0  0  0  0  0  0  0  0  0  0  0  0
   -0.8778    1.8274   -1.0807 H   0  0  0  0  0  0  0  0  0  0  0  0
    0.8516    2.1187   -0.9171 H   0  0  0  0  0  0  0  0  0  0  0  0
    0.2900    1.4974   -2.8657 C   0  0  0  0  0  0  0  0  0  0  0  0
    1.4140    1.4448   -3.3309 O   0  0  0  0  0  0  0  0  0  0  0  0
   -0.8326    1.5491   -3.6206 O   0  0  0  0  0  0  0  0  0  0  0  0
   -0.5271    1.5672   -4.5417 H   0  0  0  0  0  0  0  0  0  0  0  0
    0.9699    0.0711    0.5779 C   0  0  0  0  0  0  0  0  0  0  0  0
    2.1878    0.0392    0.6848 O   0  0  0  0  0  0  0  0  0  0  0  0
    0.2064    0.4177    1.6781 N   0  0  0  0  0  0  0  0  0  0  0  0
   -0.7986    0.3385    1.5648 H   0  0  0  0  0  0  0  0  0  0  0  0
    0.7557    0.4845    3.0265 C   0  0  0  0  0  0  0  0  0  0  0  0
    1.5712    1.2138    3.0734 H   0  0  0  0  0  0  0  0  0  0  0  0
   -0.0190    0.7891    3.7365 H   0  0  0  0  0  0  0  0  0  0  0  0
    1.1409   -0.4946    3.3300 H   0  0  0  0  0  0  0  0  0  0  0  0
  1  2  1  0  0  0  0
  2  3  1  0  0  0  0
  2  4  1  0  0  0  0
  2  5  1  0  0  0  0
  5  6  2  0  0  0  0
  5  7  1  0  0  0  0
  7  8  1  0  0  0  0
  7  9  1  0  0  0  0
  9 10  1  0  0  0  0
  9 11  1  0  0  0  0
  9 18  1  0  0  0  0
 11 12  1  0  0  0  0
 11 13  1  0  0  0  0
 11 14  1  0  0  0  0
 14 15  2  0  0  0  0
 14 16  1  0  0  0  0
 16 17  1  0  0  0  0
 18 19  2  0  0  0  0
 18 20  1  0  0  0  0
 20 21  1  0  0  0  0
 20 22  1  0  0  0  0
 22 23  1  0  0  0  0
 22 24  1  0  0  0  0
 22 25  1  0  0  0  0
M  END
$$$$

  -OEChem-02102214113D

 25 24  0     1  0  0  0  0  0999 V2000
   -2.5147   -3.6875   -0.4004 H   0  0  0  0  0  0  0  0  0  0  0  0
   -2.5397   -2.6415   -0.7199 C   0  0  0  0  0  0  0  0  0  0  0  0
   -3.3115   -2.1181   -0.1505 H   0  0  0  0  0  0  0  0  0  0  0  0
   -2.7912   -2.6058   -1.7826 H   0  0  0  0  0  0  0  0  0  0  0  0
   -1.1890   -1.9919   -0.4836 C   0  0  0  0  0  0  0  0  0  0  0  0
   -0.2942   -2.6321    0.0375 O   0  0  0  0  0  0  0  0  0  0  0  0
   -0.9870   -0.6763   -0.8560 N   0  0  0  0  0  0  0  0  0  0  0  0
   -1.7390   -0.2370   -1.3802 H   0  0  0  0  0  0  0  0  0  0  0  0
    0.3234    0.0022   -0.8274 C   0  0  1  0  0  0  0  0  0  0  0  0
    1.0323   -0.5427   -1.4633 H   0  0  0  0  0  0  0  0  0  0  0  0
    0.1186    1.4356   -1.3576 C   0  0  0  0  0  0  0  0  0  0  0  0
   -0.8650    1.8192   -1.0740 H   0  0  0  0  0  0  0  0  0  0  0  0
    0.8655    2.1012   -0.9124 H   0  0  0  0  0  0  0  0  0  0  0  0
    0.2989    1.5177   -2.8667 C   0  0  0  0  0  0  0  0  0  0  0  0
    1.3667    1.2009   -3.3592 O   0  0  0  0  0  0  0  0  0  0  0  0
   -0.7740    1.9061   -3.5942 O   0  0  0  0  0  0  0  0  0  0  0  0
   -0.4789    1.9027   -4.5187 H   0  0  0  0  0  0  0  0  0  0  0  0
    0.9689    0.0565    0.5762 C   0  0  0  0  0  0  0  0  0  0  0  0
    2.1868    0.0326    0.6853 O   0  0  0  0  0  0  0  0  0  0  0  0
    0.2028    0.4043    1.6744 N   0  0  0  0  0  0  0  0  0  0  0  0
   -0.8022    0.3262    1.5611 H   0  0  0  0  0  0  0  0  0  0  0  0
    0.7523    0.4964    3.0215 C   0  0  0  0  0  0  0  0  0  0  0  0
    1.5536    1.2419    3.0592 H   0  0  0  0  0  0  0  0  0  0  0  0
   -0.0271    0.7941    3.7293 H   0  0  0  0  0  0  0  0  0  0  0  0
    1.1569   -0.4715    3.3360 H   0  0  0  0  0  0  0  0  0  0  0  0
  1  2  1  0  0  0  0
  2  3  1  0  0  0  0
  2  4  1  0  0  0  0
  2  5  1  0  0  0  0
  5  6  2  0  0  0  0
  5  7  1  0  0  0  0
  7  8  1  0  0  0  0
  7  9  1  0  0  0  0
  9 10  1  0  0  0  0
  9 11  1  0  0  0  0
  9 18  1  0  0  0  0
 11 12  1  0  0  0  0
 11 13  1  0  0  0  0
 11 14  1  0  0  0  0
 14 15  2  0  0  0  0
 14 16  1  0  0  0  0
 16 17  1  0  0  0  0
 18 19  2  0  0  0  0
 18 20  1  0  0  0  0
 20 21  1  0  0  0  0
 20 22  1  0  0  0  0
 22 23  1  0  0  0  0
 22 24  1  0  0  0  0
 22 25  1  0  0  0  0
M  END
$$$$

  -OEChem-02102214113D

 25 24  0     1  0  0  0  0  0999 V2000
   -2.5018   -3.7031   -0.4245 H   0  0  0  0  0  0  0  0  0  0  0  0
   -2.5374   -2.6480   -0.7108 C   0  0  0  0  0  0  0  0  0  0  0  0
   -3.3055   -2.1474   -0.1165 H   0  0  0  0  0  0  0  0  0  0  0  0
   -2.8019   -2.5809   -1.7689 H   0  0  0  0  0  0  0  0  0  0  0  0
   -1.1884   -1.9969   -0.4703 C   0  0  0  0  0  0  0  0  0  0  0  0
   -0.2986   -2.6308    0.0670 O   0  0  0  0  0  0  0  0  0  0  0  0
   -0.9855   -0.6844   -0.8528 N   0  0  0  0  0  0  0  0  0  0  0  0
   -1.7341   -0.2526   -1.3873 H   0  0  0  0  0  0  0  0  0  0  0  0
    0.3254   -0.0069   -0.8276 C   0  0  1  0  0  0  0  0  0  0  0  0
    1.0344   -0.5633   -1.4529 H   0  0  0  0  0  0  0  0  0  0  0  0
    0.1269    1.4255   -1.3697 C   0  0  0  0  0  0  0  0  0  0  0  0
   -0.8562    1.8095   -1.0846 H   0  0  0  0  0  0  0  0  0  0  0  0
    0.8735    2.0894   -0.9225 H   0  0  0  0  0  0  0  0  0  0  0  0
    0.3053    1.5287   -2.8803 C   0  0  0  0  0  0  0  0  0  0  0  0
    1.2469    0.9744   -3.4191 O   0  0  0  0  0  0  0  0  0  0  0  0
   -0.6353    2.2268   -3.5578 O   0  0  0  0  0  0  0  0  0  0  0  0
   -0.3616    2.2036   -4.4883 H   0  0  0  0  0  0  0  0  0  0  0  0
    0.9678    0.0570    0.5773 C   0  0  0  0  0  0  0  0  0  0  0  0
    2.1857    0.0382    0.6890 O   0  0  0  0  0  0  0  0  0  0  0  0
    0.1996    0.4135    1.6713 N   0  0  0  0  0  0  0  0  0  0  0  0
   -0.8044    0.3252    1.5565 H   0  0  0  0  0  0  0  0  0  0  0  0
    0.7447    0.4981    3.0207 C   0  0  0  0  0  0  0  0  0  0  0  0
    1.5567    1.2318    3.0621 H   0  0  0  0  0  0  0  0  0  0  0  0
   -0.0336    0.8073    3.7247 H   0  0  0  0  0  0  0  0  0  0  0  0
    1.1336   -0.4757    3.3366 H   0  0  0  0  0  0  0  0  0  0  0  0
  1  2  1  0  0  0  0
  2  3  1  0  0  0  0
  2  4  1  0  0  0  0
  2  5  1  0  0  0  0
  5  6  2  0  0  0  0
  5  7  1  0  0  0  0
  7  8  1  0  0  0  0
  7  9  1  0  0  0  0
  9 10  1  0  0  0  0
  9 11  1  0  0  0  0
  9 18  1  0  0  0  0
 11 12  1  0  0  0  0
 11 13  1  0  0  0  0
 11 14  1  0  0  0  0
 14 15  2  0  0  0  0
 14 16  1  0  0  0  0
 16 17  1  0  0  0  0
 18 19  2  0  0  0  0
 18 20  1  0  0  0  0
 20 21  1  0  0  0  0
 20 22  1  0  0  0  0
 22 23  1  0  0  0  0
 22 24  1  0  0  0  0
 22 25  1  0  0  0  0
M  END
$$$$

  -OEChem-02102214113D

 25 24  0     1  0  0  0  0  0999 V2000
   -2.5063   -3.7142   -0.4319 H   0  0  0  0  0  0  0  0  0  0  0  0
   -2.5408   -2.6597   -0.7205 C   0  0  0  0  0  0  0  0  0  0  0  0
   -3.3227   -2.1619   -0.1421 H   0  0  0  0  0  0  0  0  0  0  0  0
   -2.7851   -2.5962   -1.7836 H   0  0  0  0  0  0  0  0  0  0  0  0
   -1.1997   -2.0017   -0.4548 C   0  0  0  0  0  0  0  0  0  0  0  0
   -0.3214   -2.6275    0.1102 O   0  0  0  0  0  0  0  0  0  0  0  0
   -0.9920   -0.6922   -0.8459 N   0  0  0  0  0  0  0  0  0  0  0  0
   -1.7276   -0.2744   -1.4082 H   0  0  0  0  0  0  0  0  0  0  0  0
    0.3225   -0.0210   -0.8249 C   0  0  1  0  0  0  0  0  0  0  0  0
    1.0294   -0.5869   -1.4435 H   0  0  0  0  0  0  0  0  0  0  0  0
    0.1349    1.4131   -1.3723 C   0  0  0  0  0  0  0  0  0  0  0  0
   -0.8451    1.8021   -1.0833 H   0  0  0  0  0  0  0  0  0  0  0  0
    0.8856    2.0707   -0.9229 H   0  0  0  0  0  0  0  0  0  0  0  0
    0.3085    1.5387   -2.8836 C   0  0  0  0  0  0  0  0  0  0  0  0
    1.0597    0.7890   -3.4825 O   0  0  0  0  0  0  0  0  0  0  0  0
   -0.4235    2.4990   -3.4934 O   0  0  0  0  0  0  0  0  0  0  0  0
   -0.1831    2.4595   -4.4324 H   0  0  0  0  0  0  0  0  0  0  0  0
    0.9664    0.0488    0.5790 C   0  0  0  0  0  0  0  0  0  0  0  0
    2.1848    0.0348    0.6871 O   0  0  0  0  0  0  0  0  0  0  0  0
    0.2014    0.4158    1.6715 N   0  0  0  0  0  0  0  0  0  0  0  0
   -0.8027    0.3226    1.5614 H   0  0  0  0  0  0  0  0  0  0  0  0
    0.7509    0.5144    3.0180 C   0  0  0  0  0  0  0  0  0  0  0  0
    1.5617    1.2501    3.0493 H   0  0  0  0  0  0  0  0  0  0  0  0
   -0.0256    0.8288    3.7219 H   0  0  0  0  0  0  0  0  0  0  0  0
    1.1435   -0.4553    3.3419 H   0  0  0  0  0  0  0  0  0  0  0  0
  1  2  1  0  0  0  0
  2  3  1  0  0  0  0
  2  4  1  0  0  0  0
  2  5  1  0  0  0  0
  5  6  2  0  0  0  0
  5  7  1  0  0  0  0
  7  8  1  0  0  0  0
  7  9  1  0  0  0  0
  9 10  1  0  0  0  0
  9 11  1  0  0  0  0
  9 18  1  0  0  0  0
 11 12  1  0  0  0  0
 11 13  1  0  0  0  0
 11 14  1  0  0  0  0
 14 15  2  0  0  0  0
 14 16  1  0  0  0  0
 16 17  1  0  0  0  0
 18 19  2  0  0  0  0
 18 20  1  0  0  0  0
 20 21  1  0  0  0  0
 20 22  1  0  0  0  0
 22 23  1  0  0  0  0
 22 24  1  0  0  0  0
 22 25  1  0  0  0  0
M  END
$$$$

  -OEChem-02102214113D

 25 24  0     1  0  0  0  0  0999 V2000
   -2.5333   -3.7012   -0.3663 H   0  0  0  0  0  0  0  0  0  0  0  0
   -2.5441   -2.6685   -0.7267 C   0  0  0  0  0  0  0  0  0  0  0  0
   -3.3448   -2.1268   -0.2178 H   0  0  0  0  0  0  0  0  0  0  0  0
   -2.7415   -2.6746   -1.8014 H   0  0  0  0  0  0  0  0  0  0  0  0
   -1.2081   -2.0055   -0.4482 C   0  0  0  0  0  0  0  0  0  0  0  0
   -0.3347   -2.6279    0.1284 O   0  0  0  0  0  0  0  0  0  0  0  0
   -0.9992   -0.6970   -0.8422 N   0  0  0  0  0  0  0  0  0  0  0  0
   -1.7230   -0.2924   -1.4289 H   0  0  0  0  0  0  0  0  0  0  0  0
    0.3185   -0.0320   -0.8254 C   0  0  1  0  0  0  0  0  0  0  0  0
    1.0221   -0.6009   -1.4448 H   0  0  0  0  0  0  0  0  0  0  0  0
    0.1402    1.4058   -1.3692 C   0  0  0  0  0  0  0  0  0  0  0  0
   -0.8352    1.8010   -1.0741 H   0  0  0  0  0  0  0  0  0  0  0  0
    0.8980    2.0539   -0.9181 H   0  0  0  0  0  0  0  0  0  0  0  0
    0.3069    1.5507   -2.8804 C   0  0  0  0  0  0  0  0  0  0  0  0
    0.8199    0.6616   -3.5378 O   0  0  0  0  0  0  0  0  0  0  0  0
   -0.1551    2.7010   -3.4217 O   0  0  0  0  0  0  0  0  0  0  0  0
    0.0478    2.6508   -4.3688 H   0  0  0  0  0  0  0  0  0  0  0  0
    0.9659    0.0363    0.5772 C   0  0  0  0  0  0  0  0  0  0  0  0
    2.1849    0.0241    0.6807 O   0  0  0  0  0  0  0  0  0  0  0  0
    0.2042    0.4082    1.6705 N   0  0  0  0  0  0  0  0  0  0  0  0
   -0.8004    0.3169    1.5635 H   0  0  0  0  0  0  0  0  0  0  0  0
    0.7579    0.5270    3.0136 C   0  0  0  0  0  0  0  0  0  0  0  0
    1.5570    1.2755    3.0346 H   0  0  0  0  0  0  0  0  0  0  0  0
   -0.0201    0.8356    3.7181 H   0  0  0  0  0  0  0  0  0  0  0  0
    1.1664   -0.4337    3.3448 H   0  0  0  0  0  0  0  0  0  0  0  0
  1  2  1  0  0  0  0
  2  3  1  0  0  0  0
  2  4  1  0  0  0  0
  2  5  1  0  0  0  0
  5  6  2  0  0  0  0
  5  7  1  0  0  0  0
  7  8  1  0  0  0  0
  7  9  1  0  0  0  0
  9 10  1  0  0  0  0
  9 11  1  0  0  0  0
  9 18  1  0  0  0  0
 11 12  1  0  0  0  0
 11 13  1  0  0  0  0
 11 14  1  0  0  0  0
 14 15  2  0  0  0  0
 14 16  1  0  0  0  0
 16 17  1  0  0  0  0
 18 19  2  0  0  0  0
 18 20  1  0  0  0  0
 20 21  1  0  0  0  0
 20 22  1  0  0  0  0
 22 23  1  0  0  0  0
 22 24  1  0  0  0  0
 22 25  1  0  0  0  0
M  END
$$$$

  -OEChem-02102214113D

 25 24  0     1  0  0  0  0  0999 V2000
   -2.5293   -3.7080   -0.4013 H   0  0  0  0  0  0  0  0  0  0  0  0
   -2.5432   -2.6712   -0.7495 C   0  0  0  0  0  0  0  0  0  0  0  0
   -3.3589   -2.1431   -0.2503 H   0  0  0  0  0  0  0  0  0  0  0  0
   -2.7195   -2.6661   -1.8279 H   0  0  0  0  0  0  0  0  0  0  0  0
   -1.2198   -1.9980   -0.4371 C   0  0  0  0  0  0  0  0  0  0  0  0
   -0.3594   -2.6112    0.1685 O   0  0  0  0  0  0  0  0  0  0  0  0
   -1.0098   -0.6902   -0.8325 N   0  0  0  0  0  0  0  0  0  0  0  0
   -1.7160   -0.3039   -1.4523 H   0  0  0  0  0  0  0  0  0  0  0  0
    0.3104   -0.0303   -0.8175 C   0  0  1  0  0  0  0  0  0  0  0  0
    1.0110   -0.6006   -1.4394 H   0  0  0  0  0  0  0  0  0  0  0  0
    0.1388    1.4075   -1.3631 C   0  0  0  0  0  0  0  0  0  0  0  0
   -0.8339    1.8099   -1.0700 H   0  0  0  0  0  0  0  0  0  0  0  0
    0.9012    2.0510   -0.9126 H   0  0  0  0  0  0  0  0  0  0  0  0
    0.3059    1.5482   -2.8744 C   0  0  0  0  0  0  0  0  0  0  0  0
    0.5548    0.5738   -3.5640 O   0  0  0  0  0  0  0  0  0  0  0  0
    0.1426    2.7925   -3.3785 O   0  0  0  0  0  0  0  0  0  0  0  0
    0.3034    2.7189   -4.3320 H   0  0  0  0  0  0  0  0  0  0  0  0
    0.9639    0.0382    0.5818 C   0  0  0  0  0  0  0  0  0  0  0  0
    2.1838    0.0265    0.6766 O   0  0  0  0  0  0  0  0  0  0  0  0
    0.2094    0.4144    1.6784 N   0  0  0  0  0  0  0  0  0  0  0  0
   -0.7958    0.3180    1.5789 H   0  0  0  0  0  0  0  0  0  0  0  0
    0.7726    0.5321    3.0175 C   0  0  0  0  0  0  0  0  0  0  0  0
    1.5770    1.2750    3.0313 H   0  0  0  0  0  0  0  0  0  0  0  0
    0.0014    0.8481    3.7263 H   0  0  0  0  0  0  0  0  0  0  0  0
    1.1768   -0.4307    3.3477 H   0  0  0  0  0  0  0  0  0  0  0  0
  1  2  1  0  0  0  0
  2  3  1  0  0  0  0
  2  4  1  0  0  0  0
  2  5  1  0  0  0  0
  5  6  2  0  0  0  0
  5  7  1  0  0  0  0
  7  8  1  0  0  0  0
  7  9  1  0  0  0  0
  9 10  1  0  0  0  0
  9 11  1  0  0  0  0
  9 18  1  0  0  0  0
 11 12  1  0  0  0  0
 11 13  1  0  0  0  0
 11 14  1  0  0  0  0
 14 15  2  0  0  0  0
 14 16  1  0  0  0  0
 16 17  1  0  0  0  0
 18 19  2  0  0  0  0
 18 20  1  0  0  0  0
 20 21  1  0  0  0  0
 20 22  1  0  0  0  0
 22 23  1  0  0  0  0
 22 24  1  0  0  0  0
 22 25  1  0  0  0  0
M  END
$$$$

  -OEChem-02102214113D

 25 24  0     1  0  0  0  0  0999 V2000
   -2.5292   -3.7000   -0.4084 H   0  0  0  0  0  0  0  0  0  0  0  0
   -2.5387   -2.6658   -0.7644 C   0  0  0  0  0  0  0  0  0  0  0  0
   -3.3630   -2.1348   -0.2825 H   0  0  0  0  0  0  0  0  0  0  0  0
   -2.6970   -2.6692   -1.8457 H   0  0  0  0  0  0  0  0  0  0  0  0
   -1.2220   -1.9881   -0.4350 C   0  0  0  0  0  0  0  0  0  0  0  0
   -0.3658   -2.5991    0.1790 O   0  0  0  0  0  0  0  0  0  0  0  0
   -1.0137   -0.6790   -0.8265 N   0  0  0  0  0  0  0  0  0  0  0  0
   -1.7080   -0.3045   -1.4668 H   0  0  0  0  0  0  0  0  0  0  0  0
    0.3068   -0.0203   -0.8112 C   0  0  1  0  0  0  0  0  0  0  0  0
    1.0048   -0.5875   -1.4394 H   0  0  0  0  0  0  0  0  0  0  0  0
    0.1360    1.4171   -1.3569 C   0  0  0  0  0  0  0  0  0  0  0  0
   -0.8357    1.8243   -1.0669 H   0  0  0  0  0  0  0  0  0  0  0  0
    0.9007    2.0589   -0.9075 H   0  0  0  0  0  0  0  0  0  0  0  0
    0.3060    1.5427   -2.8686 C   0  0  0  0  0  0  0  0  0  0  0  0
    0.2809    0.5456   -3.5713 O   0  0  0  0  0  0  0  0  0  0  0  0
    0.4517    2.7950   -3.3585 O   0  0  0  0  0  0  0  0  0  0  0  0
    0.5639    2.6991   -4.3169 H   0  0  0  0  0  0  0  0  0  0  0  0
    0.9642    0.0437    0.5865 C   0  0  0  0  0  0  0  0  0  0  0  0
    2.1844    0.0261    0.6772 O   0  0  0  0  0  0  0  0  0  0  0  0
    0.2132    0.4170    1.6864 N   0  0  0  0  0  0  0  0  0  0  0  0
   -0.7919    0.3177    1.5894 H   0  0  0  0  0  0  0  0  0  0  0  0
    0.7792    0.5251    3.0251 C   0  0  0  0  0  0  0  0  0  0  0  0
    1.5863    1.2651    3.0421 H   0  0  0  0  0  0  0  0  0  0  0  0
    0.0100    0.8393    3.7371 H   0  0  0  0  0  0  0  0  0  0  0  0
    1.1802   -0.4411    3.3492 H   0  0  0  0  0  0  0  0  0  0  0  0
  1  2  1  0  0  0  0
  2  3  1  0  0  0  0
  2  4  1  0  0  0  0
  2  5  1  0  0  0  0
  5  6  2  0  0  0  0
  5  7  1  0  0  0  0
  7  8  1  0  0  0  0
  7  9  1  0  0  0  0
  9 10  1  0  0  0  0
  9 11  1  0  0  0  0
  9 18  1  0  0  0  0
 11 12  1  0  0  0  0
 11 13  1  0  0  0  0
 11 14  1  0  0  0  0
 14 15  2  0  0  0  0
 14 16  1  0  0  0  0
 16 17  1  0  0  0  0
 18 19  2  0  0  0  0
 18 20  1  0  0  0  0
 20 21  1  0  0  0  0
 20 22  1  0  0  0  0
 22 23  1  0  0  0  0
 22 24  1  0  0  0  0
 22 25  1  0  0  0  0
M  END
$$$$

  -OEChem-02102214113D

 25 24  0     1  0  0  0  0  0999 V2000
   -2.5164   -3.7014   -0.4386 H   0  0  0  0  0  0  0  0  0  0  0  0
   -2.5344   -2.6619   -0.7783 C   0  0  0  0  0  0  0  0  0  0  0  0
   -3.3626   -2.1453   -0.2875 H   0  0  0  0  0  0  0  0  0  0  0  0
   -2.6936   -2.6493   -1.8593 H   0  0  0  0  0  0  0  0  0  0  0  0
   -1.2227   -1.9792   -0.4390 C   0  0  0  0  0  0  0  0  0  0  0  0
   -0.3677   -2.5883    0.1785 O   0  0  0  0  0  0  0  0  0  0  0  0
   -1.0171   -0.6680   -0.8244 N   0  0  0  0  0  0  0  0  0  0  0  0
   -1.7015   -0.3014   -1.4804 H   0  0  0  0  0  0  0  0  0  0  0  0
    0.3034   -0.0096   -0.8061 C   0  0  1  0  0  0  0  0  0  0  0  0
    0.9987   -0.5713   -1.4422 H   0  0  0  0  0  0  0  0  0  0  0  0
    0.1329    1.4281   -1.3466 C   0  0  0  0  0  0  0  0  0  0  0  0
   -0.8391    1.8377   -1.0612 H   0  0  0  0  0  0  0  0  0  0  0  0
    0.8981    2.0696   -0.8970 H   0  0  0  0  0  0  0  0  0  0  0  0
    0.3080    1.5333   -2.8580 C   0  0  0  0  0  0  0  0  0  0  0  0
    0.0119    0.5811   -3.5620 O   0  0  0  0  0  0  0  0  0  0  0  0
    0.7638    2.7098   -3.3456 O   0  0  0  0  0  0  0  0  0  0  0  0
    0.8290    2.5985   -4.3064 H   0  0  0  0  0  0  0  0  0  0  0  0
    0.9631    0.0480    0.5903 C   0  0  0  0  0  0  0  0  0  0  0  0
    2.1834    0.0272    0.6782 O   0  0  0  0  0  0  0  0  0  0  0  0
    0.2141    0.4162    1.6932 N   0  0  0  0  0  0  0  0  0  0  0  0
   -0.7915    0.3190    1.5976 H   0  0  0  0  0  0  0  0  0  0  0  0
    0.7833    0.5215    3.0308 C   0  0  0  0  0  0  0  0  0  0  0  0
    1.5947    1.2569    3.0456 H   0  0  0  0  0  0  0  0  0  0  0  0
    0.0175    0.8406    3.7440 H   0  0  0  0  0  0  0  0  0  0  0  0
    1.1800   -0.4465    3.3547 H   0  0  0  0  0  0  0  0  0  0  0  0
  1  2  1  0  0  0  0
  2  3  1  0  0  0  0
  2  4  1  0  0  0  0
  2  5  1  0  0  0  0
  5  6  2  0  0  0  0
  5  7  1  0  0  0  0
  7  8  1  0  0  0  0
  7  9  1  0  0  0  0
  9 10  1  0  0  0  0
  9 11  1  0  0  0  0
  9 18  1  0  0  0  0
 11 12  1  0  0  0  0
 11 13  1  0  0  0  0
 11 14  1  0  0  0  0
 14 15  2  0  0  0  0
 14 16  1  0  0  0  0
 16 17  1  0  0  0  0
 18 19  2  0  0  0  0
 18 20  1  0  0  0  0
 20 21  1  0  0  0  0
 20 22  1  0  0  0  0
 22 23  1  0  0  0  0
 22 24  1  0  0  0  0
 22 25  1  0  0  0  0
M  END
$$$$

  -OEChem-02102214113D

 25 24  0     1  0  0  0  0  0999 V2000
   -2.5168   -3.6874   -0.4395 H   0  0  0  0  0  0  0  0  0  0  0  0
   -2.5272   -2.6519   -0.7916 C   0  0  0  0  0  0  0  0  0  0  0  0
   -3.3614   -2.1277   -0.3195 H   0  0  0  0  0  0  0  0  0  0  0  0
   -2.6701   -2.6509   -1.8749 H   0  0  0  0  0  0  0  0  0  0  0  0
   -1.2191   -1.9682   -0.4411 C   0  0  0  0  0  0  0  0  0  0  0  0
   -0.3659   -2.5774    0.1788 O   0  0  0  0  0  0  0  0  0  0  0  0
   -1.0139   -0.6557   -0.8217 N   0  0  0  0  0  0  0  0  0  0  0  0
   -1.6941   -0.2905   -1.4838 H   0  0  0  0  0  0  0  0  0  0  0  0
    0.3050    0.0048   -0.8010 C   0  0  1  0  0  0  0  0  0  0  0  0
    0.9999   -0.5525   -1.4413 H   0  0  0  0  0  0  0  0  0  0  0  0
    0.1282    1.4408   -1.3398 C   0  0  0  0  0  0  0  0  0  0  0  0
   -0.8468    1.8478   -1.0610 H   0  0  0  0  0  0  0  0  0  0  0  0
    0.8892    2.0884   -0.8919 H   0  0  0  0  0  0  0  0  0  0  0  0
    0.3080    1.5193   -2.8506 C   0  0  0  0  0  0  0  0  0  0  0  0
   -0.2349    0.6757   -3.5463 O   0  0  0  0  0  0  0  0  0  0  0  0
    1.0444    2.5394   -3.3472 O   0  0  0  0  0  0  0  0  0  0  0  0
    1.0604    2.4214   -4.3093 H   0  0  0  0  0  0  0  0  0  0  0  0
    0.9652    0.0595    0.5951 C   0  0  0  0  0  0  0  0  0  0  0  0
    2.1856    0.0378    0.6821 O   0  0  0  0  0  0  0  0  0  0  0  0
    0.2161    0.4228    1.6994 N   0  0  0  0  0  0  0  0  0  0  0  0
   -0.7890    0.3210    1.6028 H   0  0  0  0  0  0  0  0  0  0  0  0
    0.7843    0.5082    3.0388 C   0  0  0  0  0  0  0  0  0  0  0  0
    1.5937    1.2454    3.0657 H   0  0  0  0  0  0  0  0  0  0  0  0
    0.0172    0.8135    3.7568 H   0  0  0  0  0  0  0  0  0  0  0  0
    1.1830   -0.4643    3.3469 H   0  0  0  0  0  0  0  0  0  0  0  0
  1  2  1  0  0  0  0
  2  3  1  0  0  0  0
  2  4  1  0  0  0  0
  2  5  1  0  0  0  0
  5  6  2  0  0  0  0
  5  7  1  0  0  0  0
  7  8  1  0  0  0  0
  7  9  1  0  0  0  0
  9 10  1  0  0  0  0
  9 11  1  0  0  0  0
  9 18  1  0  0  0  0
 11 12  1  0  0  0  0
 11 13  1  0  0  0  0
 11 14  1  0  0  0  0
 14 15  2  0  0  0  0
 14 16  1  0  0  0  0
 16 17  1  0  0  0  0
 18 19  2  0  0  0  0
 18 20  1  0  0  0  0
 20 21  1  0  0  0  0
 20 22  1  0  0  0  0
 22 23  1  0  0  0  0
 22 24  1  0  0  0  0
 22 25  1  0  0  0  0
M  END
$$$$

  -OEChem-02102214113D

 25 24  0     1  0  0  0  0  0999 V2000
   -2.5193   -3.6773   -0.4379 H   0  0  0  0  0  0  0  0  0  0  0  0
   -2.5233   -2.6446   -0.7982 C   0  0  0  0  0  0  0  0  0  0  0  0
   -3.3563   -2.1126   -0.3325 H   0  0  0  0  0  0  0  0  0  0  0  0
   -2.6635   -2.6518   -1.8819 H   0  0  0  0  0  0  0  0  0  0  0  0
   -1.2126   -1.9648   -0.4498 C   0  0  0  0  0  0  0  0  0  0  0  0
   -0.3557   -2.5801    0.1589 O   0  0  0  0  0  0  0  0  0  0  0  0
   -1.0052   -0.6513   -0.8255 N   0  0  0  0  0  0  0  0  0  0  0  0
   -1.6901   -0.2766   -1.4782 H   0  0  0  0  0  0  0  0  0  0  0  0
    0.3125    0.0111   -0.7996 C   0  0  1  0  0  0  0  0  0  0  0  0
    1.0100   -0.5412   -1.4412 H   0  0  0  0  0  0  0  0  0  0  0  0
    0.1270    1.4458   -1.3341 C   0  0  0  0  0  0  0  0  0  0  0  0
   -0.8517    1.8475   -1.0600 H   0  0  0  0  0  0  0  0  0  0  0  0
    0.8824    2.1005   -0.8873 H   0  0  0  0  0  0  0  0  0  0  0  0
    0.3107    1.5064   -2.8433 C   0  0  0  0  0  0  0  0  0  0  0  0
   -0.4380    0.8362   -3.5365 O   0  0  0  0  0  0  0  0  0  0  0  0
    1.2798    2.3080   -3.3409 O   0  0  0  0  0  0  0  0  0  0  0  0
    1.2513    2.2074   -4.3046 H   0  0  0  0  0  0  0  0  0  0  0  0
    0.9693    0.0632    0.5980 C   0  0  0  0  0  0  0  0  0  0  0  0
    2.1891    0.0349    0.6896 O   0  0  0  0  0  0  0  0  0  0  0  0
    0.2168    0.4226    1.7010 N   0  0  0  0  0  0  0  0  0  0  0  0
   -0.7888    0.3313    1.5989 H   0  0  0  0  0  0  0  0  0  0  0  0
    0.7795    0.5044    3.0428 C   0  0  0  0  0  0  0  0  0  0  0  0
    1.5836    1.2470    3.0768 H   0  0  0  0  0  0  0  0  0  0  0  0
    0.0077    0.8001    3.7596 H   0  0  0  0  0  0  0  0  0  0  0  0
    1.1838   -0.4668    3.3471 H   0  0  0  0  0  0  0  0  0  0  0  0
  1  2  1  0  0  0  0
  2  3  1  0  0  0  0
  2  4  1  0  0  0  0
  2  5  1  0  0  0  0
  5  6  2  0  0  0  0
  5  7  1  0  0  0  0
  7  8  1  0  0  0  0
  7  9  1  0  0  0  0
  9 10  1  0  0  0  0
  9 11  1  0  0  0  0
  9 18  1  0  0  0  0
 11 12  1  0  0  0  0
 11 13  1  0  0  0  0
 11 14  1  0  0  0  0
 14 15  2  0  0  0  0
 14 16  1  0  0  0  0
 16 17  1  0  0  0  0
 18 19  2  0  0  0  0
 18 20  1  0  0  0  0
 20 21  1  0  0  0  0
 20 22  1  0  0  0  0
 22 23  1  0  0  0  0
 22 24  1  0  0  0  0
 22 25  1  0  0  0  0
M  END
$$$$

  -OEChem-02102214113D

 25 24  0     1  0  0  0  0  0999 V2000
   -2.4860   -3.6943   -0.5059 H   0  0  0  0  0  0  0  0  0  0  0  0
   -2.5199   -2.6405   -0.7969 C   0  0  0  0  0  0  0  0  0  0  0  0
   -3.3369   -2.1526   -0.2603 H   0  0  0  0  0  0  0  0  0  0  0  0
   -2.7102   -2.5799   -1.8712 H   0  0  0  0  0  0  0  0  0  0  0  0
   -1.2030   -1.9648   -0.4637 C   0  0  0  0  0  0  0  0  0  0  0  0
   -0.3369   -2.5856    0.1262 O   0  0  0  0  0  0  0  0  0  0  0  0
   -0.9974   -0.6496   -0.8342 N   0  0  0  0  0  0  0  0  0  0  0  0
   -1.6942   -0.2603   -1.4658 H   0  0  0  0  0  0  0  0  0  0  0  0
    0.3174    0.0176   -0.8006 C   0  0  1  0  0  0  0  0  0  0  0  0
    1.0206   -0.5298   -1.4404 H   0  0  0  0  0  0  0  0  0  0  0  0
    0.1237    1.4496   -1.3341 C   0  0  0  0  0  0  0  0  0  0  0  0
   -0.8595    1.8454   -1.0657 H   0  0  0  0  0  0  0  0  0  0  0  0
    0.8729    2.1126   -0.8892 H   0  0  0  0  0  0  0  0  0  0  0  0
    0.3161    1.4919   -2.8413 C   0  0  0  0  0  0  0  0  0  0  0  0
   -0.5809    1.0436   -3.5370 O   0  0  0  0  0  0  0  0  0  0  0  0
    1.4626    2.0140   -3.3332 O   0  0  0  0  0  0  0  0  0  0  0  0
    1.4074    1.9403   -4.2981 H   0  0  0  0  0  0  0  0  0  0  0  0
    0.9688    0.0688    0.5998 C   0  0  0  0  0  0  0  0  0  0  0  0
    2.1879    0.0378    0.6969 O   0  0  0  0  0  0  0  0  0  0  0  0
    0.2125    0.4224    1.7023 N   0  0  0  0  0  0  0  0  0  0  0  0
   -0.7930    0.3351    1.5967 H   0  0  0  0  0  0  0  0  0  0  0  0
    0.7715    0.5070    3.0458 C   0  0  0  0  0  0  0  0  0  0  0  0
    1.5880    1.2363    3.0770 H   0  0  0  0  0  0  0  0  0  0  0  0
    0.0022    0.8227    3.7569 H   0  0  0  0  0  0  0  0  0  0  0  0
    1.1583   -0.4681    3.3604 H   0  0  0  0  0  0  0  0  0  0  0  0
  1  2  1  0  0  0  0
  2  3  1  0  0  0  0
  2  4  1  0  0  0  0
  2  5  1  0  0  0  0
  5  6  2  0  0  0  0
  5  7  1  0  0  0  0
  7  8  1  0  0  0  0
  7  9  1  0  0  0  0
  9 10  1  0  0  0  0
  9 11  1  0  0  0  0
  9 18  1  0  0  0  0
 11 12  1  0  0  0  0
 11 13  1  0  0  0  0
 11 14  1  0  0  0  0
 14 15  2  0  0  0  0
 14 16  1  0  0  0  0
 16 17  1  0  0  0  0
 18 19  2  0  0  0  0
 18 20  1  0  0  0  0
 20 21  1  0  0  0  0
 20 22  1  0  0  0  0
 22 23  1  0  0  0  0
 22 24  1  0  0  0  0
 22 25  1  0  0  0  0
M  END
$$$$

  -OEChem-02102214113D

 25 24  0     1  0  0  0  0  0999 V2000
   -2.4897   -3.6880   -0.4787 H   0  0  0  0  0  0  0  0  0  0  0  0
   -2.5203   -2.6347   -0.7721 C   0  0  0  0  0  0  0  0  0  0  0  0
   -3.3161   -2.1364   -0.2135 H   0  0  0  0  0  0  0  0  0  0  0  0
   -2.7409   -2.5750   -1.8406 H   0  0  0  0  0  0  0  0  0  0  0  0
   -1.1872   -1.9726   -0.4789 C   0  0  0  0  0  0  0  0  0  0  0  0
   -0.3078   -2.6039    0.0788 O   0  0  0  0  0  0  0  0  0  0  0  0
   -0.9816   -0.6568   -0.8473 N   0  0  0  0  0  0  0  0  0  0  0  0
   -1.6995   -0.2459   -1.4400 H   0  0  0  0  0  0  0  0  0  0  0  0
    0.3303    0.0162   -0.8087 C   0  0  1  0  0  0  0  0  0  0  0  0
    1.0400   -0.5268   -1.4455 H   0  0  0  0  0  0  0  0  0  0  0  0
    0.1287    1.4466   -1.3405 C   0  0  0  0  0  0  0  0  0  0  0  0
   -0.8563    1.8377   -1.0713 H   0  0  0  0  0  0  0  0  0  0  0  0
    0.8753    2.1134   -0.8973 H   0  0  0  0  0  0  0  0  0  0  0  0
    0.3253    1.4860   -2.8463 C   0  0  0  0  0  0  0  0  0  0  0  0
   -0.6553    1.2984   -3.5475 O   0  0  0  0  0  0  0  0  0  0  0  0
    1.5671    1.7130   -3.3309 O   0  0  0  0  0  0  0  0  0  0  0  0
    1.4943    1.6929   -4.2971 H   0  0  0  0  0  0  0  0  0  0  0  0
    0.9723    0.0675    0.5958 C   0  0  0  0  0  0  0  0  0  0  0  0
    2.1904    0.0373    0.7042 O   0  0  0  0  0  0  0  0  0  0  0  0
    0.2055    0.4169    1.6925 N   0  0  0  0  0  0  0  0  0  0  0  0
   -0.7994    0.3364    1.5769 H   0  0  0  0  0  0  0  0  0  0  0  0
    0.7520    0.5020    3.0409 C   0  0  0  0  0  0  0  0  0  0  0  0
    1.5654    1.2342    3.0802 H   0  0  0  0  0  0  0  0  0  0  0  0
   -0.0249    0.8139    3.7453 H   0  0  0  0  0  0  0  0  0  0  0  0
    1.1393   -0.4720    3.3580 H   0  0  0  0  0  0  0  0  0  0  0  0
  1  2  1  0  0  0  0
  2  3  1  0  0  0  0
  2  4  1  0  0  0  0
  2  5  1  0  0  0  0
  5  6  2  0  0  0  0
  5  7  1  0  0  0  0
  7  8  1  0  0  0  0
  7  9  1  0  0  0  0
  9 10  1  0  0  0  0
  9 11  1  0  0  0  0
  9 18  1  0  0  0  0
 11 12  1  0  0  0  0
 11 13  1  0  0  0  0
 11 14  1  0  0  0  0
 14 15  2  0  0  0  0
 14 16  1  0  0  0  0
 16 17  1  0  0  0  0
 18 19  2  0  0  0  0
 18 20  1  0  0  0  0
 20 21  1  0  0  0  0
 20 22  1  0  0  0  0
 22 23  1  0  0  0  0
 22 24  1  0  0  0  0
 22 25  1  0  0  0  0
M  END
$$$$

  -OEChem-02102214113D

 25 24  0     1  0  0  0  0  0999 V2000
   -2.4947   -3.6891   -0.4618 H   0  0  0  0  0  0  0  0  0  0  0  0
   -2.5235   -2.6363   -0.7573 C   0  0  0  0  0  0  0  0  0  0  0  0
   -3.3086   -2.1324   -0.1890 H   0  0  0  0  0  0  0  0  0  0  0  0
   -2.7586   -2.5780   -1.8228 H   0  0  0  0  0  0  0  0  0  0  0  0
   -1.1827   -1.9807   -0.4842 C   0  0  0  0  0  0  0  0  0  0  0  0
   -0.2969   -2.6175    0.0567 O   0  0  0  0  0  0  0  0  0  0  0  0
   -0.9765   -0.6651   -0.8535 N   0  0  0  0  0  0  0  0  0  0  0  0
   -1.7110   -0.2371   -1.4122 H   0  0  0  0  0  0  0  0  0  0  0  0
    0.3339    0.0110   -0.8124 C   0  0  1  0  0  0  0  0  0  0  0  0
    1.0472   -0.5329   -1.4444 H   0  0  0  0  0  0  0  0  0  0  0  0
    0.1321    1.4390   -1.3504 C   0  0  0  0  0  0  0  0  0  0  0  0
   -0.8539    1.8292   -1.0825 H   0  0  0  0  0  0  0  0  0  0  0  0
    0.8773    2.1076   -0.9079 H   0  0  0  0  0  0  0  0  0  0  0  0
    0.3342    1.4785   -2.8563 C   0  0  0  0  0  0  0  0  0  0  0  0
   -0.6591    1.5703   -3.5579 O   0  0  0  0  0  0  0  0  0  0  0  0
    1.5948    1.4062   -3.3409 O   0  0  0  0  0  0  0  0  0  0  0  0
    1.5225    1.4518   -4.3064 H   0  0  0  0  0  0  0  0  0  0  0  0
    0.9716    0.0658    0.5945 C   0  0  0  0  0  0  0  0  0  0  0  0
    2.1892    0.0364    0.7076 O   0  0  0  0  0  0  0  0  0  0  0  0
    0.2017    0.4149    1.6893 N   0  0  0  0  0  0  0  0  0  0  0  0
   -0.8031    0.3401    1.5706 H   0  0  0  0  0  0  0  0  0  0  0  0
    0.7446    0.5022    3.0391 C   0  0  0  0  0  0  0  0  0  0  0  0
    1.5542    1.2386    3.0801 H   0  0  0  0  0  0  0  0  0  0  0  0
   -0.0352    0.8098    3.7421 H   0  0  0  0  0  0  0  0  0  0  0  0
    1.1365   -0.4699    3.3568 H   0  0  0  0  0  0  0  0  0  0  0  0
  1  2  1  0  0  0  0
  2  3  1  0  0  0  0
  2  4  1  0  0  0  0
  2  5  1  0  0  0  0
  5  6  2  0  0  0  0
  5  7  1  0  0  0  0
  7  8  1  0  0  0  0
  7  9  1  0  0  0  0
  9 10  1  0  0  0  0
  9 11  1  0  0  0  0
  9 18  1  0  0  0  0
 11 12  1  0  0  0  0
 11 13  1  0  0  0  0
 11 14  1  0  0  0  0
 14 15  2  0  0  0  0
 14 16  1  0  0  0  0
 16 17  1  0  0  0  0
 18 19  2  0  0  0  0
 18 20  1  0  0  0  0
 20 21  1  0  0  0  0
 20 22  1  0  0  0  0
 22 23  1  0  0  0  0
 22 24  1  0  0  0  0
 22 25  1  0  0  0  0
M  END
$$$$

  -OEChem-02102214113D

 25 24  0     1  0  0  0  0  0999 V2000
   -2.5080   -3.6908   -0.4287 H   0  0  0  0  0  0  0  0  0  0  0  0
   -2.5323   -2.6411   -0.7354 C   0  0  0  0  0  0  0  0  0  0  0  0
   -3.3070   -2.1256   -0.1629 H   0  0  0  0  0  0  0  0  0  0  0  0
   -2.7790   -2.5922   -1.7988 H   0  0  0  0  0  0  0  0  0  0  0  0
   -1.1832   -1.9936   -0.4846 C   0  0  0  0  0  0  0  0  0  0  0  0
   -0.2936   -2.6345    0.0449 O   0  0  0  0  0  0  0  0  0  0  0  0
   -0.9740   -0.6796   -0.8581 N   0  0  0  0  0  0  0  0  0  0  0  0
   -1.7186   -0.2401   -1.3932 H   0  0  0  0  0  0  0  0  0  0  0  0
    0.3372   -0.0045   -0.8177 C   0  0  1  0  0  0  0  0  0  0  0  0
    1.0503   -0.5543   -1.4444 H   0  0  0  0  0  0  0  0  0  0  0  0
    0.1405    1.4242   -1.3599 C   0  0  0  0  0  0  0  0  0  0  0  0
   -0.8436    1.8160   -1.0875 H   0  0  0  0  0  0  0  0  0  0  0  0
    0.8894    2.0878   -0.9163 H   0  0  0  0  0  0  0  0  0  0  0  0
    0.3423    1.4786   -2.8670 C   0  0  0  0  0  0  0  0  0  0  0  0
   -0.5953    1.8542   -3.5498 O   0  0  0  0  0  0  0  0  0  0  0  0
    1.5477    1.1304   -3.3727 O   0  0  0  0  0  0  0  0  0  0  0  0
    1.4897    1.2531   -4.3324 H   0  0  0  0  0  0  0  0  0  0  0  0
    0.9710    0.0537    0.5907 C   0  0  0  0  0  0  0  0  0  0  0  0
    2.1884    0.0302    0.7073 O   0  0  0  0  0  0  0  0  0  0  0  0
    0.1973    0.4070    1.6818 N   0  0  0  0  0  0  0  0  0  0  0  0
   -0.8073    0.3321    1.5611 H   0  0  0  0  0  0  0  0  0  0  0  0
    0.7366    0.5087    3.0322 C   0  0  0  0  0  0  0  0  0  0  0  0
    1.5389    1.2531    3.0698 H   0  0  0  0  0  0  0  0  0  0  0  0
   -0.0479    0.8134    3.7314 H   0  0  0  0  0  0  0  0  0  0  0  0
    1.1372   -0.4571    3.3576 H   0  0  0  0  0  0  0  0  0  0  0  0
  1  2  1  0  0  0  0
  2  3  1  0  0  0  0
  2  4  1  0  0  0  0
  2  5  1  0  0  0  0
  5  6  2  0  0  0  0
  5  7  1  0  0  0  0
  7  8  1  0  0  0  0
  7  9  1  0  0  0  0
  9 10  1  0  0  0  0
  9 11  1  0  0  0  0
  9 18  1  0  0  0  0
 11 12  1  0  0  0  0
 11 13  1  0  0  0  0
 11 14  1  0  0  0  0
 14 15  2  0  0  0  0
 14 16  1  0  0  0  0
 16 17  1  0  0  0  0
 18 19  2  0  0  0  0
 18 20  1  0  0  0  0
 20 21  1  0  0  0  0
 20 22  1  0  0  0  0
 22 23  1  0  0  0  0
 22 24  1  0  0  0  0
 22 25  1  0  0  0  0
M  END
$$$$

  -OEChem-02102214113D

 25 24  0     1  0  0  0  0  0999 V2000
   -2.5020   -3.7036   -0.4228 H   0  0  0  0  0  0  0  0  0  0  0  0
   -2.5368   -2.6473   -0.7050 C   0  0  0  0  0  0  0  0  0  0  0  0
   -3.2962   -2.1462   -0.1001 H   0  0  0  0  0  0  0  0  0  0  0  0
   -2.8133   -2.5756   -1.7596 H   0  0  0  0  0  0  0  0  0  0  0  0
   -1.1822   -2.0029   -0.4769 C   0  0  0  0  0  0  0  0  0  0  0  0
   -0.2892   -2.6430    0.0478 O   0  0  0  0  0  0  0  0  0  0  0  0
   -0.9730   -0.6914   -0.8599 N   0  0  0  0  0  0  0  0  0  0  0  0
   -1.7238   -0.2489   -1.3832 H   0  0  0  0  0  0  0  0  0  0  0  0
    0.3384   -0.0156   -0.8223 C   0  0  1  0  0  0  0  0  0  0  0  0
    1.0525   -0.5758   -1.4380 H   0  0  0  0  0  0  0  0  0  0  0  0
    0.1472    1.4110   -1.3775 C   0  0  0  0  0  0  0  0  0  0  0  0
   -0.8365    1.8044   -1.1053 H   0  0  0  0  0  0  0  0  0  0  0  0
    0.8970    2.0723   -0.9324 H   0  0  0  0  0  0  0  0  0  0  0  0
    0.3491    1.4821   -2.8862 C   0  0  0  0  0  0  0  0  0  0  0  0
   -0.4674    2.1177   -3.5305 O   0  0  0  0  0  0  0  0  0  0  0  0
    1.4312    0.8823   -3.4344 O   0  0  0  0  0  0  0  0  0  0  0  0
    1.4007    1.0755   -4.3838 H   0  0  0  0  0  0  0  0  0  0  0  0
    0.9677    0.0516    0.5881 C   0  0  0  0  0  0  0  0  0  0  0  0
    2.1846    0.0259    0.7098 O   0  0  0  0  0  0  0  0  0  0  0  0
    0.1910    0.4118    1.6746 N   0  0  0  0  0  0  0  0  0  0  0  0
   -0.8130    0.3378    1.5495 H   0  0  0  0  0  0  0  0  0  0  0  0
    0.7236    0.5060    3.0282 C   0  0  0  0  0  0  0  0  0  0  0  0
    1.5384    1.2364    3.0707 H   0  0  0  0  0  0  0  0  0  0  0  0
   -0.0598    0.8253    3.7218 H   0  0  0  0  0  0  0  0  0  0  0  0
    1.1051   -0.4664    3.3572 H   0  0  0  0  0  0  0  0  0  0  0  0
  1  2  1  0  0  0  0
  2  3  1  0  0  0  0
  2  4  1  0  0  0  0
  2  5  1  0  0  0  0
  5  6  2  0  0  0  0
  5  7  1  0  0  0  0
  7  8  1  0  0  0  0
  7  9  1  0  0  0  0
  9 10  1  0  0  0  0
  9 11  1  0  0  0  0
  9 18  1  0  0  0  0
 11 12  1  0  0  0  0
 11 13  1  0  0  0  0
 11 14  1  0  0  0  0
 14 15  2  0  0  0  0
 14 16  1  0  0  0  0
 16 17  1  0  0  0  0
 18 19  2  0  0  0  0
 18 20  1  0  0  0  0
 20 21  1  0  0  0  0
 20 22  1  0  0  0  0
 22 23  1  0  0  0  0
 22 24  1  0  0  0  0
 22 25  1  0  0  0  0
M  END
$$$$

  -OEChem-02102214113D

 25 24  0     1  0  0  0  0  0999 V2000
   -2.5138   -3.7142   -0.4182 H   0  0  0  0  0  0  0  0  0  0  0  0
   -2.5455   -2.6586   -0.7030 C   0  0  0  0  0  0  0  0  0  0  0  0
   -3.3100   -2.1557   -0.1061 H   0  0  0  0  0  0  0  0  0  0  0  0
   -2.8124   -2.5891   -1.7603 H   0  0  0  0  0  0  0  0  0  0  0  0
   -1.1932   -2.0137   -0.4639 C   0  0  0  0  0  0  0  0  0  0  0  0
   -0.3066   -2.6514    0.0745 O   0  0  0  0  0  0  0  0  0  0  0  0
   -0.9793   -0.7053   -0.8546 N   0  0  0  0  0  0  0  0  0  0  0  0
   -1.7259   -0.2666   -1.3861 H   0  0  0  0  0  0  0  0  0  0  0  0
    0.3348   -0.0348   -0.8205 C   0  0  1  0  0  0  0  0  0  0  0  0
    1.0472   -0.6044   -1.4286 H   0  0  0  0  0  0  0  0  0  0  0  0
    0.1535    1.3933   -1.3806 C   0  0  0  0  0  0  0  0  0  0  0  0
   -0.8272    1.7905   -1.1042 H   0  0  0  0  0  0  0  0  0  0  0  0
    0.9072    2.0476   -0.9316 H   0  0  0  0  0  0  0  0  0  0  0  0
    0.3504    1.4915   -2.8904 C   0  0  0  0  0  0  0  0  0  0  0  0
   -0.2833    2.3540   -3.4731 O   0  0  0  0  0  0  0  0  0  0  0  0
    1.2262    0.6650   -3.5087 O   0  0  0  0  0  0  0  0  0  0  0  0
    1.2345    0.9252   -4.4425 H   0  0  0  0  0  0  0  0  0  0  0  0
    0.9649    0.0386    0.5891 C   0  0  0  0  0  0  0  0  0  0  0  0
    2.1822    0.0155    0.7081 O   0  0  0  0  0  0  0  0  0  0  0  0
    0.1914    0.4087    1.6746 N   0  0  0  0  0  0  0  0  0  0  0  0
   -0.8132    0.3385    1.5532 H   0  0  0  0  0  0  0  0  0  0  0  0
    0.7293    0.5243    3.0245 C   0  0  0  0  0  0  0  0  0  0  0  0
    1.5413    1.2587    3.0526 H   0  0  0  0  0  0  0  0  0  0  0  0
   -0.0525    0.8502    3.7172 H   0  0  0  0  0  0  0  0  0  0  0  0
    1.1165   -0.4418    3.3653 H   0  0  0  0  0  0  0  0  0  0  0  0
  1  2  1  0  0  0  0
  2  3  1  0  0  0  0
  2  4  1  0  0  0  0
  2  5  1  0  0  0  0
  5  6  2  0  0  0  0
  5  7  1  0  0  0  0
  7  8  1  0  0  0  0
  7  9  1  0  0  0  0
  9 10  1  0  0  0  0
  9 11  1  0  0  0  0
  9 18  1  0  0  0  0
 11 12  1  0  0  0  0
 11 13  1  0  0  0  0
 11 14  1  0  0  0  0
 14 15  2  0  0  0  0
 14 16  1  0  0  0  0
 16 17  1  0  0  0  0
 18 19  2  0  0  0  0
 18 20  1  0  0  0  0
 20 21  1  0  0  0  0
 20 22  1  0  0  0  0
 22 23  1  0  0  0  0
 22 24  1  0  0  0  0
 22 25  1  0  0  0  0
M  END
$$$$

  -OEChem-02102214113D

 25 24  0     1  0  0  0  0  0999 V2000
   -2.5147   -3.7193   -0.4220 H   0  0  0  0  0  0  0  0  0  0  0  0
   -2.5445   -2.6648   -0.7110 C   0  0  0  0  0  0  0  0  0  0  0  0
   -3.3221   -2.1622   -0.1310 H   0  0  0  0  0  0  0  0  0  0  0  0
   -2.7909   -2.6002   -1.7736 H   0  0  0  0  0  0  0  0  0  0  0  0
   -1.1991   -2.0144   -0.4486 C   0  0  0  0  0  0  0  0  0  0  0  0
   -0.3225   -2.6448    0.1143 O   0  0  0  0  0  0  0  0  0  0  0  0
   -0.9831   -0.7083   -0.8458 N   0  0  0  0  0  0  0  0  0  0  0  0
   -1.7159   -0.2860   -1.4085 H   0  0  0  0  0  0  0  0  0  0  0  0
    0.3336   -0.0426   -0.8159 C   0  0  1  0  0  0  0  0  0  0  0  0
    1.0450   -0.6171   -1.4204 H   0  0  0  0  0  0  0  0  0  0  0  0
    0.1602    1.3866   -1.3793 C   0  0  0  0  0  0  0  0  0  0  0  0
   -0.8195    1.7859   -1.1030 H   0  0  0  0  0  0  0  0  0  0  0  0
    0.9155    2.0373   -0.9269 H   0  0  0  0  0  0  0  0  0  0  0  0
    0.3525    1.4993   -2.8901 C   0  0  0  0  0  0  0  0  0  0  0  0
   -0.0446    2.5251   -3.4140 O   0  0  0  0  0  0  0  0  0  0  0  0
    0.9285    0.4871   -3.5810 O   0  0  0  0  0  0  0  0  0  0  0  0
    0.9782    0.7828   -4.5032 H   0  0  0  0  0  0  0  0  0  0  0  0
    0.9649    0.0341    0.5931 C   0  0  0  0  0  0  0  0  0  0  0  0
    2.1826    0.0122    0.7096 O   0  0  0  0  0  0  0  0  0  0  0  0
    0.1932    0.4116    1.6773 N   0  0  0  0  0  0  0  0  0  0  0  0
   -0.8116    0.3371    1.5583 H   0  0  0  0  0  0  0  0  0  0  0  0
    0.7336    0.5338    3.0256 C   0  0  0  0  0  0  0  0  0  0  0  0
    1.5457    1.2683    3.0490 H   0  0  0  0  0  0  0  0  0  0  0  0
   -0.0470    0.8630    3.7178 H   0  0  0  0  0  0  0  0  0  0  0  0
    1.1218   -0.4303    3.3708 H   0  0  0  0  0  0  0  0  0  0  0  0
  1  2  1  0  0  0  0
  2  3  1  0  0  0  0
  2  4  1  0  0  0  0
  2  5  1  0  0  0  0
  5  6  2  0  0  0  0
  5  7  1  0  0  0  0
  7  8  1  0  0  0  0
  7  9  1  0  0  0  0
  9 10  1  0  0  0  0
  9 11  1  0  0  0  0
  9 18  1  0  0  0  0
 11 12  1  0  0  0  0
 11 13  1  0  0  0  0
 11 14  1  0  0  0  0
 14 15  2  0  0  0  0
 14 16  1  0  0  0  0
 16 17  1  0  0  0  0
 18 19  2  0  0  0  0
 18 20  1  0  0  0  0
 20 21  1  0  0  0  0
 20 22  1  0  0  0  0
 22 23  1  0  0  0  0
 22 24  1  0  0  0  0
 22 25  1  0  0  0  0
M  END
$$$$

  -OEChem-02102214113D

 25 24  0     1  0  0  0  0  0999 V2000
   -2.5369   -3.7104   -0.3549 H   0  0  0  0  0  0  0  0  0  0  0  0
   -2.5426   -2.6842   -0.7335 C   0  0  0  0  0  0  0  0  0  0  0  0
   -3.3597   -2.1380   -0.2564 H   0  0  0  0  0  0  0  0  0  0  0  0
   -2.7101   -2.7099   -1.8129 H   0  0  0  0  0  0  0  0  0  0  0  0
   -1.2182   -2.0091   -0.4299 C   0  0  0  0  0  0  0  0  0  0  0  0
   -0.3507   -2.6230    0.1649 O   0  0  0  0  0  0  0  0  0  0  0  0
   -1.0106   -0.7019   -0.8274 N   0  0  0  0  0  0  0  0  0  0  0  0
   -1.7137   -0.3190   -1.4528 H   0  0  0  0  0  0  0  0  0  0  0  0
    0.3077   -0.0389   -0.8053 C   0  0  1  0  0  0  0  0  0  0  0  0
    1.0063   -0.6082   -1.4306 H   0  0  0  0  0  0  0  0  0  0  0  0
    0.1523    1.3880   -1.3691 C   0  0  0  0  0  0  0  0  0  0  0  0
   -0.6988    1.8840   -0.8946 H   0  0  0  0  0  0  0  0  0  0  0  0
    1.0512    1.9622   -1.1219 H   0  0  0  0  0  0  0  0  0  0  0  0
   -0.0121    1.4471   -2.8851 C   0  0  0  0  0  0  0  0  0  0  0  0
   -0.1385    2.5517   -3.3821 O   0  0  0  0  0  0  0  0  0  0  0  0
   -0.0578    0.2987   -3.6031 O   0  0  0  0  0  0  0  0  0  0  0  0
   -0.1360    0.5684   -4.5318 H   0  0  0  0  0  0  0  0  0  0  0  0
    0.9589    0.0390    0.5935 C   0  0  0  0  0  0  0  0  0  0  0  0
    2.1785    0.0164    0.6902 O   0  0  0  0  0  0  0  0  0  0  0  0
    0.2030    0.4182    1.6878 N   0  0  0  0  0  0  0  0  0  0  0  0
   -0.8029    0.3336    1.5851 H   0  0  0  0  0  0  0  0  0  0  0  0
    0.7636    0.5449    3.0271 C   0  0  0  0  0  0  0  0  0  0  0  0
    1.5648    1.2914    3.0387 H   0  0  0  0  0  0  0  0  0  0  0  0
   -0.0100    0.8605    3.7333 H   0  0  0  0  0  0  0  0  0  0  0  0
    1.1710   -0.4145    3.3630 H   0  0  0  0  0  0  0  0  0  0  0  0
  1  2  1  0  0  0  0
  2  3  1  0  0  0  0
  2  4  1  0  0  0  0
  2  5  1  0  0  0  0
  5  6  2  0  0  0  0
  5  7  1  0  0  0  0
  7  8  1  0  0  0  0
  7  9  1  0  0  0  0
  9 10  1  0  0  0  0
  9 11  1  0  0  0  0
  9 18  1  0  0  0  0
 11 12  1  0  0  0  0
 11 13  1  0  0  0  0
 11 14  1  0  0  0  0
 14 15  2  0  0  0  0
 14 16  1  0  0  0  0
 16 17  1  0  0  0  0
 18 19  2  0  0  0  0
 18 20  1  0  0  0  0
 20 21  1  0  0  0  0
 20 22  1  0  0  0  0
 22 23  1  0  0  0  0
 22 24  1  0  0  0  0
 22 25  1  0  0  0  0
M  END
$$$$

  -OEChem-02102214113D

 25 24  0     1  0  0  0  0  0999 V2000
   -2.5251   -3.7196   -0.3868 H   0  0  0  0  0  0  0  0  0  0  0  0
   -2.5368   -2.6878   -0.7497 C   0  0  0  0  0  0  0  0  0  0  0  0
   -3.3694   -2.1592   -0.2795 H   0  0  0  0  0  0  0  0  0  0  0  0
   -2.6838   -2.6980   -1.8324 H   0  0  0  0  0  0  0  0  0  0  0  0
   -1.2271   -2.0008   -0.4112 C   0  0  0  0  0  0  0  0  0  0  0  0
   -0.3746   -2.6030    0.2165 O   0  0  0  0  0  0  0  0  0  0  0  0
   -1.0181   -0.6961   -0.8158 N   0  0  0  0  0  0  0  0  0  0  0  0
   -1.6941   -0.3436   -1.4886 H   0  0  0  0  0  0  0  0  0  0  0  0
    0.3029   -0.0388   -0.8012 C   0  0  1  0  0  0  0  0  0  0  0  0
    0.9954   -0.6104   -1.4311 H   0  0  0  0  0  0  0  0  0  0  0  0
    0.1513    1.3880   -1.3670 C   0  0  0  0  0  0  0  0  0  0  0  0
   -0.6973    1.8875   -0.8926 H   0  0  0  0  0  0  0  0  0  0  0  0
    1.0525    1.9604   -1.1227 H   0  0  0  0  0  0  0  0  0  0  0  0
   -0.0196    1.4394   -2.8826 C   0  0  0  0  0  0  0  0  0  0  0  0
    0.1368    2.5196   -3.4227 O   0  0  0  0  0  0  0  0  0  0  0  0
   -0.4092    0.3246   -3.5489 O   0  0  0  0  0  0  0  0  0  0  0  0
   -0.4452    0.5782   -4.4851 H   0  0  0  0  0  0  0  0  0  0  0  0
    0.9590    0.0419    0.5954 C   0  0  0  0  0  0  0  0  0  0  0  0
    2.1788    0.0105    0.6873 O   0  0  0  0  0  0  0  0  0  0  0  0
    0.2087    0.4288    1.6910 N   0  0  0  0  0  0  0  0  0  0  0  0
   -0.7976    0.3433    1.5924 H   0  0  0  0  0  0  0  0  0  0  0  0
    0.7738    0.5476    3.0291 C   0  0  0  0  0  0  0  0  0  0  0  0
    1.5827    1.2858    3.0396 H   0  0  0  0  0  0  0  0  0  0  0  0
    0.0051    0.8700    3.7378 H   0  0  0  0  0  0  0  0  0  0  0  0
    1.1727   -0.4163    3.3622 H   0  0  0  0  0  0  0  0  0  0  0  0
  1  2  1  0  0  0  0
  2  3  1  0  0  0  0
  2  4  1  0  0  0  0
  2  5  1  0  0  0  0
  5  6  2  0  0  0  0
  5  7  1  0  0  0  0
  7  8  1  0  0  0  0
  7  9  1  0  0  0  0
  9 10  1  0  0  0  0
  9 11  1  0  0  0  0
  9 18  1  0  0  0  0
 11 12  1  0  0  0  0
 11 13  1  0  0  0  0
 11 14  1  0  0  0  0
 14 15  2  0  0  0  0
 14 16  1  0  0  0  0
 16 17  1  0  0  0  0
 18 19  2  0  0  0  0
 18 20  1  0  0  0  0
 20 21  1  0  0  0  0
 20 22  1  0  0  0  0
 22 23  1  0  0  0  0
 22 24  1  0  0  0  0
 22 25  1  0  0  0  0
M  END
$$$$

  -OEChem-02102214113D

 25 24  0     1  0  0  0  0  0999 V2000
   -2.5282   -3.7187   -0.3945 H   0  0  0  0  0  0  0  0  0  0  0  0
   -2.5372   -2.6873   -0.7586 C   0  0  0  0  0  0  0  0  0  0  0  0
   -3.3734   -2.1580   -0.2957 H   0  0  0  0  0  0  0  0  0  0  0  0
   -2.6757   -2.6987   -1.8425 H   0  0  0  0  0  0  0  0  0  0  0  0
   -1.2307   -1.9992   -0.4102 C   0  0  0  0  0  0  0  0  0  0  0  0
   -0.3805   -2.6008    0.2211 O   0  0  0  0  0  0  0  0  0  0  0  0
   -1.0207   -0.6943   -0.8128 N   0  0  0  0  0  0  0  0  0  0  0  0
   -1.6889   -0.3457   -1.4967 H   0  0  0  0  0  0  0  0  0  0  0  0
    0.2997   -0.0371   -0.7994 C   0  0  1  0  0  0  0  0  0  0  0  0
    0.9901   -0.6065   -1.4335 H   0  0  0  0  0  0  0  0  0  0  0  0
    0.1446    1.3899   -1.3629 C   0  0  0  0  0  0  0  0  0  0  0  0
   -0.7066    1.8872   -0.8912 H   0  0  0  0  0  0  0  0  0  0  0  0
    1.0430    1.9661   -1.1169 H   0  0  0  0  0  0  0  0  0  0  0  0
   -0.0290    1.4304   -2.8782 C   0  0  0  0  0  0  0  0  0  0  0  0
    0.3868    2.4122   -3.4666 O   0  0  0  0  0  0  0  0  0  0  0  0
   -0.7131    0.4311   -3.4893 O   0  0  0  0  0  0  0  0  0  0  0  0
   -0.7125    0.6567   -4.4337 H   0  0  0  0  0  0  0  0  0  0  0  0
    0.9598    0.0424    0.5952 C   0  0  0  0  0  0  0  0  0  0  0  0
    2.1797    0.0098    0.6831 O   0  0  0  0  0  0  0  0  0  0  0  0
    0.2128    0.4281    1.6932 N   0  0  0  0  0  0  0  0  0  0  0  0
   -0.7936    0.3391    1.5978 H   0  0  0  0  0  0  0  0  0  0  0  0
    0.7823    0.5497    3.0293 C   0  0  0  0  0  0  0  0  0  0  0  0
    1.5913    1.2880    3.0358 H   0  0  0  0  0  0  0  0  0  0  0  0
    0.0157    0.8739    3.7395 H   0  0  0  0  0  0  0  0  0  0  0  0
    1.1822   -0.4137    3.3631 H   0  0  0  0  0  0  0  0  0  0  0  0
  1  2  1  0  0  0  0
  2  3  1  0  0  0  0
  2  4  1  0  0  0  0
  2  5  1  0  0  0  0
  5  6  2  0  0  0  0
  5  7  1  0  0  0  0
  7  8  1  0  0  0  0
  7  9  1  0  0  0  0
  9 10  1  0  0  0  0
  9 11  1  0  0  0  0
  9 18  1  0  0  0  0
 11 12  1  0  0  0  0
 11 13  1  0  0  0  0
 11 14  1  0  0  0  0
 14 15  2  0  0  0  0
 14 16  1  0  0  0  0
 16 17  1  0  0  0  0
 18 19  2  0  0  0  0
 18 20  1  0  0  0  0
 20 21  1  0  0  0  0
 20 22  1  0  0  0  0
 22 23  1  0  0  0  0
 22 24  1  0  0  0  0
 22 25  1  0  0  0  0
M  END
$$$$

  -OEChem-02102214113D

 25 24  0     1  0  0  0  0  0999 V2000
   -2.5265   -3.7119   -0.3933 H   0  0  0  0  0  0  0  0  0  0  0  0
   -2.5383   -2.6785   -0.7515 C   0  0  0  0  0  0  0  0  0  0  0  0
   -3.3652   -2.1493   -0.2722 H   0  0  0  0  0  0  0  0  0  0  0  0
   -2.6948   -2.6834   -1.8329 H   0  0  0  0  0  0  0  0  0  0  0  0
   -1.2242   -1.9962   -0.4206 C   0  0  0  0  0  0  0  0  0  0  0  0
   -0.3649   -2.6043    0.1916 O   0  0  0  0  0  0  0  0  0  0  0  0
   -1.0154   -0.6895   -0.8181 N   0  0  0  0  0  0  0  0  0  0  0  0
   -1.6942   -0.3281   -1.4857 H   0  0  0  0  0  0  0  0  0  0  0  0
    0.3024   -0.0277   -0.8040 C   0  0  1  0  0  0  0  0  0  0  0  0
    0.9951   -0.5913   -1.4410 H   0  0  0  0  0  0  0  0  0  0  0  0
    0.1364    1.3994   -1.3616 C   0  0  0  0  0  0  0  0  0  0  0  0
   -0.7186    1.8910   -0.8904 H   0  0  0  0  0  0  0  0  0  0  0  0
    1.0301    1.9833   -1.1158 H   0  0  0  0  0  0  0  0  0  0  0  0
   -0.0404    1.4236   -2.8759 C   0  0  0  0  0  0  0  0  0  0  0  0
    0.5940    2.2429   -3.5155 O   0  0  0  0  0  0  0  0  0  0  0  0
   -0.9565    0.5913   -3.4312 O   0  0  0  0  0  0  0  0  0  0  0  0
   -0.9274    0.7755   -4.3843 H   0  0  0  0  0  0  0  0  0  0  0  0
    0.9622    0.0487    0.5909 C   0  0  0  0  0  0  0  0  0  0  0  0
    2.1818    0.0146    0.6809 O   0  0  0  0  0  0  0  0  0  0  0  0
    0.2129    0.4277    1.6896 N   0  0  0  0  0  0  0  0  0  0  0  0
   -0.7932    0.3402    1.5911 H   0  0  0  0  0  0  0  0  0  0  0  0
    0.7787    0.5379    3.0281 C   0  0  0  0  0  0  0  0  0  0  0  0
    1.5882    1.2753    3.0434 H   0  0  0  0  0  0  0  0  0  0  0  0
    0.0103    0.8567    3.7388 H   0  0  0  0  0  0  0  0  0  0  0  0
    1.1767   -0.4286    3.3550 H   0  0  0  0  0  0  0  0  0  0  0  0
  1  2  1  0  0  0  0
  2  3  1  0  0  0  0
  2  4  1  0  0  0  0
  2  5  1  0  0  0  0
  5  6  2  0  0  0  0
  5  7  1  0  0  0  0
  7  8  1  0  0  0  0
  7  9  1  0  0  0  0
  9 10  1  0  0  0  0
  9 11  1  0  0  0  0
  9 18  1  0  0  0  0
 11 12  1  0  0  0  0
 11 13  1  0  0  0  0
 11 14  1  0  0  0  0
 14 15  2  0  0  0  0
 14 16  1  0  0  0  0
 16 17  1  0  0  0  0
 18 19  2  0  0  0  0
 18 20  1  0  0  0  0
 20 21  1  0  0  0  0
 20 22  1  0  0  0  0
 22 23  1  0  0  0  0
 22 24  1  0  0  0  0
 22 25  1  0  0  0  0
M  END
$$$$

  -OEChem-02102214113D

 25 24  0     1  0  0  0  0  0999 V2000
   -2.5154   -3.7107   -0.4314 H   0  0  0  0  0  0  0  0  0  0  0  0
   -2.5423   -2.6643   -0.7484 C   0  0  0  0  0  0  0  0  0  0  0  0
   -3.3509   -2.1562   -0.2176 H   0  0  0  0  0  0  0  0  0  0  0  0
   -2.7402   -2.6283   -1.8224 H   0  0  0  0  0  0  0  0  0  0  0  0
   -1.2174   -1.9919   -0.4413 C   0  0  0  0  0  0  0  0  0  0  0  0
   -0.3469   -2.6103    0.1442 O   0  0  0  0  0  0  0  0  0  0  0  0
   -1.0108   -0.6817   -0.8279 N   0  0  0  0  0  0  0  0  0  0  0  0
   -1.7064   -0.2987   -1.4663 H   0  0  0  0  0  0  0  0  0  0  0  0
    0.3041   -0.0144   -0.8078 C   0  0  1  0  0  0  0  0  0  0  0  0
    1.0010   -0.5686   -1.4484 H   0  0  0  0  0  0  0  0  0  0  0  0
    0.1245    1.4129   -1.3567 C   0  0  0  0  0  0  0  0  0  0  0  0
   -0.7352    1.8973   -0.8867 H   0  0  0  0  0  0  0  0  0  0  0  0
    1.0122    2.0068   -1.1128 H   0  0  0  0  0  0  0  0  0  0  0  0
   -0.0516    1.4190   -2.8695 C   0  0  0  0  0  0  0  0  0  0  0  0
    0.7545    2.0277   -3.5495 O   0  0  0  0  0  0  0  0  0  0  0  0
   -1.1345    0.7828   -3.3823 O   0  0  0  0  0  0  0  0  0  0  0  0
   -1.0790    0.9148   -4.3429 H   0  0  0  0  0  0  0  0  0  0  0  0
    0.9626    0.0542    0.5883 C   0  0  0  0  0  0  0  0  0  0  0  0
    2.1822    0.0235    0.6795 O   0  0  0  0  0  0  0  0  0  0  0  0
    0.2114    0.4216    1.6899 N   0  0  0  0  0  0  0  0  0  0  0  0
   -0.7946    0.3314    1.5911 H   0  0  0  0  0  0  0  0  0  0  0  0
    0.7773    0.5274    3.0290 C   0  0  0  0  0  0  0  0  0  0  0  0
    1.5927    1.2585    3.0452 H   0  0  0  0  0  0  0  0  0  0  0  0
    0.0110    0.8524    3.7392 H   0  0  0  0  0  0  0  0  0  0  0  0
    1.1670   -0.4422    3.3566 H   0  0  0  0  0  0  0  0  0  0  0  0
  1  2  1  0  0  0  0
  2  3  1  0  0  0  0
  2  4  1  0  0  0  0
  2  5  1  0  0  0  0
  5  6  2  0  0  0  0
  5  7  1  0  0  0  0
  7  8  1  0  0  0  0
  7  9  1  0  0  0  0
  9 10  1  0  0  0  0
  9 11  1  0  0  0  0
  9 18  1  0  0  0  0
 11 12  1  0  0  0  0
 11 13  1  0  0  0  0
 11 14  1  0  0  0  0
 14 15  2  0  0  0  0
 14 16  1  0  0  0  0
 16 17  1  0  0  0  0
 18 19  2  0  0  0  0
 18 20  1  0  0  0  0
 20 21  1  0  0  0  0
 20 22  1  0  0  0  0
 22 23  1  0  0  0  0
 22 24  1  0  0  0  0
 22 25  1  0  0  0  0
M  END
$$$$

  -OEChem-02102214113D

 25 24  0     1  0  0  0  0  0999 V2000
   -2.5193   -3.6962   -0.4375 H   0  0  0  0  0  0  0  0  0  0  0  0
   -2.5451   -2.6481   -0.7495 C   0  0  0  0  0  0  0  0  0  0  0  0
   -3.3422   -2.1378   -0.2037 H   0  0  0  0  0  0  0  0  0  0  0  0
   -2.7600   -2.6062   -1.8200 H   0  0  0  0  0  0  0  0  0  0  0  0
   -1.2113   -1.9848   -0.4609 C   0  0  0  0  0  0  0  0  0  0  0  0
   -0.3320   -2.6134    0.1000 O   0  0  0  0  0  0  0  0  0  0  0  0
   -1.0048   -0.6715   -0.8375 N   0  0  0  0  0  0  0  0  0  0  0  0
   -1.7191   -0.2660   -1.4402 H   0  0  0  0  0  0  0  0  0  0  0  0
    0.3084   -0.0006   -0.8119 C   0  0  1  0  0  0  0  0  0  0  0  0
    1.0086   -0.5456   -1.4571 H   0  0  0  0  0  0  0  0  0  0  0  0
    0.1152    1.4270   -1.3491 C   0  0  0  0  0  0  0  0  0  0  0  0
   -0.7460    1.9051   -0.8751 H   0  0  0  0  0  0  0  0  0  0  0  0
    0.9990    2.0284   -1.1101 H   0  0  0  0  0  0  0  0  0  0  0  0
   -0.0630    1.4219   -2.8597 C   0  0  0  0  0  0  0  0  0  0  0  0
    0.8599    1.7867   -3.5651 O   0  0  0  0  0  0  0  0  0  0  0  0
   -1.2590    1.0050   -3.3441 O   0  0  0  0  0  0  0  0  0  0  0  0
   -1.1861    1.0817   -4.3095 H   0  0  0  0  0  0  0  0  0  0  0  0
    0.9656    0.0602    0.5849 C   0  0  0  0  0  0  0  0  0  0  0  0
    2.1848    0.0313    0.6785 O   0  0  0  0  0  0  0  0  0  0  0  0
    0.2123    0.4180    1.6884 N   0  0  0  0  0  0  0  0  0  0  0  0
   -0.7938    0.3345    1.5864 H   0  0  0  0  0  0  0  0  0  0  0  0
    0.7757    0.5130    3.0294 C   0  0  0  0  0  0  0  0  0  0  0  0
    1.5882    1.2469    3.0537 H   0  0  0  0  0  0  0  0  0  0  0  0
    0.0072    0.8280    3.7416 H   0  0  0  0  0  0  0  0  0  0  0  0
    1.1691   -0.4582    3.3477 H   0  0  0  0  0  0  0  0  0  0  0  0
  1  2  1  0  0  0  0
  2  3  1  0  0  0  0
  2  4  1  0  0  0  0
  2  5  1  0  0  0  0
  5  6  2  0  0  0  0
  5  7  1  0  0  0  0
  7  8  1  0  0  0  0
  7  9  1  0  0  0  0
  9 10  1  0  0  0  0
  9 11  1  0  0  0  0
  9 18  1  0  0  0  0
 11 12  1  0  0  0  0
 11 13  1  0  0  0  0
 11 14  1  0  0  0  0
 14 15  2  0  0  0  0
 14 16  1  0  0  0  0
 16 17  1  0  0  0  0
 18 19  2  0  0  0  0
 18 20  1  0  0  0  0
 20 21  1  0  0  0  0
 20 22  1  0  0  0  0
 22 23  1  0  0  0  0
 22 24  1  0  0  0  0
 22 25  1  0  0  0  0
M  END
$$$$

  -OEChem-02102214113D

 25 24  0     1  0  0  0  0  0999 V2000
   -2.5167   -3.6845   -0.4481 H   0  0  0  0  0  0  0  0  0  0  0  0
   -2.5455   -2.6321   -0.7448 C   0  0  0  0  0  0  0  0  0  0  0  0
   -3.3278   -2.1268   -0.1736 H   0  0  0  0  0  0  0  0  0  0  0  0
   -2.7844   -2.5745   -1.8094 H   0  0  0  0  0  0  0  0  0  0  0  0
   -1.2030   -1.9779   -0.4778 C   0  0  0  0  0  0  0  0  0  0  0  0
   -0.3159   -2.6155    0.0598 O   0  0  0  0  0  0  0  0  0  0  0  0
   -0.9972   -0.6623   -0.8466 N   0  0  0  0  0  0  0  0  0  0  0  0
   -1.7307   -0.2341   -1.4084 H   0  0  0  0  0  0  0  0  0  0  0  0
    0.3147    0.0113   -0.8161 C   0  0  1  0  0  0  0  0  0  0  0  0
    1.0178   -0.5271   -1.4640 H   0  0  0  0  0  0  0  0  0  0  0  0
    0.1120    1.4390   -1.3461 C   0  0  0  0  0  0  0  0  0  0  0  0
   -0.7503    1.9125   -0.8695 H   0  0  0  0  0  0  0  0  0  0  0  0
    0.9926    2.0454   -1.1098 H   0  0  0  0  0  0  0  0  0  0  0  0
   -0.0662    1.4316   -2.8554 C   0  0  0  0  0  0  0  0  0  0  0  0
    0.9152    1.5324   -3.5688 O   0  0  0  0  0  0  0  0  0  0  0  0
   -1.3247    1.2603   -3.3281 O   0  0  0  0  0  0  0  0  0  0  0  0
   -1.2428    1.2799   -4.2954 H   0  0  0  0  0  0  0  0  0  0  0  0
    0.9691    0.0649    0.5821 C   0  0  0  0  0  0  0  0  0  0  0  0
    2.1879    0.0349    0.6804 O   0  0  0  0  0  0  0  0  0  0  0  0
    0.2117    0.4148    1.6853 N   0  0  0  0  0  0  0  0  0  0  0  0
   -0.7940    0.3337    1.5786 H   0  0  0  0  0  0  0  0  0  0  0  0
    0.7692    0.4985    3.0294 C   0  0  0  0  0  0  0  0  0  0  0  0
    1.5806    1.2332    3.0637 H   0  0  0  0  0  0  0  0  0  0  0  0
   -0.0026    0.8062    3.7412 H   0  0  0  0  0  0  0  0  0  0  0  0
    1.1621   -0.4752    3.3406 H   0  0  0  0  0  0  0  0  0  0  0  0
  1  2  1  0  0  0  0
  2  3  1  0  0  0  0
  2  4  1  0  0  0  0
  2  5  1  0  0  0  0
  5  6  2  0  0  0  0
  5  7  1  0  0  0  0
  7  8  1  0  0  0  0
  7  9  1  0  0  0  0
  9 10  1  0  0  0  0
  9 11  1  0  0  0  0
  9 18  1  0  0  0  0
 11 12  1  0  0  0  0
 11 13  1  0  0  0  0
 11 14  1  0  0  0  0
 14 15  2  0  0  0  0
 14 16  1  0  0  0  0
 16 17  1  0  0  0  0
 18 19  2  0  0  0  0
 18 20  1  0  0  0  0
 20 21  1  0  0  0  0
 20 22  1  0  0  0  0
 22 23  1  0  0  0  0
 22 24  1  0  0  0  0
 22 25  1  0  0  0  0
M  END
$$$$

  -OEChem-02102214113D

 25 24  0     1  0  0  0  0  0999 V2000
   -2.5210   -3.6799   -0.4326 H   0  0  0  0  0  0  0  0  0  0  0  0
   -2.5466   -2.6295   -0.7367 C   0  0  0  0  0  0  0  0  0  0  0  0
   -3.3188   -2.1148   -0.1601 H   0  0  0  0  0  0  0  0  0  0  0  0
   -2.7977   -2.5781   -1.7988 H   0  0  0  0  0  0  0  0  0  0  0  0
   -1.1966   -1.9825   -0.4907 C   0  0  0  0  0  0  0  0  0  0  0  0
   -0.3030   -2.6255    0.0293 O   0  0  0  0  0  0  0  0  0  0  0  0
   -0.9924   -0.6652   -0.8545 N   0  0  0  0  0  0  0  0  0  0  0  0
   -1.7426   -0.2198   -1.3780 H   0  0  0  0  0  0  0  0  0  0  0  0
    0.3179    0.0117   -0.8194 C   0  0  1  0  0  0  0  0  0  0  0  0
    1.0233   -0.5252   -1.4661 H   0  0  0  0  0  0  0  0  0  0  0  0
    0.1155    1.4409   -1.3460 C   0  0  0  0  0  0  0  0  0  0  0  0
   -0.7465    1.9121   -0.8660 H   0  0  0  0  0  0  0  0  0  0  0  0
    0.9959    2.0469   -1.1085 H   0  0  0  0  0  0  0  0  0  0  0  0
   -0.0589    1.4455   -2.8559 C   0  0  0  0  0  0  0  0  0  0  0  0
    0.9158    1.2750   -3.5657 O   0  0  0  0  0  0  0  0  0  0  0  0
   -1.3201    1.5739   -3.3315 O   0  0  0  0  0  0  0  0  0  0  0  0
   -1.2373    1.5557   -4.2985 H   0  0  0  0  0  0  0  0  0  0  0  0
    0.9687    0.0619    0.5806 C   0  0  0  0  0  0  0  0  0  0  0  0
    2.1875    0.0404    0.6823 O   0  0  0  0  0  0  0  0  0  0  0  0
    0.2074    0.4059    1.6832 N   0  0  0  0  0  0  0  0  0  0  0  0
   -0.7981    0.3259    1.5747 H   0  0  0  0  0  0  0  0  0  0  0  0
    0.7634    0.4948    3.0276 C   0  0  0  0  0  0  0  0  0  0  0  0
    1.5668    1.2383    3.0622 H   0  0  0  0  0  0  0  0  0  0  0  0
   -0.0122    0.7937    3.7389 H   0  0  0  0  0  0  0  0  0  0  0  0
    1.1668   -0.4745    3.3387 H   0  0  0  0  0  0  0  0  0  0  0  0
  1  2  1  0  0  0  0
  2  3  1  0  0  0  0
  2  4  1  0  0  0  0
  2  5  1  0  0  0  0
  5  6  2  0  0  0  0
  5  7  1  0  0  0  0
  7  8  1  0  0  0  0
  7  9  1  0  0  0  0
  9 10  1  0  0  0  0
  9 11  1  0  0  0  0
  9 18  1  0  0  0  0
 11 12  1  0  0  0  0
 11 13  1  0  0  0  0
 11 14  1  0  0  0  0
 14 15  2  0  0  0  0
 14 16  1  0  0  0  0
 16 17  1  0  0  0  0
 18 19  2  0  0  0  0
 18 20  1  0  0  0  0
 20 21  1  0  0  0  0
 20 22  1  0  0  0  0
 22 23  1  0  0  0  0
 22 24  1  0  0  0  0
 22 25  1  0  0  0  0
M  END
$$$$

  -OEChem-02102214113D

 25 24  0     1  0  0  0  0  0999 V2000
   -2.5188   -3.6878   -0.4200 H   0  0  0  0  0  0  0  0  0  0  0  0
   -2.5461   -2.6385   -0.7275 C   0  0  0  0  0  0  0  0  0  0  0  0
   -3.3160   -2.1222   -0.1492 H   0  0  0  0  0  0  0  0  0  0  0  0
   -2.8016   -2.5911   -1.7888 H   0  0  0  0  0  0  0  0  0  0  0  0
   -1.1953   -1.9905   -0.4894 C   0  0  0  0  0  0  0  0  0  0  0  0
   -0.2998   -2.6320    0.0293 O   0  0  0  0  0  0  0  0  0  0  0  0
   -0.9937   -0.6734   -0.8556 N   0  0  0  0  0  0  0  0  0  0  0  0
   -1.7506   -0.2251   -1.3655 H   0  0  0  0  0  0  0  0  0  0  0  0
    0.3164    0.0050   -0.8207 C   0  0  1  0  0  0  0  0  0  0  0  0
    1.0226   -0.5373   -1.4621 H   0  0  0  0  0  0  0  0  0  0  0  0
    0.1216    1.4354   -1.3523 C   0  0  0  0  0  0  0  0  0  0  0  0
   -0.7384    1.9083   -0.8706 H   0  0  0  0  0  0  0  0  0  0  0  0
    1.0037    2.0368   -1.1111 H   0  0  0  0  0  0  0  0  0  0  0  0
   -0.0496    1.4612   -2.8641 C   0  0  0  0  0  0  0  0  0  0  0  0
    0.8427    1.0291   -3.5718 O   0  0  0  0  0  0  0  0  0  0  0  0
   -1.2296    1.9181   -3.3440 O   0  0  0  0  0  0  0  0  0  0  0  0
   -1.1565    1.8703   -4.3105 H   0  0  0  0  0  0  0  0  0  0  0  0
    0.9658    0.0579    0.5802 C   0  0  0  0  0  0  0  0  0  0  0  0
    2.1847    0.0433    0.6827 O   0  0  0  0  0  0  0  0  0  0  0  0
    0.2035    0.4029    1.6819 N   0  0  0  0  0  0  0  0  0  0  0  0
   -0.8016    0.3173    1.5744 H   0  0  0  0  0  0  0  0  0  0  0  0
    0.7591    0.4973    3.0261 C   0  0  0  0  0  0  0  0  0  0  0  0
    1.5593    1.2444    3.0590 H   0  0  0  0  0  0  0  0  0  0  0  0
   -0.0178    0.7944    3.7368 H   0  0  0  0  0  0  0  0  0  0  0  0
    1.1669   -0.4696    3.3396 H   0  0  0  0  0  0  0  0  0  0  0  0
  1  2  1  0  0  0  0
  2  3  1  0  0  0  0
  2  4  1  0  0  0  0
  2  5  1  0  0  0  0
  5  6  2  0  0  0  0
  5  7  1  0  0  0  0
  7  8  1  0  0  0  0
  7  9  1  0  0  0  0
  9 10  1  0  0  0  0
  9 11  1  0  0  0  0
  9 18  1  0  0  0  0
 11 12  1  0  0  0  0
 11 13  1  0  0  0  0
 11 14  1  0  0  0  0
 14 15  2  0  0  0  0
 14 16  1  0  0  0  0
 16 17  1  0  0  0  0
 18 19  2  0  0  0  0
 18 20  1  0  0  0  0
 20 21  1  0  0  0  0
 20 22  1  0  0  0  0
 22 23  1  0  0  0  0
 22 24  1  0  0  0  0
 22 25  1  0  0  0  0
M  END
$$$$

  -OEChem-02102214113D

 25 24  0     1  0  0  0  0  0999 V2000
   -2.5232   -3.6980   -0.4069 H   0  0  0  0  0  0  0  0  0  0  0  0
   -2.5464   -2.6527   -0.7283 C   0  0  0  0  0  0  0  0  0  0  0  0
   -3.3272   -2.1300   -0.1706 H   0  0  0  0  0  0  0  0  0  0  0  0
   -2.7830   -2.6193   -1.7946 H   0  0  0  0  0  0  0  0  0  0  0  0
   -1.2008   -1.9992   -0.4749 C   0  0  0  0  0  0  0  0  0  0  0  0
   -0.3118   -2.6346    0.0622 O   0  0  0  0  0  0  0  0  0  0  0  0
   -0.9981   -0.6845   -0.8495 N   0  0  0  0  0  0  0  0  0  0  0  0
   -1.7464   -0.2493   -1.3815 H   0  0  0  0  0  0  0  0  0  0  0  0
    0.3138   -0.0096   -0.8204 C   0  0  1  0  0  0  0  0  0  0  0  0
    1.0179   -0.5605   -1.4564 H   0  0  0  0  0  0  0  0  0  0  0  0
    0.1283    1.4225   -1.3568 C   0  0  0  0  0  0  0  0  0  0  0  0
   -0.7271    1.8981   -0.8690 H   0  0  0  0  0  0  0  0  0  0  0  0
    1.0147    2.0168   -1.1136 H   0  0  0  0  0  0  0  0  0  0  0  0
   -0.0471    1.4755   -2.8696 C   0  0  0  0  0  0  0  0  0  0  0  0
    0.6863    0.8157   -3.5847 O   0  0  0  0  0  0  0  0  0  0  0  0
   -1.0559    2.2430   -3.3427 O   0  0  0  0  0  0  0  0  0  0  0  0
   -1.0083    2.1768   -4.3095 H   0  0  0  0  0  0  0  0  0  0  0  0
    0.9642    0.0490    0.5801 C   0  0  0  0  0  0  0  0  0  0  0  0
    2.1832    0.0399    0.6812 O   0  0  0  0  0  0  0  0  0  0  0  0
    0.2027    0.4021    1.6797 N   0  0  0  0  0  0  0  0  0  0  0  0
   -0.8019    0.3083    1.5745 H   0  0  0  0  0  0  0  0  0  0  0  0
    0.7597    0.5116    3.0223 C   0  0  0  0  0  0  0  0  0  0  0  0
    1.5565    1.2626    3.0473 H   0  0  0  0  0  0  0  0  0  0  0  0
   -0.0177    0.8117    3.7313 H   0  0  0  0  0  0  0  0  0  0  0  0
    1.1725   -0.4504    3.3445 H   0  0  0  0  0  0  0  0  0  0  0  0
  1  2  1  0  0  0  0
  2  3  1  0  0  0  0
  2  4  1  0  0  0  0
  2  5  1  0  0  0  0
  5  6  2  0  0  0  0
  5  7  1  0  0  0  0
  7  8  1  0  0  0  0
  7  9  1  0  0  0  0
  9 10  1  0  0  0  0
  9 11  1  0  0  0  0
  9 18  1  0  0  0  0
 11 12  1  0  0  0  0
 11 13  1  0  0  0  0
 11 14  1  0  0  0  0
 14 15  2  0  0  0  0
 14 16  1  0  0  0  0
 16 17  1  0  0  0  0
 18 19  2  0  0  0  0
 18 20  1  0  0  0  0
 20 21  1  0  0  0  0
 20 22  1  0  0  0  0
 22 23  1  0  0  0  0
 22 24  1  0  0  0  0
 22 25  1  0  0  0  0
M  END
$$$$

  -OEChem-02102214113D

 25 24  0     1  0  0  0  0  0999 V2000
   -2.5302   -3.7060   -0.3880 H   0  0  0  0  0  0  0  0  0  0  0  0
   -2.5467   -2.6694   -0.7370 C   0  0  0  0  0  0  0  0  0  0  0  0
   -3.3483   -2.1370   -0.2199 H   0  0  0  0  0  0  0  0  0  0  0  0
   -2.7473   -2.6647   -1.8111 H   0  0  0  0  0  0  0  0  0  0  0  0
   -1.2127   -2.0033   -0.4555 C   0  0  0  0  0  0  0  0  0  0  0  0
   -0.3367   -2.6253    0.1177 O   0  0  0  0  0  0  0  0  0  0  0  0
   -1.0086   -0.6916   -0.8405 N   0  0  0  0  0  0  0  0  0  0  0  0
   -1.7377   -0.2813   -1.4166 H   0  0  0  0  0  0  0  0  0  0  0  0
    0.3067   -0.0220   -0.8180 C   0  0  1  0  0  0  0  0  0  0  0  0
    1.0076   -0.5807   -1.4507 H   0  0  0  0  0  0  0  0  0  0  0  0
    0.1311    1.4117   -1.3592 C   0  0  0  0  0  0  0  0  0  0  0  0
   -0.7203    1.8906   -0.8683 H   0  0  0  0  0  0  0  0  0  0  0  0
    1.0213    1.9990   -1.1138 H   0  0  0  0  0  0  0  0  0  0  0  0
   -0.0491    1.4884   -2.8721 C   0  0  0  0  0  0  0  0  0  0  0  0
    0.4665    0.6506   -3.5917 O   0  0  0  0  0  0  0  0  0  0  0  0
   -0.8096    2.5042   -3.3405 O   0  0  0  0  0  0  0  0  0  0  0  0
   -0.7966    2.4242   -4.3071 H   0  0  0  0  0  0  0  0  0  0  0  0
    0.9613    0.0441    0.5801 C   0  0  0  0  0  0  0  0  0  0  0  0
    2.1811    0.0343    0.6756 O   0  0  0  0  0  0  0  0  0  0  0  0
    0.2051    0.4083    1.6796 N   0  0  0  0  0  0  0  0  0  0  0  0
   -0.8000    0.3119    1.5795 H   0  0  0  0  0  0  0  0  0  0  0  0
    0.7684    0.5252    3.0189 C   0  0  0  0  0  0  0  0  0  0  0  0
    1.5649    1.2766    3.0358 H   0  0  0  0  0  0  0  0  0  0  0  0
   -0.0056    0.8291    3.7300 H   0  0  0  0  0  0  0  0  0  0  0  0
    1.1830   -0.4348    3.3445 H   0  0  0  0  0  0  0  0  0  0  0  0
  1  2  1  0  0  0  0
  2  3  1  0  0  0  0
  2  4  1  0  0  0  0
  2  5  1  0  0  0  0
  5  6  2  0  0  0  0
  5  7  1  0  0  0  0
  7  8  1  0  0  0  0
  7  9  1  0  0  0  0
  9 10  1  0  0  0  0
  9 11  1  0  0  0  0
  9 18  1  0  0  0  0
 11 12  1  0  0  0  0
 11 13  1  0  0  0  0
 11 14  1  0  0  0  0
 14 15  2  0  0  0  0
 14 16  1  0  0  0  0
 16 17  1  0  0  0  0
 18 19  2  0  0  0  0
 18 20  1  0  0  0  0
 20 21  1  0  0  0  0
 20 22  1  0  0  0  0
 22 23  1  0  0  0  0
 22 24  1  0  0  0  0
 22 25  1  0  0  0  0
M  END
$$$$

  -OEChem-02102214113D

 25 24  0     1  0  0  0  0  0999 V2000
   -2.5369   -3.7051   -0.3693 H   0  0  0  0  0  0  0  0  0  0  0  0
   -2.5448   -2.6771   -0.7431 C   0  0  0  0  0  0  0  0  0  0  0  0
   -3.3622   -2.1344   -0.2626 H   0  0  0  0  0  0  0  0  0  0  0  0
   -2.7136   -2.6981   -1.8223 H   0  0  0  0  0  0  0  0  0  0  0  0
   -1.2212   -2.0008   -0.4386 C   0  0  0  0  0  0  0  0  0  0  0  0
   -0.3557   -2.6116    0.1621 O   0  0  0  0  0  0  0  0  0  0  0  0
   -1.0181   -0.6911   -0.8312 N   0  0  0  0  0  0  0  0  0  0  0  0
   -1.7267   -0.3076   -1.4501 H   0  0  0  0  0  0  0  0  0  0  0  0
    0.3000   -0.0266   -0.8160 C   0  0  1  0  0  0  0  0  0  0  0  0
    0.9962   -0.5905   -1.4491 H   0  0  0  0  0  0  0  0  0  0  0  0
    0.1341    1.4081   -1.3611 C   0  0  0  0  0  0  0  0  0  0  0  0
   -0.7114    1.8952   -0.8679 H   0  0  0  0  0  0  0  0  0  0  0  0
    1.0309    1.9862   -1.1174 H   0  0  0  0  0  0  0  0  0  0  0  0
   -0.0504    1.4975   -2.8735 C   0  0  0  0  0  0  0  0  0  0  0  0
    0.2081    0.5400   -3.5829 O   0  0  0  0  0  0  0  0  0  0  0  0
   -0.5203    2.6718   -3.3524 O   0  0  0  0  0  0  0  0  0  0  0  0
   -0.5505    2.5766   -4.3171 H   0  0  0  0  0  0  0  0  0  0  0  0
    0.9595    0.0430    0.5797 C   0  0  0  0  0  0  0  0  0  0  0  0
    2.1798    0.0337    0.6695 O   0  0  0  0  0  0  0  0  0  0  0  0
    0.2074    0.4148    1.6792 N   0  0  0  0  0  0  0  0  0  0  0  0
   -0.7972    0.3080    1.5837 H   0  0  0  0  0  0  0  0  0  0  0  0
    0.7740    0.5303    3.0171 C   0  0  0  0  0  0  0  0  0  0  0  0
    1.5749    1.2771    3.0318 H   0  0  0  0  0  0  0  0  0  0  0  0
    0.0031    0.8397    3.7291 H   0  0  0  0  0  0  0  0  0  0  0  0
    1.1836   -0.4315    3.3430 H   0  0  0  0  0  0  0  0  0  0  0  0
  1  2  1  0  0  0  0
  2  3  1  0  0  0  0
  2  4  1  0  0  0  0
  2  5  1  0  0  0  0
  5  6  2  0  0  0  0
  5  7  1  0  0  0  0
  7  8  1  0  0  0  0
  7  9  1  0  0  0  0
  9 10  1  0  0  0  0
  9 11  1  0  0  0  0
  9 18  1  0  0  0  0
 11 12  1  0  0  0  0
 11 13  1  0  0  0  0
 11 14  1  0  0  0  0
 14 15  2  0  0  0  0
 14 16  1  0  0  0  0
 16 17  1  0  0  0  0
 18 19  2  0  0  0  0
 18 20  1  0  0  0  0
 20 21  1  0  0  0  0
 20 22  1  0  0  0  0
 22 23  1  0  0  0  0
 22 24  1  0  0  0  0
 22 25  1  0  0  0  0
M  END
$$$$

  -OEChem-02102214113D

 25 24  0     1  0  0  0  0  0999 V2000
   -2.5278   -3.7151   -0.3981 H   0  0  0  0  0  0  0  0  0  0  0  0
   -2.5432   -2.6814   -0.7555 C   0  0  0  0  0  0  0  0  0  0  0  0
   -3.3707   -2.1551   -0.2743 H   0  0  0  0  0  0  0  0  0  0  0  0
   -2.7012   -2.6869   -1.8366 H   0  0  0  0  0  0  0  0  0  0  0  0
   -1.2304   -1.9953   -0.4271 C   0  0  0  0  0  0  0  0  0  0  0  0
   -0.3745   -2.5976    0.1956 O   0  0  0  0  0  0  0  0  0  0  0  0
   -1.0269   -0.6868   -0.8235 N   0  0  0  0  0  0  0  0  0  0  0  0
   -1.7151   -0.3247   -1.4780 H   0  0  0  0  0  0  0  0  0  0  0  0
    0.2937   -0.0274   -0.8118 C   0  0  1  0  0  0  0  0  0  0  0  0
    0.9853   -0.5935   -1.4480 H   0  0  0  0  0  0  0  0  0  0  0  0
    0.1350    1.4077   -1.3588 C   0  0  0  0  0  0  0  0  0  0  0  0
   -0.7056    1.9022   -0.8652 H   0  0  0  0  0  0  0  0  0  0  0  0
    1.0367    1.9791   -1.1165 H   0  0  0  0  0  0  0  0  0  0  0  0
   -0.0510    1.4996   -2.8711 C   0  0  0  0  0  0  0  0  0  0  0  0
   -0.0670    0.4869   -3.5514 O   0  0  0  0  0  0  0  0  0  0  0  0
   -0.2066    2.7419   -3.3827 O   0  0  0  0  0  0  0  0  0  0  0  0
   -0.2838    2.6320   -4.3432 H   0  0  0  0  0  0  0  0  0  0  0  0
    0.9576    0.0435    0.5818 C   0  0  0  0  0  0  0  0  0  0  0  0
    2.1783    0.0285    0.6669 O   0  0  0  0  0  0  0  0  0  0  0  0
    0.2107    0.4210    1.6829 N   0  0  0  0  0  0  0  0  0  0  0  0
   -0.7946    0.3168    1.5909 H   0  0  0  0  0  0  0  0  0  0  0  0
    0.7819    0.5353    3.0190 C   0  0  0  0  0  0  0  0  0  0  0  0
    1.5913    1.2730    3.0286 H   0  0  0  0  0  0  0  0  0  0  0  0
    0.0164    0.8563    3.7318 H   0  0  0  0  0  0  0  0  0  0  0  0
    1.1815   -0.4299    3.3475 H   0  0  0  0  0  0  0  0  0  0  0  0
  1  2  1  0  0  0  0
  2  3  1  0  0  0  0
  2  4  1  0  0  0  0
  2  5  1  0  0  0  0
  5  6  2  0  0  0  0
  5  7  1  0  0  0  0
  7  8  1  0  0  0  0
  7  9  1  0  0  0  0
  9 10  1  0  0  0  0
  9 11  1  0  0  0  0
  9 18  1  0  0  0  0
 11 12  1  0  0  0  0
 11 13  1  0  0  0  0
 11 14  1  0  0  0  0
 14 15  2  0  0  0  0
 14 16  1  0  0  0  0
 16 17  1  0  0  0  0
 18 19  2  0  0  0  0
 18 20  1  0  0  0  0
 20 21  1  0  0  0  0
 20 22  1  0  0  0  0
 22 23  1  0  0  0  0
 22 24  1  0  0  0  0
 22 25  1  0  0  0  0
M  END
$$$$

  -OEChem-02102214113D

 25 24  0     1  0  0  0  0  0999 V2000
   -2.5145   -3.7216   -0.4455 H   0  0  0  0  0  0  0  0  0  0  0  0
   -2.5398   -2.6802   -0.7794 C   0  0  0  0  0  0  0  0  0  0  0  0
   -3.3821   -2.1766   -0.2994 H   0  0  0  0  0  0  0  0  0  0  0  0
   -2.6816   -2.6629   -1.8628 H   0  0  0  0  0  0  0  0  0  0  0  0
   -1.2423   -1.9837   -0.4152 C   0  0  0  0  0  0  0  0  0  0  0  0
   -0.3974   -2.5804    0.2279 O   0  0  0  0  0  0  0  0  0  0  0  0
   -1.0362   -0.6763   -0.8128 N   0  0  0  0  0  0  0  0  0  0  0  0
   -1.7050   -0.3311   -1.4967 H   0  0  0  0  0  0  0  0  0  0  0  0
    0.2873   -0.0233   -0.8027 C   0  0  1  0  0  0  0  0  0  0  0  0
    0.9731   -0.5922   -1.4425 H   0  0  0  0  0  0  0  0  0  0  0  0
    0.1351    1.4106   -1.3539 C   0  0  0  0  0  0  0  0  0  0  0  0
   -0.7024    1.9139   -0.8641 H   0  0  0  0  0  0  0  0  0  0  0  0
    1.0415    1.9757   -1.1138 H   0  0  0  0  0  0  0  0  0  0  0  0
   -0.0498    1.4927   -2.8668 C   0  0  0  0  0  0  0  0  0  0  0  0
   -0.3417    0.4912   -3.5008 O   0  0  0  0  0  0  0  0  0  0  0  0
    0.1033    2.7125   -3.4304 O   0  0  0  0  0  0  0  0  0  0  0  0
   -0.0273    2.5903   -4.3833 H   0  0  0  0  0  0  0  0  0  0  0  0
    0.9561    0.0468    0.5883 C   0  0  0  0  0  0  0  0  0  0  0  0
    2.1770    0.0210    0.6680 O   0  0  0  0  0  0  0  0  0  0  0  0
    0.2161    0.4290    1.6924 N   0  0  0  0  0  0  0  0  0  0  0  0
   -0.7905    0.3331    1.6043 H   0  0  0  0  0  0  0  0  0  0  0  0
    0.7946    0.5371    3.0257 C   0  0  0  0  0  0  0  0  0  0  0  0
    1.6101    1.2680    3.0319 H   0  0  0  0  0  0  0  0  0  0  0  0
    0.0355    0.8635    3.7430 H   0  0  0  0  0  0  0  0  0  0  0  0
    1.1880   -0.4320    3.3507 H   0  0  0  0  0  0  0  0  0  0  0  0
  1  2  1  0  0  0  0
  2  3  1  0  0  0  0
  2  4  1  0  0  0  0
  2  5  1  0  0  0  0
  5  6  2  0  0  0  0
  5  7  1  0  0  0  0
  7  8  1  0  0  0  0
  7  9  1  0  0  0  0
  9 10  1  0  0  0  0
  9 11  1  0  0  0  0
  9 18  1  0  0  0  0
 11 12  1  0  0  0  0
 11 13  1  0  0  0  0
 11 14  1  0  0  0  0
 14 15  2  0  0  0  0
 14 16  1  0  0  0  0
 16 17  1  0  0  0  0
 18 19  2  0  0  0  0
 18 20  1  0  0  0  0
 20 21  1  0  0  0  0
 20 22  1  0  0  0  0
 22 23  1  0  0  0  0
 22 24  1  0  0  0  0
 22 25  1  0  0  0  0
M  END
$$$$

  -OEChem-02102214113D

 25 24  0     1  0  0  0  0  0999 V2000
   -2.5284   -3.7030   -0.4205 H   0  0  0  0  0  0  0  0  0  0  0  0
   -2.5369   -2.6717   -0.7850 C   0  0  0  0  0  0  0  0  0  0  0  0
   -3.3839   -2.1465   -0.3375 H   0  0  0  0  0  0  0  0  0  0  0  0
   -2.6565   -2.6847   -1.8711 H   0  0  0  0  0  0  0  0  0  0  0  0
   -1.2399   -1.9766   -0.4156 C   0  0  0  0  0  0  0  0  0  0  0  0
   -0.3960   -2.5750    0.2275 O   0  0  0  0  0  0  0  0  0  0  0  0
   -1.0325   -0.6688   -0.8103 N   0  0  0  0  0  0  0  0  0  0  0  0
   -1.6954   -0.3261   -1.5026 H   0  0  0  0  0  0  0  0  0  0  0  0
    0.2905   -0.0153   -0.8002 C   0  0  1  0  0  0  0  0  0  0  0  0
    0.9749   -0.5827   -1.4426 H   0  0  0  0  0  0  0  0  0  0  0  0
    0.1368    1.4183   -1.3514 C   0  0  0  0  0  0  0  0  0  0  0  0
   -0.7012    1.9229   -0.8638 H   0  0  0  0  0  0  0  0  0  0  0  0
    1.0428    1.9843   -1.1116 H   0  0  0  0  0  0  0  0  0  0  0  0
   -0.0477    1.4873   -2.8648 C   0  0  0  0  0  0  0  0  0  0  0  0
   -0.5970    0.5645   -3.4460 O   0  0  0  0  0  0  0  0  0  0  0  0
    0.3943    2.6033   -3.4881 O   0  0  0  0  0  0  0  0  0  0  0  0
    0.2114    2.4796   -4.4321 H   0  0  0  0  0  0  0  0  0  0  0  0
    0.9597    0.0517    0.5907 C   0  0  0  0  0  0  0  0  0  0  0  0
    2.1805    0.0233    0.6708 O   0  0  0  0  0  0  0  0  0  0  0  0
    0.2191    0.4311    1.6952 N   0  0  0  0  0  0  0  0  0  0  0  0
   -0.7871    0.3325    1.6051 H   0  0  0  0  0  0  0  0  0  0  0  0
    0.7945    0.5264    3.0308 C   0  0  0  0  0  0  0  0  0  0  0  0
    1.6061    1.2615    3.0476 H   0  0  0  0  0  0  0  0  0  0  0  0
    0.0317    0.8401    3.7496 H   0  0  0  0  0  0  0  0  0  0  0  0
    1.1913   -0.4445    3.3459 H   0  0  0  0  0  0  0  0  0  0  0  0
  1  2  1  0  0  0  0
  2  3  1  0  0  0  0
  2  4  1  0  0  0  0
  2  5  1  0  0  0  0
  5  6  2  0  0  0  0
  5  7  1  0  0  0  0
  7  8  1  0  0  0  0
  7  9  1  0  0  0  0
  9 10  1  0  0  0  0
  9 11  1  0  0  0  0
  9 18  1  0  0  0  0
 11 12  1  0  0  0  0
 11 13  1  0  0  0  0
 11 14  1  0  0  0  0
 14 15  2  0  0  0  0
 14 16  1  0  0  0  0
 16 17  1  0  0  0  0
 18 19  2  0  0  0  0
 18 20  1  0  0  0  0
 20 21  1  0  0  0  0
 20 22  1  0  0  0  0
 22 23  1  0  0  0  0
 22 24  1  0  0  0  0
 22 25  1  0  0  0  0
M  END
$$$$

  -OEChem-02102214113D

 25 24  0     1  0  0  0  0  0999 V2000
   -2.5214   -3.7052   -0.4554 H   0  0  0  0  0  0  0  0  0  0  0  0
   -2.5379   -2.6650   -0.7935 C   0  0  0  0  0  0  0  0  0  0  0  0
   -3.3775   -2.1529   -0.3180 H   0  0  0  0  0  0  0  0  0  0  0  0
   -2.6769   -2.6508   -1.8773 H   0  0  0  0  0  0  0  0  0  0  0  0
   -1.2359   -1.9770   -0.4287 C   0  0  0  0  0  0  0  0  0  0  0  0
   -0.3889   -2.5825    0.2034 O   0  0  0  0  0  0  0  0  0  0  0  0
   -1.0258   -0.6675   -0.8157 N   0  0  0  0  0  0  0  0  0  0  0  0
   -1.6917   -0.3134   -1.5006 H   0  0  0  0  0  0  0  0  0  0  0  0
    0.2954   -0.0117   -0.7982 C   0  0  1  0  0  0  0  0  0  0  0  0
    0.9828   -0.5737   -1.4422 H   0  0  0  0  0  0  0  0  0  0  0  0
    0.1379    1.4223   -1.3440 C   0  0  0  0  0  0  0  0  0  0  0  0
   -0.7044    1.9243   -0.8613 H   0  0  0  0  0  0  0  0  0  0  0  0
    1.0408    1.9919   -1.1003 H   0  0  0  0  0  0  0  0  0  0  0  0
   -0.0411    1.4772   -2.8575 C   0  0  0  0  0  0  0  0  0  0  0  0
   -0.8145    0.6956   -3.3894 O   0  0  0  0  0  0  0  0  0  0  0  0
    0.6598    2.4141   -3.5361 O   0  0  0  0  0  0  0  0  0  0  0  0
    0.4325    2.3025   -4.4718 H   0  0  0  0  0  0  0  0  0  0  0  0
    0.9610    0.0508    0.5945 C   0  0  0  0  0  0  0  0  0  0  0  0
    2.1817    0.0249    0.6764 O   0  0  0  0  0  0  0  0  0  0  0  0
    0.2176    0.4239    1.6993 N   0  0  0  0  0  0  0  0  0  0  0  0
   -0.7886    0.3269    1.6077 H   0  0  0  0  0  0  0  0  0  0  0  0
    0.7922    0.5291    3.0346 C   0  0  0  0  0  0  0  0  0  0  0  0
    1.6038    1.2645    3.0460 H   0  0  0  0  0  0  0  0  0  0  0  0
    0.0296    0.8487    3.7511 H   0  0  0  0  0  0  0  0  0  0  0  0
    1.1894   -0.4392    3.3568 H   0  0  0  0  0  0  0  0  0  0  0  0
  1  2  1  0  0  0  0
  2  3  1  0  0  0  0
  2  4  1  0  0  0  0
  2  5  1  0  0  0  0
  5  6  2  0  0  0  0
  5  7  1  0  0  0  0
  7  8  1  0  0  0  0
  7  9  1  0  0  0  0
  9 10  1  0  0  0  0
  9 11  1  0  0  0  0
  9 18  1  0  0  0  0
 11 12  1  0  0  0  0
 11 13  1  0  0  0  0
 11 14  1  0  0  0  0
 14 15  2  0  0  0  0
 14 16  1  0  0  0  0
 16 17  1  0  0  0  0
 18 19  2  0  0  0  0
 18 20  1  0  0  0  0
 20 21  1  0  0  0  0
 20 22  1  0  0  0  0
 22 23  1  0  0  0  0
 22 24  1  0  0  0  0
 22 25  1  0  0  0  0
M  END
$$$$

  -OEChem-02102214113D

 25 24  0     1  0  0  0  0  0999 V2000
   -2.5175   -3.6920   -0.4610 H   0  0  0  0  0  0  0  0  0  0  0  0
   -2.5327   -2.6494   -0.7909 C   0  0  0  0  0  0  0  0  0  0  0  0
   -3.3607   -2.1354   -0.2971 H   0  0  0  0  0  0  0  0  0  0  0  0
   -2.6901   -2.6253   -1.8719 H   0  0  0  0  0  0  0  0  0  0  0  0
   -1.2203   -1.9724   -0.4438 C   0  0  0  0  0  0  0  0  0  0  0  0
   -0.3645   -2.5870    0.1673 O   0  0  0  0  0  0  0  0  0  0  0  0
   -1.0089   -0.6616   -0.8248 N   0  0  0  0  0  0  0  0  0  0  0  0
   -1.6887   -0.2890   -1.4866 H   0  0  0  0  0  0  0  0  0  0  0  0
    0.3092   -0.0007   -0.8001 C   0  0  1  0  0  0  0  0  0  0  0  0
    1.0029   -0.5556   -1.4432 H   0  0  0  0  0  0  0  0  0  0  0  0
    0.1381    1.4317   -1.3415 C   0  0  0  0  0  0  0  0  0  0  0  0
   -0.7122    1.9252   -0.8637 H   0  0  0  0  0  0  0  0  0  0  0  0
    1.0330    2.0141   -1.0989 H   0  0  0  0  0  0  0  0  0  0  0  0
   -0.0375    1.4606   -2.8541 C   0  0  0  0  0  0  0  0  0  0  0  0
   -0.9886    0.8649   -3.3366 O   0  0  0  0  0  0  0  0  0  0  0  0
    0.8648    2.1519   -3.5871 O   0  0  0  0  0  0  0  0  0  0  0  0
    0.5988    2.0544   -4.5141 H   0  0  0  0  0  0  0  0  0  0  0  0
    0.9666    0.0589    0.5965 C   0  0  0  0  0  0  0  0  0  0  0  0
    2.1864    0.0275    0.6875 O   0  0  0  0  0  0  0  0  0  0  0  0
    0.2154    0.4252    1.6982 N   0  0  0  0  0  0  0  0  0  0  0  0
   -0.7904    0.3353    1.5970 H   0  0  0  0  0  0  0  0  0  0  0  0
    0.7784    0.5148    3.0394 C   0  0  0  0  0  0  0  0  0  0  0  0
    1.5887    1.2510    3.0673 H   0  0  0  0  0  0  0  0  0  0  0  0
    0.0089    0.8240    3.7530 H   0  0  0  0  0  0  0  0  0  0  0  0
    1.1745   -0.4569    3.3532 H   0  0  0  0  0  0  0  0  0  0  0  0
  1  2  1  0  0  0  0
  2  3  1  0  0  0  0
  2  4  1  0  0  0  0
  2  5  1  0  0  0  0
  5  6  2  0  0  0  0
  5  7  1  0  0  0  0
  7  8  1  0  0  0  0
  7  9  1  0  0  0  0
  9 10  1  0  0  0  0
  9 11  1  0  0  0  0
  9 18  1  0  0  0  0
 11 12  1  0  0  0  0
 11 13  1  0  0  0  0
 11 14  1  0  0  0  0
 14 15  2  0  0  0  0
 14 16  1  0  0  0  0
 16 17  1  0  0  0  0
 18 19  2  0  0  0  0
 18 20  1  0  0  0  0
 20 21  1  0  0  0  0
 20 22  1  0  0  0  0
 22 23  1  0  0  0  0
 22 24  1  0  0  0  0
 22 25  1  0  0  0  0
M  END
$$$$

  -OEChem-02102214113D

 25 24  0     1  0  0  0  0  0999 V2000
   -2.5067   -3.6895   -0.4879 H   0  0  0  0  0  0  0  0  0  0  0  0
   -2.5306   -2.6375   -0.7869 C   0  0  0  0  0  0  0  0  0  0  0  0
   -3.3389   -2.1366   -0.2488 H   0  0  0  0  0  0  0  0  0  0  0  0
   -2.7269   -2.5821   -1.8605 H   0  0  0  0  0  0  0  0  0  0  0  0
   -1.2046   -1.9729   -0.4673 C   0  0  0  0  0  0  0  0  0  0  0  0
   -0.3369   -2.5995    0.1142 O   0  0  0  0  0  0  0  0  0  0  0  0
   -0.9932   -0.6594   -0.8388 N   0  0  0  0  0  0  0  0  0  0  0  0
   -1.6948   -0.2604   -1.4611 H   0  0  0  0  0  0  0  0  0  0  0  0
    0.3207    0.0092   -0.8020 C   0  0  1  0  0  0  0  0  0  0  0  0
    1.0232   -0.5365   -1.4436 H   0  0  0  0  0  0  0  0  0  0  0  0
    0.1340    1.4380   -1.3401 C   0  0  0  0  0  0  0  0  0  0  0  0
   -0.7268    1.9209   -0.8694 H   0  0  0  0  0  0  0  0  0  0  0  0
    1.0185    2.0358   -1.0975 H   0  0  0  0  0  0  0  0  0  0  0  0
   -0.0321    1.4403   -2.8519 C   0  0  0  0  0  0  0  0  0  0  0  0
   -1.1031    1.0701   -3.3074 O   0  0  0  0  0  0  0  0  0  0  0  0
    1.0119    1.8410   -3.6127 O   0  0  0  0  0  0  0  0  0  0  0  0
    0.7254    1.7679   -4.5357 H   0  0  0  0  0  0  0  0  0  0  0  0
    0.9702    0.0668    0.5981 C   0  0  0  0  0  0  0  0  0  0  0  0
    2.1893    0.0381    0.6967 O   0  0  0  0  0  0  0  0  0  0  0  0
    0.2116    0.4235    1.6981 N   0  0  0  0  0  0  0  0  0  0  0  0
   -0.7940    0.3385    1.5904 H   0  0  0  0  0  0  0  0  0  0  0  0
    0.7673    0.5082    3.0429 C   0  0  0  0  0  0  0  0  0  0  0  0
    1.5824    1.2388    3.0765 H   0  0  0  0  0  0  0  0  0  0  0  0
   -0.0044    0.8217    3.7525 H   0  0  0  0  0  0  0  0  0  0  0  0
    1.1552   -0.4665    3.3577 H   0  0  0  0  0  0  0  0  0  0  0  0
  1  2  1  0  0  0  0
  2  3  1  0  0  0  0
  2  4  1  0  0  0  0
  2  5  1  0  0  0  0
  5  6  2  0  0  0  0
  5  7  1  0  0  0  0
  7  8  1  0  0  0  0
  7  9  1  0  0  0  0
  9 10  1  0  0  0  0
  9 11  1  0  0  0  0
  9 18  1  0  0  0  0
 11 12  1  0  0  0  0
 11 13  1  0  0  0  0
 11 14  1  0  0  0  0
 14 15  2  0  0  0  0
 14 16  1  0  0  0  0
 16 17  1  0  0  0  0
 18 19  2  0  0  0  0
 18 20  1  0  0  0  0
 20 21  1  0  0  0  0
 20 22  1  0  0  0  0
 22 23  1  0  0  0  0
 22 24  1  0  0  0  0
 22 25  1  0  0  0  0
M  END
$$$$

  -OEChem-02102214113D

 25 24  0     1  0  0  0  0  0999 V2000
   -2.5079   -3.6833   -0.4766 H   0  0  0  0  0  0  0  0  0  0  0  0
   -2.5308   -2.6313   -0.7749 C   0  0  0  0  0  0  0  0  0  0  0  0
   -3.3208   -2.1242   -0.2163 H   0  0  0  0  0  0  0  0  0  0  0  0
   -2.7542   -2.5744   -1.8431 H   0  0  0  0  0  0  0  0  0  0  0  0
   -1.1917   -1.9782   -0.4884 C   0  0  0  0  0  0  0  0  0  0  0  0
   -0.3119   -2.6153    0.0624 O   0  0  0  0  0  0  0  0  0  0  0  0
   -0.9809   -0.6625   -0.8530 N   0  0  0  0  0  0  0  0  0  0  0  0
   -1.7046   -0.2375   -1.4304 H   0  0  0  0  0  0  0  0  0  0  0  0
    0.3307    0.0104   -0.8075 C   0  0  1  0  0  0  0  0  0  0  0  0
    1.0392   -0.5294   -1.4479 H   0  0  0  0  0  0  0  0  0  0  0  0
    0.1354    1.4379   -1.3407 C   0  0  0  0  0  0  0  0  0  0  0  0
   -0.7287    1.9157   -0.8705 H   0  0  0  0  0  0  0  0  0  0  0  0
    1.0166    2.0413   -1.1004 H   0  0  0  0  0  0  0  0  0  0  0  0
   -0.0246    1.4269   -2.8518 C   0  0  0  0  0  0  0  0  0  0  0  0
   -1.1548    1.3182   -3.2998 O   0  0  0  0  0  0  0  0  0  0  0  0
    1.0851    1.5208   -3.6192 O   0  0  0  0  0  0  0  0  0  0  0  0
    0.7865    1.4951   -4.5410 H   0  0  0  0  0  0  0  0  0  0  0  0
    0.9726    0.0636    0.5965 C   0  0  0  0  0  0  0  0  0  0  0  0
    2.1912    0.0412    0.7027 O   0  0  0  0  0  0  0  0  0  0  0  0
    0.2063    0.4130    1.6935 N   0  0  0  0  0  0  0  0  0  0  0  0
   -0.7986    0.3294    1.5798 H   0  0  0  0  0  0  0  0  0  0  0  0
    0.7545    0.5081    3.0408 C   0  0  0  0  0  0  0  0  0  0  0  0
    1.5633    1.2459    3.0748 H   0  0  0  0  0  0  0  0  0  0  0  0
   -0.0232    0.8187    3.7450 H   0  0  0  0  0  0  0  0  0  0  0  0
    1.1489   -0.4616    3.3620 H   0  0  0  0  0  0  0  0  0  0  0  0
  1  2  1  0  0  0  0
  2  3  1  0  0  0  0
  2  4  1  0  0  0  0
  2  5  1  0  0  0  0
  5  6  2  0  0  0  0
  5  7  1  0  0  0  0
  7  8  1  0  0  0  0
  7  9  1  0  0  0  0
  9 10  1  0  0  0  0
  9 11  1  0  0  0  0
  9 18  1  0  0  0  0
 11 12  1  0  0  0  0
 11 13  1  0  0  0  0
 11 14  1  0  0  0  0
 14 15  2  0  0  0  0
 14 16  1  0  0  0  0
 16 17  1  0  0  0  0
 18 19  2  0  0  0  0
 18 20  1  0  0  0  0
 20 21  1  0  0  0  0
 20 22  1  0  0  0  0
 22 23  1  0  0  0  0
 22 24  1  0  0  0  0
 22 25  1  0  0  0  0
M  END
$$$$

  -OEChem-02102214113D

 25 24  0     1  0  0  0  0  0999 V2000
   -2.5084   -3.6839   -0.4511 H   0  0  0  0  0  0  0  0  0  0  0  0
   -2.5326   -2.6318   -0.7495 C   0  0  0  0  0  0  0  0  0  0  0  0
   -3.3053   -2.1197   -0.1713 H   0  0  0  0  0  0  0  0  0  0  0  0
   -2.7824   -2.5741   -1.8116 H   0  0  0  0  0  0  0  0  0  0  0  0
   -1.1826   -1.9868   -0.4978 C   0  0  0  0  0  0  0  0  0  0  0  0
   -0.2921   -2.6303    0.0274 O   0  0  0  0  0  0  0  0  0  0  0  0
   -0.9737   -0.6707   -0.8626 N   0  0  0  0  0  0  0  0  0  0  0  0
   -1.7180   -0.2270   -1.3969 H   0  0  0  0  0  0  0  0  0  0  0  0
    0.3356    0.0073   -0.8139 C   0  0  1  0  0  0  0  0  0  0  0  0
    1.0484   -0.5325   -1.4498 H   0  0  0  0  0  0  0  0  0  0  0  0
    0.1381    1.4325   -1.3513 C   0  0  0  0  0  0  0  0  0  0  0  0
   -0.7277    1.9087   -0.8821 H   0  0  0  0  0  0  0  0  0  0  0  0
    1.0182    2.0378   -1.1115 H   0  0  0  0  0  0  0  0  0  0  0  0
   -0.0157    1.4197   -2.8634 C   0  0  0  0  0  0  0  0  0  0  0  0
   -1.1338    1.5889   -3.3207 O   0  0  0  0  0  0  0  0  0  0  0  0
    1.0860    1.2173   -3.6215 O   0  0  0  0  0  0  0  0  0  0  0  0
    0.7959    1.2528   -4.5457 H   0  0  0  0  0  0  0  0  0  0  0  0
    0.9717    0.0634    0.5926 C   0  0  0  0  0  0  0  0  0  0  0  0
    2.1896    0.0429    0.7051 O   0  0  0  0  0  0  0  0  0  0  0  0
    0.1998    0.4106    1.6865 N   0  0  0  0  0  0  0  0  0  0  0  0
   -0.8047    0.3310    1.5678 H   0  0  0  0  0  0  0  0  0  0  0  0
    0.7414    0.5041    3.0365 C   0  0  0  0  0  0  0  0  0  0  0  0
    1.5461    1.2458    3.0772 H   0  0  0  0  0  0  0  0  0  0  0  0
   -0.0414    0.8081    3.7380 H   0  0  0  0  0  0  0  0  0  0  0  0
    1.1391   -0.4649    3.3563 H   0  0  0  0  0  0  0  0  0  0  0  0
  1  2  1  0  0  0  0
  2  3  1  0  0  0  0
  2  4  1  0  0  0  0
  2  5  1  0  0  0  0
  5  6  2  0  0  0  0
  5  7  1  0  0  0  0
  7  8  1  0  0  0  0
  7  9  1  0  0  0  0
  9 10  1  0  0  0  0
  9 11  1  0  0  0  0
  9 18  1  0  0  0  0
 11 12  1  0  0  0  0
 11 13  1  0  0  0  0
 11 14  1  0  0  0  0
 14 15  2  0  0  0  0
 14 16  1  0  0  0  0
 16 17  1  0  0  0  0
 18 19  2  0  0  0  0
 18 20  1  0  0  0  0
 20 21  1  0  0  0  0
 20 22  1  0  0  0  0
 22 23  1  0  0  0  0
 22 24  1  0  0  0  0
 22 25  1  0  0  0  0
M  END
$$$$

  -OEChem-02102214113D

 25 24  0     1  0  0  0  0  0999 V2000
   -2.5042   -3.6944   -0.4509 H   0  0  0  0  0  0  0  0  0  0  0  0
   -2.5346   -2.6374   -0.7303 C   0  0  0  0  0  0  0  0  0  0  0  0
   -3.2973   -2.1359   -0.1298 H   0  0  0  0  0  0  0  0  0  0  0  0
   -2.8032   -2.5619   -1.7868 H   0  0  0  0  0  0  0  0  0  0  0  0
   -1.1809   -1.9955   -0.4921 C   0  0  0  0  0  0  0  0  0  0  0  0
   -0.2857   -2.6405    0.0227 O   0  0  0  0  0  0  0  0  0  0  0  0
   -0.9733   -0.6808   -0.8626 N   0  0  0  0  0  0  0  0  0  0  0  0
   -1.7307   -0.2281   -1.3685 H   0  0  0  0  0  0  0  0  0  0  0  0
    0.3351   -0.0008   -0.8170 C   0  0  1  0  0  0  0  0  0  0  0  0
    1.0489   -0.5464   -1.4469 H   0  0  0  0  0  0  0  0  0  0  0  0
    0.1412    1.4224   -1.3635 C   0  0  0  0  0  0  0  0  0  0  0  0
   -0.7221    1.9023   -0.8933 H   0  0  0  0  0  0  0  0  0  0  0  0
    1.0240    2.0236   -1.1249 H   0  0  0  0  0  0  0  0  0  0  0  0
   -0.0109    1.4166   -2.8772 C   0  0  0  0  0  0  0  0  0  0  0  0
   -1.0460    1.8604   -3.3444 O   0  0  0  0  0  0  0  0  0  0  0  0
    1.0063    0.9341   -3.6278 O   0  0  0  0  0  0  0  0  0  0  0  0
    0.7373    1.0359   -4.5535 H   0  0  0  0  0  0  0  0  0  0  0  0
    0.9695    0.0614    0.5903 C   0  0  0  0  0  0  0  0  0  0  0  0
    2.1871    0.0427    0.7056 O   0  0  0  0  0  0  0  0  0  0  0  0
    0.1954    0.4119    1.6818 N   0  0  0  0  0  0  0  0  0  0  0  0
   -0.8088    0.3335    1.5607 H   0  0  0  0  0  0  0  0  0  0  0  0
    0.7335    0.5057    3.0334 C   0  0  0  0  0  0  0  0  0  0  0  0
    1.5406    1.2448    3.0758 H   0  0  0  0  0  0  0  0  0  0  0  0
   -0.0501    0.8129    3.7323 H   0  0  0  0  0  0  0  0  0  0  0  0
    1.1268   -0.4642    3.3556 H   0  0  0  0  0  0  0  0  0  0  0  0
  1  2  1  0  0  0  0
  2  3  1  0  0  0  0
  2  4  1  0  0  0  0
  2  5  1  0  0  0  0
  5  6  2  0  0  0  0
  5  7  1  0  0  0  0
  7  8  1  0  0  0  0
  7  9  1  0  0  0  0
  9 10  1  0  0  0  0
  9 11  1  0  0  0  0
  9 18  1  0  0  0  0
 11 12  1  0  0  0  0
 11 13  1  0  0  0  0
 11 14  1  0  0  0  0
 14 15  2  0  0  0  0
 14 16  1  0  0  0  0
 16 17  1  0  0  0  0
 18 19  2  0  0  0  0
 18 20  1  0  0  0  0
 20 21  1  0  0  0  0
 20 22  1  0  0  0  0
 22 23  1  0  0  0  0
 22 24  1  0  0  0  0
 22 25  1  0  0  0  0
M  END
$$$$

  -OEChem-02102214113D

 25 24  0     1  0  0  0  0  0999 V2000
   -2.5192   -3.6992   -0.3966 H   0  0  0  0  0  0  0  0  0  0  0  0
   -2.5425   -2.6520   -0.7118 C   0  0  0  0  0  0  0  0  0  0  0  0
   -3.3064   -2.1272   -0.1334 H   0  0  0  0  0  0  0  0  0  0  0  0
   -2.8040   -2.6111   -1.7719 H   0  0  0  0  0  0  0  0  0  0  0  0
   -1.1869   -2.0094   -0.4853 C   0  0  0  0  0  0  0  0  0  0  0  0
   -0.2916   -2.6516    0.0331 O   0  0  0  0  0  0  0  0  0  0  0  0
   -0.9798   -0.6961   -0.8626 N   0  0  0  0  0  0  0  0  0  0  0  0
   -1.7367   -0.2459   -1.3705 H   0  0  0  0  0  0  0  0  0  0  0  0
    0.3306   -0.0188   -0.8198 C   0  0  1  0  0  0  0  0  0  0  0  0
    1.0432   -0.5717   -1.4442 H   0  0  0  0  0  0  0  0  0  0  0  0
    0.1468    1.4069   -1.3693 C   0  0  0  0  0  0  0  0  0  0  0  0
   -0.7126    1.8896   -0.8946 H   0  0  0  0  0  0  0  0  0  0  0  0
    1.0342    1.9995   -1.1262 H   0  0  0  0  0  0  0  0  0  0  0  0
   -0.0065    1.4292   -2.8847 C   0  0  0  0  0  0  0  0  0  0  0  0
   -0.8886    2.1294   -3.3503 O   0  0  0  0  0  0  0  0  0  0  0  0
    0.8516    0.7052   -3.6405 O   0  0  0  0  0  0  0  0  0  0  0  0
    0.6198    0.8832   -4.5648 H   0  0  0  0  0  0  0  0  0  0  0  0
    0.9643    0.0477    0.5876 C   0  0  0  0  0  0  0  0  0  0  0  0
    2.1819    0.0295    0.7030 O   0  0  0  0  0  0  0  0  0  0  0  0
    0.1914    0.4047    1.6778 N   0  0  0  0  0  0  0  0  0  0  0  0
   -0.8134    0.3318    1.5585 H   0  0  0  0  0  0  0  0  0  0  0  0
    0.7323    0.5166    3.0266 C   0  0  0  0  0  0  0  0  0  0  0  0
    1.5282    1.2681    3.0601 H   0  0  0  0  0  0  0  0  0  0  0  0
   -0.0536    0.8174    3.7260 H   0  0  0  0  0  0  0  0  0  0  0  0
    1.1417   -0.4447    3.3550 H   0  0  0  0  0  0  0  0  0  0  0  0
  1  2  1  0  0  0  0
  2  3  1  0  0  0  0
  2  4  1  0  0  0  0
  2  5  1  0  0  0  0
  5  6  2  0  0  0  0
  5  7  1  0  0  0  0
  7  8  1  0  0  0  0
  7  9  1  0  0  0  0
  9 10  1  0  0  0  0
  9 11  1  0  0  0  0
  9 18  1  0  0  0  0
 11 12  1  0  0  0  0
 11 13  1  0  0  0  0
 11 14  1  0  0  0  0
 14 15  2  0  0  0  0
 14 16  1  0  0  0  0
 16 17  1  0  0  0  0
 18 19  2  0  0  0  0
 18 20  1  0  0  0  0
 20 21  1  0  0  0  0
 20 22  1  0  0  0  0
 22 23  1  0  0  0  0
 22 24  1  0  0  0  0
 22 25  1  0  0  0  0
M  END
$$$$

  -OEChem-02102214113D

 25 24  0     1  0  0  0  0  0999 V2000
   -2.5323   -3.7014   -0.3567 H   0  0  0  0  0  0  0  0  0  0  0  0
   -2.5459   -2.6655   -0.7081 C   0  0  0  0  0  0  0  0  0  0  0  0
   -3.3260   -2.1219   -0.1698 H   0  0  0  0  0  0  0  0  0  0  0  0
   -2.7768   -2.6609   -1.7761 H   0  0  0  0  0  0  0  0  0  0  0  0
   -1.1967   -2.0148   -0.4656 C   0  0  0  0  0  0  0  0  0  0  0  0
   -0.3082   -2.6488    0.0741 O   0  0  0  0  0  0  0  0  0  0  0  0
   -0.9881   -0.7045   -0.8528 N   0  0  0  0  0  0  0  0  0  0  0  0
   -1.7333   -0.2708   -1.3904 H   0  0  0  0  0  0  0  0  0  0  0  0
    0.3250   -0.0316   -0.8179 C   0  0  1  0  0  0  0  0  0  0  0  0
    1.0347   -0.5927   -1.4378 H   0  0  0  0  0  0  0  0  0  0  0  0
    0.1517    1.3953   -1.3730 C   0  0  0  0  0  0  0  0  0  0  0  0
   -0.7029    1.8823   -0.8946 H   0  0  0  0  0  0  0  0  0  0  0  0
    1.0447    1.9788   -1.1283 H   0  0  0  0  0  0  0  0  0  0  0  0
   -0.0069    1.4426   -2.8891 C   0  0  0  0  0  0  0  0  0  0  0  0
   -0.6759    2.3512   -3.3489 O   0  0  0  0  0  0  0  0  0  0  0  0
    0.6057    0.5072   -3.6528 O   0  0  0  0  0  0  0  0  0  0  0  0
    0.4196    0.7441   -4.5745 H   0  0  0  0  0  0  0  0  0  0  0  0
    0.9614    0.0413    0.5883 C   0  0  0  0  0  0  0  0  0  0  0  0
    2.1795    0.0222    0.7005 O   0  0  0  0  0  0  0  0  0  0  0  0
    0.1922    0.4078    1.6779 N   0  0  0  0  0  0  0  0  0  0  0  0
   -0.8129    0.3347    1.5617 H   0  0  0  0  0  0  0  0  0  0  0  0
    0.7373    0.5261    3.0247 C   0  0  0  0  0  0  0  0  0  0  0  0
    1.5264    1.2851    3.0535 H   0  0  0  0  0  0  0  0  0  0  0  0
   -0.0483    0.8200    3.7272 H   0  0  0  0  0  0  0  0  0  0  0  0
    1.1572   -0.4309    3.3523 H   0  0  0  0  0  0  0  0  0  0  0  0
  1  2  1  0  0  0  0
  2  3  1  0  0  0  0
  2  4  1  0  0  0  0
  2  5  1  0  0  0  0
  5  6  2  0  0  0  0
  5  7  1  0  0  0  0
  7  8  1  0  0  0  0
  7  9  1  0  0  0  0
  9 10  1  0  0  0  0
  9 11  1  0  0  0  0
  9 18  1  0  0  0  0
 11 12  1  0  0  0  0
 11 13  1  0  0  0  0
 11 14  1  0  0  0  0
 14 15  2  0  0  0  0
 14 16  1  0  0  0  0
 16 17  1  0  0  0  0
 18 19  2  0  0  0  0
 18 20  1  0  0  0  0
 20 21  1  0  0  0  0
 20 22  1  0  0  0  0
 22 23  1  0  0  0  0
 22 24  1  0  0  0  0
 22 25  1  0  0  0  0
M  END
$$$$

  -OEChem-02102214113D

 25 24  0     1  0  0  0  0  0999 V2000
   -2.5373   -3.7017   -0.3367 H   0  0  0  0  0  0  0  0  0  0  0  0
   -2.5435   -2.6744   -0.7120 C   0  0  0  0  0  0  0  0  0  0  0  0
   -3.3398   -2.1212   -0.2086 H   0  0  0  0  0  0  0  0  0  0  0  0
   -2.7444   -2.6948   -1.7857 H   0  0  0  0  0  0  0  0  0  0  0  0
   -1.2036   -2.0139   -0.4469 C   0  0  0  0  0  0  0  0  0  0  0  0
   -0.3247   -2.6380    0.1195 O   0  0  0  0  0  0  0  0  0  0  0  0
   -0.9960   -0.7057   -0.8412 N   0  0  0  0  0  0  0  0  0  0  0  0
   -1.7247   -0.2948   -1.4176 H   0  0  0  0  0  0  0  0  0  0  0  0
    0.3193   -0.0366   -0.8143 C   0  0  1  0  0  0  0  0  0  0  0  0
    1.0249   -0.6027   -1.4347 H   0  0  0  0  0  0  0  0  0  0  0  0
    0.1554    1.3906   -1.3741 C   0  0  0  0  0  0  0  0  0  0  0  0
   -0.6957    1.8829   -0.8956 H   0  0  0  0  0  0  0  0  0  0  0  0
    1.0526    1.9677   -1.1290 H   0  0  0  0  0  0  0  0  0  0  0  0
   -0.0076    1.4506   -2.8900 C   0  0  0  0  0  0  0  0  0  0  0  0
   -0.4176    2.4978   -3.3581 O   0  0  0  0  0  0  0  0  0  0  0  0
    0.2887    0.3644   -3.6430 O   0  0  0  0  0  0  0  0  0  0  0  0
    0.1539    0.6312   -4.5657 H   0  0  0  0  0  0  0  0  0  0  0  0
    0.9605    0.0394    0.5895 C   0  0  0  0  0  0  0  0  0  0  0  0
    2.1792    0.0211    0.6964 O   0  0  0  0  0  0  0  0  0  0  0  0
    0.1949    0.4125    1.6794 N   0  0  0  0  0  0  0  0  0  0  0  0
   -0.8099    0.3261    1.5686 H   0  0  0  0  0  0  0  0  0  0  0  0
    0.7439    0.5329    3.0242 C   0  0  0  0  0  0  0  0  0  0  0  0
    1.5371    1.2877    3.0490 H   0  0  0  0  0  0  0  0  0  0  0  0
   -0.0389    0.8337    3.7270 H   0  0  0  0  0  0  0  0  0  0  0  0
    1.1591   -0.4252    3.3544 H   0  0  0  0  0  0  0  0  0  0  0  0
  1  2  1  0  0  0  0
  2  3  1  0  0  0  0
  2  4  1  0  0  0  0
  2  5  1  0  0  0  0
  5  6  2  0  0  0  0
  5  7  1  0  0  0  0
  7  8  1  0  0  0  0
  7  9  1  0  0  0  0
  9 10  1  0  0  0  0
  9 11  1  0  0  0  0
  9 18  1  0  0  0  0
 11 12  1  0  0  0  0
 11 13  1  0  0  0  0
 11 14  1  0  0  0  0
 14 15  2  0  0  0  0
 14 16  1  0  0  0  0
 16 17  1  0  0  0  0
 18 19  2  0  0  0  0
 18 20  1  0  0  0  0
 20 21  1  0  0  0  0
 20 22  1  0  0  0  0
 22 23  1  0  0  0  0
 22 24  1  0  0  0  0
 22 25  1  0  0  0  0
M  END
$$$$

  -OEChem-02102214113D

 25 24  0     1  0  0  0  0  0999 V2000
   -2.5325   -3.7372   -0.3342 H   0  0  0  0  0  0  0  0  0  0  0  0
   -2.5391   -2.7183   -0.7321 C   0  0  0  0  0  0  0  0  0  0  0  0
   -3.3804   -2.1755   -0.2948 H   0  0  0  0  0  0  0  0  0  0  0  0
   -2.6669   -2.7654   -1.8163 H   0  0  0  0  0  0  0  0  0  0  0  0
   -1.2366   -2.0176   -0.3942 C   0  0  0  0  0  0  0  0  0  0  0  0
   -0.3785   -2.6093    0.2356 O   0  0  0  0  0  0  0  0  0  0  0  0
   -1.0400   -0.7117   -0.8012 N   0  0  0  0  0  0  0  0  0  0  0  0
   -1.7158   -0.3713   -1.4806 H   0  0  0  0  0  0  0  0  0  0  0  0
    0.2774   -0.0462   -0.7939 C   0  0  1  0  0  0  0  0  0  0  0  0
    0.9597   -0.6257   -1.4275 H   0  0  0  0  0  0  0  0  0  0  0  0
    0.1476    1.3770   -1.3762 C   0  0  0  0  0  0  0  0  0  0  0  0
   -0.5250    1.9627   -0.7436 H   0  0  0  0  0  0  0  0  0  0  0  0
    1.1321    1.8547   -1.3462 H   0  0  0  0  0  0  0  0  0  0  0  0
   -0.3596    1.4545   -2.8146 C   0  0  0  0  0  0  0  0  0  0  0  0
   -0.4703    2.5671   -3.2967 O   0  0  0  0  0  0  0  0  0  0  0  0
   -0.6918    0.3211   -3.4807 O   0  0  0  0  0  0  0  0  0  0  0  0
   -0.9429    0.6059   -4.3741 H   0  0  0  0  0  0  0  0  0  0  0  0
    0.9471    0.0433    0.5954 C   0  0  0  0  0  0  0  0  0  0  0  0
    2.1680    0.0241    0.6746 O   0  0  0  0  0  0  0  0  0  0  0  0
    0.2047    0.4284    1.6969 N   0  0  0  0  0  0  0  0  0  0  0  0
   -0.8016    0.3300    1.6096 H   0  0  0  0  0  0  0  0  0  0  0  0
    0.7821    0.5571    3.0289 C   0  0  0  0  0  0  0  0  0  0  0  0
    1.5813    1.3060    3.0302 H   0  0  0  0  0  0  0  0  0  0  0  0
    0.0164    0.8710    3.7447 H   0  0  0  0  0  0  0  0  0  0  0  0
    1.1964   -0.4011    3.3600 H   0  0  0  0  0  0  0  0  0  0  0  0
  1  2  1  0  0  0  0
  2  3  1  0  0  0  0
  2  4  1  0  0  0  0
  2  5  1  0  0  0  0
  5  6  2  0  0  0  0
  5  7  1  0  0  0  0
  7  8  1  0  0  0  0
  7  9  1  0  0  0  0
  9 10  1  0  0  0  0
  9 11  1  0  0  0  0
  9 18  1  0  0  0  0
 11 12  1  0  0  0  0
 11 13  1  0  0  0  0
 11 14  1  0  0  0  0
 14 15  2  0  0  0  0
 14 16  1  0  0  0  0
 16 17  1  0  0  0  0
 18 19  2  0  0  0  0
 18 20  1  0  0  0  0
 20 21  1  0  0  0  0
 20 22  1  0  0  0  0
 22 23  1  0  0  0  0
 22 24  1  0  0  0  0
 22 25  1  0  0  0  0
M  END
$$$$

  -OEChem-02102214113D

 25 24  0     1  0  0  0  0  0999 V2000
   -2.5158   -3.7605   -0.3676 H   0  0  0  0  0  0  0  0  0  0  0  0
   -2.5381   -2.7297   -0.7325 C   0  0  0  0  0  0  0  0  0  0  0  0
   -3.3827   -2.2117   -0.2724 H   0  0  0  0  0  0  0  0  0  0  0  0
   -2.6738   -2.7443   -1.8166 H   0  0  0  0  0  0  0  0  0  0  0  0
   -1.2422   -2.0233   -0.3817 C   0  0  0  0  0  0  0  0  0  0  0  0
   -0.3882   -2.6105    0.2580 O   0  0  0  0  0  0  0  0  0  0  0  0
   -1.0448   -0.7193   -0.7932 N   0  0  0  0  0  0  0  0  0  0  0  0
   -1.7102   -0.3894   -1.4899 H   0  0  0  0  0  0  0  0  0  0  0  0
    0.2717   -0.0540   -0.7908 C   0  0  1  0  0  0  0  0  0  0  0  0
    0.9519   -0.6367   -1.4234 H   0  0  0  0  0  0  0  0  0  0  0  0
    0.1467    1.3688   -1.3780 C   0  0  0  0  0  0  0  0  0  0  0  0
   -0.5261    1.9562   -0.7474 H   0  0  0  0  0  0  0  0  0  0  0  0
    1.1323    1.8445   -1.3423 H   0  0  0  0  0  0  0  0  0  0  0  0
   -0.3601    1.4554   -2.8175 C   0  0  0  0  0  0  0  0  0  0  0  0
   -0.2006    2.5187   -3.3892 O   0  0  0  0  0  0  0  0  0  0  0  0
   -1.0088    0.4039   -3.3782 O   0  0  0  0  0  0  0  0  0  0  0  0
   -1.2167    0.6827   -4.2851 H   0  0  0  0  0  0  0  0  0  0  0  0
    0.9448    0.0408    0.5964 C   0  0  0  0  0  0  0  0  0  0  0  0
    2.1661    0.0229    0.6714 O   0  0  0  0  0  0  0  0  0  0  0  0
    0.2058    0.4297    1.6987 N   0  0  0  0  0  0  0  0  0  0  0  0
   -0.8007    0.3293    1.6154 H   0  0  0  0  0  0  0  0  0  0  0  0
    0.7884    0.5690    3.0274 C   0  0  0  0  0  0  0  0  0  0  0  0
    1.5914    1.3135    3.0176 H   0  0  0  0  0  0  0  0  0  0  0  0
    0.0271    0.8944    3.7425 H   0  0  0  0  0  0  0  0  0  0  0  0
    1.1992   -0.3876    3.3669 H   0  0  0  0  0  0  0  0  0  0  0  0
  1  2  1  0  0  0  0
  2  3  1  0  0  0  0
  2  4  1  0  0  0  0
  2  5  1  0  0  0  0
  5  6  2  0  0  0  0
  5  7  1  0  0  0  0
  7  8  1  0  0  0  0
  7  9  1  0  0  0  0
  9 10  1  0  0  0  0
  9 11  1  0  0  0  0
  9 18  1  0  0  0  0
 11 12  1  0  0  0  0
 11 13  1  0  0  0  0
 11 14  1  0  0  0  0
 14 15  2  0  0  0  0
 14 16  1  0  0  0  0
 16 17  1  0  0  0  0
 18 19  2  0  0  0  0
 18 20  1  0  0  0  0
 20 21  1  0  0  0  0
 20 22  1  0  0  0  0
 22 23  1  0  0  0  0
 22 24  1  0  0  0  0
 22 25  1  0  0  0  0
M  END
$$$$

  -OEChem-02102214113D

 25 24  0     1  0  0  0  0  0999 V2000
   -2.5112   -3.7592   -0.3447 H   0  0  0  0  0  0  0  0  0  0  0  0
   -2.5366   -2.7292   -0.7120 C   0  0  0  0  0  0  0  0  0  0  0  0
   -3.3687   -2.2057   -0.2355 H   0  0  0  0  0  0  0  0  0  0  0  0
   -2.6958   -2.7460   -1.7928 H   0  0  0  0  0  0  0  0  0  0  0  0
   -1.2300   -2.0284   -0.3901 C   0  0  0  0  0  0  0  0  0  0  0  0
   -0.3627   -2.6217    0.2256 O   0  0  0  0  0  0  0  0  0  0  0  0
   -1.0365   -0.7227   -0.7981 N   0  0  0  0  0  0  0  0  0  0  0  0
   -1.7187   -0.3762   -1.4717 H   0  0  0  0  0  0  0  0  0  0  0  0
    0.2753   -0.0488   -0.7971 C   0  0  1  0  0  0  0  0  0  0  0  0
    0.9588   -0.6274   -1.4297 H   0  0  0  0  0  0  0  0  0  0  0  0
    0.1455    1.3741   -1.3834 C   0  0  0  0  0  0  0  0  0  0  0  0
   -0.5317    1.9588   -0.7553 H   0  0  0  0  0  0  0  0  0  0  0  0
    1.1292    1.8543   -1.3439 H   0  0  0  0  0  0  0  0  0  0  0  0
   -0.3619    1.4519   -2.8235 C   0  0  0  0  0  0  0  0  0  0  0  0
    0.0294    2.3892   -3.4950 O   0  0  0  0  0  0  0  0  0  0  0  0
   -1.2777    0.5546   -3.2689 O   0  0  0  0  0  0  0  0  0  0  0  0
   -1.4577    0.8087   -4.1891 H   0  0  0  0  0  0  0  0  0  0  0  0
    0.9457    0.0447    0.5913 C   0  0  0  0  0  0  0  0  0  0  0  0
    2.1666    0.0281    0.6704 O   0  0  0  0  0  0  0  0  0  0  0  0
    0.2018    0.4251    1.6932 N   0  0  0  0  0  0  0  0  0  0  0  0
   -0.8043    0.3247    1.6049 H   0  0  0  0  0  0  0  0  0  0  0  0
    0.7787    0.5576    3.0249 C   0  0  0  0  0  0  0  0  0  0  0  0
    1.5773    1.3070    3.0241 H   0  0  0  0  0  0  0  0  0  0  0  0
    0.0126    0.8727    3.7397 H   0  0  0  0  0  0  0  0  0  0  0  0
    1.1940   -0.3994    3.3581 H   0  0  0  0  0  0  0  0  0  0  0  0
  1  2  1  0  0  0  0
  2  3  1  0  0  0  0
  2  4  1  0  0  0  0
  2  5  1  0  0  0  0
  5  6  2  0  0  0  0
  5  7  1  0  0  0  0
  7  8  1  0  0  0  0
  7  9  1  0  0  0  0
  9 10  1  0  0  0  0
  9 11  1  0  0  0  0
  9 18  1  0  0  0  0
 11 12  1  0  0  0  0
 11 13  1  0  0  0  0
 11 14  1  0  0  0  0
 14 15  2  0  0  0  0
 14 16  1  0  0  0  0
 16 17  1  0  0  0  0
 18 19  2  0  0  0  0
 18 20  1  0  0  0  0
 20 21  1  0  0  0  0
 20 22  1  0  0  0  0
 22 23  1  0  0  0  0
 22 24  1  0  0  0  0
 22 25  1  0  0  0  0
M  END
$$$$

  -OEChem-02102214113D

 25 24  0     1  0  0  0  0  0999 V2000
   -2.4994   -3.7581   -0.3800 H   0  0  0  0  0  0  0  0  0  0  0  0
   -2.5379   -2.7141   -0.7038 C   0  0  0  0  0  0  0  0  0  0  0  0
   -3.3472   -2.2094   -0.1708 H   0  0  0  0  0  0  0  0  0  0  0  0
   -2.7435   -2.6867   -1.7766 H   0  0  0  0  0  0  0  0  0  0  0  0
   -1.2172   -2.0274   -0.4105 C   0  0  0  0  0  0  0  0  0  0  0  0
   -0.3366   -2.6322    0.1744 O   0  0  0  0  0  0  0  0  0  0  0  0
   -1.0258   -0.7184   -0.8079 N   0  0  0  0  0  0  0  0  0  0  0  0
   -1.7309   -0.3450   -1.4432 H   0  0  0  0  0  0  0  0  0  0  0  0
    0.2806   -0.0355   -0.8008 C   0  0  1  0  0  0  0  0  0  0  0  0
    0.9700   -0.6046   -1.4356 H   0  0  0  0  0  0  0  0  0  0  0  0
    0.1366    1.3865   -1.3827 C   0  0  0  0  0  0  0  0  0  0  0  0
   -0.5501    1.9645   -0.7590 H   0  0  0  0  0  0  0  0  0  0  0  0
    1.1136    1.8802   -1.3413 H   0  0  0  0  0  0  0  0  0  0  0  0
   -0.3707    1.4375   -2.8230 C   0  0  0  0  0  0  0  0  0  0  0  0
    0.2013    2.1871   -3.5935 O   0  0  0  0  0  0  0  0  0  0  0  0
   -1.4796    0.7310   -3.1616 O   0  0  0  0  0  0  0  0  0  0  0  0
   -1.6380    0.9386   -4.0973 H   0  0  0  0  0  0  0  0  0  0  0  0
    0.9476    0.0532    0.5893 C   0  0  0  0  0  0  0  0  0  0  0  0
    2.1683    0.0418    0.6714 O   0  0  0  0  0  0  0  0  0  0  0  0
    0.1992    0.4207    1.6926 N   0  0  0  0  0  0  0  0  0  0  0  0
   -0.8063    0.3190    1.6004 H   0  0  0  0  0  0  0  0  0  0  0  0
    0.7721    0.5408    3.0274 C   0  0  0  0  0  0  0  0  0  0  0  0
    1.5798    1.2806    3.0338 H   0  0  0  0  0  0  0  0  0  0  0  0
    0.0068    0.8621    3.7403 H   0  0  0  0  0  0  0  0  0  0  0  0
    1.1746   -0.4226    3.3581 H   0  0  0  0  0  0  0  0  0  0  0  0
  1  2  1  0  0  0  0
  2  3  1  0  0  0  0
  2  4  1  0  0  0  0
  2  5  1  0  0  0  0
  5  6  2  0  0  0  0
  5  7  1  0  0  0  0
  7  8  1  0  0  0  0
  7  9  1  0  0  0  0
  9 10  1  0  0  0  0
  9 11  1  0  0  0  0
  9 18  1  0  0  0  0
 11 12  1  0  0  0  0
 11 13  1  0  0  0  0
 11 14  1  0  0  0  0
 14 15  2  0  0  0  0
 14 16  1  0  0  0  0
 16 17  1  0  0  0  0
 18 19  2  0  0  0  0
 18 20  1  0  0  0  0
 20 21  1  0  0  0  0
 20 22  1  0  0  0  0
 22 23  1  0  0  0  0
 22 24  1  0  0  0  0
 22 25  1  0  0  0  0
M  END
$$$$

  -OEChem-02102214113D

 25 24  0     1  0  0  0  0  0999 V2000
   -2.5075   -3.7399   -0.3936 H   0  0  0  0  0  0  0  0  0  0  0  0
   -2.5437   -2.6935   -0.7101 C   0  0  0  0  0  0  0  0  0  0  0  0
   -3.3395   -2.1864   -0.1595 H   0  0  0  0  0  0  0  0  0  0  0  0
   -2.7690   -2.6580   -1.7787 H   0  0  0  0  0  0  0  0  0  0  0  0
   -1.2121   -2.0195   -0.4365 C   0  0  0  0  0  0  0  0  0  0  0  0
   -0.3229   -2.6386    0.1195 O   0  0  0  0  0  0  0  0  0  0  0  0
   -1.0182   -0.7068   -0.8203 N   0  0  0  0  0  0  0  0  0  0  0  0
   -1.7438   -0.3034   -1.4129 H   0  0  0  0  0  0  0  0  0  0  0  0
    0.2871   -0.0214   -0.8040 C   0  0  1  0  0  0  0  0  0  0  0  0
    0.9802   -0.5804   -1.4440 H   0  0  0  0  0  0  0  0  0  0  0  0
    0.1278    1.4023   -1.3729 C   0  0  0  0  0  0  0  0  0  0  0  0
   -0.5648    1.9723   -0.7484 H   0  0  0  0  0  0  0  0  0  0  0  0
    1.0976    1.9100   -1.3360 H   0  0  0  0  0  0  0  0  0  0  0  0
   -0.3833    1.4270   -2.8099 C   0  0  0  0  0  0  0  0  0  0  0  0
    0.3171    1.9453   -3.6603 O   0  0  0  0  0  0  0  0  0  0  0  0
   -1.6212    0.9313   -3.0642 O   0  0  0  0  0  0  0  0  0  0  0  0
   -1.7667    1.0812   -4.0130 H   0  0  0  0  0  0  0  0  0  0  0  0
    0.9520    0.0562    0.5878 C   0  0  0  0  0  0  0  0  0  0  0  0
    2.1723    0.0439    0.6727 O   0  0  0  0  0  0  0  0  0  0  0  0
    0.2014    0.4126    1.6935 N   0  0  0  0  0  0  0  0  0  0  0  0
   -0.8044    0.3169    1.5985 H   0  0  0  0  0  0  0  0  0  0  0  0
    0.7724    0.5276    3.0298 C   0  0  0  0  0  0  0  0  0  0  0  0
    1.5742    1.2735    3.0423 H   0  0  0  0  0  0  0  0  0  0  0  0
    0.0040    0.8380    3.7441 H   0  0  0  0  0  0  0  0  0  0  0  0
    1.1820   -0.4347    3.3546 H   0  0  0  0  0  0  0  0  0  0  0  0
  1  2  1  0  0  0  0
  2  3  1  0  0  0  0
  2  4  1  0  0  0  0
  2  5  1  0  0  0  0
  5  6  2  0  0  0  0
  5  7  1  0  0  0  0
  7  8  1  0  0  0  0
  7  9  1  0  0  0  0
  9 10  1  0  0  0  0
  9 11  1  0  0  0  0
  9 18  1  0  0  0  0
 11 12  1  0  0  0  0
 11 13  1  0  0  0  0
 11 14  1  0  0  0  0
 14 15  2  0  0  0  0
 14 16  1  0  0  0  0
 16 17  1  0  0  0  0
 18 19  2  0  0  0  0
 18 20  1  0  0  0  0
 20 21  1  0  0  0  0
 20 22  1  0  0  0  0
 22 23  1  0  0  0  0
 22 24  1  0  0  0  0
 22 25  1  0  0  0  0
M  END
$$$$

  -OEChem-02102214113D

 25 24  0     1  0  0  0  0  0999 V2000
   -2.5171   -3.7144   -0.4097 H   0  0  0  0  0  0  0  0  0  0  0  0
   -2.5496   -2.6651   -0.7161 C   0  0  0  0  0  0  0  0  0  0  0  0
   -3.3301   -2.1558   -0.1461 H   0  0  0  0  0  0  0  0  0  0  0  0
   -2.7940   -2.6178   -1.7799 H   0  0  0  0  0  0  0  0  0  0  0  0
   -1.2072   -2.0058   -0.4622 C   0  0  0  0  0  0  0  0  0  0  0  0
   -0.3115   -2.6387    0.0668 O   0  0  0  0  0  0  0  0  0  0  0  0
   -1.0104   -0.6898   -0.8328 N   0  0  0  0  0  0  0  0  0  0  0  0
   -1.7542   -0.2585   -1.3811 H   0  0  0  0  0  0  0  0  0  0  0  0
    0.2955   -0.0050   -0.8078 C   0  0  1  0  0  0  0  0  0  0  0  0
    0.9908   -0.5536   -1.4548 H   0  0  0  0  0  0  0  0  0  0  0  0
    0.1215    1.4199   -1.3613 C   0  0  0  0  0  0  0  0  0  0  0  0
   -0.5737    1.9831   -0.7330 H   0  0  0  0  0  0  0  0  0  0  0  0
    1.0864    1.9372   -1.3317 H   0  0  0  0  0  0  0  0  0  0  0  0
   -0.3944    1.4236   -2.7939 C   0  0  0  0  0  0  0  0  0  0  0  0
    0.3831    1.6842   -3.6937 O   0  0  0  0  0  0  0  0  0  0  0  0
   -1.7059    1.1405   -2.9956 O   0  0  0  0  0  0  0  0  0  0  0  0
   -1.8410    1.2221   -3.9540 H   0  0  0  0  0  0  0  0  0  0  0  0
    0.9583    0.0594    0.5853 C   0  0  0  0  0  0  0  0  0  0  0  0
    2.1783    0.0475    0.6740 O   0  0  0  0  0  0  0  0  0  0  0  0
    0.2039    0.4059    1.6915 N   0  0  0  0  0  0  0  0  0  0  0  0
   -0.8016    0.3118    1.5923 H   0  0  0  0  0  0  0  0  0  0  0  0
    0.7700    0.5124    3.0303 C   0  0  0  0  0  0  0  0  0  0  0  0
    1.5693    1.2608    3.0506 H   0  0  0  0  0  0  0  0  0  0  0  0
   -0.0016    0.8147    3.7446 H   0  0  0  0  0  0  0  0  0  0  0  0
    1.1815   -0.4512    3.3485 H   0  0  0  0  0  0  0  0  0  0  0  0
  1  2  1  0  0  0  0
  2  3  1  0  0  0  0
  2  4  1  0  0  0  0
  2  5  1  0  0  0  0
  5  6  2  0  0  0  0
  5  7  1  0  0  0  0
  7  8  1  0  0  0  0
  7  9  1  0  0  0  0
  9 10  1  0  0  0  0
  9 11  1  0  0  0  0
  9 18  1  0  0  0  0
 11 12  1  0  0  0  0
 11 13  1  0  0  0  0
 11 14  1  0  0  0  0
 14 15  2  0  0  0  0
 14 16  1  0  0  0  0
 16 17  1  0  0  0  0
 18 19  2  0  0  0  0
 18 20  1  0  0  0  0
 20 21  1  0  0  0  0
 20 22  1  0  0  0  0
 22 23  1  0  0  0  0
 22 24  1  0  0  0  0
 22 25  1  0  0  0  0
M  END
$$$$

  -OEChem-02102214113D

 25 24  0     1  0  0  0  0  0999 V2000
   -2.5226   -3.6935   -0.4227 H   0  0  0  0  0  0  0  0  0  0  0  0
   -2.5538   -2.6417   -0.7209 C   0  0  0  0  0  0  0  0  0  0  0  0
   -3.3209   -2.1320   -0.1333 H   0  0  0  0  0  0  0  0  0  0  0  0
   -2.8165   -2.5848   -1.7798 H   0  0  0  0  0  0  0  0  0  0  0  0
   -1.2027   -1.9929   -0.4861 C   0  0  0  0  0  0  0  0  0  0  0  0
   -0.3009   -2.6362    0.0194 O   0  0  0  0  0  0  0  0  0  0  0  0
   -1.0049   -0.6737   -0.8449 N   0  0  0  0  0  0  0  0  0  0  0  0
   -1.7640   -0.2207   -1.3516 H   0  0  0  0  0  0  0  0  0  0  0  0
    0.3010    0.0115   -0.8102 C   0  0  1  0  0  0  0  0  0  0  0  0
    0.9989   -0.5302   -1.4607 H   0  0  0  0  0  0  0  0  0  0  0  0
    0.1184    1.4371   -1.3546 C   0  0  0  0  0  0  0  0  0  0  0  0
   -0.5795    1.9955   -0.7250 H   0  0  0  0  0  0  0  0  0  0  0  0
    1.0791    1.9619   -1.3291 H   0  0  0  0  0  0  0  0  0  0  0  0
   -0.3950    1.4269   -2.7863 C   0  0  0  0  0  0  0  0  0  0  0  0
    0.4101    1.4148   -3.6995 O   0  0  0  0  0  0  0  0  0  0  0  0
   -1.7374    1.3756   -2.9685 O   0  0  0  0  0  0  0  0  0  0  0  0
   -1.8686    1.3910   -3.9307 H   0  0  0  0  0  0  0  0  0  0  0  0
    0.9607    0.0653    0.5849 C   0  0  0  0  0  0  0  0  0  0  0  0
    2.1804    0.0527    0.6763 O   0  0  0  0  0  0  0  0  0  0  0  0
    0.2051    0.4024    1.6933 N   0  0  0  0  0  0  0  0  0  0  0  0
   -0.8007    0.3150    1.5917 H   0  0  0  0  0  0  0  0  0  0  0  0
    0.7694    0.4956    3.0339 C   0  0  0  0  0  0  0  0  0  0  0  0
    1.5691    1.2433    3.0629 H   0  0  0  0  0  0  0  0  0  0  0  0
   -0.0032    0.7913    3.7499 H   0  0  0  0  0  0  0  0  0  0  0  0
    1.1800   -0.4712    3.3438 H   0  0  0  0  0  0  0  0  0  0  0  0
  1  2  1  0  0  0  0
  2  3  1  0  0  0  0
  2  4  1  0  0  0  0
  2  5  1  0  0  0  0
  5  6  2  0  0  0  0
  5  7  1  0  0  0  0
  7  8  1  0  0  0  0
  7  9  1  0  0  0  0
  9 10  1  0  0  0  0
  9 11  1  0  0  0  0
  9 18  1  0  0  0  0
 11 12  1  0  0  0  0
 11 13  1  0  0  0  0
 11 14  1  0  0  0  0
 14 15  2  0  0  0  0
 14 16  1  0  0  0  0
 16 17  1  0  0  0  0
 18 19  2  0  0  0  0
 18 20  1  0  0  0  0
 20 21  1  0  0  0  0
 20 22  1  0  0  0  0
 22 23  1  0  0  0  0
 22 24  1  0  0  0  0
 22 25  1  0  0  0  0
M  END
$$$$

  -OEChem-02102214113D

 25 24  0     1  0  0  0  0  0999 V2000
   -2.5275   -3.6849   -0.4146 H   0  0  0  0  0  0  0  0  0  0  0  0
   -2.5556   -2.6349   -0.7198 C   0  0  0  0  0  0  0  0  0  0  0  0
   -3.3149   -2.1169   -0.1292 H   0  0  0  0  0  0  0  0  0  0  0  0
   -2.8270   -2.5836   -1.7769 H   0  0  0  0  0  0  0  0  0  0  0  0
   -1.1991   -1.9920   -0.5004 C   0  0  0  0  0  0  0  0  0  0  0  0
   -0.2942   -2.6400   -0.0066 O   0  0  0  0  0  0  0  0  0  0  0  0
   -1.0016   -0.6710   -0.8535 N   0  0  0  0  0  0  0  0  0  0  0  0
   -1.7717   -0.2056   -1.3290 H   0  0  0  0  0  0  0  0  0  0  0  0
    0.3046    0.0144   -0.8127 C   0  0  1  0  0  0  0  0  0  0  0  0
    1.0039   -0.5253   -1.4633 H   0  0  0  0  0  0  0  0  0  0  0  0
    0.1225    1.4414   -1.3521 C   0  0  0  0  0  0  0  0  0  0  0  0
   -0.5754    1.9971   -0.7201 H   0  0  0  0  0  0  0  0  0  0  0  0
    1.0823    1.9670   -1.3246 H   0  0  0  0  0  0  0  0  0  0  0  0
   -0.3871    1.4386   -2.7848 C   0  0  0  0  0  0  0  0  0  0  0  0
    0.3847    1.1560   -3.6832 O   0  0  0  0  0  0  0  0  0  0  0  0
   -1.7072    1.6728   -2.9766 O   0  0  0  0  0  0  0  0  0  0  0  0
   -1.8412    1.6398   -3.9375 H   0  0  0  0  0  0  0  0  0  0  0  0
    0.9617    0.0630    0.5837 C   0  0  0  0  0  0  0  0  0  0  0  0
    2.1813    0.0552    0.6782 O   0  0  0  0  0  0  0  0  0  0  0  0
    0.2032    0.3957    1.6915 N   0  0  0  0  0  0  0  0  0  0  0  0
   -0.8024    0.3097    1.5878 H   0  0  0  0  0  0  0  0  0  0  0  0
    0.7658    0.4914    3.0328 C   0  0  0  0  0  0  0  0  0  0  0  0
    1.5586    1.2463    3.0632 H   0  0  0  0  0  0  0  0  0  0  0  0
   -0.0091    0.7786    3.7498 H   0  0  0  0  0  0  0  0  0  0  0  0
    1.1851   -0.4724    3.3407 H   0  0  0  0  0  0  0  0  0  0  0  0
  1  2  1  0  0  0  0
  2  3  1  0  0  0  0
  2  4  1  0  0  0  0
  2  5  1  0  0  0  0
  5  6  2  0  0  0  0
  5  7  1  0  0  0  0
  7  8  1  0  0  0  0
  7  9  1  0  0  0  0
  9 10  1  0  0  0  0
  9 11  1  0  0  0  0
  9 18  1  0  0  0  0
 11 12  1  0  0  0  0
 11 13  1  0  0  0  0
 11 14  1  0  0  0  0
 14 15  2  0  0  0  0
 14 16  1  0  0  0  0
 16 17  1  0  0  0  0
 18 19  2  0  0  0  0
 18 20  1  0  0  0  0
 20 21  1  0  0  0  0
 20 22  1  0  0  0  0
 22 23  1  0  0  0  0
 22 24  1  0  0  0  0
 22 25  1  0  0  0  0
M  END
$$$$

  -OEChem-02102214113D

 25 24  0     1  0  0  0  0  0999 V2000
   -2.5258   -3.6967   -0.4139 H   0  0  0  0  0  0  0  0  0  0  0  0
   -2.5549   -2.6483   -0.7245 C   0  0  0  0  0  0  0  0  0  0  0  0
   -3.3244   -2.1312   -0.1468 H   0  0  0  0  0  0  0  0  0  0  0  0
   -2.8127   -2.6042   -1.7856 H   0  0  0  0  0  0  0  0  0  0  0  0
   -1.2041   -1.9979   -0.4909 C   0  0  0  0  0  0  0  0  0  0  0  0
   -0.3029   -2.6397    0.0176 O   0  0  0  0  0  0  0  0  0  0  0  0
   -1.0091   -0.6774   -0.8481 N   0  0  0  0  0  0  0  0  0  0  0  0
   -1.7766   -0.2208   -1.3340 H   0  0  0  0  0  0  0  0  0  0  0  0
    0.2980    0.0072   -0.8104 C   0  0  1  0  0  0  0  0  0  0  0  0
    0.9957   -0.5385   -1.4581 H   0  0  0  0  0  0  0  0  0  0  0  0
    0.1261    1.4352   -1.3541 C   0  0  0  0  0  0  0  0  0  0  0  0
   -0.5672    1.9941   -0.7196 H   0  0  0  0  0  0  0  0  0  0  0  0
    1.0894    1.9536   -1.3254 H   0  0  0  0  0  0  0  0  0  0  0  0
   -0.3812    1.4514   -2.7888 C   0  0  0  0  0  0  0  0  0  0  0  0
    0.2833    0.9133   -3.6564 O   0  0  0  0  0  0  0  0  0  0  0  0
   -1.5930    2.0105   -3.0141 O   0  0  0  0  0  0  0  0  0  0  0  0
   -1.7398    1.9457   -3.9713 H   0  0  0  0  0  0  0  0  0  0  0  0
    0.9583    0.0596    0.5844 C   0  0  0  0  0  0  0  0  0  0  0  0
    2.1781    0.0565    0.6753 O   0  0  0  0  0  0  0  0  0  0  0  0
    0.2030    0.3960    1.6932 N   0  0  0  0  0  0  0  0  0  0  0  0
   -0.8027    0.3069    1.5935 H   0  0  0  0  0  0  0  0  0  0  0  0
    0.7700    0.4991    3.0320 C   0  0  0  0  0  0  0  0  0  0  0  0
    1.5582    1.2591    3.0570 H   0  0  0  0  0  0  0  0  0  0  0  0
   -0.0044    0.7835    3.7507 H   0  0  0  0  0  0  0  0  0  0  0  0
    1.1967   -0.4608    3.3412 H   0  0  0  0  0  0  0  0  0  0  0  0
  1  2  1  0  0  0  0
  2  3  1  0  0  0  0
  2  4  1  0  0  0  0
  2  5  1  0  0  0  0
  5  6  2  0  0  0  0
  5  7  1  0  0  0  0
  7  8  1  0  0  0  0
  7  9  1  0  0  0  0
  9 10  1  0  0  0  0
  9 11  1  0  0  0  0
  9 18  1  0  0  0  0
 11 12  1  0  0  0  0
 11 13  1  0  0  0  0
 11 14  1  0  0  0  0
 14 15  2  0  0  0  0
 14 16  1  0  0  0  0
 16 17  1  0  0  0  0
 18 19  2  0  0  0  0
 18 20  1  0  0  0  0
 20 21  1  0  0  0  0
 20 22  1  0  0  0  0
 22 23  1  0  0  0  0
 22 24  1  0  0  0  0
 22 25  1  0  0  0  0
M  END
$$$$

  -OEChem-02102214113D

 25 24  0     1  0  0  0  0  0999 V2000
   -2.5191   -3.7160   -0.4227 H   0  0  0  0  0  0  0  0  0  0  0  0
   -2.5513   -2.6683   -0.7352 C   0  0  0  0  0  0  0  0  0  0  0  0
   -3.3431   -2.1595   -0.1804 H   0  0  0  0  0  0  0  0  0  0  0  0
   -2.7785   -2.6280   -1.8032 H   0  0  0  0  0  0  0  0  0  0  0  0
   -1.2160   -2.0016   -0.4639 C   0  0  0  0  0  0  0  0  0  0  0  0
   -0.3265   -2.6290    0.0820 O   0  0  0  0  0  0  0  0  0  0  0  0
   -1.0228   -0.6839   -0.8330 N   0  0  0  0  0  0  0  0  0  0  0  0
   -1.7693   -0.2589   -1.3758 H   0  0  0  0  0  0  0  0  0  0  0  0
    0.2875   -0.0046   -0.8064 C   0  0  1  0  0  0  0  0  0  0  0  0
    0.9795   -0.5600   -1.4519 H   0  0  0  0  0  0  0  0  0  0  0  0
    0.1275    1.4241   -1.3575 C   0  0  0  0  0  0  0  0  0  0  0  0
   -0.5574    1.9883   -0.7186 H   0  0  0  0  0  0  0  0  0  0  0  0
    1.0960    1.9323   -1.3302 H   0  0  0  0  0  0  0  0  0  0  0  0
   -0.3848    1.4636   -2.7919 C   0  0  0  0  0  0  0  0  0  0  0  0
    0.0976    0.7100   -3.6192 O   0  0  0  0  0  0  0  0  0  0  0  0
   -1.3932    2.3232   -3.0647 O   0  0  0  0  0  0  0  0  0  0  0  0
   -1.5678    2.2374   -4.0151 H   0  0  0  0  0  0  0  0  0  0  0  0
    0.9543    0.0548    0.5853 C   0  0  0  0  0  0  0  0  0  0  0  0
    2.1748    0.0525    0.6695 O   0  0  0  0  0  0  0  0  0  0  0  0
    0.2048    0.4025    1.6947 N   0  0  0  0  0  0  0  0  0  0  0  0
   -0.8008    0.3041    1.6020 H   0  0  0  0  0  0  0  0  0  0  0  0
    0.7781    0.5137    3.0301 C   0  0  0  0  0  0  0  0  0  0  0  0
    1.5709    1.2690    3.0458 H   0  0  0  0  0  0  0  0  0  0  0  0
    0.0081    0.8092    3.7490 H   0  0  0  0  0  0  0  0  0  0  0  0
    1.2000   -0.4461    3.3464 H   0  0  0  0  0  0  0  0  0  0  0  0
  1  2  1  0  0  0  0
  2  3  1  0  0  0  0
  2  4  1  0  0  0  0
  2  5  1  0  0  0  0
  5  6  2  0  0  0  0
  5  7  1  0  0  0  0
  7  8  1  0  0  0  0
  7  9  1  0  0  0  0
  9 10  1  0  0  0  0
  9 11  1  0  0  0  0
  9 18  1  0  0  0  0
 11 12  1  0  0  0  0
 11 13  1  0  0  0  0
 11 14  1  0  0  0  0
 14 15  2  0  0  0  0
 14 16  1  0  0  0  0
 16 17  1  0  0  0  0
 18 19  2  0  0  0  0
 18 20  1  0  0  0  0
 20 21  1  0  0  0  0
 20 22  1  0  0  0  0
 22 23  1  0  0  0  0
 22 24  1  0  0  0  0
 22 25  1  0  0  0  0
M  END
$$$$

  -OEChem-02102214113D

 25 24  0     1  0  0  0  0  0999 V2000
   -2.5287   -3.7208   -0.3837 H   0  0  0  0  0  0  0  0  0  0  0  0
   -2.5474   -2.6896   -0.7480 C   0  0  0  0  0  0  0  0  0  0  0  0
   -3.3712   -2.1605   -0.2634 H   0  0  0  0  0  0  0  0  0  0  0  0
   -2.7146   -2.7027   -1.8278 H   0  0  0  0  0  0  0  0  0  0  0  0
   -1.2316   -2.0017   -0.4353 C   0  0  0  0  0  0  0  0  0  0  0  0
   -0.3595   -2.6089    0.1596 O   0  0  0  0  0  0  0  0  0  0  0  0
   -1.0393   -0.6879   -0.8186 N   0  0  0  0  0  0  0  0  0  0  0  0
   -1.7533   -0.3046   -1.4314 H   0  0  0  0  0  0  0  0  0  0  0  0
    0.2758   -0.0165   -0.8037 C   0  0  1  0  0  0  0  0  0  0  0  0
    0.9609   -0.5812   -1.4484 H   0  0  0  0  0  0  0  0  0  0  0  0
    0.1273    1.4140   -1.3596 C   0  0  0  0  0  0  0  0  0  0  0  0
   -0.5491    1.9832   -0.7159 H   0  0  0  0  0  0  0  0  0  0  0  0
    1.1014    1.9118   -1.3337 H   0  0  0  0  0  0  0  0  0  0  0  0
   -0.3917    1.4814   -2.7920 C   0  0  0  0  0  0  0  0  0  0  0  0
   -0.1457    0.5741   -3.5685 O   0  0  0  0  0  0  0  0  0  0  0  0
   -1.1303    2.5651   -3.1233 O   0  0  0  0  0  0  0  0  0  0  0  0
   -1.3472    2.4671   -4.0635 H   0  0  0  0  0  0  0  0  0  0  0  0
    0.9501    0.0512    0.5845 C   0  0  0  0  0  0  0  0  0  0  0  0
    2.1714    0.0461    0.6606 O   0  0  0  0  0  0  0  0  0  0  0  0
    0.2084    0.4133    1.6944 N   0  0  0  0  0  0  0  0  0  0  0  0
   -0.7973    0.3070    1.6093 H   0  0  0  0  0  0  0  0  0  0  0  0
    0.7897    0.5270    3.0262 C   0  0  0  0  0  0  0  0  0  0  0  0
    1.5846    1.2804    3.0351 H   0  0  0  0  0  0  0  0  0  0  0  0
    0.0246    0.8258    3.7489 H   0  0  0  0  0  0  0  0  0  0  0  0
    1.2112   -0.4332    3.3423 H   0  0  0  0  0  0  0  0  0  0  0  0
  1  2  1  0  0  0  0
  2  3  1  0  0  0  0
  2  4  1  0  0  0  0
  2  5  1  0  0  0  0
  5  6  2  0  0  0  0
  5  7  1  0  0  0  0
  7  8  1  0  0  0  0
  7  9  1  0  0  0  0
  9 10  1  0  0  0  0
  9 11  1  0  0  0  0
  9 18  1  0  0  0  0
 11 12  1  0  0  0  0
 11 13  1  0  0  0  0
 11 14  1  0  0  0  0
 14 15  2  0  0  0  0
 14 16  1  0  0  0  0
 16 17  1  0  0  0  0
 18 19  2  0  0  0  0
 18 20  1  0  0  0  0
 20 21  1  0  0  0  0
 20 22  1  0  0  0  0
 22 23  1  0  0  0  0
 22 24  1  0  0  0  0
 22 25  1  0  0  0  0
M  END
$$$$

  -OEChem-02102214113D

 25 24  0     1  0  0  0  0  0999 V2000
   -2.5180   -3.7403   -0.4130 H   0  0  0  0  0  0  0  0  0  0  0  0
   -2.5458   -2.7036   -0.7607 C   0  0  0  0  0  0  0  0  0  0  0  0
   -3.3853   -2.1940   -0.2822 H   0  0  0  0  0  0  0  0  0  0  0  0
   -2.6945   -2.7008   -1.8433 H   0  0  0  0  0  0  0  0  0  0  0  0
   -1.2461   -2.0023   -0.4134 C   0  0  0  0  0  0  0  0  0  0  0  0
   -0.3897   -2.5957    0.2173 O   0  0  0  0  0  0  0  0  0  0  0  0
   -1.0524   -0.6918   -0.8073 N   0  0  0  0  0  0  0  0  0  0  0  0
   -1.7357   -0.3434   -1.4743 H   0  0  0  0  0  0  0  0  0  0  0  0
    0.2664   -0.0277   -0.7999 C   0  0  1  0  0  0  0  0  0  0  0  0
    0.9456   -0.5989   -1.4448 H   0  0  0  0  0  0  0  0  0  0  0  0
    0.1275    1.4034   -1.3606 C   0  0  0  0  0  0  0  0  0  0  0  0
   -0.5416    1.9788   -0.7151 H   0  0  0  0  0  0  0  0  0  0  0  0
    1.1069    1.8909   -1.3345 H   0  0  0  0  0  0  0  0  0  0  0  0
   -0.3941    1.4924   -2.7919 C   0  0  0  0  0  0  0  0  0  0  0  0
   -0.4108    0.4996   -3.5008 O   0  0  0  0  0  0  0  0  0  0  0  0
   -0.8306    2.7056   -3.2004 O   0  0  0  0  0  0  0  0  0  0  0  0
   -1.0941    2.6019   -4.1279 H   0  0  0  0  0  0  0  0  0  0  0  0
    0.9460    0.0468    0.5852 C   0  0  0  0  0  0  0  0  0  0  0  0
    2.1678    0.0383    0.6546 O   0  0  0  0  0  0  0  0  0  0  0  0
    0.2108    0.4210    1.6953 N   0  0  0  0  0  0  0  0  0  0  0  0
   -0.7951    0.3119    1.6163 H   0  0  0  0  0  0  0  0  0  0  0  0
    0.7992    0.5454    3.0231 C   0  0  0  0  0  0  0  0  0  0  0  0
    1.6031    1.2893    3.0185 H   0  0  0  0  0  0  0  0  0  0  0  0
    0.0412    0.8639    3.7450 H   0  0  0  0  0  0  0  0  0  0  0  0
    1.2099   -0.4156    3.3505 H   0  0  0  0  0  0  0  0  0  0  0  0
  1  2  1  0  0  0  0
  2  3  1  0  0  0  0
  2  4  1  0  0  0  0
  2  5  1  0  0  0  0
  5  6  2  0  0  0  0
  5  7  1  0  0  0  0
  7  8  1  0  0  0  0
  7  9  1  0  0  0  0
  9 10  1  0  0  0  0
  9 11  1  0  0  0  0
  9 18  1  0  0  0  0
 11 12  1  0  0  0  0
 11 13  1  0  0  0  0
 11 14  1  0  0  0  0
 14 15  2  0  0  0  0
 14 16  1  0  0  0  0
 16 17  1  0  0  0  0
 18 19  2  0  0  0  0
 18 20  1  0  0  0  0
 20 21  1  0  0  0  0
 20 22  1  0  0  0  0
 22 23  1  0  0  0  0
 22 24  1  0  0  0  0
 22 25  1  0  0  0  0
M  END
$$$$

  -OEChem-02102214113D

 25 24  0     1  0  0  0  0  0999 V2000
   -2.5056   -3.7512   -0.4326 H   0  0  0  0  0  0  0  0  0  0  0  0
   -2.5427   -2.7096   -0.7642 C   0  0  0  0  0  0  0  0  0  0  0  0
   -3.3914   -2.2169   -0.2843 H   0  0  0  0  0  0  0  0  0  0  0  0
   -2.6831   -2.6913   -1.8477 H   0  0  0  0  0  0  0  0  0  0  0  0
   -1.2541   -1.9988   -0.3962 C   0  0  0  0  0  0  0  0  0  0  0  0
   -0.4078   -2.5826    0.2571 O   0  0  0  0  0  0  0  0  0  0  0  0
   -1.0597   -0.6912   -0.7981 N   0  0  0  0  0  0  0  0  0  0  0  0
   -1.7234   -0.3639   -1.4964 H   0  0  0  0  0  0  0  0  0  0  0  0
    0.2602   -0.0302   -0.7968 C   0  0  1  0  0  0  0  0  0  0  0  0
    0.9354   -0.6074   -1.4399 H   0  0  0  0  0  0  0  0  0  0  0  0
    0.1285    1.3992   -1.3669 C   0  0  0  0  0  0  0  0  0  0  0  0
   -0.5348    1.9831   -0.7235 H   0  0  0  0  0  0  0  0  0  0  0  0
    1.1127    1.8772   -1.3411 H   0  0  0  0  0  0  0  0  0  0  0  0
   -0.3918    1.4995   -2.7994 C   0  0  0  0  0  0  0  0  0  0  0  0
   -0.6768    0.4905   -3.4246 O   0  0  0  0  0  0  0  0  0  0  0  0
   -0.5228    2.7476   -3.3035 O   0  0  0  0  0  0  0  0  0  0  0  0
   -0.8343    2.6424   -4.2156 H   0  0  0  0  0  0  0  0  0  0  0  0
    0.9429    0.0506    0.5866 C   0  0  0  0  0  0  0  0  0  0  0  0
    2.1649    0.0383    0.6528 O   0  0  0  0  0  0  0  0  0  0  0  0
    0.2112    0.4325    1.6963 N   0  0  0  0  0  0  0  0  0  0  0  0
   -0.7945    0.3183    1.6203 H   0  0  0  0  0  0  0  0  0  0  0  0
    0.8030    0.5485    3.0231 C   0  0  0  0  0  0  0  0  0  0  0  0
    1.6148    1.2835    3.0179 H   0  0  0  0  0  0  0  0  0  0  0  0
    0.0501    0.8741    3.7472 H   0  0  0  0  0  0  0  0  0  0  0  0
    1.2046   -0.4172    3.3476 H   0  0  0  0  0  0  0  0  0  0  0  0
  1  2  1  0  0  0  0
  2  3  1  0  0  0  0
  2  4  1  0  0  0  0
  2  5  1  0  0  0  0
  5  6  2  0  0  0  0
  5  7  1  0  0  0  0
  7  8  1  0  0  0  0
  7  9  1  0  0  0  0
  9 10  1  0  0  0  0
  9 11  1  0  0  0  0
  9 18  1  0  0  0  0
 11 12  1  0  0  0  0
 11 13  1  0  0  0  0
 11 14  1  0  0  0  0
 14 15  2  0  0  0  0
 14 16  1  0  0  0  0
 16 17  1  0  0  0  0
 18 19  2  0  0  0  0
 18 20  1  0  0  0  0
 20 21  1  0  0  0  0
 20 22  1  0  0  0  0
 22 23  1  0  0  0  0
 22 24  1  0  0  0  0
 22 25  1  0  0  0  0
M  END
$$$$

  -OEChem-02102214113D

 25 24  0     1  0  0  0  0  0999 V2000
   -2.5040   -3.7541   -0.4216 H   0  0  0  0  0  0  0  0  0  0  0  0
   -2.5428   -2.7122   -0.7520 C   0  0  0  0  0  0  0  0  0  0  0  0
   -3.3859   -2.2183   -0.2633 H   0  0  0  0  0  0  0  0  0  0  0  0
   -2.6942   -2.6928   -1.8341 H   0  0  0  0  0  0  0  0  0  0  0  0
   -1.2498   -2.0032   -0.3961 C   0  0  0  0  0  0  0  0  0  0  0  0
   -0.3973   -2.5885    0.2478 O   0  0  0  0  0  0  0  0  0  0  0  0
   -1.0571   -0.6957   -0.7987 N   0  0  0  0  0  0  0  0  0  0  0  0
   -1.7218   -0.3680   -1.4977 H   0  0  0  0  0  0  0  0  0  0  0  0
    0.2603   -0.0306   -0.7994 C   0  0  1  0  0  0  0  0  0  0  0  0
    0.9356   -0.6088   -1.4414 H   0  0  0  0  0  0  0  0  0  0  0  0
    0.1330    1.3990   -1.3728 C   0  0  0  0  0  0  0  0  0  0  0  0
   -0.5276    1.9880   -0.7310 H   0  0  0  0  0  0  0  0  0  0  0  0
    1.1206    1.8699   -1.3439 H   0  0  0  0  0  0  0  0  0  0  0  0
   -0.3831    1.5072   -2.8072 C   0  0  0  0  0  0  0  0  0  0  0  0
   -0.9240    0.5530   -3.3443 O   0  0  0  0  0  0  0  0  0  0  0  0
   -0.2201    2.7057   -3.4125 O   0  0  0  0  0  0  0  0  0  0  0  0
   -0.5782    2.6111   -4.3084 H   0  0  0  0  0  0  0  0  0  0  0  0
    0.9418    0.0521    0.5842 C   0  0  0  0  0  0  0  0  0  0  0  0
    2.1637    0.0385    0.6519 O   0  0  0  0  0  0  0  0  0  0  0  0
    0.2079    0.4320    1.6930 N   0  0  0  0  0  0  0  0  0  0  0  0
   -0.7979    0.3202    1.6148 H   0  0  0  0  0  0  0  0  0  0  0  0
    0.7961    0.5470    3.0215 C   0  0  0  0  0  0  0  0  0  0  0  0
    1.6096    1.2802    3.0194 H   0  0  0  0  0  0  0  0  0  0  0  0
    0.0413    0.8738    3.7429 H   0  0  0  0  0  0  0  0  0  0  0  0
    1.1944   -0.4198    3.3474 H   0  0  0  0  0  0  0  0  0  0  0  0
  1  2  1  0  0  0  0
  2  3  1  0  0  0  0
  2  4  1  0  0  0  0
  2  5  1  0  0  0  0
  5  6  2  0  0  0  0
  5  7  1  0  0  0  0
  7  8  1  0  0  0  0
  7  9  1  0  0  0  0
  9 10  1  0  0  0  0
  9 11  1  0  0  0  0
  9 18  1  0  0  0  0
 11 12  1  0  0  0  0
 11 13  1  0  0  0  0
 11 14  1  0  0  0  0
 14 15  2  0  0  0  0
 14 16  1  0  0  0  0
 16 17  1  0  0  0  0
 18 19  2  0  0  0  0
 18 20  1  0  0  0  0
 20 21  1  0  0  0  0
 20 22  1  0  0  0  0
 22 23  1  0  0  0  0
 22 24  1  0  0  0  0
 22 25  1  0  0  0  0
M  END
$$$$

  -OEChem-02102214113D

 25 24  0     1  0  0  0  0  0999 V2000
   -2.5117   -3.7486   -0.4118 H   0  0  0  0  0  0  0  0  0  0  0  0
   -2.5456   -2.7076   -0.7456 C   0  0  0  0  0  0  0  0  0  0  0  0
   -3.3802   -2.2055   -0.2506 H   0  0  0  0  0  0  0  0  0  0  0  0
   -2.7072   -2.6904   -1.8263 H   0  0  0  0  0  0  0  0  0  0  0  0
   -1.2435   -2.0073   -0.4053 C   0  0  0  0  0  0  0  0  0  0  0  0
   -0.3816   -2.6023    0.2169 O   0  0  0  0  0  0  0  0  0  0  0  0
   -1.0503   -0.6983   -0.8021 N   0  0  0  0  0  0  0  0  0  0  0  0
   -1.7274   -0.3542   -1.4823 H   0  0  0  0  0  0  0  0  0  0  0  0
    0.2641   -0.0285   -0.8010 C   0  0  1  0  0  0  0  0  0  0  0  0
    0.9412   -0.6042   -1.4432 H   0  0  0  0  0  0  0  0  0  0  0  0
    0.1381    1.4016   -1.3739 C   0  0  0  0  0  0  0  0  0  0  0  0
   -0.5233    1.9922   -0.7348 H   0  0  0  0  0  0  0  0  0  0  0  0
    1.1264    1.8710   -1.3409 H   0  0  0  0  0  0  0  0  0  0  0  0
   -0.3742    1.5076   -2.8103 C   0  0  0  0  0  0  0  0  0  0  0  0
   -1.1434    0.6682   -3.2533 O   0  0  0  0  0  0  0  0  0  0  0  0
    0.0531    2.5738   -3.5245 O   0  0  0  0  0  0  0  0  0  0  0  0
   -0.3474    2.4940   -4.4036 H   0  0  0  0  0  0  0  0  0  0  0  0
    0.9430    0.0503    0.5841 C   0  0  0  0  0  0  0  0  0  0  0  0
    2.1648    0.0401    0.6541 O   0  0  0  0  0  0  0  0  0  0  0  0
    0.2056    0.4229    1.6930 N   0  0  0  0  0  0  0  0  0  0  0  0
   -0.8002    0.3134    1.6115 H   0  0  0  0  0  0  0  0  0  0  0  0
    0.7904    0.5435    3.0225 C   0  0  0  0  0  0  0  0  0  0  0  0
    1.5983    1.2829    3.0203 H   0  0  0  0  0  0  0  0  0  0  0  0
    0.0317    0.8659    3.7417 H   0  0  0  0  0  0  0  0  0  0  0  0
    1.1952   -0.4197    3.3507 H   0  0  0  0  0  0  0  0  0  0  0  0
  1  2  1  0  0  0  0
  2  3  1  0  0  0  0
  2  4  1  0  0  0  0
  2  5  1  0  0  0  0
  5  6  2  0  0  0  0
  5  7  1  0  0  0  0
  7  8  1  0  0  0  0
  7  9  1  0  0  0  0
  9 10  1  0  0  0  0
  9 11  1  0  0  0  0
  9 18  1  0  0  0  0
 11 12  1  0  0  0  0
 11 13  1  0  0  0  0
 11 14  1  0  0  0  0
 14 15  2  0  0  0  0
 14 16  1  0  0  0  0
 16 17  1  0  0  0  0
 18 19  2  0  0  0  0
 18 20  1  0  0  0  0
 20 21  1  0  0  0  0
 20 22  1  0  0  0  0
 22 23  1  0  0  0  0
 22 24  1  0  0  0  0
 22 25  1  0  0  0  0
M  END
$$$$

  -OEChem-02102214113D

 25 24  0     1  0  0  0  0  0999 V2000
   -2.5045   -3.7438   -0.4380 H   0  0  0  0  0  0  0  0  0  0  0  0
   -2.5456   -2.6947   -0.7447 C   0  0  0  0  0  0  0  0  0  0  0  0
   -3.3668   -2.2048   -0.2165 H   0  0  0  0  0  0  0  0  0  0  0  0
   -2.7346   -2.6502   -1.8200 H   0  0  0  0  0  0  0  0  0  0  0  0
   -1.2342   -2.0042   -0.4207 C   0  0  0  0  0  0  0  0  0  0  0  0
   -0.3628   -2.6092    0.1783 O   0  0  0  0  0  0  0  0  0  0  0  0
   -1.0397   -0.6930   -0.8087 N   0  0  0  0  0  0  0  0  0  0  0  0
   -1.7336   -0.3256   -1.4600 H   0  0  0  0  0  0  0  0  0  0  0  0
    0.2714   -0.0177   -0.8008 C   0  0  1  0  0  0  0  0  0  0  0  0
    0.9532   -0.5889   -1.4419 H   0  0  0  0  0  0  0  0  0  0  0  0
    0.1408    1.4119   -1.3724 C   0  0  0  0  0  0  0  0  0  0  0  0
   -0.5281    2.0000   -0.7388 H   0  0  0  0  0  0  0  0  0  0  0  0
    1.1257    1.8887   -1.3362 H   0  0  0  0  0  0  0  0  0  0  0  0
   -0.3669    1.4959   -2.8112 C   0  0  0  0  0  0  0  0  0  0  0  0
   -1.3225    0.8171   -3.1566 O   0  0  0  0  0  0  0  0  0  0  0  0
    0.2790    2.3479   -3.6398 O   0  0  0  0  0  0  0  0  0  0  0  0
   -0.1565    2.2759   -4.5029 H   0  0  0  0  0  0  0  0  0  0  0  0
    0.9449    0.0561    0.5871 C   0  0  0  0  0  0  0  0  0  0  0  0
    2.1663    0.0462    0.6618 O   0  0  0  0  0  0  0  0  0  0  0  0
    0.2031    0.4193    1.6962 N   0  0  0  0  0  0  0  0  0  0  0  0
   -0.8023    0.3097    1.6106 H   0  0  0  0  0  0  0  0  0  0  0  0
    0.7834    0.5323    3.0284 C   0  0  0  0  0  0  0  0  0  0  0  0
    1.5946    1.2681    3.0328 H   0  0  0  0  0  0  0  0  0  0  0  0
    0.0232    0.8554    3.7458 H   0  0  0  0  0  0  0  0  0  0  0  0
    1.1826   -0.4338    3.3546 H   0  0  0  0  0  0  0  0  0  0  0  0
  1  2  1  0  0  0  0
  2  3  1  0  0  0  0
  2  4  1  0  0  0  0
  2  5  1  0  0  0  0
  5  6  2  0  0  0  0
  5  7  1  0  0  0  0
  7  8  1  0  0  0  0
  7  9  1  0  0  0  0
  9 10  1  0  0  0  0
  9 11  1  0  0  0  0
  9 18  1  0  0  0  0
 11 12  1  0  0  0  0
 11 13  1  0  0  0  0
 11 14  1  0  0  0  0
 14 15  2  0  0  0  0
 14 16  1  0  0  0  0
 16 17  1  0  0  0  0
 18 19  2  0  0  0  0
 18 20  1  0  0  0  0
 20 21  1  0  0  0  0
 20 22  1  0  0  0  0
 22 23  1  0  0  0  0
 22 24  1  0  0  0  0
 22 25  1  0  0  0  0
M  END
$$$$

  -OEChem-02102214113D

 25 24  0     1  0  0  0  0  0999 V2000
   -2.5089   -3.7242   -0.4408 H   0  0  0  0  0  0  0  0  0  0  0  0
   -2.5445   -2.6732   -0.7413 C   0  0  0  0  0  0  0  0  0  0  0  0
   -3.3451   -2.1754   -0.1891 H   0  0  0  0  0  0  0  0  0  0  0  0
   -2.7621   -2.6214   -1.8110 H   0  0  0  0  0  0  0  0  0  0  0  0
   -1.2163   -2.0008   -0.4481 C   0  0  0  0  0  0  0  0  0  0  0  0
   -0.3343   -2.6210    0.1187 O   0  0  0  0  0  0  0  0  0  0  0  0
   -1.0182   -0.6871   -0.8251 N   0  0  0  0  0  0  0  0  0  0  0  0
   -1.7326   -0.2905   -1.4361 H   0  0  0  0  0  0  0  0  0  0  0  0
    0.2896   -0.0060   -0.8037 C   0  0  1  0  0  0  0  0  0  0  0  0
    0.9803   -0.5673   -1.4444 H   0  0  0  0  0  0  0  0  0  0  0  0
    0.1442    1.4228   -1.3671 C   0  0  0  0  0  0  0  0  0  0  0  0
   -0.5373    2.0018   -0.7383 H   0  0  0  0  0  0  0  0  0  0  0  0
    1.1208    1.9161   -1.3293 H   0  0  0  0  0  0  0  0  0  0  0  0
   -0.3605    1.4742   -2.8060 C   0  0  0  0  0  0  0  0  0  0  0  0
   -1.4531    0.9930   -3.0670 O   0  0  0  0  0  0  0  0  0  0  0  0
    0.4394    2.0571   -3.7280 O   0  0  0  0  0  0  0  0  0  0  0  0
   -0.0277    1.9982   -4.5753 H   0  0  0  0  0  0  0  0  0  0  0  0
    0.9526    0.0621    0.5891 C   0  0  0  0  0  0  0  0  0  0  0  0
    2.1730    0.0520    0.6752 O   0  0  0  0  0  0  0  0  0  0  0  0
    0.2004    0.4153    1.6944 N   0  0  0  0  0  0  0  0  0  0  0  0
   -0.8049    0.3158    1.5968 H   0  0  0  0  0  0  0  0  0  0  0  0
    0.7678    0.5171    3.0329 C   0  0  0  0  0  0  0  0  0  0  0  0
    1.5774    1.2544    3.0522 H   0  0  0  0  0  0  0  0  0  0  0  0
    0.0003    0.8314    3.7465 H   0  0  0  0  0  0  0  0  0  0  0  0
    1.1658   -0.4515    3.3533 H   0  0  0  0  0  0  0  0  0  0  0  0
  1  2  1  0  0  0  0
  2  3  1  0  0  0  0
  2  4  1  0  0  0  0
  2  5  1  0  0  0  0
  5  6  2  0  0  0  0
  5  7  1  0  0  0  0
  7  8  1  0  0  0  0
  7  9  1  0  0  0  0
  9 10  1  0  0  0  0
  9 11  1  0  0  0  0
  9 18  1  0  0  0  0
 11 12  1  0  0  0  0
 11 13  1  0  0  0  0
 11 14  1  0  0  0  0
 14 15  2  0  0  0  0
 14 16  1  0  0  0  0
 16 17  1  0  0  0  0
 18 19  2  0  0  0  0
 18 20  1  0  0  0  0
 20 21  1  0  0  0  0
 20 22  1  0  0  0  0
 22 23  1  0  0  0  0
 22 24  1  0  0  0  0
 22 25  1  0  0  0  0
M  END
$$$$

  -OEChem-02102214113D

 25 24  0     1  0  0  0  0  0999 V2000
   -2.5144   -3.7054   -0.4586 H   0  0  0  0  0  0  0  0  0  0  0  0
   -2.5431   -2.6527   -0.7534 C   0  0  0  0  0  0  0  0  0  0  0  0
   -3.3315   -2.1499   -0.1885 H   0  0  0  0  0  0  0  0  0  0  0  0
   -2.7733   -2.5931   -1.8198 H   0  0  0  0  0  0  0  0  0  0  0  0
   -1.2048   -1.9951   -0.4739 C   0  0  0  0  0  0  0  0  0  0  0  0
   -0.3181   -2.6287    0.0701 O   0  0  0  0  0  0  0  0  0  0  0  0
   -1.0012   -0.6791   -0.8398 N   0  0  0  0  0  0  0  0  0  0  0  0
   -1.7335   -0.2531   -1.4081 H   0  0  0  0  0  0  0  0  0  0  0  0
    0.3058    0.0029   -0.8037 C   0  0  1  0  0  0  0  0  0  0  0  0
    1.0034   -0.5486   -1.4456 H   0  0  0  0  0  0  0  0  0  0  0  0
    0.1441    1.4302   -1.3588 C   0  0  0  0  0  0  0  0  0  0  0  0
   -0.5487    2.0003   -0.7338 H   0  0  0  0  0  0  0  0  0  0  0  0
    1.1121    1.9401   -1.3249 H   0  0  0  0  0  0  0  0  0  0  0  0
   -0.3577    1.4435   -2.7966 C   0  0  0  0  0  0  0  0  0  0  0  0
   -1.5362    1.1920   -2.9994 O   0  0  0  0  0  0  0  0  0  0  0  0
    0.5313    1.7208   -3.7776 O   0  0  0  0  0  0  0  0  0  0  0  0
    0.0416    1.6833   -4.6132 H   0  0  0  0  0  0  0  0  0  0  0  0
    0.9600    0.0638    0.5937 C   0  0  0  0  0  0  0  0  0  0  0  0
    2.1798    0.0542    0.6875 O   0  0  0  0  0  0  0  0  0  0  0  0
    0.2011    0.4096    1.6969 N   0  0  0  0  0  0  0  0  0  0  0  0
   -0.8039    0.3153    1.5926 H   0  0  0  0  0  0  0  0  0  0  0  0
    0.7608    0.5118    3.0389 C   0  0  0  0  0  0  0  0  0  0  0  0
    1.5644    1.2553    3.0640 H   0  0  0  0  0  0  0  0  0  0  0  0
   -0.0124    0.8181    3.7498 H   0  0  0  0  0  0  0  0  0  0  0  0
    1.1651   -0.4543    3.3588 H   0  0  0  0  0  0  0  0  0  0  0  0
  1  2  1  0  0  0  0
  2  3  1  0  0  0  0
  2  4  1  0  0  0  0
  2  5  1  0  0  0  0
  5  6  2  0  0  0  0
  5  7  1  0  0  0  0
  7  8  1  0  0  0  0
  7  9  1  0  0  0  0
  9 10  1  0  0  0  0
  9 11  1  0  0  0  0
  9 18  1  0  0  0  0
 11 12  1  0  0  0  0
 11 13  1  0  0  0  0
 11 14  1  0  0  0  0
 14 15  2  0  0  0  0
 14 16  1  0  0  0  0
 16 17  1  0  0  0  0
 18 19  2  0  0  0  0
 18 20  1  0  0  0  0
 20 21  1  0  0  0  0
 20 22  1  0  0  0  0
 22 23  1  0  0  0  0
 22 24  1  0  0  0  0
 22 25  1  0  0  0  0
M  END
$$$$

  -OEChem-02102214113D

 25 24  0     1  0  0  0  0  0999 V2000
   -2.5126   -3.6935   -0.4594 H   0  0  0  0  0  0  0  0  0  0  0  0
   -2.5416   -2.6392   -0.7489 C   0  0  0  0  0  0  0  0  0  0  0  0
   -3.3137   -2.1343   -0.1637 H   0  0  0  0  0  0  0  0  0  0  0  0
   -2.7959   -2.5737   -1.8095 H   0  0  0  0  0  0  0  0  0  0  0  0
   -1.1928   -1.9918   -0.4971 C   0  0  0  0  0  0  0  0  0  0  0  0
   -0.2975   -2.6352    0.0203 O   0  0  0  0  0  0  0  0  0  0  0  0
   -0.9887   -0.6735   -0.8553 N   0  0  0  0  0  0  0  0  0  0  0  0
   -1.7395   -0.2238   -1.3781 H   0  0  0  0  0  0  0  0  0  0  0  0
    0.3175    0.0107   -0.8068 C   0  0  1  0  0  0  0  0  0  0  0  0
    1.0214   -0.5339   -1.4479 H   0  0  0  0  0  0  0  0  0  0  0  0
    0.1428    1.4348   -1.3577 C   0  0  0  0  0  0  0  0  0  0  0  0
   -0.5582    1.9988   -0.7356 H   0  0  0  0  0  0  0  0  0  0  0  0
    1.1044    1.9566   -1.3280 H   0  0  0  0  0  0  0  0  0  0  0  0
   -0.3534    1.4171   -2.7951 C   0  0  0  0  0  0  0  0  0  0  0  0
   -1.5600    1.4206   -2.9826 O   0  0  0  0  0  0  0  0  0  0  0  0
    0.5634    1.3799   -3.7887 O   0  0  0  0  0  0  0  0  0  0  0  0
    0.0685    1.3770   -4.6221 H   0  0  0  0  0  0  0  0  0  0  0  0
    0.9637    0.0673    0.5943 C   0  0  0  0  0  0  0  0  0  0  0  0
    2.1828    0.0562    0.6959 O   0  0  0  0  0  0  0  0  0  0  0  0
    0.1986    0.4072    1.6952 N   0  0  0  0  0  0  0  0  0  0  0  0
   -0.8065    0.3221    1.5842 H   0  0  0  0  0  0  0  0  0  0  0  0
    0.7510    0.5041    3.0407 C   0  0  0  0  0  0  0  0  0  0  0  0
    1.5508    1.2515    3.0747 H   0  0  0  0  0  0  0  0  0  0  0  0
   -0.0275    0.8022    3.7493 H   0  0  0  0  0  0  0  0  0  0  0  0
    1.1584   -0.4620    3.3568 H   0  0  0  0  0  0  0  0  0  0  0  0
  1  2  1  0  0  0  0
  2  3  1  0  0  0  0
  2  4  1  0  0  0  0
  2  5  1  0  0  0  0
  5  6  2  0  0  0  0
  5  7  1  0  0  0  0
  7  8  1  0  0  0  0
  7  9  1  0  0  0  0
  9 10  1  0  0  0  0
  9 11  1  0  0  0  0
  9 18  1  0  0  0  0
 11 12  1  0  0  0  0
 11 13  1  0  0  0  0
 11 14  1  0  0  0  0
 14 15  2  0  0  0  0
 14 16  1  0  0  0  0
 16 17  1  0  0  0  0
 18 19  2  0  0  0  0
 18 20  1  0  0  0  0
 20 21  1  0  0  0  0
 20 22  1  0  0  0  0
 22 23  1  0  0  0  0
 22 24  1  0  0  0  0
 22 25  1  0  0  0  0
M  END
$$$$

  -OEChem-02102214113D

 25 24  0     1  0  0  0  0  0999 V2000
   -2.5133   -3.6918   -0.4352 H   0  0  0  0  0  0  0  0  0  0  0  0
   -2.5424   -2.6387   -0.7293 C   0  0  0  0  0  0  0  0  0  0  0  0
   -3.2990   -2.1268   -0.1300 H   0  0  0  0  0  0  0  0  0  0  0  0
   -2.8187   -2.5765   -1.7846 H   0  0  0  0  0  0  0  0  0  0  0  0
   -1.1846   -1.9986   -0.5097 C   0  0  0  0  0  0  0  0  0  0  0  0
   -0.2801   -2.6480   -0.0165 O   0  0  0  0  0  0  0  0  0  0  0  0
   -0.9829   -0.6793   -0.8660 N   0  0  0  0  0  0  0  0  0  0  0  0
   -1.7520   -0.2121   -1.3427 H   0  0  0  0  0  0  0  0  0  0  0  0
    0.3220    0.0078   -0.8126 C   0  0  1  0  0  0  0  0  0  0  0  0
    1.0294   -0.5342   -1.4522 H   0  0  0  0  0  0  0  0  0  0  0  0
    0.1442    1.4307   -1.3623 C   0  0  0  0  0  0  0  0  0  0  0  0
   -0.5583    1.9928   -0.7400 H   0  0  0  0  0  0  0  0  0  0  0  0
    1.1049    1.9539   -1.3335 H   0  0  0  0  0  0  0  0  0  0  0  0
   -0.3473    1.4070   -2.8007 C   0  0  0  0  0  0  0  0  0  0  0  0
   -1.5173    1.6826   -3.0092 O   0  0  0  0  0  0  0  0  0  0  0  0
    0.5331    1.0749   -3.7724 O   0  0  0  0  0  0  0  0  0  0  0  0
    0.0510    1.1279   -4.6116 H   0  0  0  0  0  0  0  0  0  0  0  0
    0.9633    0.0641    0.5904 C   0  0  0  0  0  0  0  0  0  0  0  0
    2.1819    0.0547    0.6974 O   0  0  0  0  0  0  0  0  0  0  0  0
    0.1928    0.4015    1.6885 N   0  0  0  0  0  0  0  0  0  0  0  0
   -0.8122    0.3225    1.5730 H   0  0  0  0  0  0  0  0  0  0  0  0
    0.7397    0.5027    3.0358 C   0  0  0  0  0  0  0  0  0  0  0  0
    1.5329    1.2570    3.0727 H   0  0  0  0  0  0  0  0  0  0  0  0
   -0.0440    0.7937    3.7417 H   0  0  0  0  0  0  0  0  0  0  0  0
    1.1546   -0.4600    3.3529 H   0  0  0  0  0  0  0  0  0  0  0  0
  1  2  1  0  0  0  0
  2  3  1  0  0  0  0
  2  4  1  0  0  0  0
  2  5  1  0  0  0  0
  5  6  2  0  0  0  0
  5  7  1  0  0  0  0
  7  8  1  0  0  0  0
  7  9  1  0  0  0  0
  9 10  1  0  0  0  0
  9 11  1  0  0  0  0
  9 18  1  0  0  0  0
 11 12  1  0  0  0  0
 11 13  1  0  0  0  0
 11 14  1  0  0  0  0
 14 15  2  0  0  0  0
 14 16  1  0  0  0  0
 16 17  1  0  0  0  0
 18 19  2  0  0  0  0
 18 20  1  0  0  0  0
 20 21  1  0  0  0  0
 20 22  1  0  0  0  0
 22 23  1  0  0  0  0
 22 24  1  0  0  0  0
 22 25  1  0  0  0  0
M  END
$$$$

  -OEChem-02102214113D

 25 24  0     1  0  0  0  0  0999 V2000
   -2.5063   -3.7044   -0.4377 H   0  0  0  0  0  0  0  0  0  0  0  0
   -2.5436   -2.6466   -0.7142 C   0  0  0  0  0  0  0  0  0  0  0  0
   -3.2925   -2.1472   -0.0950 H   0  0  0  0  0  0  0  0  0  0  0  0
   -2.8363   -2.5687   -1.7641 H   0  0  0  0  0  0  0  0  0  0  0  0
   -1.1848   -2.0049   -0.5049 C   0  0  0  0  0  0  0  0  0  0  0  0
   -0.2758   -2.6533   -0.0191 O   0  0  0  0  0  0  0  0  0  0  0  0
   -0.9875   -0.6856   -0.8641 N   0  0  0  0  0  0  0  0  0  0  0  0
   -1.7656   -0.2148   -1.3199 H   0  0  0  0  0  0  0  0  0  0  0  0
    0.3158    0.0050   -0.8124 C   0  0  1  0  0  0  0  0  0  0  0  0
    1.0240   -0.5423   -1.4468 H   0  0  0  0  0  0  0  0  0  0  0  0
    0.1420    1.4249   -1.3729 C   0  0  0  0  0  0  0  0  0  0  0  0
   -0.5599    1.9906   -0.7531 H   0  0  0  0  0  0  0  0  0  0  0  0
    1.1043    1.9447   -1.3436 H   0  0  0  0  0  0  0  0  0  0  0  0
   -0.3437    1.4032   -2.8147 C   0  0  0  0  0  0  0  0  0  0  0  0
   -1.4080    1.9416   -3.0674 O   0  0  0  0  0  0  0  0  0  0  0  0
    0.4311    0.7972   -3.7439 O   0  0  0  0  0  0  0  0  0  0  0  0
   -0.0201    0.9095   -4.5945 H   0  0  0  0  0  0  0  0  0  0  0  0
    0.9582    0.0668    0.5902 C   0  0  0  0  0  0  0  0  0  0  0  0
    2.1768    0.0608    0.6962 O   0  0  0  0  0  0  0  0  0  0  0  0
    0.1889    0.4046    1.6889 N   0  0  0  0  0  0  0  0  0  0  0  0
   -0.8160    0.3223    1.5755 H   0  0  0  0  0  0  0  0  0  0  0  0
    0.7380    0.5023    3.0356 C   0  0  0  0  0  0  0  0  0  0  0  0
    1.5372    1.2502    3.0713 H   0  0  0  0  0  0  0  0  0  0  0  0
   -0.0425    0.7997    3.7424 H   0  0  0  0  0  0  0  0  0  0  0  0
    1.1456   -0.4636    3.3520 H   0  0  0  0  0  0  0  0  0  0  0  0
  1  2  1  0  0  0  0
  2  3  1  0  0  0  0
  2  4  1  0  0  0  0
  2  5  1  0  0  0  0
  5  6  2  0  0  0  0
  5  7  1  0  0  0  0
  7  8  1  0  0  0  0
  7  9  1  0  0  0  0
  9 10  1  0  0  0  0
  9 11  1  0  0  0  0
  9 18  1  0  0  0  0
 11 12  1  0  0  0  0
 11 13  1  0  0  0  0
 11 14  1  0  0  0  0
 14 15  2  0  0  0  0
 14 16  1  0  0  0  0
 16 17  1  0  0  0  0
 18 19  2  0  0  0  0
 18 20  1  0  0  0  0
 20 21  1  0  0  0  0
 20 22  1  0  0  0  0
 22 23  1  0  0  0  0
 22 24  1  0  0  0  0
 22 25  1  0  0  0  0
M  END
$$$$

  -OEChem-02102214113D

 25 24  0     1  0  0  0  0  0999 V2000
   -2.5071   -3.7186   -0.4263 H   0  0  0  0  0  0  0  0  0  0  0  0
   -2.5470   -2.6618   -0.7055 C   0  0  0  0  0  0  0  0  0  0  0  0
   -3.3036   -2.1640   -0.0942 H   0  0  0  0  0  0  0  0  0  0  0  0
   -2.8309   -2.5877   -1.7580 H   0  0  0  0  0  0  0  0  0  0  0  0
   -1.1929   -2.0136   -0.4869 C   0  0  0  0  0  0  0  0  0  0  0  0
   -0.2872   -2.6553    0.0137 O   0  0  0  0  0  0  0  0  0  0  0  0
   -0.9974   -0.6962   -0.8544 N   0  0  0  0  0  0  0  0  0  0  0  0
   -1.7693   -0.2380   -1.3312 H   0  0  0  0  0  0  0  0  0  0  0  0
    0.3075   -0.0076   -0.8103 C   0  0  1  0  0  0  0  0  0  0  0  0
    1.0125   -0.5626   -1.4416 H   0  0  0  0  0  0  0  0  0  0  0  0
    0.1428    1.4120   -1.3787 C   0  0  0  0  0  0  0  0  0  0  0  0
   -0.5538    1.9823   -0.7571 H   0  0  0  0  0  0  0  0  0  0  0  0
    1.1102    1.9220   -1.3485 H   0  0  0  0  0  0  0  0  0  0  0  0
   -0.3443    1.4115   -2.8220 C   0  0  0  0  0  0  0  0  0  0  0  0
   -1.2360    2.1865   -3.1207 O   0  0  0  0  0  0  0  0  0  0  0  0
    0.2474    0.5748   -3.7065 O   0  0  0  0  0  0  0  0  0  0  0  0
   -0.1589    0.7556   -4.5680 H   0  0  0  0  0  0  0  0  0  0  0  0
    0.9537    0.0596    0.5906 C   0  0  0  0  0  0  0  0  0  0  0  0
    2.1728    0.0564    0.6925 O   0  0  0  0  0  0  0  0  0  0  0  0
    0.1881    0.4041    1.6900 N   0  0  0  0  0  0  0  0  0  0  0  0
   -0.8166    0.3150    1.5819 H   0  0  0  0  0  0  0  0  0  0  0  0
    0.7421    0.5139    3.0339 C   0  0  0  0  0  0  0  0  0  0  0  0
    1.5401    1.2636    3.0603 H   0  0  0  0  0  0  0  0  0  0  0  0
   -0.0361    0.8162    3.7412 H   0  0  0  0  0  0  0  0  0  0  0  0
    1.1524   -0.4487    3.3576 H   0  0  0  0  0  0  0  0  0  0  0  0
  1  2  1  0  0  0  0
  2  3  1  0  0  0  0
  2  4  1  0  0  0  0
  2  5  1  0  0  0  0
  5  6  2  0  0  0  0
  5  7  1  0  0  0  0
  7  8  1  0  0  0  0
  7  9  1  0  0  0  0
  9 10  1  0  0  0  0
  9 11  1  0  0  0  0
  9 18  1  0  0  0  0
 11 12  1  0  0  0  0
 11 13  1  0  0  0  0
 11 14  1  0  0  0  0
 14 15  2  0  0  0  0
 14 16  1  0  0  0  0
 16 17  1  0  0  0  0
 18 19  2  0  0  0  0
 18 20  1  0  0  0  0
 20 21  1  0  0  0  0
 20 22  1  0  0  0  0
 22 23  1  0  0  0  0
 22 24  1  0  0  0  0
 22 25  1  0  0  0  0
M  END
$$$$

  -OEChem-02102214113D

 25 24  0     1  0  0  0  0  0999 V2000
   -2.5314   -3.7140   -0.3464 H   0  0  0  0  0  0  0  0  0  0  0  0
   -2.5478   -2.6829   -0.7109 C   0  0  0  0  0  0  0  0  0  0  0  0
   -3.3404   -2.1391   -0.1915 H   0  0  0  0  0  0  0  0  0  0  0  0
   -2.7618   -2.6929   -1.7823 H   0  0  0  0  0  0  0  0  0  0  0  0
   -1.2081   -2.0185   -0.4557 C   0  0  0  0  0  0  0  0  0  0  0  0
   -0.3179   -2.6433    0.0922 O   0  0  0  0  0  0  0  0  0  0  0  0
   -1.0121   -0.7050   -0.8374 N   0  0  0  0  0  0  0  0  0  0  0  0
   -1.7575   -0.2821   -1.3832 H   0  0  0  0  0  0  0  0  0  0  0  0
    0.2978   -0.0248   -0.8069 C   0  0  1  0  0  0  0  0  0  0  0  0
    0.9951   -0.5885   -1.4392 H   0  0  0  0  0  0  0  0  0  0  0  0
    0.1467    1.3982   -1.3760 C   0  0  0  0  0  0  0  0  0  0  0  0
   -0.5388    1.9730   -0.7463 H   0  0  0  0  0  0  0  0  0  0  0  0
    1.1214    1.8945   -1.3468 H   0  0  0  0  0  0  0  0  0  0  0  0
   -0.3501    1.4328   -2.8171 C   0  0  0  0  0  0  0  0  0  0  0  0
   -1.0107    2.3973   -3.1595 O   0  0  0  0  0  0  0  0  0  0  0  0
   -0.0244    0.4176   -3.6521 O   0  0  0  0  0  0  0  0  0  0  0  0
   -0.3791    0.6578   -4.5222 H   0  0  0  0  0  0  0  0  0  0  0  0
    0.9519    0.0494    0.5901 C   0  0  0  0  0  0  0  0  0  0  0  0
    2.1718    0.0419    0.6846 O   0  0  0  0  0  0  0  0  0  0  0  0
    0.1935    0.4082    1.6897 N   0  0  0  0  0  0  0  0  0  0  0  0
   -0.8119    0.3185    1.5877 H   0  0  0  0  0  0  0  0  0  0  0  0
    0.7544    0.5283    3.0295 C   0  0  0  0  0  0  0  0  0  0  0  0
    1.5377    1.2932    3.0502 H   0  0  0  0  0  0  0  0  0  0  0  0
   -0.0249    0.8148    3.7419 H   0  0  0  0  0  0  0  0  0  0  0  0
    1.1852   -0.4261    3.3503 H   0  0  0  0  0  0  0  0  0  0  0  0
  1  2  1  0  0  0  0
  2  3  1  0  0  0  0
  2  4  1  0  0  0  0
  2  5  1  0  0  0  0
  5  6  2  0  0  0  0
  5  7  1  0  0  0  0
  7  8  1  0  0  0  0
  7  9  1  0  0  0  0
  9 10  1  0  0  0  0
  9 11  1  0  0  0  0
  9 18  1  0  0  0  0
 11 12  1  0  0  0  0
 11 13  1  0  0  0  0
 11 14  1  0  0  0  0
 14 15  2  0  0  0  0
 14 16  1  0  0  0  0
 16 17  1  0  0  0  0
 18 19  2  0  0  0  0
 18 20  1  0  0  0  0
 20 21  1  0  0  0  0
 20 22  1  0  0  0  0
 22 23  1  0  0  0  0
 22 24  1  0  0  0  0
 22 25  1  0  0  0  0
M  END
$$$$

  -OEChem-02102214113D

 25 24  0     1  0  0  0  0  0999 V2000
   -2.5158   -3.7406   -0.3836 H   0  0  0  0  0  0  0  0  0  0  0  0
   -2.5449   -2.7014   -0.7236 C   0  0  0  0  0  0  0  0  0  0  0  0
   -3.3595   -2.1857   -0.2096 H   0  0  0  0  0  0  0  0  0  0  0  0
   -2.7350   -2.6896   -1.7996 H   0  0  0  0  0  0  0  0  0  0  0  0
   -1.2246   -2.0173   -0.4223 C   0  0  0  0  0  0  0  0  0  0  0  0
   -0.3515   -2.6251    0.1705 O   0  0  0  0  0  0  0  0  0  0  0  0
   -1.0280   -0.7078   -0.8173 N   0  0  0  0  0  0  0  0  0  0  0  0
   -1.7361   -0.3295   -1.4400 H   0  0  0  0  0  0  0  0  0  0  0  0
    0.2867   -0.0362   -0.7988 C   0  0  1  0  0  0  0  0  0  0  0  0
    0.9762   -0.6090   -1.4311 H   0  0  0  0  0  0  0  0  0  0  0  0
    0.1481    1.3867   -1.3759 C   0  0  0  0  0  0  0  0  0  0  0  0
   -0.5289    1.9696   -0.7448 H   0  0  0  0  0  0  0  0  0  0  0  0
    1.1290    1.8713   -1.3479 H   0  0  0  0  0  0  0  0  0  0  0  0
   -0.3539    1.4430   -2.8158 C   0  0  0  0  0  0  0  0  0  0  0  0
   -0.7466    2.5213   -3.2235 O   0  0  0  0  0  0  0  0  0  0  0  0
   -0.3473    0.3191   -3.5727 O   0  0  0  0  0  0  0  0  0  0  0  0
   -0.6470    0.5892   -4.4551 H   0  0  0  0  0  0  0  0  0  0  0  0
    0.9487    0.0455    0.5944 C   0  0  0  0  0  0  0  0  0  0  0  0
    2.1692    0.0315    0.6807 O   0  0  0  0  0  0  0  0  0  0  0  0
    0.1987    0.4189    1.6949 N   0  0  0  0  0  0  0  0  0  0  0  0
   -0.8071    0.3235    1.6008 H   0  0  0  0  0  0  0  0  0  0  0  0
    0.7684    0.5478    3.0302 C   0  0  0  0  0  0  0  0  0  0  0  0
    1.5680    1.2961    3.0355 H   0  0  0  0  0  0  0  0  0  0  0  0
   -0.0008    0.8627    3.7419 H   0  0  0  0  0  0  0  0  0  0  0  0
    1.1803   -0.4105    3.3637 H   0  0  0  0  0  0  0  0  0  0  0  0
  1  2  1  0  0  0  0
  2  3  1  0  0  0  0
  2  4  1  0  0  0  0
  2  5  1  0  0  0  0
  5  6  2  0  0  0  0
  5  7  1  0  0  0  0
  7  8  1  0  0  0  0
  7  9  1  0  0  0  0
  9 10  1  0  0  0  0
  9 11  1  0  0  0  0
  9 18  1  0  0  0  0
 11 12  1  0  0  0  0
 11 13  1  0  0  0  0
 11 14  1  0  0  0  0
 14 15  2  0  0  0  0
 14 16  1  0  0  0  0
 16 17  1  0  0  0  0
 18 19  2  0  0  0  0
 18 20  1  0  0  0  0
 20 21  1  0  0  0  0
 20 22  1  0  0  0  0
 22 23  1  0  0  0  0
 22 24  1  0  0  0  0
 22 25  1  0  0  0  0
M  END
$$$$

  -OEChem-02102214113D

 25 24  0     1  0  0  0  0  0999 V2000
   -2.4859   -3.8070   -0.3490 H   0  0  0  0  0  0  0  0  0  0  0  0
   -2.5315   -2.7723   -0.7005 C   0  0  0  0  0  0  0  0  0  0  0  0
   -3.3785   -2.2745   -0.2224 H   0  0  0  0  0  0  0  0  0  0  0  0
   -2.6819   -2.7760   -1.7829 H   0  0  0  0  0  0  0  0  0  0  0  0
   -1.2433   -2.0474   -0.3584 C   0  0  0  0  0  0  0  0  0  0  0  0
   -0.3758   -2.6224    0.2744 O   0  0  0  0  0  0  0  0  0  0  0  0
   -1.0682   -0.7402   -0.7705 N   0  0  0  0  0  0  0  0  0  0  0  0
   -1.7441   -0.4208   -1.4624 H   0  0  0  0  0  0  0  0  0  0  0  0
    0.2394   -0.0569   -0.7807 C   0  0  1  0  0  0  0  0  0  0  0  0
    0.9112   -0.6480   -1.4139 H   0  0  0  0  0  0  0  0  0  0  0  0
    0.1331    1.3612   -1.3918 C   0  0  0  0  0  0  0  0  0  0  0  0
   -0.3236    2.0230   -0.6502 H   0  0  0  0  0  0  0  0  0  0  0  0
    1.1475    1.7280   -1.5779 H   0  0  0  0  0  0  0  0  0  0  0  0
   -0.6689    1.5197   -2.6850 C   0  0  0  0  0  0  0  0  0  0  0  0
   -0.7347    2.6465   -3.1416 O   0  0  0  0  0  0  0  0  0  0  0  0
   -1.2672    0.4511   -3.2690 O   0  0  0  0  0  0  0  0  0  0  0  0
   -1.6598    0.7914   -4.0897 H   0  0  0  0  0  0  0  0  0  0  0  0
    0.9283    0.0475    0.5979 C   0  0  0  0  0  0  0  0  0  0  0  0
    2.1505    0.0464    0.6576 O   0  0  0  0  0  0  0  0  0  0  0  0
    0.1974    0.4262    1.7091 N   0  0  0  0  0  0  0  0  0  0  0  0
   -0.8087    0.3135    1.6375 H   0  0  0  0  0  0  0  0  0  0  0  0
    0.7936    0.5730    3.0309 C   0  0  0  0  0  0  0  0  0  0  0  0
    1.5881    1.3266    3.0120 H   0  0  0  0  0  0  0  0  0  0  0  0
    0.0369    0.8901    3.7547 H   0  0  0  0  0  0  0  0  0  0  0  0
    1.2192   -0.3787    3.3662 H   0  0  0  0  0  0  0  0  0  0  0  0
  1  2  1  0  0  0  0
  2  3  1  0  0  0  0
  2  4  1  0  0  0  0
  2  5  1  0  0  0  0
  5  6  2  0  0  0  0
  5  7  1  0  0  0  0
  7  8  1  0  0  0  0
  7  9  1  0  0  0  0
  9 10  1  0  0  0  0
  9 11  1  0  0  0  0
  9 18  1  0  0  0  0
 11 12  1  0  0  0  0
 11 13  1  0  0  0  0
 11 14  1  0  0  0  0
 14 15  2  0  0  0  0
 14 16  1  0  0  0  0
 16 17  1  0  0  0  0
 18 19  2  0  0  0  0
 18 20  1  0  0  0  0
 20 21  1  0  0  0  0
 20 22  1  0  0  0  0
 22 23  1  0  0  0  0
 22 24  1  0  0  0  0
 22 25  1  0  0  0  0
M  END
$$$$

  -OEChem-02102214113D

 25 24  0     1  0  0  0  0  0999 V2000
   -2.4770   -3.8155   -0.3077 H   0  0  0  0  0  0  0  0  0  0  0  0
   -2.5270   -2.7824   -0.6637 C   0  0  0  0  0  0  0  0  0  0  0  0
   -3.3549   -2.2764   -0.1613 H   0  0  0  0  0  0  0  0  0  0  0  0
   -2.7121   -2.7905   -1.7406 H   0  0  0  0  0  0  0  0  0  0  0  0
   -1.2239   -2.0643   -0.3670 C   0  0  0  0  0  0  0  0  0  0  0  0
   -0.3361   -2.6450    0.2315 O   0  0  0  0  0  0  0  0  0  0  0  0
   -1.0583   -0.7551   -0.7754 N   0  0  0  0  0  0  0  0  0  0  0  0
   -1.7594   -0.4160   -1.4336 H   0  0  0  0  0  0  0  0  0  0  0  0
    0.2398   -0.0560   -0.7877 C   0  0  1  0  0  0  0  0  0  0  0  0
    0.9174   -0.6433   -1.4186 H   0  0  0  0  0  0  0  0  0  0  0  0
    0.1319    1.3617   -1.4025 C   0  0  0  0  0  0  0  0  0  0  0  0
   -0.3330    2.0202   -0.6637 H   0  0  0  0  0  0  0  0  0  0  0  0
    1.1474    1.7323   -1.5760 H   0  0  0  0  0  0  0  0  0  0  0  0
   -0.6621    1.5310   -2.7011 C   0  0  0  0  0  0  0  0  0  0  0  0
   -0.4906    2.5788   -3.2973 O   0  0  0  0  0  0  0  0  0  0  0  0
   -1.5363    0.5813   -3.1205 O   0  0  0  0  0  0  0  0  0  0  0  0
   -1.8929    0.9165   -3.9598 H   0  0  0  0  0  0  0  0  0  0  0  0
    0.9254    0.0510    0.5921 C   0  0  0  0  0  0  0  0  0  0  0  0
    2.1473    0.0632    0.6543 O   0  0  0  0  0  0  0  0  0  0  0  0
    0.1883    0.4168    1.7035 N   0  0  0  0  0  0  0  0  0  0  0  0
   -0.8167    0.2963    1.6290 H   0  0  0  0  0  0  0  0  0  0  0  0
    0.7807    0.5626    3.0271 C   0  0  0  0  0  0  0  0  0  0  0  0
    1.5673    1.3244    3.0132 H   0  0  0  0  0  0  0  0  0  0  0  0
    0.0195    0.8680    3.7513 H   0  0  0  0  0  0  0  0  0  0  0  0
    1.2154   -0.3867    3.3575 H   0  0  0  0  0  0  0  0  0  0  0  0
  1  2  1  0  0  0  0
  2  3  1  0  0  0  0
  2  4  1  0  0  0  0
  2  5  1  0  0  0  0
  5  6  2  0  0  0  0
  5  7  1  0  0  0  0
  7  8  1  0  0  0  0
  7  9  1  0  0  0  0
  9 10  1  0  0  0  0
  9 11  1  0  0  0  0
  9 18  1  0  0  0  0
 11 12  1  0  0  0  0
 11 13  1  0  0  0  0
 11 14  1  0  0  0  0
 14 15  2  0  0  0  0
 14 16  1  0  0  0  0
 16 17  1  0  0  0  0
 18 19  2  0  0  0  0
 18 20  1  0  0  0  0
 20 21  1  0  0  0  0
 20 22  1  0  0  0  0
 22 23  1  0  0  0  0
 22 24  1  0  0  0  0
 22 25  1  0  0  0  0
M  END
$$$$

  -OEChem-02102214113D

 25 24  0     1  0  0  0  0  0999 V2000
   -2.4715   -3.8152   -0.3042 H   0  0  0  0  0  0  0  0  0  0  0  0
   -2.5252   -2.7781   -0.6473 C   0  0  0  0  0  0  0  0  0  0  0  0
   -3.3313   -2.2714   -0.1116 H   0  0  0  0  0  0  0  0  0  0  0  0
   -2.7475   -2.7730   -1.7170 H   0  0  0  0  0  0  0  0  0  0  0  0
   -1.2068   -2.0737   -0.3876 C   0  0  0  0  0  0  0  0  0  0  0  0
   -0.3021   -2.6673    0.1715 O   0  0  0  0  0  0  0  0  0  0  0  0
   -1.0435   -0.7615   -0.7864 N   0  0  0  0  0  0  0  0  0  0  0  0
   -1.7757   -0.3882   -1.3908 H   0  0  0  0  0  0  0  0  0  0  0  0
    0.2476   -0.0509   -0.7943 C   0  0  1  0  0  0  0  0  0  0  0  0
    0.9314   -0.6312   -1.4250 H   0  0  0  0  0  0  0  0  0  0  0  0
    0.1314    1.3670   -1.4071 C   0  0  0  0  0  0  0  0  0  0  0  0
   -0.3439    2.0212   -0.6715 H   0  0  0  0  0  0  0  0  0  0  0  0
    1.1446    1.7477   -1.5742 H   0  0  0  0  0  0  0  0  0  0  0  0
   -0.6619    1.5214   -2.7083 C   0  0  0  0  0  0  0  0  0  0  0  0
   -0.3060    2.4164   -3.4535 O   0  0  0  0  0  0  0  0  0  0  0  0
   -1.7599    0.7591   -2.9469 O   0  0  0  0  0  0  0  0  0  0  0  0
   -2.1013    1.0672   -3.8029 H   0  0  0  0  0  0  0  0  0  0  0  0
    0.9286    0.0528    0.5882 C   0  0  0  0  0  0  0  0  0  0  0  0
    2.1500    0.0723    0.6562 O   0  0  0  0  0  0  0  0  0  0  0  0
    0.1847    0.4048    1.6996 N   0  0  0  0  0  0  0  0  0  0  0  0
   -0.8198    0.2847    1.6189 H   0  0  0  0  0  0  0  0  0  0  0  0
    0.7694    0.5514    3.0267 C   0  0  0  0  0  0  0  0  0  0  0  0
    1.5479    1.3218    3.0205 H   0  0  0  0  0  0  0  0  0  0  0  0
    0.0013    0.8455    3.7482 H   0  0  0  0  0  0  0  0  0  0  0  0
    1.2128   -0.3944    3.3556 H   0  0  0  0  0  0  0  0  0  0  0  0
  1  2  1  0  0  0  0
  2  3  1  0  0  0  0
  2  4  1  0  0  0  0
  2  5  1  0  0  0  0
  5  6  2  0  0  0  0
  5  7  1  0  0  0  0
  7  8  1  0  0  0  0
  7  9  1  0  0  0  0
  9 10  1  0  0  0  0
  9 11  1  0  0  0  0
  9 18  1  0  0  0  0
 11 12  1  0  0  0  0
 11 13  1  0  0  0  0
 11 14  1  0  0  0  0
 14 15  2  0  0  0  0
 14 16  1  0  0  0  0
 16 17  1  0  0  0  0
 18 19  2  0  0  0  0
 18 20  1  0  0  0  0
 20 21  1  0  0  0  0
 20 22  1  0  0  0  0
 22 23  1  0  0  0  0
 22 24  1  0  0  0  0
 22 25  1  0  0  0  0
M  END
$$$$

  -OEChem-02102214113D

 25 24  0     1  0  0  0  0  0999 V2000
   -2.4714   -3.8011   -0.3184 H   0  0  0  0  0  0  0  0  0  0  0  0
   -2.5275   -2.7582   -0.6434 C   0  0  0  0  0  0  0  0  0  0  0  0
   -3.3124   -2.2537   -0.0750 H   0  0  0  0  0  0  0  0  0  0  0  0
   -2.7827   -2.7352   -1.7056 H   0  0  0  0  0  0  0  0  0  0  0  0
   -1.1960   -2.0681   -0.4147 C   0  0  0  0  0  0  0  0  0  0  0  0
   -0.2798   -2.6758    0.1092 O   0  0  0  0  0  0  0  0  0  0  0  0
   -1.0313   -0.7528   -0.8014 N   0  0  0  0  0  0  0  0  0  0  0  0
   -1.7901   -0.3443   -1.3475 H   0  0  0  0  0  0  0  0  0  0  0  0
    0.2572   -0.0378   -0.8002 C   0  0  1  0  0  0  0  0  0  0  0  0
    0.9460   -0.6082   -1.4346 H   0  0  0  0  0  0  0  0  0  0  0  0
    0.1285    1.3815   -1.4026 C   0  0  0  0  0  0  0  0  0  0  0  0
   -0.3562    2.0303   -0.6684 H   0  0  0  0  0  0  0  0  0  0  0  0
    1.1361    1.7763   -1.5708 H   0  0  0  0  0  0  0  0  0  0  0  0
   -0.6713    1.5031   -2.7010 C   0  0  0  0  0  0  0  0  0  0  0  0
   -0.1896    2.1881   -3.5850 O   0  0  0  0  0  0  0  0  0  0  0  0
   -1.9104    0.9533   -2.7853 O   0  0  0  0  0  0  0  0  0  0  0  0
   -2.2426    1.2100   -3.6616 H   0  0  0  0  0  0  0  0  0  0  0  0
    0.9326    0.0563    0.5854 C   0  0  0  0  0  0  0  0  0  0  0  0
    2.1535    0.0768    0.6594 O   0  0  0  0  0  0  0  0  0  0  0  0
    0.1830    0.3964    1.6968 N   0  0  0  0  0  0  0  0  0  0  0  0
   -0.8216    0.2827    1.6096 H   0  0  0  0  0  0  0  0  0  0  0  0
    0.7615    0.5320    3.0277 C   0  0  0  0  0  0  0  0  0  0  0  0
    1.5393    1.3029    3.0312 H   0  0  0  0  0  0  0  0  0  0  0  0
   -0.0100    0.8190    3.7485 H   0  0  0  0  0  0  0  0  0  0  0  0
    1.2043   -0.4162    3.3505 H   0  0  0  0  0  0  0  0  0  0  0  0
  1  2  1  0  0  0  0
  2  3  1  0  0  0  0
  2  4  1  0  0  0  0
  2  5  1  0  0  0  0
  5  6  2  0  0  0  0
  5  7  1  0  0  0  0
  7  8  1  0  0  0  0
  7  9  1  0  0  0  0
  9 10  1  0  0  0  0
  9 11  1  0  0  0  0
  9 18  1  0  0  0  0
 11 12  1  0  0  0  0
 11 13  1  0  0  0  0
 11 14  1  0  0  0  0
 14 15  2  0  0  0  0
 14 16  1  0  0  0  0
 16 17  1  0  0  0  0
 18 19  2  0  0  0  0
 18 20  1  0  0  0  0
 20 21  1  0  0  0  0
 20 22  1  0  0  0  0
 22 23  1  0  0  0  0
 22 24  1  0  0  0  0
 22 25  1  0  0  0  0
M  END
$$$$

  -OEChem-02102214113D

 25 24  0     1  0  0  0  0  0999 V2000
   -2.4791   -3.7746   -0.3390 H   0  0  0  0  0  0  0  0  0  0  0  0
   -2.5348   -2.7266   -0.6471 C   0  0  0  0  0  0  0  0  0  0  0  0
   -3.2984   -2.2237   -0.0489 H   0  0  0  0  0  0  0  0  0  0  0  0
   -2.8203   -2.6854   -1.7009 H   0  0  0  0  0  0  0  0  0  0  0  0
   -1.1906   -2.0524   -0.4472 C   0  0  0  0  0  0  0  0  0  0  0  0
   -0.2651   -2.6770    0.0390 O   0  0  0  0  0  0  0  0  0  0  0  0
   -1.0227   -0.7329   -0.8183 N   0  0  0  0  0  0  0  0  0  0  0  0
   -1.8022   -0.2911   -1.3063 H   0  0  0  0  0  0  0  0  0  0  0  0
    0.2659   -0.0173   -0.8029 C   0  0  1  0  0  0  0  0  0  0  0  0
    0.9589   -0.5775   -1.4421 H   0  0  0  0  0  0  0  0  0  0  0  0
    0.1225    1.4029   -1.3928 C   0  0  0  0  0  0  0  0  0  0  0  0
   -0.3708    2.0462   -0.6595 H   0  0  0  0  0  0  0  0  0  0  0  0
    1.1229    1.8137   -1.5658 H   0  0  0  0  0  0  0  0  0  0  0  0
   -0.6823    1.4854   -2.6878 C   0  0  0  0  0  0  0  0  0  0  0  0
   -0.1231    1.9218   -3.6774 O   0  0  0  0  0  0  0  0  0  0  0  0
   -1.9967    1.1450   -2.6660 O   0  0  0  0  0  0  0  0  0  0  0  0
   -2.3237    1.3329   -3.5616 H   0  0  0  0  0  0  0  0  0  0  0  0
    0.9369    0.0637    0.5854 C   0  0  0  0  0  0  0  0  0  0  0  0
    2.1575    0.0790    0.6646 O   0  0  0  0  0  0  0  0  0  0  0  0
    0.1845    0.3925    1.6985 N   0  0  0  0  0  0  0  0  0  0  0  0
   -0.8207    0.2890    1.6060 H   0  0  0  0  0  0  0  0  0  0  0  0
    0.7592    0.5087    3.0330 C   0  0  0  0  0  0  0  0  0  0  0  0
    1.5444    1.2720    3.0480 H   0  0  0  0  0  0  0  0  0  0  0  0
   -0.0121    0.7955    3.7540 H   0  0  0  0  0  0  0  0  0  0  0  0
    1.1916   -0.4471    3.3471 H   0  0  0  0  0  0  0  0  0  0  0  0
  1  2  1  0  0  0  0
  2  3  1  0  0  0  0
  2  4  1  0  0  0  0
  2  5  1  0  0  0  0
  5  6  2  0  0  0  0
  5  7  1  0  0  0  0
  7  8  1  0  0  0  0
  7  9  1  0  0  0  0
  9 10  1  0  0  0  0
  9 11  1  0  0  0  0
  9 18  1  0  0  0  0
 11 12  1  0  0  0  0
 11 13  1  0  0  0  0
 11 14  1  0  0  0  0
 14 15  2  0  0  0  0
 14 16  1  0  0  0  0
 16 17  1  0  0  0  0
 18 19  2  0  0  0  0
 18 20  1  0  0  0  0
 20 21  1  0  0  0  0
 20 22  1  0  0  0  0
 22 23  1  0  0  0  0
 22 24  1  0  0  0  0
 22 25  1  0  0  0  0
M  END
$$$$

  -OEChem-02102214113D

 25 24  0     1  0  0  0  0  0999 V2000
   -2.4963   -3.7421   -0.3637 H   0  0  0  0  0  0  0  0  0  0  0  0
   -2.5454   -2.6907   -0.6614 C   0  0  0  0  0  0  0  0  0  0  0  0
   -3.2946   -2.1855   -0.0475 H   0  0  0  0  0  0  0  0  0  0  0  0
   -2.8458   -2.6373   -1.7107 H   0  0  0  0  0  0  0  0  0  0  0  0
   -1.1914   -2.0323   -0.4746 C   0  0  0  0  0  0  0  0  0  0  0  0
   -0.2646   -2.6708   -0.0094 O   0  0  0  0  0  0  0  0  0  0  0  0
   -1.0168   -0.7097   -0.8318 N   0  0  0  0  0  0  0  0  0  0  0  0
   -1.8080   -0.2427   -1.2744 H   0  0  0  0  0  0  0  0  0  0  0  0
    0.2752    0.0009   -0.8044 C   0  0  1  0  0  0  0  0  0  0  0  0
    0.9691   -0.5510   -1.4501 H   0  0  0  0  0  0  0  0  0  0  0  0
    0.1209    1.4230   -1.3795 C   0  0  0  0  0  0  0  0  0  0  0  0
   -0.3758    2.0614   -0.6439 H   0  0  0  0  0  0  0  0  0  0  0  0
    1.1150    1.8450   -1.5595 H   0  0  0  0  0  0  0  0  0  0  0  0
   -0.6896    1.4768   -2.6690 C   0  0  0  0  0  0  0  0  0  0  0  0
   -0.0970    1.6437   -3.7193 O   0  0  0  0  0  0  0  0  0  0  0  0
   -2.0376    1.3427   -2.5839 O   0  0  0  0  0  0  0  0  0  0  0  0
   -2.3643    1.4524   -3.4923 H   0  0  0  0  0  0  0  0  0  0  0  0
    0.9440    0.0673    0.5853 C   0  0  0  0  0  0  0  0  0  0  0  0
    2.1644    0.0784    0.6682 O   0  0  0  0  0  0  0  0  0  0  0  0
    0.1897    0.3890    1.6990 N   0  0  0  0  0  0  0  0  0  0  0  0
   -0.8156    0.2923    1.6023 H   0  0  0  0  0  0  0  0  0  0  0  0
    0.7604    0.4927    3.0362 C   0  0  0  0  0  0  0  0  0  0  0  0
    1.5469    1.2545    3.0601 H   0  0  0  0  0  0  0  0  0  0  0  0
   -0.0127    0.7747    3.7576 H   0  0  0  0  0  0  0  0  0  0  0  0
    1.1905   -0.4666    3.3430 H   0  0  0  0  0  0  0  0  0  0  0  0
  1  2  1  0  0  0  0
  2  3  1  0  0  0  0
  2  4  1  0  0  0  0
  2  5  1  0  0  0  0
  5  6  2  0  0  0  0
  5  7  1  0  0  0  0
  7  8  1  0  0  0  0
  7  9  1  0  0  0  0
  9 10  1  0  0  0  0
  9 11  1  0  0  0  0
  9 18  1  0  0  0  0
 11 12  1  0  0  0  0
 11 13  1  0  0  0  0
 11 14  1  0  0  0  0
 14 15  2  0  0  0  0
 14 16  1  0  0  0  0
 16 17  1  0  0  0  0
 18 19  2  0  0  0  0
 18 20  1  0  0  0  0
 20 21  1  0  0  0  0
 20 22  1  0  0  0  0
 22 23  1  0  0  0  0
 22 24  1  0  0  0  0
 22 25  1  0  0  0  0
M  END
$$$$

  -OEChem-02102214113D

 25 24  0     1  0  0  0  0  0999 V2000
   -2.5078   -3.7158   -0.3856 H   0  0  0  0  0  0  0  0  0  0  0  0
   -2.5534   -2.6613   -0.6729 C   0  0  0  0  0  0  0  0  0  0  0  0
   -3.2929   -2.1570   -0.0464 H   0  0  0  0  0  0  0  0  0  0  0  0
   -2.8642   -2.5955   -1.7184 H   0  0  0  0  0  0  0  0  0  0  0  0
   -1.1930   -2.0134   -0.4953 C   0  0  0  0  0  0  0  0  0  0  0  0
   -0.2662   -2.6614   -0.0437 O   0  0  0  0  0  0  0  0  0  0  0  0
   -1.0138   -0.6885   -0.8420 N   0  0  0  0  0  0  0  0  0  0  0  0
   -1.8122   -0.2062   -1.2520 H   0  0  0  0  0  0  0  0  0  0  0  0
    0.2817    0.0174   -0.8051 C   0  0  1  0  0  0  0  0  0  0  0  0
    0.9751   -0.5304   -1.4547 H   0  0  0  0  0  0  0  0  0  0  0  0
    0.1238    1.4404   -1.3716 C   0  0  0  0  0  0  0  0  0  0  0  0
   -0.3747    2.0771   -0.6357 H   0  0  0  0  0  0  0  0  0  0  0  0
    1.1143    1.8679   -1.5575 H   0  0  0  0  0  0  0  0  0  0  0  0
   -0.6870    1.4754   -2.6589 C   0  0  0  0  0  0  0  0  0  0  0  0
   -0.1020    1.3631   -3.7206 O   0  0  0  0  0  0  0  0  0  0  0  0
   -2.0356    1.5674   -2.5527 O   0  0  0  0  0  0  0  0  0  0  0  0
   -2.3656    1.6014   -3.4655 H   0  0  0  0  0  0  0  0  0  0  0  0
    0.9486    0.0720    0.5858 C   0  0  0  0  0  0  0  0  0  0  0  0
    2.1688    0.0806    0.6709 O   0  0  0  0  0  0  0  0  0  0  0  0
    0.1931    0.3888    1.7003 N   0  0  0  0  0  0  0  0  0  0  0  0
   -0.8123    0.2938    1.6016 H   0  0  0  0  0  0  0  0  0  0  0  0
    0.7616    0.4790    3.0395 C   0  0  0  0  0  0  0  0  0  0  0  0
    1.5519    1.2366    3.0715 H   0  0  0  0  0  0  0  0  0  0  0  0
   -0.0118    0.7591    3.7609 H   0  0  0  0  0  0  0  0  0  0  0  0
    1.1852   -0.4852    3.3399 H   0  0  0  0  0  0  0  0  0  0  0  0
  1  2  1  0  0  0  0
  2  3  1  0  0  0  0
  2  4  1  0  0  0  0
  2  5  1  0  0  0  0
  5  6  2  0  0  0  0
  5  7  1  0  0  0  0
  7  8  1  0  0  0  0
  7  9  1  0  0  0  0
  9 10  1  0  0  0  0
  9 11  1  0  0  0  0
  9 18  1  0  0  0  0
 11 12  1  0  0  0  0
 11 13  1  0  0  0  0
 11 14  1  0  0  0  0
 14 15  2  0  0  0  0
 14 16  1  0  0  0  0
 16 17  1  0  0  0  0
 18 19  2  0  0  0  0
 18 20  1  0  0  0  0
 20 21  1  0  0  0  0
 20 22  1  0  0  0  0
 22 23  1  0  0  0  0
 22 24  1  0  0  0  0
 22 25  1  0  0  0  0
M  END
$$$$

  -OEChem-02102214113D

 25 24  0     1  0  0  0  0  0999 V2000
   -2.5143   -3.7104   -0.3911 H   0  0  0  0  0  0  0  0  0  0  0  0
   -2.5577   -2.6578   -0.6851 C   0  0  0  0  0  0  0  0  0  0  0  0
   -3.3018   -2.1502   -0.0672 H   0  0  0  0  0  0  0  0  0  0  0  0
   -2.8605   -2.5986   -1.7333 H   0  0  0  0  0  0  0  0  0  0  0  0
   -1.1986   -2.0092   -0.5013 C   0  0  0  0  0  0  0  0  0  0  0  0
   -0.2739   -2.6571   -0.0452 O   0  0  0  0  0  0  0  0  0  0  0  0
   -1.0191   -0.6831   -0.8440 N   0  0  0  0  0  0  0  0  0  0  0  0
   -1.8158   -0.2027   -1.2562 H   0  0  0  0  0  0  0  0  0  0  0  0
    0.2791    0.0189   -0.8036 C   0  0  1  0  0  0  0  0  0  0  0  0
    0.9709   -0.5300   -1.4544 H   0  0  0  0  0  0  0  0  0  0  0  0
    0.1287    1.4435   -1.3672 C   0  0  0  0  0  0  0  0  0  0  0  0
   -0.3657    2.0813   -0.6292 H   0  0  0  0  0  0  0  0  0  0  0  0
    1.1206    1.8666   -1.5541 H   0  0  0  0  0  0  0  0  0  0  0  0
   -0.6791    1.4844   -2.6557 C   0  0  0  0  0  0  0  0  0  0  0  0
   -0.1555    1.1019   -3.6864 O   0  0  0  0  0  0  0  0  0  0  0  0
   -1.9760    1.8649   -2.5716 O   0  0  0  0  0  0  0  0  0  0  0  0
   -2.3139    1.8494   -3.4816 H   0  0  0  0  0  0  0  0  0  0  0  0
    0.9470    0.0675    0.5872 C   0  0  0  0  0  0  0  0  0  0  0  0
    2.1673    0.0809    0.6702 O   0  0  0  0  0  0  0  0  0  0  0  0
    0.1940    0.3830    1.7038 N   0  0  0  0  0  0  0  0  0  0  0  0
   -0.8114    0.2849    1.6093 H   0  0  0  0  0  0  0  0  0  0  0  0
    0.7669    0.4820    3.0405 C   0  0  0  0  0  0  0  0  0  0  0  0
    1.5480    1.2492    3.0678 H   0  0  0  0  0  0  0  0  0  0  0  0
   -0.0072    0.7539    3.7645 H   0  0  0  0  0  0  0  0  0  0  0  0
    1.2039   -0.4762    3.3411 H   0  0  0  0  0  0  0  0  0  0  0  0
  1  2  1  0  0  0  0
  2  3  1  0  0  0  0
  2  4  1  0  0  0  0
  2  5  1  0  0  0  0
  5  6  2  0  0  0  0
  5  7  1  0  0  0  0
  7  8  1  0  0  0  0
  7  9  1  0  0  0  0
  9 10  1  0  0  0  0
  9 11  1  0  0  0  0
  9 18  1  0  0  0  0
 11 12  1  0  0  0  0
 11 13  1  0  0  0  0
 11 14  1  0  0  0  0
 14 15  2  0  0  0  0
 14 16  1  0  0  0  0
 16 17  1  0  0  0  0
 18 19  2  0  0  0  0
 18 20  1  0  0  0  0
 20 21  1  0  0  0  0
 20 22  1  0  0  0  0
 22 23  1  0  0  0  0
 22 24  1  0  0  0  0
 22 25  1  0  0  0  0
M  END
$$$$

  -OEChem-02102214113D

 25 24  0     1  0  0  0  0  0999 V2000
   -2.5099   -3.7283   -0.4055 H   0  0  0  0  0  0  0  0  0  0  0  0
   -2.5546   -2.6772   -0.7049 C   0  0  0  0  0  0  0  0  0  0  0  0
   -3.3275   -2.1762   -0.1173 H   0  0  0  0  0  0  0  0  0  0  0  0
   -2.8188   -2.6253   -1.7640 H   0  0  0  0  0  0  0  0  0  0  0  0
   -1.2118   -2.0110   -0.4724 C   0  0  0  0  0  0  0  0  0  0  0  0
   -0.3015   -2.6419    0.0339 O   0  0  0  0  0  0  0  0  0  0  0  0
   -1.0345   -0.6875   -0.8268 N   0  0  0  0  0  0  0  0  0  0  0  0
   -1.8076   -0.2436   -1.3149 H   0  0  0  0  0  0  0  0  0  0  0  0
    0.2675    0.0090   -0.7985 C   0  0  1  0  0  0  0  0  0  0  0  0
    0.9521   -0.5492   -1.4492 H   0  0  0  0  0  0  0  0  0  0  0  0
    0.1290    1.4344   -1.3667 C   0  0  0  0  0  0  0  0  0  0  0  0
   -0.3536    2.0758   -0.6238 H   0  0  0  0  0  0  0  0  0  0  0  0
    1.1245    1.8467   -1.5571 H   0  0  0  0  0  0  0  0  0  0  0  0
   -0.6826    1.4974   -2.6527 C   0  0  0  0  0  0  0  0  0  0  0  0
   -0.2940    0.8715   -3.6229 O   0  0  0  0  0  0  0  0  0  0  0  0
   -1.8379    2.2017   -2.6318 O   0  0  0  0  0  0  0  0  0  0  0  0
   -2.1952    2.1559   -3.5327 H   0  0  0  0  0  0  0  0  0  0  0  0
    0.9437    0.0644    0.5883 C   0  0  0  0  0  0  0  0  0  0  0  0
    2.1647    0.0789    0.6626 O   0  0  0  0  0  0  0  0  0  0  0  0
    0.1977    0.3910    1.7064 N   0  0  0  0  0  0  0  0  0  0  0  0
   -0.8073    0.2819    1.6195 H   0  0  0  0  0  0  0  0  0  0  0  0
    0.7788    0.4961    3.0391 C   0  0  0  0  0  0  0  0  0  0  0  0
    1.5616    1.2617    3.0577 H   0  0  0  0  0  0  0  0  0  0  0  0
    0.0098    0.7736    3.7661 H   0  0  0  0  0  0  0  0  0  0  0  0
    1.2157   -0.4613    3.3423 H   0  0  0  0  0  0  0  0  0  0  0  0
  1  2  1  0  0  0  0
  2  3  1  0  0  0  0
  2  4  1  0  0  0  0
  2  5  1  0  0  0  0
  5  6  2  0  0  0  0
  5  7  1  0  0  0  0
  7  8  1  0  0  0  0
  7  9  1  0  0  0  0
  9 10  1  0  0  0  0
  9 11  1  0  0  0  0
  9 18  1  0  0  0  0
 11 12  1  0  0  0  0
 11 13  1  0  0  0  0
 11 14  1  0  0  0  0
 14 15  2  0  0  0  0
 14 16  1  0  0  0  0
 16 17  1  0  0  0  0
 18 19  2  0  0  0  0
 18 20  1  0  0  0  0
 20 21  1  0  0  0  0
 20 22  1  0  0  0  0
 22 23  1  0  0  0  0
 22 24  1  0  0  0  0
 22 25  1  0  0  0  0
M  END
$$$$

  -OEChem-02102214113D

 25 24  0     1  0  0  0  0  0999 V2000
   -2.5096   -3.7490   -0.4120 H   0  0  0  0  0  0  0  0  0  0  0  0
   -2.5507   -2.7052   -0.7365 C   0  0  0  0  0  0  0  0  0  0  0  0
   -3.3672   -2.2047   -0.2108 H   0  0  0  0  0  0  0  0  0  0  0  0
   -2.7468   -2.6798   -1.8112 H   0  0  0  0  0  0  0  0  0  0  0  0
   -1.2356   -2.0124   -0.4329 C   0  0  0  0  0  0  0  0  0  0  0  0
   -0.3510   -2.6195    0.1434 O   0  0  0  0  0  0  0  0  0  0  0  0
   -1.0579   -0.6935   -0.8049 N   0  0  0  0  0  0  0  0  0  0  0  0
   -1.7826   -0.3100   -1.4049 H   0  0  0  0  0  0  0  0  0  0  0  0
    0.2511   -0.0090   -0.7909 C   0  0  1  0  0  0  0  0  0  0  0  0
    0.9266   -0.5779   -1.4415 H   0  0  0  0  0  0  0  0  0  0  0  0
    0.1242    1.4188   -1.3622 C   0  0  0  0  0  0  0  0  0  0  0  0
   -0.3448    2.0622   -0.6121 H   0  0  0  0  0  0  0  0  0  0  0  0
    1.1235    1.8193   -1.5569 H   0  0  0  0  0  0  0  0  0  0  0  0
   -0.6952    1.5148   -2.6432 C   0  0  0  0  0  0  0  0  0  0  0  0
   -0.5066    0.7006   -3.5305 O   0  0  0  0  0  0  0  0  0  0  0  0
   -1.6241    2.4957   -2.7162 O   0  0  0  0  0  0  0  0  0  0  0  0
   -2.0177    2.4311   -3.6004 H   0  0  0  0  0  0  0  0  0  0  0  0
    0.9388    0.0568    0.5904 C   0  0  0  0  0  0  0  0  0  0  0  0
    2.1609    0.0660    0.6530 O   0  0  0  0  0  0  0  0  0  0  0  0
    0.2049    0.4034    1.7103 N   0  0  0  0  0  0  0  0  0  0  0  0
   -0.8012    0.2937    1.6348 H   0  0  0  0  0  0  0  0  0  0  0  0
    0.7998    0.5228    3.0356 C   0  0  0  0  0  0  0  0  0  0  0  0
    1.5884    1.2827    3.0353 H   0  0  0  0  0  0  0  0  0  0  0  0
    0.0408    0.8164    3.7669 H   0  0  0  0  0  0  0  0  0  0  0  0
    1.2326   -0.4336    3.3476 H   0  0  0  0  0  0  0  0  0  0  0  0
  1  2  1  0  0  0  0
  2  3  1  0  0  0  0
  2  4  1  0  0  0  0
  2  5  1  0  0  0  0
  5  6  2  0  0  0  0
  5  7  1  0  0  0  0
  7  8  1  0  0  0  0
  7  9  1  0  0  0  0
  9 10  1  0  0  0  0
  9 11  1  0  0  0  0
  9 18  1  0  0  0  0
 11 12  1  0  0  0  0
 11 13  1  0  0  0  0
 11 14  1  0  0  0  0
 14 15  2  0  0  0  0
 14 16  1  0  0  0  0
 16 17  1  0  0  0  0
 18 19  2  0  0  0  0
 18 20  1  0  0  0  0
 20 21  1  0  0  0  0
 20 22  1  0  0  0  0
 22 23  1  0  0  0  0
 22 24  1  0  0  0  0
 22 25  1  0  0  0  0
M  END
$$$$

  -OEChem-02102214113D

 25 24  0     1  0  0  0  0  0999 V2000
   -2.5004   -3.7696   -0.4165 H   0  0  0  0  0  0  0  0  0  0  0  0
   -2.5438   -2.7292   -0.7514 C   0  0  0  0  0  0  0  0  0  0  0  0
   -3.3889   -2.2374   -0.2641 H   0  0  0  0  0  0  0  0  0  0  0  0
   -2.6963   -2.7157   -1.8335 H   0  0  0  0  0  0  0  0  0  0  0  0
   -1.2530   -2.0134   -0.4003 C   0  0  0  0  0  0  0  0  0  0  0  0
   -0.3886   -2.5995    0.2266 O   0  0  0  0  0  0  0  0  0  0  0  0
   -1.0759   -0.6988   -0.7882 N   0  0  0  0  0  0  0  0  0  0  0  0
   -1.7615   -0.3616   -1.4591 H   0  0  0  0  0  0  0  0  0  0  0  0
    0.2372   -0.0220   -0.7868 C   0  0  1  0  0  0  0  0  0  0  0  0
    0.9064   -0.5992   -1.4364 H   0  0  0  0  0  0  0  0  0  0  0  0
    0.1181    1.4063   -1.3650 C   0  0  0  0  0  0  0  0  0  0  0  0
   -0.3410    2.0533   -0.6119 H   0  0  0  0  0  0  0  0  0  0  0  0
    1.1211    1.7965   -1.5610 H   0  0  0  0  0  0  0  0  0  0  0  0
   -0.7044    1.5339   -2.6435 C   0  0  0  0  0  0  0  0  0  0  0  0
   -0.7529    0.5997   -3.4267 O   0  0  0  0  0  0  0  0  0  0  0  0
   -1.3562    2.7031   -2.8383 O   0  0  0  0  0  0  0  0  0  0  0  0
   -1.7912    2.6330   -3.7022 H   0  0  0  0  0  0  0  0  0  0  0  0
    0.9326    0.0544    0.5901 C   0  0  0  0  0  0  0  0  0  0  0  0
    2.1551    0.0581    0.6443 O   0  0  0  0  0  0  0  0  0  0  0  0
    0.2072    0.4168    1.7103 N   0  0  0  0  0  0  0  0  0  0  0  0
   -0.7984    0.2963    1.6439 H   0  0  0  0  0  0  0  0  0  0  0  0
    0.8111    0.5416    3.0309 C   0  0  0  0  0  0  0  0  0  0  0  0
    1.6079    1.2929    3.0188 H   0  0  0  0  0  0  0  0  0  0  0  0
    0.0592    0.8502    3.7633 H   0  0  0  0  0  0  0  0  0  0  0  0
    1.2352   -0.4166    3.3493 H   0  0  0  0  0  0  0  0  0  0  0  0
  1  2  1  0  0  0  0
  2  3  1  0  0  0  0
  2  4  1  0  0  0  0
  2  5  1  0  0  0  0
  5  6  2  0  0  0  0
  5  7  1  0  0  0  0
  7  8  1  0  0  0  0
  7  9  1  0  0  0  0
  9 10  1  0  0  0  0
  9 11  1  0  0  0  0
  9 18  1  0  0  0  0
 11 12  1  0  0  0  0
 11 13  1  0  0  0  0
 11 14  1  0  0  0  0
 14 15  2  0  0  0  0
 14 16  1  0  0  0  0
 16 17  1  0  0  0  0
 18 19  2  0  0  0  0
 18 20  1  0  0  0  0
 20 21  1  0  0  0  0
 20 22  1  0  0  0  0
 22 23  1  0  0  0  0
 22 24  1  0  0  0  0
 22 25  1  0  0  0  0
M  END
$$$$

  -OEChem-02102214113D

 25 24  0     1  0  0  0  0  0999 V2000
   -2.5003   -3.7775   -0.3758 H   0  0  0  0  0  0  0  0  0  0  0  0
   -2.5376   -2.7478   -0.7426 C   0  0  0  0  0  0  0  0  0  0  0  0
   -3.3950   -2.2443   -0.2902 H   0  0  0  0  0  0  0  0  0  0  0  0
   -2.6640   -2.7662   -1.8279 H   0  0  0  0  0  0  0  0  0  0  0  0
   -1.2566   -2.0187   -0.3827 C   0  0  0  0  0  0  0  0  0  0  0  0
   -0.3935   -2.5948    0.2554 O   0  0  0  0  0  0  0  0  0  0  0  0
   -1.0845   -0.7062   -0.7795 N   0  0  0  0  0  0  0  0  0  0  0  0
   -1.7578   -0.3874   -1.4733 H   0  0  0  0  0  0  0  0  0  0  0  0
    0.2276   -0.0285   -0.7886 C   0  0  1  0  0  0  0  0  0  0  0  0
    0.8927   -0.6113   -1.4368 H   0  0  0  0  0  0  0  0  0  0  0  0
    0.1158    1.3989   -1.3760 C   0  0  0  0  0  0  0  0  0  0  0  0
   -0.3356    2.0512   -0.6231 H   0  0  0  0  0  0  0  0  0  0  0  0
    1.1237    1.7774   -1.5704 H   0  0  0  0  0  0  0  0  0  0  0  0
   -0.7027    1.5563   -2.6563 C   0  0  0  0  0  0  0  0  0  0  0  0
   -1.0036    0.5779   -3.3216 O   0  0  0  0  0  0  0  0  0  0  0  0
   -1.0622    2.8176   -2.9864 O   0  0  0  0  0  0  0  0  0  0  0  0
   -1.5431    2.7544   -3.8259 H   0  0  0  0  0  0  0  0  0  0  0  0
    0.9269    0.0547    0.5861 C   0  0  0  0  0  0  0  0  0  0  0  0
    2.1495    0.0587    0.6363 O   0  0  0  0  0  0  0  0  0  0  0  0
    0.2039    0.4220    1.7062 N   0  0  0  0  0  0  0  0  0  0  0  0
   -0.8015    0.2985    1.6418 H   0  0  0  0  0  0  0  0  0  0  0  0
    0.8088    0.5474    3.0261 C   0  0  0  0  0  0  0  0  0  0  0  0
    1.6018    1.3027    3.0147 H   0  0  0  0  0  0  0  0  0  0  0  0
    0.0560    0.8506    3.7599 H   0  0  0  0  0  0  0  0  0  0  0  0
    1.2382   -0.4093    3.3419 H   0  0  0  0  0  0  0  0  0  0  0  0
  1  2  1  0  0  0  0
  2  3  1  0  0  0  0
  2  4  1  0  0  0  0
  2  5  1  0  0  0  0
  5  6  2  0  0  0  0
  5  7  1  0  0  0  0
  7  8  1  0  0  0  0
  7  9  1  0  0  0  0
  9 10  1  0  0  0  0
  9 11  1  0  0  0  0
  9 18  1  0  0  0  0
 11 12  1  0  0  0  0
 11 13  1  0  0  0  0
 11 14  1  0  0  0  0
 14 15  2  0  0  0  0
 14 16  1  0  0  0  0
 16 17  1  0  0  0  0
 18 19  2  0  0  0  0
 18 20  1  0  0  0  0
 20 21  1  0  0  0  0
 20 22  1  0  0  0  0
 22 23  1  0  0  0  0
 22 24  1  0  0  0  0
 22 25  1  0  0  0  0
M  END
$$$$

  -OEChem-02102214113D

 25 24  0     1  0  0  0  0  0999 V2000
   -2.4896   -3.7930   -0.3685 H   0  0  0  0  0  0  0  0  0  0  0  0
   -2.5371   -2.7592   -0.7225 C   0  0  0  0  0  0  0  0  0  0  0  0
   -3.3872   -2.2629   -0.2484 H   0  0  0  0  0  0  0  0  0  0  0  0
   -2.6839   -2.7656   -1.8054 H   0  0  0  0  0  0  0  0  0  0  0  0
   -1.2518   -2.0306   -0.3782 C   0  0  0  0  0  0  0  0  0  0  0  0
   -0.3809   -2.6058    0.2503 O   0  0  0  0  0  0  0  0  0  0  0  0
   -1.0836   -0.7189   -0.7778 N   0  0  0  0  0  0  0  0  0  0  0  0
   -1.7647   -0.3962   -1.4639 H   0  0  0  0  0  0  0  0  0  0  0  0
    0.2234   -0.0331   -0.7924 C   0  0  1  0  0  0  0  0  0  0  0  0
    0.8898   -0.6185   -1.4368 H   0  0  0  0  0  0  0  0  0  0  0  0
    0.1154    1.3930   -1.3883 C   0  0  0  0  0  0  0  0  0  0  0  0
   -0.3328    2.0494   -0.6373 H   0  0  0  0  0  0  0  0  0  0  0  0
    1.1279    1.7625   -1.5770 H   0  0  0  0  0  0  0  0  0  0  0  0
   -0.6942    1.5734   -2.6737 C   0  0  0  0  0  0  0  0  0  0  0  0
   -1.2385    0.6222   -3.2129 O   0  0  0  0  0  0  0  0  0  0  0  0
   -0.7669    2.8365   -3.1518 O   0  0  0  0  0  0  0  0  0  0  0  0
   -1.2871    2.7908   -3.9686 H   0  0  0  0  0  0  0  0  0  0  0  0
    0.9226    0.0564    0.5818 C   0  0  0  0  0  0  0  0  0  0  0  0
    2.1453    0.0685    0.6321 O   0  0  0  0  0  0  0  0  0  0  0  0
    0.1969    0.4215    1.7010 N   0  0  0  0  0  0  0  0  0  0  0  0
   -0.8076    0.2899    1.6360 H   0  0  0  0  0  0  0  0  0  0  0  0
    0.8007    0.5516    3.0210 C   0  0  0  0  0  0  0  0  0  0  0  0
    1.5922    1.3084    3.0083 H   0  0  0  0  0  0  0  0  0  0  0  0
    0.0469    0.8554    3.7536 H   0  0  0  0  0  0  0  0  0  0  0  0
    1.2318   -0.4034    3.3396 H   0  0  0  0  0  0  0  0  0  0  0  0
  1  2  1  0  0  0  0
  2  3  1  0  0  0  0
  2  4  1  0  0  0  0
  2  5  1  0  0  0  0
  5  6  2  0  0  0  0
  5  7  1  0  0  0  0
  7  8  1  0  0  0  0
  7  9  1  0  0  0  0
  9 10  1  0  0  0  0
  9 11  1  0  0  0  0
  9 18  1  0  0  0  0
 11 12  1  0  0  0  0
 11 13  1  0  0  0  0
 11 14  1  0  0  0  0
 14 15  2  0  0  0  0
 14 16  1  0  0  0  0
 16 17  1  0  0  0  0
 18 19  2  0  0  0  0
 18 20  1  0  0  0  0
 20 21  1  0  0  0  0
 20 22  1  0  0  0  0
 22 23  1  0  0  0  0
 22 24  1  0  0  0  0
 22 25  1  0  0  0  0
M  END
$$$$

  -OEChem-02102214113D

 25 24  0     1  0  0  0  0  0999 V2000
   -2.4785   -3.8052   -0.3802 H   0  0  0  0  0  0  0  0  0  0  0  0
   -2.5386   -2.7616   -0.7022 C   0  0  0  0  0  0  0  0  0  0  0  0
   -3.3715   -2.2802   -0.1845 H   0  0  0  0  0  0  0  0  0  0  0  0
   -2.7236   -2.7362   -1.7789 H   0  0  0  0  0  0  0  0  0  0  0  0
   -1.2429   -2.0406   -0.3821 C   0  0  0  0  0  0  0  0  0  0  0  0
   -0.3617   -2.6209    0.2269 O   0  0  0  0  0  0  0  0  0  0  0  0
   -1.0767   -0.7289   -0.7814 N   0  0  0  0  0  0  0  0  0  0  0  0
   -1.7736   -0.3919   -1.4457 H   0  0  0  0  0  0  0  0  0  0  0  0
    0.2247   -0.0343   -0.7969 C   0  0  1  0  0  0  0  0  0  0  0  0
    0.8950   -0.6193   -1.4375 H   0  0  0  0  0  0  0  0  0  0  0  0
    0.1183    1.3906   -1.3990 C   0  0  0  0  0  0  0  0  0  0  0  0
   -0.3313    2.0503   -0.6519 H   0  0  0  0  0  0  0  0  0  0  0  0
    1.1337    1.7560   -1.5811 H   0  0  0  0  0  0  0  0  0  0  0  0
   -0.6830    1.5796   -2.6900 C   0  0  0  0  0  0  0  0  0  0  0  0
   -1.4459    0.7156   -3.0947 O   0  0  0  0  0  0  0  0  0  0  0  0
   -0.5002    2.7599   -3.3247 O   0  0  0  0  0  0  0  0  0  0  0  0
   -1.0573    2.7345   -4.1177 H   0  0  0  0  0  0  0  0  0  0  0  0
    0.9204    0.0596    0.5788 C   0  0  0  0  0  0  0  0  0  0  0  0
    2.1429    0.0725    0.6325 O   0  0  0  0  0  0  0  0  0  0  0  0
    0.1911    0.4197    1.6973 N   0  0  0  0  0  0  0  0  0  0  0  0
   -0.8138    0.2930    1.6286 H   0  0  0  0  0  0  0  0  0  0  0  0
    0.7915    0.5503    3.0189 C   0  0  0  0  0  0  0  0  0  0  0  0
    1.5859    1.3043    3.0068 H   0  0  0  0  0  0  0  0  0  0  0  0
    0.0367    0.8586    3.7486 H   0  0  0  0  0  0  0  0  0  0  0  0
    1.2178   -0.4058    3.3408 H   0  0  0  0  0  0  0  0  0  0  0  0
  1  2  1  0  0  0  0
  2  3  1  0  0  0  0
  2  4  1  0  0  0  0
  2  5  1  0  0  0  0
  5  6  2  0  0  0  0
  5  7  1  0  0  0  0
  7  8  1  0  0  0  0
  7  9  1  0  0  0  0
  9 10  1  0  0  0  0
  9 11  1  0  0  0  0
  9 18  1  0  0  0  0
 11 12  1  0  0  0  0
 11 13  1  0  0  0  0
 11 14  1  0  0  0  0
 14 15  2  0  0  0  0
 14 16  1  0  0  0  0
 16 17  1  0  0  0  0
 18 19  2  0  0  0  0
 18 20  1  0  0  0  0
 20 21  1  0  0  0  0
 20 22  1  0  0  0  0
 22 23  1  0  0  0  0
 22 24  1  0  0  0  0
 22 25  1  0  0  0  0
M  END
$$$$

  -OEChem-02102214113D

 25 24  0     1  0  0  0  0  0999 V2000
   -2.4771   -3.8007   -0.3780 H   0  0  0  0  0  0  0  0  0  0  0  0
   -2.5412   -2.7531   -0.6850 C   0  0  0  0  0  0  0  0  0  0  0  0
   -3.3555   -2.2739   -0.1367 H   0  0  0  0  0  0  0  0  0  0  0  0
   -2.7587   -2.7139   -1.7552 H   0  0  0  0  0  0  0  0  0  0  0  0
   -1.2322   -2.0432   -0.3953 C   0  0  0  0  0  0  0  0  0  0  0  0
   -0.3375   -2.6342    0.1829 O   0  0  0  0  0  0  0  0  0  0  0  0
   -1.0661   -0.7298   -0.7886 N   0  0  0  0  0  0  0  0  0  0  0  0
   -1.7865   -0.3660   -1.4134 H   0  0  0  0  0  0  0  0  0  0  0  0
    0.2305   -0.0274   -0.8006 C   0  0  1  0  0  0  0  0  0  0  0  0
    0.9054   -0.6101   -1.4385 H   0  0  0  0  0  0  0  0  0  0  0  0
    0.1240    1.3967   -1.4052 C   0  0  0  0  0  0  0  0  0  0  0  0
   -0.3290    2.0592   -0.6629 H   0  0  0  0  0  0  0  0  0  0  0  0
    1.1404    1.7619   -1.5828 H   0  0  0  0  0  0  0  0  0  0  0  0
   -0.6720    1.5772   -2.7010 C   0  0  0  0  0  0  0  0  0  0  0  0
   -1.6170    0.8495   -2.9659 O   0  0  0  0  0  0  0  0  0  0  0  0
   -0.2744    2.5926   -3.5013 O   0  0  0  0  0  0  0  0  0  0  0  0
   -0.8633    2.5825   -4.2712 H   0  0  0  0  0  0  0  0  0  0  0  0
    0.9213    0.0644    0.5777 C   0  0  0  0  0  0  0  0  0  0  0  0
    2.1434    0.0817    0.6361 O   0  0  0  0  0  0  0  0  0  0  0  0
    0.1865    0.4153    1.6954 N   0  0  0  0  0  0  0  0  0  0  0  0
   -0.8181    0.2894    1.6211 H   0  0  0  0  0  0  0  0  0  0  0  0
    0.7805    0.5367    3.0208 C   0  0  0  0  0  0  0  0  0  0  0  0
    1.5769    1.2886    3.0177 H   0  0  0  0  0  0  0  0  0  0  0  0
    0.0229    0.8423    3.7487 H   0  0  0  0  0  0  0  0  0  0  0  0
    1.2032   -0.4221    3.3390 H   0  0  0  0  0  0  0  0  0  0  0  0
  1  2  1  0  0  0  0
  2  3  1  0  0  0  0
  2  4  1  0  0  0  0
  2  5  1  0  0  0  0
  5  6  2  0  0  0  0
  5  7  1  0  0  0  0
  7  8  1  0  0  0  0
  7  9  1  0  0  0  0
  9 10  1  0  0  0  0
  9 11  1  0  0  0  0
  9 18  1  0  0  0  0
 11 12  1  0  0  0  0
 11 13  1  0  0  0  0
 11 14  1  0  0  0  0
 14 15  2  0  0  0  0
 14 16  1  0  0  0  0
 16 17  1  0  0  0  0
 18 19  2  0  0  0  0
 18 20  1  0  0  0  0
 20 21  1  0  0  0  0
 20 22  1  0  0  0  0
 22 23  1  0  0  0  0
 22 24  1  0  0  0  0
 22 25  1  0  0  0  0
M  END
$$$$

  -OEChem-02102214113D

 25 24  0     1  0  0  0  0  0999 V2000
   -2.4902   -3.7794   -0.3693 H   0  0  0  0  0  0  0  0  0  0  0  0
   -2.5447   -2.7322   -0.6803 C   0  0  0  0  0  0  0  0  0  0  0  0
   -3.3390   -2.2375   -0.1165 H   0  0  0  0  0  0  0  0  0  0  0  0
   -2.7849   -2.6938   -1.7455 H   0  0  0  0  0  0  0  0  0  0  0  0
   -1.2189   -2.0416   -0.4230 C   0  0  0  0  0  0  0  0  0  0  0  0
   -0.3119   -2.6501    0.1166 O   0  0  0  0  0  0  0  0  0  0  0  0
   -1.0507   -0.7247   -0.8029 N   0  0  0  0  0  0  0  0  0  0  0  0
   -1.7953   -0.3276   -1.3771 H   0  0  0  0  0  0  0  0  0  0  0  0
    0.2426   -0.0171   -0.8030 C   0  0  1  0  0  0  0  0  0  0  0  0
    0.9229   -0.5927   -1.4416 H   0  0  0  0  0  0  0  0  0  0  0  0
    0.1314    1.4081   -1.4006 C   0  0  0  0  0  0  0  0  0  0  0  0
   -0.3340    2.0661   -0.6617 H   0  0  0  0  0  0  0  0  0  0  0  0
    1.1450    1.7839   -1.5725 H   0  0  0  0  0  0  0  0  0  0  0  0
   -0.6630    1.5633   -2.6992 C   0  0  0  0  0  0  0  0  0  0  0  0
   -1.7452    1.0109   -2.8308 O   0  0  0  0  0  0  0  0  0  0  0  0
   -0.1057    2.3396   -3.6568 O   0  0  0  0  0  0  0  0  0  0  0  0
   -0.7206    2.3371   -4.4061 H   0  0  0  0  0  0  0  0  0  0  0  0
    0.9259    0.0654    0.5791 C   0  0  0  0  0  0  0  0  0  0  0  0
    2.1476    0.0840    0.6449 O   0  0  0  0  0  0  0  0  0  0  0  0
    0.1841    0.4036    1.6961 N   0  0  0  0  0  0  0  0  0  0  0  0
   -0.8208    0.2862    1.6143 H   0  0  0  0  0  0  0  0  0  0  0  0
    0.7703    0.5219    3.0253 C   0  0  0  0  0  0  0  0  0  0  0  0
    1.5590    1.2816    3.0310 H   0  0  0  0  0  0  0  0  0  0  0  0
    0.0062    0.8151    3.7514 H   0  0  0  0  0  0  0  0  0  0  0  0
    1.2007   -0.4349    3.3393 H   0  0  0  0  0  0  0  0  0  0  0  0
  1  2  1  0  0  0  0
  2  3  1  0  0  0  0
  2  4  1  0  0  0  0
  2  5  1  0  0  0  0
  5  6  2  0  0  0  0
  5  7  1  0  0  0  0
  7  8  1  0  0  0  0
  7  9  1  0  0  0  0
  9 10  1  0  0  0  0
  9 11  1  0  0  0  0
  9 18  1  0  0  0  0
 11 12  1  0  0  0  0
 11 13  1  0  0  0  0
 11 14  1  0  0  0  0
 14 15  2  0  0  0  0
 14 16  1  0  0  0  0
 16 17  1  0  0  0  0
 18 19  2  0  0  0  0
 18 20  1  0  0  0  0
 20 21  1  0  0  0  0
 20 22  1  0  0  0  0
 22 23  1  0  0  0  0
 22 24  1  0  0  0  0
 22 25  1  0  0  0  0
M  END
$$$$

  -OEChem-02102214113D

 25 24  0     1  0  0  0  0  0999 V2000
   -2.5002   -3.7540   -0.3841 H   0  0  0  0  0  0  0  0  0  0  0  0
   -2.5476   -2.7041   -0.6866 C   0  0  0  0  0  0  0  0  0  0  0  0
   -3.3223   -2.2033   -0.1014 H   0  0  0  0  0  0  0  0  0  0  0  0
   -2.8114   -2.6556   -1.7459 H   0  0  0  0  0  0  0  0  0  0  0  0
   -1.2071   -2.0328   -0.4543 C   0  0  0  0  0  0  0  0  0  0  0  0
   -0.2936   -2.6584    0.0538 O   0  0  0  0  0  0  0  0  0  0  0  0
   -1.0299   -0.7139   -0.8224 N   0  0  0  0  0  0  0  0  0  0  0  0
   -1.7938   -0.2817   -1.3436 H   0  0  0  0  0  0  0  0  0  0  0  0
    0.2642   -0.0076   -0.8050 C   0  0  1  0  0  0  0  0  0  0  0  0
    0.9518   -0.5744   -1.4440 H   0  0  0  0  0  0  0  0  0  0  0  0
    0.1416    1.4183   -1.3919 C   0  0  0  0  0  0  0  0  0  0  0  0
   -0.3363    2.0706   -0.6559 H   0  0  0  0  0  0  0  0  0  0  0  0
    1.1488    1.8105   -1.5640 H   0  0  0  0  0  0  0  0  0  0  0  0
   -0.6552    1.5333   -2.6899 C   0  0  0  0  0  0  0  0  0  0  0  0
   -1.8276    1.1875   -2.7069 O   0  0  0  0  0  0  0  0  0  0  0  0
   -0.0060    2.0202   -3.7721 O   0  0  0  0  0  0  0  0  0  0  0  0
   -0.6470    2.0267   -4.4992 H   0  0  0  0  0  0  0  0  0  0  0  0
    0.9349    0.0650    0.5834 C   0  0  0  0  0  0  0  0  0  0  0  0
    2.1559    0.0781    0.6617 O   0  0  0  0  0  0  0  0  0  0  0  0
    0.1835    0.3966    1.6960 N   0  0  0  0  0  0  0  0  0  0  0  0
   -0.8219    0.2932    1.6030 H   0  0  0  0  0  0  0  0  0  0  0  0
    0.7579    0.5107    3.0305 C   0  0  0  0  0  0  0  0  0  0  0  0
    1.5435    1.2735    3.0459 H   0  0  0  0  0  0  0  0  0  0  0  0
   -0.0134    0.7970    3.7516 H   0  0  0  0  0  0  0  0  0  0  0  0
    1.1895   -0.4459    3.3435 H   0  0  0  0  0  0  0  0  0  0  0  0
  1  2  1  0  0  0  0
  2  3  1  0  0  0  0
  2  4  1  0  0  0  0
  2  5  1  0  0  0  0
  5  6  2  0  0  0  0
  5  7  1  0  0  0  0
  7  8  1  0  0  0  0
  7  9  1  0  0  0  0
  9 10  1  0  0  0  0
  9 11  1  0  0  0  0
  9 18  1  0  0  0  0
 11 12  1  0  0  0  0
 11 13  1  0  0  0  0
 11 14  1  0  0  0  0
 14 15  2  0  0  0  0
 14 16  1  0  0  0  0
 16 17  1  0  0  0  0
 18 19  2  0  0  0  0
 18 20  1  0  0  0  0
 20 21  1  0  0  0  0
 20 22  1  0  0  0  0
 22 23  1  0  0  0  0
 22 24  1  0  0  0  0
 22 25  1  0  0  0  0
M  END
$$$$

  -OEChem-02102214113D

 25 24  0     1  0  0  0  0  0999 V2000
   -2.5024   -3.7288   -0.4038 H   0  0  0  0  0  0  0  0  0  0  0  0
   -2.5462   -2.6744   -0.6913 C   0  0  0  0  0  0  0  0  0  0  0  0
   -3.2994   -2.1732   -0.0788 H   0  0  0  0  0  0  0  0  0  0  0  0
   -2.8376   -2.6086   -1.7424 H   0  0  0  0  0  0  0  0  0  0  0  0
   -1.1928   -2.0208   -0.4866 C   0  0  0  0  0  0  0  0  0  0  0  0
   -0.2743   -2.6613   -0.0073 O   0  0  0  0  0  0  0  0  0  0  0  0
   -1.0096   -0.6994   -0.8434 N   0  0  0  0  0  0  0  0  0  0  0  0
   -1.7896   -0.2387   -1.3134 H   0  0  0  0  0  0  0  0  0  0  0  0
    0.2852    0.0063   -0.8073 C   0  0  1  0  0  0  0  0  0  0  0  0
    0.9804   -0.5512   -1.4466 H   0  0  0  0  0  0  0  0  0  0  0  0
    0.1469    1.4302   -1.3859 C   0  0  0  0  0  0  0  0  0  0  0  0
   -0.3456    2.0769   -0.6542 H   0  0  0  0  0  0  0  0  0  0  0  0
    1.1457    1.8409   -1.5628 H   0  0  0  0  0  0  0  0  0  0  0  0
   -0.6505    1.4937   -2.6828 C   0  0  0  0  0  0  0  0  0  0  0  0
   -1.8661    1.3789   -2.6274 O   0  0  0  0  0  0  0  0  0  0  0  0
    0.0355    1.6612   -3.8366 O   0  0  0  0  0  0  0  0  0  0  0  0
   -0.6214    1.6808   -4.5490 H   0  0  0  0  0  0  0  0  0  0  0  0
    0.9437    0.0707    0.5874 C   0  0  0  0  0  0  0  0  0  0  0  0
    2.1637    0.0775    0.6775 O   0  0  0  0  0  0  0  0  0  0  0  0
    0.1830    0.3959    1.6958 N   0  0  0  0  0  0  0  0  0  0  0  0
   -0.8223    0.3041    1.5916 H   0  0  0  0  0  0  0  0  0  0  0  0
    0.7443    0.4959    3.0374 C   0  0  0  0  0  0  0  0  0  0  0  0
    1.5368    1.2513    3.0666 H   0  0  0  0  0  0  0  0  0  0  0  0
   -0.0320    0.7849    3.7523 H   0  0  0  0  0  0  0  0  0  0  0  0
    1.1638   -0.4666    3.3487 H   0  0  0  0  0  0  0  0  0  0  0  0
  1  2  1  0  0  0  0
  2  3  1  0  0  0  0
  2  4  1  0  0  0  0
  2  5  1  0  0  0  0
  5  6  2  0  0  0  0
  5  7  1  0  0  0  0
  7  8  1  0  0  0  0
  7  9  1  0  0  0  0
  9 10  1  0  0  0  0
  9 11  1  0  0  0  0
  9 18  1  0  0  0  0
 11 12  1  0  0  0  0
 11 13  1  0  0  0  0
 11 14  1  0  0  0  0
 14 15  2  0  0  0  0
 14 16  1  0  0  0  0
 16 17  1  0  0  0  0
 18 19  2  0  0  0  0
 18 20  1  0  0  0  0
 20 21  1  0  0  0  0
 20 22  1  0  0  0  0
 22 23  1  0  0  0  0
 22 24  1  0  0  0  0
 22 25  1  0  0  0  0
M  END
$$$$

  -OEChem-02102214113D

 25 24  0     1  0  0  0  0  0999 V2000
   -2.5081   -3.7118   -0.4100 H   0  0  0  0  0  0  0  0  0  0  0  0
   -2.5470   -2.6566   -0.6952 C   0  0  0  0  0  0  0  0  0  0  0  0
   -3.2866   -2.1499   -0.0708 H   0  0  0  0  0  0  0  0  0  0  0  0
   -2.8538   -2.5866   -1.7417 H   0  0  0  0  0  0  0  0  0  0  0  0
   -1.1844   -2.0156   -0.5108 C   0  0  0  0  0  0  0  0  0  0  0  0
   -0.2619   -2.6676   -0.0557 O   0  0  0  0  0  0  0  0  0  0  0  0
   -0.9967   -0.6926   -0.8593 N   0  0  0  0  0  0  0  0  0  0  0  0
   -1.7903   -0.2090   -1.2788 H   0  0  0  0  0  0  0  0  0  0  0  0
    0.2997    0.0111   -0.8092 C   0  0  1  0  0  0  0  0  0  0  0  0
    1.0001   -0.5399   -1.4488 H   0  0  0  0  0  0  0  0  0  0  0  0
    0.1495    1.4333   -1.3811 C   0  0  0  0  0  0  0  0  0  0  0  0
   -0.3503    2.0755   -0.6501 H   0  0  0  0  0  0  0  0  0  0  0  0
    1.1421    1.8559   -1.5638 H   0  0  0  0  0  0  0  0  0  0  0  0
   -0.6477    1.4613   -2.6770 C   0  0  0  0  0  0  0  0  0  0  0  0
   -1.8587    1.6007   -2.6044 O   0  0  0  0  0  0  0  0  0  0  0  0
    0.0241    1.3129   -3.8415 O   0  0  0  0  0  0  0  0  0  0  0  0
   -0.6352    1.3653   -4.5501 H   0  0  0  0  0  0  0  0  0  0  0  0
    0.9498    0.0690    0.5895 C   0  0  0  0  0  0  0  0  0  0  0  0
    2.1691    0.0729    0.6883 O   0  0  0  0  0  0  0  0  0  0  0  0
    0.1827    0.3909    1.6946 N   0  0  0  0  0  0  0  0  0  0  0  0
   -0.8228    0.3113    1.5833 H   0  0  0  0  0  0  0  0  0  0  0  0
    0.7362    0.4933    3.0393 C   0  0  0  0  0  0  0  0  0  0  0  0
    1.5213    1.2560    3.0744 H   0  0  0  0  0  0  0  0  0  0  0  0
   -0.0465    0.7731    3.7507 H   0  0  0  0  0  0  0  0  0  0  0  0
    1.1631   -0.4660    3.3506 H   0  0  0  0  0  0  0  0  0  0  0  0
  1  2  1  0  0  0  0
  2  3  1  0  0  0  0
  2  4  1  0  0  0  0
  2  5  1  0  0  0  0
  5  6  2  0  0  0  0
  5  7  1  0  0  0  0
  7  8  1  0  0  0  0
  7  9  1  0  0  0  0
  9 10  1  0  0  0  0
  9 11  1  0  0  0  0
  9 18  1  0  0  0  0
 11 12  1  0  0  0  0
 11 13  1  0  0  0  0
 11 14  1  0  0  0  0
 14 15  2  0  0  0  0
 14 16  1  0  0  0  0
 16 17  1  0  0  0  0
 18 19  2  0  0  0  0
 18 20  1  0  0  0  0
 20 21  1  0  0  0  0
 20 22  1  0  0  0  0
 22 23  1  0  0  0  0
 22 24  1  0  0  0  0
 22 25  1  0  0  0  0
M  END
$$$$

  -OEChem-02102214113D

 25 24  0     1  0  0  0  0  0999 V2000
   -2.5059   -3.7125   -0.3943 H   0  0  0  0  0  0  0  0  0  0  0  0
   -2.5475   -2.6583   -0.6829 C   0  0  0  0  0  0  0  0  0  0  0  0
   -3.2776   -2.1482   -0.0503 H   0  0  0  0  0  0  0  0  0  0  0  0
   -2.8681   -2.5924   -1.7253 H   0  0  0  0  0  0  0  0  0  0  0  0
   -1.1818   -2.0187   -0.5193 C   0  0  0  0  0  0  0  0  0  0  0  0
   -0.2536   -2.6722   -0.0783 O   0  0  0  0  0  0  0  0  0  0  0  0
   -0.9986   -0.6941   -0.8657 N   0  0  0  0  0  0  0  0  0  0  0  0
   -1.8013   -0.2044   -1.2563 H   0  0  0  0  0  0  0  0  0  0  0  0
    0.2979    0.0108   -0.8110 C   0  0  1  0  0  0  0  0  0  0  0  0
    0.9994   -0.5397   -1.4500 H   0  0  0  0  0  0  0  0  0  0  0  0
    0.1490    1.4313   -1.3839 C   0  0  0  0  0  0  0  0  0  0  0  0
   -0.3515    2.0745   -0.6539 H   0  0  0  0  0  0  0  0  0  0  0  0
    1.1417    1.8528   -1.5679 H   0  0  0  0  0  0  0  0  0  0  0  0
   -0.6434    1.4499   -2.6823 C   0  0  0  0  0  0  0  0  0  0  0  0
   -1.7929    1.8567   -2.6493 O   0  0  0  0  0  0  0  0  0  0  0  0
   -0.0332    1.0099   -3.8065 O   0  0  0  0  0  0  0  0  0  0  0  0
   -0.6718    1.1171   -4.5278 H   0  0  0  0  0  0  0  0  0  0  0  0
    0.9463    0.0675    0.5885 C   0  0  0  0  0  0  0  0  0  0  0  0
    2.1655    0.0735    0.6882 O   0  0  0  0  0  0  0  0  0  0  0  0
    0.1785    0.3870    1.6938 N   0  0  0  0  0  0  0  0  0  0  0  0
   -0.8270    0.3093    1.5829 H   0  0  0  0  0  0  0  0  0  0  0  0
    0.7325    0.4924    3.0379 C   0  0  0  0  0  0  0  0  0  0  0  0
    1.5131    1.2599    3.0725 H   0  0  0  0  0  0  0  0  0  0  0  0
   -0.0512    0.7674    3.7500 H   0  0  0  0  0  0  0  0  0  0  0  0
    1.1654   -0.4643    3.3486 H   0  0  0  0  0  0  0  0  0  0  0  0
  1  2  1  0  0  0  0
  2  3  1  0  0  0  0
  2  4  1  0  0  0  0
  2  5  1  0  0  0  0
  5  6  2  0  0  0  0
  5  7  1  0  0  0  0
  7  8  1  0  0  0  0
  7  9  1  0  0  0  0
  9 10  1  0  0  0  0
  9 11  1  0  0  0  0
  9 18  1  0  0  0  0
 11 12  1  0  0  0  0
 11 13  1  0  0  0  0
 11 14  1  0  0  0  0
 14 15  2  0  0  0  0
 14 16  1  0  0  0  0
 16 17  1  0  0  0  0
 18 19  2  0  0  0  0
 18 20  1  0  0  0  0
 20 21  1  0  0  0  0
 20 22  1  0  0  0  0
 22 23  1  0  0  0  0
 22 24  1  0  0  0  0
 22 25  1  0  0  0  0
M  END
$$$$

  -OEChem-02102214113D

 25 24  0     1  0  0  0  0  0999 V2000
   -2.5004   -3.7240   -0.3794 H   0  0  0  0  0  0  0  0  0  0  0  0
   -2.5468   -2.6704   -0.6698 C   0  0  0  0  0  0  0  0  0  0  0  0
   -3.2800   -2.1635   -0.0381 H   0  0  0  0  0  0  0  0  0  0  0  0
   -2.8671   -2.6074   -1.7126 H   0  0  0  0  0  0  0  0  0  0  0  0
   -1.1841   -2.0242   -0.5061 C   0  0  0  0  0  0  0  0  0  0  0  0
   -0.2555   -2.6718   -0.0575 O   0  0  0  0  0  0  0  0  0  0  0  0
   -1.0056   -0.7006   -0.8591 N   0  0  0  0  0  0  0  0  0  0  0  0
   -1.8065   -0.2212   -1.2627 H   0  0  0  0  0  0  0  0  0  0  0  0
    0.2910    0.0048   -0.8106 C   0  0  1  0  0  0  0  0  0  0  0  0
    0.9906   -0.5506   -1.4474 H   0  0  0  0  0  0  0  0  0  0  0  0
    0.1482    1.4241   -1.3900 C   0  0  0  0  0  0  0  0  0  0  0  0
   -0.3467    2.0710   -0.6592 H   0  0  0  0  0  0  0  0  0  0  0  0
    1.1439    1.8374   -1.5756 H   0  0  0  0  0  0  0  0  0  0  0  0
   -0.6432    1.4532   -2.6898 C   0  0  0  0  0  0  0  0  0  0  0  0
   -1.6673    2.1133   -2.7258 O   0  0  0  0  0  0  0  0  0  0  0  0
   -0.1637    0.7540   -3.7445 O   0  0  0  0  0  0  0  0  0  0  0  0
   -0.7654    0.9259   -4.4850 H   0  0  0  0  0  0  0  0  0  0  0  0
    0.9424    0.0668    0.5875 C   0  0  0  0  0  0  0  0  0  0  0  0
    2.1617    0.0731    0.6853 O   0  0  0  0  0  0  0  0  0  0  0  0
    0.1763    0.3903    1.6929 N   0  0  0  0  0  0  0  0  0  0  0  0
   -0.8292    0.3104    1.5839 H   0  0  0  0  0  0  0  0  0  0  0  0
    0.7318    0.4946    3.0365 C   0  0  0  0  0  0  0  0  0  0  0  0
    1.5162    1.2582    3.0698 H   0  0  0  0  0  0  0  0  0  0  0  0
   -0.0500    0.7741    3.7491 H   0  0  0  0  0  0  0  0  0  0  0  0
    1.1606   -0.4639    3.3477 H   0  0  0  0  0  0  0  0  0  0  0  0
  1  2  1  0  0  0  0
  2  3  1  0  0  0  0
  2  4  1  0  0  0  0
  2  5  1  0  0  0  0
  5  6  2  0  0  0  0
  5  7  1  0  0  0  0
  7  8  1  0  0  0  0
  7  9  1  0  0  0  0
  9 10  1  0  0  0  0
  9 11  1  0  0  0  0
  9 18  1  0  0  0  0
 11 12  1  0  0  0  0
 11 13  1  0  0  0  0
 11 14  1  0  0  0  0
 14 15  2  0  0  0  0
 14 16  1  0  0  0  0
 16 17  1  0  0  0  0
 18 19  2  0  0  0  0
 18 20  1  0  0  0  0
 20 21  1  0  0  0  0
 20 22  1  0  0  0  0
 22 23  1  0  0  0  0
 22 24  1  0  0  0  0
 22 25  1  0  0  0  0
M  END
$$$$

  -OEChem-02102214113D

 25 24  0     1  0  0  0  0  0999 V2000
   -2.4990   -3.7476   -0.3976 H   0  0  0  0  0  0  0  0  0  0  0  0
   -2.5491   -2.6937   -0.6862 C   0  0  0  0  0  0  0  0  0  0  0  0
   -3.3144   -2.1996   -0.0830 H   0  0  0  0  0  0  0  0  0  0  0  0
   -2.8284   -2.6323   -1.7408 H   0  0  0  0  0  0  0  0  0  0  0  0
   -1.2037   -2.0278   -0.4660 C   0  0  0  0  0  0  0  0  0  0  0  0
   -0.2918   -2.6573    0.0392 O   0  0  0  0  0  0  0  0  0  0  0  0
   -1.0239   -0.7080   -0.8334 N   0  0  0  0  0  0  0  0  0  0  0  0
   -1.7975   -0.2657   -1.3217 H   0  0  0  0  0  0  0  0  0  0  0  0
    0.2771   -0.0094   -0.8004 C   0  0  1  0  0  0  0  0  0  0  0  0
    0.9683   -0.5759   -1.4367 H   0  0  0  0  0  0  0  0  0  0  0  0
    0.1455    1.4089   -1.3891 C   0  0  0  0  0  0  0  0  0  0  0  0
   -0.3386    2.0609   -0.6558 H   0  0  0  0  0  0  0  0  0  0  0  0
    1.1456    1.8100   -1.5780 H   0  0  0  0  0  0  0  0  0  0  0  0
   -0.6506    1.4629   -2.6872 C   0  0  0  0  0  0  0  0  0  0  0  0
   -1.4866    2.3407   -2.8094 O   0  0  0  0  0  0  0  0  0  0  0  0
   -0.3763    0.5524   -3.6509 O   0  0  0  0  0  0  0  0  0  0  0  0
   -0.9277    0.7866   -4.4135 H   0  0  0  0  0  0  0  0  0  0  0  0
    0.9403    0.0628    0.5919 C   0  0  0  0  0  0  0  0  0  0  0  0
    2.1606    0.0686    0.6783 O   0  0  0  0  0  0  0  0  0  0  0  0
    0.1847    0.4013    1.6998 N   0  0  0  0  0  0  0  0  0  0  0  0
   -0.8211    0.3110    1.6011 H   0  0  0  0  0  0  0  0  0  0  0  0
    0.7517    0.5154    3.0377 C   0  0  0  0  0  0  0  0  0  0  0  0
    1.5376    1.2778    3.0584 H   0  0  0  0  0  0  0  0  0  0  0  0
   -0.0239    0.8020    3.7541 H   0  0  0  0  0  0  0  0  0  0  0  0
    1.1811   -0.4414    3.3531 H   0  0  0  0  0  0  0  0  0  0  0  0
  1  2  1  0  0  0  0
  2  3  1  0  0  0  0
  2  4  1  0  0  0  0
  2  5  1  0  0  0  0
  5  6  2  0  0  0  0
  5  7  1  0  0  0  0
  7  8  1  0  0  0  0
  7  9  1  0  0  0  0
  9 10  1  0  0  0  0
  9 11  1  0  0  0  0
  9 18  1  0  0  0  0
 11 12  1  0  0  0  0
 11 13  1  0  0  0  0
 11 14  1  0  0  0  0
 14 15  2  0  0  0  0
 14 16  1  0  0  0  0
 16 17  1  0  0  0  0
 18 19  2  0  0  0  0
 18 20  1  0  0  0  0
 20 21  1  0  0  0  0
 20 22  1  0  0  0  0
 22 23  1  0  0  0  0
 22 24  1  0  0  0  0
 22 25  1  0  0  0  0
M  END
$$$$

  -OEChem-02102214113D

 25 24  0     1  0  0  0  0  0999 V2000
   -2.5188   -3.7521   -0.3436 H   0  0  0  0  0  0  0  0  0  0  0  0
   -2.5440   -2.7236   -0.7149 C   0  0  0  0  0  0  0  0  0  0  0  0
   -3.3661   -2.1937   -0.2279 H   0  0  0  0  0  0  0  0  0  0  0  0
   -2.7190   -2.7440   -1.7932 H   0  0  0  0  0  0  0  0  0  0  0  0
   -1.2289   -2.0288   -0.4164 C   0  0  0  0  0  0  0  0  0  0  0  0
   -0.3435   -2.6324    0.1623 O   0  0  0  0  0  0  0  0  0  0  0  0
   -1.0497   -0.7143   -0.8026 N   0  0  0  0  0  0  0  0  0  0  0  0
   -1.7693   -0.3378   -1.4131 H   0  0  0  0  0  0  0  0  0  0  0  0
    0.2581   -0.0286   -0.7883 C   0  0  1  0  0  0  0  0  0  0  0  0
    0.9376   -0.6073   -1.4257 H   0  0  0  0  0  0  0  0  0  0  0  0
    0.1406    1.3910   -1.3825 C   0  0  0  0  0  0  0  0  0  0  0  0
   -0.3264    2.0484   -0.6430 H   0  0  0  0  0  0  0  0  0  0  0  0
    1.1472    1.7736   -1.5762 H   0  0  0  0  0  0  0  0  0  0  0  0
   -0.6636    1.4848   -2.6752 C   0  0  0  0  0  0  0  0  0  0  0  0
   -1.2596    2.5243   -2.8929 O   0  0  0  0  0  0  0  0  0  0  0  0
   -0.6648    0.4335   -3.5297 O   0  0  0  0  0  0  0  0  0  0  0  0
   -1.1613    0.7231   -4.3114 H   0  0  0  0  0  0  0  0  0  0  0  0
    0.9357    0.0534    0.5971 C   0  0  0  0  0  0  0  0  0  0  0  0
    2.1573    0.0547    0.6679 O   0  0  0  0  0  0  0  0  0  0  0  0
    0.1953    0.4119    1.7089 N   0  0  0  0  0  0  0  0  0  0  0  0
   -0.8112    0.3124    1.6258 H   0  0  0  0  0  0  0  0  0  0  0  0
    0.7803    0.5415    3.0377 C   0  0  0  0  0  0  0  0  0  0  0  0
    1.5653    1.3053    3.0390 H   0  0  0  0  0  0  0  0  0  0  0  0
    0.0143    0.8351    3.7617 H   0  0  0  0  0  0  0  0  0  0  0  0
    1.2157   -0.4110    3.3582 H   0  0  0  0  0  0  0  0  0  0  0  0
  1  2  1  0  0  0  0
  2  3  1  0  0  0  0
  2  4  1  0  0  0  0
  2  5  1  0  0  0  0
  5  6  2  0  0  0  0
  5  7  1  0  0  0  0
  7  8  1  0  0  0  0
  7  9  1  0  0  0  0
  9 10  1  0  0  0  0
  9 11  1  0  0  0  0
  9 18  1  0  0  0  0
 11 12  1  0  0  0  0
 11 13  1  0  0  0  0
 11 14  1  0  0  0  0
 14 15  2  0  0  0  0
 14 16  1  0  0  0  0
 16 17  1  0  0  0  0
 18 19  2  0  0  0  0
 18 20  1  0  0  0  0
 20 21  1  0  0  0  0
 20 22  1  0  0  0  0
 22 23  1  0  0  0  0
 22 24  1  0  0  0  0
 22 25  1  0  0  0  0
M  END
$$$$

  -OEChem-02102214113D

 25 24  0     1  0  0  0  0  0999 V2000
   -2.5043   -3.7790   -0.3393 H   0  0  0  0  0  0  0  0  0  0  0  0
   -2.5377   -2.7499   -0.7085 C   0  0  0  0  0  0  0  0  0  0  0  0
   -3.3782   -2.2346   -0.2377 H   0  0  0  0  0  0  0  0  0  0  0  0
   -2.6899   -2.7702   -1.7903 H   0  0  0  0  0  0  0  0  0  0  0  0
   -1.2405   -2.0349   -0.3799 C   0  0  0  0  0  0  0  0  0  0  0  0
   -0.3713   -2.6176    0.2432 O   0  0  0  0  0  0  0  0  0  0  0  0
   -1.0619   -0.7257   -0.7846 N   0  0  0  0  0  0  0  0  0  0  0  0
   -1.7428   -0.3963   -1.4647 H   0  0  0  0  0  0  0  0  0  0  0  0
    0.2486   -0.0459   -0.7847 C   0  0  1  0  0  0  0  0  0  0  0  0
    0.9226   -0.6332   -1.4196 H   0  0  0  0  0  0  0  0  0  0  0  0
    0.1389    1.3742   -1.3865 C   0  0  0  0  0  0  0  0  0  0  0  0
   -0.3192    2.0344   -0.6439 H   0  0  0  0  0  0  0  0  0  0  0  0
    1.1496    1.7465   -1.5794 H   0  0  0  0  0  0  0  0  0  0  0  0
   -0.6672    1.5058   -2.6773 C   0  0  0  0  0  0  0  0  0  0  0  0
   -0.9982    2.6305   -3.0061 O   0  0  0  0  0  0  0  0  0  0  0  0
   -0.9688    0.4022   -3.4050 O   0  0  0  0  0  0  0  0  0  0  0  0
   -1.4090    0.7283   -4.2065 H   0  0  0  0  0  0  0  0  0  0  0  0
    0.9317    0.0493    0.5975 C   0  0  0  0  0  0  0  0  0  0  0  0
    2.1536    0.0475    0.6625 O   0  0  0  0  0  0  0  0  0  0  0  0
    0.1970    0.4242    1.7075 N   0  0  0  0  0  0  0  0  0  0  0  0
   -0.8090    0.3129    1.6313 H   0  0  0  0  0  0  0  0  0  0  0  0
    0.7877    0.5595    3.0331 C   0  0  0  0  0  0  0  0  0  0  0  0
    1.5821    1.3133    3.0244 H   0  0  0  0  0  0  0  0  0  0  0  0
    0.0276    0.8703    3.7561 H   0  0  0  0  0  0  0  0  0  0  0  0
    1.2116   -0.3954    3.3616 H   0  0  0  0  0  0  0  0  0  0  0  0
  1  2  1  0  0  0  0
  2  3  1  0  0  0  0
  2  4  1  0  0  0  0
  2  5  1  0  0  0  0
  5  6  2  0  0  0  0
  5  7  1  0  0  0  0
  7  8  1  0  0  0  0
  7  9  1  0  0  0  0
  9 10  1  0  0  0  0
  9 11  1  0  0  0  0
  9 18  1  0  0  0  0
 11 12  1  0  0  0  0
 11 13  1  0  0  0  0
 11 14  1  0  0  0  0
 14 15  2  0  0  0  0
 14 16  1  0  0  0  0
 16 17  1  0  0  0  0
 18 19  2  0  0  0  0
 18 20  1  0  0  0  0
 20 21  1  0  0  0  0
 20 22  1  0  0  0  0
 22 23  1  0  0  0  0
 22 24  1  0  0  0  0
 22 25  1  0  0  0  0
M  END
$$$$

  -OEChem-02102214113D

 25 24  0     1  0  0  0  0  0999 V2000
   -2.4264   -3.8685   -0.3076 H   0  0  0  0  0  0  0  0  0  0  0  0
   -2.5071   -2.8279   -0.6349 C   0  0  0  0  0  0  0  0  0  0  0  0
   -3.3335   -2.3537   -0.1002 H   0  0  0  0  0  0  0  0  0  0  0  0
   -2.7182   -2.8127   -1.7069 H   0  0  0  0  0  0  0  0  0  0  0  0
   -1.2131   -2.0888   -0.3503 C   0  0  0  0  0  0  0  0  0  0  0  0
   -0.3059   -2.6587    0.2290 O   0  0  0  0  0  0  0  0  0  0  0  0
   -1.0754   -0.7742   -0.7517 N   0  0  0  0  0  0  0  0  0  0  0  0
   -1.7976   -0.4374   -1.3878 H   0  0  0  0  0  0  0  0  0  0  0  0
    0.2089   -0.0505   -0.7753 C   0  0  1  0  0  0  0  0  0  0  0  0
    0.8835   -0.6394   -1.4077 H   0  0  0  0  0  0  0  0  0  0  0  0
    0.1060    1.3643   -1.4082 C   0  0  0  0  0  0  0  0  0  0  0  0
   -0.1128    2.0753   -0.6058 H   0  0  0  0  0  0  0  0  0  0  0  0
    1.0914    1.6235   -1.8077 H   0  0  0  0  0  0  0  0  0  0  0  0
   -0.9312    1.6378   -2.5030 C   0  0  0  0  0  0  0  0  0  0  0  0
   -0.9437    2.7730   -2.9432 O   0  0  0  0  0  0  0  0  0  0  0  0
   -1.7611    0.6655   -2.9591 O   0  0  0  0  0  0  0  0  0  0  0  0
   -2.2702    1.0806   -3.6752 H   0  0  0  0  0  0  0  0  0  0  0  0
    0.9098    0.0613    0.5968 C   0  0  0  0  0  0  0  0  0  0  0  0
    2.1320    0.0976    0.6440 O   0  0  0  0  0  0  0  0  0  0  0  0
    0.1797    0.4064    1.7194 N   0  0  0  0  0  0  0  0  0  0  0  0
   -0.8238    0.2675    1.6560 H   0  0  0  0  0  0  0  0  0  0  0  0
    0.7851    0.5531    3.0371 C   0  0  0  0  0  0  0  0  0  0  0  0
    1.5655    1.3213    3.0184 H   0  0  0  0  0  0  0  0  0  0  0  0
    0.0291    0.8497    3.7701 H   0  0  0  0  0  0  0  0  0  0  0  0
    1.2313   -0.3937    3.3592 H   0  0  0  0  0  0  0  0  0  0  0  0
  1  2  1  0  0  0  0
  2  3  1  0  0  0  0
  2  4  1  0  0  0  0
  2  5  1  0  0  0  0
  5  6  2  0  0  0  0
  5  7  1  0  0  0  0
  7  8  1  0  0  0  0
  7  9  1  0  0  0  0
  9 10  1  0  0  0  0
  9 11  1  0  0  0  0
  9 18  1  0  0  0  0
 11 12  1  0  0  0  0
 11 13  1  0  0  0  0
 11 14  1  0  0  0  0
 14 15  2  0  0  0  0
 14 16  1  0  0  0  0
 16 17  1  0  0  0  0
 18 19  2  0  0  0  0
 18 20  1  0  0  0  0
 20 21  1  0  0  0  0
 20 22  1  0  0  0  0
 22 23  1  0  0  0  0
 22 24  1  0  0  0  0
 22 25  1  0  0  0  0
M  END
$$$$

  -OEChem-02102214113D

 25 24  0     1  0  0  0  0  0999 V2000
   -2.4142   -3.8748   -0.2715 H   0  0  0  0  0  0  0  0  0  0  0  0
   -2.4980   -2.8355   -0.6020 C   0  0  0  0  0  0  0  0  0  0  0  0
   -3.3012   -2.3516   -0.0414 H   0  0  0  0  0  0  0  0  0  0  0  0
   -2.7461   -2.8243   -1.6661 H   0  0  0  0  0  0  0  0  0  0  0  0
   -1.1889   -2.1059   -0.3675 C   0  0  0  0  0  0  0  0  0  0  0  0
   -0.2592   -2.6855    0.1649 O   0  0  0  0  0  0  0  0  0  0  0  0
   -1.0607   -0.7883   -0.7615 N   0  0  0  0  0  0  0  0  0  0  0  0
   -1.8214   -0.4173   -1.3307 H   0  0  0  0  0  0  0  0  0  0  0  0
    0.2129   -0.0483   -0.7852 C   0  0  1  0  0  0  0  0  0  0  0  0
    0.8934   -0.6312   -1.4168 H   0  0  0  0  0  0  0  0  0  0  0  0
    0.1072    1.3667   -1.4192 C   0  0  0  0  0  0  0  0  0  0  0  0
   -0.1221    2.0753   -0.6182 H   0  0  0  0  0  0  0  0  0  0  0  0
    1.0966    1.6304   -1.8061 H   0  0  0  0  0  0  0  0  0  0  0  0
   -0.9234    1.6448   -2.5206 C   0  0  0  0  0  0  0  0  0  0  0  0
   -0.7507    2.6724   -3.1509 O   0  0  0  0  0  0  0  0  0  0  0  0
   -1.9833    0.8245   -2.7358 O   0  0  0  0  0  0  0  0  0  0  0  0
   -2.4696    1.2293   -3.4734 H   0  0  0  0  0  0  0  0  0  0  0  0
    0.9093    0.0624    0.5890 C   0  0  0  0  0  0  0  0  0  0  0  0
    2.1307    0.1104    0.6413 O   0  0  0  0  0  0  0  0  0  0  0  0
    0.1714    0.3906    1.7116 N   0  0  0  0  0  0  0  0  0  0  0  0
   -0.8314    0.2509    1.6416 H   0  0  0  0  0  0  0  0  0  0  0  0
    0.7689    0.5400    3.0325 C   0  0  0  0  0  0  0  0  0  0  0  0
    1.5309    1.3265    3.0222 H   0  0  0  0  0  0  0  0  0  0  0  0
    0.0036    0.8125    3.7654 H   0  0  0  0  0  0  0  0  0  0  0  0
    1.2357   -0.3989    3.3485 H   0  0  0  0  0  0  0  0  0  0  0  0
  1  2  1  0  0  0  0
  2  3  1  0  0  0  0
  2  4  1  0  0  0  0
  2  5  1  0  0  0  0
  5  6  2  0  0  0  0
  5  7  1  0  0  0  0
  7  8  1  0  0  0  0
  7  9  1  0  0  0  0
  9 10  1  0  0  0  0
  9 11  1  0  0  0  0
  9 18  1  0  0  0  0
 11 12  1  0  0  0  0
 11 13  1  0  0  0  0
 11 14  1  0  0  0  0
 14 15  2  0  0  0  0
 14 16  1  0  0  0  0
 16 17  1  0  0  0  0
 18 19  2  0  0  0  0
 18 20  1  0  0  0  0
 20 21  1  0  0  0  0
 20 22  1  0  0  0  0
 22 23  1  0  0  0  0
 22 24  1  0  0  0  0
 22 25  1  0  0  0  0
M  END
$$$$

  -OEChem-02102214113D

 25 24  0     1  0  0  0  0  0999 V2000
   -2.4090   -3.8674   -0.2816 H   0  0  0  0  0  0  0  0  0  0  0  0
   -2.4972   -2.8213   -0.5889 C   0  0  0  0  0  0  0  0  0  0  0  0
   -3.2700   -2.3403    0.0152 H   0  0  0  0  0  0  0  0  0  0  0  0
   -2.7920   -2.7881   -1.6405 H   0  0  0  0  0  0  0  0  0  0  0  0
   -1.1716   -2.1085   -0.3991 C   0  0  0  0  0  0  0  0  0  0  0  0
   -0.2265   -2.7041    0.0860 O   0  0  0  0  0  0  0  0  0  0  0  0
   -1.0428   -0.7877   -0.7809 N   0  0  0  0  0  0  0  0  0  0  0  0
   -1.8363   -0.3758   -1.2721 H   0  0  0  0  0  0  0  0  0  0  0  0
    0.2252   -0.0386   -0.7931 C   0  0  1  0  0  0  0  0  0  0  0  0
    0.9138   -0.6132   -1.4240 H   0  0  0  0  0  0  0  0  0  0  0  0
    0.1098    1.3763   -1.4235 C   0  0  0  0  0  0  0  0  0  0  0  0
   -0.1347    2.0830   -0.6258 H   0  0  0  0  0  0  0  0  0  0  0  0
    1.0982    1.6533   -1.8046 H   0  0  0  0  0  0  0  0  0  0  0  0
   -0.9244    1.6233   -2.5281 C   0  0  0  0  0  0  0  0  0  0  0  0
   -0.6345    2.4742   -3.3495 O   0  0  0  0  0  0  0  0  0  0  0  0
   -2.1362    1.0106   -2.5048 O   0  0  0  0  0  0  0  0  0  0  0  0
   -2.6205    1.3806   -3.2618 H   0  0  0  0  0  0  0  0  0  0  0  0
    0.9131    0.0661    0.5858 C   0  0  0  0  0  0  0  0  0  0  0  0
    2.1338    0.1184    0.6469 O   0  0  0  0  0  0  0  0  0  0  0  0
    0.1669    0.3805    1.7071 N   0  0  0  0  0  0  0  0  0  0  0  0
   -0.8357    0.2443    1.6289 H   0  0  0  0  0  0  0  0  0  0  0  0
    0.7552    0.5201    3.0334 C   0  0  0  0  0  0  0  0  0  0  0  0
    1.5211    1.3030    3.0338 H   0  0  0  0  0  0  0  0  0  0  0  0
   -0.0141    0.7925    3.7622 H   0  0  0  0  0  0  0  0  0  0  0  0
    1.2155   -0.4225    3.3481 H   0  0  0  0  0  0  0  0  0  0  0  0
  1  2  1  0  0  0  0
  2  3  1  0  0  0  0
  2  4  1  0  0  0  0
  2  5  1  0  0  0  0
  5  6  2  0  0  0  0
  5  7  1  0  0  0  0
  7  8  1  0  0  0  0
  7  9  1  0  0  0  0
  9 10  1  0  0  0  0
  9 11  1  0  0  0  0
  9 18  1  0  0  0  0
 11 12  1  0  0  0  0
 11 13  1  0  0  0  0
 11 14  1  0  0  0  0
 14 15  2  0  0  0  0
 14 16  1  0  0  0  0
 16 17  1  0  0  0  0
 18 19  2  0  0  0  0
 18 20  1  0  0  0  0
 20 21  1  0  0  0  0
 20 22  1  0  0  0  0
 22 23  1  0  0  0  0
 22 24  1  0  0  0  0
 22 25  1  0  0  0  0
M  END
$$$$

  -OEChem-02102214113D

 25 24  0     1  0  0  0  0  0999 V2000
   -2.4202   -3.8381   -0.2877 H   0  0  0  0  0  0  0  0  0  0  0  0
   -2.5034   -2.7887   -0.5847 C   0  0  0  0  0  0  0  0  0  0  0  0
   -3.2468   -2.3006    0.0499 H   0  0  0  0  0  0  0  0  0  0  0  0
   -2.8346   -2.7435   -1.6250 H   0  0  0  0  0  0  0  0  0  0  0  0
   -1.1613   -2.0971   -0.4379 C   0  0  0  0  0  0  0  0  0  0  0  0
   -0.2059   -2.7117    0.0009 O   0  0  0  0  0  0  0  0  0  0  0  0
   -1.0289   -0.7723   -0.8041 N   0  0  0  0  0  0  0  0  0  0  0  0
   -1.8467   -0.3215   -1.2150 H   0  0  0  0  0  0  0  0  0  0  0  0
    0.2390   -0.0219   -0.7997 C   0  0  1  0  0  0  0  0  0  0  0  0
    0.9336   -0.5852   -1.4342 H   0  0  0  0  0  0  0  0  0  0  0  0
    0.1109    1.3952   -1.4167 C   0  0  0  0  0  0  0  0  0  0  0  0
   -0.1468    2.0977   -0.6194 H   0  0  0  0  0  0  0  0  0  0  0  0
    1.0933    1.6908   -1.7993 H   0  0  0  0  0  0  0  0  0  0  0  0
   -0.9335    1.5986   -2.5166 C   0  0  0  0  0  0  0  0  0  0  0  0
   -0.5828    2.2249   -3.5002 O   0  0  0  0  0  0  0  0  0  0  0  0
   -2.2158    1.1971   -2.3168 O   0  0  0  0  0  0  0  0  0  0  0  0
   -2.7028    1.5066   -3.0988 H   0  0  0  0  0  0  0  0  0  0  0  0
    0.9185    0.0691    0.5841 C   0  0  0  0  0  0  0  0  0  0  0  0
    2.1387    0.1175    0.6548 O   0  0  0  0  0  0  0  0  0  0  0  0
    0.1657    0.3713    1.7044 N   0  0  0  0  0  0  0  0  0  0  0  0
   -0.8376    0.2470    1.6170 H   0  0  0  0  0  0  0  0  0  0  0  0
    0.7455    0.4938    3.0363 C   0  0  0  0  0  0  0  0  0  0  0  0
    1.5175    1.2705    3.0492 H   0  0  0  0  0  0  0  0  0  0  0  0
   -0.0268    0.7656    3.7620 H   0  0  0  0  0  0  0  0  0  0  0  0
    1.1958   -0.4554    3.3456 H   0  0  0  0  0  0  0  0  0  0  0  0
  1  2  1  0  0  0  0
  2  3  1  0  0  0  0
  2  4  1  0  0  0  0
  2  5  1  0  0  0  0
  5  6  2  0  0  0  0
  5  7  1  0  0  0  0
  7  8  1  0  0  0  0
  7  9  1  0  0  0  0
  9 10  1  0  0  0  0
  9 11  1  0  0  0  0
  9 18  1  0  0  0  0
 11 12  1  0  0  0  0
 11 13  1  0  0  0  0
 11 14  1  0  0  0  0
 14 15  2  0  0  0  0
 14 16  1  0  0  0  0
 16 17  1  0  0  0  0
 18 19  2  0  0  0  0
 18 20  1  0  0  0  0
 20 21  1  0  0  0  0
 20 22  1  0  0  0  0
 22 23  1  0  0  0  0
 22 24  1  0  0  0  0
 22 25  1  0  0  0  0
M  END
$$$$

  -OEChem-02102214113D

 25 24  0     1  0  0  0  0  0999 V2000
   -2.4443   -3.7997   -0.3028 H   0  0  0  0  0  0  0  0  0  0  0  0
   -2.5181   -2.7485   -0.5958 C   0  0  0  0  0  0  0  0  0  0  0  0
   -3.2427   -2.2523    0.0540 H   0  0  0  0  0  0  0  0  0  0  0  0
   -2.8682   -2.6959   -1.6295 H   0  0  0  0  0  0  0  0  0  0  0  0
   -1.1637   -2.0768   -0.4726 C   0  0  0  0  0  0  0  0  0  0  0  0
   -0.2064   -2.7091   -0.0641 O   0  0  0  0  0  0  0  0  0  0  0  0
   -1.0222   -0.7487   -0.8229 N   0  0  0  0  0  0  0  0  0  0  0  0
   -1.8506   -0.2694   -1.1754 H   0  0  0  0  0  0  0  0  0  0  0  0
    0.2505   -0.0051   -0.8013 C   0  0  1  0  0  0  0  0  0  0  0  0
    0.9468   -0.5608   -1.4411 H   0  0  0  0  0  0  0  0  0  0  0  0
    0.1131    1.4149   -1.4025 C   0  0  0  0  0  0  0  0  0  0  0  0
   -0.1533    2.1123   -0.6037 H   0  0  0  0  0  0  0  0  0  0  0  0
    1.0887    1.7267   -1.7893 H   0  0  0  0  0  0  0  0  0  0  0  0
   -0.9408    1.5795   -2.4953 C   0  0  0  0  0  0  0  0  0  0  0  0
   -0.5673    1.9488   -3.5936 O   0  0  0  0  0  0  0  0  0  0  0  0
   -2.2474    1.3812   -2.1825 O   0  0  0  0  0  0  0  0  0  0  0  0
   -2.7408    1.6165   -2.9859 H   0  0  0  0  0  0  0  0  0  0  0  0
    0.9253    0.0697    0.5855 C   0  0  0  0  0  0  0  0  0  0  0  0
    2.1454    0.1106    0.6616 O   0  0  0  0  0  0  0  0  0  0  0  0
    0.1703    0.3650    1.7062 N   0  0  0  0  0  0  0  0  0  0  0  0
   -0.8341    0.2552    1.6140 H   0  0  0  0  0  0  0  0  0  0  0  0
    0.7465    0.4767    3.0405 C   0  0  0  0  0  0  0  0  0  0  0  0
    1.5157    1.2560    3.0628 H   0  0  0  0  0  0  0  0  0  0  0  0
   -0.0284    0.7384    3.7673 H   0  0  0  0  0  0  0  0  0  0  0  0
    1.1994   -0.4740    3.3412 H   0  0  0  0  0  0  0  0  0  0  0  0
  1  2  1  0  0  0  0
  2  3  1  0  0  0  0
  2  4  1  0  0  0  0
  2  5  1  0  0  0  0
  5  6  2  0  0  0  0
  5  7  1  0  0  0  0
  7  8  1  0  0  0  0
  7  9  1  0  0  0  0
  9 10  1  0  0  0  0
  9 11  1  0  0  0  0
  9 18  1  0  0  0  0
 11 12  1  0  0  0  0
 11 13  1  0  0  0  0
 11 14  1  0  0  0  0
 14 15  2  0  0  0  0
 14 16  1  0  0  0  0
 16 17  1  0  0  0  0
 18 19  2  0  0  0  0
 18 20  1  0  0  0  0
 20 21  1  0  0  0  0
 20 22  1  0  0  0  0
 22 23  1  0  0  0  0
 22 24  1  0  0  0  0
 22 25  1  0  0  0  0
M  END
$$$$

  -OEChem-02102214113D

 25 24  0     1  0  0  0  0  0999 V2000
   -2.4679   -3.7634   -0.3247 H   0  0  0  0  0  0  0  0  0  0  0  0
   -2.5337   -2.7098   -0.6109 C   0  0  0  0  0  0  0  0  0  0  0  0
   -3.2470   -2.2098    0.0483 H   0  0  0  0  0  0  0  0  0  0  0  0
   -2.8925   -2.6478   -1.6411 H   0  0  0  0  0  0  0  0  0  0  0  0
   -1.1713   -2.0524   -0.4970 C   0  0  0  0  0  0  0  0  0  0  0  0
   -0.2157   -2.6977   -0.1050 O   0  0  0  0  0  0  0  0  0  0  0  0
   -1.0208   -0.7218   -0.8350 N   0  0  0  0  0  0  0  0  0  0  0  0
   -1.8528   -0.2245   -1.1504 H   0  0  0  0  0  0  0  0  0  0  0  0
    0.2587    0.0121   -0.8011 C   0  0  1  0  0  0  0  0  0  0  0  0
    0.9534   -0.5393   -1.4460 H   0  0  0  0  0  0  0  0  0  0  0  0
    0.1192    1.4345   -1.3900 C   0  0  0  0  0  0  0  0  0  0  0  0
   -0.1484    2.1304   -0.5902 H   0  0  0  0  0  0  0  0  0  0  0  0
    1.0894    1.7539   -1.7837 H   0  0  0  0  0  0  0  0  0  0  0  0
   -0.9407    1.5720   -2.4768 C   0  0  0  0  0  0  0  0  0  0  0  0
   -0.5734    1.6655   -3.6338 O   0  0  0  0  0  0  0  0  0  0  0  0
   -2.2457    1.5749   -2.1048 O   0  0  0  0  0  0  0  0  0  0  0  0
   -2.7466    1.7260   -2.9234 H   0  0  0  0  0  0  0  0  0  0  0  0
    0.9307    0.0708    0.5874 C   0  0  0  0  0  0  0  0  0  0  0  0
    2.1509    0.1010    0.6669 O   0  0  0  0  0  0  0  0  0  0  0  0
    0.1755    0.3627    1.7088 N   0  0  0  0  0  0  0  0  0  0  0  0
   -0.8302    0.2678    1.6134 H   0  0  0  0  0  0  0  0  0  0  0  0
    0.7504    0.4639    3.0446 C   0  0  0  0  0  0  0  0  0  0  0  0
    1.5205    1.2423    3.0734 H   0  0  0  0  0  0  0  0  0  0  0  0
   -0.0249    0.7209    3.7725 H   0  0  0  0  0  0  0  0  0  0  0  0
    1.2019   -0.4894    3.3391 H   0  0  0  0  0  0  0  0  0  0  0  0
  1  2  1  0  0  0  0
  2  3  1  0  0  0  0
  2  4  1  0  0  0  0
  2  5  1  0  0  0  0
  5  6  2  0  0  0  0
  5  7  1  0  0  0  0
  7  8  1  0  0  0  0
  7  9  1  0  0  0  0
  9 10  1  0  0  0  0
  9 11  1  0  0  0  0
  9 18  1  0  0  0  0
 11 12  1  0  0  0  0
 11 13  1  0  0  0  0
 11 14  1  0  0  0  0
 14 15  2  0  0  0  0
 14 16  1  0  0  0  0
 16 17  1  0  0  0  0
 18 19  2  0  0  0  0
 18 20  1  0  0  0  0
 20 21  1  0  0  0  0
 20 22  1  0  0  0  0
 22 23  1  0  0  0  0
 22 24  1  0  0  0  0
 22 25  1  0  0  0  0
M  END
$$$$

  -OEChem-02102214113D

 25 24  0     1  0  0  0  0  0999 V2000
   -2.4807   -3.7378   -0.3391 H   0  0  0  0  0  0  0  0  0  0  0  0
   -2.5418   -2.6826   -0.6208 C   0  0  0  0  0  0  0  0  0  0  0  0
   -3.2502   -2.1815    0.0431 H   0  0  0  0  0  0  0  0  0  0  0  0
   -2.9038   -2.6141   -1.6495 H   0  0  0  0  0  0  0  0  0  0  0  0
   -1.1753   -2.0337   -0.5088 C   0  0  0  0  0  0  0  0  0  0  0  0
   -0.2237   -2.6835   -0.1150 O   0  0  0  0  0  0  0  0  0  0  0  0
   -1.0198   -0.7025   -0.8416 N   0  0  0  0  0  0  0  0  0  0  0  0
   -1.8499   -0.2029   -1.1546 H   0  0  0  0  0  0  0  0  0  0  0  0
    0.2640    0.0250   -0.8014 C   0  0  1  0  0  0  0  0  0  0  0  0
    0.9575   -0.5259   -1.4485 H   0  0  0  0  0  0  0  0  0  0  0  0
    0.1258    1.4476   -1.3857 C   0  0  0  0  0  0  0  0  0  0  0  0
   -0.1410    2.1438   -0.5854 H   0  0  0  0  0  0  0  0  0  0  0  0
    1.0930    1.7692   -1.7842 H   0  0  0  0  0  0  0  0  0  0  0  0
   -0.9353    1.5713   -2.4703 C   0  0  0  0  0  0  0  0  0  0  0  0
   -0.6082    1.3856   -3.6283 O   0  0  0  0  0  0  0  0  0  0  0  0
   -2.2117    1.8111   -2.0830 O   0  0  0  0  0  0  0  0  0  0  0  0
   -2.7224    1.8937   -2.9049 H   0  0  0  0  0  0  0  0  0  0  0  0
    0.9345    0.0757    0.5880 C   0  0  0  0  0  0  0  0  0  0  0  0
    2.1546    0.1046    0.6690 O   0  0  0  0  0  0  0  0  0  0  0  0
    0.1785    0.3674    1.7090 N   0  0  0  0  0  0  0  0  0  0  0  0
   -0.8268    0.2712    1.6120 H   0  0  0  0  0  0  0  0  0  0  0  0
    0.7506    0.4525    3.0470 C   0  0  0  0  0  0  0  0  0  0  0  0
    1.5340    1.2167    3.0820 H   0  0  0  0  0  0  0  0  0  0  0  0
   -0.0227    0.7200    3.7732 H   0  0  0  0  0  0  0  0  0  0  0  0
    1.1847   -0.5098    3.3386 H   0  0  0  0  0  0  0  0  0  0  0  0
  1  2  1  0  0  0  0
  2  3  1  0  0  0  0
  2  4  1  0  0  0  0
  2  5  1  0  0  0  0
  5  6  2  0  0  0  0
  5  7  1  0  0  0  0
  7  8  1  0  0  0  0
  7  9  1  0  0  0  0
  9 10  1  0  0  0  0
  9 11  1  0  0  0  0
  9 18  1  0  0  0  0
 11 12  1  0  0  0  0
 11 13  1  0  0  0  0
 11 14  1  0  0  0  0
 14 15  2  0  0  0  0
 14 16  1  0  0  0  0
 16 17  1  0  0  0  0
 18 19  2  0  0  0  0
 18 20  1  0  0  0  0
 20 21  1  0  0  0  0
 20 22  1  0  0  0  0
 22 23  1  0  0  0  0
 22 24  1  0  0  0  0
 22 25  1  0  0  0  0
M  END
$$$$

  -OEChem-02102214113D

 25 24  0     1  0  0  0  0  0999 V2000
   -2.4807   -3.7469   -0.3746 H   0  0  0  0  0  0  0  0  0  0  0  0
   -2.5447   -2.6900   -0.6486 C   0  0  0  0  0  0  0  0  0  0  0  0
   -3.2802   -2.2032   -0.0041 H   0  0  0  0  0  0  0  0  0  0  0  0
   -2.8734   -2.6164   -1.6880 H   0  0  0  0  0  0  0  0  0  0  0  0
   -1.1905   -2.0264   -0.4852 C   0  0  0  0  0  0  0  0  0  0  0  0
   -0.2511   -2.6640   -0.0448 O   0  0  0  0  0  0  0  0  0  0  0  0
   -1.0344   -0.6969   -0.8260 N   0  0  0  0  0  0  0  0  0  0  0  0
   -1.8458   -0.2266   -1.2185 H   0  0  0  0  0  0  0  0  0  0  0  0
    0.2542    0.0244   -0.7945 C   0  0  1  0  0  0  0  0  0  0  0  0
    0.9408   -0.5347   -1.4421 H   0  0  0  0  0  0  0  0  0  0  0  0
    0.1274    1.4464   -1.3840 C   0  0  0  0  0  0  0  0  0  0  0  0
   -0.1276    2.1473   -0.5839 H   0  0  0  0  0  0  0  0  0  0  0  0
    1.0947    1.7580   -1.7891 H   0  0  0  0  0  0  0  0  0  0  0  0
   -0.9349    1.5782   -2.4660 C   0  0  0  0  0  0  0  0  0  0  0  0
   -0.6995    1.1255   -3.5719 O   0  0  0  0  0  0  0  0  0  0  0  0
   -2.1245    2.1238   -2.1198 O   0  0  0  0  0  0  0  0  0  0  0  0
   -2.6496    2.1573   -2.9354 H   0  0  0  0  0  0  0  0  0  0  0  0
    0.9326    0.0790    0.5914 C   0  0  0  0  0  0  0  0  0  0  0  0
    2.1535    0.1017    0.6648 O   0  0  0  0  0  0  0  0  0  0  0  0
    0.1855    0.3803    1.7160 N   0  0  0  0  0  0  0  0  0  0  0  0
   -0.8204    0.2837    1.6257 H   0  0  0  0  0  0  0  0  0  0  0  0
    0.7660    0.4597    3.0509 C   0  0  0  0  0  0  0  0  0  0  0  0
    1.5539    1.2197    3.0828 H   0  0  0  0  0  0  0  0  0  0  0  0
   -0.0011    0.7299    3.7830 H   0  0  0  0  0  0  0  0  0  0  0  0
    1.1963   -0.5057    3.3376 H   0  0  0  0  0  0  0  0  0  0  0  0
  1  2  1  0  0  0  0
  2  3  1  0  0  0  0
  2  4  1  0  0  0  0
  2  5  1  0  0  0  0
  5  6  2  0  0  0  0
  5  7  1  0  0  0  0
  7  8  1  0  0  0  0
  7  9  1  0  0  0  0
  9 10  1  0  0  0  0
  9 11  1  0  0  0  0
  9 18  1  0  0  0  0
 11 12  1  0  0  0  0
 11 13  1  0  0  0  0
 11 14  1  0  0  0  0
 14 15  2  0  0  0  0
 14 16  1  0  0  0  0
 16 17  1  0  0  0  0
 18 19  2  0  0  0  0
 18 20  1  0  0  0  0
 20 21  1  0  0  0  0
 20 22  1  0  0  0  0
 22 23  1  0  0  0  0
 22 24  1  0  0  0  0
 22 25  1  0  0  0  0
M  END
$$$$

  -OEChem-02102214113D

 25 24  0     1  0  0  0  0  0999 V2000
   -2.4833   -3.7724   -0.3952 H   0  0  0  0  0  0  0  0  0  0  0  0
   -2.5430   -2.7245   -0.7029 C   0  0  0  0  0  0  0  0  0  0  0  0
   -3.3466   -2.2389   -0.1444 H   0  0  0  0  0  0  0  0  0  0  0  0
   -2.7732   -2.6850   -1.7703 H   0  0  0  0  0  0  0  0  0  0  0  0
   -1.2246   -2.0253   -0.4298 C   0  0  0  0  0  0  0  0  0  0  0  0
   -0.3196   -2.6314    0.1150 O   0  0  0  0  0  0  0  0  0  0  0  0
   -1.0655   -0.7018   -0.7939 N   0  0  0  0  0  0  0  0  0  0  0  0
   -1.8099   -0.3138   -1.3667 H   0  0  0  0  0  0  0  0  0  0  0  0
    0.2351    0.0003   -0.7855 C   0  0  1  0  0  0  0  0  0  0  0  0
    0.9068   -0.5718   -1.4370 H   0  0  0  0  0  0  0  0  0  0  0  0
    0.1234    1.4274   -1.3715 C   0  0  0  0  0  0  0  0  0  0  0  0
   -0.1020    2.1287   -0.5626 H   0  0  0  0  0  0  0  0  0  0  0  0
    1.0898    1.7211   -1.7913 H   0  0  0  0  0  0  0  0  0  0  0  0
   -0.9516    1.5987   -2.4358 C   0  0  0  0  0  0  0  0  0  0  0  0
   -0.8830    0.9275   -3.4505 O   0  0  0  0  0  0  0  0  0  0  0  0
   -1.9603    2.4633   -2.1789 O   0  0  0  0  0  0  0  0  0  0  0  0
   -2.5190    2.4731   -2.9719 H   0  0  0  0  0  0  0  0  0  0  0  0
    0.9294    0.0640    0.5926 C   0  0  0  0  0  0  0  0  0  0  0  0
    2.1515    0.0803    0.6503 O   0  0  0  0  0  0  0  0  0  0  0  0
    0.1969    0.3924    1.7187 N   0  0  0  0  0  0  0  0  0  0  0  0
   -0.8094    0.2846    1.6430 H   0  0  0  0  0  0  0  0  0  0  0  0
    0.7940    0.5011    3.0439 C   0  0  0  0  0  0  0  0  0  0  0  0
    1.5798    1.2640    3.0495 H   0  0  0  0  0  0  0  0  0  0  0  0
    0.0351    0.7845    3.7793 H   0  0  0  0  0  0  0  0  0  0  0  0
    1.2305   -0.4568    3.3457 H   0  0  0  0  0  0  0  0  0  0  0  0
  1  2  1  0  0  0  0
  2  3  1  0  0  0  0
  2  4  1  0  0  0  0
  2  5  1  0  0  0  0
  5  6  2  0  0  0  0
  5  7  1  0  0  0  0
  7  8  1  0  0  0  0
  7  9  1  0  0  0  0
  9 10  1  0  0  0  0
  9 11  1  0  0  0  0
  9 18  1  0  0  0  0
 11 12  1  0  0  0  0
 11 13  1  0  0  0  0
 11 14  1  0  0  0  0
 14 15  2  0  0  0  0
 14 16  1  0  0  0  0
 16 17  1  0  0  0  0
 18 19  2  0  0  0  0
 18 20  1  0  0  0  0
 20 21  1  0  0  0  0
 20 22  1  0  0  0  0
 22 23  1  0  0  0  0
 22 24  1  0  0  0  0
 22 25  1  0  0  0  0
M  END
$$$$

  -OEChem-02102214113D

 25 24  0     1  0  0  0  0  0999 V2000
   -2.4784   -3.7934   -0.4154 H   0  0  0  0  0  0  0  0  0  0  0  0
   -2.5370   -2.7489   -0.7350 C   0  0  0  0  0  0  0  0  0  0  0  0
   -3.3781   -2.2714   -0.2268 H   0  0  0  0  0  0  0  0  0  0  0  0
   -2.7073   -2.7217   -1.8140 H   0  0  0  0  0  0  0  0  0  0  0  0
   -1.2476   -2.0257   -0.3945 C   0  0  0  0  0  0  0  0  0  0  0  0
   -0.3688   -2.6098    0.2139 O   0  0  0  0  0  0  0  0  0  0  0  0
   -1.0872   -0.7068   -0.7741 N   0  0  0  0  0  0  0  0  0  0  0  0
   -1.7820   -0.3734   -1.4381 H   0  0  0  0  0  0  0  0  0  0  0  0
    0.2190   -0.0155   -0.7775 C   0  0  1  0  0  0  0  0  0  0  0  0
    0.8834   -0.5955   -1.4292 H   0  0  0  0  0  0  0  0  0  0  0  0
    0.1121    1.4127   -1.3680 C   0  0  0  0  0  0  0  0  0  0  0  0
   -0.1030    2.1131   -0.5555 H   0  0  0  0  0  0  0  0  0  0  0  0
    1.0794    1.6990   -1.7906 H   0  0  0  0  0  0  0  0  0  0  0  0
   -0.9652    1.6154   -2.4279 C   0  0  0  0  0  0  0  0  0  0  0  0
   -1.0922    0.7856   -3.3131 O   0  0  0  0  0  0  0  0  0  0  0  0
   -1.7443    2.7165   -2.3207 O   0  0  0  0  0  0  0  0  0  0  0  0
   -2.3391    2.7069   -3.0865 H   0  0  0  0  0  0  0  0  0  0  0  0
    0.9235    0.0584    0.5955 C   0  0  0  0  0  0  0  0  0  0  0  0
    2.1463    0.0714    0.6413 O   0  0  0  0  0  0  0  0  0  0  0  0
    0.2024    0.4049    1.7236 N   0  0  0  0  0  0  0  0  0  0  0  0
   -0.8036    0.2852    1.6609 H   0  0  0  0  0  0  0  0  0  0  0  0
    0.8129    0.5275    3.0415 C   0  0  0  0  0  0  0  0  0  0  0  0
    1.6035    1.2853    3.0289 H   0  0  0  0  0  0  0  0  0  0  0  0
    0.0631    0.8260    3.7802 H   0  0  0  0  0  0  0  0  0  0  0  0
    1.2468   -0.4288    3.3522 H   0  0  0  0  0  0  0  0  0  0  0  0
  1  2  1  0  0  0  0
  2  3  1  0  0  0  0
  2  4  1  0  0  0  0
  2  5  1  0  0  0  0
  5  6  2  0  0  0  0
  5  7  1  0  0  0  0
  7  8  1  0  0  0  0
  7  9  1  0  0  0  0
  9 10  1  0  0  0  0
  9 11  1  0  0  0  0
  9 18  1  0  0  0  0
 11 12  1  0  0  0  0
 11 13  1  0  0  0  0
 11 14  1  0  0  0  0
 14 15  2  0  0  0  0
 14 16  1  0  0  0  0
 16 17  1  0  0  0  0
 18 19  2  0  0  0  0
 18 20  1  0  0  0  0
 20 21  1  0  0  0  0
 20 22  1  0  0  0  0
 22 23  1  0  0  0  0
 22 24  1  0  0  0  0
 22 25  1  0  0  0  0
M  END
$$$$

  -OEChem-02102214113D

 25 24  0     1  0  0  0  0  0999 V2000
   -2.4552   -3.8202   -0.4087 H   0  0  0  0  0  0  0  0  0  0  0  0
   -2.5265   -2.7752   -0.7234 C   0  0  0  0  0  0  0  0  0  0  0  0
   -3.3756   -2.3114   -0.2157 H   0  0  0  0  0  0  0  0  0  0  0  0
   -2.6937   -2.7451   -1.8030 H   0  0  0  0  0  0  0  0  0  0  0  0
   -1.2478   -2.0367   -0.3759 C   0  0  0  0  0  0  0  0  0  0  0  0
   -0.3703   -2.6078    0.2469 O   0  0  0  0  0  0  0  0  0  0  0  0
   -1.0954   -0.7194   -0.7644 N   0  0  0  0  0  0  0  0  0  0  0  0
   -1.7809   -0.4032   -1.4484 H   0  0  0  0  0  0  0  0  0  0  0  0
    0.2067   -0.0223   -0.7787 C   0  0  1  0  0  0  0  0  0  0  0  0
    0.8698   -0.6062   -1.4279 H   0  0  0  0  0  0  0  0  0  0  0  0
    0.1013    1.4045   -1.3789 C   0  0  0  0  0  0  0  0  0  0  0  0
   -0.1089    2.1055   -0.5655 H   0  0  0  0  0  0  0  0  0  0  0  0
    1.0729    1.6827   -1.7966 H   0  0  0  0  0  0  0  0  0  0  0  0
   -0.9672    1.6437   -2.4443 C   0  0  0  0  0  0  0  0  0  0  0  0
   -1.3124    0.7324   -3.1803 O   0  0  0  0  0  0  0  0  0  0  0  0
   -1.4835    2.8923   -2.5157 O   0  0  0  0  0  0  0  0  0  0  0  0
   -2.1116    2.8885   -3.2542 H   0  0  0  0  0  0  0  0  0  0  0  0
    0.9151    0.0617    0.5916 C   0  0  0  0  0  0  0  0  0  0  0  0
    2.1380    0.0799    0.6334 O   0  0  0  0  0  0  0  0  0  0  0  0
    0.1955    0.4109    1.7197 N   0  0  0  0  0  0  0  0  0  0  0  0
   -0.8093    0.2801    1.6600 H   0  0  0  0  0  0  0  0  0  0  0  0
    0.8077    0.5344    3.0366 C   0  0  0  0  0  0  0  0  0  0  0  0
    1.6007    1.2896    3.0220 H   0  0  0  0  0  0  0  0  0  0  0  0
    0.0593    0.8366    3.7753 H   0  0  0  0  0  0  0  0  0  0  0  0
    1.2386   -0.4229    3.3482 H   0  0  0  0  0  0  0  0  0  0  0  0
  1  2  1  0  0  0  0
  2  3  1  0  0  0  0
  2  4  1  0  0  0  0
  2  5  1  0  0  0  0
  5  6  2  0  0  0  0
  5  7  1  0  0  0  0
  7  8  1  0  0  0  0
  7  9  1  0  0  0  0
  9 10  1  0  0  0  0
  9 11  1  0  0  0  0
  9 18  1  0  0  0  0
 11 12  1  0  0  0  0
 11 13  1  0  0  0  0
 11 14  1  0  0  0  0
 14 15  2  0  0  0  0
 14 16  1  0  0  0  0
 16 17  1  0  0  0  0
 18 19  2  0  0  0  0
 18 20  1  0  0  0  0
 20 21  1  0  0  0  0
 20 22  1  0  0  0  0
 22 23  1  0  0  0  0
 22 24  1  0  0  0  0
 22 25  1  0  0  0  0
M  END
$$$$

  -OEChem-02102214113D

 25 24  0     1  0  0  0  0  0999 V2000
   -2.4459   -3.8394   -0.3782 H   0  0  0  0  0  0  0  0  0  0  0  0
   -2.5209   -2.7967   -0.6994 C   0  0  0  0  0  0  0  0  0  0  0  0
   -3.3652   -2.3300   -0.1866 H   0  0  0  0  0  0  0  0  0  0  0  0
   -2.6994   -2.7732   -1.7772 H   0  0  0  0  0  0  0  0  0  0  0  0
   -1.2392   -2.0547   -0.3704 C   0  0  0  0  0  0  0  0  0  0  0  0
   -0.3477   -2.6245    0.2335 O   0  0  0  0  0  0  0  0  0  0  0  0
   -1.0970   -0.7369   -0.7597 N   0  0  0  0  0  0  0  0  0  0  0  0
   -1.7995   -0.4123   -1.4238 H   0  0  0  0  0  0  0  0  0  0  0  0
    0.1960   -0.0255   -0.7816 C   0  0  1  0  0  0  0  0  0  0  0  0
    0.8612   -0.6101   -1.4278 H   0  0  0  0  0  0  0  0  0  0  0  0
    0.0920    1.3988   -1.3935 C   0  0  0  0  0  0  0  0  0  0  0  0
   -0.1194    2.1014   -0.5821 H   0  0  0  0  0  0  0  0  0  0  0  0
    1.0700    1.6698   -1.8016 H   0  0  0  0  0  0  0  0  0  0  0  0
   -0.9613    1.6698   -2.4704 C   0  0  0  0  0  0  0  0  0  0  0  0
   -1.5256    0.7515   -3.0452 O   0  0  0  0  0  0  0  0  0  0  0  0
   -1.2126    2.9726   -2.7339 O   0  0  0  0  0  0  0  0  0  0  0  0
   -1.8719    2.9873   -3.4446 H   0  0  0  0  0  0  0  0  0  0  0  0
    0.9074    0.0663    0.5866 C   0  0  0  0  0  0  0  0  0  0  0  0
    2.1300    0.1009    0.6251 O   0  0  0  0  0  0  0  0  0  0  0  0
    0.1864    0.4075    1.7161 N   0  0  0  0  0  0  0  0  0  0  0  0
   -0.8171    0.2659    1.6579 H   0  0  0  0  0  0  0  0  0  0  0  0
    0.7991    0.5376    3.0322 C   0  0  0  0  0  0  0  0  0  0  0  0
    1.5817    1.3035    3.0179 H   0  0  0  0  0  0  0  0  0  0  0  0
    0.0474    0.8286    3.7721 H   0  0  0  0  0  0  0  0  0  0  0  0
    1.2432   -0.4141    3.3427 H   0  0  0  0  0  0  0  0  0  0  0  0
  1  2  1  0  0  0  0
  2  3  1  0  0  0  0
  2  4  1  0  0  0  0
  2  5  1  0  0  0  0
  5  6  2  0  0  0  0
  5  7  1  0  0  0  0
  7  8  1  0  0  0  0
  7  9  1  0  0  0  0
  9 10  1  0  0  0  0
  9 11  1  0  0  0  0
  9 18  1  0  0  0  0
 11 12  1  0  0  0  0
 11 13  1  0  0  0  0
 11 14  1  0  0  0  0
 14 15  2  0  0  0  0
 14 16  1  0  0  0  0
 16 17  1  0  0  0  0
 18 19  2  0  0  0  0
 18 20  1  0  0  0  0
 20 21  1  0  0  0  0
 20 22  1  0  0  0  0
 22 23  1  0  0  0  0
 22 24  1  0  0  0  0
 22 25  1  0  0  0  0
M  END
$$$$

  -OEChem-02102214113D

 25 24  0     1  0  0  0  0  0999 V2000
   -2.4410   -3.8517   -0.3451 H   0  0  0  0  0  0  0  0  0  0  0  0
   -2.5201   -2.8098   -0.6686 C   0  0  0  0  0  0  0  0  0  0  0  0
   -3.3488   -2.3369   -0.1365 H   0  0  0  0  0  0  0  0  0  0  0  0
   -2.7263   -2.7897   -1.7415 H   0  0  0  0  0  0  0  0  0  0  0  0
   -1.2272   -2.0723   -0.3754 C   0  0  0  0  0  0  0  0  0  0  0  0
   -0.3196   -2.6449    0.2013 O   0  0  0  0  0  0  0  0  0  0  0  0
   -1.0922   -0.7539   -0.7638 N   0  0  0  0  0  0  0  0  0  0  0  0
   -1.8185   -0.4121   -1.3936 H   0  0  0  0  0  0  0  0  0  0  0  0
    0.1922   -0.0288   -0.7890 C   0  0  1  0  0  0  0  0  0  0  0  0
    0.8619   -0.6121   -1.4319 H   0  0  0  0  0  0  0  0  0  0  0  0
    0.0892    1.3947   -1.4066 C   0  0  0  0  0  0  0  0  0  0  0  0
   -0.1229    2.0990   -0.5972 H   0  0  0  0  0  0  0  0  0  0  0  0
    1.0724    1.6597   -1.8065 H   0  0  0  0  0  0  0  0  0  0  0  0
   -0.9515    1.6885   -2.4924 C   0  0  0  0  0  0  0  0  0  0  0  0
   -1.7177    0.8280   -2.8983 O   0  0  0  0  0  0  0  0  0  0  0  0
   -0.9599    2.9599   -2.9540 O   0  0  0  0  0  0  0  0  0  0  0  0
   -1.6483    3.0011   -3.6353 H   0  0  0  0  0  0  0  0  0  0  0  0
    0.9015    0.0685    0.5795 C   0  0  0  0  0  0  0  0  0  0  0  0
    2.1238    0.1152    0.6190 O   0  0  0  0  0  0  0  0  0  0  0  0
    0.1758    0.4010    1.7087 N   0  0  0  0  0  0  0  0  0  0  0  0
   -0.8269    0.2543    1.6492 H   0  0  0  0  0  0  0  0  0  0  0  0
    0.7868    0.5395    3.0245 C   0  0  0  0  0  0  0  0  0  0  0  0
    1.5562    1.3186    3.0106 H   0  0  0  0  0  0  0  0  0  0  0  0
    0.0310    0.8168    3.7654 H   0  0  0  0  0  0  0  0  0  0  0  0
    1.2477   -0.4048    3.3329 H   0  0  0  0  0  0  0  0  0  0  0  0
  1  2  1  0  0  0  0
  2  3  1  0  0  0  0
  2  4  1  0  0  0  0
  2  5  1  0  0  0  0
  5  6  2  0  0  0  0
  5  7  1  0  0  0  0
  7  8  1  0  0  0  0
  7  9  1  0  0  0  0
  9 10  1  0  0  0  0
  9 11  1  0  0  0  0
  9 18  1  0  0  0  0
 11 12  1  0  0  0  0
 11 13  1  0  0  0  0
 11 14  1  0  0  0  0
 14 15  2  0  0  0  0
 14 16  1  0  0  0  0
 16 17  1  0  0  0  0
 18 19  2  0  0  0  0
 18 20  1  0  0  0  0
 20 21  1  0  0  0  0
 20 22  1  0  0  0  0
 22 23  1  0  0  0  0
 22 24  1  0  0  0  0
 22 25  1  0  0  0  0
M  END
$$$$

  -OEChem-02102214113D

 25 24  0     1  0  0  0  0  0999 V2000
   -2.4374   -3.8534   -0.3323 H   0  0  0  0  0  0  0  0  0  0  0  0
   -2.5217   -2.8083   -0.6432 C   0  0  0  0  0  0  0  0  0  0  0  0
   -3.3299   -2.3362   -0.0797 H   0  0  0  0  0  0  0  0  0  0  0  0
   -2.7627   -2.7769   -1.7086 H   0  0  0  0  0  0  0  0  0  0  0  0
   -1.2161   -2.0800   -0.3860 C   0  0  0  0  0  0  0  0  0  0  0  0
   -0.2924   -2.6617    0.1551 O   0  0  0  0  0  0  0  0  0  0  0  0
   -1.0852   -0.7599   -0.7693 N   0  0  0  0  0  0  0  0  0  0  0  0
   -1.8393   -0.3920   -1.3503 H   0  0  0  0  0  0  0  0  0  0  0  0
    0.1921   -0.0240   -0.7939 C   0  0  1  0  0  0  0  0  0  0  0  0
    0.8657   -0.6053   -1.4342 H   0  0  0  0  0  0  0  0  0  0  0  0
    0.0903    1.3980   -1.4171 C   0  0  0  0  0  0  0  0  0  0  0  0
   -0.1244    2.1065   -0.6120 H   0  0  0  0  0  0  0  0  0  0  0  0
    1.0771    1.6584   -1.8114 H   0  0  0  0  0  0  0  0  0  0  0  0
   -0.9425    1.6934   -2.5112 C   0  0  0  0  0  0  0  0  0  0  0  0
   -1.8761    0.9388   -2.7382 O   0  0  0  0  0  0  0  0  0  0  0  0
   -0.7491    2.8486   -3.1876 O   0  0  0  0  0  0  0  0  0  0  0  0
   -1.4614    2.9063   -3.8425 H   0  0  0  0  0  0  0  0  0  0  0  0
    0.8988    0.0735    0.5758 C   0  0  0  0  0  0  0  0  0  0  0  0
    2.1207    0.1241    0.6180 O   0  0  0  0  0  0  0  0  0  0  0  0
    0.1699    0.3955    1.7059 N   0  0  0  0  0  0  0  0  0  0  0  0
   -0.8328    0.2496    1.6435 H   0  0  0  0  0  0  0  0  0  0  0  0
    0.7784    0.5301    3.0235 C   0  0  0  0  0  0  0  0  0  0  0  0
    1.5470    1.3103    3.0132 H   0  0  0  0  0  0  0  0  0  0  0  0
    0.0210    0.8038    3.7642 H   0  0  0  0  0  0  0  0  0  0  0  0
    1.2396   -0.4151    3.3292 H   0  0  0  0  0  0  0  0  0  0  0  0
  1  2  1  0  0  0  0
  2  3  1  0  0  0  0
  2  4  1  0  0  0  0
  2  5  1  0  0  0  0
  5  6  2  0  0  0  0
  5  7  1  0  0  0  0
  7  8  1  0  0  0  0
  7  9  1  0  0  0  0
  9 10  1  0  0  0  0
  9 11  1  0  0  0  0
  9 18  1  0  0  0  0
 11 12  1  0  0  0  0
 11 13  1  0  0  0  0
 11 14  1  0  0  0  0
 14 15  2  0  0  0  0
 14 16  1  0  0  0  0
 16 17  1  0  0  0  0
 18 19  2  0  0  0  0
 18 20  1  0  0  0  0
 20 21  1  0  0  0  0
 20 22  1  0  0  0  0
 22 23  1  0  0  0  0
 22 24  1  0  0  0  0
 22 25  1  0  0  0  0
M  END
$$$$

  -OEChem-02102214113D

 25 24  0     1  0  0  0  0  0999 V2000
   -2.4454   -3.8383   -0.3138 H   0  0  0  0  0  0  0  0  0  0  0  0
   -2.5267   -2.7918   -0.6208 C   0  0  0  0  0  0  0  0  0  0  0  0
   -3.3081   -2.3100   -0.0286 H   0  0  0  0  0  0  0  0  0  0  0  0
   -2.8052   -2.7559   -1.6769 H   0  0  0  0  0  0  0  0  0  0  0  0
   -1.2033   -2.0814   -0.4088 C   0  0  0  0  0  0  0  0  0  0  0  0
   -0.2665   -2.6778    0.0921 O   0  0  0  0  0  0  0  0  0  0  0  0
   -1.0693   -0.7598   -0.7857 N   0  0  0  0  0  0  0  0  0  0  0  0
   -1.8488   -0.3596   -1.3091 H   0  0  0  0  0  0  0  0  0  0  0  0
    0.2050   -0.0192   -0.8025 C   0  0  1  0  0  0  0  0  0  0  0  0
    0.8847   -0.5963   -1.4407 H   0  0  0  0  0  0  0  0  0  0  0  0
    0.1022    1.4041   -1.4221 C   0  0  0  0  0  0  0  0  0  0  0  0
   -0.1171    2.1130   -0.6190 H   0  0  0  0  0  0  0  0  0  0  0  0
    1.0901    1.6666   -1.8130 H   0  0  0  0  0  0  0  0  0  0  0  0
   -0.9306    1.6864   -2.5194 C   0  0  0  0  0  0  0  0  0  0  0  0
   -1.9902    1.0802   -2.5684 O   0  0  0  0  0  0  0  0  0  0  0  0
   -0.5944    2.6542   -3.4027 O   0  0  0  0  0  0  0  0  0  0  0  0
   -1.3327    2.7251   -4.0268 H   0  0  0  0  0  0  0  0  0  0  0  0
    0.9016    0.0733    0.5727 C   0  0  0  0  0  0  0  0  0  0  0  0
    2.1231    0.1221    0.6254 O   0  0  0  0  0  0  0  0  0  0  0  0
    0.1646    0.3873    1.7001 N   0  0  0  0  0  0  0  0  0  0  0  0
   -0.8390    0.2535    1.6282 H   0  0  0  0  0  0  0  0  0  0  0  0
    0.7634    0.5154    3.0228 C   0  0  0  0  0  0  0  0  0  0  0  0
    1.5304    1.2971    3.0225 H   0  0  0  0  0  0  0  0  0  0  0  0
    0.0004    0.7832    3.7599 H   0  0  0  0  0  0  0  0  0  0  0  0
    1.2247   -0.4304    3.3262 H   0  0  0  0  0  0  0  0  0  0  0  0
  1  2  1  0  0  0  0
  2  3  1  0  0  0  0
  2  4  1  0  0  0  0
  2  5  1  0  0  0  0
  5  6  2  0  0  0  0
  5  7  1  0  0  0  0
  7  8  1  0  0  0  0
  7  9  1  0  0  0  0
  9 10  1  0  0  0  0
  9 11  1  0  0  0  0
  9 18  1  0  0  0  0
 11 12  1  0  0  0  0
 11 13  1  0  0  0  0
 11 14  1  0  0  0  0
 14 15  2  0  0  0  0
 14 16  1  0  0  0  0
 16 17  1  0  0  0  0
 18 19  2  0  0  0  0
 18 20  1  0  0  0  0
 20 21  1  0  0  0  0
 20 22  1  0  0  0  0
 22 23  1  0  0  0  0
 22 24  1  0  0  0  0
 22 25  1  0  0  0  0
M  END
$$$$

  -OEChem-02102214113D

 25 24  0     1  0  0  0  0  0999 V2000
   -2.4550   -3.8155   -0.3249 H   0  0  0  0  0  0  0  0  0  0  0  0
   -2.5324   -2.7647   -0.6182 C   0  0  0  0  0  0  0  0  0  0  0  0
   -3.2906   -2.2798    0.0013 H   0  0  0  0  0  0  0  0  0  0  0  0
   -2.8402   -2.7139   -1.6654 H   0  0  0  0  0  0  0  0  0  0  0  0
   -1.1947   -2.0727   -0.4377 C   0  0  0  0  0  0  0  0  0  0  0  0
   -0.2510   -2.6860    0.0283 O   0  0  0  0  0  0  0  0  0  0  0  0
   -1.0531   -0.7489   -0.8035 N   0  0  0  0  0  0  0  0  0  0  0  0
   -1.8533   -0.3126   -1.2631 H   0  0  0  0  0  0  0  0  0  0  0  0
    0.2221   -0.0094   -0.8047 C   0  0  1  0  0  0  0  0  0  0  0  0
    0.9068   -0.5816   -1.4420 H   0  0  0  0  0  0  0  0  0  0  0  0
    0.1161    1.4140   -1.4186 C   0  0  0  0  0  0  0  0  0  0  0  0
   -0.1154    2.1231   -0.6188 H   0  0  0  0  0  0  0  0  0  0  0  0
    1.1026    1.6864   -1.8062 H   0  0  0  0  0  0  0  0  0  0  0  0
   -0.9200    1.6621   -2.5181 C   0  0  0  0  0  0  0  0  0  0  0  0
   -2.0607    1.2382   -2.4039 O   0  0  0  0  0  0  0  0  0  0  0  0
   -0.4980    2.3723   -3.5896 O   0  0  0  0  0  0  0  0  0  0  0  0
   -1.2578    2.4500   -4.1863 H   0  0  0  0  0  0  0  0  0  0  0  0
    0.9091    0.0740    0.5754 C   0  0  0  0  0  0  0  0  0  0  0  0
    2.1303    0.1171    0.6384 O   0  0  0  0  0  0  0  0  0  0  0  0
    0.1641    0.3816    1.6991 N   0  0  0  0  0  0  0  0  0  0  0  0
   -0.8403    0.2605    1.6167 H   0  0  0  0  0  0  0  0  0  0  0  0
    0.7524    0.4999    3.0274 C   0  0  0  0  0  0  0  0  0  0  0  0
    1.5258    1.2753    3.0370 H   0  0  0  0  0  0  0  0  0  0  0  0
   -0.0147    0.7708    3.7589 H   0  0  0  0  0  0  0  0  0  0  0  0
    1.2033   -0.4508    3.3312 H   0  0  0  0  0  0  0  0  0  0  0  0
  1  2  1  0  0  0  0
  2  3  1  0  0  0  0
  2  4  1  0  0  0  0
  2  5  1  0  0  0  0
  5  6  2  0  0  0  0
  5  7  1  0  0  0  0
  7  8  1  0  0  0  0
  7  9  1  0  0  0  0
  9 10  1  0  0  0  0
  9 11  1  0  0  0  0
  9 18  1  0  0  0  0
 11 12  1  0  0  0  0
 11 13  1  0  0  0  0
 11 14  1  0  0  0  0
 14 15  2  0  0  0  0
 14 16  1  0  0  0  0
 16 17  1  0  0  0  0
 18 19  2  0  0  0  0
 18 20  1  0  0  0  0
 20 21  1  0  0  0  0
 20 22  1  0  0  0  0
 22 23  1  0  0  0  0
 22 24  1  0  0  0  0
 22 25  1  0  0  0  0
M  END
$$$$

  -OEChem-02102214113D

 25 24  0     1  0  0  0  0  0999 V2000
   -2.4706   -3.7790   -0.3338 H   0  0  0  0  0  0  0  0  0  0  0  0
   -2.5367   -2.7255   -0.6200 C   0  0  0  0  0  0  0  0  0  0  0  0
   -3.2675   -2.2305    0.0239 H   0  0  0  0  0  0  0  0  0  0  0  0
   -2.8736   -2.6637   -1.6577 H   0  0  0  0  0  0  0  0  0  0  0  0
   -1.1815   -2.0590   -0.4750 C   0  0  0  0  0  0  0  0  0  0  0  0
   -0.2332   -2.6937   -0.0487 O   0  0  0  0  0  0  0  0  0  0  0  0
   -1.0283   -0.7335   -0.8292 N   0  0  0  0  0  0  0  0  0  0  0  0
   -1.8448   -0.2615   -1.2191 H   0  0  0  0  0  0  0  0  0  0  0  0
    0.2495    0.0019   -0.8091 C   0  0  1  0  0  0  0  0  0  0  0  0
    0.9415   -0.5627   -1.4451 H   0  0  0  0  0  0  0  0  0  0  0  0
    0.1336    1.4253   -1.4129 C   0  0  0  0  0  0  0  0  0  0  0  0
   -0.1143    2.1313   -0.6153 H   0  0  0  0  0  0  0  0  0  0  0  0
    1.1142    1.7163   -1.8016 H   0  0  0  0  0  0  0  0  0  0  0  0
   -0.9101    1.6214   -2.5109 C   0  0  0  0  0  0  0  0  0  0  0  0
   -2.0882    1.4060   -2.2656 O   0  0  0  0  0  0  0  0  0  0  0  0
   -0.4632    2.0298   -3.7207 O   0  0  0  0  0  0  0  0  0  0  0  0
   -1.2432    2.1110   -4.2905 H   0  0  0  0  0  0  0  0  0  0  0  0
    0.9204    0.0749    0.5791 C   0  0  0  0  0  0  0  0  0  0  0  0
    2.1407    0.1091    0.6576 O   0  0  0  0  0  0  0  0  0  0  0  0
    0.1635    0.3780    1.6962 N   0  0  0  0  0  0  0  0  0  0  0  0
   -0.8414    0.2742    1.5993 H   0  0  0  0  0  0  0  0  0  0  0  0
    0.7343    0.4833    3.0332 C   0  0  0  0  0  0  0  0  0  0  0  0
    1.5157    1.2502    3.0582 H   0  0  0  0  0  0  0  0  0  0  0  0
   -0.0403    0.7585    3.7553 H   0  0  0  0  0  0  0  0  0  0  0  0
    1.1703   -0.4739    3.3379 H   0  0  0  0  0  0  0  0  0  0  0  0
  1  2  1  0  0  0  0
  2  3  1  0  0  0  0
  2  4  1  0  0  0  0
  2  5  1  0  0  0  0
  5  6  2  0  0  0  0
  5  7  1  0  0  0  0
  7  8  1  0  0  0  0
  7  9  1  0  0  0  0
  9 10  1  0  0  0  0
  9 11  1  0  0  0  0
  9 18  1  0  0  0  0
 11 12  1  0  0  0  0
 11 13  1  0  0  0  0
 11 14  1  0  0  0  0
 14 15  2  0  0  0  0
 14 16  1  0  0  0  0
 16 17  1  0  0  0  0
 18 19  2  0  0  0  0
 18 20  1  0  0  0  0
 20 21  1  0  0  0  0
 20 22  1  0  0  0  0
 22 23  1  0  0  0  0
 22 24  1  0  0  0  0
 22 25  1  0  0  0  0
M  END
$$$$

  -OEChem-02102214113D

 25 24  0     1  0  0  0  0  0999 V2000
   -2.4796   -3.7458   -0.3401 H   0  0  0  0  0  0  0  0  0  0  0  0
   -2.5381   -2.6910   -0.6235 C   0  0  0  0  0  0  0  0  0  0  0  0
   -3.2455   -2.1869    0.0391 H   0  0  0  0  0  0  0  0  0  0  0  0
   -2.9006   -2.6233   -1.6521 H   0  0  0  0  0  0  0  0  0  0  0  0
   -1.1702   -2.0444   -0.5127 C   0  0  0  0  0  0  0  0  0  0  0  0
   -0.2184   -2.6962   -0.1218 O   0  0  0  0  0  0  0  0  0  0  0  0
   -1.0099   -0.7164   -0.8547 N   0  0  0  0  0  0  0  0  0  0  0  0
   -1.8373   -0.2178   -1.1826 H   0  0  0  0  0  0  0  0  0  0  0  0
    0.2716    0.0136   -0.8116 C   0  0  1  0  0  0  0  0  0  0  0  0
    0.9711   -0.5435   -1.4464 H   0  0  0  0  0  0  0  0  0  0  0  0
    0.1443    1.4358   -1.4066 C   0  0  0  0  0  0  0  0  0  0  0  0
   -0.1194    2.1397   -0.6119 H   0  0  0  0  0  0  0  0  0  0  0  0
    1.1180    1.7445   -1.7986 H   0  0  0  0  0  0  0  0  0  0  0  0
   -0.9039    1.5771   -2.5040 C   0  0  0  0  0  0  0  0  0  0  0  0
   -2.0840    1.5960   -2.1867 O   0  0  0  0  0  0  0  0  0  0  0  0
   -0.4695    1.6622   -3.7823 O   0  0  0  0  0  0  0  0  0  0  0  0
   -1.2583    1.7543   -4.3379 H   0  0  0  0  0  0  0  0  0  0  0  0
    0.9284    0.0755    0.5838 C   0  0  0  0  0  0  0  0  0  0  0  0
    2.1480    0.0995    0.6762 O   0  0  0  0  0  0  0  0  0  0  0  0
    0.1619    0.3745    1.6957 N   0  0  0  0  0  0  0  0  0  0  0  0
   -0.8434    0.2872    1.5879 H   0  0  0  0  0  0  0  0  0  0  0  0
    0.7205    0.4710    3.0386 C   0  0  0  0  0  0  0  0  0  0  0  0
    1.5090    1.2302    3.0735 H   0  0  0  0  0  0  0  0  0  0  0  0
   -0.0583    0.7520    3.7537 H   0  0  0  0  0  0  0  0  0  0  0  0
    1.1446   -0.4910    3.3451 H   0  0  0  0  0  0  0  0  0  0  0  0
  1  2  1  0  0  0  0
  2  3  1  0  0  0  0
  2  4  1  0  0  0  0
  2  5  1  0  0  0  0
  5  6  2  0  0  0  0
  5  7  1  0  0  0  0
  7  8  1  0  0  0  0
  7  9  1  0  0  0  0
  9 10  1  0  0  0  0
  9 11  1  0  0  0  0
  9 18  1  0  0  0  0
 11 12  1  0  0  0  0
 11 13  1  0  0  0  0
 11 14  1  0  0  0  0
 14 15  2  0  0  0  0
 14 16  1  0  0  0  0
 16 17  1  0  0  0  0
 18 19  2  0  0  0  0
 18 20  1  0  0  0  0
 20 21  1  0  0  0  0
 20 22  1  0  0  0  0
 22 23  1  0  0  0  0
 22 24  1  0  0  0  0
 22 25  1  0  0  0  0
M  END
$$$$

  -OEChem-02102214113D

 25 24  0     1  0  0  0  0  0999 V2000
   -2.4831   -3.7323   -0.3425 H   0  0  0  0  0  0  0  0  0  0  0  0
   -2.5391   -2.6771   -0.6250 C   0  0  0  0  0  0  0  0  0  0  0  0
   -3.2354   -2.1695    0.0467 H   0  0  0  0  0  0  0  0  0  0  0  0
   -2.9136   -2.6070   -1.6491 H   0  0  0  0  0  0  0  0  0  0  0  0
   -1.1664   -2.0383   -0.5311 C   0  0  0  0  0  0  0  0  0  0  0  0
   -0.2132   -2.6964   -0.1546 O   0  0  0  0  0  0  0  0  0  0  0  0
   -1.0040   -0.7088   -0.8677 N   0  0  0  0  0  0  0  0  0  0  0  0
   -1.8375   -0.1991   -1.1573 H   0  0  0  0  0  0  0  0  0  0  0  0
    0.2808    0.0173   -0.8134 C   0  0  1  0  0  0  0  0  0  0  0  0
    0.9825   -0.5366   -1.4490 H   0  0  0  0  0  0  0  0  0  0  0  0
    0.1502    1.4385   -1.4037 C   0  0  0  0  0  0  0  0  0  0  0  0
   -0.1176    2.1419   -0.6094 H   0  0  0  0  0  0  0  0  0  0  0  0
    1.1198    1.7535   -1.8008 H   0  0  0  0  0  0  0  0  0  0  0  0
   -0.8996    1.5491   -2.5001 C   0  0  0  0  0  0  0  0  0  0  0  0
   -2.0440    1.8276   -2.1786 O   0  0  0  0  0  0  0  0  0  0  0  0
   -0.5114    1.3195   -3.7755 O   0  0  0  0  0  0  0  0  0  0  0  0
   -1.2947    1.4492   -4.3314 H   0  0  0  0  0  0  0  0  0  0  0  0
    0.9316    0.0728    0.5851 C   0  0  0  0  0  0  0  0  0  0  0  0
    2.1507    0.0919    0.6838 O   0  0  0  0  0  0  0  0  0  0  0  0
    0.1609    0.3707    1.6945 N   0  0  0  0  0  0  0  0  0  0  0  0
   -0.8446    0.2937    1.5817 H   0  0  0  0  0  0  0  0  0  0  0  0
    0.7137    0.4693    3.0396 C   0  0  0  0  0  0  0  0  0  0  0  0
    1.4979    1.2329    3.0778 H   0  0  0  0  0  0  0  0  0  0  0  0
   -0.0694    0.7457    3.7519 H   0  0  0  0  0  0  0  0  0  0  0  0
    1.1414   -0.4907    3.3476 H   0  0  0  0  0  0  0  0  0  0  0  0
  1  2  1  0  0  0  0
  2  3  1  0  0  0  0
  2  4  1  0  0  0  0
  2  5  1  0  0  0  0
  5  6  2  0  0  0  0
  5  7  1  0  0  0  0
  7  8  1  0  0  0  0
  7  9  1  0  0  0  0
  9 10  1  0  0  0  0
  9 11  1  0  0  0  0
  9 18  1  0  0  0  0
 11 12  1  0  0  0  0
 11 13  1  0  0  0  0
 11 14  1  0  0  0  0
 14 15  2  0  0  0  0
 14 16  1  0  0  0  0
 16 17  1  0  0  0  0
 18 19  2  0  0  0  0
 18 20  1  0  0  0  0
 20 21  1  0  0  0  0
 20 22  1  0  0  0  0
 22 23  1  0  0  0  0
 22 24  1  0  0  0  0
 22 25  1  0  0  0  0
M  END
$$$$

  -OEChem-02102214113D

 25 24  0     1  0  0  0  0  0999 V2000
   -2.4832   -3.7393   -0.3447 H   0  0  0  0  0  0  0  0  0  0  0  0
   -2.5406   -2.6842   -0.6269 C   0  0  0  0  0  0  0  0  0  0  0  0
   -3.2423   -2.1789    0.0408 H   0  0  0  0  0  0  0  0  0  0  0  0
   -2.9087   -2.6151   -1.6534 H   0  0  0  0  0  0  0  0  0  0  0  0
   -1.1706   -2.0410   -0.5239 C   0  0  0  0  0  0  0  0  0  0  0  0
   -0.2188   -2.6957   -0.1385 O   0  0  0  0  0  0  0  0  0  0  0  0
   -1.0107   -0.7114   -0.8624 N   0  0  0  0  0  0  0  0  0  0  0  0
   -1.8428   -0.2088   -1.1633 H   0  0  0  0  0  0  0  0  0  0  0  0
    0.2754    0.0137   -0.8098 C   0  0  1  0  0  0  0  0  0  0  0  0
    0.9751   -0.5432   -1.4451 H   0  0  0  0  0  0  0  0  0  0  0  0
    0.1489    1.4327   -1.4041 C   0  0  0  0  0  0  0  0  0  0  0  0
   -0.1148    2.1385   -0.6103 H   0  0  0  0  0  0  0  0  0  0  0  0
    1.1186    1.7428   -1.8037 H   0  0  0  0  0  0  0  0  0  0  0  0
   -0.8993    1.5413   -2.5019 C   0  0  0  0  0  0  0  0  0  0  0  0
   -1.9589    2.0841   -2.2384 O   0  0  0  0  0  0  0  0  0  0  0  0
   -0.6009    1.0270   -3.7171 O   0  0  0  0  0  0  0  0  0  0  0  0
   -1.3581    1.2170   -4.2917 H   0  0  0  0  0  0  0  0  0  0  0  0
    0.9296    0.0711    0.5872 C   0  0  0  0  0  0  0  0  0  0  0  0
    2.1488    0.0915    0.6825 O   0  0  0  0  0  0  0  0  0  0  0  0
    0.1623    0.3713    1.6983 N   0  0  0  0  0  0  0  0  0  0  0  0
   -0.8434    0.2936    1.5893 H   0  0  0  0  0  0  0  0  0  0  0  0
    0.7190    0.4757    3.0413 C   0  0  0  0  0  0  0  0  0  0  0  0
    1.4987    1.2440    3.0753 H   0  0  0  0  0  0  0  0  0  0  0  0
   -0.0635    0.7488    3.7554 H   0  0  0  0  0  0  0  0  0  0  0  0
    1.1537   -0.4808    3.3500 H   0  0  0  0  0  0  0  0  0  0  0  0
  1  2  1  0  0  0  0
  2  3  1  0  0  0  0
  2  4  1  0  0  0  0
  2  5  1  0  0  0  0
  5  6  2  0  0  0  0
  5  7  1  0  0  0  0
  7  8  1  0  0  0  0
  7  9  1  0  0  0  0
  9 10  1  0  0  0  0
  9 11  1  0  0  0  0
  9 18  1  0  0  0  0
 11 12  1  0  0  0  0
 11 13  1  0  0  0  0
 11 14  1  0  0  0  0
 14 15  2  0  0  0  0
 14 16  1  0  0  0  0
 16 17  1  0  0  0  0
 18 19  2  0  0  0  0
 18 20  1  0  0  0  0
 20 21  1  0  0  0  0
 20 22  1  0  0  0  0
 22 23  1  0  0  0  0
 22 24  1  0  0  0  0
 22 25  1  0  0  0  0
M  END
$$$$

  -OEChem-02102214113D

 25 24  0     1  0  0  0  0  0999 V2000
   -2.4881   -3.7670   -0.3781 H   0  0  0  0  0  0  0  0  0  0  0  0
   -2.5473   -2.7126   -0.6628 C   0  0  0  0  0  0  0  0  0  0  0  0
   -3.2978   -2.2216   -0.0388 H   0  0  0  0  0  0  0  0  0  0  0  0
   -2.8536   -2.6491   -1.7097 H   0  0  0  0  0  0  0  0  0  0  0  0
   -1.1979   -2.0448   -0.4752 C   0  0  0  0  0  0  0  0  0  0  0  0
   -0.2671   -2.6776   -0.0103 O   0  0  0  0  0  0  0  0  0  0  0  0
   -1.0346   -0.7194   -0.8288 N   0  0  0  0  0  0  0  0  0  0  0  0
   -1.8330   -0.2627   -1.2610 H   0  0  0  0  0  0  0  0  0  0  0  0
    0.2575   -0.0033   -0.7945 C   0  0  1  0  0  0  0  0  0  0  0  0
    0.9461   -0.5722   -1.4309 H   0  0  0  0  0  0  0  0  0  0  0  0
    0.1454    1.4152   -1.3969 C   0  0  0  0  0  0  0  0  0  0  0  0
   -0.1000    2.1255   -0.6012 H   0  0  0  0  0  0  0  0  0  0  0  0
    1.1176    1.7073   -1.8038 H   0  0  0  0  0  0  0  0  0  0  0  0
   -0.9062    1.5504   -2.4900 C   0  0  0  0  0  0  0  0  0  0  0  0
   -1.8185    2.3405   -2.3219 O   0  0  0  0  0  0  0  0  0  0  0  0
   -0.7692    0.7917   -3.6025 O   0  0  0  0  0  0  0  0  0  0  0  0
   -1.4815    1.0562   -4.2050 H   0  0  0  0  0  0  0  0  0  0  0  0
    0.9273    0.0641    0.5949 C   0  0  0  0  0  0  0  0  0  0  0  0
    2.1479    0.0872    0.6737 O   0  0  0  0  0  0  0  0  0  0  0  0
    0.1747    0.3809    1.7111 N   0  0  0  0  0  0  0  0  0  0  0  0
   -0.8318    0.2931    1.6174 H   0  0  0  0  0  0  0  0  0  0  0  0
    0.7504    0.5067    3.0442 C   0  0  0  0  0  0  0  0  0  0  0  0
    1.5121    1.2934    3.0601 H   0  0  0  0  0  0  0  0  0  0  0  0
   -0.0265    0.7653    3.7699 H   0  0  0  0  0  0  0  0  0  0  0  0
    1.2129   -0.4374    3.3510 H   0  0  0  0  0  0  0  0  0  0  0  0
  1  2  1  0  0  0  0
  2  3  1  0  0  0  0
  2  4  1  0  0  0  0
  2  5  1  0  0  0  0
  5  6  2  0  0  0  0
  5  7  1  0  0  0  0
  7  8  1  0  0  0  0
  7  9  1  0  0  0  0
  9 10  1  0  0  0  0
  9 11  1  0  0  0  0
  9 18  1  0  0  0  0
 11 12  1  0  0  0  0
 11 13  1  0  0  0  0
 11 14  1  0  0  0  0
 14 15  2  0  0  0  0
 14 16  1  0  0  0  0
 16 17  1  0  0  0  0
 18 19  2  0  0  0  0
 18 20  1  0  0  0  0
 20 21  1  0  0  0  0
 20 22  1  0  0  0  0
 22 23  1  0  0  0  0
 22 24  1  0  0  0  0
 22 25  1  0  0  0  0
M  END
$$$$

  -OEChem-02102214113D

 25 24  0     1  0  0  0  0  0999 V2000
   -2.4917   -3.7823   -0.3510 H   0  0  0  0  0  0  0  0  0  0  0  0
   -2.5375   -2.7456   -0.6966 C   0  0  0  0  0  0  0  0  0  0  0  0
   -3.3537   -2.2375   -0.1778 H   0  0  0  0  0  0  0  0  0  0  0  0
   -2.7384   -2.7427   -1.7706 H   0  0  0  0  0  0  0  0  0  0  0  0
   -1.2236   -2.0422   -0.4124 C   0  0  0  0  0  0  0  0  0  0  0  0
   -0.3258   -2.6417    0.1512 O   0  0  0  0  0  0  0  0  0  0  0  0
   -1.0594   -0.7239   -0.7926 N   0  0  0  0  0  0  0  0  0  0  0  0
   -1.7890   -0.3509   -1.3938 H   0  0  0  0  0  0  0  0  0  0  0  0
    0.2418   -0.0240   -0.7834 C   0  0  1  0  0  0  0  0  0  0  0  0
    0.9170   -0.6068   -1.4214 H   0  0  0  0  0  0  0  0  0  0  0  0
    0.1395    1.3959   -1.3897 C   0  0  0  0  0  0  0  0  0  0  0  0
   -0.0802    2.1088   -0.5884 H   0  0  0  0  0  0  0  0  0  0  0  0
    1.1114    1.6696   -1.8099 H   0  0  0  0  0  0  0  0  0  0  0  0
   -0.9228    1.5719   -2.4692 C   0  0  0  0  0  0  0  0  0  0  0  0
   -1.6346    2.5589   -2.4164 O   0  0  0  0  0  0  0  0  0  0  0  0
   -1.0185    0.6360   -3.4438 O   0  0  0  0  0  0  0  0  0  0  0  0
   -1.6822    0.9660   -4.0700 H   0  0  0  0  0  0  0  0  0  0  0  0
    0.9269    0.0573    0.5985 C   0  0  0  0  0  0  0  0  0  0  0  0
    2.1487    0.0719    0.6627 O   0  0  0  0  0  0  0  0  0  0  0  0
    0.1883    0.4019    1.7156 N   0  0  0  0  0  0  0  0  0  0  0  0
   -0.8182    0.2998    1.6351 H   0  0  0  0  0  0  0  0  0  0  0  0
    0.7768    0.5338    3.0423 C   0  0  0  0  0  0  0  0  0  0  0  0
    1.5532    1.3061    3.0428 H   0  0  0  0  0  0  0  0  0  0  0  0
    0.0103    0.8168    3.7699 H   0  0  0  0  0  0  0  0  0  0  0  0
    1.2233   -0.4149    3.3584 H   0  0  0  0  0  0  0  0  0  0  0  0
  1  2  1  0  0  0  0
  2  3  1  0  0  0  0
  2  4  1  0  0  0  0
  2  5  1  0  0  0  0
  5  6  2  0  0  0  0
  5  7  1  0  0  0  0
  7  8  1  0  0  0  0
  7  9  1  0  0  0  0
  9 10  1  0  0  0  0
  9 11  1  0  0  0  0
  9 18  1  0  0  0  0
 11 12  1  0  0  0  0
 11 13  1  0  0  0  0
 11 14  1  0  0  0  0
 14 15  2  0  0  0  0
 14 16  1  0  0  0  0
 16 17  1  0  0  0  0
 18 19  2  0  0  0  0
 18 20  1  0  0  0  0
 20 21  1  0  0  0  0
 20 22  1  0  0  0  0
 22 23  1  0  0  0  0
 22 24  1  0  0  0  0
 22 25  1  0  0  0  0
M  END
$$$$

  -OEChem-02102214113D

 25 24  0     1  0  0  0  0  0999 V2000
   -2.4754   -3.8128   -0.3526 H   0  0  0  0  0  0  0  0  0  0  0  0
   -2.5282   -2.7767   -0.6991 C   0  0  0  0  0  0  0  0  0  0  0  0
   -3.3688   -2.2827   -0.2058 H   0  0  0  0  0  0  0  0  0  0  0  0
   -2.6951   -2.7766   -1.7789 H   0  0  0  0  0  0  0  0  0  0  0  0
   -1.2365   -2.0510   -0.3735 C   0  0  0  0  0  0  0  0  0  0  0  0
   -0.3544   -2.6303    0.2342 O   0  0  0  0  0  0  0  0  0  0  0  0
   -1.0758   -0.7371   -0.7695 N   0  0  0  0  0  0  0  0  0  0  0  0
   -1.7696   -0.4078   -1.4369 H   0  0  0  0  0  0  0  0  0  0  0  0
    0.2269   -0.0417   -0.7749 C   0  0  1  0  0  0  0  0  0  0  0  0
    0.8965   -0.6314   -1.4124 H   0  0  0  0  0  0  0  0  0  0  0  0
    0.1265    1.3774   -1.3889 C   0  0  0  0  0  0  0  0  0  0  0  0
   -0.0846    2.0901   -0.5854 H   0  0  0  0  0  0  0  0  0  0  0  0
    1.1011    1.6417   -1.8088 H   0  0  0  0  0  0  0  0  0  0  0  0
   -0.9346    1.5899   -2.4669 C   0  0  0  0  0  0  0  0  0  0  0  0
   -1.4194    2.7031   -2.5610 O   0  0  0  0  0  0  0  0  0  0  0  0
   -1.2639    0.5657   -3.2926 O   0  0  0  0  0  0  0  0  0  0  0  0
   -1.8706    0.9423   -3.9505 H   0  0  0  0  0  0  0  0  0  0  0  0
    0.9219    0.0524    0.6018 C   0  0  0  0  0  0  0  0  0  0  0  0
    2.1444    0.0640    0.6556 O   0  0  0  0  0  0  0  0  0  0  0  0
    0.1926    0.4112    1.7206 N   0  0  0  0  0  0  0  0  0  0  0  0
   -0.8137    0.2983    1.6508 H   0  0  0  0  0  0  0  0  0  0  0  0
    0.7922    0.5554    3.0410 C   0  0  0  0  0  0  0  0  0  0  0  0
    1.5786    1.3175    3.0242 H   0  0  0  0  0  0  0  0  0  0  0  0
    0.0346    0.8598    3.7695 H   0  0  0  0  0  0  0  0  0  0  0  0
    1.2286   -0.3941    3.3684 H   0  0  0  0  0  0  0  0  0  0  0  0
  1  2  1  0  0  0  0
  2  3  1  0  0  0  0
  2  4  1  0  0  0  0
  2  5  1  0  0  0  0
  5  6  2  0  0  0  0
  5  7  1  0  0  0  0
  7  8  1  0  0  0  0
  7  9  1  0  0  0  0
  9 10  1  0  0  0  0
  9 11  1  0  0  0  0
  9 18  1  0  0  0  0
 11 12  1  0  0  0  0
 11 13  1  0  0  0  0
 11 14  1  0  0  0  0
 14 15  2  0  0  0  0
 14 16  1  0  0  0  0
 16 17  1  0  0  0  0
 18 19  2  0  0  0  0
 18 20  1  0  0  0  0
 20 21  1  0  0  0  0
 20 22  1  0  0  0  0
 22 23  1  0  0  0  0
 22 24  1  0  0  0  0
 22 25  1  0  0  0  0
M  END
$$$$

  -OEChem-02102214113D

 25 24  0     1  0  0  0  0  0999 V2000
   -2.4489   -3.8456   -0.3431 H   0  0  0  0  0  0  0  0  0  0  0  0
   -2.5187   -2.8056   -0.6746 C   0  0  0  0  0  0  0  0  0  0  0  0
   -3.3598   -2.3290   -0.1656 H   0  0  0  0  0  0  0  0  0  0  0  0
   -2.6977   -2.7921   -1.7525 H   0  0  0  0  0  0  0  0  0  0  0  0
   -1.2327   -2.0683   -0.3527 C   0  0  0  0  0  0  0  0  0  0  0  0
   -0.3456   -2.6378    0.2574 O   0  0  0  0  0  0  0  0  0  0  0  0
   -1.0824   -0.7553   -0.7549 N   0  0  0  0  0  0  0  0  0  0  0  0
   -1.7755   -0.4365   -1.4302 H   0  0  0  0  0  0  0  0  0  0  0  0
    0.2134   -0.0506   -0.7706 C   0  0  1  0  0  0  0  0  0  0  0  0
    0.8833   -0.6433   -1.4048 H   0  0  0  0  0  0  0  0  0  0  0  0
    0.1134    1.3658   -1.3965 C   0  0  0  0  0  0  0  0  0  0  0  0
   -0.0995    2.0788   -0.5940 H   0  0  0  0  0  0  0  0  0  0  0  0
    1.0934    1.6252   -1.8074 H   0  0  0  0  0  0  0  0  0  0  0  0
   -0.9359    1.6130   -2.4828 C   0  0  0  0  0  0  0  0  0  0  0  0
   -1.1781    2.7773   -2.7446 O   0  0  0  0  0  0  0  0  0  0  0  0
   -1.5130    0.5750   -3.1392 O   0  0  0  0  0  0  0  0  0  0  0  0
   -2.0655    0.9806   -3.8277 H   0  0  0  0  0  0  0  0  0  0  0  0
    0.9135    0.0541    0.6027 C   0  0  0  0  0  0  0  0  0  0  0  0
    2.1361    0.0755    0.6499 O   0  0  0  0  0  0  0  0  0  0  0  0
    0.1879    0.4115    1.7245 N   0  0  0  0  0  0  0  0  0  0  0  0
   -0.8173    0.2848    1.6628 H   0  0  0  0  0  0  0  0  0  0  0  0
    0.7962    0.5636    3.0404 C   0  0  0  0  0  0  0  0  0  0  0  0
    1.5836    1.3243    3.0136 H   0  0  0  0  0  0  0  0  0  0  0  0
    0.0442    0.8741    3.7719 H   0  0  0  0  0  0  0  0  0  0  0  0
    1.2338   -0.3844    3.3707 H   0  0  0  0  0  0  0  0  0  0  0  0
  1  2  1  0  0  0  0
  2  3  1  0  0  0  0
  2  4  1  0  0  0  0
  2  5  1  0  0  0  0
  5  6  2  0  0  0  0
  5  7  1  0  0  0  0
  7  8  1  0  0  0  0
  7  9  1  0  0  0  0
  9 10  1  0  0  0  0
  9 11  1  0  0  0  0
  9 18  1  0  0  0  0
 11 12  1  0  0  0  0
 11 13  1  0  0  0  0
 11 14  1  0  0  0  0
 14 15  2  0  0  0  0
 14 16  1  0  0  0  0
 16 17  1  0  0  0  0
 18 19  2  0  0  0  0
 18 20  1  0  0  0  0
 20 21  1  0  0  0  0
 20 22  1  0  0  0  0
 22 23  1  0  0  0  0
 22 24  1  0  0  0  0
 22 25  1  0  0  0  0
M  END
$$$$

  -OEChem-02102214113D

 25 24  0     1  0  0  0  0  0999 V2000
   -2.3635   -3.9134   -0.2775 H   0  0  0  0  0  0  0  0  0  0  0  0
   -2.4699   -2.8691   -0.5847 C   0  0  0  0  0  0  0  0  0  0  0  0
   -3.2674   -2.4079    0.0026 H   0  0  0  0  0  0  0  0  0  0  0  0
   -2.7414   -2.8401   -1.6428 H   0  0  0  0  0  0  0  0  0  0  0  0
   -1.1664   -2.1251   -0.3638 C   0  0  0  0  0  0  0  0  0  0  0  0
   -0.2196   -2.6979    0.1450 O   0  0  0  0  0  0  0  0  0  0  0  0
   -1.0624   -0.8023   -0.7465 N   0  0  0  0  0  0  0  0  0  0  0  0
   -1.8439   -0.4307   -1.2860 H   0  0  0  0  0  0  0  0  0  0  0  0
    0.1970   -0.0386   -0.7767 C   0  0  1  0  0  0  0  0  0  0  0  0
    0.8827   -0.6133   -1.4107 H   0  0  0  0  0  0  0  0  0  0  0  0
    0.0815    1.3795   -1.4133 C   0  0  0  0  0  0  0  0  0  0  0  0
    0.1286    2.1148   -0.6040 H   0  0  0  0  0  0  0  0  0  0  0  0
    0.9721    1.5331   -2.0300 H   0  0  0  0  0  0  0  0  0  0  0  0
   -1.1370    1.7810   -2.2563 C   0  0  0  0  0  0  0  0  0  0  0  0
   -1.1082    2.9156   -2.6976 O   0  0  0  0  0  0  0  0  0  0  0  0
   -2.1629    0.9274   -2.5049 O   0  0  0  0  0  0  0  0  0  0  0  0
   -2.7710    1.4238   -3.0779 H   0  0  0  0  0  0  0  0  0  0  0  0
    0.8997    0.0684    0.5954 C   0  0  0  0  0  0  0  0  0  0  0  0
    2.1202    0.1405    0.6412 O   0  0  0  0  0  0  0  0  0  0  0  0
    0.1625    0.3707    1.7257 N   0  0  0  0  0  0  0  0  0  0  0  0
   -0.8380    0.2145    1.6596 H   0  0  0  0  0  0  0  0  0  0  0  0
    0.7649    0.5174    3.0447 C   0  0  0  0  0  0  0  0  0  0  0  0
    1.5178    1.3126    3.0364 H   0  0  0  0  0  0  0  0  0  0  0  0
    0.0004    0.7761    3.7835 H   0  0  0  0  0  0  0  0  0  0  0  0
    1.2441   -0.4182    3.3516 H   0  0  0  0  0  0  0  0  0  0  0  0
  1  2  1  0  0  0  0
  2  3  1  0  0  0  0
  2  4  1  0  0  0  0
  2  5  1  0  0  0  0
  5  6  2  0  0  0  0
  5  7  1  0  0  0  0
  7  8  1  0  0  0  0
  7  9  1  0  0  0  0
  9 10  1  0  0  0  0
  9 11  1  0  0  0  0
  9 18  1  0  0  0  0
 11 12  1  0  0  0  0
 11 13  1  0  0  0  0
 11 14  1  0  0  0  0
 14 15  2  0  0  0  0
 14 16  1  0  0  0  0
 16 17  1  0  0  0  0
 18 19  2  0  0  0  0
 18 20  1  0  0  0  0
 20 21  1  0  0  0  0
 20 22  1  0  0  0  0
 22 23  1  0  0  0  0
 22 24  1  0  0  0  0
 22 25  1  0  0  0  0
M  END
$$$$

  -OEChem-02102214113D

 25 24  0     1  0  0  0  0  0999 V2000
   -2.3537   -3.9098   -0.2467 H   0  0  0  0  0  0  0  0  0  0  0  0
   -2.4617   -2.8654   -0.5528 C   0  0  0  0  0  0  0  0  0  0  0  0
   -3.2223   -2.3921    0.0725 H   0  0  0  0  0  0  0  0  0  0  0  0
   -2.7861   -2.8368   -1.5958 H   0  0  0  0  0  0  0  0  0  0  0  0
   -1.1391   -2.1377   -0.4019 C   0  0  0  0  0  0  0  0  0  0  0  0
   -0.1697   -2.7255    0.0434 O   0  0  0  0  0  0  0  0  0  0  0  0
   -1.0417   -0.8111   -0.7728 N   0  0  0  0  0  0  0  0  0  0  0  0
   -1.8629   -0.3975   -1.2141 H   0  0  0  0  0  0  0  0  0  0  0  0
    0.2083   -0.0326   -0.7917 C   0  0  1  0  0  0  0  0  0  0  0  0
    0.9035   -0.5972   -1.4244 H   0  0  0  0  0  0  0  0  0  0  0  0
    0.0859    1.3873   -1.4225 C   0  0  0  0  0  0  0  0  0  0  0  0
    0.1163    2.1197   -0.6101 H   0  0  0  0  0  0  0  0  0  0  0  0
    0.9824    1.5530   -2.0281 H   0  0  0  0  0  0  0  0  0  0  0  0
   -1.1314    1.7780   -2.2718 C   0  0  0  0  0  0  0  0  0  0  0  0
   -0.9955    2.7862   -2.9410 O   0  0  0  0  0  0  0  0  0  0  0  0
   -2.3021    1.0930   -2.2149 O   0  0  0  0  0  0  0  0  0  0  0  0
   -2.9025    1.5714   -2.8108 H   0  0  0  0  0  0  0  0  0  0  0  0
    0.9005    0.0701    0.5858 C   0  0  0  0  0  0  0  0  0  0  0  0
    2.1200    0.1493    0.6429 O   0  0  0  0  0  0  0  0  0  0  0  0
    0.1525    0.3544    1.7139 N   0  0  0  0  0  0  0  0  0  0  0  0
   -0.8485    0.2069    1.6364 H   0  0  0  0  0  0  0  0  0  0  0  0
    0.7431    0.4934    3.0393 C   0  0  0  0  0  0  0  0  0  0  0  0
    1.4866    1.2976    3.0464 H   0  0  0  0  0  0  0  0  0  0  0  0
   -0.0302    0.7341    3.7749 H   0  0  0  0  0  0  0  0  0  0  0  0
    1.2312   -0.4400    3.3394 H   0  0  0  0  0  0  0  0  0  0  0  0
  1  2  1  0  0  0  0
  2  3  1  0  0  0  0
  2  4  1  0  0  0  0
  2  5  1  0  0  0  0
  5  6  2  0  0  0  0
  5  7  1  0  0  0  0
  7  8  1  0  0  0  0
  7  9  1  0  0  0  0
  9 10  1  0  0  0  0
  9 11  1  0  0  0  0
  9 18  1  0  0  0  0
 11 12  1  0  0  0  0
 11 13  1  0  0  0  0
 11 14  1  0  0  0  0
 14 15  2  0  0  0  0
 14 16  1  0  0  0  0
 16 17  1  0  0  0  0
 18 19  2  0  0  0  0
 18 20  1  0  0  0  0
 20 21  1  0  0  0  0
 20 22  1  0  0  0  0
 22 23  1  0  0  0  0
 22 24  1  0  0  0  0
 22 25  1  0  0  0  0
M  END
$$$$

  -OEChem-02102214113D

 25 24  0     1  0  0  0  0  0999 V2000
   -2.3589   -3.8851   -0.2423 H   0  0  0  0  0  0  0  0  0  0  0  0
   -2.4641   -2.8375   -0.5392 C   0  0  0  0  0  0  0  0  0  0  0  0
   -3.1873   -2.3544    0.1220 H   0  0  0  0  0  0  0  0  0  0  0  0
   -2.8365   -2.7992   -1.5658 H   0  0  0  0  0  0  0  0  0  0  0  0
   -1.1242   -2.1318   -0.4477 C   0  0  0  0  0  0  0  0  0  0  0  0
   -0.1423   -2.7392   -0.0599 O   0  0  0  0  0  0  0  0  0  0  0  0
   -1.0244   -0.8013   -0.8032 N   0  0  0  0  0  0  0  0  0  0  0  0
   -1.8718   -0.3466   -1.1428 H   0  0  0  0  0  0  0  0  0  0  0  0
    0.2244   -0.0203   -0.8024 C   0  0  1  0  0  0  0  0  0  0  0  0
    0.9271   -0.5748   -1.4360 H   0  0  0  0  0  0  0  0  0  0  0  0
    0.0935    1.4015   -1.4223 C   0  0  0  0  0  0  0  0  0  0  0  0
    0.1043    2.1323   -0.6084 H   0  0  0  0  0  0  0  0  0  0  0  0
    0.9904    1.5850   -2.0223 H   0  0  0  0  0  0  0  0  0  0  0  0
   -1.1344    1.7519   -2.2702 C   0  0  0  0  0  0  0  0  0  0  0  0
   -0.9584    2.5742   -3.1512 O   0  0  0  0  0  0  0  0  0  0  0  0
   -2.3641    1.2702   -1.9525 O   0  0  0  0  0  0  0  0  0  0  0  0
   -2.9733    1.7033   -2.5738 H   0  0  0  0  0  0  0  0  0  0  0  0
    0.9044    0.0699    0.5815 C   0  0  0  0  0  0  0  0  0  0  0  0
    2.1234    0.1434    0.6515 O   0  0  0  0  0  0  0  0  0  0  0  0
    0.1472    0.3414    1.7066 N   0  0  0  0  0  0  0  0  0  0  0  0
   -0.8550    0.2092    1.6176 H   0  0  0  0  0  0  0  0  0  0  0  0
    0.7262    0.4658    3.0386 C   0  0  0  0  0  0  0  0  0  0  0  0
    1.4754    1.2644    3.0592 H   0  0  0  0  0  0  0  0  0  0  0  0
   -0.0519    0.7062    3.7691 H   0  0  0  0  0  0  0  0  0  0  0  0
    1.2047   -0.4734    3.3359 H   0  0  0  0  0  0  0  0  0  0  0  0
  1  2  1  0  0  0  0
  2  3  1  0  0  0  0
  2  4  1  0  0  0  0
  2  5  1  0  0  0  0
  5  6  2  0  0  0  0
  5  7  1  0  0  0  0
  7  8  1  0  0  0  0
  7  9  1  0  0  0  0
  9 10  1  0  0  0  0
  9 11  1  0  0  0  0
  9 18  1  0  0  0  0
 11 12  1  0  0  0  0
 11 13  1  0  0  0  0
 11 14  1  0  0  0  0
 14 15  2  0  0  0  0
 14 16  1  0  0  0  0
 16 17  1  0  0  0  0
 18 19  2  0  0  0  0
 18 20  1  0  0  0  0
 20 21  1  0  0  0  0
 20 22  1  0  0  0  0
 22 23  1  0  0  0  0
 22 24  1  0  0  0  0
 22 25  1  0  0  0  0
M  END
$$$$

  -OEChem-02102214113D

 25 24  0     1  0  0  0  0  0999 V2000
   -2.3797   -3.8446   -0.2405 H   0  0  0  0  0  0  0  0  0  0  0  0
   -2.4767   -2.7958   -0.5354 C   0  0  0  0  0  0  0  0  0  0  0  0
   -3.1697   -2.3007    0.1490 H   0  0  0  0  0  0  0  0  0  0  0  0
   -2.8812   -2.7525   -1.5494 H   0  0  0  0  0  0  0  0  0  0  0  0
   -1.1225   -2.1134   -0.4887 C   0  0  0  0  0  0  0  0  0  0  0  0
   -0.1365   -2.7413   -0.1469 O   0  0  0  0  0  0  0  0  0  0  0  0
   -1.0133   -0.7799   -0.8306 N   0  0  0  0  0  0  0  0  0  0  0  0
   -1.8714   -0.2930   -1.0878 H   0  0  0  0  0  0  0  0  0  0  0  0
    0.2420   -0.0078   -0.8107 C   0  0  1  0  0  0  0  0  0  0  0  0
    0.9474   -0.5546   -1.4479 H   0  0  0  0  0  0  0  0  0  0  0  0
    0.1050    1.4179   -1.4127 C   0  0  0  0  0  0  0  0  0  0  0  0
    0.1054    2.1448   -0.5953 H   0  0  0  0  0  0  0  0  0  0  0  0
    0.9963    1.6194   -2.0154 H   0  0  0  0  0  0  0  0  0  0  0  0
   -1.1381    1.7256   -2.2489 C   0  0  0  0  0  0  0  0  0  0  0  0
   -0.9678    2.3187   -3.2986 O   0  0  0  0  0  0  0  0  0  0  0  0
   -2.3702    1.4439   -1.7511 O   0  0  0  0  0  0  0  0  0  0  0  0
   -2.9956    1.8149   -2.3958 H   0  0  0  0  0  0  0  0  0  0  0  0
    0.9115    0.0651    0.5789 C   0  0  0  0  0  0  0  0  0  0  0  0
    2.1304    0.1245    0.6612 O   0  0  0  0  0  0  0  0  0  0  0  0
    0.1469    0.3319    1.7002 N   0  0  0  0  0  0  0  0  0  0  0  0
   -0.8573    0.2277    1.5989 H   0  0  0  0  0  0  0  0  0  0  0  0
    0.7143    0.4455    3.0380 C   0  0  0  0  0  0  0  0  0  0  0  0
    1.4646    1.2427    3.0713 H   0  0  0  0  0  0  0  0  0  0  0  0
   -0.0701    0.6813    3.7632 H   0  0  0  0  0  0  0  0  0  0  0  0
    1.1885   -0.4968    3.3324 H   0  0  0  0  0  0  0  0  0  0  0  0
  1  2  1  0  0  0  0
  2  3  1  0  0  0  0
  2  4  1  0  0  0  0
  2  5  1  0  0  0  0
  5  6  2  0  0  0  0
  5  7  1  0  0  0  0
  7  8  1  0  0  0  0
  7  9  1  0  0  0  0
  9 10  1  0  0  0  0
  9 11  1  0  0  0  0
  9 18  1  0  0  0  0
 11 12  1  0  0  0  0
 11 13  1  0  0  0  0
 11 14  1  0  0  0  0
 14 15  2  0  0  0  0
 14 16  1  0  0  0  0
 16 17  1  0  0  0  0
 18 19  2  0  0  0  0
 18 20  1  0  0  0  0
 20 21  1  0  0  0  0
 20 22  1  0  0  0  0
 22 23  1  0  0  0  0
 22 24  1  0  0  0  0
 22 25  1  0  0  0  0
M  END
$$$$

  -OEChem-02102214113D

 25 24  0     1  0  0  0  0  0999 V2000
   -2.4101   -3.8050   -0.2651 H   0  0  0  0  0  0  0  0  0  0  0  0
   -2.4974   -2.7526   -0.5503 C   0  0  0  0  0  0  0  0  0  0  0  0
   -3.1771   -2.2551    0.1454 H   0  0  0  0  0  0  0  0  0  0  0  0
   -2.9119   -2.6957   -1.5596 H   0  0  0  0  0  0  0  0  0  0  0  0
   -1.1342   -2.0877   -0.5125 C   0  0  0  0  0  0  0  0  0  0  0  0
   -0.1522   -2.7316   -0.1893 O   0  0  0  0  0  0  0  0  0  0  0  0
   -1.0127   -0.7522   -0.8430 N   0  0  0  0  0  0  0  0  0  0  0  0
   -1.8714   -0.2460   -1.0556 H   0  0  0  0  0  0  0  0  0  0  0  0
    0.2516    0.0066   -0.8090 C   0  0  1  0  0  0  0  0  0  0  0  0
    0.9549   -0.5385   -1.4503 H   0  0  0  0  0  0  0  0  0  0  0  0
    0.1153    1.4342   -1.3999 C   0  0  0  0  0  0  0  0  0  0  0  0
    0.1113    2.1607   -0.5823 H   0  0  0  0  0  0  0  0  0  0  0  0
    1.0012    1.6452   -2.0072 H   0  0  0  0  0  0  0  0  0  0  0  0
   -1.1376    1.7075   -2.2275 C   0  0  0  0  0  0  0  0  0  0  0  0
   -0.9930    2.0384   -3.3903 O   0  0  0  0  0  0  0  0  0  0  0  0
   -2.3511    1.6172   -1.6248 O   0  0  0  0  0  0  0  0  0  0  0  0
   -2.9922    1.9098   -2.2937 H   0  0  0  0  0  0  0  0  0  0  0  0
    0.9184    0.0636    0.5825 C   0  0  0  0  0  0  0  0  0  0  0  0
    2.1376    0.1090    0.6682 O   0  0  0  0  0  0  0  0  0  0  0  0
    0.1543    0.3308    1.7041 N   0  0  0  0  0  0  0  0  0  0  0  0
   -0.8515    0.2481    1.5997 H   0  0  0  0  0  0  0  0  0  0  0  0
    0.7200    0.4361    3.0434 C   0  0  0  0  0  0  0  0  0  0  0  0
    1.4662    1.2367    3.0834 H   0  0  0  0  0  0  0  0  0  0  0  0
   -0.0665    0.6624    3.7697 H   0  0  0  0  0  0  0  0  0  0  0  0
    1.1988   -0.5060    3.3311 H   0  0  0  0  0  0  0  0  0  0  0  0
  1  2  1  0  0  0  0
  2  3  1  0  0  0  0
  2  4  1  0  0  0  0
  2  5  1  0  0  0  0
  5  6  2  0  0  0  0
  5  7  1  0  0  0  0
  7  8  1  0  0  0  0
  7  9  1  0  0  0  0
  9 10  1  0  0  0  0
  9 11  1  0  0  0  0
  9 18  1  0  0  0  0
 11 12  1  0  0  0  0
 11 13  1  0  0  0  0
 11 14  1  0  0  0  0
 14 15  2  0  0  0  0
 14 16  1  0  0  0  0
 16 17  1  0  0  0  0
 18 19  2  0  0  0  0
 18 20  1  0  0  0  0
 20 21  1  0  0  0  0
 20 22  1  0  0  0  0
 22 23  1  0  0  0  0
 22 24  1  0  0  0  0
 22 25  1  0  0  0  0
M  END
$$$$

  -OEChem-02102214113D

 25 24  0     1  0  0  0  0  0999 V2000
   -2.4313   -3.7717   -0.2780 H   0  0  0  0  0  0  0  0  0  0  0  0
   -2.5121   -2.7183   -0.5611 C   0  0  0  0  0  0  0  0  0  0  0  0
   -3.1866   -2.2171    0.1370 H   0  0  0  0  0  0  0  0  0  0  0  0
   -2.9287   -2.6571   -1.5694 H   0  0  0  0  0  0  0  0  0  0  0  0
   -1.1444   -2.0631   -0.5251 C   0  0  0  0  0  0  0  0  0  0  0  0
   -0.1673   -2.7145   -0.2027 O   0  0  0  0  0  0  0  0  0  0  0  0
   -1.0132   -0.7272   -0.8507 N   0  0  0  0  0  0  0  0  0  0  0  0
   -1.8686   -0.2140   -1.0555 H   0  0  0  0  0  0  0  0  0  0  0  0
    0.2596    0.0196   -0.8102 C   0  0  1  0  0  0  0  0  0  0  0  0
    0.9599   -0.5262   -1.4543 H   0  0  0  0  0  0  0  0  0  0  0  0
    0.1280    1.4491   -1.3931 C   0  0  0  0  0  0  0  0  0  0  0  0
    0.1278    2.1761   -0.5757 H   0  0  0  0  0  0  0  0  0  0  0  0
    1.0080    1.6627   -2.0076 H   0  0  0  0  0  0  0  0  0  0  0  0
   -1.1313    1.7032   -2.2124 C   0  0  0  0  0  0  0  0  0  0  0  0
   -1.0341    1.7585   -3.4249 O   0  0  0  0  0  0  0  0  0  0  0  0
   -2.3098    1.8212   -1.5515 O   0  0  0  0  0  0  0  0  0  0  0  0
   -2.9691    2.0358   -2.2317 H   0  0  0  0  0  0  0  0  0  0  0  0
    0.9239    0.0650    0.5830 C   0  0  0  0  0  0  0  0  0  0  0  0
    2.1432    0.0987    0.6722 O   0  0  0  0  0  0  0  0  0  0  0  0
    0.1589    0.3354    1.7033 N   0  0  0  0  0  0  0  0  0  0  0  0
   -0.8474    0.2671    1.5948 H   0  0  0  0  0  0  0  0  0  0  0  0
    0.7203    0.4281    3.0451 C   0  0  0  0  0  0  0  0  0  0  0  0
    1.4833    1.2124    3.0891 H   0  0  0  0  0  0  0  0  0  0  0  0
   -0.0642    0.6711    3.7678 H   0  0  0  0  0  0  0  0  0  0  0  0
    1.1771   -0.5241    3.3344 H   0  0  0  0  0  0  0  0  0  0  0  0
  1  2  1  0  0  0  0
  2  3  1  0  0  0  0
  2  4  1  0  0  0  0
  2  5  1  0  0  0  0
  5  6  2  0  0  0  0
  5  7  1  0  0  0  0
  7  8  1  0  0  0  0
  7  9  1  0  0  0  0
  9 10  1  0  0  0  0
  9 11  1  0  0  0  0
  9 18  1  0  0  0  0
 11 12  1  0  0  0  0
 11 13  1  0  0  0  0
 11 14  1  0  0  0  0
 14 15  2  0  0  0  0
 14 16  1  0  0  0  0
 16 17  1  0  0  0  0
 18 19  2  0  0  0  0
 18 20  1  0  0  0  0
 20 21  1  0  0  0  0
 20 22  1  0  0  0  0
 22 23  1  0  0  0  0
 22 24  1  0  0  0  0
 22 25  1  0  0  0  0
M  END
$$$$

  -OEChem-02102214113D

 25 24  0     1  0  0  0  0  0999 V2000
   -2.4555   -3.7674   -0.3293 H   0  0  0  0  0  0  0  0  0  0  0  0
   -2.5288   -2.7116   -0.6055 C   0  0  0  0  0  0  0  0  0  0  0  0
   -3.2373   -2.2204    0.0656 H   0  0  0  0  0  0  0  0  0  0  0  0
   -2.8989   -2.6426   -1.6315 H   0  0  0  0  0  0  0  0  0  0  0  0
   -1.1678   -2.0499   -0.5004 C   0  0  0  0  0  0  0  0  0  0  0  0
   -0.2068   -2.6942   -0.1205 O   0  0  0  0  0  0  0  0  0  0  0  0
   -1.0262   -0.7165   -0.8324 N   0  0  0  0  0  0  0  0  0  0  0  0
   -1.8639   -0.2263   -1.1353 H   0  0  0  0  0  0  0  0  0  0  0  0
    0.2542    0.0200   -0.8001 C   0  0  1  0  0  0  0  0  0  0  0  0
    0.9464   -0.5346   -1.4455 H   0  0  0  0  0  0  0  0  0  0  0  0
    0.1331    1.4483   -1.3863 C   0  0  0  0  0  0  0  0  0  0  0  0
    0.1461    2.1796   -0.5725 H   0  0  0  0  0  0  0  0  0  0  0  0
    1.0083    1.6527   -2.0102 H   0  0  0  0  0  0  0  0  0  0  0  0
   -1.1292    1.7022   -2.1979 C   0  0  0  0  0  0  0  0  0  0  0  0
   -1.1082    1.4798   -3.3949 O   0  0  0  0  0  0  0  0  0  0  0  0
   -2.2407    2.0934   -1.5304 O   0  0  0  0  0  0  0  0  0  0  0  0
   -2.9170    2.2496   -2.2091 H   0  0  0  0  0  0  0  0  0  0  0  0
    0.9270    0.0674    0.5891 C   0  0  0  0  0  0  0  0  0  0  0  0
    2.1472    0.0972    0.6692 O   0  0  0  0  0  0  0  0  0  0  0  0
    0.1713    0.3499    1.7127 N   0  0  0  0  0  0  0  0  0  0  0  0
   -0.8356    0.2733    1.6131 H   0  0  0  0  0  0  0  0  0  0  0  0
    0.7435    0.4447    3.0500 C   0  0  0  0  0  0  0  0  0  0  0  0
    1.5019    1.2339    3.0884 H   0  0  0  0  0  0  0  0  0  0  0  0
   -0.0364    0.6815    3.7799 H   0  0  0  0  0  0  0  0  0  0  0  0
    1.2091   -0.5051    3.3338 H   0  0  0  0  0  0  0  0  0  0  0  0
  1  2  1  0  0  0  0
  2  3  1  0  0  0  0
  2  4  1  0  0  0  0
  2  5  1  0  0  0  0
  5  6  2  0  0  0  0
  5  7  1  0  0  0  0
  7  8  1  0  0  0  0
  7  9  1  0  0  0  0
  9 10  1  0  0  0  0
  9 11  1  0  0  0  0
  9 18  1  0  0  0  0
 11 12  1  0  0  0  0
 11 13  1  0  0  0  0
 11 14  1  0  0  0  0
 14 15  2  0  0  0  0
 14 16  1  0  0  0  0
 16 17  1  0  0  0  0
 18 19  2  0  0  0  0
 18 20  1  0  0  0  0
 20 21  1  0  0  0  0
 20 22  1  0  0  0  0
 22 23  1  0  0  0  0
 22 24  1  0  0  0  0
 22 25  1  0  0  0  0
M  END
$$$$

  -OEChem-02102214113D

 25 24  0     1  0  0  0  0  0999 V2000
   -2.4567   -3.7911   -0.3819 H   0  0  0  0  0  0  0  0  0  0  0  0
   -2.5293   -2.7400   -0.6757 C   0  0  0  0  0  0  0  0  0  0  0  0
   -3.3203   -2.2645   -0.0908 H   0  0  0  0  0  0  0  0  0  0  0  0
   -2.7873   -2.6898   -1.7363 H   0  0  0  0  0  0  0  0  0  0  0  0
   -1.2077   -2.0375   -0.4286 C   0  0  0  0  0  0  0  0  0  0  0  0
   -0.2878   -2.6438    0.0902 O   0  0  0  0  0  0  0  0  0  0  0  0
   -1.0609   -0.7119   -0.7903 N   0  0  0  0  0  0  0  0  0  0  0  0
   -1.8186   -0.3226   -1.3446 H   0  0  0  0  0  0  0  0  0  0  0  0
    0.2333    0.0032   -0.7869 C   0  0  1  0  0  0  0  0  0  0  0  0
    0.9089   -0.5669   -1.4359 H   0  0  0  0  0  0  0  0  0  0  0  0
    0.1244    1.4335   -1.3750 C   0  0  0  0  0  0  0  0  0  0  0  0
    0.1724    2.1666   -0.5640 H   0  0  0  0  0  0  0  0  0  0  0  0
    0.9875    1.6199   -2.0205 H   0  0  0  0  0  0  0  0  0  0  0  0
   -1.1486    1.7140   -2.1601 C   0  0  0  0  0  0  0  0  0  0  0  0
   -1.2598    1.2417   -3.2777 O   0  0  0  0  0  0  0  0  0  0  0  0
   -2.1188    2.4371   -1.5541 O   0  0  0  0  0  0  0  0  0  0  0  0
   -2.8243    2.5507   -2.2101 H   0  0  0  0  0  0  0  0  0  0  0  0
    0.9252    0.0649    0.5930 C   0  0  0  0  0  0  0  0  0  0  0  0
    2.1471    0.0821    0.6536 O   0  0  0  0  0  0  0  0  0  0  0  0
    0.1889    0.3812    1.7201 N   0  0  0  0  0  0  0  0  0  0  0  0
   -0.8186    0.2913    1.6374 H   0  0  0  0  0  0  0  0  0  0  0  0
    0.7801    0.4798    3.0487 C   0  0  0  0  0  0  0  0  0  0  0  0
    1.5633    1.2452    3.0648 H   0  0  0  0  0  0  0  0  0  0  0  0
    0.0168    0.7531    3.7835 H   0  0  0  0  0  0  0  0  0  0  0  0
    1.2192   -0.4794    3.3431 H   0  0  0  0  0  0  0  0  0  0  0  0
  1  2  1  0  0  0  0
  2  3  1  0  0  0  0
  2  4  1  0  0  0  0
  2  5  1  0  0  0  0
  5  6  2  0  0  0  0
  5  7  1  0  0  0  0
  7  8  1  0  0  0  0
  7  9  1  0  0  0  0
  9 10  1  0  0  0  0
  9 11  1  0  0  0  0
  9 18  1  0  0  0  0
 11 12  1  0  0  0  0
 11 13  1  0  0  0  0
 11 14  1  0  0  0  0
 14 15  2  0  0  0  0
 14 16  1  0  0  0  0
 16 17  1  0  0  0  0
 18 19  2  0  0  0  0
 18 20  1  0  0  0  0
 20 21  1  0  0  0  0
 20 22  1  0  0  0  0
 22 23  1  0  0  0  0
 22 24  1  0  0  0  0
 22 25  1  0  0  0  0
M  END
$$$$

  -OEChem-02102214113D

 25 24  0     1  0  0  0  0  0999 V2000
   -2.4591   -3.8052   -0.4107 H   0  0  0  0  0  0  0  0  0  0  0  0
   -2.5267   -2.7578   -0.7183 C   0  0  0  0  0  0  0  0  0  0  0  0
   -3.3593   -2.2884   -0.1891 H   0  0  0  0  0  0  0  0  0  0  0  0
   -2.7179   -2.7198   -1.7935 H   0  0  0  0  0  0  0  0  0  0  0  0
   -1.2330   -2.0341   -0.3960 C   0  0  0  0  0  0  0  0  0  0  0  0
   -0.3407   -2.6214    0.1888 O   0  0  0  0  0  0  0  0  0  0  0  0
   -1.0817   -0.7126   -0.7703 N   0  0  0  0  0  0  0  0  0  0  0  0
   -1.7898   -0.3738   -1.4182 H   0  0  0  0  0  0  0  0  0  0  0  0
    0.2190   -0.0098   -0.7769 C   0  0  1  0  0  0  0  0  0  0  0  0
    0.8867   -0.5868   -1.4278 H   0  0  0  0  0  0  0  0  0  0  0  0
    0.1132    1.4222   -1.3677 C   0  0  0  0  0  0  0  0  0  0  0  0
    0.1753    2.1534   -0.5555 H   0  0  0  0  0  0  0  0  0  0  0  0
    0.9724    1.6026   -2.0196 H   0  0  0  0  0  0  0  0  0  0  0  0
   -1.1613    1.7253   -2.1459 C   0  0  0  0  0  0  0  0  0  0  0  0
   -1.4212    1.0536   -3.1304 O   0  0  0  0  0  0  0  0  0  0  0  0
   -1.9596    2.7162   -1.6855 O   0  0  0  0  0  0  0  0  0  0  0  0
   -2.6939    2.7925   -2.3142 H   0  0  0  0  0  0  0  0  0  0  0  0
    0.9211    0.0593    0.5979 C   0  0  0  0  0  0  0  0  0  0  0  0
    2.1437    0.0721    0.6466 O   0  0  0  0  0  0  0  0  0  0  0  0
    0.1967    0.3926    1.7277 N   0  0  0  0  0  0  0  0  0  0  0  0
   -0.8106    0.2879    1.6584 H   0  0  0  0  0  0  0  0  0  0  0  0
    0.8023    0.5059    3.0485 C   0  0  0  0  0  0  0  0  0  0  0  0
    1.5916    1.2651    3.0452 H   0  0  0  0  0  0  0  0  0  0  0  0
    0.0491    0.7971    3.7867 H   0  0  0  0  0  0  0  0  0  0  0  0
    1.2366   -0.4522    3.3530 H   0  0  0  0  0  0  0  0  0  0  0  0
  1  2  1  0  0  0  0
  2  3  1  0  0  0  0
  2  4  1  0  0  0  0
  2  5  1  0  0  0  0
  5  6  2  0  0  0  0
  5  7  1  0  0  0  0
  7  8  1  0  0  0  0
  7  9  1  0  0  0  0
  9 10  1  0  0  0  0
  9 11  1  0  0  0  0
  9 18  1  0  0  0  0
 11 12  1  0  0  0  0
 11 13  1  0  0  0  0
 11 14  1  0  0  0  0
 14 15  2  0  0  0  0
 14 16  1  0  0  0  0
 16 17  1  0  0  0  0
 18 19  2  0  0  0  0
 18 20  1  0  0  0  0
 20 21  1  0  0  0  0
 20 22  1  0  0  0  0
 22 23  1  0  0  0  0
 22 24  1  0  0  0  0
 22 25  1  0  0  0  0
M  END
$$$$

  -OEChem-02102214113D

 25 24  0     1  0  0  0  0  0999 V2000
   -2.4416   -3.8289   -0.3968 H   0  0  0  0  0  0  0  0  0  0  0  0
   -2.5165   -2.7839   -0.7107 C   0  0  0  0  0  0  0  0  0  0  0  0
   -3.3573   -2.3193   -0.1905 H   0  0  0  0  0  0  0  0  0  0  0  0
   -2.7004   -2.7534   -1.7874 H   0  0  0  0  0  0  0  0  0  0  0  0
   -1.2319   -2.0466   -0.3829 C   0  0  0  0  0  0  0  0  0  0  0  0
   -0.3376   -2.6234    0.2097 O   0  0  0  0  0  0  0  0  0  0  0  0
   -1.0902   -0.7249   -0.7601 N   0  0  0  0  0  0  0  0  0  0  0  0
   -1.7948   -0.3956   -1.4188 H   0  0  0  0  0  0  0  0  0  0  0  0
    0.2049   -0.0141   -0.7750 C   0  0  1  0  0  0  0  0  0  0  0  0
    0.8720   -0.5929   -1.4249 H   0  0  0  0  0  0  0  0  0  0  0  0
    0.0983    1.4169   -1.3736 C   0  0  0  0  0  0  0  0  0  0  0  0
    0.1628    2.1448   -0.5588 H   0  0  0  0  0  0  0  0  0  0  0  0
    0.9631    1.5925   -2.0190 H   0  0  0  0  0  0  0  0  0  0  0  0
   -1.1647    1.7551   -2.1625 C   0  0  0  0  0  0  0  0  0  0  0  0
   -1.5958    0.9563   -2.9794 O   0  0  0  0  0  0  0  0  0  0  0  0
   -1.7514    2.9470   -1.9062 O   0  0  0  0  0  0  0  0  0  0  0  0
   -2.5078    3.0167   -2.5086 H   0  0  0  0  0  0  0  0  0  0  0  0
    0.9126    0.0614    0.5966 C   0  0  0  0  0  0  0  0  0  0  0  0
    2.1352    0.0902    0.6391 O   0  0  0  0  0  0  0  0  0  0  0  0
    0.1896    0.3916    1.7281 N   0  0  0  0  0  0  0  0  0  0  0  0
   -0.8156    0.2665    1.6644 H   0  0  0  0  0  0  0  0  0  0  0  0
    0.7990    0.5093    3.0466 C   0  0  0  0  0  0  0  0  0  0  0  0
    1.5826    1.2742    3.0407 H   0  0  0  0  0  0  0  0  0  0  0  0
    0.0459    0.7949    3.7871 H   0  0  0  0  0  0  0  0  0  0  0  0
    1.2412   -0.4456    3.3497 H   0  0  0  0  0  0  0  0  0  0  0  0
  1  2  1  0  0  0  0
  2  3  1  0  0  0  0
  2  4  1  0  0  0  0
  2  5  1  0  0  0  0
  5  6  2  0  0  0  0
  5  7  1  0  0  0  0
  7  8  1  0  0  0  0
  7  9  1  0  0  0  0
  9 10  1  0  0  0  0
  9 11  1  0  0  0  0
  9 18  1  0  0  0  0
 11 12  1  0  0  0  0
 11 13  1  0  0  0  0
 11 14  1  0  0  0  0
 14 15  2  0  0  0  0
 14 16  1  0  0  0  0
 16 17  1  0  0  0  0
 18 19  2  0  0  0  0
 18 20  1  0  0  0  0
 20 21  1  0  0  0  0
 20 22  1  0  0  0  0
 22 23  1  0  0  0  0
 22 24  1  0  0  0  0
 22 25  1  0  0  0  0
M  END
$$$$

  -OEChem-02102214113D

 25 24  0     1  0  0  0  0  0999 V2000
   -2.4208   -3.8562   -0.3658 H   0  0  0  0  0  0  0  0  0  0  0  0
   -2.5058   -2.8131   -0.6832 C   0  0  0  0  0  0  0  0  0  0  0  0
   -3.3400   -2.3495   -0.1512 H   0  0  0  0  0  0  0  0  0  0  0  0
   -2.7079   -2.7880   -1.7570 H   0  0  0  0  0  0  0  0  0  0  0  0
   -1.2192   -2.0687   -0.3801 C   0  0  0  0  0  0  0  0  0  0  0  0
   -0.3084   -2.6415    0.1910 O   0  0  0  0  0  0  0  0  0  0  0  0
   -1.0932   -0.7451   -0.7550 N   0  0  0  0  0  0  0  0  0  0  0  0
   -1.8183   -0.4080   -1.3882 H   0  0  0  0  0  0  0  0  0  0  0  0
    0.1897   -0.0150   -0.7768 C   0  0  1  0  0  0  0  0  0  0  0  0
    0.8607   -0.5914   -1.4245 H   0  0  0  0  0  0  0  0  0  0  0  0
    0.0818    1.4145   -1.3859 C   0  0  0  0  0  0  0  0  0  0  0  0
    0.1425    2.1409   -0.5694 H   0  0  0  0  0  0  0  0  0  0  0  0
    0.9568    1.5846   -2.0189 H   0  0  0  0  0  0  0  0  0  0  0  0
   -1.1625    1.7906   -2.1937 C   0  0  0  0  0  0  0  0  0  0  0  0
   -1.7769    0.9427   -2.8231 O   0  0  0  0  0  0  0  0  0  0  0  0
   -1.5182    3.0957   -2.1685 O   0  0  0  0  0  0  0  0  0  0  0  0
   -2.2953    3.1804   -2.7418 H   0  0  0  0  0  0  0  0  0  0  0  0
    0.9004    0.0669    0.5928 C   0  0  0  0  0  0  0  0  0  0  0  0
    2.1226    0.1153    0.6318 O   0  0  0  0  0  0  0  0  0  0  0  0
    0.1757    0.3833    1.7272 N   0  0  0  0  0  0  0  0  0  0  0  0
   -0.8272    0.2387    1.6670 H   0  0  0  0  0  0  0  0  0  0  0  0
    0.7880    0.5094    3.0437 C   0  0  0  0  0  0  0  0  0  0  0  0
    1.5557    1.2903    3.0367 H   0  0  0  0  0  0  0  0  0  0  0  0
    0.0325    0.7774    3.7884 H   0  0  0  0  0  0  0  0  0  0  0  0
    1.2512   -0.4371    3.3420 H   0  0  0  0  0  0  0  0  0  0  0  0
  1  2  1  0  0  0  0
  2  3  1  0  0  0  0
  2  4  1  0  0  0  0
  2  5  1  0  0  0  0
  5  6  2  0  0  0  0
  5  7  1  0  0  0  0
  7  8  1  0  0  0  0
  7  9  1  0  0  0  0
  9 10  1  0  0  0  0
  9 11  1  0  0  0  0
  9 18  1  0  0  0  0
 11 12  1  0  0  0  0
 11 13  1  0  0  0  0
 11 14  1  0  0  0  0
 14 15  2  0  0  0  0
 14 16  1  0  0  0  0
 16 17  1  0  0  0  0
 18 19  2  0  0  0  0
 18 20  1  0  0  0  0
 20 21  1  0  0  0  0
 20 22  1  0  0  0  0
 22 23  1  0  0  0  0
 22 24  1  0  0  0  0
 22 25  1  0  0  0  0
M  END
$$$$

  -OEChem-02102214113D

 25 24  0     1  0  0  0  0  0999 V2000
   -2.3940   -3.8819   -0.3486 H   0  0  0  0  0  0  0  0  0  0  0  0
   -2.4961   -2.8347   -0.6470 C   0  0  0  0  0  0  0  0  0  0  0  0
   -3.3117   -2.3833   -0.0771 H   0  0  0  0  0  0  0  0  0  0  0  0
   -2.7387   -2.7952   -1.7117 H   0  0  0  0  0  0  0  0  0  0  0  0
   -1.2025   -2.0877   -0.3818 C   0  0  0  0  0  0  0  0  0  0  0  0
   -0.2724   -2.6591    0.1590 O   0  0  0  0  0  0  0  0  0  0  0  0
   -1.0913   -0.7627   -0.7552 N   0  0  0  0  0  0  0  0  0  0  0  0
   -1.8456   -0.4098   -1.3449 H   0  0  0  0  0  0  0  0  0  0  0  0
    0.1784   -0.0122   -0.7819 C   0  0  1  0  0  0  0  0  0  0  0  0
    0.8549   -0.5862   -1.4260 H   0  0  0  0  0  0  0  0  0  0  0  0
    0.0681    1.4146   -1.4019 C   0  0  0  0  0  0  0  0  0  0  0  0
    0.1213    2.1421   -0.5860 H   0  0  0  0  0  0  0  0  0  0  0  0
    0.9529    1.5800   -2.0228 H   0  0  0  0  0  0  0  0  0  0  0  0
   -1.1584    1.8176   -2.2286 C   0  0  0  0  0  0  0  0  0  0  0  0
   -1.9453    0.9868   -2.6564 O   0  0  0  0  0  0  0  0  0  0  0  0
   -1.2976    3.1450   -2.4490 O   0  0  0  0  0  0  0  0  0  0  0  0
   -2.0933    3.2516   -2.9925 H   0  0  0  0  0  0  0  0  0  0  0  0
    0.8896    0.0787    0.5868 C   0  0  0  0  0  0  0  0  0  0  0  0
    2.1111    0.1409    0.6249 O   0  0  0  0  0  0  0  0  0  0  0  0
    0.1623    0.3817    1.7233 N   0  0  0  0  0  0  0  0  0  0  0  0
   -0.8391    0.2268    1.6630 H   0  0  0  0  0  0  0  0  0  0  0  0
    0.7750    0.5026    3.0404 C   0  0  0  0  0  0  0  0  0  0  0  0
    1.5422    1.2843    3.0373 H   0  0  0  0  0  0  0  0  0  0  0  0
    0.0197    0.7654    3.7871 H   0  0  0  0  0  0  0  0  0  0  0  0
    1.2391   -0.4450    3.3332 H   0  0  0  0  0  0  0  0  0  0  0  0
  1  2  1  0  0  0  0
  2  3  1  0  0  0  0
  2  4  1  0  0  0  0
  2  5  1  0  0  0  0
  5  6  2  0  0  0  0
  5  7  1  0  0  0  0
  7  8  1  0  0  0  0
  7  9  1  0  0  0  0
  9 10  1  0  0  0  0
  9 11  1  0  0  0  0
  9 18  1  0  0  0  0
 11 12  1  0  0  0  0
 11 13  1  0  0  0  0
 11 14  1  0  0  0  0
 14 15  2  0  0  0  0
 14 16  1  0  0  0  0
 16 17  1  0  0  0  0
 18 19  2  0  0  0  0
 18 20  1  0  0  0  0
 20 21  1  0  0  0  0
 20 22  1  0  0  0  0
 22 23  1  0  0  0  0
 22 24  1  0  0  0  0
 22 25  1  0  0  0  0
M  END
$$$$

  -OEChem-02102214113D

 25 24  0     1  0  0  0  0  0999 V2000
   -2.3873   -3.8882   -0.3068 H   0  0  0  0  0  0  0  0  0  0  0  0
   -2.4924   -2.8418   -0.6078 C   0  0  0  0  0  0  0  0  0  0  0  0
   -3.2840   -2.3810   -0.0122 H   0  0  0  0  0  0  0  0  0  0  0  0
   -2.7725   -2.8062   -1.6634 H   0  0  0  0  0  0  0  0  0  0  0  0
   -1.1848   -2.1030   -0.3936 C   0  0  0  0  0  0  0  0  0  0  0  0
   -0.2350   -2.6816    0.1035 O   0  0  0  0  0  0  0  0  0  0  0  0
   -1.0812   -0.7769   -0.7646 N   0  0  0  0  0  0  0  0  0  0  0  0
   -1.8677   -0.3983   -1.2934 H   0  0  0  0  0  0  0  0  0  0  0  0
    0.1790   -0.0123   -0.7937 C   0  0  1  0  0  0  0  0  0  0  0  0
    0.8610   -0.5821   -1.4358 H   0  0  0  0  0  0  0  0  0  0  0  0
    0.0662    1.4151   -1.4148 C   0  0  0  0  0  0  0  0  0  0  0  0
    0.1194    2.1432   -0.5998 H   0  0  0  0  0  0  0  0  0  0  0  0
    0.9547    1.5765   -2.0319 H   0  0  0  0  0  0  0  0  0  0  0  0
   -1.1522    1.8328   -2.2484 C   0  0  0  0  0  0  0  0  0  0  0  0
   -2.0849    1.0743   -2.4644 O   0  0  0  0  0  0  0  0  0  0  0  0
   -1.1138    3.1010   -2.7173 O   0  0  0  0  0  0  0  0  0  0  0  0
   -1.9291    3.2304   -3.2255 H   0  0  0  0  0  0  0  0  0  0  0  0
    0.8862    0.0814    0.5765 C   0  0  0  0  0  0  0  0  0  0  0  0
    2.1068    0.1563    0.6195 O   0  0  0  0  0  0  0  0  0  0  0  0
    0.1514    0.3732    1.7110 N   0  0  0  0  0  0  0  0  0  0  0  0
   -0.8492    0.2163    1.6443 H   0  0  0  0  0  0  0  0  0  0  0  0
    0.7562    0.4967    3.0313 C   0  0  0  0  0  0  0  0  0  0  0  0
    1.5132    1.2881    3.0349 H   0  0  0  0  0  0  0  0  0  0  0  0
   -0.0063    0.7473    3.7749 H   0  0  0  0  0  0  0  0  0  0  0  0
    1.2309   -0.4461    3.3229 H   0  0  0  0  0  0  0  0  0  0  0  0
  1  2  1  0  0  0  0
  2  3  1  0  0  0  0
  2  4  1  0  0  0  0
  2  5  1  0  0  0  0
  5  6  2  0  0  0  0
  5  7  1  0  0  0  0
  7  8  1  0  0  0  0
  7  9  1  0  0  0  0
  9 10  1  0  0  0  0
  9 11  1  0  0  0  0
  9 18  1  0  0  0  0
 11 12  1  0  0  0  0
 11 13  1  0  0  0  0
 11 14  1  0  0  0  0
 14 15  2  0  0  0  0
 14 16  1  0  0  0  0
 16 17  1  0  0  0  0
 18 19  2  0  0  0  0
 18 20  1  0  0  0  0
 20 21  1  0  0  0  0
 20 22  1  0  0  0  0
 22 23  1  0  0  0  0
 22 24  1  0  0  0  0
 22 25  1  0  0  0  0
M  END
$$$$

  -OEChem-02102214113D

 25 24  0     1  0  0  0  0  0999 V2000
   -2.3877   -3.8824   -0.2844 H   0  0  0  0  0  0  0  0  0  0  0  0
   -2.4946   -2.8346   -0.5797 C   0  0  0  0  0  0  0  0  0  0  0  0
   -3.2596   -2.3681    0.0454 H   0  0  0  0  0  0  0  0  0  0  0  0
   -2.8136   -2.7945   -1.6240 H   0  0  0  0  0  0  0  0  0  0  0  0
   -1.1734   -2.1076   -0.4131 C   0  0  0  0  0  0  0  0  0  0  0  0
   -0.2085   -2.6972    0.0404 O   0  0  0  0  0  0  0  0  0  0  0  0
   -1.0719   -0.7797   -0.7779 N   0  0  0  0  0  0  0  0  0  0  0  0
   -1.8855   -0.3712   -1.2392 H   0  0  0  0  0  0  0  0  0  0  0  0
    0.1834   -0.0074   -0.8012 C   0  0  1  0  0  0  0  0  0  0  0  0
    0.8705   -0.5741   -1.4407 H   0  0  0  0  0  0  0  0  0  0  0  0
    0.0707    1.4193   -1.4237 C   0  0  0  0  0  0  0  0  0  0  0  0
    0.1200    2.1508   -0.6117 H   0  0  0  0  0  0  0  0  0  0  0  0
    0.9622    1.5775   -2.0378 H   0  0  0  0  0  0  0  0  0  0  0  0
   -1.1443    1.8319   -2.2651 C   0  0  0  0  0  0  0  0  0  0  0  0
   -2.1820    1.1875   -2.2684 O   0  0  0  0  0  0  0  0  0  0  0  0
   -0.9811    2.9642   -2.9869 O   0  0  0  0  0  0  0  0  0  0  0  0
   -1.8125    3.1086   -3.4639 H   0  0  0  0  0  0  0  0  0  0  0  0
    0.8846    0.0838    0.5723 C   0  0  0  0  0  0  0  0  0  0  0  0
    2.1049    0.1595    0.6211 O   0  0  0  0  0  0  0  0  0  0  0  0
    0.1458    0.3660    1.7068 N   0  0  0  0  0  0  0  0  0  0  0  0
   -0.8558    0.2170    1.6354 H   0  0  0  0  0  0  0  0  0  0  0  0
    0.7460    0.4849    3.0296 C   0  0  0  0  0  0  0  0  0  0  0  0
    1.5053    1.2741    3.0378 H   0  0  0  0  0  0  0  0  0  0  0  0
   -0.0181    0.7364    3.7711 H   0  0  0  0  0  0  0  0  0  0  0  0
    1.2172   -0.4597    3.3211 H   0  0  0  0  0  0  0  0  0  0  0  0
  1  2  1  0  0  0  0
  2  3  1  0  0  0  0
  2  4  1  0  0  0  0
  2  5  1  0  0  0  0
  5  6  2  0  0  0  0
  5  7  1  0  0  0  0
  7  8  1  0  0  0  0
  7  9  1  0  0  0  0
  9 10  1  0  0  0  0
  9 11  1  0  0  0  0
  9 18  1  0  0  0  0
 11 12  1  0  0  0  0
 11 13  1  0  0  0  0
 11 14  1  0  0  0  0
 14 15  2  0  0  0  0
 14 16  1  0  0  0  0
 16 17  1  0  0  0  0
 18 19  2  0  0  0  0
 18 20  1  0  0  0  0
 20 21  1  0  0  0  0
 20 22  1  0  0  0  0
 22 23  1  0  0  0  0
 22 24  1  0  0  0  0
 22 25  1  0  0  0  0
M  END
$$$$

  -OEChem-02102214113D

 25 24  0     1  0  0  0  0  0999 V2000
   -2.4025   -3.8585   -0.2715 H   0  0  0  0  0  0  0  0  0  0  0  0
   -2.5018   -2.8093   -0.5638 C   0  0  0  0  0  0  0  0  0  0  0  0
   -3.2384   -2.3306    0.0858 H   0  0  0  0  0  0  0  0  0  0  0  0
   -2.8532   -2.7641   -1.5975 H   0  0  0  0  0  0  0  0  0  0  0  0
   -1.1643   -2.1042   -0.4410 C   0  0  0  0  0  0  0  0  0  0  0  0
   -0.1915   -2.7126   -0.0315 O   0  0  0  0  0  0  0  0  0  0  0  0
   -1.0553   -0.7751   -0.7979 N   0  0  0  0  0  0  0  0  0  0  0  0
   -1.8895   -0.3311   -1.1829 H   0  0  0  0  0  0  0  0  0  0  0  0
    0.2008   -0.0041   -0.8088 C   0  0  1  0  0  0  0  0  0  0  0  0
    0.8921   -0.5675   -1.4468 H   0  0  0  0  0  0  0  0  0  0  0  0
    0.0869    1.4235   -1.4259 C   0  0  0  0  0  0  0  0  0  0  0  0
    0.1294    2.1569   -0.6155 H   0  0  0  0  0  0  0  0  0  0  0  0
    0.9790    1.5866   -2.0379 H   0  0  0  0  0  0  0  0  0  0  0  0
   -1.1336    1.8135   -2.2678 C   0  0  0  0  0  0  0  0  0  0  0  0
   -2.2326    1.3192   -2.0654 O   0  0  0  0  0  0  0  0  0  0  0  0
   -0.9086    2.7408   -3.2268 O   0  0  0  0  0  0  0  0  0  0  0  0
   -1.7584    2.8932   -3.6674 H   0  0  0  0  0  0  0  0  0  0  0  0
    0.8918    0.0796    0.5702 C   0  0  0  0  0  0  0  0  0  0  0  0
    2.1118    0.1512    0.6297 O   0  0  0  0  0  0  0  0  0  0  0  0
    0.1441    0.3572    1.7000 N   0  0  0  0  0  0  0  0  0  0  0  0
   -0.8589    0.2257    1.6172 H   0  0  0  0  0  0  0  0  0  0  0  0
    0.7318    0.4737    3.0289 C   0  0  0  0  0  0  0  0  0  0  0  0
    1.4909    1.2630    3.0460 H   0  0  0  0  0  0  0  0  0  0  0  0
   -0.0397    0.7234    3.7633 H   0  0  0  0  0  0  0  0  0  0  0  0
    1.1999   -0.4716    3.3234 H   0  0  0  0  0  0  0  0  0  0  0  0
  1  2  1  0  0  0  0
  2  3  1  0  0  0  0
  2  4  1  0  0  0  0
  2  5  1  0  0  0  0
  5  6  2  0  0  0  0
  5  7  1  0  0  0  0
  7  8  1  0  0  0  0
  7  9  1  0  0  0  0
  9 10  1  0  0  0  0
  9 11  1  0  0  0  0
  9 18  1  0  0  0  0
 11 12  1  0  0  0  0
 11 13  1  0  0  0  0
 11 14  1  0  0  0  0
 14 15  2  0  0  0  0
 14 16  1  0  0  0  0
 16 17  1  0  0  0  0
 18 19  2  0  0  0  0
 18 20  1  0  0  0  0
 20 21  1  0  0  0  0
 20 22  1  0  0  0  0
 22 23  1  0  0  0  0
 22 24  1  0  0  0  0
 22 25  1  0  0  0  0
M  END
$$$$

  -OEChem-02102214113D

 25 24  0     1  0  0  0  0  0999 V2000
   -2.4217   -3.8215   -0.2613 H   0  0  0  0  0  0  0  0  0  0  0  0
   -2.5090   -2.7715   -0.5545 C   0  0  0  0  0  0  0  0  0  0  0  0
   -3.2145   -2.2758    0.1165 H   0  0  0  0  0  0  0  0  0  0  0  0
   -2.8919   -2.7223   -1.5767 H   0  0  0  0  0  0  0  0  0  0  0  0
   -1.1543   -2.0937   -0.4772 C   0  0  0  0  0  0  0  0  0  0  0  0
   -0.1787   -2.7232   -0.1085 O   0  0  0  0  0  0  0  0  0  0  0  0
   -1.0329   -0.7636   -0.8265 N   0  0  0  0  0  0  0  0  0  0  0  0
   -1.8799   -0.2852   -1.1350 H   0  0  0  0  0  0  0  0  0  0  0  0
    0.2283   -0.0003   -0.8178 C   0  0  1  0  0  0  0  0  0  0  0  0
    0.9258   -0.5588   -1.4536 H   0  0  0  0  0  0  0  0  0  0  0  0
    0.1117    1.4289   -1.4245 C   0  0  0  0  0  0  0  0  0  0  0  0
    0.1417    2.1619   -0.6131 H   0  0  0  0  0  0  0  0  0  0  0  0
    1.0016    1.6054   -2.0362 H   0  0  0  0  0  0  0  0  0  0  0  0
   -1.1204    1.7784   -2.2625 C   0  0  0  0  0  0  0  0  0  0  0  0
   -2.2382    1.4653   -1.8793 O   0  0  0  0  0  0  0  0  0  0  0  0
   -0.8933    2.4472   -3.4163 O   0  0  0  0  0  0  0  0  0  0  0  0
   -1.7606    2.6034   -3.8200 H   0  0  0  0  0  0  0  0  0  0  0  0
    0.9020    0.0725    0.5699 C   0  0  0  0  0  0  0  0  0  0  0  0
    2.1215    0.1295    0.6475 O   0  0  0  0  0  0  0  0  0  0  0  0
    0.1416    0.3498    1.6914 N   0  0  0  0  0  0  0  0  0  0  0  0
   -0.8630    0.2445    1.5927 H   0  0  0  0  0  0  0  0  0  0  0  0
    0.7113    0.4623    3.0284 C   0  0  0  0  0  0  0  0  0  0  0  0
    1.4696    1.2518    3.0577 H   0  0  0  0  0  0  0  0  0  0  0  0
   -0.0701    0.7092    3.7534 H   0  0  0  0  0  0  0  0  0  0  0  0
    1.1760   -0.4838    3.3261 H   0  0  0  0  0  0  0  0  0  0  0  0
  1  2  1  0  0  0  0
  2  3  1  0  0  0  0
  2  4  1  0  0  0  0
  2  5  1  0  0  0  0
  5  6  2  0  0  0  0
  5  7  1  0  0  0  0
  7  8  1  0  0  0  0
  7  9  1  0  0  0  0
  9 10  1  0  0  0  0
  9 11  1  0  0  0  0
  9 18  1  0  0  0  0
 11 12  1  0  0  0  0
 11 13  1  0  0  0  0
 11 14  1  0  0  0  0
 14 15  2  0  0  0  0
 14 16  1  0  0  0  0
 16 17  1  0  0  0  0
 18 19  2  0  0  0  0
 18 20  1  0  0  0  0
 20 21  1  0  0  0  0
 20 22  1  0  0  0  0
 22 23  1  0  0  0  0
 22 24  1  0  0  0  0
 22 25  1  0  0  0  0
M  END
$$$$

  -OEChem-02102214113D

 25 24  0     1  0  0  0  0  0999 V2000
   -2.4442   -3.7849   -0.2759 H   0  0  0  0  0  0  0  0  0  0  0  0
   -2.5193   -2.7324   -0.5641 C   0  0  0  0  0  0  0  0  0  0  0  0
   -3.2007   -2.2264    0.1239 H   0  0  0  0  0  0  0  0  0  0  0  0
   -2.9245   -2.6736   -1.5771 H   0  0  0  0  0  0  0  0  0  0  0  0
   -1.1512   -2.0787   -0.5158 C   0  0  0  0  0  0  0  0  0  0  0  0
   -0.1767   -2.7284   -0.1809 O   0  0  0  0  0  0  0  0  0  0  0  0
   -1.0159   -0.7468   -0.8537 N   0  0  0  0  0  0  0  0  0  0  0  0
   -1.8681   -0.2400   -1.0939 H   0  0  0  0  0  0  0  0  0  0  0  0
    0.2532    0.0044   -0.8196 C   0  0  1  0  0  0  0  0  0  0  0  0
    0.9560   -0.5495   -1.4534 H   0  0  0  0  0  0  0  0  0  0  0  0
    0.1347    1.4338   -1.4166 C   0  0  0  0  0  0  0  0  0  0  0  0
    0.1473    2.1670   -0.6047 H   0  0  0  0  0  0  0  0  0  0  0  0
    1.0222    1.6261   -2.0268 H   0  0  0  0  0  0  0  0  0  0  0  0
   -1.1076    1.7310   -2.2528 C   0  0  0  0  0  0  0  0  0  0  0  0
   -2.2115    1.6305   -1.7369 O   0  0  0  0  0  0  0  0  0  0  0  0
   -0.9166    2.0937   -3.5422 O   0  0  0  0  0  0  0  0  0  0  0  0
   -1.7954    2.2564   -3.9175 H   0  0  0  0  0  0  0  0  0  0  0  0
    0.9114    0.0642    0.5758 C   0  0  0  0  0  0  0  0  0  0  0  0
    2.1304    0.1061    0.6678 O   0  0  0  0  0  0  0  0  0  0  0  0
    0.1420    0.3425    1.6909 N   0  0  0  0  0  0  0  0  0  0  0  0
   -0.8642    0.2703    1.5798 H   0  0  0  0  0  0  0  0  0  0  0  0
    0.7000    0.4597    3.0323 C   0  0  0  0  0  0  0  0  0  0  0  0
    1.4495    1.2574    3.0677 H   0  0  0  0  0  0  0  0  0  0  0  0
   -0.0893    0.6975    3.7518 H   0  0  0  0  0  0  0  0  0  0  0  0
    1.1727   -0.4815    3.3330 H   0  0  0  0  0  0  0  0  0  0  0  0
  1  2  1  0  0  0  0
  2  3  1  0  0  0  0
  2  4  1  0  0  0  0
  2  5  1  0  0  0  0
  5  6  2  0  0  0  0
  5  7  1  0  0  0  0
  7  8  1  0  0  0  0
  7  9  1  0  0  0  0
  9 10  1  0  0  0  0
  9 11  1  0  0  0  0
  9 18  1  0  0  0  0
 11 12  1  0  0  0  0
 11 13  1  0  0  0  0
 11 14  1  0  0  0  0
 14 15  2  0  0  0  0
 14 16  1  0  0  0  0
 16 17  1  0  0  0  0
 18 19  2  0  0  0  0
 18 20  1  0  0  0  0
 20 21  1  0  0  0  0
 20 22  1  0  0  0  0
 22 23  1  0  0  0  0
 22 24  1  0  0  0  0
 22 25  1  0  0  0  0
M  END
$$$$

  -OEChem-02102214113D

 25 24  0     1  0  0  0  0  0999 V2000
   -2.4550   -3.7583   -0.2890 H   0  0  0  0  0  0  0  0  0  0  0  0
   -2.5246   -2.7044   -0.5729 C   0  0  0  0  0  0  0  0  0  0  0  0
   -3.1908   -2.1942    0.1267 H   0  0  0  0  0  0  0  0  0  0  0  0
   -2.9443   -2.6387   -1.5796 H   0  0  0  0  0  0  0  0  0  0  0  0
   -1.1495   -2.0642   -0.5428 C   0  0  0  0  0  0  0  0  0  0  0  0
   -0.1763   -2.7254   -0.2273 O   0  0  0  0  0  0  0  0  0  0  0  0
   -1.0067   -0.7308   -0.8723 N   0  0  0  0  0  0  0  0  0  0  0  0
   -1.8606   -0.2089   -1.0659 H   0  0  0  0  0  0  0  0  0  0  0  0
    0.2689    0.0109   -0.8201 C   0  0  1  0  0  0  0  0  0  0  0  0
    0.9744   -0.5412   -1.4527 H   0  0  0  0  0  0  0  0  0  0  0  0
    0.1496    1.4388   -1.4116 C   0  0  0  0  0  0  0  0  0  0  0  0
    0.1509    2.1738   -0.6011 H   0  0  0  0  0  0  0  0  0  0  0  0
    1.0328    1.6416   -2.0242 H   0  0  0  0  0  0  0  0  0  0  0  0
   -1.0996    1.6898   -2.2460 C   0  0  0  0  0  0  0  0  0  0  0  0
   -2.1658    1.8335   -1.6673 O   0  0  0  0  0  0  0  0  0  0  0  0
   -0.9649    1.7280   -3.5917 O   0  0  0  0  0  0  0  0  0  0  0  0
   -1.8449    1.9120   -3.9539 H   0  0  0  0  0  0  0  0  0  0  0  0
    0.9178    0.0607    0.5800 C   0  0  0  0  0  0  0  0  0  0  0  0
    2.1364    0.0921    0.6813 O   0  0  0  0  0  0  0  0  0  0  0  0
    0.1428    0.3398    1.6912 N   0  0  0  0  0  0  0  0  0  0  0  0
   -0.8634    0.2826    1.5727 H   0  0  0  0  0  0  0  0  0  0  0  0
    0.6924    0.4577    3.0361 C   0  0  0  0  0  0  0  0  0  0  0  0
    1.4443    1.2531    3.0752 H   0  0  0  0  0  0  0  0  0  0  0  0
   -0.1010    0.6995    3.7496 H   0  0  0  0  0  0  0  0  0  0  0  0
    1.1597   -0.4844    3.3416 H   0  0  0  0  0  0  0  0  0  0  0  0
  1  2  1  0  0  0  0
  2  3  1  0  0  0  0
  2  4  1  0  0  0  0
  2  5  1  0  0  0  0
  5  6  2  0  0  0  0
  5  7  1  0  0  0  0
  7  8  1  0  0  0  0
  7  9  1  0  0  0  0
  9 10  1  0  0  0  0
  9 11  1  0  0  0  0
  9 18  1  0  0  0  0
 11 12  1  0  0  0  0
 11 13  1  0  0  0  0
 11 14  1  0  0  0  0
 14 15  2  0  0  0  0
 14 16  1  0  0  0  0
 16 17  1  0  0  0  0
 18 19  2  0  0  0  0
 18 20  1  0  0  0  0
 20 21  1  0  0  0  0
 20 22  1  0  0  0  0
 22 23  1  0  0  0  0
 22 24  1  0  0  0  0
 22 25  1  0  0  0  0
M  END
$$$$

  -OEChem-02102214113D

 25 24  0     1  0  0  0  0  0999 V2000
   -2.4593   -3.7554   -0.3008 H   0  0  0  0  0  0  0  0  0  0  0  0
   -2.5274   -2.7009   -0.5829 C   0  0  0  0  0  0  0  0  0  0  0  0
   -3.1988   -2.1928    0.1132 H   0  0  0  0  0  0  0  0  0  0  0  0
   -2.9400   -2.6332   -1.5924 H   0  0  0  0  0  0  0  0  0  0  0  0
   -1.1527   -2.0608   -0.5421 C   0  0  0  0  0  0  0  0  0  0  0  0
   -0.1825   -2.7218   -0.2177 O   0  0  0  0  0  0  0  0  0  0  0  0
   -1.0079   -0.7275   -0.8719 N   0  0  0  0  0  0  0  0  0  0  0  0
   -1.8602   -0.2095   -1.0752 H   0  0  0  0  0  0  0  0  0  0  0  0
    0.2708    0.0105   -0.8163 C   0  0  1  0  0  0  0  0  0  0  0  0
    0.9757   -0.5432   -1.4484 H   0  0  0  0  0  0  0  0  0  0  0  0
    0.1529    1.4360   -1.4093 C   0  0  0  0  0  0  0  0  0  0  0  0
    0.1548    2.1731   -0.6001 H   0  0  0  0  0  0  0  0  0  0  0  0
    1.0329    1.6388   -2.0261 H   0  0  0  0  0  0  0  0  0  0  0  0
   -1.0986    1.6698   -2.2430 C   0  0  0  0  0  0  0  0  0  0  0  0
   -2.1003    2.0792   -1.6796 O   0  0  0  0  0  0  0  0  0  0  0  0
   -1.0394    1.4002   -3.5675 O   0  0  0  0  0  0  0  0  0  0  0  0
   -1.9040    1.6359   -3.9368 H   0  0  0  0  0  0  0  0  0  0  0  0
    0.9192    0.0603    0.5840 C   0  0  0  0  0  0  0  0  0  0  0  0
    2.1379    0.0867    0.6853 O   0  0  0  0  0  0  0  0  0  0  0  0
    0.1453    0.3429    1.6949 N   0  0  0  0  0  0  0  0  0  0  0  0
   -0.8612    0.2929    1.5770 H   0  0  0  0  0  0  0  0  0  0  0  0
    0.6960    0.4629    3.0390 C   0  0  0  0  0  0  0  0  0  0  0  0
    1.4470    1.2592    3.0767 H   0  0  0  0  0  0  0  0  0  0  0  0
   -0.0968    0.7040    3.7533 H   0  0  0  0  0  0  0  0  0  0  0  0
    1.1652   -0.4784    3.3447 H   0  0  0  0  0  0  0  0  0  0  0  0
  1  2  1  0  0  0  0
  2  3  1  0  0  0  0
  2  4  1  0  0  0  0
  2  5  1  0  0  0  0
  5  6  2  0  0  0  0
  5  7  1  0  0  0  0
  7  8  1  0  0  0  0
  7  9  1  0  0  0  0
  9 10  1  0  0  0  0
  9 11  1  0  0  0  0
  9 18  1  0  0  0  0
 11 12  1  0  0  0  0
 11 13  1  0  0  0  0
 11 14  1  0  0  0  0
 14 15  2  0  0  0  0
 14 16  1  0  0  0  0
 16 17  1  0  0  0  0
 18 19  2  0  0  0  0
 18 20  1  0  0  0  0
 20 21  1  0  0  0  0
 20 22  1  0  0  0  0
 22 23  1  0  0  0  0
 22 24  1  0  0  0  0
 22 25  1  0  0  0  0
M  END
$$$$

  -OEChem-02102214113D

 25 24  0     1  0  0  0  0  0999 V2000
   -2.4612   -3.7772   -0.3264 H   0  0  0  0  0  0  0  0  0  0  0  0
   -2.5304   -2.7239   -0.6133 C   0  0  0  0  0  0  0  0  0  0  0  0
   -3.2475   -2.2267    0.0441 H   0  0  0  0  0  0  0  0  0  0  0  0
   -2.8871   -2.6638   -1.6444 H   0  0  0  0  0  0  0  0  0  0  0  0
   -1.1708   -2.0613   -0.4954 C   0  0  0  0  0  0  0  0  0  0  0  0
   -0.2164   -2.7012   -0.0922 O   0  0  0  0  0  0  0  0  0  0  0  0
   -1.0245   -0.7318   -0.8407 N   0  0  0  0  0  0  0  0  0  0  0  0
   -1.8519   -0.2562   -1.1901 H   0  0  0  0  0  0  0  0  0  0  0  0
    0.2583    0.0015   -0.8050 C   0  0  1  0  0  0  0  0  0  0  0  0
    0.9543   -0.5619   -1.4380 H   0  0  0  0  0  0  0  0  0  0  0  0
    0.1494    1.4253   -1.4051 C   0  0  0  0  0  0  0  0  0  0  0  0
    0.1720    2.1649   -0.5981 H   0  0  0  0  0  0  0  0  0  0  0  0
    1.0252    1.6131   -2.0322 H   0  0  0  0  0  0  0  0  0  0  0  0
   -1.1047    1.6761   -2.2303 C   0  0  0  0  0  0  0  0  0  0  0  0
   -1.9955    2.3507   -1.7438 O   0  0  0  0  0  0  0  0  0  0  0  0
   -1.1711    1.1270   -3.4653 O   0  0  0  0  0  0  0  0  0  0  0  0
   -2.0014    1.4358   -3.8595 H   0  0  0  0  0  0  0  0  0  0  0  0
    0.9194    0.0616    0.5894 C   0  0  0  0  0  0  0  0  0  0  0  0
    2.1392    0.0889    0.6781 O   0  0  0  0  0  0  0  0  0  0  0  0
    0.1562    0.3580    1.7042 N   0  0  0  0  0  0  0  0  0  0  0  0
   -0.8509    0.2943    1.5974 H   0  0  0  0  0  0  0  0  0  0  0  0
    0.7196    0.4813    3.0427 C   0  0  0  0  0  0  0  0  0  0  0  0
    1.4715    1.2771    3.0704 H   0  0  0  0  0  0  0  0  0  0  0  0
   -0.0664    0.7252    3.7636 H   0  0  0  0  0  0  0  0  0  0  0  0
    1.1909   -0.4593    3.3467 H   0  0  0  0  0  0  0  0  0  0  0  0
  1  2  1  0  0  0  0
  2  3  1  0  0  0  0
  2  4  1  0  0  0  0
  2  5  1  0  0  0  0
  5  6  2  0  0  0  0
  5  7  1  0  0  0  0
  7  8  1  0  0  0  0
  7  9  1  0  0  0  0
  9 10  1  0  0  0  0
  9 11  1  0  0  0  0
  9 18  1  0  0  0  0
 11 12  1  0  0  0  0
 11 13  1  0  0  0  0
 11 14  1  0  0  0  0
 14 15  2  0  0  0  0
 14 16  1  0  0  0  0
 16 17  1  0  0  0  0
 18 19  2  0  0  0  0
 18 20  1  0  0  0  0
 20 21  1  0  0  0  0
 20 22  1  0  0  0  0
 22 23  1  0  0  0  0
 22 24  1  0  0  0  0
 22 25  1  0  0  0  0
M  END
$$$$

  -OEChem-02102214113D

 25 24  0     1  0  0  0  0  0999 V2000
   -2.4509   -3.8091   -0.3758 H   0  0  0  0  0  0  0  0  0  0  0  0
   -2.5223   -2.7605   -0.6785 C   0  0  0  0  0  0  0  0  0  0  0  0
   -3.3266   -2.2846   -0.1125 H   0  0  0  0  0  0  0  0  0  0  0  0
   -2.7600   -2.7183   -1.7441 H   0  0  0  0  0  0  0  0  0  0  0  0
   -1.2088   -2.0504   -0.4105 C   0  0  0  0  0  0  0  0  0  0  0  0
   -0.2989   -2.6479    0.1356 O   0  0  0  0  0  0  0  0  0  0  0  0
   -1.0566   -0.7305   -0.7908 N   0  0  0  0  0  0  0  0  0  0  0  0
   -1.7936   -0.3624   -1.3865 H   0  0  0  0  0  0  0  0  0  0  0  0
    0.2392   -0.0195   -0.7868 C   0  0  1  0  0  0  0  0  0  0  0  0
    0.9182   -0.6013   -1.4215 H   0  0  0  0  0  0  0  0  0  0  0  0
    0.1399    1.4037   -1.3956 C   0  0  0  0  0  0  0  0  0  0  0  0
    0.1981    2.1461   -0.5929 H   0  0  0  0  0  0  0  0  0  0  0  0
    1.0058    1.5682   -2.0428 H   0  0  0  0  0  0  0  0  0  0  0  0
   -1.1229    1.6911   -2.1991 C   0  0  0  0  0  0  0  0  0  0  0  0
   -1.8490    2.5973   -1.8314 O   0  0  0  0  0  0  0  0  0  0  0  0
   -1.3868    0.9160   -3.2780 O   0  0  0  0  0  0  0  0  0  0  0  0
   -2.1754    1.2967   -3.6962 H   0  0  0  0  0  0  0  0  0  0  0  0
    0.9207    0.0612    0.5975 C   0  0  0  0  0  0  0  0  0  0  0  0
    2.1423    0.0709    0.6664 O   0  0  0  0  0  0  0  0  0  0  0  0
    0.1779    0.3966    1.7148 N   0  0  0  0  0  0  0  0  0  0  0  0
   -0.8300    0.3176    1.6252 H   0  0  0  0  0  0  0  0  0  0  0  0
    0.7599    0.5179    3.0454 C   0  0  0  0  0  0  0  0  0  0  0  0
    1.5421    1.2842    3.0540 H   0  0  0  0  0  0  0  0  0  0  0  0
   -0.0087    0.8030    3.7701 H   0  0  0  0  0  0  0  0  0  0  0  0
    1.1977   -0.4357    3.3590 H   0  0  0  0  0  0  0  0  0  0  0  0
  1  2  1  0  0  0  0
  2  3  1  0  0  0  0
  2  4  1  0  0  0  0
  2  5  1  0  0  0  0
  5  6  2  0  0  0  0
  5  7  1  0  0  0  0
  7  8  1  0  0  0  0
  7  9  1  0  0  0  0
  9 10  1  0  0  0  0
  9 11  1  0  0  0  0
  9 18  1  0  0  0  0
 11 12  1  0  0  0  0
 11 13  1  0  0  0  0
 11 14  1  0  0  0  0
 14 15  2  0  0  0  0
 14 16  1  0  0  0  0
 16 17  1  0  0  0  0
 18 19  2  0  0  0  0
 18 20  1  0  0  0  0
 20 21  1  0  0  0  0
 20 22  1  0  0  0  0
 22 23  1  0  0  0  0
 22 24  1  0  0  0  0
 22 25  1  0  0  0  0
M  END
$$$$

  -OEChem-02102214113D

 25 24  0     1  0  0  0  0  0999 V2000
   -2.4426   -3.8327   -0.3452 H   0  0  0  0  0  0  0  0  0  0  0  0
   -2.5123   -2.7930   -0.6781 C   0  0  0  0  0  0  0  0  0  0  0  0
   -3.3426   -2.3110   -0.1562 H   0  0  0  0  0  0  0  0  0  0  0  0
   -2.7089   -2.7813   -1.7528 H   0  0  0  0  0  0  0  0  0  0  0  0
   -1.2169   -2.0620   -0.3790 C   0  0  0  0  0  0  0  0  0  0  0  0
   -0.3181   -2.6411    0.2039 O   0  0  0  0  0  0  0  0  0  0  0  0
   -1.0704   -0.7446   -0.7701 N   0  0  0  0  0  0  0  0  0  0  0  0
   -1.7788   -0.4115   -1.4207 H   0  0  0  0  0  0  0  0  0  0  0  0
    0.2247   -0.0343   -0.7784 C   0  0  1  0  0  0  0  0  0  0  0  0
    0.8998   -0.6196   -1.4138 H   0  0  0  0  0  0  0  0  0  0  0  0
    0.1233    1.3888   -1.3926 C   0  0  0  0  0  0  0  0  0  0  0  0
    0.1900    2.1292   -0.5884 H   0  0  0  0  0  0  0  0  0  0  0  0
    0.9895    1.5467   -2.0409 H   0  0  0  0  0  0  0  0  0  0  0  0
   -1.1360    1.7057   -2.1961 C   0  0  0  0  0  0  0  0  0  0  0  0
   -1.6832    2.7751   -1.9954 O   0  0  0  0  0  0  0  0  0  0  0  0
   -1.5728    0.8095   -3.1154 O   0  0  0  0  0  0  0  0  0  0  0  0
   -2.3110    1.2423   -3.5746 H   0  0  0  0  0  0  0  0  0  0  0  0
    0.9157    0.0566    0.6009 C   0  0  0  0  0  0  0  0  0  0  0  0
    2.1379    0.0725    0.6588 O   0  0  0  0  0  0  0  0  0  0  0  0
    0.1810    0.3999    1.7211 N   0  0  0  0  0  0  0  0  0  0  0  0
   -0.8261    0.3002    1.6435 H   0  0  0  0  0  0  0  0  0  0  0  0
    0.7750    0.5352    3.0450 C   0  0  0  0  0  0  0  0  0  0  0  0
    1.5596    1.2992    3.0373 H   0  0  0  0  0  0  0  0  0  0  0  0
    0.0138    0.8317    3.7728 H   0  0  0  0  0  0  0  0  0  0  0  0
    1.2125   -0.4160    3.3660 H   0  0  0  0  0  0  0  0  0  0  0  0
  1  2  1  0  0  0  0
  2  3  1  0  0  0  0
  2  4  1  0  0  0  0
  2  5  1  0  0  0  0
  5  6  2  0  0  0  0
  5  7  1  0  0  0  0
  7  8  1  0  0  0  0
  7  9  1  0  0  0  0
  9 10  1  0  0  0  0
  9 11  1  0  0  0  0
  9 18  1  0  0  0  0
 11 12  1  0  0  0  0
 11 13  1  0  0  0  0
 11 14  1  0  0  0  0
 14 15  2  0  0  0  0
 14 16  1  0  0  0  0
 16 17  1  0  0  0  0
 18 19  2  0  0  0  0
 18 20  1  0  0  0  0
 20 21  1  0  0  0  0
 20 22  1  0  0  0  0
 22 23  1  0  0  0  0
 22 24  1  0  0  0  0
 22 25  1  0  0  0  0
M  END
$$$$

  -OEChem-02102214113D

 25 24  0     1  0  0  0  0  0999 V2000
   -2.4239   -3.8616   -0.3211 H   0  0  0  0  0  0  0  0  0  0  0  0
   -2.5009   -2.8228   -0.6548 C   0  0  0  0  0  0  0  0  0  0  0  0
   -3.3324   -2.3457   -0.1308 H   0  0  0  0  0  0  0  0  0  0  0  0
   -2.7013   -2.8131   -1.7289 H   0  0  0  0  0  0  0  0  0  0  0  0
   -1.2096   -2.0829   -0.3611 C   0  0  0  0  0  0  0  0  0  0  0  0
   -0.3034   -2.6549    0.2176 O   0  0  0  0  0  0  0  0  0  0  0  0
   -1.0752   -0.7650   -0.7534 N   0  0  0  0  0  0  0  0  0  0  0  0
   -1.7899   -0.4364   -1.4011 H   0  0  0  0  0  0  0  0  0  0  0  0
    0.2114   -0.0425   -0.7724 C   0  0  1  0  0  0  0  0  0  0  0  0
    0.8868   -0.6263   -1.4090 H   0  0  0  0  0  0  0  0  0  0  0  0
    0.1034    1.3798   -1.3928 C   0  0  0  0  0  0  0  0  0  0  0  0
    0.1708    2.1175   -0.5863 H   0  0  0  0  0  0  0  0  0  0  0  0
    0.9737    1.5345   -2.0363 H   0  0  0  0  0  0  0  0  0  0  0  0
   -1.1461    1.7295   -2.2042 C   0  0  0  0  0  0  0  0  0  0  0  0
   -1.4960    2.8959   -2.1991 O   0  0  0  0  0  0  0  0  0  0  0  0
   -1.7627    0.7780   -2.9503 O   0  0  0  0  0  0  0  0  0  0  0  0
   -2.4476    1.2484   -3.4536 H   0  0  0  0  0  0  0  0  0  0  0  0
    0.9106    0.0552    0.6023 C   0  0  0  0  0  0  0  0  0  0  0  0
    2.1327    0.0879    0.6522 O   0  0  0  0  0  0  0  0  0  0  0  0
    0.1788    0.3915    1.7263 N   0  0  0  0  0  0  0  0  0  0  0  0
   -0.8262    0.2678    1.6579 H   0  0  0  0  0  0  0  0  0  0  0  0
    0.7802    0.5405    3.0454 C   0  0  0  0  0  0  0  0  0  0  0  0
    1.5551    1.3144    3.0291 H   0  0  0  0  0  0  0  0  0  0  0  0
    0.0204    0.8308    3.7772 H   0  0  0  0  0  0  0  0  0  0  0  0
    1.2322   -0.4034    3.3679 H   0  0  0  0  0  0  0  0  0  0  0  0
  1  2  1  0  0  0  0
  2  3  1  0  0  0  0
  2  4  1  0  0  0  0
  2  5  1  0  0  0  0
  5  6  2  0  0  0  0
  5  7  1  0  0  0  0
  7  8  1  0  0  0  0
  7  9  1  0  0  0  0
  9 10  1  0  0  0  0
  9 11  1  0  0  0  0
  9 18  1  0  0  0  0
 11 12  1  0  0  0  0
 11 13  1  0  0  0  0
 11 14  1  0  0  0  0
 14 15  2  0  0  0  0
 14 16  1  0  0  0  0
 16 17  1  0  0  0  0
 18 19  2  0  0  0  0
 18 20  1  0  0  0  0
 20 21  1  0  0  0  0
 20 22  1  0  0  0  0
 22 23  1  0  0  0  0
 22 24  1  0  0  0  0
 22 25  1  0  0  0  0
M  END
$$$$

  -OEChem-02102214113D

 25 24  0     1  0  0  0  0  0999 V2000
   -2.3928   -3.8922   -0.2949 H   0  0  0  0  0  0  0  0  0  0  0  0
   -2.4853   -2.8521   -0.6200 C   0  0  0  0  0  0  0  0  0  0  0  0
   -3.3068   -2.3840   -0.0727 H   0  0  0  0  0  0  0  0  0  0  0  0
   -2.7121   -2.8371   -1.6887 H   0  0  0  0  0  0  0  0  0  0  0  0
   -1.1923   -2.1049   -0.3536 C   0  0  0  0  0  0  0  0  0  0  0  0
   -0.2676   -2.6731    0.1992 O   0  0  0  0  0  0  0  0  0  0  0  0
   -1.0755   -0.7845   -0.7425 N   0  0  0  0  0  0  0  0  0  0  0  0
   -1.8167   -0.4434   -1.3538 H   0  0  0  0  0  0  0  0  0  0  0  0
    0.1979   -0.0421   -0.7704 C   0  0  1  0  0  0  0  0  0  0  0  0
    0.8762   -0.6232   -1.4064 H   0  0  0  0  0  0  0  0  0  0  0  0
    0.0867    1.3783   -1.4002 C   0  0  0  0  0  0  0  0  0  0  0  0
    0.1480    2.1141   -0.5917 H   0  0  0  0  0  0  0  0  0  0  0  0
    0.9666    1.5302   -2.0316 H   0  0  0  0  0  0  0  0  0  0  0  0
   -1.1459    1.7619   -2.2275 C   0  0  0  0  0  0  0  0  0  0  0  0
   -1.2917    2.9521   -2.4396 O   0  0  0  0  0  0  0  0  0  0  0  0
   -1.9649    0.8177   -2.7572 O   0  0  0  0  0  0  0  0  0  0  0  0
   -2.6024    1.3097   -3.3012 H   0  0  0  0  0  0  0  0  0  0  0  0
    0.9031    0.0614    0.6010 C   0  0  0  0  0  0  0  0  0  0  0  0
    2.1248    0.1117    0.6448 O   0  0  0  0  0  0  0  0  0  0  0  0
    0.1724    0.3822    1.7303 N   0  0  0  0  0  0  0  0  0  0  0  0
   -0.8311    0.2449    1.6663 H   0  0  0  0  0  0  0  0  0  0  0  0
    0.7787    0.5314    3.0472 C   0  0  0  0  0  0  0  0  0  0  0  0
    1.5403    1.3183    3.0322 H   0  0  0  0  0  0  0  0  0  0  0  0
    0.0181    0.8035    3.7851 H   0  0  0  0  0  0  0  0  0  0  0  0
    1.2481   -0.4072    3.3604 H   0  0  0  0  0  0  0  0  0  0  0  0
  1  2  1  0  0  0  0
  2  3  1  0  0  0  0
  2  4  1  0  0  0  0
  2  5  1  0  0  0  0
  5  6  2  0  0  0  0
  5  7  1  0  0  0  0
  7  8  1  0  0  0  0
  7  9  1  0  0  0  0
  9 10  1  0  0  0  0
  9 11  1  0  0  0  0
  9 18  1  0  0  0  0
 11 12  1  0  0  0  0
 11 13  1  0  0  0  0
 11 14  1  0  0  0  0
 14 15  2  0  0  0  0
 14 16  1  0  0  0  0
 16 17  1  0  0  0  0
 18 19  2  0  0  0  0
 18 20  1  0  0  0  0
 20 21  1  0  0  0  0
 20 22  1  0  0  0  0
 22 23  1  0  0  0  0
 22 24  1  0  0  0  0
 22 25  1  0  0  0  0
M  END
$$$$

  -OEChem-02102214113D

 25 24  0     1  0  0  0  0  0999 V2000
   -2.3062   -3.8190   -0.1653 H   0  0  0  0  0  0  0  0  0  0  0  0
   -2.4755   -2.7539   -0.3493 C   0  0  0  0  0  0  0  0  0  0  0  0
   -2.9392   -2.3153    0.5374 H   0  0  0  0  0  0  0  0  0  0  0  0
   -3.1552   -2.6489   -1.1986 H   0  0  0  0  0  0  0  0  0  0  0  0
   -1.1586   -2.0620   -0.6477 C   0  0  0  0  0  0  0  0  0  0  0  0
   -0.1244   -2.7027   -0.6577 O   0  0  0  0  0  0  0  0  0  0  0  0
   -1.1372   -0.7020   -0.9119 N   0  0  0  0  0  0  0  0  0  0  0  0
   -1.9942   -0.2246   -0.6338 H   0  0  0  0  0  0  0  0  0  0  0  0
    0.1189    0.0815   -0.8411 C   0  0  1  0  0  0  0  0  0  0  0  0
    0.8325   -0.4539   -1.4813 H   0  0  0  0  0  0  0  0  0  0  0  0
    0.0736    1.5323   -1.4166 C   0  0  0  0  0  0  0  0  0  0  0  0
    0.3620    2.2269   -0.6206 H   0  0  0  0  0  0  0  0  0  0  0  0
    0.8490    1.6031   -2.1857 H   0  0  0  0  0  0  0  0  0  0  0  0
   -1.2108    2.0995   -2.0278 C   0  0  0  0  0  0  0  0  0  0  0  0
   -1.1356    3.2435   -2.4401 O   0  0  0  0  0  0  0  0  0  0  0  0
   -2.2487    1.2681   -2.3016 O   0  0  0  0  0  0  0  0  0  0  0  0
   -1.9041    0.3641   -2.2151 H   0  0  0  0  0  0  0  0  0  0  0  0
    0.7854    0.0620    0.5544 C   0  0  0  0  0  0  0  0  0  0  0  0
    2.0036    0.0885    0.6400 O   0  0  0  0  0  0  0  0  0  0  0  0
    0.0288    0.2447    1.6990 N   0  0  0  0  0  0  0  0  0  0  0  0
   -0.9791    0.2830    1.6024 H   0  0  0  0  0  0  0  0  0  0  0  0
    0.6147    0.3531    3.0301 C   0  0  0  0  0  0  0  0  0  0  0  0
    1.2727    1.2267    3.0890 H   0  0  0  0  0  0  0  0  0  0  0  0
   -0.1713    0.4608    3.7837 H   0  0  0  0  0  0  0  0  0  0  0  0
    1.1981   -0.5436    3.2653 H   0  0  0  0  0  0  0  0  0  0  0  0
  1  2  1  0  0  0  0
  2  3  1  0  0  0  0
  2  4  1  0  0  0  0
  2  5  1  0  0  0  0
  5  6  2  0  0  0  0
  5  7  1  0  0  0  0
  7  8  1  0  0  0  0
  7  9  1  0  0  0  0
  9 10  1  0  0  0  0
  9 11  1  0  0  0  0
  9 18  1  0  0  0  0
 11 12  1  0  0  0  0
 11 13  1  0  0  0  0
 11 14  1  0  0  0  0
 14 15  2  0  0  0  0
 14 16  1  0  0  0  0
 16 17  1  0  0  0  0
 18 19  2  0  0  0  0
 18 20  1  0  0  0  0
 20 21  1  0  0  0  0
 20 22  1  0  0  0  0
 22 23  1  0  0  0  0
 22 24  1  0  0  0  0
 22 25  1  0  0  0  0
M  END
$$$$

  -OEChem-02102214113D

 25 24  0     1  0  0  0  0  0999 V2000
   -2.3072   -3.9050   -0.2217 H   0  0  0  0  0  0  0  0  0  0  0  0
   -2.4268   -2.8586   -0.5168 C   0  0  0  0  0  0  0  0  0  0  0  0
   -3.1312   -2.3782    0.1663 H   0  0  0  0  0  0  0  0  0  0  0  0
   -2.8309   -2.8238   -1.5315 H   0  0  0  0  0  0  0  0  0  0  0  0
   -1.0879   -2.1471   -0.4678 C   0  0  0  0  0  0  0  0  0  0  0  0
   -0.0896   -2.7533   -0.1223 O   0  0  0  0  0  0  0  0  0  0  0  0
   -1.0072   -0.8133   -0.8158 N   0  0  0  0  0  0  0  0  0  0  0  0
   -1.8738   -0.3517   -1.0905 H   0  0  0  0  0  0  0  0  0  0  0  0
    0.2302   -0.0146   -0.8142 C   0  0  1  0  0  0  0  0  0  0  0  0
    0.9471   -0.5517   -1.4468 H   0  0  0  0  0  0  0  0  0  0  0  0
    0.0839    1.4189   -1.4124 C   0  0  0  0  0  0  0  0  0  0  0  0
    0.3927    2.1454   -0.6543 H   0  0  0  0  0  0  0  0  0  0  0  0
    0.8055    1.4983   -2.2313 H   0  0  0  0  0  0  0  0  0  0  0  0
   -1.2635    1.9192   -1.9497 C   0  0  0  0  0  0  0  0  0  0  0  0
   -1.2100    2.9185   -2.6435 O   0  0  0  0  0  0  0  0  0  0  0  0
   -2.4394    1.3483   -1.5820 O   0  0  0  0  0  0  0  0  0  0  0  0
   -3.1256    1.8944   -2.0012 H   0  0  0  0  0  0  0  0  0  0  0  0
    0.8974    0.0656    0.5774 C   0  0  0  0  0  0  0  0  0  0  0  0
    2.1151    0.1472    0.6604 O   0  0  0  0  0  0  0  0  0  0  0  0
    0.1281    0.3141    1.6997 N   0  0  0  0  0  0  0  0  0  0  0  0
   -0.8737    0.1894    1.5978 H   0  0  0  0  0  0  0  0  0  0  0  0
    0.6935    0.4274    3.0385 C   0  0  0  0  0  0  0  0  0  0  0  0
    1.4297    1.2373    3.0772 H   0  0  0  0  0  0  0  0  0  0  0  0
   -0.0946    0.6443    3.7658 H   0  0  0  0  0  0  0  0  0  0  0  0
    1.1843   -0.5086    3.3256 H   0  0  0  0  0  0  0  0  0  0  0  0
  1  2  1  0  0  0  0
  2  3  1  0  0  0  0
  2  4  1  0  0  0  0
  2  5  1  0  0  0  0
  5  6  2  0  0  0  0
  5  7  1  0  0  0  0
  7  8  1  0  0  0  0
  7  9  1  0  0  0  0
  9 10  1  0  0  0  0
  9 11  1  0  0  0  0
  9 18  1  0  0  0  0
 11 12  1  0  0  0  0
 11 13  1  0  0  0  0
 11 14  1  0  0  0  0
 14 15  2  0  0  0  0
 14 16  1  0  0  0  0
 16 17  1  0  0  0  0
 18 19  2  0  0  0  0
 18 20  1  0  0  0  0
 20 21  1  0  0  0  0
 20 22  1  0  0  0  0
 22 23  1  0  0  0  0
 22 24  1  0  0  0  0
 22 25  1  0  0  0  0
M  END
$$$$

  -OEChem-02102214113D

 25 24  0     1  0  0  0  0  0999 V2000
   -2.3234   -3.8666   -0.2118 H   0  0  0  0  0  0  0  0  0  0  0  0
   -2.4358   -2.8186   -0.5043 C   0  0  0  0  0  0  0  0  0  0  0  0
   -3.1017   -2.3242    0.2067 H   0  0  0  0  0  0  0  0  0  0  0  0
   -2.8812   -2.7777   -1.5011 H   0  0  0  0  0  0  0  0  0  0  0  0
   -1.0833   -2.1322   -0.5135 C   0  0  0  0  0  0  0  0  0  0  0  0
   -0.0810   -2.7597   -0.2219 O   0  0  0  0  0  0  0  0  0  0  0  0
   -0.9949   -0.7958   -0.8497 N   0  0  0  0  0  0  0  0  0  0  0  0
   -1.8700   -0.3030   -1.0245 H   0  0  0  0  0  0  0  0  0  0  0  0
    0.2493   -0.0066   -0.8270 C   0  0  1  0  0  0  0  0  0  0  0  0
    0.9700   -0.5378   -1.4607 H   0  0  0  0  0  0  0  0  0  0  0  0
    0.1008    1.4304   -1.4093 C   0  0  0  0  0  0  0  0  0  0  0  0
    0.3949    2.1555   -0.6445 H   0  0  0  0  0  0  0  0  0  0  0  0
    0.8224    1.5284   -2.2262 H   0  0  0  0  0  0  0  0  0  0  0  0
   -1.2629    1.8889   -1.9343 C   0  0  0  0  0  0  0  0  0  0  0  0
   -1.2494    2.7025   -2.8403 O   0  0  0  0  0  0  0  0  0  0  0  0
   -2.4068    1.4997   -1.3135 O   0  0  0  0  0  0  0  0  0  0  0  0
   -3.1155    1.9974   -1.7549 H   0  0  0  0  0  0  0  0  0  0  0  0
    0.9021    0.0565    0.5717 C   0  0  0  0  0  0  0  0  0  0  0  0
    2.1195    0.1209    0.6700 O   0  0  0  0  0  0  0  0  0  0  0  0
    0.1230    0.3017    1.6880 N   0  0  0  0  0  0  0  0  0  0  0  0
   -0.8812    0.2153    1.5713 H   0  0  0  0  0  0  0  0  0  0  0  0
    0.6739    0.4064    3.0333 C   0  0  0  0  0  0  0  0  0  0  0  0
    1.4117    1.2144    3.0844 H   0  0  0  0  0  0  0  0  0  0  0  0
   -0.1214    0.6209    3.7535 H   0  0  0  0  0  0  0  0  0  0  0  0
    1.1597   -0.5321    3.3208 H   0  0  0  0  0  0  0  0  0  0  0  0
  1  2  1  0  0  0  0
  2  3  1  0  0  0  0
  2  4  1  0  0  0  0
  2  5  1  0  0  0  0
  5  6  2  0  0  0  0
  5  7  1  0  0  0  0
  7  8  1  0  0  0  0
  7  9  1  0  0  0  0
  9 10  1  0  0  0  0
  9 11  1  0  0  0  0
  9 18  1  0  0  0  0
 11 12  1  0  0  0  0
 11 13  1  0  0  0  0
 11 14  1  0  0  0  0
 14 15  2  0  0  0  0
 14 16  1  0  0  0  0
 16 17  1  0  0  0  0
 18 19  2  0  0  0  0
 18 20  1  0  0  0  0
 20 21  1  0  0  0  0
 20 22  1  0  0  0  0
 22 23  1  0  0  0  0
 22 24  1  0  0  0  0
 22 25  1  0  0  0  0
M  END
$$$$

  -OEChem-02102214113D

 25 24  0     1  0  0  0  0  0999 V2000
   -2.3527   -3.8268   -0.2240 H   0  0  0  0  0  0  0  0  0  0  0  0
   -2.4569   -2.7751   -0.5066 C   0  0  0  0  0  0  0  0  0  0  0  0
   -3.1012   -2.2770    0.2217 H   0  0  0  0  0  0  0  0  0  0  0  0
   -2.9221   -2.7208   -1.4939 H   0  0  0  0  0  0  0  0  0  0  0  0
   -1.0950   -2.1082   -0.5394 C   0  0  0  0  0  0  0  0  0  0  0  0
   -0.0962   -2.7531   -0.2752 O   0  0  0  0  0  0  0  0  0  0  0  0
   -0.9935   -0.7703   -0.8667 N   0  0  0  0  0  0  0  0  0  0  0  0
   -1.8659   -0.2580   -0.9873 H   0  0  0  0  0  0  0  0  0  0  0  0
    0.2620    0.0027   -0.8290 C   0  0  1  0  0  0  0  0  0  0  0  0
    0.9804   -0.5284   -1.4651 H   0  0  0  0  0  0  0  0  0  0  0  0
    0.1181    1.4412   -1.4010 C   0  0  0  0  0  0  0  0  0  0  0  0
    0.4033    2.1661   -0.6329 H   0  0  0  0  0  0  0  0  0  0  0  0
    0.8375    1.5507   -2.2185 H   0  0  0  0  0  0  0  0  0  0  0  0
   -1.2585    1.8624   -1.9138 C   0  0  0  0  0  0  0  0  0  0  0  0
   -1.3070    2.4450   -2.9819 O   0  0  0  0  0  0  0  0  0  0  0  0
   -2.3502    1.6553   -1.1328 O   0  0  0  0  0  0  0  0  0  0  0  0
   -3.0842    2.0875   -1.6004 H   0  0  0  0  0  0  0  0  0  0  0  0
    0.9091    0.0502    0.5729 C   0  0  0  0  0  0  0  0  0  0  0  0
    2.1266    0.0978    0.6779 O   0  0  0  0  0  0  0  0  0  0  0  0
    0.1279    0.2992    1.6870 N   0  0  0  0  0  0  0  0  0  0  0  0
   -0.8777    0.2455    1.5629 H   0  0  0  0  0  0  0  0  0  0  0  0
    0.6730    0.3995    3.0351 C   0  0  0  0  0  0  0  0  0  0  0  0
    1.4027    1.2140    3.0946 H   0  0  0  0  0  0  0  0  0  0  0  0
   -0.1269    0.6008    3.7539 H   0  0  0  0  0  0  0  0  0  0  0  0
    1.1665   -0.5365    3.3178 H   0  0  0  0  0  0  0  0  0  0  0  0
  1  2  1  0  0  0  0
  2  3  1  0  0  0  0
  2  4  1  0  0  0  0
  2  5  1  0  0  0  0
  5  6  2  0  0  0  0
  5  7  1  0  0  0  0
  7  8  1  0  0  0  0
  7  9  1  0  0  0  0
  9 10  1  0  0  0  0
  9 11  1  0  0  0  0
  9 18  1  0  0  0  0
 11 12  1  0  0  0  0
 11 13  1  0  0  0  0
 11 14  1  0  0  0  0
 14 15  2  0  0  0  0
 14 16  1  0  0  0  0
 16 17  1  0  0  0  0
 18 19  2  0  0  0  0
 18 20  1  0  0  0  0
 20 21  1  0  0  0  0
 20 22  1  0  0  0  0
 22 23  1  0  0  0  0
 22 24  1  0  0  0  0
 22 25  1  0  0  0  0
M  END
$$$$

  -OEChem-02102214113D

 25 24  0     1  0  0  0  0  0999 V2000
   -2.3890   -3.7939   -0.2478 H   0  0  0  0  0  0  0  0  0  0  0  0
   -2.4811   -2.7388   -0.5208 C   0  0  0  0  0  0  0  0  0  0  0  0
   -3.1148   -2.2392    0.2155 H   0  0  0  0  0  0  0  0  0  0  0  0
   -2.9514   -2.6708   -1.5046 H   0  0  0  0  0  0  0  0  0  0  0  0
   -1.1109   -2.0885   -0.5556 C   0  0  0  0  0  0  0  0  0  0  0  0
   -0.1193   -2.7468   -0.2977 O   0  0  0  0  0  0  0  0  0  0  0  0
   -0.9943   -0.7502   -0.8770 N   0  0  0  0  0  0  0  0  0  0  0  0
   -1.8614   -0.2288   -0.9879 H   0  0  0  0  0  0  0  0  0  0  0  0
    0.2724    0.0066   -0.8297 C   0  0  1  0  0  0  0  0  0  0  0  0
    0.9875   -0.5254   -1.4690 H   0  0  0  0  0  0  0  0  0  0  0  0
    0.1368    1.4491   -1.3888 C   0  0  0  0  0  0  0  0  0  0  0  0
    0.4225    2.1714   -0.6184 H   0  0  0  0  0  0  0  0  0  0  0  0
    0.8505    1.5670   -2.2101 H   0  0  0  0  0  0  0  0  0  0  0  0
   -1.2483    1.8482   -1.8872 C   0  0  0  0  0  0  0  0  0  0  0  0
   -1.3708    2.1768   -3.0533 O   0  0  0  0  0  0  0  0  0  0  0  0
   -2.2803    1.8293   -1.0060 O   0  0  0  0  0  0  0  0  0  0  0  0
   -3.0408    2.1916   -1.4900 H   0  0  0  0  0  0  0  0  0  0  0  0
    0.9156    0.0407    0.5744 C   0  0  0  0  0  0  0  0  0  0  0  0
    2.1333    0.0684    0.6840 O   0  0  0  0  0  0  0  0  0  0  0  0
    0.1344    0.2962    1.6870 N   0  0  0  0  0  0  0  0  0  0  0  0
   -0.8717    0.2901    1.5557 H   0  0  0  0  0  0  0  0  0  0  0  0
    0.6768    0.4096    3.0351 C   0  0  0  0  0  0  0  0  0  0  0  0
    1.3951    1.2344    3.0912 H   0  0  0  0  0  0  0  0  0  0  0  0
   -0.1266    0.6022    3.7523 H   0  0  0  0  0  0  0  0  0  0  0  0
    1.1831   -0.5182    3.3221 H   0  0  0  0  0  0  0  0  0  0  0  0
  1  2  1  0  0  0  0
  2  3  1  0  0  0  0
  2  4  1  0  0  0  0
  2  5  1  0  0  0  0
  5  6  2  0  0  0  0
  5  7  1  0  0  0  0
  7  8  1  0  0  0  0
  7  9  1  0  0  0  0
  9 10  1  0  0  0  0
  9 11  1  0  0  0  0
  9 18  1  0  0  0  0
 11 12  1  0  0  0  0
 11 13  1  0  0  0  0
 11 14  1  0  0  0  0
 14 15  2  0  0  0  0
 14 16  1  0  0  0  0
 16 17  1  0  0  0  0
 18 19  2  0  0  0  0
 18 20  1  0  0  0  0
 20 21  1  0  0  0  0
 20 22  1  0  0  0  0
 22 23  1  0  0  0  0
 22 24  1  0  0  0  0
 22 25  1  0  0  0  0
M  END
$$$$

  -OEChem-02102214113D

 25 24  0     1  0  0  0  0  0999 V2000
   -2.4240   -3.7805   -0.2933 H   0  0  0  0  0  0  0  0  0  0  0  0
   -2.5043   -2.7244   -0.5666 C   0  0  0  0  0  0  0  0  0  0  0  0
   -3.1780   -2.2295    0.1368 H   0  0  0  0  0  0  0  0  0  0  0  0
   -2.9214   -2.6533   -1.5740 H   0  0  0  0  0  0  0  0  0  0  0  0
   -1.1362   -2.0700   -0.5255 C   0  0  0  0  0  0  0  0  0  0  0  0
   -0.1603   -2.7227   -0.2021 O   0  0  0  0  0  0  0  0  0  0  0  0
   -1.0044   -0.7350   -0.8558 N   0  0  0  0  0  0  0  0  0  0  0  0
   -1.8579   -0.2316   -1.0822 H   0  0  0  0  0  0  0  0  0  0  0  0
    0.2709    0.0103   -0.8194 C   0  0  1  0  0  0  0  0  0  0  0  0
    0.9770   -0.5314   -1.4604 H   0  0  0  0  0  0  0  0  0  0  0  0
    0.1435    1.4509   -1.3822 C   0  0  0  0  0  0  0  0  0  0  0  0
    0.4403    2.1771   -0.6194 H   0  0  0  0  0  0  0  0  0  0  0  0
    0.8470    1.5630   -2.2127 H   0  0  0  0  0  0  0  0  0  0  0  0
   -1.2463    1.8411   -1.8662 C   0  0  0  0  0  0  0  0  0  0  0  0
   -1.4544    1.8937   -3.0649 O   0  0  0  0  0  0  0  0  0  0  0  0
   -2.2019    2.0656   -0.9320 O   0  0  0  0  0  0  0  0  0  0  0  0
   -2.9868    2.3607   -1.4214 H   0  0  0  0  0  0  0  0  0  0  0  0
    0.9233    0.0490    0.5804 C   0  0  0  0  0  0  0  0  0  0  0  0
    2.1422    0.0698    0.6807 O   0  0  0  0  0  0  0  0  0  0  0  0
    0.1513    0.3200    1.6955 N   0  0  0  0  0  0  0  0  0  0  0  0
   -0.8557    0.3006    1.5726 H   0  0  0  0  0  0  0  0  0  0  0  0
    0.7024    0.4266    3.0405 C   0  0  0  0  0  0  0  0  0  0  0  0
    1.4332    1.2405    3.0923 H   0  0  0  0  0  0  0  0  0  0  0  0
   -0.0944    0.6323    3.7616 H   0  0  0  0  0  0  0  0  0  0  0  0
    1.1959   -0.5085    3.3258 H   0  0  0  0  0  0  0  0  0  0  0  0
  1  2  1  0  0  0  0
  2  3  1  0  0  0  0
  2  4  1  0  0  0  0
  2  5  1  0  0  0  0
  5  6  2  0  0  0  0
  5  7  1  0  0  0  0
  7  8  1  0  0  0  0
  7  9  1  0  0  0  0
  9 10  1  0  0  0  0
  9 11  1  0  0  0  0
  9 18  1  0  0  0  0
 11 12  1  0  0  0  0
 11 13  1  0  0  0  0
 11 14  1  0  0  0  0
 14 15  2  0  0  0  0
 14 16  1  0  0  0  0
 16 17  1  0  0  0  0
 18 19  2  0  0  0  0
 18 20  1  0  0  0  0
 20 21  1  0  0  0  0
 20 22  1  0  0  0  0
 22 23  1  0  0  0  0
 22 24  1  0  0  0  0
 22 25  1  0  0  0  0
M  END
$$$$

  -OEChem-02102214113D

 25 24  0     1  0  0  0  0  0999 V2000
   -2.4472   -3.7967   -0.3672 H   0  0  0  0  0  0  0  0  0  0  0  0
   -2.5167   -2.7470   -0.6667 C   0  0  0  0  0  0  0  0  0  0  0  0
   -3.3001   -2.2640   -0.0779 H   0  0  0  0  0  0  0  0  0  0  0  0
   -2.7837   -2.7016   -1.7253 H   0  0  0  0  0  0  0  0  0  0  0  0
   -1.1895   -2.0493   -0.4354 C   0  0  0  0  0  0  0  0  0  0  0  0
   -0.2645   -2.6612    0.0676 O   0  0  0  0  0  0  0  0  0  0  0  0
   -1.0417   -0.7250   -0.8022 N   0  0  0  0  0  0  0  0  0  0  0  0
   -1.8056   -0.3323   -1.3461 H   0  0  0  0  0  0  0  0  0  0  0  0
    0.2515   -0.0067   -0.8020 C   0  0  1  0  0  0  0  0  0  0  0  0
    0.9384   -0.5664   -1.4479 H   0  0  0  0  0  0  0  0  0  0  0  0
    0.1320    1.4344   -1.3676 C   0  0  0  0  0  0  0  0  0  0  0  0
    0.4671    2.1613   -0.6211 H   0  0  0  0  0  0  0  0  0  0  0  0
    0.8072    1.5309   -2.2229 H   0  0  0  0  0  0  0  0  0  0  0  0
   -1.2661    1.8407   -1.8095 C   0  0  0  0  0  0  0  0  0  0  0  0
   -1.5990    1.6269   -2.9618 O   0  0  0  0  0  0  0  0  0  0  0  0
   -2.0874    2.3863   -0.8819 O   0  0  0  0  0  0  0  0  0  0  0  0
   -2.9043    2.6247   -1.3473 H   0  0  0  0  0  0  0  0  0  0  0  0
    0.9279    0.0523    0.5864 C   0  0  0  0  0  0  0  0  0  0  0  0
    2.1491    0.0559    0.6628 O   0  0  0  0  0  0  0  0  0  0  0  0
    0.1799    0.3673    1.7059 N   0  0  0  0  0  0  0  0  0  0  0  0
   -0.8290    0.3234    1.6036 H   0  0  0  0  0  0  0  0  0  0  0  0
    0.7534    0.4752    3.0410 C   0  0  0  0  0  0  0  0  0  0  0  0
    1.5298    1.2473    3.0637 H   0  0  0  0  0  0  0  0  0  0  0  0
   -0.0211    0.7443    3.7654 H   0  0  0  0  0  0  0  0  0  0  0  0
    1.1968   -0.4794    3.3436 H   0  0  0  0  0  0  0  0  0  0  0  0
  1  2  1  0  0  0  0
  2  3  1  0  0  0  0
  2  4  1  0  0  0  0
  2  5  1  0  0  0  0
  5  6  2  0  0  0  0
  5  7  1  0  0  0  0
  7  8  1  0  0  0  0
  7  9  1  0  0  0  0
  9 10  1  0  0  0  0
  9 11  1  0  0  0  0
  9 18  1  0  0  0  0
 11 12  1  0  0  0  0
 11 13  1  0  0  0  0
 11 14  1  0  0  0  0
 14 15  2  0  0  0  0
 14 16  1  0  0  0  0
 16 17  1  0  0  0  0
 18 19  2  0  0  0  0
 18 20  1  0  0  0  0
 20 21  1  0  0  0  0
 20 22  1  0  0  0  0
 22 23  1  0  0  0  0
 22 24  1  0  0  0  0
 22 25  1  0  0  0  0
M  END
$$$$

  -OEChem-02102214113D

 25 24  0     1  0  0  0  0  0999 V2000
   -2.4570   -3.7969   -0.3836 H   0  0  0  0  0  0  0  0  0  0  0  0
   -2.5196   -2.7516   -0.6995 C   0  0  0  0  0  0  0  0  0  0  0  0
   -3.3334   -2.2675   -0.1545 H   0  0  0  0  0  0  0  0  0  0  0  0
   -2.7377   -2.7211   -1.7698 H   0  0  0  0  0  0  0  0  0  0  0  0
   -1.2097   -2.0406   -0.4153 C   0  0  0  0  0  0  0  0  0  0  0  0
   -0.3036   -2.6401    0.1347 O   0  0  0  0  0  0  0  0  0  0  0  0
   -1.0566   -0.7186   -0.7884 N   0  0  0  0  0  0  0  0  0  0  0  0
   -1.7830   -0.3601   -1.4054 H   0  0  0  0  0  0  0  0  0  0  0  0
    0.2421   -0.0106   -0.7929 C   0  0  1  0  0  0  0  0  0  0  0  0
    0.9227   -0.5763   -1.4400 H   0  0  0  0  0  0  0  0  0  0  0  0
    0.1250    1.4305   -1.3622 C   0  0  0  0  0  0  0  0  0  0  0  0
    0.4711    2.1568   -0.6199 H   0  0  0  0  0  0  0  0  0  0  0  0
    0.7944    1.5218   -2.2222 H   0  0  0  0  0  0  0  0  0  0  0  0
   -1.2727    1.8461   -1.8009 C   0  0  0  0  0  0  0  0  0  0  0  0
   -1.7140    1.3953   -2.8448 O   0  0  0  0  0  0  0  0  0  0  0  0
   -1.9716    2.6705   -0.9867 O   0  0  0  0  0  0  0  0  0  0  0  0
   -2.8113    2.8528   -1.4359 H   0  0  0  0  0  0  0  0  0  0  0  0
    0.9269    0.0520    0.5916 C   0  0  0  0  0  0  0  0  0  0  0  0
    2.1486    0.0536    0.6589 O   0  0  0  0  0  0  0  0  0  0  0  0
    0.1880    0.3787    1.7138 N   0  0  0  0  0  0  0  0  0  0  0  0
   -0.8208    0.3139    1.6231 H   0  0  0  0  0  0  0  0  0  0  0  0
    0.7722    0.4902    3.0443 C   0  0  0  0  0  0  0  0  0  0  0  0
    1.5586    1.2524    3.0559 H   0  0  0  0  0  0  0  0  0  0  0  0
    0.0058    0.7758    3.7711 H   0  0  0  0  0  0  0  0  0  0  0  0
    1.2053   -0.4674    3.3528 H   0  0  0  0  0  0  0  0  0  0  0  0
  1  2  1  0  0  0  0
  2  3  1  0  0  0  0
  2  4  1  0  0  0  0
  2  5  1  0  0  0  0
  5  6  2  0  0  0  0
  5  7  1  0  0  0  0
  7  8  1  0  0  0  0
  7  9  1  0  0  0  0
  9 10  1  0  0  0  0
  9 11  1  0  0  0  0
  9 18  1  0  0  0  0
 11 12  1  0  0  0  0
 11 13  1  0  0  0  0
 11 14  1  0  0  0  0
 14 15  2  0  0  0  0
 14 16  1  0  0  0  0
 16 17  1  0  0  0  0
 18 19  2  0  0  0  0
 18 20  1  0  0  0  0
 20 21  1  0  0  0  0
 20 22  1  0  0  0  0
 22 23  1  0  0  0  0
 22 24  1  0  0  0  0
 22 25  1  0  0  0  0
M  END
$$$$

  -OEChem-02102214113D

 25 24  0     1  0  0  0  0  0999 V2000
   -2.4389   -3.8176   -0.3891 H   0  0  0  0  0  0  0  0  0  0  0  0
   -2.5111   -2.7708   -0.6978 C   0  0  0  0  0  0  0  0  0  0  0  0
   -3.3323   -2.2987   -0.1536 H   0  0  0  0  0  0  0  0  0  0  0  0
   -2.7235   -2.7351   -1.7690 H   0  0  0  0  0  0  0  0  0  0  0  0
   -1.2103   -2.0483   -0.4027 C   0  0  0  0  0  0  0  0  0  0  0  0
   -0.3044   -2.6390    0.1576 O   0  0  0  0  0  0  0  0  0  0  0  0
   -1.0651   -0.7260   -0.7766 N   0  0  0  0  0  0  0  0  0  0  0  0
   -1.7898   -0.3735   -1.4011 H   0  0  0  0  0  0  0  0  0  0  0  0
    0.2284   -0.0111   -0.7879 C   0  0  1  0  0  0  0  0  0  0  0  0
    0.9085   -0.5784   -1.4341 H   0  0  0  0  0  0  0  0  0  0  0  0
    0.1131    1.4287   -1.3664 C   0  0  0  0  0  0  0  0  0  0  0  0
    0.4654    2.1530   -0.6248 H   0  0  0  0  0  0  0  0  0  0  0  0
    0.7862    1.5117   -2.2241 H   0  0  0  0  0  0  0  0  0  0  0  0
   -1.2741    1.8726   -1.8193 C   0  0  0  0  0  0  0  0  0  0  0  0
   -1.8394    1.2433   -2.7001 O   0  0  0  0  0  0  0  0  0  0  0  0
   -1.8196    2.9449   -1.2000 O   0  0  0  0  0  0  0  0  0  0  0  0
   -2.6762    3.1030   -1.6255 H   0  0  0  0  0  0  0  0  0  0  0  0
    0.9180    0.0547    0.5940 C   0  0  0  0  0  0  0  0  0  0  0  0
    2.1400    0.0742    0.6547 O   0  0  0  0  0  0  0  0  0  0  0  0
    0.1804    0.3766    1.7186 N   0  0  0  0  0  0  0  0  0  0  0  0
   -0.8261    0.2748    1.6376 H   0  0  0  0  0  0  0  0  0  0  0  0
    0.7714    0.4896    3.0459 C   0  0  0  0  0  0  0  0  0  0  0  0
    1.5545    1.2552    3.0537 H   0  0  0  0  0  0  0  0  0  0  0  0
    0.0083    0.7717    3.7773 H   0  0  0  0  0  0  0  0  0  0  0  0
    1.2100   -0.4663    3.3510 H   0  0  0  0  0  0  0  0  0  0  0  0
  1  2  1  0  0  0  0
  2  3  1  0  0  0  0
  2  4  1  0  0  0  0
  2  5  1  0  0  0  0
  5  6  2  0  0  0  0
  5  7  1  0  0  0  0
  7  8  1  0  0  0  0
  7  9  1  0  0  0  0
  9 10  1  0  0  0  0
  9 11  1  0  0  0  0
  9 18  1  0  0  0  0
 11 12  1  0  0  0  0
 11 13  1  0  0  0  0
 11 14  1  0  0  0  0
 14 15  2  0  0  0  0
 14 16  1  0  0  0  0
 16 17  1  0  0  0  0
 18 19  2  0  0  0  0
 18 20  1  0  0  0  0
 20 21  1  0  0  0  0
 20 22  1  0  0  0  0
 22 23  1  0  0  0  0
 22 24  1  0  0  0  0
 22 25  1  0  0  0  0
M  END
$$$$

  -OEChem-02102214113D

 25 24  0     1  0  0  0  0  0999 V2000
   -2.4116   -3.8467   -0.3651 H   0  0  0  0  0  0  0  0  0  0  0  0
   -2.4968   -2.7997   -0.6699 C   0  0  0  0  0  0  0  0  0  0  0  0
   -3.3095   -2.3339   -0.1076 H   0  0  0  0  0  0  0  0  0  0  0  0
   -2.7325   -2.7627   -1.7363 H   0  0  0  0  0  0  0  0  0  0  0  0
   -1.1943   -2.0695   -0.4014 C   0  0  0  0  0  0  0  0  0  0  0  0
   -0.2715   -2.6554    0.1362 O   0  0  0  0  0  0  0  0  0  0  0  0
   -1.0662   -0.7443   -0.7703 N   0  0  0  0  0  0  0  0  0  0  0  0
   -1.8136   -0.3816   -1.3625 H   0  0  0  0  0  0  0  0  0  0  0  0
    0.2132   -0.0074   -0.7868 C   0  0  1  0  0  0  0  0  0  0  0  0
    0.8979   -0.5714   -1.4311 H   0  0  0  0  0  0  0  0  0  0  0  0
    0.0939    1.4314   -1.3758 C   0  0  0  0  0  0  0  0  0  0  0  0
    0.4430    2.1525   -0.6295 H   0  0  0  0  0  0  0  0  0  0  0  0
    0.7804    1.5096   -2.2229 H   0  0  0  0  0  0  0  0  0  0  0  0
   -1.2760    1.9133   -1.8559 C   0  0  0  0  0  0  0  0  0  0  0  0
   -1.9780    1.1816   -2.5379 O   0  0  0  0  0  0  0  0  0  0  0  0
   -1.6451    3.1615   -1.4866 O   0  0  0  0  0  0  0  0  0  0  0  0
   -2.5136    3.3215   -1.8863 H   0  0  0  0  0  0  0  0  0  0  0  0
    0.9061    0.0637    0.5932 C   0  0  0  0  0  0  0  0  0  0  0  0
    2.1277    0.1047    0.6505 O   0  0  0  0  0  0  0  0  0  0  0  0
    0.1662    0.3680    1.7211 N   0  0  0  0  0  0  0  0  0  0  0  0
   -0.8373    0.2375    1.6435 H   0  0  0  0  0  0  0  0  0  0  0  0
    0.7594    0.4777    3.0476 C   0  0  0  0  0  0  0  0  0  0  0  0
    1.5319    1.2538    3.0601 H   0  0  0  0  0  0  0  0  0  0  0  0
   -0.0055    0.7429    3.7834 H   0  0  0  0  0  0  0  0  0  0  0  0
    1.2121   -0.4746    3.3432 H   0  0  0  0  0  0  0  0  0  0  0  0
  1  2  1  0  0  0  0
  2  3  1  0  0  0  0
  2  4  1  0  0  0  0
  2  5  1  0  0  0  0
  5  6  2  0  0  0  0
  5  7  1  0  0  0  0
  7  8  1  0  0  0  0
  7  9  1  0  0  0  0
  9 10  1  0  0  0  0
  9 11  1  0  0  0  0
  9 18  1  0  0  0  0
 11 12  1  0  0  0  0
 11 13  1  0  0  0  0
 11 14  1  0  0  0  0
 14 15  2  0  0  0  0
 14 16  1  0  0  0  0
 16 17  1  0  0  0  0
 18 19  2  0  0  0  0
 18 20  1  0  0  0  0
 20 21  1  0  0  0  0
 20 22  1  0  0  0  0
 22 23  1  0  0  0  0
 22 24  1  0  0  0  0
 22 25  1  0  0  0  0
M  END
$$$$

  -OEChem-02102214113D

 25 24  0     1  0  0  0  0  0999 V2000
   -2.3823   -3.8768   -0.3408 H   0  0  0  0  0  0  0  0  0  0  0  0
   -2.4816   -2.8291   -0.6383 C   0  0  0  0  0  0  0  0  0  0  0  0
   -3.2806   -2.3698   -0.0515 H   0  0  0  0  0  0  0  0  0  0  0  0
   -2.7473   -2.7884   -1.6975 H   0  0  0  0  0  0  0  0  0  0  0  0
   -1.1762   -2.0931   -0.4027 C   0  0  0  0  0  0  0  0  0  0  0  0
   -0.2334   -2.6764    0.1023 O   0  0  0  0  0  0  0  0  0  0  0  0
   -1.0666   -0.7656   -0.7676 N   0  0  0  0  0  0  0  0  0  0  0  0
   -1.8442   -0.3891   -1.3109 H   0  0  0  0  0  0  0  0  0  0  0  0
    0.1979   -0.0063   -0.7904 C   0  0  1  0  0  0  0  0  0  0  0  0
    0.8877   -0.5648   -1.4339 H   0  0  0  0  0  0  0  0  0  0  0  0
    0.0739    1.4323   -1.3855 C   0  0  0  0  0  0  0  0  0  0  0  0
    0.4219    2.1511   -0.6366 H   0  0  0  0  0  0  0  0  0  0  0  0
    0.7705    1.5048   -2.2249 H   0  0  0  0  0  0  0  0  0  0  0  0
   -1.2787    1.9506   -1.8869 C   0  0  0  0  0  0  0  0  0  0  0  0
   -2.1188    1.1908   -2.3451 O   0  0  0  0  0  0  0  0  0  0  0  0
   -1.4655    3.2874   -1.7963 O   0  0  0  0  0  0  0  0  0  0  0  0
   -2.3440    3.4682   -2.1642 H   0  0  0  0  0  0  0  0  0  0  0  0
    0.8931    0.0709    0.5881 C   0  0  0  0  0  0  0  0  0  0  0  0
    2.1141    0.1316    0.6432 O   0  0  0  0  0  0  0  0  0  0  0  0
    0.1512    0.3577    1.7194 N   0  0  0  0  0  0  0  0  0  0  0  0
   -0.8509    0.2170    1.6425 H   0  0  0  0  0  0  0  0  0  0  0  0
    0.7455    0.4707    3.0453 C   0  0  0  0  0  0  0  0  0  0  0  0
    1.5012    1.2632    3.0614 H   0  0  0  0  0  0  0  0  0  0  0  0
   -0.0229    0.7139    3.7852 H   0  0  0  0  0  0  0  0  0  0  0  0
    1.2194   -0.4739    3.3326 H   0  0  0  0  0  0  0  0  0  0  0  0
  1  2  1  0  0  0  0
  2  3  1  0  0  0  0
  2  4  1  0  0  0  0
  2  5  1  0  0  0  0
  5  6  2  0  0  0  0
  5  7  1  0  0  0  0
  7  8  1  0  0  0  0
  7  9  1  0  0  0  0
  9 10  1  0  0  0  0
  9 11  1  0  0  0  0
  9 18  1  0  0  0  0
 11 12  1  0  0  0  0
 11 13  1  0  0  0  0
 11 14  1  0  0  0  0
 14 15  2  0  0  0  0
 14 16  1  0  0  0  0
 16 17  1  0  0  0  0
 18 19  2  0  0  0  0
 18 20  1  0  0  0  0
 20 21  1  0  0  0  0
 20 22  1  0  0  0  0
 22 23  1  0  0  0  0
 22 24  1  0  0  0  0
 22 25  1  0  0  0  0
M  END
$$$$

  -OEChem-02102214113D

 25 24  0     1  0  0  0  0  0999 V2000
   -2.3639   -3.8899   -0.2914 H   0  0  0  0  0  0  0  0  0  0  0  0
   -2.4709   -2.8447   -0.5955 C   0  0  0  0  0  0  0  0  0  0  0  0
   -3.2443   -2.3763    0.0177 H   0  0  0  0  0  0  0  0  0  0  0  0
   -2.7779   -2.8133   -1.6438 H   0  0  0  0  0  0  0  0  0  0  0  0
   -1.1544   -2.1120   -0.4190 C   0  0  0  0  0  0  0  0  0  0  0  0
   -0.1881   -2.6991    0.0348 O   0  0  0  0  0  0  0  0  0  0  0  0
   -1.0601   -0.7817   -0.7771 N   0  0  0  0  0  0  0  0  0  0  0  0
   -1.8722   -0.3807   -1.2474 H   0  0  0  0  0  0  0  0  0  0  0  0
    0.1915   -0.0031   -0.8002 C   0  0  1  0  0  0  0  0  0  0  0  0
    0.8878   -0.5548   -1.4426 H   0  0  0  0  0  0  0  0  0  0  0  0
    0.0632    1.4361   -1.3967 C   0  0  0  0  0  0  0  0  0  0  0  0
    0.4059    2.1541   -0.6448 H   0  0  0  0  0  0  0  0  0  0  0  0
    0.7688    1.5069   -2.2287 H   0  0  0  0  0  0  0  0  0  0  0  0
   -1.2769    1.9757   -1.9138 C   0  0  0  0  0  0  0  0  0  0  0  0
   -2.2295    1.2442   -2.1365 O   0  0  0  0  0  0  0  0  0  0  0  0
   -1.3170    3.3136   -2.1097 O   0  0  0  0  0  0  0  0  0  0  0  0
   -2.2043    3.5164   -2.4432 H   0  0  0  0  0  0  0  0  0  0  0  0
    0.8841    0.0751    0.5793 C   0  0  0  0  0  0  0  0  0  0  0  0
    2.1037    0.1564    0.6371 O   0  0  0  0  0  0  0  0  0  0  0  0
    0.1359    0.3434    1.7111 N   0  0  0  0  0  0  0  0  0  0  0  0
   -0.8645    0.1924    1.6311 H   0  0  0  0  0  0  0  0  0  0  0  0
    0.7255    0.4607    3.0387 C   0  0  0  0  0  0  0  0  0  0  0  0
    1.4652    1.2680    3.0607 H   0  0  0  0  0  0  0  0  0  0  0  0
   -0.0491    0.6844    3.7783 H   0  0  0  0  0  0  0  0  0  0  0  0
    1.2175   -0.4756    3.3224 H   0  0  0  0  0  0  0  0  0  0  0  0
  1  2  1  0  0  0  0
  2  3  1  0  0  0  0
  2  4  1  0  0  0  0
  2  5  1  0  0  0  0
  5  6  2  0  0  0  0
  5  7  1  0  0  0  0
  7  8  1  0  0  0  0
  7  9  1  0  0  0  0
  9 10  1  0  0  0  0
  9 11  1  0  0  0  0
  9 18  1  0  0  0  0
 11 12  1  0  0  0  0
 11 13  1  0  0  0  0
 11 14  1  0  0  0  0
 14 15  2  0  0  0  0
 14 16  1  0  0  0  0
 16 17  1  0  0  0  0
 18 19  2  0  0  0  0
 18 20  1  0  0  0  0
 20 21  1  0  0  0  0
 20 22  1  0  0  0  0
 22 23  1  0  0  0  0
 22 24  1  0  0  0  0
 22 25  1  0  0  0  0
M  END
$$$$

  -OEChem-02102214113D

 25 24  0     1  0  0  0  0  0999 V2000
   -2.3532   -3.8915   -0.2672 H   0  0  0  0  0  0  0  0  0  0  0  0
   -2.4655   -2.8438   -0.5605 C   0  0  0  0  0  0  0  0  0  0  0  0
   -3.2107   -2.3744    0.0860 H   0  0  0  0  0  0  0  0  0  0  0  0
   -2.8144   -2.8040   -1.5953 H   0  0  0  0  0  0  0  0  0  0  0  0
   -1.1384   -2.1198   -0.4333 C   0  0  0  0  0  0  0  0  0  0  0  0
   -0.1578   -2.7144   -0.0224 O   0  0  0  0  0  0  0  0  0  0  0  0
   -1.0492   -0.7889   -0.7892 N   0  0  0  0  0  0  0  0  0  0  0  0
   -1.8872   -0.3635   -1.1866 H   0  0  0  0  0  0  0  0  0  0  0  0
    0.1954    0.0003   -0.8105 C   0  0  1  0  0  0  0  0  0  0  0  0
    0.8979   -0.5466   -1.4506 H   0  0  0  0  0  0  0  0  0  0  0  0
    0.0614    1.4391   -1.4080 C   0  0  0  0  0  0  0  0  0  0  0  0
    0.4021    2.1602   -0.6586 H   0  0  0  0  0  0  0  0  0  0  0  0
    0.7685    1.5065   -2.2393 H   0  0  0  0  0  0  0  0  0  0  0  0
   -1.2757    1.9810   -1.9318 C   0  0  0  0  0  0  0  0  0  0  0  0
   -2.3035    1.3213   -1.9106 O   0  0  0  0  0  0  0  0  0  0  0  0
   -1.2243    3.2429   -2.4160 O   0  0  0  0  0  0  0  0  0  0  0  0
   -2.1215    3.4610   -2.7112 H   0  0  0  0  0  0  0  0  0  0  0  0
    0.8819    0.0806    0.5716 C   0  0  0  0  0  0  0  0  0  0  0  0
    2.1009    0.1644    0.6359 O   0  0  0  0  0  0  0  0  0  0  0  0
    0.1275    0.3403    1.7012 N   0  0  0  0  0  0  0  0  0  0  0  0
   -0.8733    0.1959    1.6139 H   0  0  0  0  0  0  0  0  0  0  0  0
    0.7097    0.4487    3.0329 C   0  0  0  0  0  0  0  0  0  0  0  0
    1.4535    1.2520    3.0628 H   0  0  0  0  0  0  0  0  0  0  0  0
   -0.0681    0.6727    3.7692 H   0  0  0  0  0  0  0  0  0  0  0  0
    1.1952   -0.4918    3.3144 H   0  0  0  0  0  0  0  0  0  0  0  0
  1  2  1  0  0  0  0
  2  3  1  0  0  0  0
  2  4  1  0  0  0  0
  2  5  1  0  0  0  0
  5  6  2  0  0  0  0
  5  7  1  0  0  0  0
  7  8  1  0  0  0  0
  7  9  1  0  0  0  0
  9 10  1  0  0  0  0
  9 11  1  0  0  0  0
  9 18  1  0  0  0  0
 11 12  1  0  0  0  0
 11 13  1  0  0  0  0
 11 14  1  0  0  0  0
 14 15  2  0  0  0  0
 14 16  1  0  0  0  0
 16 17  1  0  0  0  0
 18 19  2  0  0  0  0
 18 20  1  0  0  0  0
 20 21  1  0  0  0  0
 20 22  1  0  0  0  0
 22 23  1  0  0  0  0
 22 24  1  0  0  0  0
 22 25  1  0  0  0  0
M  END
$$$$

  -OEChem-02102214113D

 25 24  0     1  0  0  0  0  0999 V2000
   -2.3541   -3.8748   -0.2331 H   0  0  0  0  0  0  0  0  0  0  0  0
   -2.4659   -2.8278   -0.5288 C   0  0  0  0  0  0  0  0  0  0  0  0
   -3.1775   -2.3448    0.1449 H   0  0  0  0  0  0  0  0  0  0  0  0
   -2.8565   -2.7897   -1.5485 H   0  0  0  0  0  0  0  0  0  0  0  0
   -1.1254   -2.1210   -0.4621 C   0  0  0  0  0  0  0  0  0  0  0  0
   -0.1329   -2.7303   -0.1047 O   0  0  0  0  0  0  0  0  0  0  0  0
   -1.0364   -0.7886   -0.8123 N   0  0  0  0  0  0  0  0  0  0  0  0
   -1.8957   -0.3325   -1.1203 H   0  0  0  0  0  0  0  0  0  0  0  0
    0.2073    0.0024   -0.8231 C   0  0  1  0  0  0  0  0  0  0  0  0
    0.9145   -0.5408   -1.4613 H   0  0  0  0  0  0  0  0  0  0  0  0
    0.0737    1.4423   -1.4154 C   0  0  0  0  0  0  0  0  0  0  0  0
    0.4090    2.1653   -0.6655 H   0  0  0  0  0  0  0  0  0  0  0  0
    0.7834    1.5114   -2.2446 H   0  0  0  0  0  0  0  0  0  0  0  0
   -1.2666    1.9723   -1.9407 C   0  0  0  0  0  0  0  0  0  0  0  0
   -2.3271    1.4227   -1.6836 O   0  0  0  0  0  0  0  0  0  0  0  0
   -1.1833    3.0915   -2.6961 O   0  0  0  0  0  0  0  0  0  0  0  0
   -2.0899    3.3188   -2.9529 H   0  0  0  0  0  0  0  0  0  0  0  0
    0.8836    0.0768    0.5643 C   0  0  0  0  0  0  0  0  0  0  0  0
    2.1021    0.1568    0.6401 O   0  0  0  0  0  0  0  0  0  0  0  0
    0.1204    0.3306    1.6895 N   0  0  0  0  0  0  0  0  0  0  0  0
   -0.8819    0.2047    1.5914 H   0  0  0  0  0  0  0  0  0  0  0  0
    0.6904    0.4368    3.0268 C   0  0  0  0  0  0  0  0  0  0  0  0
    1.4381    1.2362    3.0636 H   0  0  0  0  0  0  0  0  0  0  0  0
   -0.0932    0.6657    3.7552 H   0  0  0  0  0  0  0  0  0  0  0  0
    1.1681   -0.5060    3.3138 H   0  0  0  0  0  0  0  0  0  0  0  0
  1  2  1  0  0  0  0
  2  3  1  0  0  0  0
  2  4  1  0  0  0  0
  2  5  1  0  0  0  0
  5  6  2  0  0  0  0
  5  7  1  0  0  0  0
  7  8  1  0  0  0  0
  7  9  1  0  0  0  0
  9 10  1  0  0  0  0
  9 11  1  0  0  0  0
  9 18  1  0  0  0  0
 11 12  1  0  0  0  0
 11 13  1  0  0  0  0
 11 14  1  0  0  0  0
 14 15  2  0  0  0  0
 14 16  1  0  0  0  0
 16 17  1  0  0  0  0
 18 19  2  0  0  0  0
 18 20  1  0  0  0  0
 20 21  1  0  0  0  0
 20 22  1  0  0  0  0
 22 23  1  0  0  0  0
 22 24  1  0  0  0  0
 22 25  1  0  0  0  0
M  END
$$$$

  -OEChem-02102214113D

 25 24  0     1  0  0  0  0  0999 V2000
   -2.3719   -3.8432   -0.2136 H   0  0  0  0  0  0  0  0  0  0  0  0
   -2.4743   -2.7961   -0.5121 C   0  0  0  0  0  0  0  0  0  0  0  0
   -3.1504   -2.2955    0.1851 H   0  0  0  0  0  0  0  0  0  0  0  0
   -2.9024   -2.7569   -1.5166 H   0  0  0  0  0  0  0  0  0  0  0  0
   -1.1187   -2.1153   -0.5009 C   0  0  0  0  0  0  0  0  0  0  0  0
   -0.1228   -2.7461   -0.1935 O   0  0  0  0  0  0  0  0  0  0  0  0
   -1.0196   -0.7815   -0.8429 N   0  0  0  0  0  0  0  0  0  0  0  0
   -1.8883   -0.2931   -1.0611 H   0  0  0  0  0  0  0  0  0  0  0  0
    0.2297    0.0011   -0.8328 C   0  0  1  0  0  0  0  0  0  0  0  0
    0.9425   -0.5386   -1.4677 H   0  0  0  0  0  0  0  0  0  0  0  0
    0.0968    1.4424   -1.4166 C   0  0  0  0  0  0  0  0  0  0  0  0
    0.4205    2.1668   -0.6633 H   0  0  0  0  0  0  0  0  0  0  0  0
    0.8092    1.5202   -2.2430 H   0  0  0  0  0  0  0  0  0  0  0  0
   -1.2537    1.9421   -1.9406 C   0  0  0  0  0  0  0  0  0  0  0  0
   -2.3052    1.5353   -1.4684 O   0  0  0  0  0  0  0  0  0  0  0  0
   -1.1966    2.8573   -2.9355 O   0  0  0  0  0  0  0  0  0  0  0  0
   -2.1132    3.0868   -3.1522 H   0  0  0  0  0  0  0  0  0  0  0  0
    0.8899    0.0649    0.5626 C   0  0  0  0  0  0  0  0  0  0  0  0
    2.1080    0.1309    0.6535 O   0  0  0  0  0  0  0  0  0  0  0  0
    0.1168    0.3187    1.6811 N   0  0  0  0  0  0  0  0  0  0  0  0
   -0.8880    0.2301    1.5690 H   0  0  0  0  0  0  0  0  0  0  0  0
    0.6729    0.4333    3.0237 C   0  0  0  0  0  0  0  0  0  0  0  0
    1.4120    1.2405    3.0656 H   0  0  0  0  0  0  0  0  0  0  0  0
   -0.1197    0.6554    3.7445 H   0  0  0  0  0  0  0  0  0  0  0  0
    1.1580   -0.5037    3.3172 H   0  0  0  0  0  0  0  0  0  0  0  0
  1  2  1  0  0  0  0
  2  3  1  0  0  0  0
  2  4  1  0  0  0  0
  2  5  1  0  0  0  0
  5  6  2  0  0  0  0
  5  7  1  0  0  0  0
  7  8  1  0  0  0  0
  7  9  1  0  0  0  0
  9 10  1  0  0  0  0
  9 11  1  0  0  0  0
  9 18  1  0  0  0  0
 11 12  1  0  0  0  0
 11 13  1  0  0  0  0
 11 14  1  0  0  0  0
 14 15  2  0  0  0  0
 14 16  1  0  0  0  0
 16 17  1  0  0  0  0
 18 19  2  0  0  0  0
 18 20  1  0  0  0  0
 20 21  1  0  0  0  0
 20 22  1  0  0  0  0
 22 23  1  0  0  0  0
 22 24  1  0  0  0  0
 22 25  1  0  0  0  0
M  END
$$$$

  -OEChem-02102214113D

 25 24  0     1  0  0  0  0  0999 V2000
   -2.3950   -3.8067   -0.2144 H   0  0  0  0  0  0  0  0  0  0  0  0
   -2.4859   -2.7569   -0.5071 C   0  0  0  0  0  0  0  0  0  0  0  0
   -3.1295   -2.2452    0.2123 H   0  0  0  0  0  0  0  0  0  0  0  0
   -2.9445   -2.7066   -1.4976 H   0  0  0  0  0  0  0  0  0  0  0  0
   -1.1172   -2.1033   -0.5373 C   0  0  0  0  0  0  0  0  0  0  0  0
   -0.1244   -2.7550   -0.2661 O   0  0  0  0  0  0  0  0  0  0  0  0
   -1.0031   -0.7692   -0.8736 N   0  0  0  0  0  0  0  0  0  0  0  0
   -1.8717   -0.2550   -1.0201 H   0  0  0  0  0  0  0  0  0  0  0  0
    0.2566   -0.0025   -0.8412 C   0  0  1  0  0  0  0  0  0  0  0  0
    0.9733   -0.5410   -1.4727 H   0  0  0  0  0  0  0  0  0  0  0  0
    0.1279    1.4398   -1.4144 C   0  0  0  0  0  0  0  0  0  0  0  0
    0.4385    2.1652   -0.6566 H   0  0  0  0  0  0  0  0  0  0  0  0
    0.8407    1.5305   -2.2389 H   0  0  0  0  0  0  0  0  0  0  0  0
   -1.2365    1.8968   -1.9309 C   0  0  0  0  0  0  0  0  0  0  0  0
   -2.2433    1.6675   -1.2760 O   0  0  0  0  0  0  0  0  0  0  0  0
   -1.2525    2.5549   -3.1130 O   0  0  0  0  0  0  0  0  0  0  0  0
   -2.1768    2.7886   -3.2875 H   0  0  0  0  0  0  0  0  0  0  0  0
    0.8992    0.0493    0.5625 C   0  0  0  0  0  0  0  0  0  0  0  0
    2.1168    0.0959    0.6709 O   0  0  0  0  0  0  0  0  0  0  0  0
    0.1146    0.3099    1.6714 N   0  0  0  0  0  0  0  0  0  0  0  0
   -0.8913    0.2701    1.5417 H   0  0  0  0  0  0  0  0  0  0  0  0
    0.6542    0.4371    3.0192 C   0  0  0  0  0  0  0  0  0  0  0  0
    1.3720    1.2626    3.0686 H   0  0  0  0  0  0  0  0  0  0  0  0
   -0.1508    0.6373    3.7325 H   0  0  0  0  0  0  0  0  0  0  0  0
    1.1600   -0.4877    3.3165 H   0  0  0  0  0  0  0  0  0  0  0  0
  1  2  1  0  0  0  0
  2  3  1  0  0  0  0
  2  4  1  0  0  0  0
  2  5  1  0  0  0  0
  5  6  2  0  0  0  0
  5  7  1  0  0  0  0
  7  8  1  0  0  0  0
  7  9  1  0  0  0  0
  9 10  1  0  0  0  0
  9 11  1  0  0  0  0
  9 18  1  0  0  0  0
 11 12  1  0  0  0  0
 11 13  1  0  0  0  0
 11 14  1  0  0  0  0
 14 15  2  0  0  0  0
 14 16  1  0  0  0  0
 16 17  1  0  0  0  0
 18 19  2  0  0  0  0
 18 20  1  0  0  0  0
 20 21  1  0  0  0  0
 20 22  1  0  0  0  0
 22 23  1  0  0  0  0
 22 24  1  0  0  0  0
 22 25  1  0  0  0  0
M  END
$$$$

  -OEChem-02102214113D

 25 24  0     1  0  0  0  0  0999 V2000
   -2.4113   -3.7761   -0.2258 H   0  0  0  0  0  0  0  0  0  0  0  0
   -2.4940   -2.7237   -0.5125 C   0  0  0  0  0  0  0  0  0  0  0  0
   -3.1138   -2.2064    0.2236 H   0  0  0  0  0  0  0  0  0  0  0  0
   -2.9744   -2.6628   -1.4921 H   0  0  0  0  0  0  0  0  0  0  0  0
   -1.1173   -2.0894   -0.5714 C   0  0  0  0  0  0  0  0  0  0  0  0
   -0.1279   -2.7580   -0.3306 O   0  0  0  0  0  0  0  0  0  0  0  0
   -0.9921   -0.7538   -0.8996 N   0  0  0  0  0  0  0  0  0  0  0  0
   -1.8577   -0.2237   -0.9919 H   0  0  0  0  0  0  0  0  0  0  0  0
    0.2776   -0.0024   -0.8445 C   0  0  1  0  0  0  0  0  0  0  0  0
    0.9973   -0.5403   -1.4734 H   0  0  0  0  0  0  0  0  0  0  0  0
    0.1536    1.4402   -1.4093 C   0  0  0  0  0  0  0  0  0  0  0  0
    0.4491    2.1675   -0.6469 H   0  0  0  0  0  0  0  0  0  0  0  0
    0.8664    1.5447   -2.2323 H   0  0  0  0  0  0  0  0  0  0  0  0
   -1.2233    1.8495   -1.9212 C   0  0  0  0  0  0  0  0  0  0  0  0
   -2.1662    1.8348   -1.1437 O   0  0  0  0  0  0  0  0  0  0  0  0
   -1.3310    2.2076   -3.2215 O   0  0  0  0  0  0  0  0  0  0  0  0
   -2.2569    2.4552   -3.3659 H   0  0  0  0  0  0  0  0  0  0  0  0
    0.9050    0.0357    0.5664 C   0  0  0  0  0  0  0  0  0  0  0  0
    2.1217    0.0596    0.6892 O   0  0  0  0  0  0  0  0  0  0  0  0
    0.1125    0.3006    1.6689 N   0  0  0  0  0  0  0  0  0  0  0  0
   -0.8922    0.3127    1.5251 H   0  0  0  0  0  0  0  0  0  0  0  0
    0.6419    0.4437    3.0193 C   0  0  0  0  0  0  0  0  0  0  0  0
    1.3472    1.2800    3.0677 H   0  0  0  0  0  0  0  0  0  0  0  0
   -0.1704    0.6359    3.7269 H   0  0  0  0  0  0  0  0  0  0  0  0
    1.1592   -0.4717    3.3256 H   0  0  0  0  0  0  0  0  0  0  0  0
  1  2  1  0  0  0  0
  2  3  1  0  0  0  0
  2  4  1  0  0  0  0
  2  5  1  0  0  0  0
  5  6  2  0  0  0  0
  5  7  1  0  0  0  0
  7  8  1  0  0  0  0
  7  9  1  0  0  0  0
  9 10  1  0  0  0  0
  9 11  1  0  0  0  0
  9 18  1  0  0  0  0
 11 12  1  0  0  0  0
 11 13  1  0  0  0  0
 11 14  1  0  0  0  0
 14 15  2  0  0  0  0
 14 16  1  0  0  0  0
 16 17  1  0  0  0  0
 18 19  2  0  0  0  0
 18 20  1  0  0  0  0
 20 21  1  0  0  0  0
 20 22  1  0  0  0  0
 22 23  1  0  0  0  0
 22 24  1  0  0  0  0
 22 25  1  0  0  0  0
M  END
$$$$

  -OEChem-02102214113D

 25 24  0     1  0  0  0  0  0999 V2000
   -2.4199   -3.7659   -0.2430 H   0  0  0  0  0  0  0  0  0  0  0  0
   -2.4990   -2.7129   -0.5278 C   0  0  0  0  0  0  0  0  0  0  0  0
   -3.1245   -2.1968    0.2043 H   0  0  0  0  0  0  0  0  0  0  0  0
   -2.9703   -2.6490   -1.5116 H   0  0  0  0  0  0  0  0  0  0  0  0
   -1.1210   -2.0804   -0.5724 C   0  0  0  0  0  0  0  0  0  0  0  0
   -0.1360   -2.7498   -0.3176 O   0  0  0  0  0  0  0  0  0  0  0  0
   -0.9900   -0.7454   -0.9020 N   0  0  0  0  0  0  0  0  0  0  0  0
   -1.8533   -0.2175   -1.0102 H   0  0  0  0  0  0  0  0  0  0  0  0
    0.2854   -0.0016   -0.8427 C   0  0  1  0  0  0  0  0  0  0  0  0
    1.0040   -0.5422   -1.4707 H   0  0  0  0  0  0  0  0  0  0  0  0
    0.1651    1.4391   -1.4068 C   0  0  0  0  0  0  0  0  0  0  0  0
    0.4565    2.1687   -0.6446 H   0  0  0  0  0  0  0  0  0  0  0  0
    0.8740    1.5486   -2.2323 H   0  0  0  0  0  0  0  0  0  0  0  0
   -1.2192    1.8202   -1.9120 C   0  0  0  0  0  0  0  0  0  0  0  0
   -2.0873    2.0597   -1.0881 O   0  0  0  0  0  0  0  0  0  0  0  0
   -1.4215    1.8625   -3.2491 O   0  0  0  0  0  0  0  0  0  0  0  0
   -2.3370    2.1518   -3.3825 H   0  0  0  0  0  0  0  0  0  0  0  0
    0.9098    0.0349    0.5697 C   0  0  0  0  0  0  0  0  0  0  0  0
    2.1264    0.0442    0.6959 O   0  0  0  0  0  0  0  0  0  0  0  0
    0.1164    0.3066    1.6698 N   0  0  0  0  0  0  0  0  0  0  0  0
   -0.8868    0.3429    1.5209 H   0  0  0  0  0  0  0  0  0  0  0  0
    0.6425    0.4490    3.0214 C   0  0  0  0  0  0  0  0  0  0  0  0
    1.3582    1.2766    3.0690 H   0  0  0  0  0  0  0  0  0  0  0  0
   -0.1700    0.6542    3.7248 H   0  0  0  0  0  0  0  0  0  0  0  0
    1.1469   -0.4716    3.3333 H   0  0  0  0  0  0  0  0  0  0  0  0
  1  2  1  0  0  0  0
  2  3  1  0  0  0  0
  2  4  1  0  0  0  0
  2  5  1  0  0  0  0
  5  6  2  0  0  0  0
  5  7  1  0  0  0  0
  7  8  1  0  0  0  0
  7  9  1  0  0  0  0
  9 10  1  0  0  0  0
  9 11  1  0  0  0  0
  9 18  1  0  0  0  0
 11 12  1  0  0  0  0
 11 13  1  0  0  0  0
 11 14  1  0  0  0  0
 14 15  2  0  0  0  0
 14 16  1  0  0  0  0
 16 17  1  0  0  0  0
 18 19  2  0  0  0  0
 18 20  1  0  0  0  0
 20 21  1  0  0  0  0
 20 22  1  0  0  0  0
 22 23  1  0  0  0  0
 22 24  1  0  0  0  0
 22 25  1  0  0  0  0
M  END
$$$$

  -OEChem-02102214113D

 25 24  0     1  0  0  0  0  0999 V2000
   -2.4360   -3.7790   -0.2833 H   0  0  0  0  0  0  0  0  0  0  0  0
   -2.5087   -2.7277   -0.5767 C   0  0  0  0  0  0  0  0  0  0  0  0
   -3.1930   -2.2183    0.1060 H   0  0  0  0  0  0  0  0  0  0  0  0
   -2.9083   -2.6731   -1.5922 H   0  0  0  0  0  0  0  0  0  0  0  0
   -1.1397   -2.0763   -0.5221 C   0  0  0  0  0  0  0  0  0  0  0  0
   -0.1702   -2.7270   -0.1760 O   0  0  0  0  0  0  0  0  0  0  0  0
   -1.0009   -0.7458   -0.8666 N   0  0  0  0  0  0  0  0  0  0  0  0
   -1.8466   -0.2544   -1.1428 H   0  0  0  0  0  0  0  0  0  0  0  0
    0.2773   -0.0044   -0.8268 C   0  0  1  0  0  0  0  0  0  0  0  0
    0.9884   -0.5538   -1.4556 H   0  0  0  0  0  0  0  0  0  0  0  0
    0.1585    1.4319   -1.4017 C   0  0  0  0  0  0  0  0  0  0  0  0
    0.4643    2.1656   -0.6486 H   0  0  0  0  0  0  0  0  0  0  0  0
    0.8571    1.5307   -2.2372 H   0  0  0  0  0  0  0  0  0  0  0  0
   -1.2286    1.8142   -1.8963 C   0  0  0  0  0  0  0  0  0  0  0  0
   -2.0019    2.3286   -1.1069 O   0  0  0  0  0  0  0  0  0  0  0  0
   -1.5437    1.5416   -3.1836 O   0  0  0  0  0  0  0  0  0  0  0  0
   -2.4327    1.8996   -3.3314 H   0  0  0  0  0  0  0  0  0  0  0  0
    0.9164    0.0475    0.5788 C   0  0  0  0  0  0  0  0  0  0  0  0
    2.1346    0.0609    0.6897 O   0  0  0  0  0  0  0  0  0  0  0  0
    0.1358    0.3337    1.6841 N   0  0  0  0  0  0  0  0  0  0  0  0
   -0.8703    0.3334    1.5510 H   0  0  0  0  0  0  0  0  0  0  0  0
    0.6757    0.4663    3.0312 C   0  0  0  0  0  0  0  0  0  0  0  0
    1.4207    1.2681    3.0689 H   0  0  0  0  0  0  0  0  0  0  0  0
   -0.1242    0.7057    3.7383 H   0  0  0  0  0  0  0  0  0  0  0  0
    1.1493   -0.4695    3.3459 H   0  0  0  0  0  0  0  0  0  0  0  0
  1  2  1  0  0  0  0
  2  3  1  0  0  0  0
  2  4  1  0  0  0  0
  2  5  1  0  0  0  0
  5  6  2  0  0  0  0
  5  7  1  0  0  0  0
  7  8  1  0  0  0  0
  7  9  1  0  0  0  0
  9 10  1  0  0  0  0
  9 11  1  0  0  0  0
  9 18  1  0  0  0  0
 11 12  1  0  0  0  0
 11 13  1  0  0  0  0
 11 14  1  0  0  0  0
 14 15  2  0  0  0  0
 14 16  1  0  0  0  0
 16 17  1  0  0  0  0
 18 19  2  0  0  0  0
 18 20  1  0  0  0  0
 20 21  1  0  0  0  0
 20 22  1  0  0  0  0
 22 23  1  0  0  0  0
 22 24  1  0  0  0  0
 22 25  1  0  0  0  0
M  END
$$$$

  -OEChem-02102214113D

 25 24  0     1  0  0  0  0  0999 V2000
   -2.4545   -3.8009   -0.3377 H   0  0  0  0  0  0  0  0  0  0  0  0
   -2.5118   -2.7615   -0.6736 C   0  0  0  0  0  0  0  0  0  0  0  0
   -3.3076   -2.2569   -0.1206 H   0  0  0  0  0  0  0  0  0  0  0  0
   -2.7522   -2.7498   -1.7396 H   0  0  0  0  0  0  0  0  0  0  0  0
   -1.1878   -2.0614   -0.4315 C   0  0  0  0  0  0  0  0  0  0  0  0
   -0.2690   -2.6690    0.0877 O   0  0  0  0  0  0  0  0  0  0  0  0
   -1.0345   -0.7412   -0.8108 N   0  0  0  0  0  0  0  0  0  0  0  0
   -1.7813   -0.3615   -1.3873 H   0  0  0  0  0  0  0  0  0  0  0  0
    0.2594   -0.0262   -0.8046 C   0  0  1  0  0  0  0  0  0  0  0  0
    0.9517   -0.5933   -1.4382 H   0  0  0  0  0  0  0  0  0  0  0  0
    0.1460    1.4102   -1.3847 C   0  0  0  0  0  0  0  0  0  0  0  0
    0.4900    2.1428   -0.6467 H   0  0  0  0  0  0  0  0  0  0  0  0
    0.8201    1.4903   -2.2416 H   0  0  0  0  0  0  0  0  0  0  0  0
   -1.2459    1.8214   -1.8460 C   0  0  0  0  0  0  0  0  0  0  0  0
   -1.8828    2.5921   -1.1503 O   0  0  0  0  0  0  0  0  0  0  0  0
   -1.7265    1.2760   -2.9887 O   0  0  0  0  0  0  0  0  0  0  0  0
   -2.5821    1.7045   -3.1514 H   0  0  0  0  0  0  0  0  0  0  0  0
    0.9230    0.0466    0.5893 C   0  0  0  0  0  0  0  0  0  0  0  0
    2.1435    0.0465    0.6756 O   0  0  0  0  0  0  0  0  0  0  0  0
    0.1664    0.3754    1.6991 N   0  0  0  0  0  0  0  0  0  0  0  0
   -0.8421    0.3431    1.5889 H   0  0  0  0  0  0  0  0  0  0  0  0
    0.7303    0.5152    3.0353 C   0  0  0  0  0  0  0  0  0  0  0  0
    1.5002    1.2939    3.0469 H   0  0  0  0  0  0  0  0  0  0  0  0
   -0.0511    0.7930    3.7489 H   0  0  0  0  0  0  0  0  0  0  0  0
    1.1791   -0.4291    3.3607 H   0  0  0  0  0  0  0  0  0  0  0  0
  1  2  1  0  0  0  0
  2  3  1  0  0  0  0
  2  4  1  0  0  0  0
  2  5  1  0  0  0  0
  5  6  2  0  0  0  0
  5  7  1  0  0  0  0
  7  8  1  0  0  0  0
  7  9  1  0  0  0  0
  9 10  1  0  0  0  0
  9 11  1  0  0  0  0
  9 18  1  0  0  0  0
 11 12  1  0  0  0  0
 11 13  1  0  0  0  0
 11 14  1  0  0  0  0
 14 15  2  0  0  0  0
 14 16  1  0  0  0  0
 16 17  1  0  0  0  0
 18 19  2  0  0  0  0
 18 20  1  0  0  0  0
 20 21  1  0  0  0  0
 20 22  1  0  0  0  0
 22 23  1  0  0  0  0
 22 24  1  0  0  0  0
 22 25  1  0  0  0  0
M  END
$$$$

  -OEChem-02102214113D

 25 24  0     1  0  0  0  0  0999 V2000
   -2.4337   -3.8277   -0.3466 H   0  0  0  0  0  0  0  0  0  0  0  0
   -2.5003   -2.7866   -0.6749 C   0  0  0  0  0  0  0  0  0  0  0  0
   -3.3137   -2.2982   -0.1330 H   0  0  0  0  0  0  0  0  0  0  0  0
   -2.7210   -2.7699   -1.7449 H   0  0  0  0  0  0  0  0  0  0  0  0
   -1.1916   -2.0689   -0.4032 C   0  0  0  0  0  0  0  0  0  0  0  0
   -0.2803   -2.6614    0.1458 O   0  0  0  0  0  0  0  0  0  0  0  0
   -1.0447   -0.7502   -0.7896 N   0  0  0  0  0  0  0  0  0  0  0  0
   -1.7707   -0.3983   -1.4112 H   0  0  0  0  0  0  0  0  0  0  0  0
    0.2466   -0.0325   -0.7938 C   0  0  1  0  0  0  0  0  0  0  0  0
    0.9363   -0.6027   -1.4274 H   0  0  0  0  0  0  0  0  0  0  0  0
    0.1278    1.4008   -1.3845 C   0  0  0  0  0  0  0  0  0  0  0  0
    0.4803    2.1347   -0.6517 H   0  0  0  0  0  0  0  0  0  0  0  0
    0.7996    1.4714   -2.2438 H   0  0  0  0  0  0  0  0  0  0  0  0
   -1.2607    1.8281   -1.8512 C   0  0  0  0  0  0  0  0  0  0  0  0
   -1.7690    2.8013   -1.3243 O   0  0  0  0  0  0  0  0  0  0  0  0
   -1.8630    1.1148   -2.8348 O   0  0  0  0  0  0  0  0  0  0  0  0
   -2.6807    1.5947   -3.0451 H   0  0  0  0  0  0  0  0  0  0  0  0
    0.9204    0.0500    0.5952 C   0  0  0  0  0  0  0  0  0  0  0  0
    2.1416    0.0572    0.6717 O   0  0  0  0  0  0  0  0  0  0  0  0
    0.1708    0.3825    1.7086 N   0  0  0  0  0  0  0  0  0  0  0  0
   -0.8373    0.3172    1.6107 H   0  0  0  0  0  0  0  0  0  0  0  0
    0.7441    0.5209    3.0412 C   0  0  0  0  0  0  0  0  0  0  0  0
    1.5249    1.2889    3.0459 H   0  0  0  0  0  0  0  0  0  0  0  0
   -0.0297    0.8130    3.7572 H   0  0  0  0  0  0  0  0  0  0  0  0
    1.1813   -0.4281    3.3690 H   0  0  0  0  0  0  0  0  0  0  0  0
  1  2  1  0  0  0  0
  2  3  1  0  0  0  0
  2  4  1  0  0  0  0
  2  5  1  0  0  0  0
  5  6  2  0  0  0  0
  5  7  1  0  0  0  0
  7  8  1  0  0  0  0
  7  9  1  0  0  0  0
  9 10  1  0  0  0  0
  9 11  1  0  0  0  0
  9 18  1  0  0  0  0
 11 12  1  0  0  0  0
 11 13  1  0  0  0  0
 11 14  1  0  0  0  0
 14 15  2  0  0  0  0
 14 16  1  0  0  0  0
 16 17  1  0  0  0  0
 18 19  2  0  0  0  0
 18 20  1  0  0  0  0
 20 21  1  0  0  0  0
 20 22  1  0  0  0  0
 22 23  1  0  0  0  0
 22 24  1  0  0  0  0
 22 25  1  0  0  0  0
M  END
$$$$

  -OEChem-02102214113D

 25 24  0     1  0  0  0  0  0999 V2000
   -2.3956   -3.8614   -0.3327 H   0  0  0  0  0  0  0  0  0  0  0  0
   -2.4828   -2.8159   -0.6423 C   0  0  0  0  0  0  0  0  0  0  0  0
   -3.2922   -2.3477   -0.0772 H   0  0  0  0  0  0  0  0  0  0  0  0
   -2.7243   -2.7842   -1.7076 H   0  0  0  0  0  0  0  0  0  0  0  0
   -1.1790   -2.0847   -0.3829 C   0  0  0  0  0  0  0  0  0  0  0  0
   -0.2584   -2.6656    0.1633 O   0  0  0  0  0  0  0  0  0  0  0  0
   -1.0490   -0.7649   -0.7710 N   0  0  0  0  0  0  0  0  0  0  0  0
   -1.7853   -0.4168   -1.3840 H   0  0  0  0  0  0  0  0  0  0  0  0
    0.2315   -0.0313   -0.7868 C   0  0  1  0  0  0  0  0  0  0  0  0
    0.9226   -0.6000   -1.4202 H   0  0  0  0  0  0  0  0  0  0  0  0
    0.1061    1.3986   -1.3892 C   0  0  0  0  0  0  0  0  0  0  0  0
    0.4618    2.1334   -0.6587 H   0  0  0  0  0  0  0  0  0  0  0  0
    0.7822    1.4600   -2.2460 H   0  0  0  0  0  0  0  0  0  0  0  0
   -1.2733    1.8502   -1.8710 C   0  0  0  0  0  0  0  0  0  0  0  0
   -1.6366    2.9699   -1.5587 O   0  0  0  0  0  0  0  0  0  0  0  0
   -1.9984    1.0358   -2.6797 O   0  0  0  0  0  0  0  0  0  0  0  0
   -2.7718    1.5591   -2.9480 H   0  0  0  0  0  0  0  0  0  0  0  0
    0.9129    0.0591    0.5981 C   0  0  0  0  0  0  0  0  0  0  0  0
    2.1343    0.0836    0.6660 O   0  0  0  0  0  0  0  0  0  0  0  0
    0.1660    0.3817    1.7163 N   0  0  0  0  0  0  0  0  0  0  0  0
   -0.8398    0.2782    1.6290 H   0  0  0  0  0  0  0  0  0  0  0  0
    0.7471    0.5072    3.0467 C   0  0  0  0  0  0  0  0  0  0  0  0
    1.5331    1.2698    3.0523 H   0  0  0  0  0  0  0  0  0  0  0  0
   -0.0205    0.8006    3.7691 H   0  0  0  0  0  0  0  0  0  0  0  0
    1.1797   -0.4469    3.3656 H   0  0  0  0  0  0  0  0  0  0  0  0
  1  2  1  0  0  0  0
  2  3  1  0  0  0  0
  2  4  1  0  0  0  0
  2  5  1  0  0  0  0
  5  6  2  0  0  0  0
  5  7  1  0  0  0  0
  7  8  1  0  0  0  0
  7  9  1  0  0  0  0
  9 10  1  0  0  0  0
  9 11  1  0  0  0  0
  9 18  1  0  0  0  0
 11 12  1  0  0  0  0
 11 13  1  0  0  0  0
 11 14  1  0  0  0  0
 14 15  2  0  0  0  0
 14 16  1  0  0  0  0
 16 17  1  0  0  0  0
 18 19  2  0  0  0  0
 18 20  1  0  0  0  0
 20 21  1  0  0  0  0
 20 22  1  0  0  0  0
 22 23  1  0  0  0  0
 22 24  1  0  0  0  0
 22 25  1  0  0  0  0
M  END
$$$$

  -OEChem-02102214113D

 25 24  0     1  0  0  0  0  0999 V2000
   -2.3705   -3.8910   -0.2935 H   0  0  0  0  0  0  0  0  0  0  0  0
   -2.4670   -2.8484   -0.6101 C   0  0  0  0  0  0  0  0  0  0  0  0
   -3.2697   -2.3793   -0.0362 H   0  0  0  0  0  0  0  0  0  0  0  0
   -2.7252   -2.8263   -1.6716 H   0  0  0  0  0  0  0  0  0  0  0  0
   -1.1624   -2.1099   -0.3779 C   0  0  0  0  0  0  0  0  0  0  0  0
   -0.2233   -2.6880    0.1389 O   0  0  0  0  0  0  0  0  0  0  0  0
   -1.0503   -0.7869   -0.7590 N   0  0  0  0  0  0  0  0  0  0  0  0
   -1.8138   -0.4260   -1.3304 H   0  0  0  0  0  0  0  0  0  0  0  0
    0.2169   -0.0330   -0.7829 C   0  0  1  0  0  0  0  0  0  0  0  0
    0.9103   -0.5957   -1.4193 H   0  0  0  0  0  0  0  0  0  0  0  0
    0.0862    1.3982   -1.3876 C   0  0  0  0  0  0  0  0  0  0  0  0
    0.4413    2.1278   -0.6515 H   0  0  0  0  0  0  0  0  0  0  0  0
    0.7711    1.4570   -2.2378 H   0  0  0  0  0  0  0  0  0  0  0  0
   -1.2783    1.8866   -1.8854 C   0  0  0  0  0  0  0  0  0  0  0  0
   -1.4830    3.0846   -1.8104 O   0  0  0  0  0  0  0  0  0  0  0  0
   -2.1459    1.0301   -2.4833 O   0  0  0  0  0  0  0  0  0  0  0  0
   -2.8733    1.5877   -2.8063 H   0  0  0  0  0  0  0  0  0  0  0  0
    0.9059    0.0592    0.5981 C   0  0  0  0  0  0  0  0  0  0  0  0
    2.1270    0.1078    0.6591 O   0  0  0  0  0  0  0  0  0  0  0  0
    0.1606    0.3629    1.7226 N   0  0  0  0  0  0  0  0  0  0  0  0
   -0.8428    0.2353    1.6428 H   0  0  0  0  0  0  0  0  0  0  0  0
    0.7491    0.5000    3.0488 C   0  0  0  0  0  0  0  0  0  0  0  0
    1.5121    1.2857    3.0511 H   0  0  0  0  0  0  0  0  0  0  0  0
   -0.0207    0.7670    3.7789 H   0  0  0  0  0  0  0  0  0  0  0  0
    1.2126   -0.4422    3.3596 H   0  0  0  0  0  0  0  0  0  0  0  0
  1  2  1  0  0  0  0
  2  3  1  0  0  0  0
  2  4  1  0  0  0  0
  2  5  1  0  0  0  0
  5  6  2  0  0  0  0
  5  7  1  0  0  0  0
  7  8  1  0  0  0  0
  7  9  1  0  0  0  0
  9 10  1  0  0  0  0
  9 11  1  0  0  0  0
  9 18  1  0  0  0  0
 11 12  1  0  0  0  0
 11 13  1  0  0  0  0
 11 14  1  0  0  0  0
 14 15  2  0  0  0  0
 14 16  1  0  0  0  0
 16 17  1  0  0  0  0
 18 19  2  0  0  0  0
 18 20  1  0  0  0  0
 20 21  1  0  0  0  0
 20 22  1  0  0  0  0
 22 23  1  0  0  0  0
 22 24  1  0  0  0  0
 22 25  1  0  0  0  0
M  END
$$$$

  -OEChem-02102214113D

 25 24  0     1  0  0  0  0  0999 V2000
   -2.3363   -3.9162   -0.2649 H   0  0  0  0  0  0  0  0  0  0  0  0
   -2.4457   -2.8731   -0.5752 C   0  0  0  0  0  0  0  0  0  0  0  0
   -3.2272   -2.4059    0.0285 H   0  0  0  0  0  0  0  0  0  0  0  0
   -2.7424   -2.8488   -1.6265 H   0  0  0  0  0  0  0  0  0  0  0  0
   -1.1347   -2.1330   -0.3894 C   0  0  0  0  0  0  0  0  0  0  0  0
   -0.1728   -2.7126    0.0820 O   0  0  0  0  0  0  0  0  0  0  0  0
   -1.0415   -0.8058   -0.7605 N   0  0  0  0  0  0  0  0  0  0  0  0
   -1.8418   -0.4218   -1.2624 H   0  0  0  0  0  0  0  0  0  0  0  0
    0.2099   -0.0284   -0.7867 C   0  0  1  0  0  0  0  0  0  0  0  0
    0.9095   -0.5825   -1.4236 H   0  0  0  0  0  0  0  0  0  0  0  0
    0.0734    1.4040   -1.3929 C   0  0  0  0  0  0  0  0  0  0  0  0
    0.4208    2.1296   -0.6496 H   0  0  0  0  0  0  0  0  0  0  0  0
    0.7710    1.4634   -2.2329 H   0  0  0  0  0  0  0  0  0  0  0  0
   -1.2748    1.9246   -1.9103 C   0  0  0  0  0  0  0  0  0  0  0  0
   -1.3343    3.1273   -2.0915 O   0  0  0  0  0  0  0  0  0  0  0  0
   -2.2970    1.0883   -2.2245 O   0  0  0  0  0  0  0  0  0  0  0  0
   -2.9914    1.6629   -2.5880 H   0  0  0  0  0  0  0  0  0  0  0  0
    0.8997    0.0636    0.5940 C   0  0  0  0  0  0  0  0  0  0  0  0
    2.1195    0.1375    0.6536 O   0  0  0  0  0  0  0  0  0  0  0  0
    0.1504    0.3435    1.7222 N   0  0  0  0  0  0  0  0  0  0  0  0
   -0.8505    0.1973    1.6427 H   0  0  0  0  0  0  0  0  0  0  0  0
    0.7385    0.4800    3.0487 C   0  0  0  0  0  0  0  0  0  0  0  0
    1.4826    1.2834    3.0582 H   0  0  0  0  0  0  0  0  0  0  0  0
   -0.0358    0.7208    3.7833 H   0  0  0  0  0  0  0  0  0  0  0  0
    1.2252   -0.4540    3.3485 H   0  0  0  0  0  0  0  0  0  0  0  0
  1  2  1  0  0  0  0
  2  3  1  0  0  0  0
  2  4  1  0  0  0  0
  2  5  1  0  0  0  0
  5  6  2  0  0  0  0
  5  7  1  0  0  0  0
  7  8  1  0  0  0  0
  7  9  1  0  0  0  0
  9 10  1  0  0  0  0
  9 11  1  0  0  0  0
  9 18  1  0  0  0  0
 11 12  1  0  0  0  0
 11 13  1  0  0  0  0
 11 14  1  0  0  0  0
 14 15  2  0  0  0  0
 14 16  1  0  0  0  0
 16 17  1  0  0  0  0
 18 19  2  0  0  0  0
 18 20  1  0  0  0  0
 20 21  1  0  0  0  0
 20 22  1  0  0  0  0
 22 23  1  0  0  0  0
 22 24  1  0  0  0  0
 22 25  1  0  0  0  0
M  END
$$$$

  -OEChem-02102214113D

 25 24  0     1  0  0  0  0  0999 V2000
   -2.2918   -3.8907   -0.2145 H   0  0  0  0  0  0  0  0  0  0  0  0
   -2.4101   -2.8447   -0.5114 C   0  0  0  0  0  0  0  0  0  0  0  0
   -3.0941   -2.3557    0.1861 H   0  0  0  0  0  0  0  0  0  0  0  0
   -2.8376   -2.8106   -1.5164 H   0  0  0  0  0  0  0  0  0  0  0  0
   -1.0648   -2.1438   -0.4975 C   0  0  0  0  0  0  0  0  0  0  0  0
   -0.0620   -2.7594   -0.1829 O   0  0  0  0  0  0  0  0  0  0  0  0
   -0.9838   -0.8091   -0.8423 N   0  0  0  0  0  0  0  0  0  0  0  0
   -1.8575   -0.3334   -1.0655 H   0  0  0  0  0  0  0  0  0  0  0  0
    0.2536   -0.0099   -0.8337 C   0  0  1  0  0  0  0  0  0  0  0  0
    0.9840   -0.5276   -1.4672 H   0  0  0  0  0  0  0  0  0  0  0  0
    0.0934    1.4381   -1.3906 C   0  0  0  0  0  0  0  0  0  0  0  0
    0.6813    2.1232   -0.7706 H   0  0  0  0  0  0  0  0  0  0  0  0
    0.5565    1.4426   -2.3814 H   0  0  0  0  0  0  0  0  0  0  0  0
   -1.2921    2.0729   -1.5730 C   0  0  0  0  0  0  0  0  0  0  0  0
   -1.2875    3.2069   -2.0163 O   0  0  0  0  0  0  0  0  0  0  0  0
   -2.4358    1.4332   -1.2180 O   0  0  0  0  0  0  0  0  0  0  0  0
   -3.1476    2.0677   -1.4069 H   0  0  0  0  0  0  0  0  0  0  0  0
    0.8987    0.0547    0.5693 C   0  0  0  0  0  0  0  0  0  0  0  0
    2.1155    0.1239    0.6745 O   0  0  0  0  0  0  0  0  0  0  0  0
    0.1120    0.2947    1.6815 N   0  0  0  0  0  0  0  0  0  0  0  0
   -0.8897    0.1878    1.5603 H   0  0  0  0  0  0  0  0  0  0  0  0
    0.6553    0.3926    3.0304 C   0  0  0  0  0  0  0  0  0  0  0  0
    1.3885    1.2039    3.0907 H   0  0  0  0  0  0  0  0  0  0  0  0
   -0.1450    0.5983    3.7475 H   0  0  0  0  0  0  0  0  0  0  0  0
    1.1439   -0.5457    3.3136 H   0  0  0  0  0  0  0  0  0  0  0  0
  1  2  1  0  0  0  0
  2  3  1  0  0  0  0
  2  4  1  0  0  0  0
  2  5  1  0  0  0  0
  5  6  2  0  0  0  0
  5  7  1  0  0  0  0
  7  8  1  0  0  0  0
  7  9  1  0  0  0  0
  9 10  1  0  0  0  0
  9 11  1  0  0  0  0
  9 18  1  0  0  0  0
 11 12  1  0  0  0  0
 11 13  1  0  0  0  0
 11 14  1  0  0  0  0
 14 15  2  0  0  0  0
 14 16  1  0  0  0  0
 16 17  1  0  0  0  0
 18 19  2  0  0  0  0
 18 20  1  0  0  0  0
 20 21  1  0  0  0  0
 20 22  1  0  0  0  0
 22 23  1  0  0  0  0
 22 24  1  0  0  0  0
 22 25  1  0  0  0  0
M  END
$$$$

  -OEChem-02102214113D

 25 24  0     1  0  0  0  0  0999 V2000
   -2.2945   -3.8593   -0.1903 H   0  0  0  0  0  0  0  0  0  0  0  0
   -2.4105   -2.8131   -0.4878 C   0  0  0  0  0  0  0  0  0  0  0  0
   -3.0481   -2.3086    0.2419 H   0  0  0  0  0  0  0  0  0  0  0  0
   -2.8904   -2.7775   -1.4688 H   0  0  0  0  0  0  0  0  0  0  0  0
   -1.0544   -2.1358   -0.5507 C   0  0  0  0  0  0  0  0  0  0  0  0
   -0.0453   -2.7727   -0.3064 O   0  0  0  0  0  0  0  0  0  0  0  0
   -0.9698   -0.7986   -0.8856 N   0  0  0  0  0  0  0  0  0  0  0  0
   -1.8493   -0.2952   -0.9938 H   0  0  0  0  0  0  0  0  0  0  0  0
    0.2743   -0.0088   -0.8542 C   0  0  1  0  0  0  0  0  0  0  0  0
    1.0100   -0.5192   -1.4874 H   0  0  0  0  0  0  0  0  0  0  0  0
    0.1124    1.4433   -1.3930 C   0  0  0  0  0  0  0  0  0  0  0  0
    0.6857    2.1285   -0.7603 H   0  0  0  0  0  0  0  0  0  0  0  0
    0.5801    1.4667   -2.3818 H   0  0  0  0  0  0  0  0  0  0  0  0
   -1.2874    2.0439   -1.5614 C   0  0  0  0  0  0  0  0  0  0  0  0
   -1.3550    3.0512   -2.2421 O   0  0  0  0  0  0  0  0  0  0  0  0
   -2.3542    1.5426   -0.8859 O   0  0  0  0  0  0  0  0  0  0  0  0
   -3.0875    2.1477   -1.0886 H   0  0  0  0  0  0  0  0  0  0  0  0
    0.9012    0.0395    0.5577 C   0  0  0  0  0  0  0  0  0  0  0  0
    2.1168    0.0890    0.6828 O   0  0  0  0  0  0  0  0  0  0  0  0
    0.1002    0.2772    1.6603 N   0  0  0  0  0  0  0  0  0  0  0  0
   -0.9033    0.2301    1.5166 H   0  0  0  0  0  0  0  0  0  0  0  0
    0.6206    0.3800    3.0179 C   0  0  0  0  0  0  0  0  0  0  0  0
    1.3589    1.1861    3.0870 H   0  0  0  0  0  0  0  0  0  0  0  0
   -0.1906    0.5956    3.7197 H   0  0  0  0  0  0  0  0  0  0  0  0
    1.0970   -0.5600    3.3159 H   0  0  0  0  0  0  0  0  0  0  0  0
  1  2  1  0  0  0  0
  2  3  1  0  0  0  0
  2  4  1  0  0  0  0
  2  5  1  0  0  0  0
  5  6  2  0  0  0  0
  5  7  1  0  0  0  0
  7  8  1  0  0  0  0
  7  9  1  0  0  0  0
  9 10  1  0  0  0  0
  9 11  1  0  0  0  0
  9 18  1  0  0  0  0
 11 12  1  0  0  0  0
 11 13  1  0  0  0  0
 11 14  1  0  0  0  0
 14 15  2  0  0  0  0
 14 16  1  0  0  0  0
 16 17  1  0  0  0  0
 18 19  2  0  0  0  0
 18 20  1  0  0  0  0
 20 21  1  0  0  0  0
 20 22  1  0  0  0  0
 22 23  1  0  0  0  0
 22 24  1  0  0  0  0
 22 25  1  0  0  0  0
M  END
$$$$

  -OEChem-02102214113D

 25 24  0     1  0  0  0  0  0999 V2000
   -2.3211   -3.8245   -0.2022 H   0  0  0  0  0  0  0  0  0  0  0  0
   -2.4287   -2.7727   -0.4827 C   0  0  0  0  0  0  0  0  0  0  0  0
   -3.0326   -2.2670    0.2744 H   0  0  0  0  0  0  0  0  0  0  0  0
   -2.9403   -2.7162   -1.4465 H   0  0  0  0  0  0  0  0  0  0  0  0
   -1.0639   -2.1181   -0.5822 C   0  0  0  0  0  0  0  0  0  0  0  0
   -0.0590   -2.7739   -0.3731 O   0  0  0  0  0  0  0  0  0  0  0  0
   -0.9672   -0.7794   -0.9088 N   0  0  0  0  0  0  0  0  0  0  0  0
   -1.8413   -0.2589   -0.9531 H   0  0  0  0  0  0  0  0  0  0  0  0
    0.2889   -0.0078   -0.8601 C   0  0  1  0  0  0  0  0  0  0  0  0
    1.0236   -0.5191   -1.4937 H   0  0  0  0  0  0  0  0  0  0  0  0
    0.1347    1.4466   -1.3871 C   0  0  0  0  0  0  0  0  0  0  0  0
    0.6968    2.1315   -0.7447 H   0  0  0  0  0  0  0  0  0  0  0  0
    0.6054    1.4842   -2.3741 H   0  0  0  0  0  0  0  0  0  0  0  0
   -1.2790    2.0101   -1.5398 C   0  0  0  0  0  0  0  0  0  0  0  0
   -1.4527    2.8378   -2.4158 O   0  0  0  0  0  0  0  0  0  0  0  0
   -2.2452    1.6623   -0.6499 O   0  0  0  0  0  0  0  0  0  0  0  0
   -3.0107    2.2168   -0.8770 H   0  0  0  0  0  0  0  0  0  0  0  0
    0.9051    0.0232    0.5565 C   0  0  0  0  0  0  0  0  0  0  0  0
    2.1203    0.0457    0.6929 O   0  0  0  0  0  0  0  0  0  0  0  0
    0.0990    0.2662    1.6541 N   0  0  0  0  0  0  0  0  0  0  0  0
   -0.9030    0.2978    1.4941 H   0  0  0  0  0  0  0  0  0  0  0  0
    0.6112    0.3822    3.0136 C   0  0  0  0  0  0  0  0  0  0  0  0
    1.3094    1.2224    3.0902 H   0  0  0  0  0  0  0  0  0  0  0  0
   -0.2110    0.5505    3.7156 H   0  0  0  0  0  0  0  0  0  0  0  0
    1.1324   -0.5362    3.3045 H   0  0  0  0  0  0  0  0  0  0  0  0
  1  2  1  0  0  0  0
  2  3  1  0  0  0  0
  2  4  1  0  0  0  0
  2  5  1  0  0  0  0
  5  6  2  0  0  0  0
  5  7  1  0  0  0  0
  7  8  1  0  0  0  0
  7  9  1  0  0  0  0
  9 10  1  0  0  0  0
  9 11  1  0  0  0  0
  9 18  1  0  0  0  0
 11 12  1  0  0  0  0
 11 13  1  0  0  0  0
 11 14  1  0  0  0  0
 14 15  2  0  0  0  0
 14 16  1  0  0  0  0
 16 17  1  0  0  0  0
 18 19  2  0  0  0  0
 18 20  1  0  0  0  0
 20 21  1  0  0  0  0
 20 22  1  0  0  0  0
 22 23  1  0  0  0  0
 22 24  1  0  0  0  0
 22 25  1  0  0  0  0
M  END
$$$$

  -OEChem-02102214113D

 25 24  0     1  0  0  0  0  0999 V2000
   -2.3626   -3.7961   -0.2377 H   0  0  0  0  0  0  0  0  0  0  0  0
   -2.4570   -2.7378   -0.4971 C   0  0  0  0  0  0  0  0  0  0  0  0
   -3.0475   -2.2381    0.2743 H   0  0  0  0  0  0  0  0  0  0  0  0
   -2.9752   -2.6559   -1.4555 H   0  0  0  0  0  0  0  0  0  0  0  0
   -1.0833   -2.1013   -0.5952 C   0  0  0  0  0  0  0  0  0  0  0  0
   -0.0872   -2.7724   -0.3921 O   0  0  0  0  0  0  0  0  0  0  0  0
   -0.9690   -0.7627   -0.9175 N   0  0  0  0  0  0  0  0  0  0  0  0
   -1.8365   -0.2329   -0.9567 H   0  0  0  0  0  0  0  0  0  0  0  0
    0.3003   -0.0105   -0.8600 C   0  0  1  0  0  0  0  0  0  0  0  0
    1.0305   -0.5257   -1.4957 H   0  0  0  0  0  0  0  0  0  0  0  0
    0.1577    1.4471   -1.3754 C   0  0  0  0  0  0  0  0  0  0  0  0
    0.7169    2.1292   -0.7278 H   0  0  0  0  0  0  0  0  0  0  0  0
    0.6259    1.4959   -2.3632 H   0  0  0  0  0  0  0  0  0  0  0  0
   -1.2649    1.9839   -1.5082 C   0  0  0  0  0  0  0  0  0  0  0  0
   -1.5547    2.5930   -2.5218 O   0  0  0  0  0  0  0  0  0  0  0  0
   -2.1290    1.8034   -0.4762 O   0  0  0  0  0  0  0  0  0  0  0  0
   -2.9280    2.3001   -0.7200 H   0  0  0  0  0  0  0  0  0  0  0  0
    0.9119    0.0068    0.5589 C   0  0  0  0  0  0  0  0  0  0  0  0
    2.1266    0.0059    0.7011 O   0  0  0  0  0  0  0  0  0  0  0  0
    0.1047    0.2595    1.6534 N   0  0  0  0  0  0  0  0  0  0  0  0
   -0.8901    0.3653    1.4800 H   0  0  0  0  0  0  0  0  0  0  0  0
    0.6146    0.4046    3.0108 C   0  0  0  0  0  0  0  0  0  0  0  0
    1.2657    1.2820    3.0835 H   0  0  0  0  0  0  0  0  0  0  0  0
   -0.2133    0.5266    3.7156 H   0  0  0  0  0  0  0  0  0  0  0  0
    1.1863   -0.4834    3.3008 H   0  0  0  0  0  0  0  0  0  0  0  0
  1  2  1  0  0  0  0
  2  3  1  0  0  0  0
  2  4  1  0  0  0  0
  2  5  1  0  0  0  0
  5  6  2  0  0  0  0
  5  7  1  0  0  0  0
  7  8  1  0  0  0  0
  7  9  1  0  0  0  0
  9 10  1  0  0  0  0
  9 11  1  0  0  0  0
  9 18  1  0  0  0  0
 11 12  1  0  0  0  0
 11 13  1  0  0  0  0
 11 14  1  0  0  0  0
 14 15  2  0  0  0  0
 14 16  1  0  0  0  0
 16 17  1  0  0  0  0
 18 19  2  0  0  0  0
 18 20  1  0  0  0  0
 20 21  1  0  0  0  0
 20 22  1  0  0  0  0
 22 23  1  0  0  0  0
 22 24  1  0  0  0  0
 22 25  1  0  0  0  0
M  END
$$$$

  -OEChem-02102214113D

 25 24  0     1  0  0  0  0  0999 V2000
   -2.4184   -3.7801   -0.2891 H   0  0  0  0  0  0  0  0  0  0  0  0
   -2.4934   -2.7230   -0.5599 C   0  0  0  0  0  0  0  0  0  0  0  0
   -3.1365   -2.2192    0.1656 H   0  0  0  0  0  0  0  0  0  0  0  0
   -2.9429   -2.6460   -1.5528 H   0  0  0  0  0  0  0  0  0  0  0  0
   -1.1158   -2.0871   -0.5648 C   0  0  0  0  0  0  0  0  0  0  0  0
   -0.1369   -2.7567   -0.2876 O   0  0  0  0  0  0  0  0  0  0  0  0
   -0.9784   -0.7524   -0.8941 N   0  0  0  0  0  0  0  0  0  0  0  0
   -1.8350   -0.2361   -1.0729 H   0  0  0  0  0  0  0  0  0  0  0  0
    0.3008   -0.0141   -0.8461 C   0  0  1  0  0  0  0  0  0  0  0  0
    1.0217   -0.5373   -1.4859 H   0  0  0  0  0  0  0  0  0  0  0  0
    0.1648    1.4434   -1.3600 C   0  0  0  0  0  0  0  0  0  0  0  0
    0.7295    2.1258   -0.7172 H   0  0  0  0  0  0  0  0  0  0  0  0
    0.6230    1.4951   -2.3521 H   0  0  0  0  0  0  0  0  0  0  0  0
   -1.2628    1.9652   -1.4706 C   0  0  0  0  0  0  0  0  0  0  0  0
   -1.6706    2.3227   -2.5608 O   0  0  0  0  0  0  0  0  0  0  0  0
   -2.0194    1.9917   -0.3453 O   0  0  0  0  0  0  0  0  0  0  0  0
   -2.8526    2.4218   -0.5984 H   0  0  0  0  0  0  0  0  0  0  0  0
    0.9234    0.0081    0.5683 C   0  0  0  0  0  0  0  0  0  0  0  0
    2.1396   -0.0013    0.6984 O   0  0  0  0  0  0  0  0  0  0  0  0
    0.1289    0.2784    1.6676 N   0  0  0  0  0  0  0  0  0  0  0  0
   -0.8656    0.3982    1.5004 H   0  0  0  0  0  0  0  0  0  0  0  0
    0.6539    0.4443    3.0167 C   0  0  0  0  0  0  0  0  0  0  0  0
    1.3249    1.3086    3.0634 H   0  0  0  0  0  0  0  0  0  0  0  0
   -0.1647    0.6017    3.7253 H   0  0  0  0  0  0  0  0  0  0  0  0
    1.2085   -0.4493    3.3228 H   0  0  0  0  0  0  0  0  0  0  0  0
  1  2  1  0  0  0  0
  2  3  1  0  0  0  0
  2  4  1  0  0  0  0
  2  5  1  0  0  0  0
  5  6  2  0  0  0  0
  5  7  1  0  0  0  0
  7  8  1  0  0  0  0
  7  9  1  0  0  0  0
  9 10  1  0  0  0  0
  9 11  1  0  0  0  0
  9 18  1  0  0  0  0
 11 12  1  0  0  0  0
 11 13  1  0  0  0  0
 11 14  1  0  0  0  0
 14 15  2  0  0  0  0
 14 16  1  0  0  0  0
 16 17  1  0  0  0  0
 18 19  2  0  0  0  0
 18 20  1  0  0  0  0
 20 21  1  0  0  0  0
 20 22  1  0  0  0  0
 22 23  1  0  0  0  0
 22 24  1  0  0  0  0
 22 25  1  0  0  0  0
M  END
$$$$

  -OEChem-02102214113D

 25 24  0     1  0  0  0  0  0999 V2000
   -2.4631   -3.7825   -0.3602 H   0  0  0  0  0  0  0  0  0  0  0  0
   -2.5177   -2.7352   -0.6712 C   0  0  0  0  0  0  0  0  0  0  0  0
   -3.2830   -2.2313   -0.0761 H   0  0  0  0  0  0  0  0  0  0  0  0
   -2.8003   -2.6965   -1.7260 H   0  0  0  0  0  0  0  0  0  0  0  0
   -1.1743   -2.0601   -0.4685 C   0  0  0  0  0  0  0  0  0  0  0  0
   -0.2445   -2.6928   -0.0016 O   0  0  0  0  0  0  0  0  0  0  0  0
   -1.0133   -0.7372   -0.8349 N   0  0  0  0  0  0  0  0  0  0  0  0
   -1.7854   -0.3221   -1.3498 H   0  0  0  0  0  0  0  0  0  0  0  0
    0.2834   -0.0254   -0.8249 C   0  0  1  0  0  0  0  0  0  0  0  0
    0.9846   -0.5674   -1.4704 H   0  0  0  0  0  0  0  0  0  0  0  0
    0.1483    1.4290   -1.3473 C   0  0  0  0  0  0  0  0  0  0  0  0
    0.7389    2.1147   -0.7316 H   0  0  0  0  0  0  0  0  0  0  0  0
    0.5701    1.4708   -2.3559 H   0  0  0  0  0  0  0  0  0  0  0  0
   -1.2811    1.9488   -1.4118 C   0  0  0  0  0  0  0  0  0  0  0  0
   -1.8240    2.0351   -2.4990 O   0  0  0  0  0  0  0  0  0  0  0  0
   -1.8896    2.2643   -0.2434 O   0  0  0  0  0  0  0  0  0  0  0  0
   -2.7579    2.6267   -0.4799 H   0  0  0  0  0  0  0  0  0  0  0  0
    0.9349    0.0230    0.5766 C   0  0  0  0  0  0  0  0  0  0  0  0
    2.1539   -0.0032    0.6794 O   0  0  0  0  0  0  0  0  0  0  0  0
    0.1692    0.3399    1.6833 N   0  0  0  0  0  0  0  0  0  0  0  0
   -0.8327    0.4235    1.5410 H   0  0  0  0  0  0  0  0  0  0  0  0
    0.7184    0.4963    3.0234 C   0  0  0  0  0  0  0  0  0  0  0  0
    1.4611    1.3009    3.0422 H   0  0  0  0  0  0  0  0  0  0  0  0
   -0.0773    0.7439    3.7323 H   0  0  0  0  0  0  0  0  0  0  0  0
    1.1971   -0.4331    3.3498 H   0  0  0  0  0  0  0  0  0  0  0  0
  1  2  1  0  0  0  0
  2  3  1  0  0  0  0
  2  4  1  0  0  0  0
  2  5  1  0  0  0  0
  5  6  2  0  0  0  0
  5  7  1  0  0  0  0
  7  8  1  0  0  0  0
  7  9  1  0  0  0  0
  9 10  1  0  0  0  0
  9 11  1  0  0  0  0
  9 18  1  0  0  0  0
 11 12  1  0  0  0  0
 11 13  1  0  0  0  0
 11 14  1  0  0  0  0
 14 15  2  0  0  0  0
 14 16  1  0  0  0  0
 16 17  1  0  0  0  0
 18 19  2  0  0  0  0
 18 20  1  0  0  0  0
 20 21  1  0  0  0  0
 20 22  1  0  0  0  0
 22 23  1  0  0  0  0
 22 24  1  0  0  0  0
 22 25  1  0  0  0  0
M  END
$$$$

  -OEChem-02102214113D

 25 24  0     1  0  0  0  0  0999 V2000
   -2.4714   -3.7751   -0.3813 H   0  0  0  0  0  0  0  0  0  0  0  0
   -2.5228   -2.7285   -0.6953 C   0  0  0  0  0  0  0  0  0  0  0  0
   -3.3123   -2.2293   -0.1286 H   0  0  0  0  0  0  0  0  0  0  0  0
   -2.7685   -2.6934   -1.7595 H   0  0  0  0  0  0  0  0  0  0  0  0
   -1.1925   -2.0428   -0.4463 C   0  0  0  0  0  0  0  0  0  0  0  0
   -0.2812   -2.6625    0.0717 O   0  0  0  0  0  0  0  0  0  0  0  0
   -1.0256   -0.7224   -0.8190 N   0  0  0  0  0  0  0  0  0  0  0  0
   -1.7692   -0.3326   -1.3954 H   0  0  0  0  0  0  0  0  0  0  0  0
    0.2754   -0.0186   -0.8128 C   0  0  1  0  0  0  0  0  0  0  0  0
    0.9716   -0.5687   -1.4568 H   0  0  0  0  0  0  0  0  0  0  0  0
    0.1430    1.4305   -1.3507 C   0  0  0  0  0  0  0  0  0  0  0  0
    0.7360    2.1214   -0.7430 H   0  0  0  0  0  0  0  0  0  0  0  0
    0.5627    1.4629   -2.3603 H   0  0  0  0  0  0  0  0  0  0  0  0
   -1.2865    1.9499   -1.4214 C   0  0  0  0  0  0  0  0  0  0  0  0
   -1.9216    1.7688   -2.4465 O   0  0  0  0  0  0  0  0  0  0  0  0
   -1.7949    2.5515   -0.3206 O   0  0  0  0  0  0  0  0  0  0  0  0
   -2.6873    2.8473   -0.5583 H   0  0  0  0  0  0  0  0  0  0  0  0
    0.9359    0.0366    0.5843 C   0  0  0  0  0  0  0  0  0  0  0  0
    2.1559    0.0130    0.6756 O   0  0  0  0  0  0  0  0  0  0  0  0
    0.1813    0.3643    1.6954 N   0  0  0  0  0  0  0  0  0  0  0  0
   -0.8263    0.3838    1.5747 H   0  0  0  0  0  0  0  0  0  0  0  0
    0.7422    0.4963    3.0334 C   0  0  0  0  0  0  0  0  0  0  0  0
    1.5172    1.2699    3.0499 H   0  0  0  0  0  0  0  0  0  0  0  0
   -0.0395    0.7765    3.7456 H   0  0  0  0  0  0  0  0  0  0  0  0
    1.1837   -0.4522    3.3569 H   0  0  0  0  0  0  0  0  0  0  0  0
  1  2  1  0  0  0  0
  2  3  1  0  0  0  0
  2  4  1  0  0  0  0
  2  5  1  0  0  0  0
  5  6  2  0  0  0  0
  5  7  1  0  0  0  0
  7  8  1  0  0  0  0
  7  9  1  0  0  0  0
  9 10  1  0  0  0  0
  9 11  1  0  0  0  0
  9 18  1  0  0  0  0
 11 12  1  0  0  0  0
 11 13  1  0  0  0  0
 11 14  1  0  0  0  0
 14 15  2  0  0  0  0
 14 16  1  0  0  0  0
 16 17  1  0  0  0  0
 18 19  2  0  0  0  0
 18 20  1  0  0  0  0
 20 21  1  0  0  0  0
 20 22  1  0  0  0  0
 22 23  1  0  0  0  0
 22 24  1  0  0  0  0
 22 25  1  0  0  0  0
M  END
$$$$

  -OEChem-02102214113D

 25 24  0     1  0  0  0  0  0999 V2000
   -2.4738   -3.7769   -0.3778 H   0  0  0  0  0  0  0  0  0  0  0  0
   -2.5226   -2.7327   -0.6990 C   0  0  0  0  0  0  0  0  0  0  0  0
   -3.3197   -2.2308   -0.1453 H   0  0  0  0  0  0  0  0  0  0  0  0
   -2.7553   -2.7042   -1.7663 H   0  0  0  0  0  0  0  0  0  0  0  0
   -1.1962   -2.0438   -0.4384 C   0  0  0  0  0  0  0  0  0  0  0  0
   -0.2872   -2.6589    0.0892 O   0  0  0  0  0  0  0  0  0  0  0  0
   -1.0297   -0.7234   -0.8094 N   0  0  0  0  0  0  0  0  0  0  0  0
   -1.7722   -0.3328   -1.3891 H   0  0  0  0  0  0  0  0  0  0  0  0
    0.2678   -0.0154   -0.8056 C   0  0  1  0  0  0  0  0  0  0  0  0
    0.9635   -0.5683   -1.4475 H   0  0  0  0  0  0  0  0  0  0  0  0
    0.1370    1.4313   -1.3544 C   0  0  0  0  0  0  0  0  0  0  0  0
    0.7337    2.1223   -0.7501 H   0  0  0  0  0  0  0  0  0  0  0  0
    0.5594    1.4554   -2.3627 H   0  0  0  0  0  0  0  0  0  0  0  0
   -1.2869    1.9674   -1.4417 C   0  0  0  0  0  0  0  0  0  0  0  0
   -2.0119    1.5611   -2.3361 O   0  0  0  0  0  0  0  0  0  0  0  0
   -1.6886    2.8434   -0.4923 O   0  0  0  0  0  0  0  0  0  0  0  0
   -2.5986    3.0931   -0.7149 H   0  0  0  0  0  0  0  0  0  0  0  0
    0.9325    0.0424    0.5892 C   0  0  0  0  0  0  0  0  0  0  0  0
    2.1532    0.0375    0.6744 O   0  0  0  0  0  0  0  0  0  0  0  0
    0.1798    0.3667    1.7027 N   0  0  0  0  0  0  0  0  0  0  0  0
   -0.8285    0.3254    1.5970 H   0  0  0  0  0  0  0  0  0  0  0  0
    0.7481    0.4927    3.0385 C   0  0  0  0  0  0  0  0  0  0  0  0
    1.5213    1.2681    3.0546 H   0  0  0  0  0  0  0  0  0  0  0  0
   -0.0301    0.7677    3.7567 H   0  0  0  0  0  0  0  0  0  0  0  0
    1.1943   -0.4562    3.3544 H   0  0  0  0  0  0  0  0  0  0  0  0
  1  2  1  0  0  0  0
  2  3  1  0  0  0  0
  2  4  1  0  0  0  0
  2  5  1  0  0  0  0
  5  6  2  0  0  0  0
  5  7  1  0  0  0  0
  7  8  1  0  0  0  0
  7  9  1  0  0  0  0
  9 10  1  0  0  0  0
  9 11  1  0  0  0  0
  9 18  1  0  0  0  0
 11 12  1  0  0  0  0
 11 13  1  0  0  0  0
 11 14  1  0  0  0  0
 14 15  2  0  0  0  0
 14 16  1  0  0  0  0
 16 17  1  0  0  0  0
 18 19  2  0  0  0  0
 18 20  1  0  0  0  0
 20 21  1  0  0  0  0
 20 22  1  0  0  0  0
 22 23  1  0  0  0  0
 22 24  1  0  0  0  0
 22 25  1  0  0  0  0
M  END
$$$$

  -OEChem-02102214113D

 25 24  0     1  0  0  0  0  0999 V2000
   -2.4323   -3.8094   -0.3690 H   0  0  0  0  0  0  0  0  0  0  0  0
   -2.5035   -2.7597   -0.6677 C   0  0  0  0  0  0  0  0  0  0  0  0
   -3.2895   -2.2792   -0.0803 H   0  0  0  0  0  0  0  0  0  0  0  0
   -2.7688   -2.7129   -1.7266 H   0  0  0  0  0  0  0  0  0  0  0  0
   -1.1783   -2.0590   -0.4338 C   0  0  0  0  0  0  0  0  0  0  0  0
   -0.2528   -2.6668    0.0737 O   0  0  0  0  0  0  0  0  0  0  0  0
   -1.0315   -0.7354   -0.8012 N   0  0  0  0  0  0  0  0  0  0  0  0
   -1.7966   -0.3359   -1.3457 H   0  0  0  0  0  0  0  0  0  0  0  0
    0.2523   -0.0059   -0.8039 C   0  0  1  0  0  0  0  0  0  0  0  0
    0.9518   -0.5568   -1.4434 H   0  0  0  0  0  0  0  0  0  0  0  0
    0.1217    1.4394   -1.3644 C   0  0  0  0  0  0  0  0  0  0  0  0
    0.7235    2.1274   -0.7615 H   0  0  0  0  0  0  0  0  0  0  0  0
    0.5535    1.4516   -2.3685 H   0  0  0  0  0  0  0  0  0  0  0  0
   -1.2887    2.0134   -1.4824 C   0  0  0  0  0  0  0  0  0  0  0  0
   -2.1090    1.4482   -2.1904 O   0  0  0  0  0  0  0  0  0  0  0  0
   -1.5631    3.1304   -0.7702 O   0  0  0  0  0  0  0  0  0  0  0  0
   -2.4793    3.3709   -0.9754 H   0  0  0  0  0  0  0  0  0  0  0  0
    0.9193    0.0558    0.5895 C   0  0  0  0  0  0  0  0  0  0  0  0
    2.1402    0.0750    0.6713 O   0  0  0  0  0  0  0  0  0  0  0  0
    0.1631    0.3623    1.7061 N   0  0  0  0  0  0  0  0  0  0  0  0
   -0.8425    0.2701    1.6068 H   0  0  0  0  0  0  0  0  0  0  0  0
    0.7326    0.4643    3.0436 C   0  0  0  0  0  0  0  0  0  0  0  0
    1.5142    1.2307    3.0706 H   0  0  0  0  0  0  0  0  0  0  0  0
   -0.0426    0.7387    3.7653 H   0  0  0  0  0  0  0  0  0  0  0  0
    1.1679   -0.4937    3.3467 H   0  0  0  0  0  0  0  0  0  0  0  0
  1  2  1  0  0  0  0
  2  3  1  0  0  0  0
  2  4  1  0  0  0  0
  2  5  1  0  0  0  0
  5  6  2  0  0  0  0
  5  7  1  0  0  0  0
  7  8  1  0  0  0  0
  7  9  1  0  0  0  0
  9 10  1  0  0  0  0
  9 11  1  0  0  0  0
  9 18  1  0  0  0  0
 11 12  1  0  0  0  0
 11 13  1  0  0  0  0
 11 14  1  0  0  0  0
 14 15  2  0  0  0  0
 14 16  1  0  0  0  0
 16 17  1  0  0  0  0
 18 19  2  0  0  0  0
 18 20  1  0  0  0  0
 20 21  1  0  0  0  0
 20 22  1  0  0  0  0
 22 23  1  0  0  0  0
 22 24  1  0  0  0  0
 22 25  1  0  0  0  0
M  END
$$$$

  -OEChem-02102214113D

 25 24  0     1  0  0  0  0  0999 V2000
   -2.3988   -3.8381   -0.3299 H   0  0  0  0  0  0  0  0  0  0  0  0
   -2.4834   -2.7901   -0.6313 C   0  0  0  0  0  0  0  0  0  0  0  0
   -3.2529   -2.3093   -0.0227 H   0  0  0  0  0  0  0  0  0  0  0  0
   -2.7810   -2.7499   -1.6819 H   0  0  0  0  0  0  0  0  0  0  0  0
   -1.1548   -2.0830   -0.4415 C   0  0  0  0  0  0  0  0  0  0  0  0
   -0.2065   -2.6884    0.0253 O   0  0  0  0  0  0  0  0  0  0  0  0
   -1.0294   -0.7557   -0.8016 N   0  0  0  0  0  0  0  0  0  0  0  0
   -1.8259   -0.3415   -1.2872 H   0  0  0  0  0  0  0  0  0  0  0  0
    0.2384   -0.0016   -0.8087 C   0  0  1  0  0  0  0  0  0  0  0  0
    0.9441   -0.5446   -1.4484 H   0  0  0  0  0  0  0  0  0  0  0  0
    0.1045    1.4464   -1.3704 C   0  0  0  0  0  0  0  0  0  0  0  0
    0.7100    2.1272   -0.7629 H   0  0  0  0  0  0  0  0  0  0  0  0
    0.5471    1.4534   -2.3697 H   0  0  0  0  0  0  0  0  0  0  0  0
   -1.2903    2.0615   -1.5142 C   0  0  0  0  0  0  0  0  0  0  0  0
   -2.2074    1.4136   -1.9966 O   0  0  0  0  0  0  0  0  0  0  0  0
   -1.4318    3.3361   -1.0830 O   0  0  0  0  0  0  0  0  0  0  0  0
   -2.3523    3.5856   -1.2560 H   0  0  0  0  0  0  0  0  0  0  0  0
    0.9050    0.0609    0.5848 C   0  0  0  0  0  0  0  0  0  0  0  0
    2.1251    0.1059    0.6673 O   0  0  0  0  0  0  0  0  0  0  0  0
    0.1422    0.3442    1.7030 N   0  0  0  0  0  0  0  0  0  0  0  0
   -0.8604    0.2233    1.6034 H   0  0  0  0  0  0  0  0  0  0  0  0
    0.7091    0.4472    3.0416 C   0  0  0  0  0  0  0  0  0  0  0  0
    1.4722    1.2320    3.0762 H   0  0  0  0  0  0  0  0  0  0  0  0
   -0.0727    0.6960    3.7655 H   0  0  0  0  0  0  0  0  0  0  0  0
    1.1671   -0.5029    3.3365 H   0  0  0  0  0  0  0  0  0  0  0  0
  1  2  1  0  0  0  0
  2  3  1  0  0  0  0
  2  4  1  0  0  0  0
  2  5  1  0  0  0  0
  5  6  2  0  0  0  0
  5  7  1  0  0  0  0
  7  8  1  0  0  0  0
  7  9  1  0  0  0  0
  9 10  1  0  0  0  0
  9 11  1  0  0  0  0
  9 18  1  0  0  0  0
 11 12  1  0  0  0  0
 11 13  1  0  0  0  0
 11 14  1  0  0  0  0
 14 15  2  0  0  0  0
 14 16  1  0  0  0  0
 16 17  1  0  0  0  0
 18 19  2  0  0  0  0
 18 20  1  0  0  0  0
 20 21  1  0  0  0  0
 20 22  1  0  0  0  0
 22 23  1  0  0  0  0
 22 24  1  0  0  0  0
 22 25  1  0  0  0  0
M  END
$$$$

  -OEChem-02102214113D

 25 24  0     1  0  0  0  0  0999 V2000
   -2.3685   -3.8587   -0.2881 H   0  0  0  0  0  0  0  0  0  0  0  0
   -2.4652   -2.8119   -0.5899 C   0  0  0  0  0  0  0  0  0  0  0  0
   -3.2097   -2.3287    0.0472 H   0  0  0  0  0  0  0  0  0  0  0  0
   -2.8043   -2.7752   -1.6280 H   0  0  0  0  0  0  0  0  0  0  0  0
   -1.1301   -2.1040   -0.4559 C   0  0  0  0  0  0  0  0  0  0  0  0
   -0.1603   -2.7100   -0.0363 O   0  0  0  0  0  0  0  0  0  0  0  0
   -1.0231   -0.7737   -0.8100 N   0  0  0  0  0  0  0  0  0  0  0  0
   -1.8506   -0.3422   -1.2230 H   0  0  0  0  0  0  0  0  0  0  0  0
    0.2305    0.0024   -0.8183 C   0  0  1  0  0  0  0  0  0  0  0  0
    0.9435   -0.5314   -1.4578 H   0  0  0  0  0  0  0  0  0  0  0  0
    0.0891    1.4533   -1.3777 C   0  0  0  0  0  0  0  0  0  0  0  0
    0.6928    2.1303   -0.7641 H   0  0  0  0  0  0  0  0  0  0  0  0
    0.5414    1.4605   -2.3726 H   0  0  0  0  0  0  0  0  0  0  0  0
   -1.2939    2.0963   -1.5395 C   0  0  0  0  0  0  0  0  0  0  0  0
   -2.2881    1.4254   -1.7725 O   0  0  0  0  0  0  0  0  0  0  0  0
   -1.3277    3.4429   -1.4163 O   0  0  0  0  0  0  0  0  0  0  0  0
   -2.2498    3.7092   -1.5520 H   0  0  0  0  0  0  0  0  0  0  0  0
    0.8939    0.0668    0.5767 C   0  0  0  0  0  0  0  0  0  0  0  0
    2.1128    0.1298    0.6630 O   0  0  0  0  0  0  0  0  0  0  0  0
    0.1238    0.3302    1.6950 N   0  0  0  0  0  0  0  0  0  0  0  0
   -0.8772    0.2011    1.5904 H   0  0  0  0  0  0  0  0  0  0  0  0
    0.6847    0.4302    3.0364 C   0  0  0  0  0  0  0  0  0  0  0  0
    1.4337    1.2281    3.0807 H   0  0  0  0  0  0  0  0  0  0  0  0
   -0.1037    0.6581    3.7599 H   0  0  0  0  0  0  0  0  0  0  0  0
    1.1586   -0.5144    3.3236 H   0  0  0  0  0  0  0  0  0  0  0  0
  1  2  1  0  0  0  0
  2  3  1  0  0  0  0
  2  4  1  0  0  0  0
  2  5  1  0  0  0  0
  5  6  2  0  0  0  0
  5  7  1  0  0  0  0
  7  8  1  0  0  0  0
  7  9  1  0  0  0  0
  9 10  1  0  0  0  0
  9 11  1  0  0  0  0
  9 18  1  0  0  0  0
 11 12  1  0  0  0  0
 11 13  1  0  0  0  0
 11 14  1  0  0  0  0
 14 15  2  0  0  0  0
 14 16  1  0  0  0  0
 16 17  1  0  0  0  0
 18 19  2  0  0  0  0
 18 20  1  0  0  0  0
 20 21  1  0  0  0  0
 20 22  1  0  0  0  0
 22 23  1  0  0  0  0
 22 24  1  0  0  0  0
 22 25  1  0  0  0  0
M  END
$$$$

  -OEChem-02102214113D

 25 24  0     1  0  0  0  0  0999 V2000
   -2.3425   -3.8675   -0.2527 H   0  0  0  0  0  0  0  0  0  0  0  0
   -2.4502   -2.8205   -0.5502 C   0  0  0  0  0  0  0  0  0  0  0  0
   -3.1665   -2.3362    0.1178 H   0  0  0  0  0  0  0  0  0  0  0  0
   -2.8327   -2.7834   -1.5731 H   0  0  0  0  0  0  0  0  0  0  0  0
   -1.1094   -2.1152   -0.4728 C   0  0  0  0  0  0  0  0  0  0  0  0
   -0.1216   -2.7256   -0.1044 O   0  0  0  0  0  0  0  0  0  0  0  0
   -1.0162   -0.7829   -0.8231 N   0  0  0  0  0  0  0  0  0  0  0  0
   -1.8700   -0.3301   -1.1506 H   0  0  0  0  0  0  0  0  0  0  0  0
    0.2282    0.0070   -0.8294 C   0  0  1  0  0  0  0  0  0  0  0  0
    0.9479   -0.5195   -1.4674 H   0  0  0  0  0  0  0  0  0  0  0  0
    0.0806    1.4592   -1.3859 C   0  0  0  0  0  0  0  0  0  0  0  0
    0.6834    2.1361   -0.7720 H   0  0  0  0  0  0  0  0  0  0  0  0
    0.5354    1.4644   -2.3798 H   0  0  0  0  0  0  0  0  0  0  0  0
   -1.2961    2.1150   -1.5575 C   0  0  0  0  0  0  0  0  0  0  0  0
   -2.3325    1.4688   -1.5304 O   0  0  0  0  0  0  0  0  0  0  0  0
   -1.2707    3.4535   -1.7510 O   0  0  0  0  0  0  0  0  0  0  0  0
   -2.1929    3.7355   -1.8501 H   0  0  0  0  0  0  0  0  0  0  0  0
    0.8855    0.0712    0.5681 C   0  0  0  0  0  0  0  0  0  0  0  0
    2.1035    0.1423    0.6610 O   0  0  0  0  0  0  0  0  0  0  0  0
    0.1089    0.3211    1.6849 N   0  0  0  0  0  0  0  0  0  0  0  0
   -0.8918    0.1937    1.5742 H   0  0  0  0  0  0  0  0  0  0  0  0
    0.6636    0.4136    3.0296 C   0  0  0  0  0  0  0  0  0  0  0  0
    1.4123    1.2111    3.0824 H   0  0  0  0  0  0  0  0  0  0  0  0
   -0.1277    0.6366    3.7516 H   0  0  0  0  0  0  0  0  0  0  0  0
    1.1365   -0.5328    3.3125 H   0  0  0  0  0  0  0  0  0  0  0  0
  1  2  1  0  0  0  0
  2  3  1  0  0  0  0
  2  4  1  0  0  0  0
  2  5  1  0  0  0  0
  5  6  2  0  0  0  0
  5  7  1  0  0  0  0
  7  8  1  0  0  0  0
  7  9  1  0  0  0  0
  9 10  1  0  0  0  0
  9 11  1  0  0  0  0
  9 18  1  0  0  0  0
 11 12  1  0  0  0  0
 11 13  1  0  0  0  0
 11 14  1  0  0  0  0
 14 15  2  0  0  0  0
 14 16  1  0  0  0  0
 16 17  1  0  0  0  0
 18 19  2  0  0  0  0
 18 20  1  0  0  0  0
 20 21  1  0  0  0  0
 20 22  1  0  0  0  0
 22 23  1  0  0  0  0
 22 24  1  0  0  0  0
 22 25  1  0  0  0  0
M  END
$$$$

  -OEChem-02102214113D

 25 24  0     1  0  0  0  0  0999 V2000
   -2.3346   -3.8578   -0.2148 H   0  0  0  0  0  0  0  0  0  0  0  0
   -2.4448   -2.8120   -0.5157 C   0  0  0  0  0  0  0  0  0  0  0  0
   -3.1271   -2.3153    0.1782 H   0  0  0  0  0  0  0  0  0  0  0  0
   -2.8704   -2.7781   -1.5216 H   0  0  0  0  0  0  0  0  0  0  0  0
   -1.0950   -2.1203   -0.5018 C   0  0  0  0  0  0  0  0  0  0  0  0
   -0.0952   -2.7433   -0.1909 O   0  0  0  0  0  0  0  0  0  0  0  0
   -1.0059   -0.7863   -0.8465 N   0  0  0  0  0  0  0  0  0  0  0  0
   -1.8769   -0.3081   -1.0780 H   0  0  0  0  0  0  0  0  0  0  0  0
    0.2367    0.0066   -0.8430 C   0  0  1  0  0  0  0  0  0  0  0  0
    0.9615   -0.5142   -1.4801 H   0  0  0  0  0  0  0  0  0  0  0  0
    0.0860    1.4605   -1.3924 C   0  0  0  0  0  0  0  0  0  0  0  0
    0.6850    2.1392   -0.7770 H   0  0  0  0  0  0  0  0  0  0  0  0
    0.5422    1.4671   -2.3858 H   0  0  0  0  0  0  0  0  0  0  0  0
   -1.2922    2.1123   -1.5652 C   0  0  0  0  0  0  0  0  0  0  0  0
   -2.3282    1.5296   -1.2825 O   0  0  0  0  0  0  0  0  0  0  0  0
   -1.2688    3.3726   -2.0557 O   0  0  0  0  0  0  0  0  0  0  0  0
   -2.1917    3.6636   -2.1133 H   0  0  0  0  0  0  0  0  0  0  0  0
    0.8846    0.0652    0.5591 C   0  0  0  0  0  0  0  0  0  0  0  0
    2.1017    0.1338    0.6624 O   0  0  0  0  0  0  0  0  0  0  0  0
    0.0998    0.3083    1.6718 N   0  0  0  0  0  0  0  0  0  0  0  0
   -0.9029    0.2085    1.5496 H   0  0  0  0  0  0  0  0  0  0  0  0
    0.6424    0.4056    3.0210 C   0  0  0  0  0  0  0  0  0  0  0  0
    1.3821    1.2109    3.0807 H   0  0  0  0  0  0  0  0  0  0  0  0
   -0.1571    0.6196    3.7365 H   0  0  0  0  0  0  0  0  0  0  0  0
    1.1227   -0.5359    3.3077 H   0  0  0  0  0  0  0  0  0  0  0  0
  1  2  1  0  0  0  0
  2  3  1  0  0  0  0
  2  4  1  0  0  0  0
  2  5  1  0  0  0  0
  5  6  2  0  0  0  0
  5  7  1  0  0  0  0
  7  8  1  0  0  0  0
  7  9  1  0  0  0  0
  9 10  1  0  0  0  0
  9 11  1  0  0  0  0
  9 18  1  0  0  0  0
 11 12  1  0  0  0  0
 11 13  1  0  0  0  0
 11 14  1  0  0  0  0
 14 15  2  0  0  0  0
 14 16  1  0  0  0  0
 16 17  1  0  0  0  0
 18 19  2  0  0  0  0
 18 20  1  0  0  0  0
 20 21  1  0  0  0  0
 20 22  1  0  0  0  0
 22 23  1  0  0  0  0
 22 24  1  0  0  0  0
 22 25  1  0  0  0  0
M  END
$$$$

  -OEChem-02102214113D

 25 24  0     1  0  0  0  0  0999 V2000
   -2.3426   -3.8348   -0.1876 H   0  0  0  0  0  0  0  0  0  0  0  0
   -2.4484   -2.7884   -0.4878 C   0  0  0  0  0  0  0  0  0  0  0  0
   -3.0907   -2.2779    0.2337 H   0  0  0  0  0  0  0  0  0  0  0  0
   -2.9174   -2.7506   -1.4740 H   0  0  0  0  0  0  0  0  0  0  0  0
   -1.0877   -2.1196   -0.5368 C   0  0  0  0  0  0  0  0  0  0  0  0
   -0.0844   -2.7606   -0.2782 O   0  0  0  0  0  0  0  0  0  0  0  0
   -0.9928   -0.7849   -0.8772 N   0  0  0  0  0  0  0  0  0  0  0  0
   -1.8691   -0.2821   -1.0175 H   0  0  0  0  0  0  0  0  0  0  0  0
    0.2555   -0.0002   -0.8579 C   0  0  1  0  0  0  0  0  0  0  0  0
    0.9850   -0.5180   -1.4920 H   0  0  0  0  0  0  0  0  0  0  0  0
    0.1065    1.4560   -1.3972 C   0  0  0  0  0  0  0  0  0  0  0  0
    0.7000    2.1360   -0.7783 H   0  0  0  0  0  0  0  0  0  0  0  0
    0.5633    1.4687   -2.3907 H   0  0  0  0  0  0  0  0  0  0  0  0
   -1.2800    2.0885   -1.5634 C   0  0  0  0  0  0  0  0  0  0  0  0
   -2.2724    1.6030   -1.0404 O   0  0  0  0  0  0  0  0  0  0  0  0
   -1.3190    3.2108   -2.3176 O   0  0  0  0  0  0  0  0  0  0  0  0
   -2.2427    3.5046   -2.3279 H   0  0  0  0  0  0  0  0  0  0  0  0
    0.8883    0.0490    0.5513 C   0  0  0  0  0  0  0  0  0  0  0  0
    2.1046    0.1025    0.6706 O   0  0  0  0  0  0  0  0  0  0  0  0
    0.0923    0.2940    1.6557 N   0  0  0  0  0  0  0  0  0  0  0  0
   -0.9120    0.2452    1.5165 H   0  0  0  0  0  0  0  0  0  0  0  0
    0.6189    0.4092    3.0096 C   0  0  0  0  0  0  0  0  0  0  0  0
    1.3268    1.2421    3.0758 H   0  0  0  0  0  0  0  0  0  0  0  0
   -0.1945    0.5909    3.7183 H   0  0  0  0  0  0  0  0  0  0  0  0
    1.1323   -0.5138    3.2995 H   0  0  0  0  0  0  0  0  0  0  0  0
  1  2  1  0  0  0  0
  2  3  1  0  0  0  0
  2  4  1  0  0  0  0
  2  5  1  0  0  0  0
  5  6  2  0  0  0  0
  5  7  1  0  0  0  0
  7  8  1  0  0  0  0
  7  9  1  0  0  0  0
  9 10  1  0  0  0  0
  9 11  1  0  0  0  0
  9 18  1  0  0  0  0
 11 12  1  0  0  0  0
 11 13  1  0  0  0  0
 11 14  1  0  0  0  0
 14 15  2  0  0  0  0
 14 16  1  0  0  0  0
 16 17  1  0  0  0  0
 18 19  2  0  0  0  0
 18 20  1  0  0  0  0
 20 21  1  0  0  0  0
 20 22  1  0  0  0  0
 22 23  1  0  0  0  0
 22 24  1  0  0  0  0
 22 25  1  0  0  0  0
M  END
$$$$

  -OEChem-02102214113D

 25 24  0     1  0  0  0  0  0999 V2000
   -2.3537   -3.8053   -0.1697 H   0  0  0  0  0  0  0  0  0  0  0  0
   -2.4531   -2.7572   -0.4662 C   0  0  0  0  0  0  0  0  0  0  0  0
   -3.0509   -2.2348    0.2844 H   0  0  0  0  0  0  0  0  0  0  0  0
   -2.9670   -2.7106   -1.4292 H   0  0  0  0  0  0  0  0  0  0  0  0
   -1.0833   -2.1151   -0.5794 C   0  0  0  0  0  0  0  0  0  0  0  0
   -0.0814   -2.7772   -0.3735 O   0  0  0  0  0  0  0  0  0  0  0  0
   -0.9788   -0.7796   -0.9150 N   0  0  0  0  0  0  0  0  0  0  0  0
   -1.8515   -0.2556   -0.9709 H   0  0  0  0  0  0  0  0  0  0  0  0
    0.2803   -0.0116   -0.8737 C   0  0  1  0  0  0  0  0  0  0  0  0
    1.0132   -0.5284   -1.5050 H   0  0  0  0  0  0  0  0  0  0  0  0
    0.1381    1.4478   -1.3977 C   0  0  0  0  0  0  0  0  0  0  0  0
    0.7230    2.1272   -0.7699 H   0  0  0  0  0  0  0  0  0  0  0  0
    0.5965    1.4735   -2.3900 H   0  0  0  0  0  0  0  0  0  0  0  0
   -1.2614    2.0475   -1.5509 C   0  0  0  0  0  0  0  0  0  0  0  0
   -2.1722    1.6911   -0.8168 O   0  0  0  0  0  0  0  0  0  0  0  0
   -1.4113    2.9810   -2.5187 O   0  0  0  0  0  0  0  0  0  0  0  0
   -2.3335    3.2772   -2.4776 H   0  0  0  0  0  0  0  0  0  0  0  0
    0.8924    0.0228    0.5443 C   0  0  0  0  0  0  0  0  0  0  0  0
    2.1073    0.0499    0.6841 O   0  0  0  0  0  0  0  0  0  0  0  0
    0.0822    0.2743    1.6368 N   0  0  0  0  0  0  0  0  0  0  0  0
   -0.9189    0.3132    1.4712 H   0  0  0  0  0  0  0  0  0  0  0  0
    0.5891    0.4231    2.9948 C   0  0  0  0  0  0  0  0  0  0  0  0
    1.2675    1.2804    3.0586 H   0  0  0  0  0  0  0  0  0  0  0  0
   -0.2382    0.5835    3.6926 H   0  0  0  0  0  0  0  0  0  0  0  0
    1.1308   -0.4782    3.3010 H   0  0  0  0  0  0  0  0  0  0  0  0
  1  2  1  0  0  0  0
  2  3  1  0  0  0  0
  2  4  1  0  0  0  0
  2  5  1  0  0  0  0
  5  6  2  0  0  0  0
  5  7  1  0  0  0  0
  7  8  1  0  0  0  0
  7  9  1  0  0  0  0
  9 10  1  0  0  0  0
  9 11  1  0  0  0  0
  9 18  1  0  0  0  0
 11 12  1  0  0  0  0
 11 13  1  0  0  0  0
 11 14  1  0  0  0  0
 14 15  2  0  0  0  0
 14 16  1  0  0  0  0
 16 17  1  0  0  0  0
 18 19  2  0  0  0  0
 18 20  1  0  0  0  0
 20 21  1  0  0  0  0
 20 22  1  0  0  0  0
 22 23  1  0  0  0  0
 22 24  1  0  0  0  0
 22 25  1  0  0  0  0
M  END
$$$$

  -OEChem-02102214113D

 25 24  0     1  0  0  0  0  0999 V2000
   -2.3667   -3.7783   -0.1724 H   0  0  0  0  0  0  0  0  0  0  0  0
   -2.4589   -2.7287   -0.4662 C   0  0  0  0  0  0  0  0  0  0  0  0
   -3.0313   -2.1986    0.2988 H   0  0  0  0  0  0  0  0  0  0  0  0
   -2.9947   -2.6747   -1.4170 H   0  0  0  0  0  0  0  0  0  0  0  0
   -1.0837   -2.1054   -0.6114 C   0  0  0  0  0  0  0  0  0  0  0  0
   -0.0872   -2.7836   -0.4351 O   0  0  0  0  0  0  0  0  0  0  0  0
   -0.9681   -0.7695   -0.9436 N   0  0  0  0  0  0  0  0  0  0  0  0
   -1.8340   -0.2333   -0.9508 H   0  0  0  0  0  0  0  0  0  0  0  0
    0.3028   -0.0197   -0.8822 C   0  0  1  0  0  0  0  0  0  0  0  0
    1.0377   -0.5375   -1.5105 H   0  0  0  0  0  0  0  0  0  0  0  0
    0.1683    1.4415   -1.3940 C   0  0  0  0  0  0  0  0  0  0  0  0
    0.7413    2.1216   -0.7563 H   0  0  0  0  0  0  0  0  0  0  0  0
    0.6286    1.4833   -2.3850 H   0  0  0  0  0  0  0  0  0  0  0  0
   -1.2465    1.9977   -1.5332 C   0  0  0  0  0  0  0  0  0  0  0  0
   -2.0513    1.8097   -0.6319 O   0  0  0  0  0  0  0  0  0  0  0  0
   -1.5357    2.6880   -2.6603 O   0  0  0  0  0  0  0  0  0  0  0  0
   -2.4522    2.9914   -2.5734 H   0  0  0  0  0  0  0  0  0  0  0  0
    0.8971    0.0022    0.5437 C   0  0  0  0  0  0  0  0  0  0  0  0
    2.1100   -0.0012    0.7009 O   0  0  0  0  0  0  0  0  0  0  0  0
    0.0754    0.2634    1.6256 N   0  0  0  0  0  0  0  0  0  0  0  0
   -0.9142    0.3908    1.4346 H   0  0  0  0  0  0  0  0  0  0  0  0
    0.5689    0.4399    2.9850 C   0  0  0  0  0  0  0  0  0  0  0  0
    1.2446    1.2998    3.0392 H   0  0  0  0  0  0  0  0  0  0  0  0
   -0.2658    0.6110    3.6715 H   0  0  0  0  0  0  0  0  0  0  0  0
    1.1094   -0.4540    3.3138 H   0  0  0  0  0  0  0  0  0  0  0  0
  1  2  1  0  0  0  0
  2  3  1  0  0  0  0
  2  4  1  0  0  0  0
  2  5  1  0  0  0  0
  5  6  2  0  0  0  0
  5  7  1  0  0  0  0
  7  8  1  0  0  0  0
  7  9  1  0  0  0  0
  9 10  1  0  0  0  0
  9 11  1  0  0  0  0
  9 18  1  0  0  0  0
 11 12  1  0  0  0  0
 11 13  1  0  0  0  0
 11 14  1  0  0  0  0
 14 15  2  0  0  0  0
 14 16  1  0  0  0  0
 16 17  1  0  0  0  0
 18 19  2  0  0  0  0
 18 20  1  0  0  0  0
 20 21  1  0  0  0  0
 20 22  1  0  0  0  0
 22 23  1  0  0  0  0
 22 24  1  0  0  0  0
 22 25  1  0  0  0  0
M  END
$$$$

  -OEChem-02102214113D

 25 24  0     1  0  0  0  0  0999 V2000
   -2.3912   -3.7665   -0.2106 H   0  0  0  0  0  0  0  0  0  0  0  0
   -2.4743   -2.7132   -0.4939 C   0  0  0  0  0  0  0  0  0  0  0  0
   -3.0489   -2.1878    0.2726 H   0  0  0  0  0  0  0  0  0  0  0  0
   -3.0026   -2.6464   -1.4481 H   0  0  0  0  0  0  0  0  0  0  0  0
   -1.0936   -2.0976   -0.6210 C   0  0  0  0  0  0  0  0  0  0  0  0
   -0.1039   -2.7833   -0.4357 O   0  0  0  0  0  0  0  0  0  0  0  0
   -0.9655   -0.7617   -0.9502 N   0  0  0  0  0  0  0  0  0  0  0  0
   -1.8282   -0.2232   -0.9720 H   0  0  0  0  0  0  0  0  0  0  0  0
    0.3138   -0.0250   -0.8769 C   0  0  1  0  0  0  0  0  0  0  0  0
    1.0486   -0.5455   -1.5030 H   0  0  0  0  0  0  0  0  0  0  0  0
    0.1868    1.4356   -1.3854 C   0  0  0  0  0  0  0  0  0  0  0  0
    0.7497    2.1186   -0.7414 H   0  0  0  0  0  0  0  0  0  0  0  0
    0.6490    1.4869   -2.3751 H   0  0  0  0  0  0  0  0  0  0  0  0
   -1.2386    1.9560   -1.5166 C   0  0  0  0  0  0  0  0  0  0  0  0
   -1.9361    1.9873   -0.5142 O   0  0  0  0  0  0  0  0  0  0  0  0
   -1.6637    2.3520   -2.7383 O   0  0  0  0  0  0  0  0  0  0  0  0
   -2.5685    2.6813   -2.6253 H   0  0  0  0  0  0  0  0  0  0  0  0
    0.9022   -0.0088    0.5518 C   0  0  0  0  0  0  0  0  0  0  0  0
    2.1142   -0.0346    0.7146 O   0  0  0  0  0  0  0  0  0  0  0  0
    0.0789    0.2607    1.6304 N   0  0  0  0  0  0  0  0  0  0  0  0
   -0.8987    0.4485    1.4275 H   0  0  0  0  0  0  0  0  0  0  0  0
    0.5746    0.4627    2.9856 C   0  0  0  0  0  0  0  0  0  0  0  0
    1.2281    1.3402    3.0280 H   0  0  0  0  0  0  0  0  0  0  0  0
   -0.2610    0.6177    3.6747 H   0  0  0  0  0  0  0  0  0  0  0  0
    1.1394   -0.4139    3.3201 H   0  0  0  0  0  0  0  0  0  0  0  0
  1  2  1  0  0  0  0
  2  3  1  0  0  0  0
  2  4  1  0  0  0  0
  2  5  1  0  0  0  0
  5  6  2  0  0  0  0
  5  7  1  0  0  0  0
  7  8  1  0  0  0  0
  7  9  1  0  0  0  0
  9 10  1  0  0  0  0
  9 11  1  0  0  0  0
  9 18  1  0  0  0  0
 11 12  1  0  0  0  0
 11 13  1  0  0  0  0
 11 14  1  0  0  0  0
 14 15  2  0  0  0  0
 14 16  1  0  0  0  0
 16 17  1  0  0  0  0
 18 19  2  0  0  0  0
 18 20  1  0  0  0  0
 20 21  1  0  0  0  0
 20 22  1  0  0  0  0
 22 23  1  0  0  0  0
 22 24  1  0  0  0  0
 22 25  1  0  0  0  0
M  END
$$$$

  -OEChem-02102214113D

 25 24  0     1  0  0  0  0  0999 V2000
   -2.4360   -3.7729   -0.2805 H   0  0  0  0  0  0  0  0  0  0  0  0
   -2.5011   -2.7216   -0.5758 C   0  0  0  0  0  0  0  0  0  0  0  0
   -3.1595   -2.2005    0.1232 H   0  0  0  0  0  0  0  0  0  0  0  0
   -2.9266   -2.6645   -1.5805 H   0  0  0  0  0  0  0  0  0  0  0  0
   -1.1220   -2.0895   -0.5590 C   0  0  0  0  0  0  0  0  0  0  0  0
   -0.1519   -2.7576   -0.2495 O   0  0  0  0  0  0  0  0  0  0  0  0
   -0.9728   -0.7604   -0.9059 N   0  0  0  0  0  0  0  0  0  0  0  0
   -1.8188   -0.2548   -1.1520 H   0  0  0  0  0  0  0  0  0  0  0  0
    0.3112   -0.0289   -0.8560 C   0  0  1  0  0  0  0  0  0  0  0  0
    1.0365   -0.5591   -1.4847 H   0  0  0  0  0  0  0  0  0  0  0  0
    0.1817    1.4264   -1.3762 C   0  0  0  0  0  0  0  0  0  0  0  0
    0.7546    2.1149   -0.7466 H   0  0  0  0  0  0  0  0  0  0  0  0
    0.6269    1.4720   -2.3738 H   0  0  0  0  0  0  0  0  0  0  0  0
   -1.2476    1.9368   -1.4870 C   0  0  0  0  0  0  0  0  0  0  0  0
   -1.8305    2.2367   -0.4587 O   0  0  0  0  0  0  0  0  0  0  0  0
   -1.8158    1.9914   -2.7137 O   0  0  0  0  0  0  0  0  0  0  0  0
   -2.6966    2.3790   -2.5935 H   0  0  0  0  0  0  0  0  0  0  0  0
    0.9178    0.0076    0.5652 C   0  0  0  0  0  0  0  0  0  0  0  0
    2.1325   -0.0176    0.7090 O   0  0  0  0  0  0  0  0  0  0  0  0
    0.1130    0.2975    1.6522 N   0  0  0  0  0  0  0  0  0  0  0  0
   -0.8739    0.4516    1.4684 H   0  0  0  0  0  0  0  0  0  0  0  0
    0.6259    0.4934    3.0017 C   0  0  0  0  0  0  0  0  0  0  0  0
    1.3136    1.3449    3.0308 H   0  0  0  0  0  0  0  0  0  0  0  0
   -0.1979    0.6890    3.6947 H   0  0  0  0  0  0  0  0  0  0  0  0
    1.1583   -0.4014    3.3412 H   0  0  0  0  0  0  0  0  0  0  0  0
  1  2  1  0  0  0  0
  2  3  1  0  0  0  0
  2  4  1  0  0  0  0
  2  5  1  0  0  0  0
  5  6  2  0  0  0  0
  5  7  1  0  0  0  0
  7  8  1  0  0  0  0
  7  9  1  0  0  0  0
  9 10  1  0  0  0  0
  9 11  1  0  0  0  0
  9 18  1  0  0  0  0
 11 12  1  0  0  0  0
 11 13  1  0  0  0  0
 11 14  1  0  0  0  0
 14 15  2  0  0  0  0
 14 16  1  0  0  0  0
 16 17  1  0  0  0  0
 18 19  2  0  0  0  0
 18 20  1  0  0  0  0
 20 21  1  0  0  0  0
 20 22  1  0  0  0  0
 22 23  1  0  0  0  0
 22 24  1  0  0  0  0
 22 25  1  0  0  0  0
M  END
$$$$

  -OEChem-02102214113D

 25 24  0     1  0  0  0  0  0999 V2000
   -2.4682   -3.7819   -0.3495 H   0  0  0  0  0  0  0  0  0  0  0  0
   -2.5149   -2.7403   -0.6800 C   0  0  0  0  0  0  0  0  0  0  0  0
   -3.2856   -2.2230   -0.1039 H   0  0  0  0  0  0  0  0  0  0  0  0
   -2.7835   -2.7198   -1.7389 H   0  0  0  0  0  0  0  0  0  0  0  0
   -1.1719   -2.0667   -0.4714 C   0  0  0  0  0  0  0  0  0  0  0  0
   -0.2477   -2.6974    0.0089 O   0  0  0  0  0  0  0  0  0  0  0  0
   -1.0043   -0.7473   -0.8468 N   0  0  0  0  0  0  0  0  0  0  0  0
   -1.7633   -0.3389   -1.3870 H   0  0  0  0  0  0  0  0  0  0  0  0
    0.2925   -0.0378   -0.8272 C   0  0  1  0  0  0  0  0  0  0  0  0
    1.0002   -0.5861   -1.4598 H   0  0  0  0  0  0  0  0  0  0  0  0
    0.1617    1.4113   -1.3651 C   0  0  0  0  0  0  0  0  0  0  0  0
    0.7552    2.1034   -0.7585 H   0  0  0  0  0  0  0  0  0  0  0  0
    0.5826    1.4408   -2.3735 H   0  0  0  0  0  0  0  0  0  0  0  0
   -1.2668    1.9304   -1.4523 C   0  0  0  0  0  0  0  0  0  0  0  0
   -1.7324    2.5060   -0.4847 O   0  0  0  0  0  0  0  0  0  0  0  0
   -1.9746    1.6623   -2.5751 O   0  0  0  0  0  0  0  0  0  0  0  0
   -2.8299    2.1082   -2.4669 H   0  0  0  0  0  0  0  0  0  0  0  0
    0.9294    0.0227    0.5805 C   0  0  0  0  0  0  0  0  0  0  0  0
    2.1474   -0.0064    0.6941 O   0  0  0  0  0  0  0  0  0  0  0  0
    0.1544    0.3502    1.6778 N   0  0  0  0  0  0  0  0  0  0  0  0
   -0.8467    0.4314    1.5288 H   0  0  0  0  0  0  0  0  0  0  0  0
    0.6949    0.5327    3.0182 C   0  0  0  0  0  0  0  0  0  0  0  0
    1.4377    1.3374    3.0260 H   0  0  0  0  0  0  0  0  0  0  0  0
   -0.1057    0.7947    3.7164 H   0  0  0  0  0  0  0  0  0  0  0  0
    1.1708   -0.3903    3.3663 H   0  0  0  0  0  0  0  0  0  0  0  0
  1  2  1  0  0  0  0
  2  3  1  0  0  0  0
  2  4  1  0  0  0  0
  2  5  1  0  0  0  0
  5  6  2  0  0  0  0
  5  7  1  0  0  0  0
  7  8  1  0  0  0  0
  7  9  1  0  0  0  0
  9 10  1  0  0  0  0
  9 11  1  0  0  0  0
  9 18  1  0  0  0  0
 11 12  1  0  0  0  0
 11 13  1  0  0  0  0
 11 14  1  0  0  0  0
 14 15  2  0  0  0  0
 14 16  1  0  0  0  0
 16 17  1  0  0  0  0
 18 19  2  0  0  0  0
 18 20  1  0  0  0  0
 20 21  1  0  0  0  0
 20 22  1  0  0  0  0
 22 23  1  0  0  0  0
 22 24  1  0  0  0  0
 22 25  1  0  0  0  0
M  END
$$$$

  -OEChem-02102214113D

 25 24  0     1  0  0  0  0  0999 V2000
   -2.4541   -3.8015   -0.3601 H   0  0  0  0  0  0  0  0  0  0  0  0
   -2.5056   -2.7601   -0.6904 C   0  0  0  0  0  0  0  0  0  0  0  0
   -3.2985   -2.2538   -0.1350 H   0  0  0  0  0  0  0  0  0  0  0  0
   -2.7458   -2.7415   -1.7563 H   0  0  0  0  0  0  0  0  0  0  0  0
   -1.1777   -2.0687   -0.4451 C   0  0  0  0  0  0  0  0  0  0  0  0
   -0.2627   -2.6827    0.0733 O   0  0  0  0  0  0  0  0  0  0  0  0
   -1.0152   -0.7503   -0.8256 N   0  0  0  0  0  0  0  0  0  0  0  0
   -1.7576   -0.3636   -1.4061 H   0  0  0  0  0  0  0  0  0  0  0  0
    0.2788   -0.0371   -0.8137 C   0  0  1  0  0  0  0  0  0  0  0  0
    0.9845   -0.5890   -1.4458 H   0  0  0  0  0  0  0  0  0  0  0  0
    0.1435    1.4066   -1.3673 C   0  0  0  0  0  0  0  0  0  0  0  0
    0.7402    2.1030   -0.7681 H   0  0  0  0  0  0  0  0  0  0  0  0
    0.5638    1.4240   -2.3761 H   0  0  0  0  0  0  0  0  0  0  0  0
   -1.2832    1.9344   -1.4659 C   0  0  0  0  0  0  0  0  0  0  0  0
   -1.6548    2.7501   -0.6416 O   0  0  0  0  0  0  0  0  0  0  0  0
   -2.0806    1.4510   -2.4502 O   0  0  0  0  0  0  0  0  0  0  0  0
   -2.9095    1.9532   -2.3880 H   0  0  0  0  0  0  0  0  0  0  0  0
    0.9274    0.0339    0.5883 C   0  0  0  0  0  0  0  0  0  0  0  0
    2.1470    0.0212    0.6881 O   0  0  0  0  0  0  0  0  0  0  0  0
    0.1622    0.3640    1.6916 N   0  0  0  0  0  0  0  0  0  0  0  0
   -0.8449    0.3724    1.5670 H   0  0  0  0  0  0  0  0  0  0  0  0
    0.7155    0.5285    3.0293 C   0  0  0  0  0  0  0  0  0  0  0  0
    1.4778    1.3149    3.0345 H   0  0  0  0  0  0  0  0  0  0  0  0
   -0.0736    0.8092    3.7333 H   0  0  0  0  0  0  0  0  0  0  0  0
    1.1708   -0.4066    3.3720 H   0  0  0  0  0  0  0  0  0  0  0  0
  1  2  1  0  0  0  0
  2  3  1  0  0  0  0
  2  4  1  0  0  0  0
  2  5  1  0  0  0  0
  5  6  2  0  0  0  0
  5  7  1  0  0  0  0
  7  8  1  0  0  0  0
  7  9  1  0  0  0  0
  9 10  1  0  0  0  0
  9 11  1  0  0  0  0
  9 18  1  0  0  0  0
 11 12  1  0  0  0  0
 11 13  1  0  0  0  0
 11 14  1  0  0  0  0
 14 15  2  0  0  0  0
 14 16  1  0  0  0  0
 16 17  1  0  0  0  0
 18 19  2  0  0  0  0
 18 20  1  0  0  0  0
 20 21  1  0  0  0  0
 20 22  1  0  0  0  0
 22 23  1  0  0  0  0
 22 24  1  0  0  0  0
 22 25  1  0  0  0  0
M  END
$$$$

  -OEChem-02102214113D

 25 24  0     1  0  0  0  0  0999 V2000
   -2.4172   -3.8330   -0.3434 H   0  0  0  0  0  0  0  0  0  0  0  0
   -2.4867   -2.7888   -0.6615 C   0  0  0  0  0  0  0  0  0  0  0  0
   -3.2784   -2.2985   -0.0902 H   0  0  0  0  0  0  0  0  0  0  0  0
   -2.7414   -2.7618   -1.7237 H   0  0  0  0  0  0  0  0  0  0  0  0
   -1.1646   -2.0828   -0.4268 C   0  0  0  0  0  0  0  0  0  0  0  0
   -0.2399   -2.6855    0.0873 O   0  0  0  0  0  0  0  0  0  0  0  0
   -1.0192   -0.7625   -0.8073 N   0  0  0  0  0  0  0  0  0  0  0  0
   -1.7728   -0.3788   -1.3768 H   0  0  0  0  0  0  0  0  0  0  0  0
    0.2641   -0.0329   -0.8061 C   0  0  1  0  0  0  0  0  0  0  0  0
    0.9707   -0.5830   -1.4386 H   0  0  0  0  0  0  0  0  0  0  0  0
    0.1224    1.4075   -1.3715 C   0  0  0  0  0  0  0  0  0  0  0  0
    0.7241    2.1043   -0.7776 H   0  0  0  0  0  0  0  0  0  0  0  0
    0.5450    1.4126   -2.3795 H   0  0  0  0  0  0  0  0  0  0  0  0
   -1.2979    1.9567   -1.4874 C   0  0  0  0  0  0  0  0  0  0  0  0
   -1.5698    2.9671   -0.8646 O   0  0  0  0  0  0  0  0  0  0  0  0
   -2.1777    1.3316   -2.3108 O   0  0  0  0  0  0  0  0  0  0  0  0
   -2.9734    1.8890   -2.3113 H   0  0  0  0  0  0  0  0  0  0  0  0
    0.9215    0.0448    0.5915 C   0  0  0  0  0  0  0  0  0  0  0  0
    2.1417    0.0528    0.6822 O   0  0  0  0  0  0  0  0  0  0  0  0
    0.1591    0.3635    1.7005 N   0  0  0  0  0  0  0  0  0  0  0  0
   -0.8483    0.3100    1.5914 H   0  0  0  0  0  0  0  0  0  0  0  0
    0.7199    0.5076    3.0378 C   0  0  0  0  0  0  0  0  0  0  0  0
    1.4897    1.2866    3.0492 H   0  0  0  0  0  0  0  0  0  0  0  0
   -0.0632    0.7881    3.7486 H   0  0  0  0  0  0  0  0  0  0  0  0
    1.1677   -0.4359    3.3677 H   0  0  0  0  0  0  0  0  0  0  0  0
  1  2  1  0  0  0  0
  2  3  1  0  0  0  0
  2  4  1  0  0  0  0
  2  5  1  0  0  0  0
  5  6  2  0  0  0  0
  5  7  1  0  0  0  0
  7  8  1  0  0  0  0
  7  9  1  0  0  0  0
  9 10  1  0  0  0  0
  9 11  1  0  0  0  0
  9 18  1  0  0  0  0
 11 12  1  0  0  0  0
 11 13  1  0  0  0  0
 11 14  1  0  0  0  0
 14 15  2  0  0  0  0
 14 16  1  0  0  0  0
 16 17  1  0  0  0  0
 18 19  2  0  0  0  0
 18 20  1  0  0  0  0
 20 21  1  0  0  0  0
 20 22  1  0  0  0  0
 22 23  1  0  0  0  0
 22 24  1  0  0  0  0
 22 25  1  0  0  0  0
M  END
$$$$

  -OEChem-02102214113D

 25 24  0     1  0  0  0  0  0999 V2000
   -2.3827   -3.8653   -0.3112 H   0  0  0  0  0  0  0  0  0  0  0  0
   -2.4667   -2.8217   -0.6277 C   0  0  0  0  0  0  0  0  0  0  0  0
   -3.2519   -2.3385   -0.0415 H   0  0  0  0  0  0  0  0  0  0  0  0
   -2.7415   -2.7968   -1.6850 H   0  0  0  0  0  0  0  0  0  0  0  0
   -1.1464   -2.1045   -0.4178 C   0  0  0  0  0  0  0  0  0  0  0  0
   -0.2043   -2.7012    0.0716 O   0  0  0  0  0  0  0  0  0  0  0  0
   -1.0216   -0.7804   -0.7917 N   0  0  0  0  0  0  0  0  0  0  0  0
   -1.8005   -0.3878   -1.3204 H   0  0  0  0  0  0  0  0  0  0  0  0
    0.2482   -0.0300   -0.8004 C   0  0  1  0  0  0  0  0  0  0  0  0
    0.9562   -0.5750   -1.4357 H   0  0  0  0  0  0  0  0  0  0  0  0
    0.1032    1.4113   -1.3697 C   0  0  0  0  0  0  0  0  0  0  0  0
    0.7108    2.1030   -0.7758 H   0  0  0  0  0  0  0  0  0  0  0  0
    0.5313    1.4084   -2.3754 H   0  0  0  0  0  0  0  0  0  0  0  0
   -1.3052    1.9950   -1.5048 C   0  0  0  0  0  0  0  0  0  0  0  0
   -1.4685    3.1399   -1.1239 O   0  0  0  0  0  0  0  0  0  0  0  0
   -2.2757    1.2805   -2.1310 O   0  0  0  0  0  0  0  0  0  0  0  0
   -3.0358    1.8825   -2.1951 H   0  0  0  0  0  0  0  0  0  0  0  0
    0.9142    0.0485    0.5928 C   0  0  0  0  0  0  0  0  0  0  0  0
    2.1346    0.0844    0.6751 O   0  0  0  0  0  0  0  0  0  0  0  0
    0.1527    0.3471    1.7080 N   0  0  0  0  0  0  0  0  0  0  0  0
   -0.8524    0.2503    1.6088 H   0  0  0  0  0  0  0  0  0  0  0  0
    0.7204    0.4876    3.0428 C   0  0  0  0  0  0  0  0  0  0  0  0
    1.4754    1.2808    3.0571 H   0  0  0  0  0  0  0  0  0  0  0  0
   -0.0627    0.7458    3.7617 H   0  0  0  0  0  0  0  0  0  0  0  0
    1.1886   -0.4502    3.3597 H   0  0  0  0  0  0  0  0  0  0  0  0
  1  2  1  0  0  0  0
  2  3  1  0  0  0  0
  2  4  1  0  0  0  0
  2  5  1  0  0  0  0
  5  6  2  0  0  0  0
  5  7  1  0  0  0  0
  7  8  1  0  0  0  0
  7  9  1  0  0  0  0
  9 10  1  0  0  0  0
  9 11  1  0  0  0  0
  9 18  1  0  0  0  0
 11 12  1  0  0  0  0
 11 13  1  0  0  0  0
 11 14  1  0  0  0  0
 14 15  2  0  0  0  0
 14 16  1  0  0  0  0
 16 17  1  0  0  0  0
 18 19  2  0  0  0  0
 18 20  1  0  0  0  0
 20 21  1  0  0  0  0
 20 22  1  0  0  0  0
 22 23  1  0  0  0  0
 22 24  1  0  0  0  0
 22 25  1  0  0  0  0
M  END
$$$$

  -OEChem-02102214113D

 25 24  0     1  0  0  0  0  0999 V2000
   -2.3448   -3.8904   -0.2846 H   0  0  0  0  0  0  0  0  0  0  0  0
   -2.4436   -2.8448   -0.5902 C   0  0  0  0  0  0  0  0  0  0  0  0
   -3.2090   -2.3682    0.0269 H   0  0  0  0  0  0  0  0  0  0  0  0
   -2.7558   -2.8127   -1.6368 H   0  0  0  0  0  0  0  0  0  0  0  0
   -1.1188   -2.1246   -0.4235 C   0  0  0  0  0  0  0  0  0  0  0  0
   -0.1562   -2.7205    0.0255 O   0  0  0  0  0  0  0  0  0  0  0  0
   -1.0132   -0.7968   -0.7888 N   0  0  0  0  0  0  0  0  0  0  0  0
   -1.8245   -0.3866   -1.2513 H   0  0  0  0  0  0  0  0  0  0  0  0
    0.2407   -0.0228   -0.8021 C   0  0  1  0  0  0  0  0  0  0  0  0
    0.9544   -0.5585   -1.4394 H   0  0  0  0  0  0  0  0  0  0  0  0
    0.0867    1.4207   -1.3705 C   0  0  0  0  0  0  0  0  0  0  0  0
    0.6949    2.1081   -0.7722 H   0  0  0  0  0  0  0  0  0  0  0  0
    0.5231    1.4153   -2.3729 H   0  0  0  0  0  0  0  0  0  0  0  0
   -1.3090    2.0377   -1.5254 C   0  0  0  0  0  0  0  0  0  0  0  0
   -1.3724    3.2486   -1.4140 O   0  0  0  0  0  0  0  0  0  0  0  0
   -2.3754    1.2798   -1.8891 O   0  0  0  0  0  0  0  0  0  0  0  0
   -3.1053    1.9101   -2.0093 H   0  0  0  0  0  0  0  0  0  0  0  0
    0.9084    0.0556    0.5903 C   0  0  0  0  0  0  0  0  0  0  0  0
    2.1278    0.1134    0.6712 O   0  0  0  0  0  0  0  0  0  0  0  0
    0.1438    0.3306    1.7094 N   0  0  0  0  0  0  0  0  0  0  0  0
   -0.8581    0.2036    1.6123 H   0  0  0  0  0  0  0  0  0  0  0  0
    0.7124    0.4570    3.0453 C   0  0  0  0  0  0  0  0  0  0  0  0
    1.4555    1.2611    3.0715 H   0  0  0  0  0  0  0  0  0  0  0  0
   -0.0727    0.6910    3.7704 H   0  0  0  0  0  0  0  0  0  0  0  0
    1.1954   -0.4790    3.3448 H   0  0  0  0  0  0  0  0  0  0  0  0
  1  2  1  0  0  0  0
  2  3  1  0  0  0  0
  2  4  1  0  0  0  0
  2  5  1  0  0  0  0
  5  6  2  0  0  0  0
  5  7  1  0  0  0  0
  7  8  1  0  0  0  0
  7  9  1  0  0  0  0
  9 10  1  0  0  0  0
  9 11  1  0  0  0  0
  9 18  1  0  0  0  0
 11 12  1  0  0  0  0
 11 13  1  0  0  0  0
 11 14  1  0  0  0  0
 14 15  2  0  0  0  0
 14 16  1  0  0  0  0
 16 17  1  0  0  0  0
 18 19  2  0  0  0  0
 18 20  1  0  0  0  0
 20 21  1  0  0  0  0
 20 22  1  0  0  0  0
 22 23  1  0  0  0  0
 22 24  1  0  0  0  0
 22 25  1  0  0  0  0
M  END
$$$$

  -OEChem-02102214113D

 25 24  0     1  0  0  0  0  0999 V2000
   -2.3032   -3.9019   -0.2492 H   0  0  0  0  0  0  0  0  0  0  0  0
   -2.4172   -2.8548   -0.5440 C   0  0  0  0  0  0  0  0  0  0  0  0
   -3.1433   -2.3787    0.1190 H   0  0  0  0  0  0  0  0  0  0  0  0
   -2.7907   -2.8172   -1.5701 H   0  0  0  0  0  0  0  0  0  0  0  0
   -1.0833   -2.1385   -0.4515 C   0  0  0  0  0  0  0  0  0  0  0  0
   -0.0961   -2.7390   -0.0665 O   0  0  0  0  0  0  0  0  0  0  0  0
   -0.9972   -0.8071   -0.8069 N   0  0  0  0  0  0  0  0  0  0  0  0
   -1.8472   -0.3674   -1.1592 H   0  0  0  0  0  0  0  0  0  0  0  0
    0.2424   -0.0119   -0.8149 C   0  0  1  0  0  0  0  0  0  0  0  0
    0.9653   -0.5372   -1.4504 H   0  0  0  0  0  0  0  0  0  0  0  0
    0.0825    1.4331   -1.3812 C   0  0  0  0  0  0  0  0  0  0  0  0
    0.6830    2.1192   -0.7741 H   0  0  0  0  0  0  0  0  0  0  0  0
    0.5326    1.4277   -2.3776 H   0  0  0  0  0  0  0  0  0  0  0  0
   -1.3030    2.0712   -1.5576 C   0  0  0  0  0  0  0  0  0  0  0  0
   -1.3004    3.2766   -1.7295 O   0  0  0  0  0  0  0  0  0  0  0  0
   -2.4435    1.3351   -1.5761 O   0  0  0  0  0  0  0  0  0  0  0  0
   -3.1550    1.9770   -1.7390 H   0  0  0  0  0  0  0  0  0  0  0  0
    0.9019    0.0637    0.5813 C   0  0  0  0  0  0  0  0  0  0  0  0
    2.1199    0.1366    0.6711 O   0  0  0  0  0  0  0  0  0  0  0  0
    0.1266    0.3154    1.6988 N   0  0  0  0  0  0  0  0  0  0  0  0
   -0.8735    0.1815    1.5919 H   0  0  0  0  0  0  0  0  0  0  0  0
    0.6846    0.4155    3.0416 C   0  0  0  0  0  0  0  0  0  0  0  0
    1.4382    1.2089    3.0864 H   0  0  0  0  0  0  0  0  0  0  0  0
   -0.1042    0.6498    3.7627 H   0  0  0  0  0  0  0  0  0  0  0  0
    1.1527   -0.5311    3.3316 H   0  0  0  0  0  0  0  0  0  0  0  0
  1  2  1  0  0  0  0
  2  3  1  0  0  0  0
  2  4  1  0  0  0  0
  2  5  1  0  0  0  0
  5  6  2  0  0  0  0
  5  7  1  0  0  0  0
  7  8  1  0  0  0  0
  7  9  1  0  0  0  0
  9 10  1  0  0  0  0
  9 11  1  0  0  0  0
  9 18  1  0  0  0  0
 11 12  1  0  0  0  0
 11 13  1  0  0  0  0
 11 14  1  0  0  0  0
 14 15  2  0  0  0  0
 14 16  1  0  0  0  0
 16 17  1  0  0  0  0
 18 19  2  0  0  0  0
 18 20  1  0  0  0  0
 20 21  1  0  0  0  0
 20 22  1  0  0  0  0
 22 23  1  0  0  0  0
 22 24  1  0  0  0  0
 22 25  1  0  0  0  0
M  END
$$$$

  -OEChem-02102214113D

 25 24  0     1  0  0  0  0  0999 V2000
   -2.3088   -3.8291   -0.2088 H   0  0  0  0  0  0  0  0  0  0  0  0
   -2.4146   -2.7796   -0.4976 C   0  0  0  0  0  0  0  0  0  0  0  0
   -3.0296   -2.2700    0.2476 H   0  0  0  0  0  0  0  0  0  0  0  0
   -2.9136   -2.7308   -1.4684 H   0  0  0  0  0  0  0  0  0  0  0  0
   -1.0500   -2.1226   -0.5829 C   0  0  0  0  0  0  0  0  0  0  0  0
   -0.0460   -2.7752   -0.3593 O   0  0  0  0  0  0  0  0  0  0  0  0
   -0.9531   -0.7851   -0.9135 N   0  0  0  0  0  0  0  0  0  0  0  0
   -1.8279   -0.2670   -0.9812 H   0  0  0  0  0  0  0  0  0  0  0  0
    0.2986   -0.0085   -0.8661 C   0  0  1  0  0  0  0  0  0  0  0  0
    1.0402   -0.5089   -1.5003 H   0  0  0  0  0  0  0  0  0  0  0  0
    0.1331    1.4503   -1.3734 C   0  0  0  0  0  0  0  0  0  0  0  0
    0.9101    2.0759   -0.9220 H   0  0  0  0  0  0  0  0  0  0  0  0
    0.3262    1.4338   -2.4496 H   0  0  0  0  0  0  0  0  0  0  0  0
   -1.2123    2.1632   -1.1950 C   0  0  0  0  0  0  0  0  0  0  0  0
   -1.2654    3.3032   -1.6187 O   0  0  0  0  0  0  0  0  0  0  0  0
   -2.2457    1.5769   -0.5363 O   0  0  0  0  0  0  0  0  0  0  0  0
   -2.9433    2.2537   -0.5111 H   0  0  0  0  0  0  0  0  0  0  0  0
    0.9067    0.0262    0.5542 C   0  0  0  0  0  0  0  0  0  0  0  0
    2.1209    0.0534    0.6977 O   0  0  0  0  0  0  0  0  0  0  0  0
    0.0931    0.2679    1.6466 N   0  0  0  0  0  0  0  0  0  0  0  0
   -0.9088    0.2638    1.4840 H   0  0  0  0  0  0  0  0  0  0  0  0
    0.5951    0.3729    3.0108 C   0  0  0  0  0  0  0  0  0  0  0  0
    1.3130    1.1957    3.0934 H   0  0  0  0  0  0  0  0  0  0  0  0
   -0.2291    0.5636    3.7048 H   0  0  0  0  0  0  0  0  0  0  0  0
    1.0903   -0.5576    3.3076 H   0  0  0  0  0  0  0  0  0  0  0  0
  1  2  1  0  0  0  0
  2  3  1  0  0  0  0
  2  4  1  0  0  0  0
  2  5  1  0  0  0  0
  5  6  2  0  0  0  0
  5  7  1  0  0  0  0
  7  8  1  0  0  0  0
  7  9  1  0  0  0  0
  9 10  1  0  0  0  0
  9 11  1  0  0  0  0
  9 18  1  0  0  0  0
 11 12  1  0  0  0  0
 11 13  1  0  0  0  0
 11 14  1  0  0  0  0
 14 15  2  0  0  0  0
 14 16  1  0  0  0  0
 16 17  1  0  0  0  0
 18 19  2  0  0  0  0
 18 20  1  0  0  0  0
 20 21  1  0  0  0  0
 20 22  1  0  0  0  0
 22 23  1  0  0  0  0
 22 24  1  0  0  0  0
 22 25  1  0  0  0  0
M  END
$$$$

  -OEChem-02102214113D

 25 24  0     1  0  0  0  0  0999 V2000
   -2.3271   -3.8046   -0.2183 H   0  0  0  0  0  0  0  0  0  0  0  0
   -2.4278   -2.7497   -0.4891 C   0  0  0  0  0  0  0  0  0  0  0  0
   -3.0018   -2.2407    0.2885 H   0  0  0  0  0  0  0  0  0  0  0  0
   -2.9667   -2.6802   -1.4369 H   0  0  0  0  0  0  0  0  0  0  0  0
   -1.0574   -2.1134   -0.6242 C   0  0  0  0  0  0  0  0  0  0  0  0
   -0.0562   -2.7855   -0.4517 O   0  0  0  0  0  0  0  0  0  0  0  0
   -0.9518   -0.7732   -0.9424 N   0  0  0  0  0  0  0  0  0  0  0  0
   -1.8199   -0.2416   -0.9398 H   0  0  0  0  0  0  0  0  0  0  0  0
    0.3120   -0.0157   -0.8739 C   0  0  1  0  0  0  0  0  0  0  0  0
    1.0533   -0.5148   -1.5095 H   0  0  0  0  0  0  0  0  0  0  0  0
    0.1548    1.4468   -1.3651 C   0  0  0  0  0  0  0  0  0  0  0  0
    0.9225    2.0713   -0.8974 H   0  0  0  0  0  0  0  0  0  0  0  0
    0.3544    1.4478   -2.4405 H   0  0  0  0  0  0  0  0  0  0  0  0
   -1.2011    2.1293   -1.1696 C   0  0  0  0  0  0  0  0  0  0  0  0
   -1.3908    3.1513   -1.8030 O   0  0  0  0  0  0  0  0  0  0  0  0
   -2.0896    1.6503   -0.2591 O   0  0  0  0  0  0  0  0  0  0  0  0
   -2.8189    2.2934   -0.2570 H   0  0  0  0  0  0  0  0  0  0  0  0
    0.9079   -0.0041    0.5518 C   0  0  0  0  0  0  0  0  0  0  0  0
    2.1206   -0.0072    0.7091 O   0  0  0  0  0  0  0  0  0  0  0  0
    0.0867    0.2396    1.6379 N   0  0  0  0  0  0  0  0  0  0  0  0
   -0.9036    0.3634    1.4476 H   0  0  0  0  0  0  0  0  0  0  0  0
    0.5792    0.3889    3.0010 C   0  0  0  0  0  0  0  0  0  0  0  0
    1.2400    1.2587    3.0765 H   0  0  0  0  0  0  0  0  0  0  0  0
   -0.2569    0.5267    3.6931 H   0  0  0  0  0  0  0  0  0  0  0  0
    1.1357   -0.5040    3.3055 H   0  0  0  0  0  0  0  0  0  0  0  0
  1  2  1  0  0  0  0
  2  3  1  0  0  0  0
  2  4  1  0  0  0  0
  2  5  1  0  0  0  0
  5  6  2  0  0  0  0
  5  7  1  0  0  0  0
  7  8  1  0  0  0  0
  7  9  1  0  0  0  0
  9 10  1  0  0  0  0
  9 11  1  0  0  0  0
  9 18  1  0  0  0  0
 11 12  1  0  0  0  0
 11 13  1  0  0  0  0
 11 14  1  0  0  0  0
 14 15  2  0  0  0  0
 14 16  1  0  0  0  0
 16 17  1  0  0  0  0
 18 19  2  0  0  0  0
 18 20  1  0  0  0  0
 20 21  1  0  0  0  0
 20 22  1  0  0  0  0
 22 23  1  0  0  0  0
 22 24  1  0  0  0  0
 22 25  1  0  0  0  0
M  END
$$$$

  -OEChem-02102214113D

 25 24  0     1  0  0  0  0  0999 V2000
   -2.3676   -3.7780   -0.2447 H   0  0  0  0  0  0  0  0  0  0  0  0
   -2.4557   -2.7197   -0.5072 C   0  0  0  0  0  0  0  0  0  0  0  0
   -3.0207   -2.2088    0.2761 H   0  0  0  0  0  0  0  0  0  0  0  0
   -2.9962   -2.6359   -1.4530 H   0  0  0  0  0  0  0  0  0  0  0  0
   -1.0776   -2.1001   -0.6419 C   0  0  0  0  0  0  0  0  0  0  0  0
   -0.0846   -2.7876   -0.4830 O   0  0  0  0  0  0  0  0  0  0  0  0
   -0.9562   -0.7583   -0.9481 N   0  0  0  0  0  0  0  0  0  0  0  0
   -1.8182   -0.2193   -0.9383 H   0  0  0  0  0  0  0  0  0  0  0  0
    0.3185   -0.0191   -0.8643 C   0  0  1  0  0  0  0  0  0  0  0  0
    1.0565   -0.5221   -1.5009 H   0  0  0  0  0  0  0  0  0  0  0  0
    0.1720    1.4441   -1.3518 C   0  0  0  0  0  0  0  0  0  0  0  0
    0.9309    2.0697   -0.8718 H   0  0  0  0  0  0  0  0  0  0  0  0
    0.3804    1.4552   -2.4257 H   0  0  0  0  0  0  0  0  0  0  0  0
   -1.1941    2.0986   -1.1478 C   0  0  0  0  0  0  0  0  0  0  0  0
   -1.5326    2.9484   -1.9509 O   0  0  0  0  0  0  0  0  0  0  0  0
   -1.9469    1.7553   -0.0698 O   0  0  0  0  0  0  0  0  0  0  0  0
   -2.7146    2.3511   -0.0952 H   0  0  0  0  0  0  0  0  0  0  0  0
    0.9131   -0.0233    0.5625 C   0  0  0  0  0  0  0  0  0  0  0  0
    2.1258   -0.0456    0.7196 O   0  0  0  0  0  0  0  0  0  0  0  0
    0.0952    0.2247    1.6500 N   0  0  0  0  0  0  0  0  0  0  0  0
   -0.8790    0.4333    1.4475 H   0  0  0  0  0  0  0  0  0  0  0  0
    0.5979    0.4139    3.0045 C   0  0  0  0  0  0  0  0  0  0  0  0
    1.2216    1.3122    3.0595 H   0  0  0  0  0  0  0  0  0  0  0  0
   -0.2349    0.5245    3.7055 H   0  0  0  0  0  0  0  0  0  0  0  0
    1.1958   -0.4500    3.3143 H   0  0  0  0  0  0  0  0  0  0  0  0
  1  2  1  0  0  0  0
  2  3  1  0  0  0  0
  2  4  1  0  0  0  0
  2  5  1  0  0  0  0
  5  6  2  0  0  0  0
  5  7  1  0  0  0  0
  7  8  1  0  0  0  0
  7  9  1  0  0  0  0
  9 10  1  0  0  0  0
  9 11  1  0  0  0  0
  9 18  1  0  0  0  0
 11 12  1  0  0  0  0
 11 13  1  0  0  0  0
 11 14  1  0  0  0  0
 14 15  2  0  0  0  0
 14 16  1  0  0  0  0
 16 17  1  0  0  0  0
 18 19  2  0  0  0  0
 18 20  1  0  0  0  0
 20 21  1  0  0  0  0
 20 22  1  0  0  0  0
 22 23  1  0  0  0  0
 22 24  1  0  0  0  0
 22 25  1  0  0  0  0
M  END
$$$$

  -OEChem-02102214113D

 25 24  0     1  0  0  0  0  0999 V2000
   -2.4285   -3.7723   -0.3198 H   0  0  0  0  0  0  0  0  0  0  0  0
   -2.4987   -2.7123   -0.5809 C   0  0  0  0  0  0  0  0  0  0  0  0
   -3.1203   -2.2080    0.1625 H   0  0  0  0  0  0  0  0  0  0  0  0
   -2.9695   -2.6228   -1.5628 H   0  0  0  0  0  0  0  0  0  0  0  0
   -1.1152   -2.0903   -0.6103 C   0  0  0  0  0  0  0  0  0  0  0  0
   -0.1366   -2.7764   -0.3755 O   0  0  0  0  0  0  0  0  0  0  0  0
   -0.9706   -0.7510   -0.9180 N   0  0  0  0  0  0  0  0  0  0  0  0
   -1.8261   -0.2187   -1.0464 H   0  0  0  0  0  0  0  0  0  0  0  0
    0.3131   -0.0249   -0.8387 C   0  0  1  0  0  0  0  0  0  0  0  0
    1.0419   -0.5374   -1.4781 H   0  0  0  0  0  0  0  0  0  0  0  0
    0.1744    1.4351   -1.3340 C   0  0  0  0  0  0  0  0  0  0  0  0
    0.9324    2.0638   -0.8567 H   0  0  0  0  0  0  0  0  0  0  0  0
    0.3822    1.4446   -2.4080 H   0  0  0  0  0  0  0  0  0  0  0  0
   -1.1955    2.0737   -1.1194 C   0  0  0  0  0  0  0  0  0  0  0  0
   -1.6823    2.7028   -2.0410 O   0  0  0  0  0  0  0  0  0  0  0  0
   -1.8085    1.9202    0.0817 O   0  0  0  0  0  0  0  0  0  0  0  0
   -2.6137    2.4619    0.0330 H   0  0  0  0  0  0  0  0  0  0  0  0
    0.9231   -0.0244    0.5823 C   0  0  0  0  0  0  0  0  0  0  0  0
    2.1380   -0.0567    0.7215 O   0  0  0  0  0  0  0  0  0  0  0  0
    0.1246    0.2378    1.6803 N   0  0  0  0  0  0  0  0  0  0  0  0
   -0.8414    0.4885    1.4845 H   0  0  0  0  0  0  0  0  0  0  0  0
    0.6572    0.4596    3.0184 C   0  0  0  0  0  0  0  0  0  0  0  0
    1.2842    1.3571    3.0369 H   0  0  0  0  0  0  0  0  0  0  0  0
   -0.1596    0.5905    3.7345 H   0  0  0  0  0  0  0  0  0  0  0  0
    1.2597   -0.3979    3.3367 H   0  0  0  0  0  0  0  0  0  0  0  0
  1  2  1  0  0  0  0
  2  3  1  0  0  0  0
  2  4  1  0  0  0  0
  2  5  1  0  0  0  0
  5  6  2  0  0  0  0
  5  7  1  0  0  0  0
  7  8  1  0  0  0  0
  7  9  1  0  0  0  0
  9 10  1  0  0  0  0
  9 11  1  0  0  0  0
  9 18  1  0  0  0  0
 11 12  1  0  0  0  0
 11 13  1  0  0  0  0
 11 14  1  0  0  0  0
 14 15  2  0  0  0  0
 14 16  1  0  0  0  0
 16 17  1  0  0  0  0
 18 19  2  0  0  0  0
 18 20  1  0  0  0  0
 20 21  1  0  0  0  0
 20 22  1  0  0  0  0
 22 23  1  0  0  0  0
 22 24  1  0  0  0  0
 22 25  1  0  0  0  0
M  END
$$$$

  -OEChem-02102214113D

 25 24  0     1  0  0  0  0  0999 V2000
   -2.4859   -3.7710   -0.4120 H   0  0  0  0  0  0  0  0  0  0  0  0
   -2.5349   -2.7141   -0.6893 C   0  0  0  0  0  0  0  0  0  0  0  0
   -3.2657   -2.2158   -0.0478 H   0  0  0  0  0  0  0  0  0  0  0  0
   -2.8599   -2.6389   -1.7298 H   0  0  0  0  0  0  0  0  0  0  0  0
   -1.1722   -2.0683   -0.5230 C   0  0  0  0  0  0  0  0  0  0  0  0
   -0.2346   -2.7304   -0.1161 O   0  0  0  0  0  0  0  0  0  0  0  0
   -1.0003   -0.7385   -0.8574 N   0  0  0  0  0  0  0  0  0  0  0  0
   -1.7916   -0.2759   -1.2963 H   0  0  0  0  0  0  0  0  0  0  0  0
    0.2973   -0.0330   -0.8090 C   0  0  1  0  0  0  0  0  0  0  0  0
    1.0084   -0.5636   -1.4533 H   0  0  0  0  0  0  0  0  0  0  0  0
    0.1558    1.4190   -1.3237 C   0  0  0  0  0  0  0  0  0  0  0  0
    0.9218    2.0550   -0.8694 H   0  0  0  0  0  0  0  0  0  0  0  0
    0.3416    1.4173   -2.4019 H   0  0  0  0  0  0  0  0  0  0  0  0
   -1.2132    2.0467   -1.0795 C   0  0  0  0  0  0  0  0  0  0  0  0
   -1.8563    2.4154   -2.0459 O   0  0  0  0  0  0  0  0  0  0  0  0
   -1.6565    2.1547    0.1970 O   0  0  0  0  0  0  0  0  0  0  0  0
   -2.5002    2.6324    0.1461 H   0  0  0  0  0  0  0  0  0  0  0  0
    0.9370   -0.0094    0.5995 C   0  0  0  0  0  0  0  0  0  0  0  0
    2.1547   -0.0579    0.7091 O   0  0  0  0  0  0  0  0  0  0  0  0
    0.1714    0.2893    1.7112 N   0  0  0  0  0  0  0  0  0  0  0  0
   -0.7998    0.5354    1.5383 H   0  0  0  0  0  0  0  0  0  0  0  0
    0.7352    0.5086    3.0367 C   0  0  0  0  0  0  0  0  0  0  0  0
    1.4042    1.3754    3.0300 H   0  0  0  0  0  0  0  0  0  0  0  0
   -0.0631    0.6904    3.7624 H   0  0  0  0  0  0  0  0  0  0  0  0
    1.3015   -0.3712    3.3607 H   0  0  0  0  0  0  0  0  0  0  0  0
  1  2  1  0  0  0  0
  2  3  1  0  0  0  0
  2  4  1  0  0  0  0
  2  5  1  0  0  0  0
  5  6  2  0  0  0  0
  5  7  1  0  0  0  0
  7  8  1  0  0  0  0
  7  9  1  0  0  0  0
  9 10  1  0  0  0  0
  9 11  1  0  0  0  0
  9 18  1  0  0  0  0
 11 12  1  0  0  0  0
 11 13  1  0  0  0  0
 11 14  1  0  0  0  0
 14 15  2  0  0  0  0
 14 16  1  0  0  0  0
 16 17  1  0  0  0  0
 18 19  2  0  0  0  0
 18 20  1  0  0  0  0
 20 21  1  0  0  0  0
 20 22  1  0  0  0  0
 22 23  1  0  0  0  0
 22 24  1  0  0  0  0
 22 25  1  0  0  0  0
M  END
$$$$

  -OEChem-02102214113D

 25 24  0     1  0  0  0  0  0999 V2000
   -2.5230   -3.7495   -0.4201 H   0  0  0  0  0  0  0  0  0  0  0  0
   -2.5518   -2.7007   -0.7291 C   0  0  0  0  0  0  0  0  0  0  0  0
   -3.3149   -2.1821   -0.1439 H   0  0  0  0  0  0  0  0  0  0  0  0
   -2.8186   -2.6541   -1.7877 H   0  0  0  0  0  0  0  0  0  0  0  0
   -1.1977   -2.0538   -0.5058 C   0  0  0  0  0  0  0  0  0  0  0  0
   -0.2809   -2.7116   -0.0477 O   0  0  0  0  0  0  0  0  0  0  0  0
   -1.0094   -0.7283   -0.8481 N   0  0  0  0  0  0  0  0  0  0  0  0
   -1.7701   -0.2847   -1.3582 H   0  0  0  0  0  0  0  0  0  0  0  0
    0.2969   -0.0385   -0.8024 C   0  0  1  0  0  0  0  0  0  0  0  0
    1.0020   -0.5763   -1.4469 H   0  0  0  0  0  0  0  0  0  0  0  0
    0.1593    1.4132   -1.3177 C   0  0  0  0  0  0  0  0  0  0  0  0
    0.9278    2.0497   -0.8676 H   0  0  0  0  0  0  0  0  0  0  0  0
    0.3361    1.4154   -2.3971 H   0  0  0  0  0  0  0  0  0  0  0  0
   -1.2104    2.0302   -1.0591 C   0  0  0  0  0  0  0  0  0  0  0  0
   -1.9787    2.1417   -1.9986 O   0  0  0  0  0  0  0  0  0  0  0  0
   -1.5231    2.3873    0.2093 O   0  0  0  0  0  0  0  0  0  0  0  0
   -2.4011    2.7981    0.1653 H   0  0  0  0  0  0  0  0  0  0  0  0
    0.9411   -0.0106    0.6041 C   0  0  0  0  0  0  0  0  0  0  0  0
    2.1590   -0.0673    0.7080 O   0  0  0  0  0  0  0  0  0  0  0  0
    0.1838    0.3057    1.7167 N   0  0  0  0  0  0  0  0  0  0  0  0
   -0.7908    0.5395    1.5523 H   0  0  0  0  0  0  0  0  0  0  0  0
    0.7577    0.5408    3.0350 C   0  0  0  0  0  0  0  0  0  0  0  0
    1.4373    1.3991    3.0100 H   0  0  0  0  0  0  0  0  0  0  0  0
   -0.0341    0.7458    3.7615 H   0  0  0  0  0  0  0  0  0  0  0  0
    1.3144   -0.3402    3.3717 H   0  0  0  0  0  0  0  0  0  0  0  0
  1  2  1  0  0  0  0
  2  3  1  0  0  0  0
  2  4  1  0  0  0  0
  2  5  1  0  0  0  0
  5  6  2  0  0  0  0
  5  7  1  0  0  0  0
  7  8  1  0  0  0  0
  7  9  1  0  0  0  0
  9 10  1  0  0  0  0
  9 11  1  0  0  0  0
  9 18  1  0  0  0  0
 11 12  1  0  0  0  0
 11 13  1  0  0  0  0
 11 14  1  0  0  0  0
 14 15  2  0  0  0  0
 14 16  1  0  0  0  0
 16 17  1  0  0  0  0
 18 19  2  0  0  0  0
 18 20  1  0  0  0  0
 20 21  1  0  0  0  0
 20 22  1  0  0  0  0
 22 23  1  0  0  0  0
 22 24  1  0  0  0  0
 22 25  1  0  0  0  0
M  END
$$$$

  -OEChem-02102214113D

 25 24  0     1  0  0  0  0  0999 V2000
   -2.5123   -3.7367   -0.3869 H   0  0  0  0  0  0  0  0  0  0  0  0
   -2.5427   -2.6911   -0.7063 C   0  0  0  0  0  0  0  0  0  0  0  0
   -3.3069   -2.1682   -0.1265 H   0  0  0  0  0  0  0  0  0  0  0  0
   -2.8095   -2.6553   -1.7652 H   0  0  0  0  0  0  0  0  0  0  0  0
   -1.1899   -2.0396   -0.4888 C   0  0  0  0  0  0  0  0  0  0  0  0
   -0.2751   -2.6875   -0.0131 O   0  0  0  0  0  0  0  0  0  0  0  0
   -1.0037   -0.7170   -0.8427 N   0  0  0  0  0  0  0  0  0  0  0  0
   -1.7650   -0.2777   -1.3585 H   0  0  0  0  0  0  0  0  0  0  0  0
    0.2994   -0.0211   -0.8094 C   0  0  1  0  0  0  0  0  0  0  0  0
    1.0046   -0.5628   -1.4506 H   0  0  0  0  0  0  0  0  0  0  0  0
    0.1582    1.4250   -1.3404 C   0  0  0  0  0  0  0  0  0  0  0  0
    0.9297    2.0668   -0.9032 H   0  0  0  0  0  0  0  0  0  0  0  0
    0.3276    1.4162   -2.4209 H   0  0  0  0  0  0  0  0  0  0  0  0
   -1.2106    2.0443   -1.0861 C   0  0  0  0  0  0  0  0  0  0  0  0
   -2.0767    1.8978   -1.9330 O   0  0  0  0  0  0  0  0  0  0  0  0
   -1.4109    2.6888    0.0867 O   0  0  0  0  0  0  0  0  0  0  0  0
   -2.3136    3.0418    0.0549 H   0  0  0  0  0  0  0  0  0  0  0  0
    0.9457    0.0196    0.5951 C   0  0  0  0  0  0  0  0  0  0  0  0
    2.1645   -0.0191    0.6972 O   0  0  0  0  0  0  0  0  0  0  0  0
    0.1870    0.3407    1.7054 N   0  0  0  0  0  0  0  0  0  0  0  0
   -0.8141    0.4344    1.5698 H   0  0  0  0  0  0  0  0  0  0  0  0
    0.7466    0.5101    3.0398 C   0  0  0  0  0  0  0  0  0  0  0  0
    1.4914    1.3129    3.0439 H   0  0  0  0  0  0  0  0  0  0  0  0
   -0.0432    0.7679    3.7516 H   0  0  0  0  0  0  0  0  0  0  0  0
    1.2249   -0.4171    3.3731 H   0  0  0  0  0  0  0  0  0  0  0  0
  1  2  1  0  0  0  0
  2  3  1  0  0  0  0
  2  4  1  0  0  0  0
  2  5  1  0  0  0  0
  5  6  2  0  0  0  0
  5  7  1  0  0  0  0
  7  8  1  0  0  0  0
  7  9  1  0  0  0  0
  9 10  1  0  0  0  0
  9 11  1  0  0  0  0
  9 18  1  0  0  0  0
 11 12  1  0  0  0  0
 11 13  1  0  0  0  0
 11 14  1  0  0  0  0
 14 15  2  0  0  0  0
 14 16  1  0  0  0  0
 16 17  1  0  0  0  0
 18 19  2  0  0  0  0
 18 20  1  0  0  0  0
 20 21  1  0  0  0  0
 20 22  1  0  0  0  0
 22 23  1  0  0  0  0
 22 24  1  0  0  0  0
 22 25  1  0  0  0  0
M  END
$$$$

  -OEChem-02102214113D

 25 24  0     1  0  0  0  0  0999 V2000
   -2.4859   -3.7515   -0.3765 H   0  0  0  0  0  0  0  0  0  0  0  0
   -2.5286   -2.7024   -0.6832 C   0  0  0  0  0  0  0  0  0  0  0  0
   -3.2901   -2.1921   -0.0889 H   0  0  0  0  0  0  0  0  0  0  0  0
   -2.8078   -2.6561   -1.7386 H   0  0  0  0  0  0  0  0  0  0  0  0
   -1.1788   -2.0422   -0.4746 C   0  0  0  0  0  0  0  0  0  0  0  0
   -0.2582   -2.6801    0.0039 O   0  0  0  0  0  0  0  0  0  0  0  0
   -1.0022   -0.7202   -0.8338 N   0  0  0  0  0  0  0  0  0  0  0  0
   -1.7787   -0.2747   -1.3230 H   0  0  0  0  0  0  0  0  0  0  0  0
    0.2918   -0.0100   -0.8112 C   0  0  1  0  0  0  0  0  0  0  0  0
    0.9986   -0.5537   -1.4491 H   0  0  0  0  0  0  0  0  0  0  0  0
    0.1523    1.4339   -1.3542 C   0  0  0  0  0  0  0  0  0  0  0  0
    0.9307    2.0728   -0.9240 H   0  0  0  0  0  0  0  0  0  0  0  0
    0.3220    1.4133   -2.4340 H   0  0  0  0  0  0  0  0  0  0  0  0
   -1.2090    2.0803   -1.1194 C   0  0  0  0  0  0  0  0  0  0  0  0
   -2.1534    1.7253   -1.8083 O   0  0  0  0  0  0  0  0  0  0  0  0
   -1.3067    3.0015   -0.1338 O   0  0  0  0  0  0  0  0  0  0  0  0
   -2.2214    3.3221   -0.1443 H   0  0  0  0  0  0  0  0  0  0  0  0
    0.9395    0.0405    0.5915 C   0  0  0  0  0  0  0  0  0  0  0  0
    2.1590    0.0344    0.6904 O   0  0  0  0  0  0  0  0  0  0  0  0
    0.1752    0.3557    1.7000 N   0  0  0  0  0  0  0  0  0  0  0  0
   -0.8319    0.3190    1.5847 H   0  0  0  0  0  0  0  0  0  0  0  0
    0.7311    0.4815    3.0409 C   0  0  0  0  0  0  0  0  0  0  0  0
    1.5001    1.2609    3.0653 H   0  0  0  0  0  0  0  0  0  0  0  0
   -0.0546    0.7512    3.7529 H   0  0  0  0  0  0  0  0  0  0  0  0
    1.1785   -0.4661    3.3586 H   0  0  0  0  0  0  0  0  0  0  0  0
  1  2  1  0  0  0  0
  2  3  1  0  0  0  0
  2  4  1  0  0  0  0
  2  5  1  0  0  0  0
  5  6  2  0  0  0  0
  5  7  1  0  0  0  0
  7  8  1  0  0  0  0
  7  9  1  0  0  0  0
  9 10  1  0  0  0  0
  9 11  1  0  0  0  0
  9 18  1  0  0  0  0
 11 12  1  0  0  0  0
 11 13  1  0  0  0  0
 11 14  1  0  0  0  0
 14 15  2  0  0  0  0
 14 16  1  0  0  0  0
 16 17  1  0  0  0  0
 18 19  2  0  0  0  0
 18 20  1  0  0  0  0
 20 21  1  0  0  0  0
 20 22  1  0  0  0  0
 22 23  1  0  0  0  0
 22 24  1  0  0  0  0
 22 25  1  0  0  0  0
M  END
$$$$

  -OEChem-02102214113D

 25 24  0     1  0  0  0  0  0999 V2000
   -2.4485   -3.7788   -0.3446 H   0  0  0  0  0  0  0  0  0  0  0  0
   -2.5082   -2.7290   -0.6457 C   0  0  0  0  0  0  0  0  0  0  0  0
   -3.2532   -2.2262   -0.0246 H   0  0  0  0  0  0  0  0  0  0  0  0
   -2.8220   -2.6811   -1.6913 H   0  0  0  0  0  0  0  0  0  0  0  0
   -1.1564   -2.0605   -0.4793 C   0  0  0  0  0  0  0  0  0  0  0  0
   -0.2159   -2.6942   -0.0348 O   0  0  0  0  0  0  0  0  0  0  0  0
   -0.9997   -0.7352   -0.8345 N   0  0  0  0  0  0  0  0  0  0  0  0
   -1.8027   -0.2777   -1.2679 H   0  0  0  0  0  0  0  0  0  0  0  0
    0.2804   -0.0025   -0.8173 C   0  0  1  0  0  0  0  0  0  0  0  0
    0.9929   -0.5405   -1.4534 H   0  0  0  0  0  0  0  0  0  0  0  0
    0.1423    1.4450   -1.3603 C   0  0  0  0  0  0  0  0  0  0  0  0
    0.9288    2.0742   -0.9306 H   0  0  0  0  0  0  0  0  0  0  0  0
    0.3183    1.4189   -2.4387 H   0  0  0  0  0  0  0  0  0  0  0  0
   -1.2062    2.1328   -1.1517 C   0  0  0  0  0  0  0  0  0  0  0  0
   -2.2160    1.6397   -1.6325 O   0  0  0  0  0  0  0  0  0  0  0  0
   -1.2090    3.2717   -0.4218 O   0  0  0  0  0  0  0  0  0  0  0  0
   -2.1253    3.5868   -0.4024 H   0  0  0  0  0  0  0  0  0  0  0  0
    0.9254    0.0494    0.5865 C   0  0  0  0  0  0  0  0  0  0  0  0
    2.1446    0.0709    0.6880 O   0  0  0  0  0  0  0  0  0  0  0  0
    0.1516    0.3449    1.6942 N   0  0  0  0  0  0  0  0  0  0  0  0
   -0.8525    0.2537    1.5803 H   0  0  0  0  0  0  0  0  0  0  0  0
    0.7023    0.4529    3.0394 C   0  0  0  0  0  0  0  0  0  0  0  0
    1.4681    1.2350    3.0790 H   0  0  0  0  0  0  0  0  0  0  0  0
   -0.0874    0.7085    3.7522 H   0  0  0  0  0  0  0  0  0  0  0  0
    1.1529   -0.4974    3.3449 H   0  0  0  0  0  0  0  0  0  0  0  0
  1  2  1  0  0  0  0
  2  3  1  0  0  0  0
  2  4  1  0  0  0  0
  2  5  1  0  0  0  0
  5  6  2  0  0  0  0
  5  7  1  0  0  0  0
  7  8  1  0  0  0  0
  7  9  1  0  0  0  0
  9 10  1  0  0  0  0
  9 11  1  0  0  0  0
  9 18  1  0  0  0  0
 11 12  1  0  0  0  0
 11 13  1  0  0  0  0
 11 14  1  0  0  0  0
 14 15  2  0  0  0  0
 14 16  1  0  0  0  0
 16 17  1  0  0  0  0
 18 19  2  0  0  0  0
 18 20  1  0  0  0  0
 20 21  1  0  0  0  0
 20 22  1  0  0  0  0
 22 23  1  0  0  0  0
 22 24  1  0  0  0  0
 22 25  1  0  0  0  0
M  END
$$$$

  -OEChem-02102214113D

 25 24  0     1  0  0  0  0  0999 V2000
   -2.4086   -3.8011   -0.2990 H   0  0  0  0  0  0  0  0  0  0  0  0
   -2.4836   -2.7522   -0.5999 C   0  0  0  0  0  0  0  0  0  0  0  0
   -3.2007   -2.2488    0.0527 H   0  0  0  0  0  0  0  0  0  0  0  0
   -2.8443   -2.7071   -1.6304 H   0  0  0  0  0  0  0  0  0  0  0  0
   -1.1271   -2.0811   -0.4963 C   0  0  0  0  0  0  0  0  0  0  0  0
   -0.1634   -2.7147   -0.1045 O   0  0  0  0  0  0  0  0  0  0  0  0
   -0.9920   -0.7521   -0.8455 N   0  0  0  0  0  0  0  0  0  0  0  0
   -1.8251   -0.2782   -1.1964 H   0  0  0  0  0  0  0  0  0  0  0  0
    0.2739    0.0035   -0.8288 C   0  0  1  0  0  0  0  0  0  0  0  0
    0.9946   -0.5238   -1.4649 H   0  0  0  0  0  0  0  0  0  0  0  0
    0.1306    1.4567   -1.3642 C   0  0  0  0  0  0  0  0  0  0  0  0
    0.9213    2.0777   -0.9299 H   0  0  0  0  0  0  0  0  0  0  0  0
    0.3133    1.4307   -2.4415 H   0  0  0  0  0  0  0  0  0  0  0  0
   -1.2075    2.1778   -1.1759 C   0  0  0  0  0  0  0  0  0  0  0  0
   -2.2616    1.6068   -1.4133 O   0  0  0  0  0  0  0  0  0  0  0  0
   -1.1413    3.4588   -0.7464 O   0  0  0  0  0  0  0  0  0  0  0  0
   -2.0543    3.7792   -0.6899 H   0  0  0  0  0  0  0  0  0  0  0  0
    0.9126    0.0550    0.5775 C   0  0  0  0  0  0  0  0  0  0  0  0
    2.1306    0.0914    0.6876 O   0  0  0  0  0  0  0  0  0  0  0  0
    0.1271    0.3291    1.6826 N   0  0  0  0  0  0  0  0  0  0  0  0
   -0.8751    0.2274    1.5600 H   0  0  0  0  0  0  0  0  0  0  0  0
    0.6664    0.4248    3.0332 C   0  0  0  0  0  0  0  0  0  0  0  0
    1.4253    1.2123    3.0887 H   0  0  0  0  0  0  0  0  0  0  0  0
   -0.1309    0.6652    3.7430 H   0  0  0  0  0  0  0  0  0  0  0  0
    1.1225   -0.5254    3.3305 H   0  0  0  0  0  0  0  0  0  0  0  0
  1  2  1  0  0  0  0
  2  3  1  0  0  0  0
  2  4  1  0  0  0  0
  2  5  1  0  0  0  0
  5  6  2  0  0  0  0
  5  7  1  0  0  0  0
  7  8  1  0  0  0  0
  7  9  1  0  0  0  0
  9 10  1  0  0  0  0
  9 11  1  0  0  0  0
  9 18  1  0  0  0  0
 11 12  1  0  0  0  0
 11 13  1  0  0  0  0
 11 14  1  0  0  0  0
 14 15  2  0  0  0  0
 14 16  1  0  0  0  0
 16 17  1  0  0  0  0
 18 19  2  0  0  0  0
 18 20  1  0  0  0  0
 20 21  1  0  0  0  0
 20 22  1  0  0  0  0
 22 23  1  0  0  0  0
 22 24  1  0  0  0  0
 22 25  1  0  0  0  0
M  END
$$$$

  -OEChem-02102214113D

 25 24  0     1  0  0  0  0  0999 V2000
   -2.3756   -3.8148   -0.2600 H   0  0  0  0  0  0  0  0  0  0  0  0
   -2.4636   -2.7668   -0.5600 C   0  0  0  0  0  0  0  0  0  0  0  0
   -3.1531   -2.2619    0.1207 H   0  0  0  0  0  0  0  0  0  0  0  0
   -2.8671   -2.7240   -1.5746 H   0  0  0  0  0  0  0  0  0  0  0  0
   -1.1040   -2.0957   -0.5151 C   0  0  0  0  0  0  0  0  0  0  0  0
   -0.1220   -2.7321   -0.1765 O   0  0  0  0  0  0  0  0  0  0  0  0
   -0.9862   -0.7640   -0.8597 N   0  0  0  0  0  0  0  0  0  0  0  0
   -1.8423   -0.2744   -1.1219 H   0  0  0  0  0  0  0  0  0  0  0  0
    0.2697    0.0070   -0.8413 C   0  0  1  0  0  0  0  0  0  0  0  0
    0.9970   -0.5111   -1.4774 H   0  0  0  0  0  0  0  0  0  0  0  0
    0.1212    1.4643   -1.3682 C   0  0  0  0  0  0  0  0  0  0  0  0
    0.9127    2.0815   -0.9305 H   0  0  0  0  0  0  0  0  0  0  0  0
    0.3087    1.4398   -2.4446 H   0  0  0  0  0  0  0  0  0  0  0  0
   -1.2091    2.2061   -1.1911 C   0  0  0  0  0  0  0  0  0  0  0  0
   -2.2748    1.6088   -1.1657 O   0  0  0  0  0  0  0  0  0  0  0  0
   -1.1159    3.5512   -1.0822 O   0  0  0  0  0  0  0  0  0  0  0  0
   -2.0208    3.8843   -0.9846 H   0  0  0  0  0  0  0  0  0  0  0  0
    0.9011    0.0563    0.5682 C   0  0  0  0  0  0  0  0  0  0  0  0
    2.1180    0.1036    0.6857 O   0  0  0  0  0  0  0  0  0  0  0  0
    0.1069    0.3144    1.6710 N   0  0  0  0  0  0  0  0  0  0  0  0
   -0.8949    0.2158    1.5400 H   0  0  0  0  0  0  0  0  0  0  0  0
    0.6371    0.4059    3.0255 C   0  0  0  0  0  0  0  0  0  0  0  0
    1.3809    1.2069    3.0933 H   0  0  0  0  0  0  0  0  0  0  0  0
   -0.1679    0.6231    3.7339 H   0  0  0  0  0  0  0  0  0  0  0  0
    1.1099   -0.5386    3.3145 H   0  0  0  0  0  0  0  0  0  0  0  0
  1  2  1  0  0  0  0
  2  3  1  0  0  0  0
  2  4  1  0  0  0  0
  2  5  1  0  0  0  0
  5  6  2  0  0  0  0
  5  7  1  0  0  0  0
  7  8  1  0  0  0  0
  7  9  1  0  0  0  0
  9 10  1  0  0  0  0
  9 11  1  0  0  0  0
  9 18  1  0  0  0  0
 11 12  1  0  0  0  0
 11 13  1  0  0  0  0
 11 14  1  0  0  0  0
 14 15  2  0  0  0  0
 14 16  1  0  0  0  0
 16 17  1  0  0  0  0
 18 19  2  0  0  0  0
 18 20  1  0  0  0  0
 20 21  1  0  0  0  0
 20 22  1  0  0  0  0
 22 23  1  0  0  0  0
 22 24  1  0  0  0  0
 22 25  1  0  0  0  0
M  END
$$$$

  -OEChem-02102214113D

 25 24  0     1  0  0  0  0  0999 V2000
   -2.3539   -3.8120   -0.2191 H   0  0  0  0  0  0  0  0  0  0  0  0
   -2.4491   -2.7651   -0.5210 C   0  0  0  0  0  0  0  0  0  0  0  0
   -3.1022   -2.2517    0.1887 H   0  0  0  0  0  0  0  0  0  0  0  0
   -2.8994   -2.7249   -1.5157 H   0  0  0  0  0  0  0  0  0  0  0  0
   -1.0847   -2.1028   -0.5443 C   0  0  0  0  0  0  0  0  0  0  0  0
   -0.0895   -2.7477   -0.2648 O   0  0  0  0  0  0  0  0  0  0  0  0
   -0.9778   -0.7685   -0.8821 N   0  0  0  0  0  0  0  0  0  0  0  0
   -1.8479   -0.2632   -1.0504 H   0  0  0  0  0  0  0  0  0  0  0  0
    0.2742    0.0092   -0.8545 C   0  0  1  0  0  0  0  0  0  0  0  0
    1.0072   -0.5006   -1.4911 H   0  0  0  0  0  0  0  0  0  0  0  0
    0.1196    1.4694   -1.3718 C   0  0  0  0  0  0  0  0  0  0  0  0
    0.9062    2.0876   -0.9270 H   0  0  0  0  0  0  0  0  0  0  0  0
    0.3122    1.4501   -2.4475 H   0  0  0  0  0  0  0  0  0  0  0  0
   -1.2106    2.2132   -1.1986 C   0  0  0  0  0  0  0  0  0  0  0  0
   -2.2443    1.6283   -0.9114 O   0  0  0  0  0  0  0  0  0  0  0  0
   -1.1540    3.5487   -1.4050 O   0  0  0  0  0  0  0  0  0  0  0  0
   -2.0523    3.8875   -1.2710 H   0  0  0  0  0  0  0  0  0  0  0  0
    0.8972    0.0522    0.5588 C   0  0  0  0  0  0  0  0  0  0  0  0
    2.1130    0.0994    0.6861 O   0  0  0  0  0  0  0  0  0  0  0  0
    0.0943    0.2996    1.6576 N   0  0  0  0  0  0  0  0  0  0  0  0
   -0.9082    0.2291    1.5140 H   0  0  0  0  0  0  0  0  0  0  0  0
    0.6114    0.3913    3.0169 C   0  0  0  0  0  0  0  0  0  0  0  0
    1.3530    1.1934    3.0921 H   0  0  0  0  0  0  0  0  0  0  0  0
   -0.2008    0.6067    3.7175 H   0  0  0  0  0  0  0  0  0  0  0  0
    1.0824   -0.5528    3.3104 H   0  0  0  0  0  0  0  0  0  0  0  0
  1  2  1  0  0  0  0
  2  3  1  0  0  0  0
  2  4  1  0  0  0  0
  2  5  1  0  0  0  0
  5  6  2  0  0  0  0
  5  7  1  0  0  0  0
  7  8  1  0  0  0  0
  7  9  1  0  0  0  0
  9 10  1  0  0  0  0
  9 11  1  0  0  0  0
  9 18  1  0  0  0  0
 11 12  1  0  0  0  0
 11 13  1  0  0  0  0
 11 14  1  0  0  0  0
 14 15  2  0  0  0  0
 14 16  1  0  0  0  0
 16 17  1  0  0  0  0
 18 19  2  0  0  0  0
 18 20  1  0  0  0  0
 20 21  1  0  0  0  0
 20 22  1  0  0  0  0
 22 23  1  0  0  0  0
 22 24  1  0  0  0  0
 22 25  1  0  0  0  0
M  END
$$$$

  -OEChem-02102214113D

 25 24  0     1  0  0  0  0  0999 V2000
   -2.3435   -3.7994   -0.1811 H   0  0  0  0  0  0  0  0  0  0  0  0
   -2.4427   -2.7533   -0.4848 C   0  0  0  0  0  0  0  0  0  0  0  0
   -3.0516   -2.2284    0.2552 H   0  0  0  0  0  0  0  0  0  0  0  0
   -2.9444   -2.7142   -1.4547 H   0  0  0  0  0  0  0  0  0  0  0  0
   -1.0739   -2.1069   -0.5838 C   0  0  0  0  0  0  0  0  0  0  0  0
   -0.0724   -2.7660   -0.3672 O   0  0  0  0  0  0  0  0  0  0  0  0
   -0.9694   -0.7709   -0.9166 N   0  0  0  0  0  0  0  0  0  0  0  0
   -1.8425   -0.2491   -0.9897 H   0  0  0  0  0  0  0  0  0  0  0  0
    0.2866    0.0010   -0.8733 C   0  0  1  0  0  0  0  0  0  0  0  0
    1.0247   -0.5030   -1.5085 H   0  0  0  0  0  0  0  0  0  0  0  0
    0.1328    1.4652   -1.3755 C   0  0  0  0  0  0  0  0  0  0  0  0
    0.9164    2.0828   -0.9253 H   0  0  0  0  0  0  0  0  0  0  0  0
    0.3252    1.4541   -2.4515 H   0  0  0  0  0  0  0  0  0  0  0  0
   -1.2014    2.1980   -1.1946 C   0  0  0  0  0  0  0  0  0  0  0  0
   -2.1607    1.6611   -0.6599 O   0  0  0  0  0  0  0  0  0  0  0  0
   -1.2354    3.4633   -1.6717 O   0  0  0  0  0  0  0  0  0  0  0  0
   -2.1238    3.8050   -1.4881 H   0  0  0  0  0  0  0  0  0  0  0  0
    0.8940    0.0330    0.5470 C   0  0  0  0  0  0  0  0  0  0  0  0
    2.1084    0.0635    0.6905 O   0  0  0  0  0  0  0  0  0  0  0  0
    0.0800    0.2790    1.6382 N   0  0  0  0  0  0  0  0  0  0  0  0
   -0.9223    0.2857    1.4738 H   0  0  0  0  0  0  0  0  0  0  0  0
    0.5816    0.3977    3.0011 C   0  0  0  0  0  0  0  0  0  0  0  0
    1.2908    1.2287    3.0774 H   0  0  0  0  0  0  0  0  0  0  0  0
   -0.2444    0.5844    3.6940 H   0  0  0  0  0  0  0  0  0  0  0  0
    1.0869   -0.5258    3.3036 H   0  0  0  0  0  0  0  0  0  0  0  0
  1  2  1  0  0  0  0
  2  3  1  0  0  0  0
  2  4  1  0  0  0  0
  2  5  1  0  0  0  0
  5  6  2  0  0  0  0
  5  7  1  0  0  0  0
  7  8  1  0  0  0  0
  7  9  1  0  0  0  0
  9 10  1  0  0  0  0
  9 11  1  0  0  0  0
  9 18  1  0  0  0  0
 11 12  1  0  0  0  0
 11 13  1  0  0  0  0
 11 14  1  0  0  0  0
 14 15  2  0  0  0  0
 14 16  1  0  0  0  0
 16 17  1  0  0  0  0
 18 19  2  0  0  0  0
 18 20  1  0  0  0  0
 20 21  1  0  0  0  0
 20 22  1  0  0  0  0
 22 23  1  0  0  0  0
 22 24  1  0  0  0  0
 22 25  1  0  0  0  0
M  END
$$$$

  -OEChem-02102214113D

 25 24  0     1  0  0  0  0  0999 V2000
   -2.3500   -3.7890   -0.1914 H   0  0  0  0  0  0  0  0  0  0  0  0
   -2.4477   -2.7367   -0.4732 C   0  0  0  0  0  0  0  0  0  0  0  0
   -3.0165   -2.2167    0.3011 H   0  0  0  0  0  0  0  0  0  0  0  0
   -2.9906   -2.6749   -1.4194 H   0  0  0  0  0  0  0  0  0  0  0  0
   -1.0752   -2.1076   -0.6212 C   0  0  0  0  0  0  0  0  0  0  0  0
   -0.0752   -2.7843   -0.4576 O   0  0  0  0  0  0  0  0  0  0  0  0
   -0.9648   -0.7698   -0.9470 N   0  0  0  0  0  0  0  0  0  0  0  0
   -1.8315   -0.2342   -0.9417 H   0  0  0  0  0  0  0  0  0  0  0  0
    0.3017   -0.0151   -0.8839 C   0  0  1  0  0  0  0  0  0  0  0  0
    1.0410   -0.5197   -1.5173 H   0  0  0  0  0  0  0  0  0  0  0  0
    0.1558    1.4521   -1.3732 C   0  0  0  0  0  0  0  0  0  0  0  0
    0.9355    2.0701   -0.9172 H   0  0  0  0  0  0  0  0  0  0  0  0
    0.3476    1.4500   -2.4495 H   0  0  0  0  0  0  0  0  0  0  0  0
   -1.1874    2.1611   -1.1802 C   0  0  0  0  0  0  0  0  0  0  0  0
   -2.0334    1.7063   -0.4229 O   0  0  0  0  0  0  0  0  0  0  0  0
   -1.3617    3.3012   -1.8865 O   0  0  0  0  0  0  0  0  0  0  0  0
   -2.2380    3.6425   -1.6516 H   0  0  0  0  0  0  0  0  0  0  0  0
    0.8943    0.0004    0.5431 C   0  0  0  0  0  0  0  0  0  0  0  0
    2.1070   -0.0011    0.7025 O   0  0  0  0  0  0  0  0  0  0  0  0
    0.0701    0.2518    1.6253 N   0  0  0  0  0  0  0  0  0  0  0  0
   -0.9188    0.3834    1.4307 H   0  0  0  0  0  0  0  0  0  0  0  0
    0.5601    0.4282    2.9859 C   0  0  0  0  0  0  0  0  0  0  0  0
    1.2117    1.3060    3.0483 H   0  0  0  0  0  0  0  0  0  0  0  0
   -0.2785    0.5687    3.6744 H   0  0  0  0  0  0  0  0  0  0  0  0
    1.1251   -0.4538    3.3057 H   0  0  0  0  0  0  0  0  0  0  0  0
  1  2  1  0  0  0  0
  2  3  1  0  0  0  0
  2  4  1  0  0  0  0
  2  5  1  0  0  0  0
  5  6  2  0  0  0  0
  5  7  1  0  0  0  0
  7  8  1  0  0  0  0
  7  9  1  0  0  0  0
  9 10  1  0  0  0  0
  9 11  1  0  0  0  0
  9 18  1  0  0  0  0
 11 12  1  0  0  0  0
 11 13  1  0  0  0  0
 11 14  1  0  0  0  0
 14 15  2  0  0  0  0
 14 16  1  0  0  0  0
 16 17  1  0  0  0  0
 18 19  2  0  0  0  0
 18 20  1  0  0  0  0
 20 21  1  0  0  0  0
 20 22  1  0  0  0  0
 22 23  1  0  0  0  0
 22 24  1  0  0  0  0
 22 25  1  0  0  0  0
M  END
$$$$

  -OEChem-02102214113D

 25 24  0     1  0  0  0  0  0999 V2000
   -2.3753   -3.7690   -0.2210 H   0  0  0  0  0  0  0  0  0  0  0  0
   -2.4615   -2.7113   -0.4858 C   0  0  0  0  0  0  0  0  0  0  0  0
   -3.0101   -2.1947    0.3052 H   0  0  0  0  0  0  0  0  0  0  0  0
   -3.0178   -2.6270   -1.4225 H   0  0  0  0  0  0  0  0  0  0  0  0
   -1.0824   -2.0997   -0.6453 C   0  0  0  0  0  0  0  0  0  0  0  0
   -0.0894   -2.7901   -0.4983 O   0  0  0  0  0  0  0  0  0  0  0  0
   -0.9604   -0.7609   -0.9627 N   0  0  0  0  0  0  0  0  0  0  0  0
   -1.8212   -0.2188   -0.9294 H   0  0  0  0  0  0  0  0  0  0  0  0
    0.3142   -0.0209   -0.8770 C   0  0  1  0  0  0  0  0  0  0  0  0
    1.0562   -0.5279   -1.5056 H   0  0  0  0  0  0  0  0  0  0  0  0
    0.1735    1.4423   -1.3712 C   0  0  0  0  0  0  0  0  0  0  0  0
    0.9385    2.0697   -0.9035 H   0  0  0  0  0  0  0  0  0  0  0  0
    0.3787    1.4429   -2.4452 H   0  0  0  0  0  0  0  0  0  0  0  0
   -1.1871    2.1133   -1.1822 C   0  0  0  0  0  0  0  0  0  0  0  0
   -1.9008    1.7886   -0.2433 O   0  0  0  0  0  0  0  0  0  0  0  0
   -1.5303    3.0600   -2.0853 O   0  0  0  0  0  0  0  0  0  0  0  0
   -2.3952    3.4035   -1.8138 H   0  0  0  0  0  0  0  0  0  0  0  0
    0.8974   -0.0141    0.5543 C   0  0  0  0  0  0  0  0  0  0  0  0
    2.1091   -0.0348    0.7197 O   0  0  0  0  0  0  0  0  0  0  0  0
    0.0716    0.2428    1.6340 N   0  0  0  0  0  0  0  0  0  0  0  0
   -0.9005    0.4564    1.4241 H   0  0  0  0  0  0  0  0  0  0  0  0
    0.5653    0.4456    2.9898 C   0  0  0  0  0  0  0  0  0  0  0  0
    1.1880    1.3447    3.0406 H   0  0  0  0  0  0  0  0  0  0  0  0
   -0.2725    0.5624    3.6838 H   0  0  0  0  0  0  0  0  0  0  0  0
    1.1616   -0.4146    3.3122 H   0  0  0  0  0  0  0  0  0  0  0  0
  1  2  1  0  0  0  0
  2  3  1  0  0  0  0
  2  4  1  0  0  0  0
  2  5  1  0  0  0  0
  5  6  2  0  0  0  0
  5  7  1  0  0  0  0
  7  8  1  0  0  0  0
  7  9  1  0  0  0  0
  9 10  1  0  0  0  0
  9 11  1  0  0  0  0
  9 18  1  0  0  0  0
 11 12  1  0  0  0  0
 11 13  1  0  0  0  0
 11 14  1  0  0  0  0
 14 15  2  0  0  0  0
 14 16  1  0  0  0  0
 16 17  1  0  0  0  0
 18 19  2  0  0  0  0
 18 20  1  0  0  0  0
 20 21  1  0  0  0  0
 20 22  1  0  0  0  0
 22 23  1  0  0  0  0
 22 24  1  0  0  0  0
 22 25  1  0  0  0  0
M  END
$$$$

  -OEChem-02102214113D

 25 24  0     1  0  0  0  0  0999 V2000
   -2.3970   -3.7531   -0.2418 H   0  0  0  0  0  0  0  0  0  0  0  0
   -2.4759   -2.6961   -0.5119 C   0  0  0  0  0  0  0  0  0  0  0  0
   -3.0348   -2.1746    0.2687 H   0  0  0  0  0  0  0  0  0  0  0  0
   -3.0175   -2.6139   -1.4574 H   0  0  0  0  0  0  0  0  0  0  0  0
   -1.0926   -2.0896   -0.6524 C   0  0  0  0  0  0  0  0  0  0  0  0
   -0.1051   -2.7854   -0.4949 O   0  0  0  0  0  0  0  0  0  0  0  0
   -0.9606   -0.7502   -0.9646 N   0  0  0  0  0  0  0  0  0  0  0  0
   -1.8198   -0.2070   -0.9506 H   0  0  0  0  0  0  0  0  0  0  0  0
    0.3198   -0.0208   -0.8659 C   0  0  1  0  0  0  0  0  0  0  0  0
    1.0617   -0.5325   -1.4908 H   0  0  0  0  0  0  0  0  0  0  0  0
    0.1846    1.4378   -1.3686 C   0  0  0  0  0  0  0  0  0  0  0  0
    0.9373    2.0739   -0.8926 H   0  0  0  0  0  0  0  0  0  0  0  0
    0.3994    1.4398   -2.4408 H   0  0  0  0  0  0  0  0  0  0  0  0
   -1.1899    2.0738   -1.1807 C   0  0  0  0  0  0  0  0  0  0  0  0
   -1.7656    1.9350   -0.1115 O   0  0  0  0  0  0  0  0  0  0  0  0
   -1.7066    2.7642   -2.2230 O   0  0  0  0  0  0  0  0  0  0  0  0
   -2.5556    3.1255   -1.9250 H   0  0  0  0  0  0  0  0  0  0  0  0
    0.9009   -0.0179    0.5670 C   0  0  0  0  0  0  0  0  0  0  0  0
    2.1121   -0.0625    0.7327 O   0  0  0  0  0  0  0  0  0  0  0  0
    0.0788    0.2445    1.6482 N   0  0  0  0  0  0  0  0  0  0  0  0
   -0.8779    0.5153    1.4323 H   0  0  0  0  0  0  0  0  0  0  0  0
    0.5823    0.4594    2.9986 C   0  0  0  0  0  0  0  0  0  0  0  0
    1.2109    1.3551    3.0355 H   0  0  0  0  0  0  0  0  0  0  0  0
   -0.2505    0.5892    3.6964 H   0  0  0  0  0  0  0  0  0  0  0  0
    1.1753   -0.4008    3.3270 H   0  0  0  0  0  0  0  0  0  0  0  0
  1  2  1  0  0  0  0
  2  3  1  0  0  0  0
  2  4  1  0  0  0  0
  2  5  1  0  0  0  0
  5  6  2  0  0  0  0
  5  7  1  0  0  0  0
  7  8  1  0  0  0  0
  7  9  1  0  0  0  0
  9 10  1  0  0  0  0
  9 11  1  0  0  0  0
  9 18  1  0  0  0  0
 11 12  1  0  0  0  0
 11 13  1  0  0  0  0
 11 14  1  0  0  0  0
 14 15  2  0  0  0  0
 14 16  1  0  0  0  0
 16 17  1  0  0  0  0
 18 19  2  0  0  0  0
 18 20  1  0  0  0  0
 20 21  1  0  0  0  0
 20 22  1  0  0  0  0
 22 23  1  0  0  0  0
 22 24  1  0  0  0  0
 22 25  1  0  0  0  0
M  END
$$$$

  -OEChem-02102214113D

 25 24  0     1  0  0  0  0  0999 V2000
   -2.4434   -3.7600   -0.3154 H   0  0  0  0  0  0  0  0  0  0  0  0
   -2.5072   -2.7028   -0.5885 C   0  0  0  0  0  0  0  0  0  0  0  0
   -3.1351   -2.1883    0.1426 H   0  0  0  0  0  0  0  0  0  0  0  0
   -2.9667   -2.6227   -1.5765 H   0  0  0  0  0  0  0  0  0  0  0  0
   -1.1215   -2.0858   -0.6091 C   0  0  0  0  0  0  0  0  0  0  0  0
   -0.1482   -2.7739   -0.3590 O   0  0  0  0  0  0  0  0  0  0  0  0
   -0.9687   -0.7509   -0.9313 N   0  0  0  0  0  0  0  0  0  0  0  0
   -1.8207   -0.2201   -1.0857 H   0  0  0  0  0  0  0  0  0  0  0  0
    0.3178   -0.0294   -0.8454 C   0  0  1  0  0  0  0  0  0  0  0  0
    1.0521   -0.5497   -1.4718 H   0  0  0  0  0  0  0  0  0  0  0  0
    0.1846    1.4251   -1.3560 C   0  0  0  0  0  0  0  0  0  0  0  0
    0.9383    2.0647   -0.8859 H   0  0  0  0  0  0  0  0  0  0  0  0
    0.3916    1.4265   -2.4298 H   0  0  0  0  0  0  0  0  0  0  0  0
   -1.1924    2.0452   -1.1512 C   0  0  0  0  0  0  0  0  0  0  0  0
   -1.6250    2.1435   -0.0143 O   0  0  0  0  0  0  0  0  0  0  0  0
   -1.8839    2.4264   -2.2497 O   0  0  0  0  0  0  0  0  0  0  0  0
   -2.7063    2.8313   -1.9327 H   0  0  0  0  0  0  0  0  0  0  0  0
    0.9119   -0.0141    0.5826 C   0  0  0  0  0  0  0  0  0  0  0  0
    2.1247   -0.0679    0.7344 O   0  0  0  0  0  0  0  0  0  0  0  0
    0.1046    0.2650    1.6706 N   0  0  0  0  0  0  0  0  0  0  0  0
   -0.8471    0.5560    1.4609 H   0  0  0  0  0  0  0  0  0  0  0  0
    0.6296    0.5001    3.0093 C   0  0  0  0  0  0  0  0  0  0  0  0
    1.2591    1.3958    3.0221 H   0  0  0  0  0  0  0  0  0  0  0  0
   -0.1918    0.6414    3.7180 H   0  0  0  0  0  0  0  0  0  0  0  0
    1.2270   -0.3555    3.3417 H   0  0  0  0  0  0  0  0  0  0  0  0
  1  2  1  0  0  0  0
  2  3  1  0  0  0  0
  2  4  1  0  0  0  0
  2  5  1  0  0  0  0
  5  6  2  0  0  0  0
  5  7  1  0  0  0  0
  7  8  1  0  0  0  0
  7  9  1  0  0  0  0
  9 10  1  0  0  0  0
  9 11  1  0  0  0  0
  9 18  1  0  0  0  0
 11 12  1  0  0  0  0
 11 13  1  0  0  0  0
 11 14  1  0  0  0  0
 14 15  2  0  0  0  0
 14 16  1  0  0  0  0
 16 17  1  0  0  0  0
 18 19  2  0  0  0  0
 18 20  1  0  0  0  0
 20 21  1  0  0  0  0
 20 22  1  0  0  0  0
 22 23  1  0  0  0  0
 22 24  1  0  0  0  0
 22 25  1  0  0  0  0
M  END
$$$$

  -OEChem-02102214113D

 25 24  0     1  0  0  0  0  0999 V2000
   -2.5015   -3.7583   -0.4040 H   0  0  0  0  0  0  0  0  0  0  0  0
   -2.5369   -2.7070   -0.7034 C   0  0  0  0  0  0  0  0  0  0  0  0
   -3.2741   -2.1899   -0.0848 H   0  0  0  0  0  0  0  0  0  0  0  0
   -2.8434   -2.6500   -1.7505 H   0  0  0  0  0  0  0  0  0  0  0  0
   -1.1722   -2.0686   -0.5264 C   0  0  0  0  0  0  0  0  0  0  0  0
   -0.2446   -2.7321   -0.0992 O   0  0  0  0  0  0  0  0  0  0  0  0
   -0.9874   -0.7448   -0.8771 N   0  0  0  0  0  0  0  0  0  0  0  0
   -1.7651   -0.2871   -1.3457 H   0  0  0  0  0  0  0  0  0  0  0  0
    0.3125   -0.0450   -0.8212 C   0  0  1  0  0  0  0  0  0  0  0  0
    1.0312   -0.5801   -1.4531 H   0  0  0  0  0  0  0  0  0  0  0  0
    0.1712    1.4053   -1.3401 C   0  0  0  0  0  0  0  0  0  0  0  0
    0.9371    2.0479   -0.8937 H   0  0  0  0  0  0  0  0  0  0  0  0
    0.3473    1.4033   -2.4192 H   0  0  0  0  0  0  0  0  0  0  0  0
   -1.2031    2.0169   -1.0966 C   0  0  0  0  0  0  0  0  0  0  0  0
   -1.4894    2.3744    0.0332 O   0  0  0  0  0  0  0  0  0  0  0  0
   -2.0689    2.0595   -2.1361 O   0  0  0  0  0  0  0  0  0  0  0  0
   -2.8642    2.5083   -1.8074 H   0  0  0  0  0  0  0  0  0  0  0  0
    0.9306   -0.0058    0.5965 C   0  0  0  0  0  0  0  0  0  0  0  0
    2.1459   -0.0695    0.7250 O   0  0  0  0  0  0  0  0  0  0  0  0
    0.1488    0.3122    1.6921 N   0  0  0  0  0  0  0  0  0  0  0  0
   -0.8154    0.5720    1.5022 H   0  0  0  0  0  0  0  0  0  0  0  0
    0.6964    0.5577    3.0194 C   0  0  0  0  0  0  0  0  0  0  0  0
    1.3625    1.4266    3.0044 H   0  0  0  0  0  0  0  0  0  0  0  0
   -0.1114    0.7508    3.7316 H   0  0  0  0  0  0  0  0  0  0  0  0
    1.2609   -0.3141    3.3667 H   0  0  0  0  0  0  0  0  0  0  0  0
  1  2  1  0  0  0  0
  2  3  1  0  0  0  0
  2  4  1  0  0  0  0
  2  5  1  0  0  0  0
  5  6  2  0  0  0  0
  5  7  1  0  0  0  0
  7  8  1  0  0  0  0
  7  9  1  0  0  0  0
  9 10  1  0  0  0  0
  9 11  1  0  0  0  0
  9 18  1  0  0  0  0
 11 12  1  0  0  0  0
 11 13  1  0  0  0  0
 11 14  1  0  0  0  0
 14 15  2  0  0  0  0
 14 16  1  0  0  0  0
 16 17  1  0  0  0  0
 18 19  2  0  0  0  0
 18 20  1  0  0  0  0
 20 21  1  0  0  0  0
 20 22  1  0  0  0  0
 22 23  1  0  0  0  0
 22 24  1  0  0  0  0
 22 25  1  0  0  0  0
M  END
$$$$

  -OEChem-02102214113D

 25 24  0     1  0  0  0  0  0999 V2000
   -2.5074   -3.7640   -0.4034 H   0  0  0  0  0  0  0  0  0  0  0  0
   -2.5359   -2.7199   -0.7280 C   0  0  0  0  0  0  0  0  0  0  0  0
   -3.3017   -2.1939   -0.1531 H   0  0  0  0  0  0  0  0  0  0  0  0
   -2.7983   -2.6887   -1.7881 H   0  0  0  0  0  0  0  0  0  0  0  0
   -1.1832   -2.0685   -0.5085 C   0  0  0  0  0  0  0  0  0  0  0  0
   -0.2664   -2.7202   -0.0419 O   0  0  0  0  0  0  0  0  0  0  0  0
   -0.9959   -0.7464   -0.8642 N   0  0  0  0  0  0  0  0  0  0  0  0
   -1.7551   -0.3056   -1.3802 H   0  0  0  0  0  0  0  0  0  0  0  0
    0.3053   -0.0491   -0.8163 C   0  0  1  0  0  0  0  0  0  0  0  0
    1.0198   -0.5864   -1.4508 H   0  0  0  0  0  0  0  0  0  0  0  0
    0.1644    1.4003   -1.3370 C   0  0  0  0  0  0  0  0  0  0  0  0
    0.9363    2.0407   -0.8969 H   0  0  0  0  0  0  0  0  0  0  0  0
    0.3319    1.3971   -2.4172 H   0  0  0  0  0  0  0  0  0  0  0  0
   -1.2074    2.0145   -1.0869 C   0  0  0  0  0  0  0  0  0  0  0  0
   -1.3911    2.6211   -0.0466 O   0  0  0  0  0  0  0  0  0  0  0  0
   -2.1772    1.7985   -2.0081 O   0  0  0  0  0  0  0  0  0  0  0  0
   -2.9502    2.2998   -1.7017 H   0  0  0  0  0  0  0  0  0  0  0  0
    0.9319   -0.0047    0.5971 C   0  0  0  0  0  0  0  0  0  0  0  0
    2.1490   -0.0505    0.7157 O   0  0  0  0  0  0  0  0  0  0  0  0
    0.1574    0.3188    1.6963 N   0  0  0  0  0  0  0  0  0  0  0  0
   -0.8259    0.5078    1.5281 H   0  0  0  0  0  0  0  0  0  0  0  0
    0.7111    0.5704    3.0202 C   0  0  0  0  0  0  0  0  0  0  0  0
    1.3880    1.4307    2.9949 H   0  0  0  0  0  0  0  0  0  0  0  0
   -0.0924    0.7814    3.7323 H   0  0  0  0  0  0  0  0  0  0  0  0
    1.2658   -0.3047    3.3749 H   0  0  0  0  0  0  0  0  0  0  0  0
  1  2  1  0  0  0  0
  2  3  1  0  0  0  0
  2  4  1  0  0  0  0
  2  5  1  0  0  0  0
  5  6  2  0  0  0  0
  5  7  1  0  0  0  0
  7  8  1  0  0  0  0
  7  9  1  0  0  0  0
  9 10  1  0  0  0  0
  9 11  1  0  0  0  0
  9 18  1  0  0  0  0
 11 12  1  0  0  0  0
 11 13  1  0  0  0  0
 11 14  1  0  0  0  0
 14 15  2  0  0  0  0
 14 16  1  0  0  0  0
 16 17  1  0  0  0  0
 18 19  2  0  0  0  0
 18 20  1  0  0  0  0
 20 21  1  0  0  0  0
 20 22  1  0  0  0  0
 22 23  1  0  0  0  0
 22 24  1  0  0  0  0
 22 25  1  0  0  0  0
M  END
$$$$

  -OEChem-02102214113D

 25 24  0     1  0  0  0  0  0999 V2000
   -2.4716   -3.7825   -0.3751 H   0  0  0  0  0  0  0  0  0  0  0  0
   -2.5136   -2.7376   -0.6963 C   0  0  0  0  0  0  0  0  0  0  0  0
   -3.2808   -2.2213   -0.1145 H   0  0  0  0  0  0  0  0  0  0  0  0
   -2.7840   -2.7062   -1.7546 H   0  0  0  0  0  0  0  0  0  0  0  0
   -1.1667   -2.0717   -0.4856 C   0  0  0  0  0  0  0  0  0  0  0  0
   -0.2436   -2.7081   -0.0104 O   0  0  0  0  0  0  0  0  0  0  0  0
   -0.9947   -0.7498   -0.8482 N   0  0  0  0  0  0  0  0  0  0  0  0
   -1.7653   -0.3133   -1.3530 H   0  0  0  0  0  0  0  0  0  0  0  0
    0.2962   -0.0352   -0.8146 C   0  0  1  0  0  0  0  0  0  0  0  0
    1.0122   -0.5727   -1.4472 H   0  0  0  0  0  0  0  0  0  0  0  0
    0.1458    1.4083   -1.3531 C   0  0  0  0  0  0  0  0  0  0  0  0
    0.9202    2.0533   -0.9242 H   0  0  0  0  0  0  0  0  0  0  0  0
    0.3118    1.3894   -2.4333 H   0  0  0  0  0  0  0  0  0  0  0  0
   -1.2247    2.0356   -1.1189 C   0  0  0  0  0  0  0  0  0  0  0  0
   -1.3327    2.8782   -0.2467 O   0  0  0  0  0  0  0  0  0  0  0  0
   -2.2607    1.6247   -1.8926 O   0  0  0  0  0  0  0  0  0  0  0  0
   -3.0131    2.1852   -1.6411 H   0  0  0  0  0  0  0  0  0  0  0  0
    0.9319    0.0242    0.5936 C   0  0  0  0  0  0  0  0  0  0  0  0
    2.1503    0.0022    0.7035 O   0  0  0  0  0  0  0  0  0  0  0  0
    0.1609    0.3418    1.6967 N   0  0  0  0  0  0  0  0  0  0  0  0
   -0.8427    0.4003    1.5607 H   0  0  0  0  0  0  0  0  0  0  0  0
    0.7112    0.5288    3.0325 C   0  0  0  0  0  0  0  0  0  0  0  0
    1.4425    1.3440    3.0346 H   0  0  0  0  0  0  0  0  0  0  0  0
   -0.0858    0.7783    3.7394 H   0  0  0  0  0  0  0  0  0  0  0  0
    1.2037   -0.3878    3.3740 H   0  0  0  0  0  0  0  0  0  0  0  0
  1  2  1  0  0  0  0
  2  3  1  0  0  0  0
  2  4  1  0  0  0  0
  2  5  1  0  0  0  0
  5  6  2  0  0  0  0
  5  7  1  0  0  0  0
  7  8  1  0  0  0  0
  7  9  1  0  0  0  0
  9 10  1  0  0  0  0
  9 11  1  0  0  0  0
  9 18  1  0  0  0  0
 11 12  1  0  0  0  0
 11 13  1  0  0  0  0
 11 14  1  0  0  0  0
 14 15  2  0  0  0  0
 14 16  1  0  0  0  0
 16 17  1  0  0  0  0
 18 19  2  0  0  0  0
 18 20  1  0  0  0  0
 20 21  1  0  0  0  0
 20 22  1  0  0  0  0
 22 23  1  0  0  0  0
 22 24  1  0  0  0  0
 22 25  1  0  0  0  0
M  END
$$$$

  -OEChem-02102214113D

 25 24  0     1  0  0  0  0  0999 V2000
   -2.4211   -3.8118   -0.3416 H   0  0  0  0  0  0  0  0  0  0  0  0
   -2.4866   -2.7638   -0.6476 C   0  0  0  0  0  0  0  0  0  0  0  0
   -3.2400   -2.2642   -0.0342 H   0  0  0  0  0  0  0  0  0  0  0  0
   -2.7926   -2.7228   -1.6957 H   0  0  0  0  0  0  0  0  0  0  0  0
   -1.1415   -2.0843   -0.4729 C   0  0  0  0  0  0  0  0  0  0  0  0
   -0.2008   -2.7096   -0.0178 O   0  0  0  0  0  0  0  0  0  0  0  0
   -0.9916   -0.7599   -0.8355 N   0  0  0  0  0  0  0  0  0  0  0  0
   -1.7858   -0.3190   -1.2996 H   0  0  0  0  0  0  0  0  0  0  0  0
    0.2859   -0.0232   -0.8149 C   0  0  1  0  0  0  0  0  0  0  0  0
    1.0045   -0.5562   -1.4485 H   0  0  0  0  0  0  0  0  0  0  0  0
    0.1296    1.4188   -1.3610 C   0  0  0  0  0  0  0  0  0  0  0  0
    0.9112    2.0609   -0.9399 H   0  0  0  0  0  0  0  0  0  0  0  0
    0.2950    1.3874   -2.4409 H   0  0  0  0  0  0  0  0  0  0  0  0
   -1.2338    2.0737   -1.1451 C   0  0  0  0  0  0  0  0  0  0  0  0
   -1.2719    3.1022   -0.4951 O   0  0  0  0  0  0  0  0  0  0  0  0
   -2.3269    1.5300   -1.7394 O   0  0  0  0  0  0  0  0  0  0  0  0
   -3.0552    2.1449   -1.5513 H   0  0  0  0  0  0  0  0  0  0  0  0
    0.9275    0.0417    0.5901 C   0  0  0  0  0  0  0  0  0  0  0  0
    2.1464    0.0489    0.6954 O   0  0  0  0  0  0  0  0  0  0  0  0
    0.1525    0.3427    1.6952 N   0  0  0  0  0  0  0  0  0  0  0  0
   -0.8536    0.2990    1.5745 H   0  0  0  0  0  0  0  0  0  0  0  0
    0.6997    0.4851    3.0383 C   0  0  0  0  0  0  0  0  0  0  0  0
    1.4587    1.2741    3.0618 H   0  0  0  0  0  0  0  0  0  0  0  0
   -0.0935    0.7499    3.7437 H   0  0  0  0  0  0  0  0  0  0  0  0
    1.1574   -0.4543    3.3657 H   0  0  0  0  0  0  0  0  0  0  0  0
  1  2  1  0  0  0  0
  2  3  1  0  0  0  0
  2  4  1  0  0  0  0
  2  5  1  0  0  0  0
  5  6  2  0  0  0  0
  5  7  1  0  0  0  0
  7  8  1  0  0  0  0
  7  9  1  0  0  0  0
  9 10  1  0  0  0  0
  9 11  1  0  0  0  0
  9 18  1  0  0  0  0
 11 12  1  0  0  0  0
 11 13  1  0  0  0  0
 11 14  1  0  0  0  0
 14 15  2  0  0  0  0
 14 16  1  0  0  0  0
 16 17  1  0  0  0  0
 18 19  2  0  0  0  0
 18 20  1  0  0  0  0
 20 21  1  0  0  0  0
 20 22  1  0  0  0  0
 22 23  1  0  0  0  0
 22 24  1  0  0  0  0
 22 25  1  0  0  0  0
M  END
$$$$

  -OEChem-02102214113D

 25 24  0     1  0  0  0  0  0999 V2000
   -2.3836   -3.8392   -0.3131 H   0  0  0  0  0  0  0  0  0  0  0  0
   -2.4639   -2.7905   -0.6138 C   0  0  0  0  0  0  0  0  0  0  0  0
   -3.2045   -2.2978    0.0206 H   0  0  0  0  0  0  0  0  0  0  0  0
   -2.7975   -2.7482   -1.6535 H   0  0  0  0  0  0  0  0  0  0  0  0
   -1.1190   -2.1029   -0.4725 C   0  0  0  0  0  0  0  0  0  0  0  0
   -0.1612   -2.7241   -0.0485 O   0  0  0  0  0  0  0  0  0  0  0  0
   -0.9887   -0.7750   -0.8287 N   0  0  0  0  0  0  0  0  0  0  0  0
   -1.8075   -0.3239   -1.2371 H   0  0  0  0  0  0  0  0  0  0  0  0
    0.2756   -0.0181   -0.8146 C   0  0  1  0  0  0  0  0  0  0  0  0
    0.9974   -0.5439   -1.4508 H   0  0  0  0  0  0  0  0  0  0  0  0
    0.1158    1.4278   -1.3574 C   0  0  0  0  0  0  0  0  0  0  0  0
    0.9041    2.0622   -0.9372 H   0  0  0  0  0  0  0  0  0  0  0  0
    0.2845    1.3908   -2.4364 H   0  0  0  0  0  0  0  0  0  0  0  0
   -1.2365    2.1183   -1.1600 C   0  0  0  0  0  0  0  0  0  0  0  0
   -1.2139    3.2711   -0.7694 O   0  0  0  0  0  0  0  0  0  0  0  0
   -2.3821    1.4866   -1.5244 O   0  0  0  0  0  0  0  0  0  0  0  0
   -3.0865    2.1440   -1.3979 H   0  0  0  0  0  0  0  0  0  0  0  0
    0.9210    0.0462    0.5887 C   0  0  0  0  0  0  0  0  0  0  0  0
    2.1397    0.0790    0.6903 O   0  0  0  0  0  0  0  0  0  0  0  0
    0.1435    0.3270    1.6975 N   0  0  0  0  0  0  0  0  0  0  0  0
   -0.8601    0.2342    1.5836 H   0  0  0  0  0  0  0  0  0  0  0  0
    0.6931    0.4534    3.0414 C   0  0  0  0  0  0  0  0  0  0  0  0
    1.4392    1.2544    3.0769 H   0  0  0  0  0  0  0  0  0  0  0  0
   -0.1014    0.6921    3.7548 H   0  0  0  0  0  0  0  0  0  0  0  0
    1.1677   -0.4843    3.3496 H   0  0  0  0  0  0  0  0  0  0  0  0
  1  2  1  0  0  0  0
  2  3  1  0  0  0  0
  2  4  1  0  0  0  0
  2  5  1  0  0  0  0
  5  6  2  0  0  0  0
  5  7  1  0  0  0  0
  7  8  1  0  0  0  0
  7  9  1  0  0  0  0
  9 10  1  0  0  0  0
  9 11  1  0  0  0  0
  9 18  1  0  0  0  0
 11 12  1  0  0  0  0
 11 13  1  0  0  0  0
 11 14  1  0  0  0  0
 14 15  2  0  0  0  0
 14 16  1  0  0  0  0
 16 17  1  0  0  0  0
 18 19  2  0  0  0  0
 18 20  1  0  0  0  0
 20 21  1  0  0  0  0
 20 22  1  0  0  0  0
 22 23  1  0  0  0  0
 22 24  1  0  0  0  0
 22 25  1  0  0  0  0
M  END
$$$$

  -OEChem-02102214113D

 25 24  0     1  0  0  0  0  0999 V2000
   -2.3433   -3.8542   -0.2766 H   0  0  0  0  0  0  0  0  0  0  0  0
   -2.4382   -2.8047   -0.5698 C   0  0  0  0  0  0  0  0  0  0  0  0
   -3.1473   -2.3140    0.1010 H   0  0  0  0  0  0  0  0  0  0  0  0
   -2.8214   -2.7585   -1.5921 H   0  0  0  0  0  0  0  0  0  0  0  0
   -1.0885   -2.1172   -0.4920 C   0  0  0  0  0  0  0  0  0  0  0  0
   -0.1083   -2.7414   -0.1275 O   0  0  0  0  0  0  0  0  0  0  0  0
   -0.9783   -0.7851   -0.8384 N   0  0  0  0  0  0  0  0  0  0  0  0
   -1.8290   -0.3131   -1.1447 H   0  0  0  0  0  0  0  0  0  0  0  0
    0.2730   -0.0081   -0.8234 C   0  0  1  0  0  0  0  0  0  0  0  0
    1.0011   -0.5240   -1.4604 H   0  0  0  0  0  0  0  0  0  0  0  0
    0.1098    1.4417   -1.3609 C   0  0  0  0  0  0  0  0  0  0  0  0
    0.9008    2.0700   -0.9365 H   0  0  0  0  0  0  0  0  0  0  0  0
    0.2858    1.4023   -2.4389 H   0  0  0  0  0  0  0  0  0  0  0  0
   -1.2324    2.1628   -1.1846 C   0  0  0  0  0  0  0  0  0  0  0  0
   -1.1768    3.3744   -1.0778 O   0  0  0  0  0  0  0  0  0  0  0  0
   -2.4085    1.4866   -1.2441 O   0  0  0  0  0  0  0  0  0  0  0  0
   -3.0962    2.1696   -1.1712 H   0  0  0  0  0  0  0  0  0  0  0  0
    0.9144    0.0511    0.5818 C   0  0  0  0  0  0  0  0  0  0  0  0
    2.1320    0.0991    0.6891 O   0  0  0  0  0  0  0  0  0  0  0  0
    0.1290    0.3087    1.6911 N   0  0  0  0  0  0  0  0  0  0  0  0
   -0.8724    0.1996    1.5716 H   0  0  0  0  0  0  0  0  0  0  0  0
    0.6717    0.4097    3.0401 C   0  0  0  0  0  0  0  0  0  0  0  0
    1.4181    1.2092    3.0949 H   0  0  0  0  0  0  0  0  0  0  0  0
   -0.1265    0.6355    3.7535 H   0  0  0  0  0  0  0  0  0  0  0  0
    1.1438   -0.5339    3.3331 H   0  0  0  0  0  0  0  0  0  0  0  0
  1  2  1  0  0  0  0
  2  3  1  0  0  0  0
  2  4  1  0  0  0  0
  2  5  1  0  0  0  0
  5  6  2  0  0  0  0
  5  7  1  0  0  0  0
  7  8  1  0  0  0  0
  7  9  1  0  0  0  0
  9 10  1  0  0  0  0
  9 11  1  0  0  0  0
  9 18  1  0  0  0  0
 11 12  1  0  0  0  0
 11 13  1  0  0  0  0
 11 14  1  0  0  0  0
 14 15  2  0  0  0  0
 14 16  1  0  0  0  0
 16 17  1  0  0  0  0
 18 19  2  0  0  0  0
 18 20  1  0  0  0  0
 20 21  1  0  0  0  0
 20 22  1  0  0  0  0
 22 23  1  0  0  0  0
 22 24  1  0  0  0  0
 22 25  1  0  0  0  0
M  END
$$$$

  -OEChem-02102214113D

 25 24  0     1  0  0  0  0  0999 V2000
   -2.3133   -3.8515   -0.2331 H   0  0  0  0  0  0  0  0  0  0  0  0
   -2.4191   -2.8034   -0.5269 C   0  0  0  0  0  0  0  0  0  0  0  0
   -3.0835   -2.3043    0.1824 H   0  0  0  0  0  0  0  0  0  0  0  0
   -2.8630   -2.7613   -1.5244 H   0  0  0  0  0  0  0  0  0  0  0  0
   -1.0622   -2.1251   -0.5347 C   0  0  0  0  0  0  0  0  0  0  0  0
   -0.0640   -2.7592   -0.2428 O   0  0  0  0  0  0  0  0  0  0  0  0
   -0.9644   -0.7899   -0.8730 N   0  0  0  0  0  0  0  0  0  0  0  0
   -1.8355   -0.2923   -1.0554 H   0  0  0  0  0  0  0  0  0  0  0  0
    0.2823   -0.0058   -0.8456 C   0  0  1  0  0  0  0  0  0  0  0  0
    1.0180   -0.5123   -1.4816 H   0  0  0  0  0  0  0  0  0  0  0  0
    0.1177    1.4495   -1.3675 C   0  0  0  0  0  0  0  0  0  0  0  0
    0.9054    2.0733   -0.9311 H   0  0  0  0  0  0  0  0  0  0  0  0
    0.3022    1.4183   -2.4445 H   0  0  0  0  0  0  0  0  0  0  0  0
   -1.2198    2.1821   -1.1971 C   0  0  0  0  0  0  0  0  0  0  0  0
   -1.1821    3.3869   -1.3679 O   0  0  0  0  0  0  0  0  0  0  0  0
   -2.3661    1.5235   -0.8878 O   0  0  0  0  0  0  0  0  0  0  0  0
   -3.0486    2.2144   -0.8447 H   0  0  0  0  0  0  0  0  0  0  0  0
    0.9081    0.0430    0.5667 C   0  0  0  0  0  0  0  0  0  0  0  0
    2.1240    0.0920    0.6905 O   0  0  0  0  0  0  0  0  0  0  0  0
    0.1079    0.2869    1.6686 N   0  0  0  0  0  0  0  0  0  0  0  0
   -0.8940    0.2053    1.5309 H   0  0  0  0  0  0  0  0  0  0  0  0
    0.6315    0.3822    3.0255 C   0  0  0  0  0  0  0  0  0  0  0  0
    1.3667    1.1907    3.0973 H   0  0  0  0  0  0  0  0  0  0  0  0
   -0.1786    0.5903    3.7308 H   0  0  0  0  0  0  0  0  0  0  0  0
    1.1124   -0.5580    3.3153 H   0  0  0  0  0  0  0  0  0  0  0  0
  1  2  1  0  0  0  0
  2  3  1  0  0  0  0
  2  4  1  0  0  0  0
  2  5  1  0  0  0  0
  5  6  2  0  0  0  0
  5  7  1  0  0  0  0
  7  8  1  0  0  0  0
  7  9  1  0  0  0  0
  9 10  1  0  0  0  0
  9 11  1  0  0  0  0
  9 18  1  0  0  0  0
 11 12  1  0  0  0  0
 11 13  1  0  0  0  0
 11 14  1  0  0  0  0
 14 15  2  0  0  0  0
 14 16  1  0  0  0  0
 16 17  1  0  0  0  0
 18 19  2  0  0  0  0
 18 20  1  0  0  0  0
 20 21  1  0  0  0  0
 20 22  1  0  0  0  0
 22 23  1  0  0  0  0
 22 24  1  0  0  0  0
 22 25  1  0  0  0  0
M  END
$$$$

  -OEChem-02102214113D

 25 24  0     1  0  0  0  0  0999 V2000
   -2.3654   -3.7717   -0.2636 H   0  0  0  0  0  0  0  0  0  0  0  0
   -2.4518   -2.7126   -0.5224 C   0  0  0  0  0  0  0  0  0  0  0  0
   -3.0222   -2.2054    0.2591 H   0  0  0  0  0  0  0  0  0  0  0  0
   -2.9861   -2.6248   -1.4714 H   0  0  0  0  0  0  0  0  0  0  0  0
   -1.0730   -2.0921   -0.6447 C   0  0  0  0  0  0  0  0  0  0  0  0
   -0.0804   -2.7780   -0.4764 O   0  0  0  0  0  0  0  0  0  0  0  0
   -0.9499   -0.7490   -0.9425 N   0  0  0  0  0  0  0  0  0  0  0  0
   -1.8108   -0.2063   -0.9289 H   0  0  0  0  0  0  0  0  0  0  0  0
    0.3215   -0.0087   -0.8487 C   0  0  1  0  0  0  0  0  0  0  0  0
    1.0594   -0.5105   -1.4861 H   0  0  0  0  0  0  0  0  0  0  0  0
    0.1669    1.4463   -1.3501 C   0  0  0  0  0  0  0  0  0  0  0  0
    1.0640    2.0109   -1.0766 H   0  0  0  0  0  0  0  0  0  0  0  0
    0.1229    1.4165   -2.4423 H   0  0  0  0  0  0  0  0  0  0  0  0
   -1.0575    2.2340   -0.8755 C   0  0  0  0  0  0  0  0  0  0  0  0
   -1.1533    3.3758   -1.2862 O   0  0  0  0  0  0  0  0  0  0  0  0
   -1.9653    1.6755   -0.0317 O   0  0  0  0  0  0  0  0  0  0  0  0
   -2.6151    2.3787    0.1382 H   0  0  0  0  0  0  0  0  0  0  0  0
    0.9220   -0.0107    0.5752 C   0  0  0  0  0  0  0  0  0  0  0  0
    2.1355   -0.0237    0.7256 O   0  0  0  0  0  0  0  0  0  0  0  0
    0.1113    0.2325    1.6686 N   0  0  0  0  0  0  0  0  0  0  0  0
   -0.8768    0.3818    1.4828 H   0  0  0  0  0  0  0  0  0  0  0  0
    0.6179    0.3877    3.0260 C   0  0  0  0  0  0  0  0  0  0  0  0
    1.2708    1.2641    3.0932 H   0  0  0  0  0  0  0  0  0  0  0  0
   -0.2114    0.5172    3.7277 H   0  0  0  0  0  0  0  0  0  0  0  0
    1.1872   -0.4991    3.3247 H   0  0  0  0  0  0  0  0  0  0  0  0
  1  2  1  0  0  0  0
  2  3  1  0  0  0  0
  2  4  1  0  0  0  0
  2  5  1  0  0  0  0
  5  6  2  0  0  0  0
  5  7  1  0  0  0  0
  7  8  1  0  0  0  0
  7  9  1  0  0  0  0
  9 10  1  0  0  0  0
  9 11  1  0  0  0  0
  9 18  1  0  0  0  0
 11 12  1  0  0  0  0
 11 13  1  0  0  0  0
 11 14  1  0  0  0  0
 14 15  2  0  0  0  0
 14 16  1  0  0  0  0
 16 17  1  0  0  0  0
 18 19  2  0  0  0  0
 18 20  1  0  0  0  0
 20 21  1  0  0  0  0
 20 22  1  0  0  0  0
 22 23  1  0  0  0  0
 22 24  1  0  0  0  0
 22 25  1  0  0  0  0
M  END
$$$$

  -OEChem-02102214113D

 25 24  0     1  0  0  0  0  0999 V2000
   -2.3955   -3.7616   -0.3077 H   0  0  0  0  0  0  0  0  0  0  0  0
   -2.4755   -2.6979   -0.5498 C   0  0  0  0  0  0  0  0  0  0  0  0
   -3.0483   -2.2006    0.2363 H   0  0  0  0  0  0  0  0  0  0  0  0
   -3.0038   -2.5926   -1.5004 H   0  0  0  0  0  0  0  0  0  0  0  0
   -1.0931   -2.0819   -0.6541 C   0  0  0  0  0  0  0  0  0  0  0  0
   -0.1053   -2.7761   -0.4916 O   0  0  0  0  0  0  0  0  0  0  0  0
   -0.9613   -0.7356   -0.9337 N   0  0  0  0  0  0  0  0  0  0  0  0
   -1.8192   -0.1903   -0.9215 H   0  0  0  0  0  0  0  0  0  0  0  0
    0.3165   -0.0078   -0.8252 C   0  0  1  0  0  0  0  0  0  0  0  0
    1.0498   -0.5159   -1.4631 H   0  0  0  0  0  0  0  0  0  0  0  0
    0.1720    1.4416   -1.3413 C   0  0  0  0  0  0  0  0  0  0  0  0
    1.0623    2.0102   -1.0554 H   0  0  0  0  0  0  0  0  0  0  0  0
    0.1462    1.4047   -2.4341 H   0  0  0  0  0  0  0  0  0  0  0  0
   -1.0624    2.2205   -0.8825 C   0  0  0  0  0  0  0  0  0  0  0  0
   -1.3226    3.2380   -1.4979 O   0  0  0  0  0  0  0  0  0  0  0  0
   -1.8166    1.7713    0.1544 O   0  0  0  0  0  0  0  0  0  0  0  0
   -2.5032    2.4484    0.2791 H   0  0  0  0  0  0  0  0  0  0  0  0
    0.9272   -0.0242    0.5956 C   0  0  0  0  0  0  0  0  0  0  0  0
    2.1421   -0.0519    0.7329 O   0  0  0  0  0  0  0  0  0  0  0  0
    0.1321    0.2147    1.7011 N   0  0  0  0  0  0  0  0  0  0  0  0
   -0.8416    0.4426    1.5152 H   0  0  0  0  0  0  0  0  0  0  0  0
    0.6613    0.3984    3.0464 C   0  0  0  0  0  0  0  0  0  0  0  0
    1.2768    1.3027    3.0956 H   0  0  0  0  0  0  0  0  0  0  0  0
   -0.1579    0.4943    3.7653 H   0  0  0  0  0  0  0  0  0  0  0  0
    1.2747   -0.4612    3.3372 H   0  0  0  0  0  0  0  0  0  0  0  0
  1  2  1  0  0  0  0
  2  3  1  0  0  0  0
  2  4  1  0  0  0  0
  2  5  1  0  0  0  0
  5  6  2  0  0  0  0
  5  7  1  0  0  0  0
  7  8  1  0  0  0  0
  7  9  1  0  0  0  0
  9 10  1  0  0  0  0
  9 11  1  0  0  0  0
  9 18  1  0  0  0  0
 11 12  1  0  0  0  0
 11 13  1  0  0  0  0
 11 14  1  0  0  0  0
 14 15  2  0  0  0  0
 14 16  1  0  0  0  0
 16 17  1  0  0  0  0
 18 19  2  0  0  0  0
 18 20  1  0  0  0  0
 20 21  1  0  0  0  0
 20 22  1  0  0  0  0
 22 23  1  0  0  0  0
 22 24  1  0  0  0  0
 22 25  1  0  0  0  0
M  END
$$$$

  -OEChem-02102214113D

 25 24  0     1  0  0  0  0  0999 V2000
   -2.4427   -3.7574   -0.3811 H   0  0  0  0  0  0  0  0  0  0  0  0
   -2.5101   -2.6901   -0.6109 C   0  0  0  0  0  0  0  0  0  0  0  0
   -3.1280   -2.2054    0.1486 H   0  0  0  0  0  0  0  0  0  0  0  0
   -2.9825   -2.5705   -1.5889 H   0  0  0  0  0  0  0  0  0  0  0  0
   -1.1247   -2.0721   -0.6257 C   0  0  0  0  0  0  0  0  0  0  0  0
   -0.1483   -2.7657   -0.4034 O   0  0  0  0  0  0  0  0  0  0  0  0
   -0.9762   -0.7263   -0.8998 N   0  0  0  0  0  0  0  0  0  0  0  0
   -1.8299   -0.1850   -0.9987 H   0  0  0  0  0  0  0  0  0  0  0  0
    0.3063   -0.0062   -0.7920 C   0  0  1  0  0  0  0  0  0  0  0  0
    1.0325   -0.5262   -1.4288 H   0  0  0  0  0  0  0  0  0  0  0  0
    0.1674    1.4329   -1.3354 C   0  0  0  0  0  0  0  0  0  0  0  0
    1.0521    2.0092   -1.0483 H   0  0  0  0  0  0  0  0  0  0  0  0
    0.1544    1.3796   -2.4279 H   0  0  0  0  0  0  0  0  0  0  0  0
   -1.0749    2.2060   -0.8909 C   0  0  0  0  0  0  0  0  0  0  0  0
   -1.5109    3.0384   -1.6649 O   0  0  0  0  0  0  0  0  0  0  0  0
   -1.6561    1.9329    0.3043 O   0  0  0  0  0  0  0  0  0  0  0  0
   -2.3805    2.5750    0.3901 H   0  0  0  0  0  0  0  0  0  0  0  0
    0.9362   -0.0199    0.6216 C   0  0  0  0  0  0  0  0  0  0  0  0
    2.1536   -0.0582    0.7364 O   0  0  0  0  0  0  0  0  0  0  0  0
    0.1661    0.2233    1.7434 N   0  0  0  0  0  0  0  0  0  0  0  0
   -0.7987    0.4959    1.5712 H   0  0  0  0  0  0  0  0  0  0  0  0
    0.7281    0.4142    3.0743 C   0  0  0  0  0  0  0  0  0  0  0  0
    1.3430    1.3197    3.1043 H   0  0  0  0  0  0  0  0  0  0  0  0
   -0.0733    0.5115    3.8129 H   0  0  0  0  0  0  0  0  0  0  0  0
    1.3498   -0.4432    3.3534 H   0  0  0  0  0  0  0  0  0  0  0  0
  1  2  1  0  0  0  0
  2  3  1  0  0  0  0
  2  4  1  0  0  0  0
  2  5  1  0  0  0  0
  5  6  2  0  0  0  0
  5  7  1  0  0  0  0
  7  8  1  0  0  0  0
  7  9  1  0  0  0  0
  9 10  1  0  0  0  0
  9 11  1  0  0  0  0
  9 18  1  0  0  0  0
 11 12  1  0  0  0  0
 11 13  1  0  0  0  0
 11 14  1  0  0  0  0
 14 15  2  0  0  0  0
 14 16  1  0  0  0  0
 16 17  1  0  0  0  0
 18 19  2  0  0  0  0
 18 20  1  0  0  0  0
 20 21  1  0  0  0  0
 20 22  1  0  0  0  0
 22 23  1  0  0  0  0
 22 24  1  0  0  0  0
 22 25  1  0  0  0  0
M  END
$$$$

  -OEChem-02102214113D

 25 24  0     1  0  0  0  0  0999 V2000
   -2.4907   -3.7599   -0.4756 H   0  0  0  0  0  0  0  0  0  0  0  0
   -2.5444   -2.6908   -0.7005 C   0  0  0  0  0  0  0  0  0  0  0  0
   -3.2435   -2.2200   -0.0053 H   0  0  0  0  0  0  0  0  0  0  0  0
   -2.9134   -2.5651   -1.7212 H   0  0  0  0  0  0  0  0  0  0  0  0
   -1.1715   -2.0604   -0.5627 C   0  0  0  0  0  0  0  0  0  0  0  0
   -0.2242   -2.7415   -0.2133 O   0  0  0  0  0  0  0  0  0  0  0  0
   -1.0011   -0.7195   -0.8489 N   0  0  0  0  0  0  0  0  0  0  0  0
   -1.8157   -0.2136   -1.1840 H   0  0  0  0  0  0  0  0  0  0  0  0
    0.2913   -0.0140   -0.7602 C   0  0  1  0  0  0  0  0  0  0  0  0
    1.0038   -0.5491   -1.3993 H   0  0  0  0  0  0  0  0  0  0  0  0
    0.1518    1.4157   -1.3257 C   0  0  0  0  0  0  0  0  0  0  0  0
    1.0373    1.9971   -1.0522 H   0  0  0  0  0  0  0  0  0  0  0  0
    0.1324    1.3500   -2.4176 H   0  0  0  0  0  0  0  0  0  0  0  0
   -1.0890    2.1839   -0.8710 C   0  0  0  0  0  0  0  0  0  0  0  0
   -1.7098    2.7900   -1.7254 O   0  0  0  0  0  0  0  0  0  0  0  0
   -1.4598    2.1554    0.4316 O   0  0  0  0  0  0  0  0  0  0  0  0
   -2.2220    2.7533    0.4997 H   0  0  0  0  0  0  0  0  0  0  0  0
    0.9450   -0.0165    0.6435 C   0  0  0  0  0  0  0  0  0  0  0  0
    2.1642   -0.0721    0.7332 O   0  0  0  0  0  0  0  0  0  0  0  0
    0.2027    0.2476    1.7787 N   0  0  0  0  0  0  0  0  0  0  0  0
   -0.7560    0.5485    1.6219 H   0  0  0  0  0  0  0  0  0  0  0  0
    0.7982    0.4515    3.0928 C   0  0  0  0  0  0  0  0  0  0  0  0
    1.4199    1.3527    3.0962 H   0  0  0  0  0  0  0  0  0  0  0  0
    0.0154    0.5646    3.8488 H   0  0  0  0  0  0  0  0  0  0  0  0
    1.4201   -0.4071    3.3680 H   0  0  0  0  0  0  0  0  0  0  0  0
  1  2  1  0  0  0  0
  2  3  1  0  0  0  0
  2  4  1  0  0  0  0
  2  5  1  0  0  0  0
  5  6  2  0  0  0  0
  5  7  1  0  0  0  0
  7  8  1  0  0  0  0
  7  9  1  0  0  0  0
  9 10  1  0  0  0  0
  9 11  1  0  0  0  0
  9 18  1  0  0  0  0
 11 12  1  0  0  0  0
 11 13  1  0  0  0  0
 11 14  1  0  0  0  0
 14 15  2  0  0  0  0
 14 16  1  0  0  0  0
 16 17  1  0  0  0  0
 18 19  2  0  0  0  0
 18 20  1  0  0  0  0
 20 21  1  0  0  0  0
 20 22  1  0  0  0  0
 22 23  1  0  0  0  0
 22 24  1  0  0  0  0
 22 25  1  0  0  0  0
M  END
$$$$

  -OEChem-02102214113D

 25 24  0     1  0  0  0  0  0999 V2000
   -2.5174   -3.7439   -0.4854 H   0  0  0  0  0  0  0  0  0  0  0  0
   -2.5568   -2.6803   -0.7374 C   0  0  0  0  0  0  0  0  0  0  0  0
   -3.2933   -2.1938   -0.0938 H   0  0  0  0  0  0  0  0  0  0  0  0
   -2.8678   -2.5779   -1.7797 H   0  0  0  0  0  0  0  0  0  0  0  0
   -1.1933   -2.0459   -0.5368 C   0  0  0  0  0  0  0  0  0  0  0  0
   -0.2650   -2.7210   -0.1294 O   0  0  0  0  0  0  0  0  0  0  0  0
   -1.0095   -0.7092   -0.8350 N   0  0  0  0  0  0  0  0  0  0  0  0
   -1.7921   -0.2278   -1.2706 H   0  0  0  0  0  0  0  0  0  0  0  0
    0.2906   -0.0160   -0.7538 C   0  0  1  0  0  0  0  0  0  0  0  0
    0.9976   -0.5583   -1.3928 H   0  0  0  0  0  0  0  0  0  0  0  0
    0.1489    1.4099   -1.3253 C   0  0  0  0  0  0  0  0  0  0  0  0
    1.0335    1.9964   -1.0595 H   0  0  0  0  0  0  0  0  0  0  0  0
    0.1196    1.3456   -2.4172 H   0  0  0  0  0  0  0  0  0  0  0  0
   -1.0934    2.1601   -0.8508 C   0  0  0  0  0  0  0  0  0  0  0  0
   -1.8870    2.5233   -1.7008 O   0  0  0  0  0  0  0  0  0  0  0  0
   -1.2678    2.3869    0.4722 O   0  0  0  0  0  0  0  0  0  0  0  0
   -2.0689    2.9299    0.5464 H   0  0  0  0  0  0  0  0  0  0  0  0
    0.9487   -0.0113    0.6478 C   0  0  0  0  0  0  0  0  0  0  0  0
    2.1675   -0.0814    0.7326 O   0  0  0  0  0  0  0  0  0  0  0  0
    0.2145    0.2708    1.7842 N   0  0  0  0  0  0  0  0  0  0  0  0
   -0.7440    0.5724    1.6341 H   0  0  0  0  0  0  0  0  0  0  0  0
    0.8188    0.4733    3.0944 C   0  0  0  0  0  0  0  0  0  0  0  0
    1.4842    1.3426    3.0793 H   0  0  0  0  0  0  0  0  0  0  0  0
    0.0424    0.6414    3.8466 H   0  0  0  0  0  0  0  0  0  0  0  0
    1.3976   -0.4087    3.3886 H   0  0  0  0  0  0  0  0  0  0  0  0
  1  2  1  0  0  0  0
  2  3  1  0  0  0  0
  2  4  1  0  0  0  0
  2  5  1  0  0  0  0
  5  6  2  0  0  0  0
  5  7  1  0  0  0  0
  7  8  1  0  0  0  0
  7  9  1  0  0  0  0
  9 10  1  0  0  0  0
  9 11  1  0  0  0  0
  9 18  1  0  0  0  0
 11 12  1  0  0  0  0
 11 13  1  0  0  0  0
 11 14  1  0  0  0  0
 14 15  2  0  0  0  0
 14 16  1  0  0  0  0
 16 17  1  0  0  0  0
 18 19  2  0  0  0  0
 18 20  1  0  0  0  0
 20 21  1  0  0  0  0
 20 22  1  0  0  0  0
 22 23  1  0  0  0  0
 22 24  1  0  0  0  0
 22 25  1  0  0  0  0
M  END
$$$$

  -OEChem-02102214113D

 25 24  0     1  0  0  0  0  0999 V2000
   -2.5433   -3.7194   -0.4611 H   0  0  0  0  0  0  0  0  0  0  0  0
   -2.5655   -2.6634   -0.7452 C   0  0  0  0  0  0  0  0  0  0  0  0
   -3.3127   -2.1509   -0.1349 H   0  0  0  0  0  0  0  0  0  0  0  0
   -2.8492   -2.5881   -1.7976 H   0  0  0  0  0  0  0  0  0  0  0  0
   -1.2009   -2.0365   -0.5302 C   0  0  0  0  0  0  0  0  0  0  0  0
   -0.2839   -2.7122   -0.0992 O   0  0  0  0  0  0  0  0  0  0  0  0
   -1.0039   -0.7047   -0.8393 N   0  0  0  0  0  0  0  0  0  0  0  0
   -1.7763   -0.2236   -1.2956 H   0  0  0  0  0  0  0  0  0  0  0  0
    0.3011   -0.0201   -0.7640 C   0  0  1  0  0  0  0  0  0  0  0  0
    1.0061   -0.5645   -1.4035 H   0  0  0  0  0  0  0  0  0  0  0  0
    0.1579    1.4076   -1.3281 C   0  0  0  0  0  0  0  0  0  0  0  0
    1.0442    1.9944   -1.0685 H   0  0  0  0  0  0  0  0  0  0  0  0
    0.1144    1.3536   -2.4199 H   0  0  0  0  0  0  0  0  0  0  0  0
   -1.0824    2.1403   -0.8273 C   0  0  0  0  0  0  0  0  0  0  0  0
   -2.0177    2.2605   -1.6001 O   0  0  0  0  0  0  0  0  0  0  0  0
   -1.0951    2.6176    0.4384 O   0  0  0  0  0  0  0  0  0  0  0  0
   -1.9309    3.0997    0.5384 H   0  0  0  0  0  0  0  0  0  0  0  0
    0.9541   -0.0105    0.6392 C   0  0  0  0  0  0  0  0  0  0  0  0
    2.1731   -0.0710    0.7281 O   0  0  0  0  0  0  0  0  0  0  0  0
    0.2144    0.2858    1.7689 N   0  0  0  0  0  0  0  0  0  0  0  0
   -0.7636    0.5160    1.6271 H   0  0  0  0  0  0  0  0  0  0  0  0
    0.8097    0.5007    3.0812 C   0  0  0  0  0  0  0  0  0  0  0  0
    1.4876    1.3603    3.0578 H   0  0  0  0  0  0  0  0  0  0  0  0
    0.0295    0.6933    3.8235 H   0  0  0  0  0  0  0  0  0  0  0  0
    1.3732   -0.3846    3.3945 H   0  0  0  0  0  0  0  0  0  0  0  0
  1  2  1  0  0  0  0
  2  3  1  0  0  0  0
  2  4  1  0  0  0  0
  2  5  1  0  0  0  0
  5  6  2  0  0  0  0
  5  7  1  0  0  0  0
  7  8  1  0  0  0  0
  7  9  1  0  0  0  0
  9 10  1  0  0  0  0
  9 11  1  0  0  0  0
  9 18  1  0  0  0  0
 11 12  1  0  0  0  0
 11 13  1  0  0  0  0
 11 14  1  0  0  0  0
 14 15  2  0  0  0  0
 14 16  1  0  0  0  0
 16 17  1  0  0  0  0
 18 19  2  0  0  0  0
 18 20  1  0  0  0  0
 20 21  1  0  0  0  0
 20 22  1  0  0  0  0
 22 23  1  0  0  0  0
 22 24  1  0  0  0  0
 22 25  1  0  0  0  0
M  END
$$$$

  -OEChem-02102214113D

 25 24  0     1  0  0  0  0  0999 V2000
   -2.5261   -3.7042   -0.4004 H   0  0  0  0  0  0  0  0  0  0  0  0
   -2.5513   -2.6526   -0.7000 C   0  0  0  0  0  0  0  0  0  0  0  0
   -3.2874   -2.1293   -0.0850 H   0  0  0  0  0  0  0  0  0  0  0  0
   -2.8530   -2.5930   -1.7486 H   0  0  0  0  0  0  0  0  0  0  0  0
   -1.1821   -2.0254   -0.5179 C   0  0  0  0  0  0  0  0  0  0  0  0
   -0.2610   -2.6937   -0.0840 O   0  0  0  0  0  0  0  0  0  0  0  0
   -0.9868   -0.6986   -0.8483 N   0  0  0  0  0  0  0  0  0  0  0  0
   -1.7730   -0.2105   -1.2758 H   0  0  0  0  0  0  0  0  0  0  0  0
    0.3142   -0.0049   -0.7903 C   0  0  1  0  0  0  0  0  0  0  0  0
    1.0218   -0.5493   -1.4266 H   0  0  0  0  0  0  0  0  0  0  0  0
    0.1661    1.4232   -1.3531 C   0  0  0  0  0  0  0  0  0  0  0  0
    1.0565    2.0102   -1.1068 H   0  0  0  0  0  0  0  0  0  0  0  0
    0.1047    1.3712   -2.4438 H   0  0  0  0  0  0  0  0  0  0  0  0
   -1.0684    2.1521   -0.8365 C   0  0  0  0  0  0  0  0  0  0  0  0
   -2.1054    2.0382   -1.4700 O   0  0  0  0  0  0  0  0  0  0  0  0
   -0.9586    2.8851    0.2948 O   0  0  0  0  0  0  0  0  0  0  0  0
   -1.8203    3.3059    0.4365 H   0  0  0  0  0  0  0  0  0  0  0  0
    0.9586    0.0227    0.6153 C   0  0  0  0  0  0  0  0  0  0  0  0
    2.1776   -0.0098    0.7143 O   0  0  0  0  0  0  0  0  0  0  0  0
    0.2024    0.3294    1.7316 N   0  0  0  0  0  0  0  0  0  0  0  0
   -0.8033    0.3761    1.6102 H   0  0  0  0  0  0  0  0  0  0  0  0
    0.7666    0.4774    3.0665 C   0  0  0  0  0  0  0  0  0  0  0  0
    1.5193    1.2726    3.0780 H   0  0  0  0  0  0  0  0  0  0  0  0
   -0.0185    0.7357    3.7831 H   0  0  0  0  0  0  0  0  0  0  0  0
    1.2367   -0.4579    3.3878 H   0  0  0  0  0  0  0  0  0  0  0  0
  1  2  1  0  0  0  0
  2  3  1  0  0  0  0
  2  4  1  0  0  0  0
  2  5  1  0  0  0  0
  5  6  2  0  0  0  0
  5  7  1  0  0  0  0
  7  8  1  0  0  0  0
  7  9  1  0  0  0  0
  9 10  1  0  0  0  0
  9 11  1  0  0  0  0
  9 18  1  0  0  0  0
 11 12  1  0  0  0  0
 11 13  1  0  0  0  0
 11 14  1  0  0  0  0
 14 15  2  0  0  0  0
 14 16  1  0  0  0  0
 16 17  1  0  0  0  0
 18 19  2  0  0  0  0
 18 20  1  0  0  0  0
 20 21  1  0  0  0  0
 20 22  1  0  0  0  0
 22 23  1  0  0  0  0
 22 24  1  0  0  0  0
 22 25  1  0  0  0  0
M  END
$$$$

  -OEChem-02102214113D

 25 24  0     1  0  0  0  0  0999 V2000
   -2.5044   -3.7107   -0.3669 H   0  0  0  0  0  0  0  0  0  0  0  0
   -2.5374   -2.6581   -0.6622 C   0  0  0  0  0  0  0  0  0  0  0  0
   -3.2566   -2.1362   -0.0267 H   0  0  0  0  0  0  0  0  0  0  0  0
   -2.8669   -2.5950   -1.7021 H   0  0  0  0  0  0  0  0  0  0  0  0
   -1.1635   -2.0316   -0.5154 C   0  0  0  0  0  0  0  0  0  0  0  0
   -0.2335   -2.6958   -0.0941 O   0  0  0  0  0  0  0  0  0  0  0  0
   -0.9752   -0.7072   -0.8577 N   0  0  0  0  0  0  0  0  0  0  0  0
   -1.7797   -0.2072   -1.2367 H   0  0  0  0  0  0  0  0  0  0  0  0
    0.3186   -0.0010   -0.8099 C   0  0  1  0  0  0  0  0  0  0  0  0
    1.0310   -0.5420   -1.4438 H   0  0  0  0  0  0  0  0  0  0  0  0
    0.1718    1.4332   -1.3641 C   0  0  0  0  0  0  0  0  0  0  0  0
    1.0701    2.0114   -1.1257 H   0  0  0  0  0  0  0  0  0  0  0  0
    0.1012    1.3847   -2.4540 H   0  0  0  0  0  0  0  0  0  0  0  0
   -1.0532    2.1811   -0.8477 C   0  0  0  0  0  0  0  0  0  0  0  0
   -2.1506    1.8811   -1.2931 O   0  0  0  0  0  0  0  0  0  0  0  0
   -0.8614    3.1392    0.0874 O   0  0  0  0  0  0  0  0  0  0  0  0
   -1.7313    3.5220    0.2769 H   0  0  0  0  0  0  0  0  0  0  0  0
    0.9533    0.0383    0.5990 C   0  0  0  0  0  0  0  0  0  0  0  0
    2.1717    0.0295    0.7095 O   0  0  0  0  0  0  0  0  0  0  0  0
    0.1788    0.3458    1.7029 N   0  0  0  0  0  0  0  0  0  0  0  0
   -0.8270    0.2964    1.5814 H   0  0  0  0  0  0  0  0  0  0  0  0
    0.7232    0.4637    3.0493 C   0  0  0  0  0  0  0  0  0  0  0  0
    1.4910    1.2438    3.0851 H   0  0  0  0  0  0  0  0  0  0  0  0
   -0.0691    0.7281    3.7560 H   0  0  0  0  0  0  0  0  0  0  0  0
    1.1692   -0.4853    3.3653 H   0  0  0  0  0  0  0  0  0  0  0  0
  1  2  1  0  0  0  0
  2  3  1  0  0  0  0
  2  4  1  0  0  0  0
  2  5  1  0  0  0  0
  5  6  2  0  0  0  0
  5  7  1  0  0  0  0
  7  8  1  0  0  0  0
  7  9  1  0  0  0  0
  9 10  1  0  0  0  0
  9 11  1  0  0  0  0
  9 18  1  0  0  0  0
 11 12  1  0  0  0  0
 11 13  1  0  0  0  0
 11 14  1  0  0  0  0
 14 15  2  0  0  0  0
 14 16  1  0  0  0  0
 16 17  1  0  0  0  0
 18 19  2  0  0  0  0
 18 20  1  0  0  0  0
 20 21  1  0  0  0  0
 20 22  1  0  0  0  0
 22 23  1  0  0  0  0
 22 24  1  0  0  0  0
 22 25  1  0  0  0  0
M  END
$$$$

  -OEChem-02102214113D

 25 24  0     1  0  0  0  0  0999 V2000
   -2.4695   -3.7275   -0.3159 H   0  0  0  0  0  0  0  0  0  0  0  0
   -2.5158   -2.6768   -0.6160 C   0  0  0  0  0  0  0  0  0  0  0  0
   -3.2064   -2.1511    0.0476 H   0  0  0  0  0  0  0  0  0  0  0  0
   -2.8908   -2.6199   -1.6407 H   0  0  0  0  0  0  0  0  0  0  0  0
   -1.1372   -2.0493   -0.5339 C   0  0  0  0  0  0  0  0  0  0  0  0
   -0.1863   -2.7148   -0.1641 O   0  0  0  0  0  0  0  0  0  0  0  0
   -0.9666   -0.7223   -0.8748 N   0  0  0  0  0  0  0  0  0  0  0  0
   -1.7965   -0.2061   -1.1684 H   0  0  0  0  0  0  0  0  0  0  0  0
    0.3161    0.0025   -0.8274 C   0  0  1  0  0  0  0  0  0  0  0  0
    1.0361   -0.5296   -1.4604 H   0  0  0  0  0  0  0  0  0  0  0  0
    0.1722    1.4456   -1.3669 C   0  0  0  0  0  0  0  0  0  0  0  0
    1.0782    2.0109   -1.1253 H   0  0  0  0  0  0  0  0  0  0  0  0
    0.1041    1.4034   -2.4569 H   0  0  0  0  0  0  0  0  0  0  0  0
   -1.0432    2.2240   -0.8647 C   0  0  0  0  0  0  0  0  0  0  0  0
   -2.1657    1.7948   -1.0878 O   0  0  0  0  0  0  0  0  0  0  0  0
   -0.8051    3.3695   -0.1863 O   0  0  0  0  0  0  0  0  0  0  0  0
   -1.6694    3.7414    0.0454 H   0  0  0  0  0  0  0  0  0  0  0  0
    0.9390    0.0423    0.5860 C   0  0  0  0  0  0  0  0  0  0  0  0
    2.1561    0.0518    0.7089 O   0  0  0  0  0  0  0  0  0  0  0  0
    0.1482    0.3346    1.6828 N   0  0  0  0  0  0  0  0  0  0  0  0
   -0.8554    0.2632    1.5507 H   0  0  0  0  0  0  0  0  0  0  0  0
    0.6768    0.4405    3.0368 C   0  0  0  0  0  0  0  0  0  0  0  0
    1.4412    1.2231    3.0899 H   0  0  0  0  0  0  0  0  0  0  0  0
   -0.1244    0.6944    3.7372 H   0  0  0  0  0  0  0  0  0  0  0  0
    1.1233   -0.5098    3.3483 H   0  0  0  0  0  0  0  0  0  0  0  0
  1  2  1  0  0  0  0
  2  3  1  0  0  0  0
  2  4  1  0  0  0  0
  2  5  1  0  0  0  0
  5  6  2  0  0  0  0
  5  7  1  0  0  0  0
  7  8  1  0  0  0  0
  7  9  1  0  0  0  0
  9 10  1  0  0  0  0
  9 11  1  0  0  0  0
  9 18  1  0  0  0  0
 11 12  1  0  0  0  0
 11 13  1  0  0  0  0
 11 14  1  0  0  0  0
 14 15  2  0  0  0  0
 14 16  1  0  0  0  0
 16 17  1  0  0  0  0
 18 19  2  0  0  0  0
 18 20  1  0  0  0  0
 20 21  1  0  0  0  0
 20 22  1  0  0  0  0
 22 23  1  0  0  0  0
 22 24  1  0  0  0  0
 22 25  1  0  0  0  0
M  END
$$$$

  -OEChem-02102214113D

 25 24  0     1  0  0  0  0  0999 V2000
   -2.4336   -3.7466   -0.2828 H   0  0  0  0  0  0  0  0  0  0  0  0
   -2.4944   -2.6955   -0.5792 C   0  0  0  0  0  0  0  0  0  0  0  0
   -3.1593   -2.1724    0.1122 H   0  0  0  0  0  0  0  0  0  0  0  0
   -2.9102   -2.6379   -1.5880 H   0  0  0  0  0  0  0  0  0  0  0  0
   -1.1151   -2.0648   -0.5519 C   0  0  0  0  0  0  0  0  0  0  0  0
   -0.1466   -2.7312   -0.2327 O   0  0  0  0  0  0  0  0  0  0  0  0
   -0.9633   -0.7347   -0.8890 N   0  0  0  0  0  0  0  0  0  0  0  0
   -1.8122   -0.2086   -1.0981 H   0  0  0  0  0  0  0  0  0  0  0  0
    0.3101    0.0057   -0.8390 C   0  0  1  0  0  0  0  0  0  0  0  0
    1.0366   -0.5181   -1.4713 H   0  0  0  0  0  0  0  0  0  0  0  0
    0.1664    1.4553   -1.3667 C   0  0  0  0  0  0  0  0  0  0  0  0
    1.0767    2.0115   -1.1196 H   0  0  0  0  0  0  0  0  0  0  0  0
    0.1047    1.4165   -2.4570 H   0  0  0  0  0  0  0  0  0  0  0  0
   -1.0415    2.2602   -0.8798 C   0  0  0  0  0  0  0  0  0  0  0  0
   -2.1529    1.7522   -0.8539 O   0  0  0  0  0  0  0  0  0  0  0  0
   -0.8015    3.5373   -0.5045 O   0  0  0  0  0  0  0  0  0  0  0  0
   -1.6529    3.9118   -0.2322 H   0  0  0  0  0  0  0  0  0  0  0  0
    0.9252    0.0444    0.5776 C   0  0  0  0  0  0  0  0  0  0  0  0
    2.1411    0.0670    0.7089 O   0  0  0  0  0  0  0  0  0  0  0  0
    0.1243    0.3218    1.6711 N   0  0  0  0  0  0  0  0  0  0  0  0
   -0.8786    0.2528    1.5300 H   0  0  0  0  0  0  0  0  0  0  0  0
    0.6429    0.4181    3.0297 C   0  0  0  0  0  0  0  0  0  0  0  0
    1.3955    1.2109    3.0978 H   0  0  0  0  0  0  0  0  0  0  0  0
   -0.1659    0.6508    3.7288 H   0  0  0  0  0  0  0  0  0  0  0  0
    1.1014   -0.5297    3.3312 H   0  0  0  0  0  0  0  0  0  0  0  0
  1  2  1  0  0  0  0
  2  3  1  0  0  0  0
  2  4  1  0  0  0  0
  2  5  1  0  0  0  0
  5  6  2  0  0  0  0
  5  7  1  0  0  0  0
  7  8  1  0  0  0  0
  7  9  1  0  0  0  0
  9 10  1  0  0  0  0
  9 11  1  0  0  0  0
  9 18  1  0  0  0  0
 11 12  1  0  0  0  0
 11 13  1  0  0  0  0
 11 14  1  0  0  0  0
 14 15  2  0  0  0  0
 14 16  1  0  0  0  0
 16 17  1  0  0  0  0
 18 19  2  0  0  0  0
 18 20  1  0  0  0  0
 20 21  1  0  0  0  0
 20 22  1  0  0  0  0
 22 23  1  0  0  0  0
 22 24  1  0  0  0  0
 22 25  1  0  0  0  0
M  END
$$$$

  -OEChem-02102214113D

 25 24  0     1  0  0  0  0  0999 V2000
   -2.4043   -3.7547   -0.2496 H   0  0  0  0  0  0  0  0  0  0  0  0
   -2.4769   -2.7032   -0.5411 C   0  0  0  0  0  0  0  0  0  0  0  0
   -3.1049   -2.1795    0.1834 H   0  0  0  0  0  0  0  0  0  0  0  0
   -2.9421   -2.6431   -1.5280 H   0  0  0  0  0  0  0  0  0  0  0  0
   -1.0962   -2.0762   -0.5815 C   0  0  0  0  0  0  0  0  0  0  0  0
   -0.1141   -2.7488   -0.3219 O   0  0  0  0  0  0  0  0  0  0  0  0
   -0.9580   -0.7428   -0.9120 N   0  0  0  0  0  0  0  0  0  0  0  0
   -1.8175   -0.2069   -1.0323 H   0  0  0  0  0  0  0  0  0  0  0  0
    0.3118    0.0040   -0.8546 C   0  0  1  0  0  0  0  0  0  0  0  0
    1.0436   -0.5103   -1.4884 H   0  0  0  0  0  0  0  0  0  0  0  0
    0.1649    1.4607   -1.3658 C   0  0  0  0  0  0  0  0  0  0  0  0
    1.0760    2.0129   -1.1128 H   0  0  0  0  0  0  0  0  0  0  0  0
    0.1053    1.4300   -2.4566 H   0  0  0  0  0  0  0  0  0  0  0  0
   -1.0384    2.2766   -0.8814 C   0  0  0  0  0  0  0  0  0  0  0  0
   -2.0951    1.7314   -0.5981 O   0  0  0  0  0  0  0  0  0  0  0  0
   -0.8552    3.6149   -0.8108 O   0  0  0  0  0  0  0  0  0  0  0  0
   -1.6901    3.9935   -0.4956 H   0  0  0  0  0  0  0  0  0  0  0  0
    0.9173    0.0333    0.5665 C   0  0  0  0  0  0  0  0  0  0  0  0
    2.1318    0.0525    0.7102 O   0  0  0  0  0  0  0  0  0  0  0  0
    0.1061    0.2989    1.6551 N   0  0  0  0  0  0  0  0  0  0  0  0
   -0.8966    0.2796    1.4955 H   0  0  0  0  0  0  0  0  0  0  0  0
    0.6081    0.4087    3.0187 C   0  0  0  0  0  0  0  0  0  0  0  0
    1.3287    1.2297    3.0967 H   0  0  0  0  0  0  0  0  0  0  0  0
   -0.2159    0.6057    3.7109 H   0  0  0  0  0  0  0  0  0  0  0  0
    1.1000   -0.5221    3.3206 H   0  0  0  0  0  0  0  0  0  0  0  0
  1  2  1  0  0  0  0
  2  3  1  0  0  0  0
  2  4  1  0  0  0  0
  2  5  1  0  0  0  0
  5  6  2  0  0  0  0
  5  7  1  0  0  0  0
  7  8  1  0  0  0  0
  7  9  1  0  0  0  0
  9 10  1  0  0  0  0
  9 11  1  0  0  0  0
  9 18  1  0  0  0  0
 11 12  1  0  0  0  0
 11 13  1  0  0  0  0
 11 14  1  0  0  0  0
 14 15  2  0  0  0  0
 14 16  1  0  0  0  0
 16 17  1  0  0  0  0
 18 19  2  0  0  0  0
 18 20  1  0  0  0  0
 20 21  1  0  0  0  0
 20 22  1  0  0  0  0
 22 23  1  0  0  0  0
 22 24  1  0  0  0  0
 22 25  1  0  0  0  0
M  END
$$$$

  -OEChem-02102214113D

 25 24  0     1  0  0  0  0  0999 V2000
   -2.3876   -3.7520   -0.2284 H   0  0  0  0  0  0  0  0  0  0  0  0
   -2.4662   -2.6987   -0.5124 C   0  0  0  0  0  0  0  0  0  0  0  0
   -3.0533   -2.1729    0.2442 H   0  0  0  0  0  0  0  0  0  0  0  0
   -2.9790   -2.6306   -1.4748 H   0  0  0  0  0  0  0  0  0  0  0  0
   -1.0843   -2.0824   -0.6185 C   0  0  0  0  0  0  0  0  0  0  0  0
   -0.0953   -2.7655   -0.4191 O   0  0  0  0  0  0  0  0  0  0  0  0
   -0.9541   -0.7458   -0.9393 N   0  0  0  0  0  0  0  0  0  0  0  0
   -1.8154   -0.2020   -0.9734 H   0  0  0  0  0  0  0  0  0  0  0  0
    0.3167   -0.0020   -0.8659 C   0  0  1  0  0  0  0  0  0  0  0  0
    1.0527   -0.5092   -1.5006 H   0  0  0  0  0  0  0  0  0  0  0  0
    0.1686    1.4582   -1.3640 C   0  0  0  0  0  0  0  0  0  0  0  0
    1.0761    2.0113   -1.1012 H   0  0  0  0  0  0  0  0  0  0  0  0
    0.1150    1.4349   -2.4552 H   0  0  0  0  0  0  0  0  0  0  0  0
   -1.0380    2.2701   -0.8805 C   0  0  0  0  0  0  0  0  0  0  0  0
   -1.9974    1.7258   -0.3526 O   0  0  0  0  0  0  0  0  0  0  0  0
   -0.9692    3.6040   -1.0919 O   0  0  0  0  0  0  0  0  0  0  0  0
   -1.7870    3.9844   -0.7367 H   0  0  0  0  0  0  0  0  0  0  0  0
    0.9109    0.0137    0.5601 C   0  0  0  0  0  0  0  0  0  0  0  0
    2.1240    0.0168    0.7153 O   0  0  0  0  0  0  0  0  0  0  0  0
    0.0920    0.2719    1.6447 N   0  0  0  0  0  0  0  0  0  0  0  0
   -0.9049    0.3502    1.4629 H   0  0  0  0  0  0  0  0  0  0  0  0
    0.5841    0.4113    3.0090 C   0  0  0  0  0  0  0  0  0  0  0  0
    1.2639    1.2662    3.0860 H   0  0  0  0  0  0  0  0  0  0  0  0
   -0.2510    0.5695    3.6980 H   0  0  0  0  0  0  0  0  0  0  0  0
    1.1193   -0.4935    3.3161 H   0  0  0  0  0  0  0  0  0  0  0  0
  1  2  1  0  0  0  0
  2  3  1  0  0  0  0
  2  4  1  0  0  0  0
  2  5  1  0  0  0  0
  5  6  2  0  0  0  0
  5  7  1  0  0  0  0
  7  8  1  0  0  0  0
  7  9  1  0  0  0  0
  9 10  1  0  0  0  0
  9 11  1  0  0  0  0
  9 18  1  0  0  0  0
 11 12  1  0  0  0  0
 11 13  1  0  0  0  0
 11 14  1  0  0  0  0
 14 15  2  0  0  0  0
 14 16  1  0  0  0  0
 16 17  1  0  0  0  0
 18 19  2  0  0  0  0
 18 20  1  0  0  0  0
 20 21  1  0  0  0  0
 20 22  1  0  0  0  0
 22 23  1  0  0  0  0
 22 24  1  0  0  0  0
 22 25  1  0  0  0  0
M  END
$$$$

  -OEChem-02102214113D

 25 24  0     1  0  0  0  0  0999 V2000
   -2.3908   -3.7525   -0.2567 H   0  0  0  0  0  0  0  0  0  0  0  0
   -2.4706   -2.6935   -0.5185 C   0  0  0  0  0  0  0  0  0  0  0  0
   -3.0337   -2.1793    0.2639 H   0  0  0  0  0  0  0  0  0  0  0  0
   -3.0087   -2.6044   -1.4651 H   0  0  0  0  0  0  0  0  0  0  0  0
   -1.0881   -2.0832   -0.6498 C   0  0  0  0  0  0  0  0  0  0  0  0
   -0.0989   -2.7766   -0.4905 O   0  0  0  0  0  0  0  0  0  0  0  0
   -0.9578   -0.7424   -0.9534 N   0  0  0  0  0  0  0  0  0  0  0  0
   -1.8161   -0.1946   -0.9318 H   0  0  0  0  0  0  0  0  0  0  0  0
    0.3170   -0.0072   -0.8566 C   0  0  1  0  0  0  0  0  0  0  0  0
    1.0557   -0.5132   -1.4895 H   0  0  0  0  0  0  0  0  0  0  0  0
    0.1716    1.4509   -1.3580 C   0  0  0  0  0  0  0  0  0  0  0  0
    1.0708    2.0112   -1.0834 H   0  0  0  0  0  0  0  0  0  0  0  0
    0.1320    1.4250   -2.4500 H   0  0  0  0  0  0  0  0  0  0  0  0
   -1.0476    2.2504   -0.8890 C   0  0  0  0  0  0  0  0  0  0  0  0
   -1.8780    1.7512   -0.1422 O   0  0  0  0  0  0  0  0  0  0  0  0
   -1.1396    3.5152   -1.3587 O   0  0  0  0  0  0  0  0  0  0  0  0
   -1.9433    3.8971   -0.9741 H   0  0  0  0  0  0  0  0  0  0  0  0
    0.9080   -0.0069    0.5716 C   0  0  0  0  0  0  0  0  0  0  0  0
    2.1210   -0.0238    0.7282 O   0  0  0  0  0  0  0  0  0  0  0  0
    0.0915    0.2448    1.6593 N   0  0  0  0  0  0  0  0  0  0  0  0
   -0.8896    0.4283    1.4628 H   0  0  0  0  0  0  0  0  0  0  0  0
    0.5928    0.4268    3.0151 C   0  0  0  0  0  0  0  0  0  0  0  0
    1.2417    1.3072    3.0690 H   0  0  0  0  0  0  0  0  0  0  0  0
   -0.2401    0.5655    3.7110 H   0  0  0  0  0  0  0  0  0  0  0  0
    1.1642   -0.4522    3.3324 H   0  0  0  0  0  0  0  0  0  0  0  0
  1  2  1  0  0  0  0
  2  3  1  0  0  0  0
  2  4  1  0  0  0  0
  2  5  1  0  0  0  0
  5  6  2  0  0  0  0
  5  7  1  0  0  0  0
  7  8  1  0  0  0  0
  7  9  1  0  0  0  0
  9 10  1  0  0  0  0
  9 11  1  0  0  0  0
  9 18  1  0  0  0  0
 11 12  1  0  0  0  0
 11 13  1  0  0  0  0
 11 14  1  0  0  0  0
 14 15  2  0  0  0  0
 14 16  1  0  0  0  0
 16 17  1  0  0  0  0
 18 19  2  0  0  0  0
 18 20  1  0  0  0  0
 20 21  1  0  0  0  0
 20 22  1  0  0  0  0
 22 23  1  0  0  0  0
 22 24  1  0  0  0  0
 22 25  1  0  0  0  0
M  END
$$$$

  -OEChem-02102214113D

 25 24  0     1  0  0  0  0  0999 V2000
   -2.3991   -3.7483   -0.2877 H   0  0  0  0  0  0  0  0  0  0  0  0
   -2.4798   -2.6860   -0.5353 C   0  0  0  0  0  0  0  0  0  0  0  0
   -3.0362   -2.1810    0.2579 H   0  0  0  0  0  0  0  0  0  0  0  0
   -3.0253   -2.5848   -1.4764 H   0  0  0  0  0  0  0  0  0  0  0  0
   -1.0975   -2.0760   -0.6690 C   0  0  0  0  0  0  0  0  0  0  0  0
   -0.1088   -2.7741   -0.5290 O   0  0  0  0  0  0  0  0  0  0  0  0
   -0.9670   -0.7312   -0.9553 N   0  0  0  0  0  0  0  0  0  0  0  0
   -1.8241   -0.1848   -0.9121 H   0  0  0  0  0  0  0  0  0  0  0  0
    0.3104   -0.0034   -0.8357 C   0  0  1  0  0  0  0  0  0  0  0  0
    1.0507   -0.5138   -1.4635 H   0  0  0  0  0  0  0  0  0  0  0  0
    0.1721    1.4460   -1.3580 C   0  0  0  0  0  0  0  0  0  0  0  0
    1.0604    2.0176   -1.0727 H   0  0  0  0  0  0  0  0  0  0  0  0
    0.1535    1.4060   -2.4504 H   0  0  0  0  0  0  0  0  0  0  0  0
   -1.0657    2.2291   -0.9160 C   0  0  0  0  0  0  0  0  0  0  0  0
   -1.7509    1.8337    0.0167 O   0  0  0  0  0  0  0  0  0  0  0  0
   -1.3378    3.3569   -1.6111 O   0  0  0  0  0  0  0  0  0  0  0  0
   -2.1255    3.7508   -1.2057 H   0  0  0  0  0  0  0  0  0  0  0  0
    0.9043   -0.0129    0.5926 C   0  0  0  0  0  0  0  0  0  0  0  0
    2.1178   -0.0479    0.7420 O   0  0  0  0  0  0  0  0  0  0  0  0
    0.0987    0.2323    1.6898 N   0  0  0  0  0  0  0  0  0  0  0  0
   -0.8665    0.4888    1.4930 H   0  0  0  0  0  0  0  0  0  0  0  0
    0.6206    0.4288    3.0362 C   0  0  0  0  0  0  0  0  0  0  0  0
    1.2442    1.3279    3.0784 H   0  0  0  0  0  0  0  0  0  0  0  0
   -0.2026    0.5417    3.7478 H   0  0  0  0  0  0  0  0  0  0  0  0
    1.2234   -0.4329    3.3424 H   0  0  0  0  0  0  0  0  0  0  0  0
  1  2  1  0  0  0  0
  2  3  1  0  0  0  0
  2  4  1  0  0  0  0
  2  5  1  0  0  0  0
  5  6  2  0  0  0  0
  5  7  1  0  0  0  0
  7  8  1  0  0  0  0
  7  9  1  0  0  0  0
  9 10  1  0  0  0  0
  9 11  1  0  0  0  0
  9 18  1  0  0  0  0
 11 12  1  0  0  0  0
 11 13  1  0  0  0  0
 11 14  1  0  0  0  0
 14 15  2  0  0  0  0
 14 16  1  0  0  0  0
 16 17  1  0  0  0  0
 18 19  2  0  0  0  0
 18 20  1  0  0  0  0
 20 21  1  0  0  0  0
 20 22  1  0  0  0  0
 22 23  1  0  0  0  0
 22 24  1  0  0  0  0
 22 25  1  0  0  0  0
M  END
$$$$

  -OEChem-02102214113D

 25 24  0     1  0  0  0  0  0999 V2000
   -2.4143   -3.7427   -0.3096 H   0  0  0  0  0  0  0  0  0  0  0  0
   -2.4920   -2.6814   -0.5628 C   0  0  0  0  0  0  0  0  0  0  0  0
   -3.0666   -2.1756    0.2167 H   0  0  0  0  0  0  0  0  0  0  0  0
   -3.0168   -2.5847   -1.5162 H   0  0  0  0  0  0  0  0  0  0  0  0
   -1.1084   -2.0681   -0.6681 C   0  0  0  0  0  0  0  0  0  0  0  0
   -0.1217   -2.7663   -0.5156 O   0  0  0  0  0  0  0  0  0  0  0  0
   -0.9741   -0.7211   -0.9442 N   0  0  0  0  0  0  0  0  0  0  0  0
   -1.8324   -0.1771   -0.9279 H   0  0  0  0  0  0  0  0  0  0  0  0
    0.3044    0.0029   -0.8146 C   0  0  1  0  0  0  0  0  0  0  0  0
    1.0439   -0.5131   -1.4390 H   0  0  0  0  0  0  0  0  0  0  0  0
    0.1677    1.4431   -1.3590 C   0  0  0  0  0  0  0  0  0  0  0  0
    1.0467    2.0267   -1.0691 H   0  0  0  0  0  0  0  0  0  0  0  0
    0.1628    1.3897   -2.4511 H   0  0  0  0  0  0  0  0  0  0  0  0
   -1.0851    2.2084   -0.9336 C   0  0  0  0  0  0  0  0  0  0  0  0
   -1.6102    1.9736    0.1442 O   0  0  0  0  0  0  0  0  0  0  0  0
   -1.5542    3.1323   -1.8029 O   0  0  0  0  0  0  0  0  0  0  0  0
   -2.3201    3.5493   -1.3792 H   0  0  0  0  0  0  0  0  0  0  0  0
    0.9065   -0.0094    0.6113 C   0  0  0  0  0  0  0  0  0  0  0  0
    2.1207   -0.0634    0.7508 O   0  0  0  0  0  0  0  0  0  0  0  0
    0.1137    0.2326    1.7182 N   0  0  0  0  0  0  0  0  0  0  0  0
   -0.8381    0.5387    1.5265 H   0  0  0  0  0  0  0  0  0  0  0  0
    0.6551    0.4288    3.0568 C   0  0  0  0  0  0  0  0  0  0  0  0
    1.2962    1.3159    3.0854 H   0  0  0  0  0  0  0  0  0  0  0  0
   -0.1576    0.5631    3.7770 H   0  0  0  0  0  0  0  0  0  0  0  0
    1.2448   -0.4420    3.3621 H   0  0  0  0  0  0  0  0  0  0  0  0
  1  2  1  0  0  0  0
  2  3  1  0  0  0  0
  2  4  1  0  0  0  0
  2  5  1  0  0  0  0
  5  6  2  0  0  0  0
  5  7  1  0  0  0  0
  7  8  1  0  0  0  0
  7  9  1  0  0  0  0
  9 10  1  0  0  0  0
  9 11  1  0  0  0  0
  9 18  1  0  0  0  0
 11 12  1  0  0  0  0
 11 13  1  0  0  0  0
 11 14  1  0  0  0  0
 14 15  2  0  0  0  0
 14 16  1  0  0  0  0
 16 17  1  0  0  0  0
 18 19  2  0  0  0  0
 18 20  1  0  0  0  0
 20 21  1  0  0  0  0
 20 22  1  0  0  0  0
 22 23  1  0  0  0  0
 22 24  1  0  0  0  0
 22 25  1  0  0  0  0
M  END
$$$$

  -OEChem-02102214113D

 25 24  0     1  0  0  0  0  0999 V2000
   -2.4494   -3.7409   -0.3617 H   0  0  0  0  0  0  0  0  0  0  0  0
   -2.5145   -2.6779   -0.6108 C   0  0  0  0  0  0  0  0  0  0  0  0
   -3.1289   -2.1778    0.1416 H   0  0  0  0  0  0  0  0  0  0  0  0
   -2.9893   -2.5743   -1.5893 H   0  0  0  0  0  0  0  0  0  0  0  0
   -1.1275   -2.0641   -0.6395 C   0  0  0  0  0  0  0  0  0  0  0  0
   -0.1507   -2.7604   -0.4275 O   0  0  0  0  0  0  0  0  0  0  0  0
   -0.9792   -0.7194   -0.9187 N   0  0  0  0  0  0  0  0  0  0  0  0
   -1.8343   -0.1796   -1.0116 H   0  0  0  0  0  0  0  0  0  0  0  0
    0.3019    0.0010   -0.7951 C   0  0  1  0  0  0  0  0  0  0  0  0
    1.0372   -0.5225   -1.4182 H   0  0  0  0  0  0  0  0  0  0  0  0
    0.1640    1.4336   -1.3556 C   0  0  0  0  0  0  0  0  0  0  0  0
    1.0391    2.0249   -1.0703 H   0  0  0  0  0  0  0  0  0  0  0  0
    0.1598    1.3709   -2.4473 H   0  0  0  0  0  0  0  0  0  0  0  0
   -1.0946    2.1854   -0.9277 C   0  0  0  0  0  0  0  0  0  0  0  0
   -1.4495    2.1568    0.2393 O   0  0  0  0  0  0  0  0  0  0  0  0
   -1.7738    2.8436   -1.8948 O   0  0  0  0  0  0  0  0  0  0  0  0
   -2.5125    3.2933   -1.4560 H   0  0  0  0  0  0  0  0  0  0  0  0
    0.9141   -0.0038    0.6270 C   0  0  0  0  0  0  0  0  0  0  0  0
    2.1293   -0.0684    0.7545 O   0  0  0  0  0  0  0  0  0  0  0  0
    0.1345    0.2458    1.7415 N   0  0  0  0  0  0  0  0  0  0  0  0
   -0.8086    0.5805    1.5567 H   0  0  0  0  0  0  0  0  0  0  0  0
    0.6955    0.4475    3.0713 C   0  0  0  0  0  0  0  0  0  0  0  0
    1.3358    1.3356    3.0869 H   0  0  0  0  0  0  0  0  0  0  0  0
   -0.1067    0.5833    3.8029 H   0  0  0  0  0  0  0  0  0  0  0  0
    1.2908   -0.4216    3.3708 H   0  0  0  0  0  0  0  0  0  0  0  0
  1  2  1  0  0  0  0
  2  3  1  0  0  0  0
  2  4  1  0  0  0  0
  2  5  1  0  0  0  0
  5  6  2  0  0  0  0
  5  7  1  0  0  0  0
  7  8  1  0  0  0  0
  7  9  1  0  0  0  0
  9 10  1  0  0  0  0
  9 11  1  0  0  0  0
  9 18  1  0  0  0  0
 11 12  1  0  0  0  0
 11 13  1  0  0  0  0
 11 14  1  0  0  0  0
 14 15  2  0  0  0  0
 14 16  1  0  0  0  0
 16 17  1  0  0  0  0
 18 19  2  0  0  0  0
 18 20  1  0  0  0  0
 20 21  1  0  0  0  0
 20 22  1  0  0  0  0
 22 23  1  0  0  0  0
 22 24  1  0  0  0  0
 22 25  1  0  0  0  0
M  END
$$$$

  -OEChem-02102214113D

 25 24  0     1  0  0  0  0  0999 V2000
   -2.5005   -3.7489   -0.4657 H   0  0  0  0  0  0  0  0  0  0  0  0
   -2.5480   -2.6825   -0.7037 C   0  0  0  0  0  0  0  0  0  0  0  0
   -3.2476   -2.2000   -0.0169 H   0  0  0  0  0  0  0  0  0  0  0  0
   -2.9119   -2.5670   -1.7275 H   0  0  0  0  0  0  0  0  0  0  0  0
   -1.1728   -2.0567   -0.5677 C   0  0  0  0  0  0  0  0  0  0  0  0
   -0.2289   -2.7396   -0.2128 O   0  0  0  0  0  0  0  0  0  0  0  0
   -0.9949   -0.7204   -0.8704 N   0  0  0  0  0  0  0  0  0  0  0  0
   -1.8045   -0.2162   -1.2202 H   0  0  0  0  0  0  0  0  0  0  0  0
    0.2982   -0.0164   -0.7740 C   0  0  1  0  0  0  0  0  0  0  0  0
    1.0203   -0.5532   -1.4009 H   0  0  0  0  0  0  0  0  0  0  0  0
    0.1566    1.4112   -1.3433 C   0  0  0  0  0  0  0  0  0  0  0  0
    1.0385    2.0020   -1.0774 H   0  0  0  0  0  0  0  0  0  0  0  0
    0.1296    1.3469   -2.4346 H   0  0  0  0  0  0  0  0  0  0  0  0
   -1.0935    2.1564   -0.8833 C   0  0  0  0  0  0  0  0  0  0  0  0
   -1.2675    2.3617    0.3054 O   0  0  0  0  0  0  0  0  0  0  0  0
   -1.9862    2.5085   -1.8370 O   0  0  0  0  0  0  0  0  0  0  0  0
   -2.6903    2.9982   -1.3834 H   0  0  0  0  0  0  0  0  0  0  0  0
    0.9282   -0.0034    0.6406 C   0  0  0  0  0  0  0  0  0  0  0  0
    2.1450   -0.0766    0.7503 O   0  0  0  0  0  0  0  0  0  0  0  0
    0.1676    0.2777    1.7607 N   0  0  0  0  0  0  0  0  0  0  0  0
   -0.7769    0.6115    1.5846 H   0  0  0  0  0  0  0  0  0  0  0  0
    0.7511    0.5065    3.0760 C   0  0  0  0  0  0  0  0  0  0  0  0
    1.3811    1.4020    3.0644 H   0  0  0  0  0  0  0  0  0  0  0  0
   -0.0385    0.6444    3.8206 H   0  0  0  0  0  0  0  0  0  0  0  0
    1.3623   -0.3507    3.3781 H   0  0  0  0  0  0  0  0  0  0  0  0
  1  2  1  0  0  0  0
  2  3  1  0  0  0  0
  2  4  1  0  0  0  0
  2  5  1  0  0  0  0
  5  6  2  0  0  0  0
  5  7  1  0  0  0  0
  7  8  1  0  0  0  0
  7  9  1  0  0  0  0
  9 10  1  0  0  0  0
  9 11  1  0  0  0  0
  9 18  1  0  0  0  0
 11 12  1  0  0  0  0
 11 13  1  0  0  0  0
 11 14  1  0  0  0  0
 14 15  2  0  0  0  0
 14 16  1  0  0  0  0
 16 17  1  0  0  0  0
 18 19  2  0  0  0  0
 18 20  1  0  0  0  0
 20 21  1  0  0  0  0
 20 22  1  0  0  0  0
 22 23  1  0  0  0  0
 22 24  1  0  0  0  0
 22 25  1  0  0  0  0
M  END
$$$$

  -OEChem-02102214113D

 25 24  0     1  0  0  0  0  0999 V2000
   -2.5310   -3.7277   -0.4649 H   0  0  0  0  0  0  0  0  0  0  0  0
   -2.5578   -2.6691   -0.7387 C   0  0  0  0  0  0  0  0  0  0  0  0
   -3.2881   -2.1606   -0.1049 H   0  0  0  0  0  0  0  0  0  0  0  0
   -2.8677   -2.5843   -1.7831 H   0  0  0  0  0  0  0  0  0  0  0  0
   -1.1868   -2.0470   -0.5516 C   0  0  0  0  0  0  0  0  0  0  0  0
   -0.2637   -2.7268   -0.1410 O   0  0  0  0  0  0  0  0  0  0  0  0
   -0.9909   -0.7164   -0.8674 N   0  0  0  0  0  0  0  0  0  0  0  0
   -1.7714   -0.2280   -1.3001 H   0  0  0  0  0  0  0  0  0  0  0  0
    0.3091   -0.0248   -0.7773 C   0  0  1  0  0  0  0  0  0  0  0  0
    1.0277   -0.5644   -1.4055 H   0  0  0  0  0  0  0  0  0  0  0  0
    0.1605    1.4032   -1.3407 C   0  0  0  0  0  0  0  0  0  0  0  0
    1.0424    1.9974   -1.0812 H   0  0  0  0  0  0  0  0  0  0  0  0
    0.1175    1.3488   -2.4318 H   0  0  0  0  0  0  0  0  0  0  0  0
   -1.0899    2.1251   -0.8505 C   0  0  0  0  0  0  0  0  0  0  0  0
   -1.1203    2.5568    0.2882 O   0  0  0  0  0  0  0  0  0  0  0  0
   -2.1475    2.1730   -1.6946 O   0  0  0  0  0  0  0  0  0  0  0  0
   -2.8334    2.6852   -1.2370 H   0  0  0  0  0  0  0  0  0  0  0  0
    0.9379   -0.0035    0.6372 C   0  0  0  0  0  0  0  0  0  0  0  0
    2.1542   -0.0813    0.7481 O   0  0  0  0  0  0  0  0  0  0  0  0
    0.1777    0.2972    1.7526 N   0  0  0  0  0  0  0  0  0  0  0  0
   -0.7762    0.6004    1.5795 H   0  0  0  0  0  0  0  0  0  0  0  0
    0.7583    0.5380    3.0669 C   0  0  0  0  0  0  0  0  0  0  0  0
    1.4126    1.4156    3.0416 H   0  0  0  0  0  0  0  0  0  0  0  0
   -0.0323    0.7143    3.8023 H   0  0  0  0  0  0  0  0  0  0  0  0
    1.3431   -0.3292    3.3914 H   0  0  0  0  0  0  0  0  0  0  0  0
  1  2  1  0  0  0  0
  2  3  1  0  0  0  0
  2  4  1  0  0  0  0
  2  5  1  0  0  0  0
  5  6  2  0  0  0  0
  5  7  1  0  0  0  0
  7  8  1  0  0  0  0
  7  9  1  0  0  0  0
  9 10  1  0  0  0  0
  9 11  1  0  0  0  0
  9 18  1  0  0  0  0
 11 12  1  0  0  0  0
 11 13  1  0  0  0  0
 11 14  1  0  0  0  0
 14 15  2  0  0  0  0
 14 16  1  0  0  0  0
 16 17  1  0  0  0  0
 18 19  2  0  0  0  0
 18 20  1  0  0  0  0
 20 21  1  0  0  0  0
 20 22  1  0  0  0  0
 22 23  1  0  0  0  0
 22 24  1  0  0  0  0
 22 25  1  0  0  0  0
M  END
$$$$

  -OEChem-02102214113D

 25 24  0     1  0  0  0  0  0999 V2000
   -2.5265   -3.7279   -0.4315 H   0  0  0  0  0  0  0  0  0  0  0  0
   -2.5508   -2.6752   -0.7277 C   0  0  0  0  0  0  0  0  0  0  0  0
   -3.2821   -2.1521   -0.1071 H   0  0  0  0  0  0  0  0  0  0  0  0
   -2.8566   -2.6117   -1.7746 H   0  0  0  0  0  0  0  0  0  0  0  0
   -1.1792   -2.0523   -0.5494 C   0  0  0  0  0  0  0  0  0  0  0  0
   -0.2558   -2.7279   -0.1324 O   0  0  0  0  0  0  0  0  0  0  0  0
   -0.9834   -0.7240   -0.8738 N   0  0  0  0  0  0  0  0  0  0  0  0
   -1.7678   -0.2320   -1.2984 H   0  0  0  0  0  0  0  0  0  0  0  0
    0.3153   -0.0294   -0.7925 C   0  0  1  0  0  0  0  0  0  0  0  0
    1.0343   -0.5660   -1.4231 H   0  0  0  0  0  0  0  0  0  0  0  0
    0.1637    1.4029   -1.3435 C   0  0  0  0  0  0  0  0  0  0  0  0
    1.0500    1.9936   -1.0898 H   0  0  0  0  0  0  0  0  0  0  0  0
    0.1052    1.3584   -2.4342 H   0  0  0  0  0  0  0  0  0  0  0  0
   -1.0822    2.1167   -0.8321 C   0  0  0  0  0  0  0  0  0  0  0  0
   -1.0088    2.7702    0.1927 O   0  0  0  0  0  0  0  0  0  0  0  0
   -2.2348    1.9363   -1.5223 O   0  0  0  0  0  0  0  0  0  0  0  0
   -2.8972    2.4917   -1.0800 H   0  0  0  0  0  0  0  0  0  0  0  0
    0.9409   -0.0020    0.6224 C   0  0  0  0  0  0  0  0  0  0  0  0
    2.1578   -0.0576    0.7374 O   0  0  0  0  0  0  0  0  0  0  0  0
    0.1728    0.3030    1.7314 N   0  0  0  0  0  0  0  0  0  0  0  0
   -0.8075    0.5093    1.5711 H   0  0  0  0  0  0  0  0  0  0  0  0
    0.7377    0.5468    3.0519 C   0  0  0  0  0  0  0  0  0  0  0  0
    1.4010    1.4176    3.0292 H   0  0  0  0  0  0  0  0  0  0  0  0
   -0.0605    0.7371    3.7754 H   0  0  0  0  0  0  0  0  0  0  0  0
    1.3093   -0.3240    3.3900 H   0  0  0  0  0  0  0  0  0  0  0  0
  1  2  1  0  0  0  0
  2  3  1  0  0  0  0
  2  4  1  0  0  0  0
  2  5  1  0  0  0  0
  5  6  2  0  0  0  0
  5  7  1  0  0  0  0
  7  8  1  0  0  0  0
  7  9  1  0  0  0  0
  9 10  1  0  0  0  0
  9 11  1  0  0  0  0
  9 18  1  0  0  0  0
 11 12  1  0  0  0  0
 11 13  1  0  0  0  0
 11 14  1  0  0  0  0
 14 15  2  0  0  0  0
 14 16  1  0  0  0  0
 16 17  1  0  0  0  0
 18 19  2  0  0  0  0
 18 20  1  0  0  0  0
 20 21  1  0  0  0  0
 20 22  1  0  0  0  0
 22 23  1  0  0  0  0
 22 24  1  0  0  0  0
 22 25  1  0  0  0  0
M  END
$$$$

  -OEChem-02102214113D

 25 24  0     1  0  0  0  0  0999 V2000
   -2.4875   -3.7430   -0.3836 H   0  0  0  0  0  0  0  0  0  0  0  0
   -2.5247   -2.6915   -0.6824 C   0  0  0  0  0  0  0  0  0  0  0  0
   -3.2468   -2.1710   -0.0490 H   0  0  0  0  0  0  0  0  0  0  0  0
   -2.8528   -2.6334   -1.7229 H   0  0  0  0  0  0  0  0  0  0  0  0
   -1.1542   -2.0586   -0.5344 C   0  0  0  0  0  0  0  0  0  0  0  0
   -0.2204   -2.7212   -0.1196 O   0  0  0  0  0  0  0  0  0  0  0  0
   -0.9734   -0.7315   -0.8708 N   0  0  0  0  0  0  0  0  0  0  0  0
   -1.7758   -0.2378   -1.2610 H   0  0  0  0  0  0  0  0  0  0  0  0
    0.3151   -0.0178   -0.8070 C   0  0  1  0  0  0  0  0  0  0  0  0
    1.0369   -0.5499   -1.4378 H   0  0  0  0  0  0  0  0  0  0  0  0
    0.1544    1.4150   -1.3579 C   0  0  0  0  0  0  0  0  0  0  0  0
    1.0455    2.0038   -1.1155 H   0  0  0  0  0  0  0  0  0  0  0  0
    0.0859    1.3668   -2.4477 H   0  0  0  0  0  0  0  0  0  0  0  0
   -1.0865    2.1394   -0.8453 C   0  0  0  0  0  0  0  0  0  0  0  0
   -0.9477    3.0059   -0.0017 O   0  0  0  0  0  0  0  0  0  0  0  0
   -2.2914    1.7835   -1.3580 O   0  0  0  0  0  0  0  0  0  0  0  0
   -2.9341    2.3923   -0.9579 H   0  0  0  0  0  0  0  0  0  0  0  0
    0.9425    0.0255    0.6055 C   0  0  0  0  0  0  0  0  0  0  0  0
    2.1603    0.0047    0.7206 O   0  0  0  0  0  0  0  0  0  0  0  0
    0.1669    0.3267    1.7102 N   0  0  0  0  0  0  0  0  0  0  0  0
   -0.8371    0.3726    1.5752 H   0  0  0  0  0  0  0  0  0  0  0  0
    0.7138    0.5054    3.0488 C   0  0  0  0  0  0  0  0  0  0  0  0
    1.4430    1.3224    3.0586 H   0  0  0  0  0  0  0  0  0  0  0  0
   -0.0856    0.7482    3.7553 H   0  0  0  0  0  0  0  0  0  0  0  0
    1.2076   -0.4125    3.3851 H   0  0  0  0  0  0  0  0  0  0  0  0
  1  2  1  0  0  0  0
  2  3  1  0  0  0  0
  2  4  1  0  0  0  0
  2  5  1  0  0  0  0
  5  6  2  0  0  0  0
  5  7  1  0  0  0  0
  7  8  1  0  0  0  0
  7  9  1  0  0  0  0
  9 10  1  0  0  0  0
  9 11  1  0  0  0  0
  9 18  1  0  0  0  0
 11 12  1  0  0  0  0
 11 13  1  0  0  0  0
 11 14  1  0  0  0  0
 14 15  2  0  0  0  0
 14 16  1  0  0  0  0
 16 17  1  0  0  0  0
 18 19  2  0  0  0  0
 18 20  1  0  0  0  0
 20 21  1  0  0  0  0
 20 22  1  0  0  0  0
 22 23  1  0  0  0  0
 22 24  1  0  0  0  0
 22 25  1  0  0  0  0
M  END
$$$$

  -OEChem-02102214113D

 25 24  0     1  0  0  0  0  0999 V2000
   -2.4439   -3.7728   -0.3543 H   0  0  0  0  0  0  0  0  0  0  0  0
   -2.5005   -2.7201   -0.6457 C   0  0  0  0  0  0  0  0  0  0  0  0
   -3.2144   -2.2119    0.0066 H   0  0  0  0  0  0  0  0  0  0  0  0
   -2.8526   -2.6600   -1.6781 H   0  0  0  0  0  0  0  0  0  0  0  0
   -1.1340   -2.0721   -0.5260 C   0  0  0  0  0  0  0  0  0  0  0  0
   -0.1836   -2.7261   -0.1356 O   0  0  0  0  0  0  0  0  0  0  0  0
   -0.9727   -0.7428   -0.8635 N   0  0  0  0  0  0  0  0  0  0  0  0
   -1.7959   -0.2433   -1.2001 H   0  0  0  0  0  0  0  0  0  0  0  0
    0.3058   -0.0119   -0.8117 C   0  0  1  0  0  0  0  0  0  0  0  0
    1.0286   -0.5394   -1.4454 H   0  0  0  0  0  0  0  0  0  0  0  0
    0.1455    1.4250   -1.3575 C   0  0  0  0  0  0  0  0  0  0  0  0
    1.0454    2.0038   -1.1221 H   0  0  0  0  0  0  0  0  0  0  0  0
    0.0719    1.3729   -2.4466 H   0  0  0  0  0  0  0  0  0  0  0  0
   -1.0849    2.1783   -0.8544 C   0  0  0  0  0  0  0  0  0  0  0  0
   -0.9066    3.2145   -0.2411 O   0  0  0  0  0  0  0  0  0  0  0  0
   -2.3179    1.7027   -1.1653 O   0  0  0  0  0  0  0  0  0  0  0  0
   -2.9413    2.3651   -0.8237 H   0  0  0  0  0  0  0  0  0  0  0  0
    0.9371    0.0345    0.5985 C   0  0  0  0  0  0  0  0  0  0  0  0
    2.1551    0.0421    0.7115 O   0  0  0  0  0  0  0  0  0  0  0  0
    0.1562    0.3228    1.7032 N   0  0  0  0  0  0  0  0  0  0  0  0
   -0.8494    0.2781    1.5797 H   0  0  0  0  0  0  0  0  0  0  0  0
    0.6991    0.4699    3.0476 C   0  0  0  0  0  0  0  0  0  0  0  0
    1.4383    1.2776    3.0761 H   0  0  0  0  0  0  0  0  0  0  0  0
   -0.1004    0.7102    3.7546 H   0  0  0  0  0  0  0  0  0  0  0  0
    1.1800   -0.4598    3.3696 H   0  0  0  0  0  0  0  0  0  0  0  0
  1  2  1  0  0  0  0
  2  3  1  0  0  0  0
  2  4  1  0  0  0  0
  2  5  1  0  0  0  0
  5  6  2  0  0  0  0
  5  7  1  0  0  0  0
  7  8  1  0  0  0  0
  7  9  1  0  0  0  0
  9 10  1  0  0  0  0
  9 11  1  0  0  0  0
  9 18  1  0  0  0  0
 11 12  1  0  0  0  0
 11 13  1  0  0  0  0
 11 14  1  0  0  0  0
 14 15  2  0  0  0  0
 14 16  1  0  0  0  0
 16 17  1  0  0  0  0
 18 19  2  0  0  0  0
 18 20  1  0  0  0  0
 20 21  1  0  0  0  0
 20 22  1  0  0  0  0
 22 23  1  0  0  0  0
 22 24  1  0  0  0  0
 22 25  1  0  0  0  0
M  END
$$$$

  -OEChem-02102214113D

 25 24  0     1  0  0  0  0  0999 V2000
   -2.4018   -3.7899   -0.3093 H   0  0  0  0  0  0  0  0  0  0  0  0
   -2.4738   -2.7371   -0.5974 C   0  0  0  0  0  0  0  0  0  0  0  0
   -3.1590   -2.2308    0.0866 H   0  0  0  0  0  0  0  0  0  0  0  0
   -2.8716   -2.6777   -1.6134 H   0  0  0  0  0  0  0  0  0  0  0  0
   -1.1051   -2.0857   -0.5390 C   0  0  0  0  0  0  0  0  0  0  0  0
   -0.1351   -2.7390   -0.1990 O   0  0  0  0  0  0  0  0  0  0  0  0
   -0.9640   -0.7531   -0.8722 N   0  0  0  0  0  0  0  0  0  0  0  0
   -1.8106   -0.2418   -1.1219 H   0  0  0  0  0  0  0  0  0  0  0  0
    0.3038   -0.0045   -0.8228 C   0  0  1  0  0  0  0  0  0  0  0  0
    1.0317   -0.5231   -1.4581 H   0  0  0  0  0  0  0  0  0  0  0  0
    0.1434    1.4389   -1.3574 C   0  0  0  0  0  0  0  0  0  0  0  0
    1.0493    2.0074   -1.1204 H   0  0  0  0  0  0  0  0  0  0  0  0
    0.0721    1.3879   -2.4466 H   0  0  0  0  0  0  0  0  0  0  0  0
   -1.0780    2.2212   -0.8681 C   0  0  0  0  0  0  0  0  0  0  0  0
   -0.8935    3.3721   -0.5168 O   0  0  0  0  0  0  0  0  0  0  0  0
   -2.3110    1.6548   -0.9194 O   0  0  0  0  0  0  0  0  0  0  0  0
   -2.9223    2.3535   -0.6315 H   0  0  0  0  0  0  0  0  0  0  0  0
    0.9300    0.0392    0.5890 C   0  0  0  0  0  0  0  0  0  0  0  0
    2.1470    0.0644    0.7085 O   0  0  0  0  0  0  0  0  0  0  0  0
    0.1387    0.3096    1.6911 N   0  0  0  0  0  0  0  0  0  0  0  0
   -0.8645    0.2321    1.5627 H   0  0  0  0  0  0  0  0  0  0  0  0
    0.6719    0.4258    3.0426 C   0  0  0  0  0  0  0  0  0  0  0  0
    1.4180    1.2260    3.0935 H   0  0  0  0  0  0  0  0  0  0  0  0
   -0.1310    0.6596    3.7482 H   0  0  0  0  0  0  0  0  0  0  0  0
    1.1423   -0.5144    3.3494 H   0  0  0  0  0  0  0  0  0  0  0  0
  1  2  1  0  0  0  0
  2  3  1  0  0  0  0
  2  4  1  0  0  0  0
  2  5  1  0  0  0  0
  5  6  2  0  0  0  0
  5  7  1  0  0  0  0
  7  8  1  0  0  0  0
  7  9  1  0  0  0  0
  9 10  1  0  0  0  0
  9 11  1  0  0  0  0
  9 18  1  0  0  0  0
 11 12  1  0  0  0  0
 11 13  1  0  0  0  0
 11 14  1  0  0  0  0
 14 15  2  0  0  0  0
 14 16  1  0  0  0  0
 16 17  1  0  0  0  0
 18 19  2  0  0  0  0
 18 20  1  0  0  0  0
 20 21  1  0  0  0  0
 20 22  1  0  0  0  0
 22 23  1  0  0  0  0
 22 24  1  0  0  0  0
 22 25  1  0  0  0  0
M  END
$$$$

  -OEChem-02102214113D

 25 24  0     1  0  0  0  0  0999 V2000
   -2.3716   -3.7916   -0.2697 H   0  0  0  0  0  0  0  0  0  0  0  0
   -2.4531   -2.7391   -0.5556 C   0  0  0  0  0  0  0  0  0  0  0  0
   -3.1009   -2.2290    0.1611 H   0  0  0  0  0  0  0  0  0  0  0  0
   -2.9010   -2.6783   -1.5504 H   0  0  0  0  0  0  0  0  0  0  0  0
   -1.0801   -2.0942   -0.5661 C   0  0  0  0  0  0  0  0  0  0  0  0
   -0.0961   -2.7534   -0.2820 O   0  0  0  0  0  0  0  0  0  0  0  0
   -0.9523   -0.7591   -0.8939 N   0  0  0  0  0  0  0  0  0  0  0  0
   -1.8137   -0.2346   -1.0434 H   0  0  0  0  0  0  0  0  0  0  0  0
    0.3097   -0.0014   -0.8386 C   0  0  1  0  0  0  0  0  0  0  0  0
    1.0436   -0.5110   -1.4743 H   0  0  0  0  0  0  0  0  0  0  0  0
    0.1469    1.4481   -1.3590 C   0  0  0  0  0  0  0  0  0  0  0  0
    1.0542    2.0116   -1.1153 H   0  0  0  0  0  0  0  0  0  0  0  0
    0.0803    1.4023   -2.4488 H   0  0  0  0  0  0  0  0  0  0  0  0
   -1.0690    2.2477   -0.8780 C   0  0  0  0  0  0  0  0  0  0  0  0
   -0.9242    3.4538   -0.7997 O   0  0  0  0  0  0  0  0  0  0  0  0
   -2.2496    1.6313   -0.6129 O   0  0  0  0  0  0  0  0  0  0  0  0
   -2.8582    2.3491   -0.3693 H   0  0  0  0  0  0  0  0  0  0  0  0
    0.9257    0.0358    0.5775 C   0  0  0  0  0  0  0  0  0  0  0  0
    2.1413    0.0641    0.7097 O   0  0  0  0  0  0  0  0  0  0  0  0
    0.1224    0.2939    1.6737 N   0  0  0  0  0  0  0  0  0  0  0  0
   -0.8804    0.2369    1.5290 H   0  0  0  0  0  0  0  0  0  0  0  0
    0.6400    0.3916    3.0326 C   0  0  0  0  0  0  0  0  0  0  0  0
    1.3798    1.1960    3.1042 H   0  0  0  0  0  0  0  0  0  0  0  0
   -0.1723    0.6073    3.7330 H   0  0  0  0  0  0  0  0  0  0  0  0
    1.1142   -0.5501    3.3291 H   0  0  0  0  0  0  0  0  0  0  0  0
  1  2  1  0  0  0  0
  2  3  1  0  0  0  0
  2  4  1  0  0  0  0
  2  5  1  0  0  0  0
  5  6  2  0  0  0  0
  5  7  1  0  0  0  0
  7  8  1  0  0  0  0
  7  9  1  0  0  0  0
  9 10  1  0  0  0  0
  9 11  1  0  0  0  0
  9 18  1  0  0  0  0
 11 12  1  0  0  0  0
 11 13  1  0  0  0  0
 11 14  1  0  0  0  0
 14 15  2  0  0  0  0
 14 16  1  0  0  0  0
 16 17  1  0  0  0  0
 18 19  2  0  0  0  0
 18 20  1  0  0  0  0
 20 21  1  0  0  0  0
 20 22  1  0  0  0  0
 22 23  1  0  0  0  0
 22 24  1  0  0  0  0
 22 25  1  0  0  0  0
M  END
$$$$

  -OEChem-02102214113D

 25 24  0     1  0  0  0  0  0999 V2000
   -2.3549   -3.7869   -0.2531 H   0  0  0  0  0  0  0  0  0  0  0  0
   -2.4432   -2.7313   -0.5256 C   0  0  0  0  0  0  0  0  0  0  0  0
   -3.0449   -2.2219    0.2306 H   0  0  0  0  0  0  0  0  0  0  0  0
   -2.9459   -2.6591   -1.4930 H   0  0  0  0  0  0  0  0  0  0  0  0
   -1.0674   -2.0975   -0.6089 C   0  0  0  0  0  0  0  0  0  0  0  0
   -0.0744   -2.7696   -0.3941 O   0  0  0  0  0  0  0  0  0  0  0  0
   -0.9464   -0.7589   -0.9265 N   0  0  0  0  0  0  0  0  0  0  0  0
   -1.8111   -0.2222   -0.9736 H   0  0  0  0  0  0  0  0  0  0  0  0
    0.3187   -0.0062   -0.8553 C   0  0  1  0  0  0  0  0  0  0  0  0
    1.0561   -0.5095   -1.4922 H   0  0  0  0  0  0  0  0  0  0  0  0
    0.1577    1.4491   -1.3581 C   0  0  0  0  0  0  0  0  0  0  0  0
    1.0632    2.0097   -1.1022 H   0  0  0  0  0  0  0  0  0  0  0  0
    0.0968    1.4147   -2.4489 H   0  0  0  0  0  0  0  0  0  0  0  0
   -1.0572    2.2492   -0.8753 C   0  0  0  0  0  0  0  0  0  0  0  0
   -1.0080    3.4524   -1.0529 O   0  0  0  0  0  0  0  0  0  0  0  0
   -2.1153    1.6362   -0.2827 O   0  0  0  0  0  0  0  0  0  0  0  0
   -2.7329    2.3558   -0.0679 H   0  0  0  0  0  0  0  0  0  0  0  0
    0.9224    0.0141    0.5667 C   0  0  0  0  0  0  0  0  0  0  0  0
    2.1362    0.0217    0.7148 O   0  0  0  0  0  0  0  0  0  0  0  0
    0.1087    0.2653    1.6565 N   0  0  0  0  0  0  0  0  0  0  0  0
   -0.8918    0.2990    1.4862 H   0  0  0  0  0  0  0  0  0  0  0  0
    0.6078    0.3852    3.0204 C   0  0  0  0  0  0  0  0  0  0  0  0
    1.3087    1.2229    3.0996 H   0  0  0  0  0  0  0  0  0  0  0  0
   -0.2209    0.5608    3.7129 H   0  0  0  0  0  0  0  0  0  0  0  0
    1.1215   -0.5340    3.3212 H   0  0  0  0  0  0  0  0  0  0  0  0
  1  2  1  0  0  0  0
  2  3  1  0  0  0  0
  2  4  1  0  0  0  0
  2  5  1  0  0  0  0
  5  6  2  0  0  0  0
  5  7  1  0  0  0  0
  7  8  1  0  0  0  0
  7  9  1  0  0  0  0
  9 10  1  0  0  0  0
  9 11  1  0  0  0  0
  9 18  1  0  0  0  0
 11 12  1  0  0  0  0
 11 13  1  0  0  0  0
 11 14  1  0  0  0  0
 14 15  2  0  0  0  0
 14 16  1  0  0  0  0
 16 17  1  0  0  0  0
 18 19  2  0  0  0  0
 18 20  1  0  0  0  0
 20 21  1  0  0  0  0
 20 22  1  0  0  0  0
 22 23  1  0  0  0  0
 22 24  1  0  0  0  0
 22 25  1  0  0  0  0
M  END
$$$$

  -OEChem-02102214113D

 25 24  0     1  0  0  0  0  0999 V2000
   -2.4381   -3.7395   -0.3881 H   0  0  0  0  0  0  0  0  0  0  0  0
   -2.5038   -2.6689   -0.6017 C   0  0  0  0  0  0  0  0  0  0  0  0
   -3.0924   -2.1889    0.1836 H   0  0  0  0  0  0  0  0  0  0  0  0
   -3.0071   -2.5323   -1.5618 H   0  0  0  0  0  0  0  0  0  0  0  0
   -1.1144   -2.0621   -0.6541 C   0  0  0  0  0  0  0  0  0  0  0  0
   -0.1364   -2.7660   -0.4741 O   0  0  0  0  0  0  0  0  0  0  0  0
   -0.9651   -0.7128   -0.9084 N   0  0  0  0  0  0  0  0  0  0  0  0
   -1.8173   -0.1588   -0.9196 H   0  0  0  0  0  0  0  0  0  0  0  0
    0.3165    0.0018   -0.7782 C   0  0  1  0  0  0  0  0  0  0  0  0
    1.0413   -0.5203   -1.4146 H   0  0  0  0  0  0  0  0  0  0  0  0
    0.1817    1.4335   -1.3367 C   0  0  0  0  0  0  0  0  0  0  0  0
    1.1559    1.9262   -1.2575 H   0  0  0  0  0  0  0  0  0  0  0  0
   -0.0669    1.3652   -2.3992 H   0  0  0  0  0  0  0  0  0  0  0  0
   -0.8579    2.3371   -0.6712 C   0  0  0  0  0  0  0  0  0  0  0  0
   -0.9563    3.4653   -1.1172 O   0  0  0  0  0  0  0  0  0  0  0  0
   -1.6851    1.8494    0.2892 O   0  0  0  0  0  0  0  0  0  0  0  0
   -2.2559    2.5979    0.5322 H   0  0  0  0  0  0  0  0  0  0  0  0
    0.9461   -0.0240    0.6350 C   0  0  0  0  0  0  0  0  0  0  0  0
    2.1635   -0.0525    0.7490 O   0  0  0  0  0  0  0  0  0  0  0  0
    0.1769    0.2085    1.7597 N   0  0  0  0  0  0  0  0  0  0  0  0
   -0.8015    0.4348    1.5981 H   0  0  0  0  0  0  0  0  0  0  0  0
    0.7372    0.3800    3.0943 C   0  0  0  0  0  0  0  0  0  0  0  0
    1.3484    1.2873    3.1387 H   0  0  0  0  0  0  0  0  0  0  0  0
   -0.0646    0.4626    3.8341 H   0  0  0  0  0  0  0  0  0  0  0  0
    1.3623   -0.4793    3.3601 H   0  0  0  0  0  0  0  0  0  0  0  0
  1  2  1  0  0  0  0
  2  3  1  0  0  0  0
  2  4  1  0  0  0  0
  2  5  1  0  0  0  0
  5  6  2  0  0  0  0
  5  7  1  0  0  0  0
  7  8  1  0  0  0  0
  7  9  1  0  0  0  0
  9 10  1  0  0  0  0
  9 11  1  0  0  0  0
  9 18  1  0  0  0  0
 11 12  1  0  0  0  0
 11 13  1  0  0  0  0
 11 14  1  0  0  0  0
 14 15  2  0  0  0  0
 14 16  1  0  0  0  0
 16 17  1  0  0  0  0
 18 19  2  0  0  0  0
 18 20  1  0  0  0  0
 20 21  1  0  0  0  0
 20 22  1  0  0  0  0
 22 23  1  0  0  0  0
 22 24  1  0  0  0  0
 22 25  1  0  0  0  0
M  END
$$$$

  -OEChem-02102214113D

 25 24  0     1  0  0  0  0  0999 V2000
   -2.4554   -3.7429   -0.4358 H   0  0  0  0  0  0  0  0  0  0  0  0
   -2.5209   -2.6714   -0.6452 C   0  0  0  0  0  0  0  0  0  0  0  0
   -3.1440   -2.2014    0.1192 H   0  0  0  0  0  0  0  0  0  0  0  0
   -2.9866   -2.5328   -1.6238 H   0  0  0  0  0  0  0  0  0  0  0  0
   -1.1351   -2.0540   -0.6391 C   0  0  0  0  0  0  0  0  0  0  0  0
   -0.1600   -2.7548   -0.4337 O   0  0  0  0  0  0  0  0  0  0  0  0
   -0.9840   -0.7016   -0.8772 N   0  0  0  0  0  0  0  0  0  0  0  0
   -1.8359   -0.1530   -0.9506 H   0  0  0  0  0  0  0  0  0  0  0  0
    0.2987    0.0109   -0.7450 C   0  0  1  0  0  0  0  0  0  0  0  0
    1.0167   -0.5209   -1.3814 H   0  0  0  0  0  0  0  0  0  0  0  0
    0.1742    1.4317   -1.3325 C   0  0  0  0  0  0  0  0  0  0  0  0
    1.1475    1.9245   -1.2465 H   0  0  0  0  0  0  0  0  0  0  0  0
   -0.0551    1.3425   -2.3983 H   0  0  0  0  0  0  0  0  0  0  0  0
   -0.8705    2.3533   -0.7015 C   0  0  0  0  0  0  0  0  0  0  0  0
   -1.1584    3.3520   -1.3354 O   0  0  0  0  0  0  0  0  0  0  0  0
   -1.5037    2.0022    0.4451 O   0  0  0  0  0  0  0  0  0  0  0  0
   -2.1079    2.7387    0.6370 H   0  0  0  0  0  0  0  0  0  0  0  0
    0.9491   -0.0237    0.6596 C   0  0  0  0  0  0  0  0  0  0  0  0
    2.1684   -0.0656    0.7514 O   0  0  0  0  0  0  0  0  0  0  0  0
    0.2041    0.1976    1.8023 N   0  0  0  0  0  0  0  0  0  0  0  0
   -0.7612    0.4829    1.6547 H   0  0  0  0  0  0  0  0  0  0  0  0
    0.7961    0.3631    3.1237 C   0  0  0  0  0  0  0  0  0  0  0  0
    1.4201    1.2621    3.1537 H   0  0  0  0  0  0  0  0  0  0  0  0
    0.0117    0.4567    3.8805 H   0  0  0  0  0  0  0  0  0  0  0  0
    1.4154   -0.5041    3.3767 H   0  0  0  0  0  0  0  0  0  0  0  0
  1  2  1  0  0  0  0
  2  3  1  0  0  0  0
  2  4  1  0  0  0  0
  2  5  1  0  0  0  0
  5  6  2  0  0  0  0
  5  7  1  0  0  0  0
  7  8  1  0  0  0  0
  7  9  1  0  0  0  0
  9 10  1  0  0  0  0
  9 11  1  0  0  0  0
  9 18  1  0  0  0  0
 11 12  1  0  0  0  0
 11 13  1  0  0  0  0
 11 14  1  0  0  0  0
 14 15  2  0  0  0  0
 14 16  1  0  0  0  0
 16 17  1  0  0  0  0
 18 19  2  0  0  0  0
 18 20  1  0  0  0  0
 20 21  1  0  0  0  0
 20 22  1  0  0  0  0
 22 23  1  0  0  0  0
 22 24  1  0  0  0  0
 22 25  1  0  0  0  0
M  END
$$$$

  -OEChem-02102214113D

 25 24  0     1  0  0  0  0  0999 V2000
   -2.4811   -3.7453   -0.4950 H   0  0  0  0  0  0  0  0  0  0  0  0
   -2.5413   -2.6722   -0.6979 C   0  0  0  0  0  0  0  0  0  0  0  0
   -3.2111   -2.2133    0.0331 H   0  0  0  0  0  0  0  0  0  0  0  0
   -2.9499   -2.5269   -1.7008 H   0  0  0  0  0  0  0  0  0  0  0  0
   -1.1624   -2.0470   -0.6038 C   0  0  0  0  0  0  0  0  0  0  0  0
   -0.1998   -2.7418   -0.3310 O   0  0  0  0  0  0  0  0  0  0  0  0
   -1.0028   -0.6952   -0.8400 N   0  0  0  0  0  0  0  0  0  0  0  0
   -1.8412   -0.1597   -1.0447 H   0  0  0  0  0  0  0  0  0  0  0  0
    0.2825    0.0143   -0.7170 C   0  0  1  0  0  0  0  0  0  0  0  0
    0.9929   -0.5290   -1.3524 H   0  0  0  0  0  0  0  0  0  0  0  0
    0.1602    1.4229   -1.3341 C   0  0  0  0  0  0  0  0  0  0  0  0
    1.1324    1.9180   -1.2527 H   0  0  0  0  0  0  0  0  0  0  0  0
   -0.0614    1.3115   -2.3998 H   0  0  0  0  0  0  0  0  0  0  0  0
   -0.8867    2.3557   -0.7232 C   0  0  0  0  0  0  0  0  0  0  0  0
   -1.3833    3.1739   -1.4762 O   0  0  0  0  0  0  0  0  0  0  0  0
   -1.2707    2.2172    0.5677 O   0  0  0  0  0  0  0  0  0  0  0  0
   -1.9047    2.9355    0.7276 H   0  0  0  0  0  0  0  0  0  0  0  0
    0.9513   -0.0188    0.6804 C   0  0  0  0  0  0  0  0  0  0  0  0
    2.1717   -0.0749    0.7515 O   0  0  0  0  0  0  0  0  0  0  0  0
    0.2291    0.2031    1.8376 N   0  0  0  0  0  0  0  0  0  0  0  0
   -0.7265    0.5245    1.7067 H   0  0  0  0  0  0  0  0  0  0  0  0
    0.8489    0.3576    3.1476 C   0  0  0  0  0  0  0  0  0  0  0  0
    1.4801    1.2520    3.1707 H   0  0  0  0  0  0  0  0  0  0  0  0
    0.0804    0.4524    3.9203 H   0  0  0  0  0  0  0  0  0  0  0  0
    1.4667   -0.5156    3.3835 H   0  0  0  0  0  0  0  0  0  0  0  0
  1  2  1  0  0  0  0
  2  3  1  0  0  0  0
  2  4  1  0  0  0  0
  2  5  1  0  0  0  0
  5  6  2  0  0  0  0
  5  7  1  0  0  0  0
  7  8  1  0  0  0  0
  7  9  1  0  0  0  0
  9 10  1  0  0  0  0
  9 11  1  0  0  0  0
  9 18  1  0  0  0  0
 11 12  1  0  0  0  0
 11 13  1  0  0  0  0
 11 14  1  0  0  0  0
 14 15  2  0  0  0  0
 14 16  1  0  0  0  0
 16 17  1  0  0  0  0
 18 19  2  0  0  0  0
 18 20  1  0  0  0  0
 20 21  1  0  0  0  0
 20 22  1  0  0  0  0
 22 23  1  0  0  0  0
 22 24  1  0  0  0  0
 22 25  1  0  0  0  0
M  END
$$$$

  -OEChem-02102214113D

 25 24  0     1  0  0  0  0  0999 V2000
   -2.5073   -3.7390   -0.5204 H   0  0  0  0  0  0  0  0  0  0  0  0
   -2.5561   -2.6676   -0.7354 C   0  0  0  0  0  0  0  0  0  0  0  0
   -3.2634   -2.2027   -0.0447 H   0  0  0  0  0  0  0  0  0  0  0  0
   -2.9114   -2.5309   -1.7595 H   0  0  0  0  0  0  0  0  0  0  0  0
   -1.1837   -2.0411   -0.5741 C   0  0  0  0  0  0  0  0  0  0  0  0
   -0.2380   -2.7319   -0.2396 O   0  0  0  0  0  0  0  0  0  0  0  0
   -1.0120   -0.6922   -0.8194 N   0  0  0  0  0  0  0  0  0  0  0  0
   -1.8238   -0.1764   -1.1470 H   0  0  0  0  0  0  0  0  0  0  0  0
    0.2788    0.0098   -0.7065 C   0  0  1  0  0  0  0  0  0  0  0  0
    0.9842   -0.5402   -1.3413 H   0  0  0  0  0  0  0  0  0  0  0  0
    0.1500    1.4119   -1.3352 C   0  0  0  0  0  0  0  0  0  0  0  0
    1.1198    1.9125   -1.2600 H   0  0  0  0  0  0  0  0  0  0  0  0
   -0.0740    1.2958   -2.3999 H   0  0  0  0  0  0  0  0  0  0  0  0
   -0.8970    2.3356   -0.7131 C   0  0  0  0  0  0  0  0  0  0  0  0
   -1.6119    2.9470   -1.4871 O   0  0  0  0  0  0  0  0  0  0  0  0
   -0.9964    2.4533    0.6302 O   0  0  0  0  0  0  0  0  0  0  0  0
   -1.6638    3.1406    0.7865 H   0  0  0  0  0  0  0  0  0  0  0  0
    0.9523   -0.0190    0.6887 C   0  0  0  0  0  0  0  0  0  0  0  0
    2.1727   -0.0857    0.7532 O   0  0  0  0  0  0  0  0  0  0  0  0
    0.2374    0.2145    1.8485 N   0  0  0  0  0  0  0  0  0  0  0  0
   -0.7170    0.5387    1.7245 H   0  0  0  0  0  0  0  0  0  0  0  0
    0.8681    0.3741    3.1526 C   0  0  0  0  0  0  0  0  0  0  0  0
    1.5224    1.2520    3.1570 H   0  0  0  0  0  0  0  0  0  0  0  0
    0.1068    0.5025    3.9277 H   0  0  0  0  0  0  0  0  0  0  0  0
    1.4638   -0.5113    3.3990 H   0  0  0  0  0  0  0  0  0  0  0  0
  1  2  1  0  0  0  0
  2  3  1  0  0  0  0
  2  4  1  0  0  0  0
  2  5  1  0  0  0  0
  5  6  2  0  0  0  0
  5  7  1  0  0  0  0
  7  8  1  0  0  0  0
  7  9  1  0  0  0  0
  9 10  1  0  0  0  0
  9 11  1  0  0  0  0
  9 18  1  0  0  0  0
 11 12  1  0  0  0  0
 11 13  1  0  0  0  0
 11 14  1  0  0  0  0
 14 15  2  0  0  0  0
 14 16  1  0  0  0  0
 16 17  1  0  0  0  0
 18 19  2  0  0  0  0
 18 20  1  0  0  0  0
 20 21  1  0  0  0  0
 20 22  1  0  0  0  0
 22 23  1  0  0  0  0
 22 24  1  0  0  0  0
 22 25  1  0  0  0  0
M  END
$$$$

  -OEChem-02102214113D

 25 24  0     1  0  0  0  0  0999 V2000
   -2.5358   -3.7203   -0.5161 H   0  0  0  0  0  0  0  0  0  0  0  0
   -2.5673   -2.6538   -0.7570 C   0  0  0  0  0  0  0  0  0  0  0  0
   -3.2998   -2.1683   -0.1079 H   0  0  0  0  0  0  0  0  0  0  0  0
   -2.8781   -2.5380   -1.7982 H   0  0  0  0  0  0  0  0  0  0  0  0
   -1.1986   -2.0321   -0.5518 C   0  0  0  0  0  0  0  0  0  0  0  0
   -0.2711   -2.7209   -0.1664 O   0  0  0  0  0  0  0  0  0  0  0  0
   -1.0101   -0.6889   -0.8148 N   0  0  0  0  0  0  0  0  0  0  0  0
   -1.7996   -0.1837   -1.2095 H   0  0  0  0  0  0  0  0  0  0  0  0
    0.2890    0.0002   -0.7150 C   0  0  1  0  0  0  0  0  0  0  0  0
    0.9898   -0.5532   -1.3518 H   0  0  0  0  0  0  0  0  0  0  0  0
    0.1515    1.4034   -1.3366 C   0  0  0  0  0  0  0  0  0  0  0  0
    1.1204    1.9080   -1.2751 H   0  0  0  0  0  0  0  0  0  0  0  0
   -0.0930    1.2986   -2.3979 H   0  0  0  0  0  0  0  0  0  0  0  0
   -0.8886    2.3031   -0.6741 C   0  0  0  0  0  0  0  0  0  0  0  0
   -1.8039    2.6979   -1.3752 O   0  0  0  0  0  0  0  0  0  0  0  0
   -0.7361    2.6672    0.6184 O   0  0  0  0  0  0  0  0  0  0  0  0
   -1.4455    3.3014    0.8063 H   0  0  0  0  0  0  0  0  0  0  0  0
    0.9592   -0.0225    0.6810 C   0  0  0  0  0  0  0  0  0  0  0  0
    2.1797   -0.0833    0.7487 O   0  0  0  0  0  0  0  0  0  0  0  0
    0.2396    0.2324    1.8336 N   0  0  0  0  0  0  0  0  0  0  0  0
   -0.7374    0.4773    1.7152 H   0  0  0  0  0  0  0  0  0  0  0  0
    0.8607    0.4158    3.1386 C   0  0  0  0  0  0  0  0  0  0  0  0
    1.5184    1.2911    3.1297 H   0  0  0  0  0  0  0  0  0  0  0  0
    0.0942    0.5640    3.9048 H   0  0  0  0  0  0  0  0  0  0  0  0
    1.4511   -0.4663    3.4083 H   0  0  0  0  0  0  0  0  0  0  0  0
  1  2  1  0  0  0  0
  2  3  1  0  0  0  0
  2  4  1  0  0  0  0
  2  5  1  0  0  0  0
  5  6  2  0  0  0  0
  5  7  1  0  0  0  0
  7  8  1  0  0  0  0
  7  9  1  0  0  0  0
  9 10  1  0  0  0  0
  9 11  1  0  0  0  0
  9 18  1  0  0  0  0
 11 12  1  0  0  0  0
 11 13  1  0  0  0  0
 11 14  1  0  0  0  0
 14 15  2  0  0  0  0
 14 16  1  0  0  0  0
 16 17  1  0  0  0  0
 18 19  2  0  0  0  0
 18 20  1  0  0  0  0
 20 21  1  0  0  0  0
 20 22  1  0  0  0  0
 22 23  1  0  0  0  0
 22 24  1  0  0  0  0
 22 25  1  0  0  0  0
M  END
$$$$

  -OEChem-02102214113D

 25 24  0     1  0  0  0  0  0999 V2000
   -2.5347   -3.6934   -0.4552 H   0  0  0  0  0  0  0  0  0  0  0  0
   -2.5592   -2.6335   -0.7235 C   0  0  0  0  0  0  0  0  0  0  0  0
   -3.2885   -2.1263   -0.0874 H   0  0  0  0  0  0  0  0  0  0  0  0
   -2.8696   -2.5422   -1.7672 H   0  0  0  0  0  0  0  0  0  0  0  0
   -1.1866   -2.0156   -0.5343 C   0  0  0  0  0  0  0  0  0  0  0  0
   -0.2640   -2.6975   -0.1254 O   0  0  0  0  0  0  0  0  0  0  0  0
   -0.9906   -0.6801   -0.8273 N   0  0  0  0  0  0  0  0  0  0  0  0
   -1.7806   -0.1753   -1.2239 H   0  0  0  0  0  0  0  0  0  0  0  0
    0.3098    0.0095   -0.7440 C   0  0  1  0  0  0  0  0  0  0  0  0
    1.0124   -0.5445   -1.3779 H   0  0  0  0  0  0  0  0  0  0  0  0
    0.1599    1.4128   -1.3591 C   0  0  0  0  0  0  0  0  0  0  0  0
    1.1260    1.9245   -1.3132 H   0  0  0  0  0  0  0  0  0  0  0  0
   -0.1080    1.3184   -2.4154 H   0  0  0  0  0  0  0  0  0  0  0  0
   -0.8754    2.2836   -0.6576 C   0  0  0  0  0  0  0  0  0  0  0  0
   -1.9432    2.4476   -1.2234 O   0  0  0  0  0  0  0  0  0  0  0  0
   -0.5485    2.8840    0.5088 O   0  0  0  0  0  0  0  0  0  0  0  0
   -1.2982    3.4500    0.7477 H   0  0  0  0  0  0  0  0  0  0  0  0
    0.9686    0.0106    0.6565 C   0  0  0  0  0  0  0  0  0  0  0  0
    2.1887   -0.0327    0.7381 O   0  0  0  0  0  0  0  0  0  0  0  0
    0.2326    0.2904    1.7932 N   0  0  0  0  0  0  0  0  0  0  0  0
   -0.7735    0.3576    1.6888 H   0  0  0  0  0  0  0  0  0  0  0  0
    0.8224    0.4170    3.1193 C   0  0  0  0  0  0  0  0  0  0  0  0
    1.5618    1.2247    3.1338 H   0  0  0  0  0  0  0  0  0  0  0  0
    0.0484    0.6441    3.8581 H   0  0  0  0  0  0  0  0  0  0  0  0
    1.3148   -0.5174    3.4084 H   0  0  0  0  0  0  0  0  0  0  0  0
  1  2  1  0  0  0  0
  2  3  1  0  0  0  0
  2  4  1  0  0  0  0
  2  5  1  0  0  0  0
  5  6  2  0  0  0  0
  5  7  1  0  0  0  0
  7  8  1  0  0  0  0
  7  9  1  0  0  0  0
  9 10  1  0  0  0  0
  9 11  1  0  0  0  0
  9 18  1  0  0  0  0
 11 12  1  0  0  0  0
 11 13  1  0  0  0  0
 11 14  1  0  0  0  0
 14 15  2  0  0  0  0
 14 16  1  0  0  0  0
 16 17  1  0  0  0  0
 18 19  2  0  0  0  0
 18 20  1  0  0  0  0
 20 21  1  0  0  0  0
 20 22  1  0  0  0  0
 22 23  1  0  0  0  0
 22 24  1  0  0  0  0
 22 25  1  0  0  0  0
M  END
$$$$

  -OEChem-02102214113D

 25 24  0     1  0  0  0  0  0999 V2000
   -2.5353   -3.6740   -0.4079 H   0  0  0  0  0  0  0  0  0  0  0  0
   -2.5564   -2.6176   -0.6902 C   0  0  0  0  0  0  0  0  0  0  0  0
   -3.2684   -2.0954   -0.0466 H   0  0  0  0  0  0  0  0  0  0  0  0
   -2.8867   -2.5381   -1.7287 H   0  0  0  0  0  0  0  0  0  0  0  0
   -1.1749   -2.0098   -0.5375 C   0  0  0  0  0  0  0  0  0  0  0  0
   -0.2506   -2.6934   -0.1353 O   0  0  0  0  0  0  0  0  0  0  0  0
   -0.9713   -0.6805   -0.8513 N   0  0  0  0  0  0  0  0  0  0  0  0
   -1.7732   -0.1571   -1.1998 H   0  0  0  0  0  0  0  0  0  0  0  0
    0.3300    0.0076   -0.7741 C   0  0  1  0  0  0  0  0  0  0  0  0
    1.0365   -0.5446   -1.4049 H   0  0  0  0  0  0  0  0  0  0  0  0
    0.1781    1.4173   -1.3728 C   0  0  0  0  0  0  0  0  0  0  0  0
    1.1449    1.9285   -1.3335 H   0  0  0  0  0  0  0  0  0  0  0  0
   -0.1075    1.3396   -2.4256 H   0  0  0  0  0  0  0  0  0  0  0  0
   -0.8505    2.2683   -0.6403 C   0  0  0  0  0  0  0  0  0  0  0  0
   -2.0066    2.2185   -1.0285 O   0  0  0  0  0  0  0  0  0  0  0  0
   -0.4317    3.0636    0.3701 O   0  0  0  0  0  0  0  0  0  0  0  0
   -1.2072    3.5567    0.6772 H   0  0  0  0  0  0  0  0  0  0  0  0
    0.9716    0.0245    0.6330 C   0  0  0  0  0  0  0  0  0  0  0  0
    2.1905   -0.0020    0.7327 O   0  0  0  0  0  0  0  0  0  0  0  0
    0.2134    0.3236    1.7506 N   0  0  0  0  0  0  0  0  0  0  0  0
   -0.7945    0.3034    1.6405 H   0  0  0  0  0  0  0  0  0  0  0  0
    0.7780    0.4398    3.0889 C   0  0  0  0  0  0  0  0  0  0  0  0
    1.5374    1.2284    3.1166 H   0  0  0  0  0  0  0  0  0  0  0  0
   -0.0053    0.6908    3.8104 H   0  0  0  0  0  0  0  0  0  0  0  0
    1.2403   -0.5056    3.3919 H   0  0  0  0  0  0  0  0  0  0  0  0
  1  2  1  0  0  0  0
  2  3  1  0  0  0  0
  2  4  1  0  0  0  0
  2  5  1  0  0  0  0
  5  6  2  0  0  0  0
  5  7  1  0  0  0  0
  7  8  1  0  0  0  0
  7  9  1  0  0  0  0
  9 10  1  0  0  0  0
  9 11  1  0  0  0  0
  9 18  1  0  0  0  0
 11 12  1  0  0  0  0
 11 13  1  0  0  0  0
 11 14  1  0  0  0  0
 14 15  2  0  0  0  0
 14 16  1  0  0  0  0
 16 17  1  0  0  0  0
 18 19  2  0  0  0  0
 18 20  1  0  0  0  0
 20 21  1  0  0  0  0
 20 22  1  0  0  0  0
 22 23  1  0  0  0  0
 22 24  1  0  0  0  0
 22 25  1  0  0  0  0
M  END
$$$$

  -OEChem-02102214113D

 25 24  0     1  0  0  0  0  0999 V2000
   -2.5137   -3.6725   -0.3567 H   0  0  0  0  0  0  0  0  0  0  0  0
   -2.5416   -2.6169   -0.6412 C   0  0  0  0  0  0  0  0  0  0  0  0
   -3.2224   -2.0894    0.0308 H   0  0  0  0  0  0  0  0  0  0  0  0
   -2.9161   -2.5392   -1.6646 H   0  0  0  0  0  0  0  0  0  0  0  0
   -1.1522   -2.0150   -0.5515 C   0  0  0  0  0  0  0  0  0  0  0  0
   -0.2144   -2.7009   -0.1859 O   0  0  0  0  0  0  0  0  0  0  0  0
   -0.9555   -0.6878   -0.8773 N   0  0  0  0  0  0  0  0  0  0  0  0
   -1.7765   -0.1471   -1.1476 H   0  0  0  0  0  0  0  0  0  0  0  0
    0.3405    0.0095   -0.8016 C   0  0  1  0  0  0  0  0  0  0  0  0
    1.0541   -0.5378   -1.4285 H   0  0  0  0  0  0  0  0  0  0  0  0
    0.1923    1.4280   -1.3841 C   0  0  0  0  0  0  0  0  0  0  0  0
    1.1627    1.9327   -1.3448 H   0  0  0  0  0  0  0  0  0  0  0  0
   -0.0991    1.3634   -2.4359 H   0  0  0  0  0  0  0  0  0  0  0  0
   -0.8308    2.2812   -0.6442 C   0  0  0  0  0  0  0  0  0  0  0  0
   -2.0159    2.0504   -0.8296 O   0  0  0  0  0  0  0  0  0  0  0  0
   -0.3750    3.2621    0.1677 O   0  0  0  0  0  0  0  0  0  0  0  0
   -1.1540    3.7074    0.5331 H   0  0  0  0  0  0  0  0  0  0  0  0
    0.9647    0.0375    0.6121 C   0  0  0  0  0  0  0  0  0  0  0  0
    2.1819    0.0214    0.7307 O   0  0  0  0  0  0  0  0  0  0  0  0
    0.1847    0.3405    1.7139 N   0  0  0  0  0  0  0  0  0  0  0  0
   -0.8207    0.2846    1.5892 H   0  0  0  0  0  0  0  0  0  0  0  0
    0.7244    0.4370    3.0640 C   0  0  0  0  0  0  0  0  0  0  0  0
    1.5039    1.2048    3.1112 H   0  0  0  0  0  0  0  0  0  0  0  0
   -0.0666    0.7062    3.7703 H   0  0  0  0  0  0  0  0  0  0  0  0
    1.1552   -0.5216    3.3720 H   0  0  0  0  0  0  0  0  0  0  0  0
  1  2  1  0  0  0  0
  2  3  1  0  0  0  0
  2  4  1  0  0  0  0
  2  5  1  0  0  0  0
  5  6  2  0  0  0  0
  5  7  1  0  0  0  0
  7  8  1  0  0  0  0
  7  9  1  0  0  0  0
  9 10  1  0  0  0  0
  9 11  1  0  0  0  0
  9 18  1  0  0  0  0
 11 12  1  0  0  0  0
 11 13  1  0  0  0  0
 11 14  1  0  0  0  0
 14 15  2  0  0  0  0
 14 16  1  0  0  0  0
 16 17  1  0  0  0  0
 18 19  2  0  0  0  0
 18 20  1  0  0  0  0
 20 21  1  0  0  0  0
 20 22  1  0  0  0  0
 22 23  1  0  0  0  0
 22 24  1  0  0  0  0
 22 25  1  0  0  0  0
M  END
$$$$

  -OEChem-02102214113D

 25 24  0     1  0  0  0  0  0999 V2000
   -2.4907   -3.6807   -0.3161 H   0  0  0  0  0  0  0  0  0  0  0  0
   -2.5270   -2.6264   -0.6049 C   0  0  0  0  0  0  0  0  0  0  0  0
   -3.1788   -2.0932    0.0911 H   0  0  0  0  0  0  0  0  0  0  0  0
   -2.9421   -2.5521   -1.6129 H   0  0  0  0  0  0  0  0  0  0  0  0
   -1.1327   -2.0292   -0.5742 C   0  0  0  0  0  0  0  0  0  0  0  0
   -0.1808   -2.7211   -0.2590 O   0  0  0  0  0  0  0  0  0  0  0  0
   -0.9475   -0.7004   -0.8998 N   0  0  0  0  0  0  0  0  0  0  0  0
   -1.7839   -0.1459   -1.0812 H   0  0  0  0  0  0  0  0  0  0  0  0
    0.3428    0.0068   -0.8206 C   0  0  1  0  0  0  0  0  0  0  0  0
    1.0624   -0.5326   -1.4477 H   0  0  0  0  0  0  0  0  0  0  0  0
    0.1985    1.4358   -1.3844 C   0  0  0  0  0  0  0  0  0  0  0  0
    1.1736    1.9311   -1.3413 H   0  0  0  0  0  0  0  0  0  0  0  0
   -0.0917    1.3825   -2.4368 H   0  0  0  0  0  0  0  0  0  0  0  0
   -0.8192    2.3034   -0.6479 C   0  0  0  0  0  0  0  0  0  0  0  0
   -1.9851    1.9389   -0.6050 O   0  0  0  0  0  0  0  0  0  0  0  0
   -0.3725    3.4488   -0.0844 O   0  0  0  0  0  0  0  0  0  0  0  0
   -1.1387    3.8739    0.3292 H   0  0  0  0  0  0  0  0  0  0  0  0
    0.9552    0.0345    0.5977 C   0  0  0  0  0  0  0  0  0  0  0  0
    2.1709    0.0282    0.7304 O   0  0  0  0  0  0  0  0  0  0  0  0
    0.1603    0.3303    1.6908 N   0  0  0  0  0  0  0  0  0  0  0  0
   -0.8441    0.2908    1.5489 H   0  0  0  0  0  0  0  0  0  0  0  0
    0.6802    0.4329    3.0483 C   0  0  0  0  0  0  0  0  0  0  0  0
    1.4442    1.2152    3.1082 H   0  0  0  0  0  0  0  0  0  0  0  0
   -0.1255    0.6847    3.7444 H   0  0  0  0  0  0  0  0  0  0  0  0
    1.1245   -0.5184    3.3598 H   0  0  0  0  0  0  0  0  0  0  0  0
  1  2  1  0  0  0  0
  2  3  1  0  0  0  0
  2  4  1  0  0  0  0
  2  5  1  0  0  0  0
  5  6  2  0  0  0  0
  5  7  1  0  0  0  0
  7  8  1  0  0  0  0
  7  9  1  0  0  0  0
  9 10  1  0  0  0  0
  9 11  1  0  0  0  0
  9 18  1  0  0  0  0
 11 12  1  0  0  0  0
 11 13  1  0  0  0  0
 11 14  1  0  0  0  0
 14 15  2  0  0  0  0
 14 16  1  0  0  0  0
 16 17  1  0  0  0  0
 18 19  2  0  0  0  0
 18 20  1  0  0  0  0
 20 21  1  0  0  0  0
 20 22  1  0  0  0  0
 22 23  1  0  0  0  0
 22 24  1  0  0  0  0
 22 25  1  0  0  0  0
M  END
$$$$

  -OEChem-02102214113D

 25 24  0     1  0  0  0  0  0999 V2000
   -2.4621   -3.6913   -0.2875 H   0  0  0  0  0  0  0  0  0  0  0  0
   -2.5090   -2.6365   -0.5729 C   0  0  0  0  0  0  0  0  0  0  0  0
   -3.1299   -2.1031    0.1506 H   0  0  0  0  0  0  0  0  0  0  0  0
   -2.9661   -2.5598   -1.5624 H   0  0  0  0  0  0  0  0  0  0  0  0
   -1.1142   -2.0410   -0.6005 C   0  0  0  0  0  0  0  0  0  0  0  0
   -0.1492   -2.7378   -0.3406 O   0  0  0  0  0  0  0  0  0  0  0  0
   -0.9432   -0.7090   -0.9209 N   0  0  0  0  0  0  0  0  0  0  0  0
   -1.7889   -0.1483   -1.0181 H   0  0  0  0  0  0  0  0  0  0  0  0
    0.3425    0.0056   -0.8336 C   0  0  1  0  0  0  0  0  0  0  0  0
    1.0682   -0.5252   -1.4613 H   0  0  0  0  0  0  0  0  0  0  0  0
    0.1983    1.4426   -1.3815 C   0  0  0  0  0  0  0  0  0  0  0  0
    1.1760    1.9320   -1.3303 H   0  0  0  0  0  0  0  0  0  0  0  0
   -0.0862    1.3970   -2.4357 H   0  0  0  0  0  0  0  0  0  0  0  0
   -0.8174    2.3242   -0.6536 C   0  0  0  0  0  0  0  0  0  0  0  0
   -1.9170    1.8712   -0.3694 O   0  0  0  0  0  0  0  0  0  0  0  0
   -0.4390    3.5920   -0.3732 O   0  0  0  0  0  0  0  0  0  0  0  0
   -1.1846    4.0114    0.0823 H   0  0  0  0  0  0  0  0  0  0  0  0
    0.9443    0.0271    0.5895 C   0  0  0  0  0  0  0  0  0  0  0  0
    2.1585    0.0153    0.7342 O   0  0  0  0  0  0  0  0  0  0  0  0
    0.1399    0.3121    1.6786 N   0  0  0  0  0  0  0  0  0  0  0  0
   -0.8630    0.3329    1.5180 H   0  0  0  0  0  0  0  0  0  0  0  0
    0.6457    0.4200    3.0409 C   0  0  0  0  0  0  0  0  0  0  0  0
    1.3940    1.2167    3.1104 H   0  0  0  0  0  0  0  0  0  0  0  0
   -0.1707    0.6529    3.7309 H   0  0  0  0  0  0  0  0  0  0  0  0
    1.1054   -0.5236    3.3534 H   0  0  0  0  0  0  0  0  0  0  0  0
  1  2  1  0  0  0  0
  2  3  1  0  0  0  0
  2  4  1  0  0  0  0
  2  5  1  0  0  0  0
  5  6  2  0  0  0  0
  5  7  1  0  0  0  0
  7  8  1  0  0  0  0
  7  9  1  0  0  0  0
  9 10  1  0  0  0  0
  9 11  1  0  0  0  0
  9 18  1  0  0  0  0
 11 12  1  0  0  0  0
 11 13  1  0  0  0  0
 11 14  1  0  0  0  0
 14 15  2  0  0  0  0
 14 16  1  0  0  0  0
 16 17  1  0  0  0  0
 18 19  2  0  0  0  0
 18 20  1  0  0  0  0
 20 21  1  0  0  0  0
 20 22  1  0  0  0  0
 22 23  1  0  0  0  0
 22 24  1  0  0  0  0
 22 25  1  0  0  0  0
M  END
$$$$

  -OEChem-02102214113D

 25 24  0     1  0  0  0  0  0999 V2000
   -2.4442   -3.7070   -0.2973 H   0  0  0  0  0  0  0  0  0  0  0  0
   -2.5017   -2.6473   -0.5617 C   0  0  0  0  0  0  0  0  0  0  0  0
   -3.0901   -2.1265    0.1974 H   0  0  0  0  0  0  0  0  0  0  0  0
   -3.0006   -2.5524   -1.5291 H   0  0  0  0  0  0  0  0  0  0  0  0
   -1.1084   -2.0526   -0.6379 C   0  0  0  0  0  0  0  0  0  0  0  0
   -0.1346   -2.7563   -0.4351 O   0  0  0  0  0  0  0  0  0  0  0  0
   -0.9489   -0.7146   -0.9399 N   0  0  0  0  0  0  0  0  0  0  0  0
   -1.7977   -0.1519   -0.9659 H   0  0  0  0  0  0  0  0  0  0  0  0
    0.3360   -0.0008   -0.8337 C   0  0  1  0  0  0  0  0  0  0  0  0
    1.0650   -0.5251   -1.4630 H   0  0  0  0  0  0  0  0  0  0  0  0
    0.1991    1.4420   -1.3692 C   0  0  0  0  0  0  0  0  0  0  0  0
    1.1781    1.9270   -1.3029 H   0  0  0  0  0  0  0  0  0  0  0  0
   -0.0722    1.4032   -2.4271 H   0  0  0  0  0  0  0  0  0  0  0  0
   -0.8189    2.3343   -0.6558 C   0  0  0  0  0  0  0  0  0  0  0  0
   -1.8132    1.8423   -0.1404 O   0  0  0  0  0  0  0  0  0  0  0  0
   -0.5610    3.6618   -0.6558 O   0  0  0  0  0  0  0  0  0  0  0  0
   -1.2842    4.0860   -0.1697 H   0  0  0  0  0  0  0  0  0  0  0  0
    0.9321    0.0018    0.5924 C   0  0  0  0  0  0  0  0  0  0  0  0
    2.1457   -0.0179    0.7422 O   0  0  0  0  0  0  0  0  0  0  0  0
    0.1254    0.2711    1.6834 N   0  0  0  0  0  0  0  0  0  0  0  0
   -0.8667    0.4017    1.5028 H   0  0  0  0  0  0  0  0  0  0  0  0
    0.6318    0.4268    3.0407 C   0  0  0  0  0  0  0  0  0  0  0  0
    1.3137    1.2815    3.0995 H   0  0  0  0  0  0  0  0  0  0  0  0
   -0.1958    0.5946    3.7365 H   0  0  0  0  0  0  0  0  0  0  0  0
    1.1688   -0.4749    3.3538 H   0  0  0  0  0  0  0  0  0  0  0  0
  1  2  1  0  0  0  0
  2  3  1  0  0  0  0
  2  4  1  0  0  0  0
  2  5  1  0  0  0  0
  5  6  2  0  0  0  0
  5  7  1  0  0  0  0
  7  8  1  0  0  0  0
  7  9  1  0  0  0  0
  9 10  1  0  0  0  0
  9 11  1  0  0  0  0
  9 18  1  0  0  0  0
 11 12  1  0  0  0  0
 11 13  1  0  0  0  0
 11 14  1  0  0  0  0
 14 15  2  0  0  0  0
 14 16  1  0  0  0  0
 16 17  1  0  0  0  0
 18 19  2  0  0  0  0
 18 20  1  0  0  0  0
 20 21  1  0  0  0  0
 20 22  1  0  0  0  0
 22 23  1  0  0  0  0
 22 24  1  0  0  0  0
 22 25  1  0  0  0  0
M  END
$$$$

  -OEChem-02102214113D

 25 24  0     1  0  0  0  0  0999 V2000
   -2.4385   -3.7167   -0.3265 H   0  0  0  0  0  0  0  0  0  0  0  0
   -2.5024   -2.6529   -0.5727 C   0  0  0  0  0  0  0  0  0  0  0  0
   -3.0764   -2.1454    0.2059 H   0  0  0  0  0  0  0  0  0  0  0  0
   -3.0194   -2.5436   -1.5290 H   0  0  0  0  0  0  0  0  0  0  0  0
   -1.1112   -2.0553   -0.6644 C   0  0  0  0  0  0  0  0  0  0  0  0
   -0.1334   -2.7627   -0.4965 O   0  0  0  0  0  0  0  0  0  0  0  0
   -0.9591   -0.7112   -0.9431 N   0  0  0  0  0  0  0  0  0  0  0  0
   -1.8092   -0.1516   -0.9252 H   0  0  0  0  0  0  0  0  0  0  0  0
    0.3241    0.0015   -0.8140 C   0  0  1  0  0  0  0  0  0  0  0  0
    1.0563   -0.5214   -1.4411 H   0  0  0  0  0  0  0  0  0  0  0  0
    0.1927    1.4404   -1.3604 C   0  0  0  0  0  0  0  0  0  0  0  0
    1.1688    1.9286   -1.2801 H   0  0  0  0  0  0  0  0  0  0  0  0
   -0.0575    1.3900   -2.4231 H   0  0  0  0  0  0  0  0  0  0  0  0
   -0.8398    2.3429   -0.6812 C   0  0  0  0  0  0  0  0  0  0  0  0
   -1.6979    1.8649    0.0478 O   0  0  0  0  0  0  0  0  0  0  0  0
   -0.7473    3.6646   -0.9520 O   0  0  0  0  0  0  0  0  0  0  0  0
   -1.4519    4.1013   -0.4497 H   0  0  0  0  0  0  0  0  0  0  0  0
    0.9234   -0.0119    0.6119 C   0  0  0  0  0  0  0  0  0  0  0  0
    2.1376   -0.0440    0.7555 O   0  0  0  0  0  0  0  0  0  0  0  0
    0.1254    0.2402    1.7130 N   0  0  0  0  0  0  0  0  0  0  0  0
   -0.8499    0.4635    1.5266 H   0  0  0  0  0  0  0  0  0  0  0  0
    0.6499    0.4206    3.0605 C   0  0  0  0  0  0  0  0  0  0  0  0
    1.2792    1.3152    3.1098 H   0  0  0  0  0  0  0  0  0  0  0  0
   -0.1715    0.5323    3.7744 H   0  0  0  0  0  0  0  0  0  0  0  0
    1.2478   -0.4476    3.3574 H   0  0  0  0  0  0  0  0  0  0  0  0
  1  2  1  0  0  0  0
  2  3  1  0  0  0  0
  2  4  1  0  0  0  0
  2  5  1  0  0  0  0
  5  6  2  0  0  0  0
  5  7  1  0  0  0  0
  7  8  1  0  0  0  0
  7  9  1  0  0  0  0
  9 10  1  0  0  0  0
  9 11  1  0  0  0  0
  9 18  1  0  0  0  0
 11 12  1  0  0  0  0
 11 13  1  0  0  0  0
 11 14  1  0  0  0  0
 14 15  2  0  0  0  0
 14 16  1  0  0  0  0
 16 17  1  0  0  0  0
 18 19  2  0  0  0  0
 18 20  1  0  0  0  0
 20 21  1  0  0  0  0
 20 22  1  0  0  0  0
 22 23  1  0  0  0  0
 22 24  1  0  0  0  0
 22 25  1  0  0  0  0
M  END
$$$$

  -OEChem-02102214113D

 25 24  0     1  0  0  0  0  0999 V2000
   -2.4364   -3.7254   -0.3630 H   0  0  0  0  0  0  0  0  0  0  0  0
   -2.5057   -2.6592   -0.5972 C   0  0  0  0  0  0  0  0  0  0  0  0
   -3.0871   -2.1648    0.1845 H   0  0  0  0  0  0  0  0  0  0  0  0
   -3.0186   -2.5419   -1.5549 H   0  0  0  0  0  0  0  0  0  0  0  0
   -1.1178   -2.0517   -0.6749 C   0  0  0  0  0  0  0  0  0  0  0  0
   -0.1365   -2.7563   -0.5157 O   0  0  0  0  0  0  0  0  0  0  0  0
   -0.9734   -0.7019   -0.9304 N   0  0  0  0  0  0  0  0  0  0  0  0
   -1.8271   -0.1498   -0.9077 H   0  0  0  0  0  0  0  0  0  0  0  0
    0.3062    0.0137   -0.7839 C   0  0  1  0  0  0  0  0  0  0  0  0
    1.0391   -0.5115   -1.4084 H   0  0  0  0  0  0  0  0  0  0  0  0
    0.1790    1.4426   -1.3558 C   0  0  0  0  0  0  0  0  0  0  0  0
    1.1500    1.9387   -1.2645 H   0  0  0  0  0  0  0  0  0  0  0  0
   -0.0491    1.3704   -2.4223 H   0  0  0  0  0  0  0  0  0  0  0  0
   -0.8717    2.3526   -0.7175 C   0  0  0  0  0  0  0  0  0  0  0  0
   -1.5704    1.9492    0.2006 O   0  0  0  0  0  0  0  0  0  0  0  0
   -0.9751    3.5969   -1.2372 O   0  0  0  0  0  0  0  0  0  0  0  0
   -1.6595    4.0553   -0.7260 H   0  0  0  0  0  0  0  0  0  0  0  0
    0.9183   -0.0098    0.6377 C   0  0  0  0  0  0  0  0  0  0  0  0
    2.1343   -0.0505    0.7648 O   0  0  0  0  0  0  0  0  0  0  0  0
    0.1378    0.2234    1.7549 N   0  0  0  0  0  0  0  0  0  0  0  0
   -0.8255    0.5019    1.5791 H   0  0  0  0  0  0  0  0  0  0  0  0
    0.6893    0.4013    3.0920 C   0  0  0  0  0  0  0  0  0  0  0  0
    1.3204    1.2951    3.1307 H   0  0  0  0  0  0  0  0  0  0  0  0
   -0.1179    0.5125    3.8222 H   0  0  0  0  0  0  0  0  0  0  0  0
    1.2920   -0.4681    3.3755 H   0  0  0  0  0  0  0  0  0  0  0  0
  1  2  1  0  0  0  0
  2  3  1  0  0  0  0
  2  4  1  0  0  0  0
  2  5  1  0  0  0  0
  5  6  2  0  0  0  0
  5  7  1  0  0  0  0
  7  8  1  0  0  0  0
  7  9  1  0  0  0  0
  9 10  1  0  0  0  0
  9 11  1  0  0  0  0
  9 18  1  0  0  0  0
 11 12  1  0  0  0  0
 11 13  1  0  0  0  0
 11 14  1  0  0  0  0
 14 15  2  0  0  0  0
 14 16  1  0  0  0  0
 16 17  1  0  0  0  0
 18 19  2  0  0  0  0
 18 20  1  0  0  0  0
 20 21  1  0  0  0  0
 20 22  1  0  0  0  0
 22 23  1  0  0  0  0
 22 24  1  0  0  0  0
 22 25  1  0  0  0  0
M  END
$$$$

  -OEChem-02102214113D

 25 24  0     1  0  0  0  0  0999 V2000
   -2.4414   -3.7338   -0.4044 H   0  0  0  0  0  0  0  0  0  0  0  0
   -2.5130   -2.6647   -0.6239 C   0  0  0  0  0  0  0  0  0  0  0  0
   -3.1102   -2.1854    0.1553 H   0  0  0  0  0  0  0  0  0  0  0  0
   -3.0107   -2.5364   -1.5882 H   0  0  0  0  0  0  0  0  0  0  0  0
   -1.1277   -2.0484   -0.6698 C   0  0  0  0  0  0  0  0  0  0  0  0
   -0.1453   -2.7497   -0.5041 O   0  0  0  0  0  0  0  0  0  0  0  0
   -0.9877   -0.6951   -0.9092 N   0  0  0  0  0  0  0  0  0  0  0  0
   -1.8451   -0.1499   -0.9129 H   0  0  0  0  0  0  0  0  0  0  0  0
    0.2889    0.0242   -0.7563 C   0  0  1  0  0  0  0  0  0  0  0  0
    1.0210   -0.5045   -1.3789 H   0  0  0  0  0  0  0  0  0  0  0  0
    0.1640    1.4427   -1.3532 C   0  0  0  0  0  0  0  0  0  0  0  0
    1.1310    1.9461   -1.2617 H   0  0  0  0  0  0  0  0  0  0  0  0
   -0.0517    1.3475   -2.4209 H   0  0  0  0  0  0  0  0  0  0  0  0
   -0.8992    2.3575   -0.7445 C   0  0  0  0  0  0  0  0  0  0  0  0
   -1.4186    2.0852    0.3262 O   0  0  0  0  0  0  0  0  0  0  0  0
   -1.2155    3.4589   -1.4627 O   0  0  0  0  0  0  0  0  0  0  0  0
   -1.8731    3.9475   -0.9442 H   0  0  0  0  0  0  0  0  0  0  0  0
    0.9152   -0.0051    0.6602 C   0  0  0  0  0  0  0  0  0  0  0  0
    2.1328   -0.0564    0.7707 O   0  0  0  0  0  0  0  0  0  0  0  0
    0.1520    0.2139    1.7922 N   0  0  0  0  0  0  0  0  0  0  0  0
   -0.7976    0.5421    1.6287 H   0  0  0  0  0  0  0  0  0  0  0  0
    0.7306    0.3868    3.1185 C   0  0  0  0  0  0  0  0  0  0  0  0
    1.3503    1.2888    3.1522 H   0  0  0  0  0  0  0  0  0  0  0  0
   -0.0618    0.4798    3.8671 H   0  0  0  0  0  0  0  0  0  0  0  0
    1.3508   -0.4771    3.3805 H   0  0  0  0  0  0  0  0  0  0  0  0
  1  2  1  0  0  0  0
  2  3  1  0  0  0  0
  2  4  1  0  0  0  0
  2  5  1  0  0  0  0
  5  6  2  0  0  0  0
  5  7  1  0  0  0  0
  7  8  1  0  0  0  0
  7  9  1  0  0  0  0
  9 10  1  0  0  0  0
  9 11  1  0  0  0  0
  9 18  1  0  0  0  0
 11 12  1  0  0  0  0
 11 13  1  0  0  0  0
 11 14  1  0  0  0  0
 14 15  2  0  0  0  0
 14 16  1  0  0  0  0
 16 17  1  0  0  0  0
 18 19  2  0  0  0  0
 18 20  1  0  0  0  0
 20 21  1  0  0  0  0
 20 22  1  0  0  0  0
 22 23  1  0  0  0  0
 22 24  1  0  0  0  0
 22 25  1  0  0  0  0
M  END
$$$$

  -OEChem-02102214113D

 25 24  0     1  0  0  0  0  0999 V2000
   -2.4570   -3.7375   -0.4384 H   0  0  0  0  0  0  0  0  0  0  0  0
   -2.5251   -2.6667   -0.6509 C   0  0  0  0  0  0  0  0  0  0  0  0
   -3.1464   -2.1955    0.1143 H   0  0  0  0  0  0  0  0  0  0  0  0
   -2.9943   -2.5314   -1.6283 H   0  0  0  0  0  0  0  0  0  0  0  0
   -1.1407   -2.0464   -0.6501 C   0  0  0  0  0  0  0  0  0  0  0  0
   -0.1627   -2.7445   -0.4503 O   0  0  0  0  0  0  0  0  0  0  0  0
   -0.9962   -0.6929   -0.8858 N   0  0  0  0  0  0  0  0  0  0  0  0
   -1.8522   -0.1521   -0.9630 H   0  0  0  0  0  0  0  0  0  0  0  0
    0.2805    0.0276   -0.7379 C   0  0  1  0  0  0  0  0  0  0  0  0
    1.0092   -0.5052   -1.3613 H   0  0  0  0  0  0  0  0  0  0  0  0
    0.1519    1.4385   -1.3515 C   0  0  0  0  0  0  0  0  0  0  0  0
    1.1158    1.9483   -1.2647 H   0  0  0  0  0  0  0  0  0  0  0  0
   -0.0610    1.3291   -2.4184 H   0  0  0  0  0  0  0  0  0  0  0  0
   -0.9161    2.3521   -0.7508 C   0  0  0  0  0  0  0  0  0  0  0  0
   -1.2366    2.2493    0.4210 O   0  0  0  0  0  0  0  0  0  0  0  0
   -1.4699    3.2539   -1.5931 O   0  0  0  0  0  0  0  0  0  0  0  0
   -2.0929    3.7768   -1.0651 H   0  0  0  0  0  0  0  0  0  0  0  0
    0.9187   -0.0011    0.6740 C   0  0  0  0  0  0  0  0  0  0  0  0
    2.1369   -0.0650    0.7715 O   0  0  0  0  0  0  0  0  0  0  0  0
    0.1686    0.2151    1.8151 N   0  0  0  0  0  0  0  0  0  0  0  0
   -0.7701    0.5758    1.6604 H   0  0  0  0  0  0  0  0  0  0  0  0
    0.7662    0.3872    3.1331 C   0  0  0  0  0  0  0  0  0  0  0  0
    1.3835    1.2913    3.1589 H   0  0  0  0  0  0  0  0  0  0  0  0
   -0.0156    0.4760    3.8933 H   0  0  0  0  0  0  0  0  0  0  0  0
    1.3932   -0.4750    3.3844 H   0  0  0  0  0  0  0  0  0  0  0  0
  1  2  1  0  0  0  0
  2  3  1  0  0  0  0
  2  4  1  0  0  0  0
  2  5  1  0  0  0  0
  5  6  2  0  0  0  0
  5  7  1  0  0  0  0
  7  8  1  0  0  0  0
  7  9  1  0  0  0  0
  9 10  1  0  0  0  0
  9 11  1  0  0  0  0
  9 18  1  0  0  0  0
 11 12  1  0  0  0  0
 11 13  1  0  0  0  0
 11 14  1  0  0  0  0
 14 15  2  0  0  0  0
 14 16  1  0  0  0  0
 16 17  1  0  0  0  0
 18 19  2  0  0  0  0
 18 20  1  0  0  0  0
 20 21  1  0  0  0  0
 20 22  1  0  0  0  0
 22 23  1  0  0  0  0
 22 24  1  0  0  0  0
 22 25  1  0  0  0  0
M  END
$$$$

  -OEChem-02102214113D

 25 24  0     1  0  0  0  0  0999 V2000
   -2.4816   -3.7356   -0.4698 H   0  0  0  0  0  0  0  0  0  0  0  0
   -2.5404   -2.6652   -0.6877 C   0  0  0  0  0  0  0  0  0  0  0  0
   -3.2024   -2.1942    0.0427 H   0  0  0  0  0  0  0  0  0  0  0  0
   -2.9576   -2.5327   -1.6888 H   0  0  0  0  0  0  0  0  0  0  0  0
   -1.1591   -2.0419   -0.6140 C   0  0  0  0  0  0  0  0  0  0  0  0
   -0.1940   -2.7367   -0.3509 O   0  0  0  0  0  0  0  0  0  0  0  0
   -1.0015   -0.6915   -0.8607 N   0  0  0  0  0  0  0  0  0  0  0  0
   -1.8422   -0.1590   -1.0628 H   0  0  0  0  0  0  0  0  0  0  0  0
    0.2800    0.0236   -0.7271 C   0  0  1  0  0  0  0  0  0  0  0  0
    1.0028   -0.5163   -1.3511 H   0  0  0  0  0  0  0  0  0  0  0  0
    0.1453    1.4288   -1.3508 C   0  0  0  0  0  0  0  0  0  0  0  0
    1.1086    1.9420   -1.2751 H   0  0  0  0  0  0  0  0  0  0  0  0
   -0.0759    1.3141   -2.4156 H   0  0  0  0  0  0  0  0  0  0  0  0
   -0.9200    2.3359   -0.7372 C   0  0  0  0  0  0  0  0  0  0  0  0
   -1.0326    2.4276    0.4722 O   0  0  0  0  0  0  0  0  0  0  0  0
   -1.7249    2.9889   -1.6068 O   0  0  0  0  0  0  0  0  0  0  0  0
   -2.3131    3.5432   -1.0704 H   0  0  0  0  0  0  0  0  0  0  0  0
    0.9261    0.0029    0.6815 C   0  0  0  0  0  0  0  0  0  0  0  0
    2.1443   -0.0751    0.7707 O   0  0  0  0  0  0  0  0  0  0  0  0
    0.1858    0.2322    1.8269 N   0  0  0  0  0  0  0  0  0  0  0  0
   -0.7497    0.6016    1.6790 H   0  0  0  0  0  0  0  0  0  0  0  0
    0.7974    0.4075    3.1381 C   0  0  0  0  0  0  0  0  0  0  0  0
    1.4328    1.2991    3.1487 H   0  0  0  0  0  0  0  0  0  0  0  0
    0.0241    0.5218    3.9037 H   0  0  0  0  0  0  0  0  0  0  0  0
    1.4087   -0.4644    3.3946 H   0  0  0  0  0  0  0  0  0  0  0  0
  1  2  1  0  0  0  0
  2  3  1  0  0  0  0
  2  4  1  0  0  0  0
  2  5  1  0  0  0  0
  5  6  2  0  0  0  0
  5  7  1  0  0  0  0
  7  8  1  0  0  0  0
  7  9  1  0  0  0  0
  9 10  1  0  0  0  0
  9 11  1  0  0  0  0
  9 18  1  0  0  0  0
 11 12  1  0  0  0  0
 11 13  1  0  0  0  0
 11 14  1  0  0  0  0
 14 15  2  0  0  0  0
 14 16  1  0  0  0  0
 16 17  1  0  0  0  0
 18 19  2  0  0  0  0
 18 20  1  0  0  0  0
 20 21  1  0  0  0  0
 20 22  1  0  0  0  0
 22 23  1  0  0  0  0
 22 24  1  0  0  0  0
 22 25  1  0  0  0  0
M  END
$$$$

  -OEChem-02102214113D

 25 24  0     1  0  0  0  0  0999 V2000
   -2.5130   -3.7253   -0.5087 H   0  0  0  0  0  0  0  0  0  0  0  0
   -2.5571   -2.6555   -0.7318 C   0  0  0  0  0  0  0  0  0  0  0  0
   -3.2614   -2.1823   -0.0439 H   0  0  0  0  0  0  0  0  0  0  0  0
   -2.9126   -2.5252   -1.7566 H   0  0  0  0  0  0  0  0  0  0  0  0
   -1.1823   -2.0336   -0.5755 C   0  0  0  0  0  0  0  0  0  0  0  0
   -0.2401   -2.7245   -0.2315 O   0  0  0  0  0  0  0  0  0  0  0  0
   -1.0034   -0.6899   -0.8423 N   0  0  0  0  0  0  0  0  0  0  0  0
   -1.8126   -0.1735   -1.1760 H   0  0  0  0  0  0  0  0  0  0  0  0
    0.2877    0.0109   -0.7249 C   0  0  1  0  0  0  0  0  0  0  0  0
    1.0030   -0.5377   -1.3497 H   0  0  0  0  0  0  0  0  0  0  0  0
    0.1459    1.4123   -1.3515 C   0  0  0  0  0  0  0  0  0  0  0  0
    1.1090    1.9278   -1.2890 H   0  0  0  0  0  0  0  0  0  0  0  0
   -0.0927    1.3013   -2.4129 H   0  0  0  0  0  0  0  0  0  0  0  0
   -0.9122    2.3037   -0.7070 C   0  0  0  0  0  0  0  0  0  0  0  0
   -0.8288    2.6000    0.4710 O   0  0  0  0  0  0  0  0  0  0  0  0
   -1.9479    2.6770   -1.4940 O   0  0  0  0  0  0  0  0  0  0  0  0
   -2.5056    3.2546   -0.9493 H   0  0  0  0  0  0  0  0  0  0  0  0
    0.9375    0.0022    0.6819 C   0  0  0  0  0  0  0  0  0  0  0  0
    2.1554   -0.0844    0.7679 O   0  0  0  0  0  0  0  0  0  0  0  0
    0.2022    0.2576    1.8250 N   0  0  0  0  0  0  0  0  0  0  0  0
   -0.7432    0.5992    1.6807 H   0  0  0  0  0  0  0  0  0  0  0  0
    0.8172    0.4531    3.1316 C   0  0  0  0  0  0  0  0  0  0  0  0
    1.4603    1.3394    3.1233 H   0  0  0  0  0  0  0  0  0  0  0  0
    0.0464    0.5892    3.8960 H   0  0  0  0  0  0  0  0  0  0  0  0
    1.4215   -0.4188    3.4043 H   0  0  0  0  0  0  0  0  0  0  0  0
  1  2  1  0  0  0  0
  2  3  1  0  0  0  0
  2  4  1  0  0  0  0
  2  5  1  0  0  0  0
  5  6  2  0  0  0  0
  5  7  1  0  0  0  0
  7  8  1  0  0  0  0
  7  9  1  0  0  0  0
  9 10  1  0  0  0  0
  9 11  1  0  0  0  0
  9 18  1  0  0  0  0
 11 12  1  0  0  0  0
 11 13  1  0  0  0  0
 11 14  1  0  0  0  0
 14 15  2  0  0  0  0
 14 16  1  0  0  0  0
 16 17  1  0  0  0  0
 18 19  2  0  0  0  0
 18 20  1  0  0  0  0
 20 21  1  0  0  0  0
 20 22  1  0  0  0  0
 22 23  1  0  0  0  0
 22 24  1  0  0  0  0
 22 25  1  0  0  0  0
M  END
$$$$

  -OEChem-02102214113D

 25 24  0     1  0  0  0  0  0999 V2000
   -2.5366   -3.7126   -0.5079 H   0  0  0  0  0  0  0  0  0  0  0  0
   -2.5664   -2.6467   -0.7514 C   0  0  0  0  0  0  0  0  0  0  0  0
   -3.2880   -2.1560   -0.0941 H   0  0  0  0  0  0  0  0  0  0  0  0
   -2.8908   -2.5327   -1.7884 H   0  0  0  0  0  0  0  0  0  0  0  0
   -1.1918   -2.0315   -0.5666 C   0  0  0  0  0  0  0  0  0  0  0  0
   -0.2651   -2.7223   -0.1831 O   0  0  0  0  0  0  0  0  0  0  0  0
   -0.9952   -0.6937   -0.8501 N   0  0  0  0  0  0  0  0  0  0  0  0
   -1.7880   -0.1790   -1.2262 H   0  0  0  0  0  0  0  0  0  0  0  0
    0.3029   -0.0046   -0.7394 C   0  0  1  0  0  0  0  0  0  0  0  0
    1.0158   -0.5540   -1.3659 H   0  0  0  0  0  0  0  0  0  0  0  0
    0.1563    1.4010   -1.3513 C   0  0  0  0  0  0  0  0  0  0  0  0
    1.1196    1.9171   -1.2959 H   0  0  0  0  0  0  0  0  0  0  0  0
   -0.1012    1.3083   -2.4097 H   0  0  0  0  0  0  0  0  0  0  0  0
   -0.8951    2.2659   -0.6663 C   0  0  0  0  0  0  0  0  0  0  0  0
   -0.6587    2.7605    0.4207 O   0  0  0  0  0  0  0  0  0  0  0  0
   -2.0933    2.3719   -1.2876 O   0  0  0  0  0  0  0  0  0  0  0  0
   -2.6267    2.9681   -0.7379 H   0  0  0  0  0  0  0  0  0  0  0  0
    0.9458   -0.0040    0.6695 C   0  0  0  0  0  0  0  0  0  0  0  0
    2.1637   -0.0782    0.7623 O   0  0  0  0  0  0  0  0  0  0  0  0
    0.2027    0.2734    1.8028 N   0  0  0  0  0  0  0  0  0  0  0  0
   -0.7637    0.5455    1.6583 H   0  0  0  0  0  0  0  0  0  0  0  0
    0.8058    0.5037    3.1092 C   0  0  0  0  0  0  0  0  0  0  0  0
    1.4519    1.3874    3.0814 H   0  0  0  0  0  0  0  0  0  0  0  0
    0.0282    0.6648    3.8618 H   0  0  0  0  0  0  0  0  0  0  0  0
    1.4044   -0.3618    3.4122 H   0  0  0  0  0  0  0  0  0  0  0  0
  1  2  1  0  0  0  0
  2  3  1  0  0  0  0
  2  4  1  0  0  0  0
  2  5  1  0  0  0  0
  5  6  2  0  0  0  0
  5  7  1  0  0  0  0
  7  8  1  0  0  0  0
  7  9  1  0  0  0  0
  9 10  1  0  0  0  0
  9 11  1  0  0  0  0
  9 18  1  0  0  0  0
 11 12  1  0  0  0  0
 11 13  1  0  0  0  0
 11 14  1  0  0  0  0
 14 15  2  0  0  0  0
 14 16  1  0  0  0  0
 16 17  1  0  0  0  0
 18 19  2  0  0  0  0
 18 20  1  0  0  0  0
 20 21  1  0  0  0  0
 20 22  1  0  0  0  0
 22 23  1  0  0  0  0
 22 24  1  0  0  0  0
 22 25  1  0  0  0  0
M  END
$$$$

  -OEChem-02102214113D

 25 24  0     1  0  0  0  0  0999 V2000
   -2.5349   -3.7003   -0.4454 H   0  0  0  0  0  0  0  0  0  0  0  0
   -2.5580   -2.6422   -0.7217 C   0  0  0  0  0  0  0  0  0  0  0  0
   -3.2628   -2.1237   -0.0677 H   0  0  0  0  0  0  0  0  0  0  0  0
   -2.8986   -2.5564   -1.7564 H   0  0  0  0  0  0  0  0  0  0  0  0
   -1.1745   -2.0361   -0.5791 C   0  0  0  0  0  0  0  0  0  0  0  0
   -0.2435   -2.7289   -0.2098 O   0  0  0  0  0  0  0  0  0  0  0  0
   -0.9759   -0.7014   -0.8740 N   0  0  0  0  0  0  0  0  0  0  0  0
   -1.7816   -0.1718   -1.2022 H   0  0  0  0  0  0  0  0  0  0  0  0
    0.3206   -0.0087   -0.7685 C   0  0  1  0  0  0  0  0  0  0  0  0
    1.0376   -0.5514   -1.3962 H   0  0  0  0  0  0  0  0  0  0  0  0
    0.1670    1.4047   -1.3589 C   0  0  0  0  0  0  0  0  0  0  0  0
    1.1303    1.9224   -1.3069 H   0  0  0  0  0  0  0  0  0  0  0  0
   -0.1072    1.3311   -2.4145 H   0  0  0  0  0  0  0  0  0  0  0  0
   -0.8805    2.2442   -0.6389 C   0  0  0  0  0  0  0  0  0  0  0  0
   -0.5470    2.9331    0.3076 O   0  0  0  0  0  0  0  0  0  0  0  0
   -2.1626    2.1256   -1.0614 O   0  0  0  0  0  0  0  0  0  0  0  0
   -2.6759    2.7463   -0.5190 H   0  0  0  0  0  0  0  0  0  0  0  0
    0.9515    0.0003    0.6443 C   0  0  0  0  0  0  0  0  0  0  0  0
    2.1693   -0.0468    0.7511 O   0  0  0  0  0  0  0  0  0  0  0  0
    0.1903    0.2853    1.7636 N   0  0  0  0  0  0  0  0  0  0  0  0
   -0.8016    0.4406    1.6235 H   0  0  0  0  0  0  0  0  0  0  0  0
    0.7638    0.5166    3.0830 C   0  0  0  0  0  0  0  0  0  0  0  0
    1.4380    1.3793    3.0607 H   0  0  0  0  0  0  0  0  0  0  0  0
   -0.0287    0.7152    3.8107 H   0  0  0  0  0  0  0  0  0  0  0  0
    1.3260   -0.3626    3.4150 H   0  0  0  0  0  0  0  0  0  0  0  0
  1  2  1  0  0  0  0
  2  3  1  0  0  0  0
  2  4  1  0  0  0  0
  2  5  1  0  0  0  0
  5  6  2  0  0  0  0
  5  7  1  0  0  0  0
  7  8  1  0  0  0  0
  7  9  1  0  0  0  0
  9 10  1  0  0  0  0
  9 11  1  0  0  0  0
  9 18  1  0  0  0  0
 11 12  1  0  0  0  0
 11 13  1  0  0  0  0
 11 14  1  0  0  0  0
 14 15  2  0  0  0  0
 14 16  1  0  0  0  0
 16 17  1  0  0  0  0
 18 19  2  0  0  0  0
 18 20  1  0  0  0  0
 20 21  1  0  0  0  0
 20 22  1  0  0  0  0
 22 23  1  0  0  0  0
 22 24  1  0  0  0  0
 22 25  1  0  0  0  0
M  END
$$$$

  -OEChem-02102214113D

 25 24  0     1  0  0  0  0  0999 V2000
   -2.5007   -3.7091   -0.4002 H   0  0  0  0  0  0  0  0  0  0  0  0
   -2.5347   -2.6515   -0.6770 C   0  0  0  0  0  0  0  0  0  0  0  0
   -3.2260   -2.1344   -0.0075 H   0  0  0  0  0  0  0  0  0  0  0  0
   -2.8998   -2.5687   -1.7035 H   0  0  0  0  0  0  0  0  0  0  0  0
   -1.1511   -2.0393   -0.5685 C   0  0  0  0  0  0  0  0  0  0  0  0
   -0.2105   -2.7229   -0.2065 O   0  0  0  0  0  0  0  0  0  0  0  0
   -0.9636   -0.7075   -0.8805 N   0  0  0  0  0  0  0  0  0  0  0  0
   -1.7850   -0.1732   -1.1608 H   0  0  0  0  0  0  0  0  0  0  0  0
    0.3263   -0.0017   -0.7902 C   0  0  1  0  0  0  0  0  0  0  0  0
    1.0463   -0.5400   -1.4181 H   0  0  0  0  0  0  0  0  0  0  0  0
    0.1651    1.4150   -1.3715 C   0  0  0  0  0  0  0  0  0  0  0  0
    1.1306    1.9298   -1.3307 H   0  0  0  0  0  0  0  0  0  0  0  0
   -0.1237    1.3446   -2.4232 H   0  0  0  0  0  0  0  0  0  0  0  0
   -0.8752    2.2544   -0.6388 C   0  0  0  0  0  0  0  0  0  0  0  0
   -0.4974    3.1348    0.1120 O   0  0  0  0  0  0  0  0  0  0  0  0
   -2.1830    1.9646   -0.8518 O   0  0  0  0  0  0  0  0  0  0  0  0
   -2.6799    2.6265   -0.3433 H   0  0  0  0  0  0  0  0  0  0  0  0
    0.9532    0.0246    0.6231 C   0  0  0  0  0  0  0  0  0  0  0  0
    2.1708    0.0045    0.7373 O   0  0  0  0  0  0  0  0  0  0  0  0
    0.1785    0.3146    1.7319 N   0  0  0  0  0  0  0  0  0  0  0  0
   -0.8273    0.3292    1.6049 H   0  0  0  0  0  0  0  0  0  0  0  0
    0.7283    0.4845    3.0707 C   0  0  0  0  0  0  0  0  0  0  0  0
    1.4550    1.3037    3.0847 H   0  0  0  0  0  0  0  0  0  0  0  0
   -0.0698    0.7201    3.7809 H   0  0  0  0  0  0  0  0  0  0  0  0
    1.2255   -0.4342    3.3992 H   0  0  0  0  0  0  0  0  0  0  0  0
  1  2  1  0  0  0  0
  2  3  1  0  0  0  0
  2  4  1  0  0  0  0
  2  5  1  0  0  0  0
  5  6  2  0  0  0  0
  5  7  1  0  0  0  0
  7  8  1  0  0  0  0
  7  9  1  0  0  0  0
  9 10  1  0  0  0  0
  9 11  1  0  0  0  0
  9 18  1  0  0  0  0
 11 12  1  0  0  0  0
 11 13  1  0  0  0  0
 11 14  1  0  0  0  0
 14 15  2  0  0  0  0
 14 16  1  0  0  0  0
 16 17  1  0  0  0  0
 18 19  2  0  0  0  0
 18 20  1  0  0  0  0
 20 21  1  0  0  0  0
 20 22  1  0  0  0  0
 22 23  1  0  0  0  0
 22 24  1  0  0  0  0
 22 25  1  0  0  0  0
M  END
$$$$

  -OEChem-02102214113D

 25 24  0     1  0  0  0  0  0999 V2000
   -2.4647   -3.7241   -0.3567 H   0  0  0  0  0  0  0  0  0  0  0  0
   -2.5128   -2.6667   -0.6326 C   0  0  0  0  0  0  0  0  0  0  0  0
   -3.1817   -2.1517    0.0609 H   0  0  0  0  0  0  0  0  0  0  0  0
   -2.9146   -2.5860   -1.6455 H   0  0  0  0  0  0  0  0  0  0  0  0
   -1.1281   -2.0498   -0.5742 C   0  0  0  0  0  0  0  0  0  0  0  0
   -0.1731   -2.7304   -0.2453 O   0  0  0  0  0  0  0  0  0  0  0  0
   -0.9554   -0.7166   -0.8896 N   0  0  0  0  0  0  0  0  0  0  0  0
   -1.7929   -0.1748   -1.0993 H   0  0  0  0  0  0  0  0  0  0  0  0
    0.3276    0.0020   -0.8050 C   0  0  1  0  0  0  0  0  0  0  0  0
    1.0510   -0.5291   -1.4351 H   0  0  0  0  0  0  0  0  0  0  0  0
    0.1669    1.4271   -1.3709 C   0  0  0  0  0  0  0  0  0  0  0  0
    1.1373    1.9331   -1.3322 H   0  0  0  0  0  0  0  0  0  0  0  0
   -0.1275    1.3644   -2.4213 H   0  0  0  0  0  0  0  0  0  0  0  0
   -0.8659    2.2780   -0.6360 C   0  0  0  0  0  0  0  0  0  0  0  0
   -0.4943    3.3121   -0.1125 O   0  0  0  0  0  0  0  0  0  0  0  0
   -2.1582    1.8627   -0.6292 O   0  0  0  0  0  0  0  0  0  0  0  0
   -2.6487    2.5638   -0.1686 H   0  0  0  0  0  0  0  0  0  0  0  0
    0.9489    0.0310    0.6097 C   0  0  0  0  0  0  0  0  0  0  0  0
    2.1657    0.0296    0.7315 O   0  0  0  0  0  0  0  0  0  0  0  0
    0.1620    0.3132    1.7119 N   0  0  0  0  0  0  0  0  0  0  0  0
   -0.8431    0.2757    1.5815 H   0  0  0  0  0  0  0  0  0  0  0  0
    0.6986    0.4489    3.0600 C   0  0  0  0  0  0  0  0  0  0  0  0
    1.4380    1.2560    3.0983 H   0  0  0  0  0  0  0  0  0  0  0  0
   -0.1039    0.6838    3.7655 H   0  0  0  0  0  0  0  0  0  0  0  0
    1.1780   -0.4835    3.3763 H   0  0  0  0  0  0  0  0  0  0  0  0
  1  2  1  0  0  0  0
  2  3  1  0  0  0  0
  2  4  1  0  0  0  0
  2  5  1  0  0  0  0
  5  6  2  0  0  0  0
  5  7  1  0  0  0  0
  7  8  1  0  0  0  0
  7  9  1  0  0  0  0
  9 10  1  0  0  0  0
  9 11  1  0  0  0  0
  9 18  1  0  0  0  0
 11 12  1  0  0  0  0
 11 13  1  0  0  0  0
 11 14  1  0  0  0  0
 14 15  2  0  0  0  0
 14 16  1  0  0  0  0
 16 17  1  0  0  0  0
 18 19  2  0  0  0  0
 18 20  1  0  0  0  0
 20 21  1  0  0  0  0
 20 22  1  0  0  0  0
 22 23  1  0  0  0  0
 22 24  1  0  0  0  0
 22 25  1  0  0  0  0
M  END
$$$$

  -OEChem-02102214113D

 25 24  0     1  0  0  0  0  0999 V2000
   -2.4326   -3.7320   -0.3150 H   0  0  0  0  0  0  0  0  0  0  0  0
   -2.4921   -2.6750   -0.5902 C   0  0  0  0  0  0  0  0  0  0  0  0
   -3.1296   -2.1588    0.1313 H   0  0  0  0  0  0  0  0  0  0  0  0
   -2.9379   -2.5954   -1.5845 H   0  0  0  0  0  0  0  0  0  0  0  0
   -1.1057   -2.0589   -0.5938 C   0  0  0  0  0  0  0  0  0  0  0  0
   -0.1360   -2.7423   -0.3175 O   0  0  0  0  0  0  0  0  0  0  0  0
   -0.9480   -0.7229   -0.9059 N   0  0  0  0  0  0  0  0  0  0  0  0
   -1.7971   -0.1743   -1.0347 H   0  0  0  0  0  0  0  0  0  0  0  0
    0.3304    0.0038   -0.8196 C   0  0  1  0  0  0  0  0  0  0  0  0
    1.0574   -0.5192   -1.4522 H   0  0  0  0  0  0  0  0  0  0  0  0
    0.1712    1.4370   -1.3683 C   0  0  0  0  0  0  0  0  0  0  0  0
    1.1452    1.9358   -1.3272 H   0  0  0  0  0  0  0  0  0  0  0  0
   -0.1232    1.3809   -2.4191 H   0  0  0  0  0  0  0  0  0  0  0  0
   -0.8548    2.3027   -0.6363 C   0  0  0  0  0  0  0  0  0  0  0  0
   -0.5347    3.4444   -0.3616 O   0  0  0  0  0  0  0  0  0  0  0  0
   -2.0854    1.7940   -0.3704 O   0  0  0  0  0  0  0  0  0  0  0  0
   -2.5753    2.5234    0.0451 H   0  0  0  0  0  0  0  0  0  0  0  0
    0.9448    0.0267    0.5980 C   0  0  0  0  0  0  0  0  0  0  0  0
    2.1604    0.0301    0.7295 O   0  0  0  0  0  0  0  0  0  0  0  0
    0.1478    0.2982    1.6957 N   0  0  0  0  0  0  0  0  0  0  0  0
   -0.8563    0.2738    1.5512 H   0  0  0  0  0  0  0  0  0  0  0  0
    0.6692    0.4157    3.0516 C   0  0  0  0  0  0  0  0  0  0  0  0
    1.4063    1.2237    3.1097 H   0  0  0  0  0  0  0  0  0  0  0  0
   -0.1418    0.6382    3.7515 H   0  0  0  0  0  0  0  0  0  0  0  0
    1.1472   -0.5203    3.3595 H   0  0  0  0  0  0  0  0  0  0  0  0
  1  2  1  0  0  0  0
  2  3  1  0  0  0  0
  2  4  1  0  0  0  0
  2  5  1  0  0  0  0
  5  6  2  0  0  0  0
  5  7  1  0  0  0  0
  7  8  1  0  0  0  0
  7  9  1  0  0  0  0
  9 10  1  0  0  0  0
  9 11  1  0  0  0  0
  9 18  1  0  0  0  0
 11 12  1  0  0  0  0
 11 13  1  0  0  0  0
 11 14  1  0  0  0  0
 14 15  2  0  0  0  0
 14 16  1  0  0  0  0
 16 17  1  0  0  0  0
 18 19  2  0  0  0  0
 18 20  1  0  0  0  0
 20 21  1  0  0  0  0
 20 22  1  0  0  0  0
 22 23  1  0  0  0  0
 22 24  1  0  0  0  0
 22 25  1  0  0  0  0
M  END
$$$$

  -OEChem-02102214113D

 25 24  0     1  0  0  0  0  0999 V2000
   -2.4189   -3.7343   -0.3075 H   0  0  0  0  0  0  0  0  0  0  0  0
   -2.4830   -2.6736   -0.5667 C   0  0  0  0  0  0  0  0  0  0  0  0
   -3.0837   -2.1625    0.1891 H   0  0  0  0  0  0  0  0  0  0  0  0
   -2.9725   -2.5783   -1.5389 H   0  0  0  0  0  0  0  0  0  0  0  0
   -1.0942   -2.0662   -0.6246 C   0  0  0  0  0  0  0  0  0  0  0  0
   -0.1174   -2.7582   -0.3991 O   0  0  0  0  0  0  0  0  0  0  0  0
   -0.9439   -0.7266   -0.9238 N   0  0  0  0  0  0  0  0  0  0  0  0
   -1.7969   -0.1728   -0.9773 H   0  0  0  0  0  0  0  0  0  0  0  0
    0.3339   -0.0003   -0.8250 C   0  0  1  0  0  0  0  0  0  0  0  0
    1.0637   -0.5166   -1.4601 H   0  0  0  0  0  0  0  0  0  0  0  0
    0.1778    1.4390   -1.3597 C   0  0  0  0  0  0  0  0  0  0  0  0
    1.1532    1.9341   -1.3085 H   0  0  0  0  0  0  0  0  0  0  0  0
   -0.1094    1.3896   -2.4129 H   0  0  0  0  0  0  0  0  0  0  0  0
   -0.8473    2.3148   -0.6358 C   0  0  0  0  0  0  0  0  0  0  0  0
   -0.6302    3.5122   -0.6110 O   0  0  0  0  0  0  0  0  0  0  0  0
   -1.9667    1.7555   -0.1065 O   0  0  0  0  0  0  0  0  0  0  0  0
   -2.4701    2.5020    0.2600 H   0  0  0  0  0  0  0  0  0  0  0  0
    0.9424    0.0077    0.5953 C   0  0  0  0  0  0  0  0  0  0  0  0
    2.1571    0.0051    0.7341 O   0  0  0  0  0  0  0  0  0  0  0  0
    0.1418    0.2674    1.6928 N   0  0  0  0  0  0  0  0  0  0  0  0
   -0.8597    0.3149    1.5318 H   0  0  0  0  0  0  0  0  0  0  0  0
    0.6571    0.4006    3.0494 C   0  0  0  0  0  0  0  0  0  0  0  0
    1.3531    1.2437    3.1131 H   0  0  0  0  0  0  0  0  0  0  0  0
   -0.1634    0.5754    3.7516 H   0  0  0  0  0  0  0  0  0  0  0  0
    1.1815   -0.5126    3.3501 H   0  0  0  0  0  0  0  0  0  0  0  0
  1  2  1  0  0  0  0
  2  3  1  0  0  0  0
  2  4  1  0  0  0  0
  2  5  1  0  0  0  0
  5  6  2  0  0  0  0
  5  7  1  0  0  0  0
  7  8  1  0  0  0  0
  7  9  1  0  0  0  0
  9 10  1  0  0  0  0
  9 11  1  0  0  0  0
  9 18  1  0  0  0  0
 11 12  1  0  0  0  0
 11 13  1  0  0  0  0
 11 14  1  0  0  0  0
 14 15  2  0  0  0  0
 14 16  1  0  0  0  0
 16 17  1  0  0  0  0
 18 19  2  0  0  0  0
 18 20  1  0  0  0  0
 20 21  1  0  0  0  0
 20 22  1  0  0  0  0
 22 23  1  0  0  0  0
 22 24  1  0  0  0  0
 22 25  1  0  0  0  0
M  END
$$$$

  -OEChem-02102214113D

 25 24  0     1  0  0  0  0  0999 V2000
   -2.4174   -3.7388   -0.3317 H   0  0  0  0  0  0  0  0  0  0  0  0
   -2.4856   -2.6740   -0.5718 C   0  0  0  0  0  0  0  0  0  0  0  0
   -3.0742   -2.1760    0.2020 H   0  0  0  0  0  0  0  0  0  0  0  0
   -2.9904   -2.5623   -1.5343 H   0  0  0  0  0  0  0  0  0  0  0  0
   -1.0980   -2.0652   -0.6417 C   0  0  0  0  0  0  0  0  0  0  0  0
   -0.1178   -2.7628   -0.4503 O   0  0  0  0  0  0  0  0  0  0  0  0
   -0.9528   -0.7205   -0.9213 N   0  0  0  0  0  0  0  0  0  0  0  0
   -1.8063   -0.1663   -0.9311 H   0  0  0  0  0  0  0  0  0  0  0  0
    0.3264    0.0013   -0.8078 C   0  0  1  0  0  0  0  0  0  0  0  0
    1.0545   -0.5164   -1.4438 H   0  0  0  0  0  0  0  0  0  0  0  0
    0.1791    1.4383   -1.3504 C   0  0  0  0  0  0  0  0  0  0  0  0
    1.1541    1.9320   -1.2850 H   0  0  0  0  0  0  0  0  0  0  0  0
   -0.0907    1.3825   -2.4082 H   0  0  0  0  0  0  0  0  0  0  0  0
   -0.8522    2.3281   -0.6529 C   0  0  0  0  0  0  0  0  0  0  0  0
   -0.7799    3.5224   -0.8758 O   0  0  0  0  0  0  0  0  0  0  0  0
   -1.8336    1.7771    0.1087 O   0  0  0  0  0  0  0  0  0  0  0  0
   -2.3670    2.5311    0.4126 H   0  0  0  0  0  0  0  0  0  0  0  0
    0.9429   -0.0066    0.6098 C   0  0  0  0  0  0  0  0  0  0  0  0
    2.1585   -0.0285    0.7408 O   0  0  0  0  0  0  0  0  0  0  0  0
    0.1544    0.2405    1.7182 N   0  0  0  0  0  0  0  0  0  0  0  0
   -0.8376    0.3866    1.5518 H   0  0  0  0  0  0  0  0  0  0  0  0
    0.6856    0.3833    3.0678 C   0  0  0  0  0  0  0  0  0  0  0  0
    1.3449    1.2554    3.1299 H   0  0  0  0  0  0  0  0  0  0  0  0
   -0.1306    0.5125    3.7847 H   0  0  0  0  0  0  0  0  0  0  0  0
    1.2550   -0.5087    3.3503 H   0  0  0  0  0  0  0  0  0  0  0  0
  1  2  1  0  0  0  0
  2  3  1  0  0  0  0
  2  4  1  0  0  0  0
  2  5  1  0  0  0  0
  5  6  2  0  0  0  0
  5  7  1  0  0  0  0
  7  8  1  0  0  0  0
  7  9  1  0  0  0  0
  9 10  1  0  0  0  0
  9 11  1  0  0  0  0
  9 18  1  0  0  0  0
 11 12  1  0  0  0  0
 11 13  1  0  0  0  0
 11 14  1  0  0  0  0
 14 15  2  0  0  0  0
 14 16  1  0  0  0  0
 16 17  1  0  0  0  0
 18 19  2  0  0  0  0
 18 20  1  0  0  0  0
 20 21  1  0  0  0  0
 20 22  1  0  0  0  0
 22 23  1  0  0  0  0
 22 24  1  0  0  0  0
 22 25  1  0  0  0  0
M  END
$$$$

  -OEChem-02102214113D

 25 24  0     1  0  0  0  0  0999 V2000
   -2.4837   -3.7251   -0.4937 H   0  0  0  0  0  0  0  0  0  0  0  0
   -2.5390   -2.6488   -0.6811 C   0  0  0  0  0  0  0  0  0  0  0  0
   -3.1684   -2.1905    0.0855 H   0  0  0  0  0  0  0  0  0  0  0  0
   -2.9916   -2.4857   -1.6622 H   0  0  0  0  0  0  0  0  0  0  0  0
   -1.1490   -2.0418   -0.6447 C   0  0  0  0  0  0  0  0  0  0  0  0
   -0.1818   -2.7518   -0.4336 O   0  0  0  0  0  0  0  0  0  0  0  0
   -0.9860   -0.6867   -0.8576 N   0  0  0  0  0  0  0  0  0  0  0  0
   -1.8324   -0.1310   -0.9409 H   0  0  0  0  0  0  0  0  0  0  0  0
    0.2992    0.0163   -0.7094 C   0  0  1  0  0  0  0  0  0  0  0  0
    1.0072   -0.5318   -1.3432 H   0  0  0  0  0  0  0  0  0  0  0  0
    0.1977    1.4233   -1.3343 C   0  0  0  0  0  0  0  0  0  0  0  0
    1.2156    1.8059   -1.4579 H   0  0  0  0  0  0  0  0  0  0  0  0
   -0.2433    1.3363   -2.3311 H   0  0  0  0  0  0  0  0  0  0  0  0
   -0.5872    2.4764   -0.5523 C   0  0  0  0  0  0  0  0  0  0  0  0
   -0.6538    3.5813   -1.0593 O   0  0  0  0  0  0  0  0  0  0  0  0
   -1.3159    2.1216    0.5349 O   0  0  0  0  0  0  0  0  0  0  0  0
   -1.7583    2.9383    0.8202 H   0  0  0  0  0  0  0  0  0  0  0  0
    0.9620   -0.0347    0.6896 C   0  0  0  0  0  0  0  0  0  0  0  0
    2.1824   -0.0714    0.7663 O   0  0  0  0  0  0  0  0  0  0  0  0
    0.2322    0.1737    1.8446 N   0  0  0  0  0  0  0  0  0  0  0  0
   -0.7354    0.4574    1.7130 H   0  0  0  0  0  0  0  0  0  0  0  0
    0.8416    0.3293    3.1593 C   0  0  0  0  0  0  0  0  0  0  0  0
    1.4531    1.2369    3.1932 H   0  0  0  0  0  0  0  0  0  0  0  0
    0.0674    0.4007    3.9290 H   0  0  0  0  0  0  0  0  0  0  0  0
    1.4771   -0.5324    3.3905 H   0  0  0  0  0  0  0  0  0  0  0  0
  1  2  1  0  0  0  0
  2  3  1  0  0  0  0
  2  4  1  0  0  0  0
  2  5  1  0  0  0  0
  5  6  2  0  0  0  0
  5  7  1  0  0  0  0
  7  8  1  0  0  0  0
  7  9  1  0  0  0  0
  9 10  1  0  0  0  0
  9 11  1  0  0  0  0
  9 18  1  0  0  0  0
 11 12  1  0  0  0  0
 11 13  1  0  0  0  0
 11 14  1  0  0  0  0
 14 15  2  0  0  0  0
 14 16  1  0  0  0  0
 16 17  1  0  0  0  0
 18 19  2  0  0  0  0
 18 20  1  0  0  0  0
 20 21  1  0  0  0  0
 20 22  1  0  0  0  0
 22 23  1  0  0  0  0
 22 24  1  0  0  0  0
 22 25  1  0  0  0  0
M  END
$$$$

  -OEChem-02102214113D

 25 24  0     1  0  0  0  0  0999 V2000
   -2.4975   -3.7270   -0.5282 H   0  0  0  0  0  0  0  0  0  0  0  0
   -2.5516   -2.6505   -0.7140 C   0  0  0  0  0  0  0  0  0  0  0  0
   -3.2041   -2.1972    0.0358 H   0  0  0  0  0  0  0  0  0  0  0  0
   -2.9771   -2.4864   -1.7068 H   0  0  0  0  0  0  0  0  0  0  0  0
   -1.1658   -2.0378   -0.6353 C   0  0  0  0  0  0  0  0  0  0  0  0
   -0.2018   -2.7459   -0.4052 O   0  0  0  0  0  0  0  0  0  0  0  0
   -1.0032   -0.6798   -0.8312 N   0  0  0  0  0  0  0  0  0  0  0  0
   -1.8457   -0.1308   -0.9728 H   0  0  0  0  0  0  0  0  0  0  0  0
    0.2816    0.0246   -0.6832 C   0  0  1  0  0  0  0  0  0  0  0  0
    0.9846   -0.5305   -1.3168 H   0  0  0  0  0  0  0  0  0  0  0  0
    0.1889    1.4220   -1.3331 C   0  0  0  0  0  0  0  0  0  0  0  0
    1.2097    1.7981   -1.4501 H   0  0  0  0  0  0  0  0  0  0  0  0
   -0.2353    1.3130   -2.3353 H   0  0  0  0  0  0  0  0  0  0  0  0
   -0.5976    2.5054   -0.5937 C   0  0  0  0  0  0  0  0  0  0  0  0
   -0.8870    3.4900   -1.2494 O   0  0  0  0  0  0  0  0  0  0  0  0
   -1.0566    2.3021    0.6629 O   0  0  0  0  0  0  0  0  0  0  0  0
   -1.5225    3.1202    0.9014 H   0  0  0  0  0  0  0  0  0  0  0  0
    0.9594   -0.0394    0.7092 C   0  0  0  0  0  0  0  0  0  0  0  0
    2.1809   -0.0847    0.7688 O   0  0  0  0  0  0  0  0  0  0  0  0
    0.2469    0.1523    1.8778 N   0  0  0  0  0  0  0  0  0  0  0  0
   -0.7087    0.4780    1.7609 H   0  0  0  0  0  0  0  0  0  0  0  0
    0.8806    0.2970    3.1823 C   0  0  0  0  0  0  0  0  0  0  0  0
    1.5057    1.1957    3.2075 H   0  0  0  0  0  0  0  0  0  0  0  0
    0.1202    0.3787    3.9647 H   0  0  0  0  0  0  0  0  0  0  0  0
    1.5069   -0.5743    3.4018 H   0  0  0  0  0  0  0  0  0  0  0  0
  1  2  1  0  0  0  0
  2  3  1  0  0  0  0
  2  4  1  0  0  0  0
  2  5  1  0  0  0  0
  5  6  2  0  0  0  0
  5  7  1  0  0  0  0
  7  8  1  0  0  0  0
  7  9  1  0  0  0  0
  9 10  1  0  0  0  0
  9 11  1  0  0  0  0
  9 18  1  0  0  0  0
 11 12  1  0  0  0  0
 11 13  1  0  0  0  0
 11 14  1  0  0  0  0
 14 15  2  0  0  0  0
 14 16  1  0  0  0  0
 16 17  1  0  0  0  0
 18 19  2  0  0  0  0
 18 20  1  0  0  0  0
 20 21  1  0  0  0  0
 20 22  1  0  0  0  0
 22 23  1  0  0  0  0
 22 24  1  0  0  0  0
 22 25  1  0  0  0  0
M  END
$$$$

  -OEChem-02102214113D

 25 24  0     1  0  0  0  0  0999 V2000
   -2.5157   -3.7265   -0.5622 H   0  0  0  0  0  0  0  0  0  0  0  0
   -2.5644   -2.6496   -0.7477 C   0  0  0  0  0  0  0  0  0  0  0  0
   -3.2504   -2.1996   -0.0264 H   0  0  0  0  0  0  0  0  0  0  0  0
   -2.9458   -2.4841   -1.7581 H   0  0  0  0  0  0  0  0  0  0  0  0
   -1.1851   -2.0339   -0.6066 C   0  0  0  0  0  0  0  0  0  0  0  0
   -0.2318   -2.7392   -0.3285 O   0  0  0  0  0  0  0  0  0  0  0  0
   -1.0160   -0.6770   -0.8055 N   0  0  0  0  0  0  0  0  0  0  0  0
   -1.8446   -0.1373   -1.0375 H   0  0  0  0  0  0  0  0  0  0  0  0
    0.2722    0.0238   -0.6689 C   0  0  1  0  0  0  0  0  0  0  0  0
    0.9697   -0.5389   -1.3018 H   0  0  0  0  0  0  0  0  0  0  0  0
    0.1764    1.4127   -1.3376 C   0  0  0  0  0  0  0  0  0  0  0  0
    1.1967    1.7876   -1.4596 H   0  0  0  0  0  0  0  0  0  0  0  0
   -0.2450    1.2891   -2.3395 H   0  0  0  0  0  0  0  0  0  0  0  0
   -0.6061    2.5078   -0.6111 C   0  0  0  0  0  0  0  0  0  0  0  0
   -1.1432    3.3379   -1.3226 O   0  0  0  0  0  0  0  0  0  0  0  0
   -0.7157    2.5164    0.7356 O   0  0  0  0  0  0  0  0  0  0  0  0
   -1.2064    3.3245    0.9552 H   0  0  0  0  0  0  0  0  0  0  0  0
    0.9561   -0.0434    0.7205 C   0  0  0  0  0  0  0  0  0  0  0  0
    2.1775   -0.1015    0.7727 O   0  0  0  0  0  0  0  0  0  0  0  0
    0.2501    0.1503    1.8934 N   0  0  0  0  0  0  0  0  0  0  0  0
   -0.7061    0.4736    1.7858 H   0  0  0  0  0  0  0  0  0  0  0  0
    0.8934    0.2940    3.1932 C   0  0  0  0  0  0  0  0  0  0  0  0
    1.5190    1.1924    3.2139 H   0  0  0  0  0  0  0  0  0  0  0  0
    0.1391    0.3755    3.9814 H   0  0  0  0  0  0  0  0  0  0  0  0
    1.5209   -0.5776    3.4075 H   0  0  0  0  0  0  0  0  0  0  0  0
  1  2  1  0  0  0  0
  2  3  1  0  0  0  0
  2  4  1  0  0  0  0
  2  5  1  0  0  0  0
  5  6  2  0  0  0  0
  5  7  1  0  0  0  0
  7  8  1  0  0  0  0
  7  9  1  0  0  0  0
  9 10  1  0  0  0  0
  9 11  1  0  0  0  0
  9 18  1  0  0  0  0
 11 12  1  0  0  0  0
 11 13  1  0  0  0  0
 11 14  1  0  0  0  0
 14 15  2  0  0  0  0
 14 16  1  0  0  0  0
 16 17  1  0  0  0  0
 18 19  2  0  0  0  0
 18 20  1  0  0  0  0
 20 21  1  0  0  0  0
 20 22  1  0  0  0  0
 22 23  1  0  0  0  0
 22 24  1  0  0  0  0
 22 25  1  0  0  0  0
M  END
$$$$

  -OEChem-02102214113D

 25 24  0     1  0  0  0  0  0999 V2000
   -2.5234   -3.7228   -0.5507 H   0  0  0  0  0  0  0  0  0  0  0  0
   -2.5657   -2.6500   -0.7591 C   0  0  0  0  0  0  0  0  0  0  0  0
   -3.2841   -2.1881   -0.0780 H   0  0  0  0  0  0  0  0  0  0  0  0
   -2.9029   -2.5056   -1.7882 H   0  0  0  0  0  0  0  0  0  0  0  0
   -1.1948   -2.0282   -0.5697 C   0  0  0  0  0  0  0  0  0  0  0  0
   -0.2556   -2.7249   -0.2296 O   0  0  0  0  0  0  0  0  0  0  0  0
   -1.0169   -0.6762   -0.7933 N   0  0  0  0  0  0  0  0  0  0  0  0
   -1.8228   -0.1545   -1.1267 H   0  0  0  0  0  0  0  0  0  0  0  0
    0.2771    0.0193   -0.6802 C   0  0  1  0  0  0  0  0  0  0  0  0
    0.9706   -0.5443   -1.3163 H   0  0  0  0  0  0  0  0  0  0  0  0
    0.1594    1.4082   -1.3440 C   0  0  0  0  0  0  0  0  0  0  0  0
    1.1735    1.7920   -1.4875 H   0  0  0  0  0  0  0  0  0  0  0  0
   -0.2838    1.2901   -2.3373 H   0  0  0  0  0  0  0  0  0  0  0  0
   -0.6112    2.4838   -0.5797 C   0  0  0  0  0  0  0  0  0  0  0  0
   -1.4048    3.1434   -1.2278 O   0  0  0  0  0  0  0  0  0  0  0  0
   -0.3419    2.7267    0.7210 O   0  0  0  0  0  0  0  0  0  0  0  0
   -0.8633    3.5072    0.9643 H   0  0  0  0  0  0  0  0  0  0  0  0
    0.9582   -0.0381    0.7102 C   0  0  0  0  0  0  0  0  0  0  0  0
    2.1796   -0.0920    0.7668 O   0  0  0  0  0  0  0  0  0  0  0  0
    0.2461    0.1762    1.8762 N   0  0  0  0  0  0  0  0  0  0  0  0
   -0.7400    0.3896    1.7774 H   0  0  0  0  0  0  0  0  0  0  0  0
    0.8752    0.3206    3.1826 C   0  0  0  0  0  0  0  0  0  0  0  0
    1.5257    1.2014    3.1983 H   0  0  0  0  0  0  0  0  0  0  0  0
    0.1132    0.4370    3.9589 H   0  0  0  0  0  0  0  0  0  0  0  0
    1.4749   -0.5651    3.4180 H   0  0  0  0  0  0  0  0  0  0  0  0
  1  2  1  0  0  0  0
  2  3  1  0  0  0  0
  2  4  1  0  0  0  0
  2  5  1  0  0  0  0
  5  6  2  0  0  0  0
  5  7  1  0  0  0  0
  7  8  1  0  0  0  0
  7  9  1  0  0  0  0
  9 10  1  0  0  0  0
  9 11  1  0  0  0  0
  9 18  1  0  0  0  0
 11 12  1  0  0  0  0
 11 13  1  0  0  0  0
 11 14  1  0  0  0  0
 14 15  2  0  0  0  0
 14 16  1  0  0  0  0
 16 17  1  0  0  0  0
 18 19  2  0  0  0  0
 18 20  1  0  0  0  0
 20 21  1  0  0  0  0
 20 22  1  0  0  0  0
 22 23  1  0  0  0  0
 22 24  1  0  0  0  0
 22 25  1  0  0  0  0
M  END
$$$$

  -OEChem-02102214113D

 25 24  0     1  0  0  0  0  0999 V2000
   -2.5267   -3.7005   -0.4891 H   0  0  0  0  0  0  0  0  0  0  0  0
   -2.5588   -2.6348   -0.7337 C   0  0  0  0  0  0  0  0  0  0  0  0
   -3.2860   -2.1461   -0.0810 H   0  0  0  0  0  0  0  0  0  0  0  0
   -2.8774   -2.5229   -1.7729 H   0  0  0  0  0  0  0  0  0  0  0  0
   -1.1875   -2.0143   -0.5414 C   0  0  0  0  0  0  0  0  0  0  0  0
   -0.2578   -2.7030   -0.1611 O   0  0  0  0  0  0  0  0  0  0  0  0
   -0.9995   -0.6705   -0.8029 N   0  0  0  0  0  0  0  0  0  0  0  0
   -1.7977   -0.1564   -1.1673 H   0  0  0  0  0  0  0  0  0  0  0  0
    0.2987    0.0212   -0.7104 C   0  0  1  0  0  0  0  0  0  0  0  0
    0.9934   -0.5419   -1.3453 H   0  0  0  0  0  0  0  0  0  0  0  0
    0.1605    1.4121   -1.3619 C   0  0  0  0  0  0  0  0  0  0  0  0
    1.1669    1.8084   -1.5249 H   0  0  0  0  0  0  0  0  0  0  0  0
   -0.3088    1.3087   -2.3446 H   0  0  0  0  0  0  0  0  0  0  0  0
   -0.5996    2.4512   -0.5433 C   0  0  0  0  0  0  0  0  0  0  0  0
   -1.6063    2.9208   -1.0455 O   0  0  0  0  0  0  0  0  0  0  0  0
   -0.0717    2.8983    0.6176 O   0  0  0  0  0  0  0  0  0  0  0  0
   -0.6450    3.6173    0.9232 H   0  0  0  0  0  0  0  0  0  0  0  0
    0.9678   -0.0086    0.6852 C   0  0  0  0  0  0  0  0  0  0  0  0
    2.1885   -0.0548    0.7571 O   0  0  0  0  0  0  0  0  0  0  0  0
    0.2378    0.2404    1.8335 N   0  0  0  0  0  0  0  0  0  0  0  0
   -0.7696    0.3011    1.7386 H   0  0  0  0  0  0  0  0  0  0  0  0
    0.8375    0.3397    3.1576 C   0  0  0  0  0  0  0  0  0  0  0  0
    1.5697    1.1537    3.1853 H   0  0  0  0  0  0  0  0  0  0  0  0
    0.0678    0.5416    3.9082 H   0  0  0  0  0  0  0  0  0  0  0  0
    1.3407   -0.5969    3.4201 H   0  0  0  0  0  0  0  0  0  0  0  0
  1  2  1  0  0  0  0
  2  3  1  0  0  0  0
  2  4  1  0  0  0  0
  2  5  1  0  0  0  0
  5  6  2  0  0  0  0
  5  7  1  0  0  0  0
  7  8  1  0  0  0  0
  7  9  1  0  0  0  0
  9 10  1  0  0  0  0
  9 11  1  0  0  0  0
  9 18  1  0  0  0  0
 11 12  1  0  0  0  0
 11 13  1  0  0  0  0
 11 14  1  0  0  0  0
 14 15  2  0  0  0  0
 14 16  1  0  0  0  0
 16 17  1  0  0  0  0
 18 19  2  0  0  0  0
 18 20  1  0  0  0  0
 20 21  1  0  0  0  0
 20 22  1  0  0  0  0
 22 23  1  0  0  0  0
 22 24  1  0  0  0  0
 22 25  1  0  0  0  0
M  END
$$$$

  -OEChem-02102214113D

 25 24  0     1  0  0  0  0  0999 V2000
   -2.5331   -3.6751   -0.4416 H   0  0  0  0  0  0  0  0  0  0  0  0
   -2.5570   -2.6132   -0.7027 C   0  0  0  0  0  0  0  0  0  0  0  0
   -3.2699   -2.1062   -0.0483 H   0  0  0  0  0  0  0  0  0  0  0  0
   -2.8883   -2.5142   -1.7392 H   0  0  0  0  0  0  0  0  0  0  0  0
   -1.1772   -2.0040   -0.5387 C   0  0  0  0  0  0  0  0  0  0  0  0
   -0.2510   -2.6930   -0.1507 O   0  0  0  0  0  0  0  0  0  0  0  0
   -0.9775   -0.6680   -0.8279 N   0  0  0  0  0  0  0  0  0  0  0  0
   -1.7787   -0.1443   -1.1728 H   0  0  0  0  0  0  0  0  0  0  0  0
    0.3235    0.0188   -0.7403 C   0  0  1  0  0  0  0  0  0  0  0  0
    1.0225   -0.5446   -1.3701 H   0  0  0  0  0  0  0  0  0  0  0  0
    0.1761    1.4121   -1.3793 C   0  0  0  0  0  0  0  0  0  0  0  0
    1.1768    1.8186   -1.5525 H   0  0  0  0  0  0  0  0  0  0  0  0
   -0.3110    1.3252   -2.3547 H   0  0  0  0  0  0  0  0  0  0  0  0
   -0.5808    2.4137   -0.5168 C   0  0  0  0  0  0  0  0  0  0  0  0
   -1.7270    2.6755   -0.8402 O   0  0  0  0  0  0  0  0  0  0  0  0
    0.0744    3.0380    0.4879 O   0  0  0  0  0  0  0  0  0  0  0  0
   -0.5437    3.6805    0.8670 H   0  0  0  0  0  0  0  0  0  0  0  0
    0.9763    0.0138    0.6625 C   0  0  0  0  0  0  0  0  0  0  0  0
    2.1955   -0.0301    0.7521 O   0  0  0  0  0  0  0  0  0  0  0  0
    0.2281    0.2923    1.7926 N   0  0  0  0  0  0  0  0  0  0  0  0
   -0.7808    0.2800    1.6902 H   0  0  0  0  0  0  0  0  0  0  0  0
    0.8049    0.3727    3.1283 C   0  0  0  0  0  0  0  0  0  0  0  0
    1.5721    1.1534    3.1666 H   0  0  0  0  0  0  0  0  0  0  0  0
    0.0302    0.6148    3.8619 H   0  0  0  0  0  0  0  0  0  0  0  0
    1.2606   -0.5836    3.4058 H   0  0  0  0  0  0  0  0  0  0  0  0
  1  2  1  0  0  0  0
  2  3  1  0  0  0  0
  2  4  1  0  0  0  0
  2  5  1  0  0  0  0
  5  6  2  0  0  0  0
  5  7  1  0  0  0  0
  7  8  1  0  0  0  0
  7  9  1  0  0  0  0
  9 10  1  0  0  0  0
  9 11  1  0  0  0  0
  9 18  1  0  0  0  0
 11 12  1  0  0  0  0
 11 13  1  0  0  0  0
 11 14  1  0  0  0  0
 14 15  2  0  0  0  0
 14 16  1  0  0  0  0
 16 17  1  0  0  0  0
 18 19  2  0  0  0  0
 18 20  1  0  0  0  0
 20 21  1  0  0  0  0
 20 22  1  0  0  0  0
 22 23  1  0  0  0  0
 22 24  1  0  0  0  0
 22 25  1  0  0  0  0
M  END
$$$$

  -OEChem-02102214113D

 25 24  0     1  0  0  0  0  0999 V2000
   -2.5272   -3.6554   -0.3965 H   0  0  0  0  0  0  0  0  0  0  0  0
   -2.5502   -2.5950   -0.6634 C   0  0  0  0  0  0  0  0  0  0  0  0
   -3.2378   -2.0775    0.0096 H   0  0  0  0  0  0  0  0  0  0  0  0
   -2.9128   -2.4991   -1.6897 H   0  0  0  0  0  0  0  0  0  0  0  0
   -1.1604   -1.9980   -0.5472 C   0  0  0  0  0  0  0  0  0  0  0  0
   -0.2299   -2.6912   -0.1773 O   0  0  0  0  0  0  0  0  0  0  0  0
   -0.9560   -0.6675   -0.8559 N   0  0  0  0  0  0  0  0  0  0  0  0
   -1.7700   -0.1252   -1.1386 H   0  0  0  0  0  0  0  0  0  0  0  0
    0.3448    0.0192   -0.7689 C   0  0  1  0  0  0  0  0  0  0  0  0
    1.0496   -0.5430   -1.3932 H   0  0  0  0  0  0  0  0  0  0  0  0
    0.1929    1.4145   -1.4005 C   0  0  0  0  0  0  0  0  0  0  0  0
    1.1903    1.8275   -1.5785 H   0  0  0  0  0  0  0  0  0  0  0  0
   -0.3056    1.3381   -2.3709 H   0  0  0  0  0  0  0  0  0  0  0  0
   -0.5645    2.3903   -0.5118 C   0  0  0  0  0  0  0  0  0  0  0  0
   -1.7772    2.4415   -0.6375 O   0  0  0  0  0  0  0  0  0  0  0  0
    0.1396    3.1860    0.3249 O   0  0  0  0  0  0  0  0  0  0  0  0
   -0.5018    3.7548    0.7758 H   0  0  0  0  0  0  0  0  0  0  0  0
    0.9805    0.0324    0.6413 C   0  0  0  0  0  0  0  0  0  0  0  0
    2.1981   -0.0096    0.7496 O   0  0  0  0  0  0  0  0  0  0  0  0
    0.2144    0.3294    1.7548 N   0  0  0  0  0  0  0  0  0  0  0  0
   -0.7929    0.2946    1.6375 H   0  0  0  0  0  0  0  0  0  0  0  0
    0.7665    0.3938    3.1018 C   0  0  0  0  0  0  0  0  0  0  0  0
    1.5571    1.1497    3.1560 H   0  0  0  0  0  0  0  0  0  0  0  0
   -0.0151    0.6614    3.8193 H   0  0  0  0  0  0  0  0  0  0  0  0
    1.1859   -0.5762    3.3894 H   0  0  0  0  0  0  0  0  0  0  0  0
  1  2  1  0  0  0  0
  2  3  1  0  0  0  0
  2  4  1  0  0  0  0
  2  5  1  0  0  0  0
  5  6  2  0  0  0  0
  5  7  1  0  0  0  0
  7  8  1  0  0  0  0
  7  9  1  0  0  0  0
  9 10  1  0  0  0  0
  9 11  1  0  0  0  0
  9 18  1  0  0  0  0
 11 12  1  0  0  0  0
 11 13  1  0  0  0  0
 11 14  1  0  0  0  0
 14 15  2  0  0  0  0
 14 16  1  0  0  0  0
 16 17  1  0  0  0  0
 18 19  2  0  0  0  0
 18 20  1  0  0  0  0
 20 21  1  0  0  0  0
 20 22  1  0  0  0  0
 22 23  1  0  0  0  0
 22 24  1  0  0  0  0
 22 25  1  0  0  0  0
M  END
$$$$

  -OEChem-02102214113D

 25 24  0     1  0  0  0  0  0999 V2000
   -2.5236   -3.6479   -0.3604 H   0  0  0  0  0  0  0  0  0  0  0  0
   -2.5460   -2.5896   -0.6353 C   0  0  0  0  0  0  0  0  0  0  0  0
   -3.2056   -2.0601    0.0562 H   0  0  0  0  0  0  0  0  0  0  0  0
   -2.9425   -2.4988   -1.6495 H   0  0  0  0  0  0  0  0  0  0  0  0
   -1.1477   -2.0045   -0.5715 C   0  0  0  0  0  0  0  0  0  0  0  0
   -0.2089   -2.7062   -0.2397 O   0  0  0  0  0  0  0  0  0  0  0  0
   -0.9441   -0.6755   -0.8864 N   0  0  0  0  0  0  0  0  0  0  0  0
   -1.7689   -0.1159   -1.0956 H   0  0  0  0  0  0  0  0  0  0  0  0
    0.3549    0.0125   -0.7906 C   0  0  1  0  0  0  0  0  0  0  0  0
    1.0660   -0.5462   -1.4111 H   0  0  0  0  0  0  0  0  0  0  0  0
    0.2075    1.4154   -1.4077 C   0  0  0  0  0  0  0  0  0  0  0  0
    1.2069    1.8266   -1.5796 H   0  0  0  0  0  0  0  0  0  0  0  0
   -0.2913    1.3535   -2.3785 H   0  0  0  0  0  0  0  0  0  0  0  0
   -0.5518    2.3799   -0.5068 C   0  0  0  0  0  0  0  0  0  0  0  0
   -1.7629    2.2451   -0.4248 O   0  0  0  0  0  0  0  0  0  0  0  0
    0.1438    3.3456    0.1355 O   0  0  0  0  0  0  0  0  0  0  0  0
   -0.4982    3.8585    0.6488 H   0  0  0  0  0  0  0  0  0  0  0  0
    0.9761    0.0340    0.6255 C   0  0  0  0  0  0  0  0  0  0  0  0
    2.1922   -0.0012    0.7486 O   0  0  0  0  0  0  0  0  0  0  0  0
    0.1972    0.3375    1.7283 N   0  0  0  0  0  0  0  0  0  0  0  0
   -0.8093    0.3268    1.5956 H   0  0  0  0  0  0  0  0  0  0  0  0
    0.7331    0.4194    3.0811 C   0  0  0  0  0  0  0  0  0  0  0  0
    1.5145    1.1846    3.1383 H   0  0  0  0  0  0  0  0  0  0  0  0
   -0.0596    0.6829    3.7876 H   0  0  0  0  0  0  0  0  0  0  0  0
    1.1607   -0.5432    3.3810 H   0  0  0  0  0  0  0  0  0  0  0  0
  1  2  1  0  0  0  0
  2  3  1  0  0  0  0
  2  4  1  0  0  0  0
  2  5  1  0  0  0  0
  5  6  2  0  0  0  0
  5  7  1  0  0  0  0
  7  8  1  0  0  0  0
  7  9  1  0  0  0  0
  9 10  1  0  0  0  0
  9 11  1  0  0  0  0
  9 18  1  0  0  0  0
 11 12  1  0  0  0  0
 11 13  1  0  0  0  0
 11 14  1  0  0  0  0
 14 15  2  0  0  0  0
 14 16  1  0  0  0  0
 16 17  1  0  0  0  0
 18 19  2  0  0  0  0
 18 20  1  0  0  0  0
 20 21  1  0  0  0  0
 20 22  1  0  0  0  0
 22 23  1  0  0  0  0
 22 24  1  0  0  0  0
 22 25  1  0  0  0  0
M  END
$$$$

  -OEChem-02102214113D

 25 24  0     1  0  0  0  0  0999 V2000
   -2.5085   -3.6531   -0.3394 H   0  0  0  0  0  0  0  0  0  0  0  0
   -2.5374   -2.5943   -0.6121 C   0  0  0  0  0  0  0  0  0  0  0  0
   -3.1660   -2.0632    0.1065 H   0  0  0  0  0  0  0  0  0  0  0  0
   -2.9743   -2.5000   -1.6091 H   0  0  0  0  0  0  0  0  0  0  0  0
   -1.1348   -2.0159   -0.6045 C   0  0  0  0  0  0  0  0  0  0  0  0
   -0.1850   -2.7270   -0.3281 O   0  0  0  0  0  0  0  0  0  0  0  0
   -0.9393   -0.6838   -0.9116 N   0  0  0  0  0  0  0  0  0  0  0  0
   -1.7734   -0.1121   -1.0311 H   0  0  0  0  0  0  0  0  0  0  0  0
    0.3573    0.0065   -0.8034 C   0  0  1  0  0  0  0  0  0  0  0  0
    1.0735   -0.5453   -1.4238 H   0  0  0  0  0  0  0  0  0  0  0  0
    0.2164    1.4184   -1.4050 C   0  0  0  0  0  0  0  0  0  0  0  0
    1.2189    1.8258   -1.5683 H   0  0  0  0  0  0  0  0  0  0  0  0
   -0.2771    1.3666   -2.3789 H   0  0  0  0  0  0  0  0  0  0  0  0
   -0.5452    2.3863   -0.5065 C   0  0  0  0  0  0  0  0  0  0  0  0
   -1.6970    2.1090   -0.2054 O   0  0  0  0  0  0  0  0  0  0  0  0
    0.0878    3.5106   -0.1011 O   0  0  0  0  0  0  0  0  0  0  0  0
   -0.5375    3.9978    0.4561 H   0  0  0  0  0  0  0  0  0  0  0  0
    0.9672    0.0198    0.6178 C   0  0  0  0  0  0  0  0  0  0  0  0
    2.1820   -0.0147    0.7529 O   0  0  0  0  0  0  0  0  0  0  0  0
    0.1785    0.3150    1.7155 N   0  0  0  0  0  0  0  0  0  0  0  0
   -0.8241    0.3741    1.5619 H   0  0  0  0  0  0  0  0  0  0  0  0
    0.7009    0.4297    3.0710 C   0  0  0  0  0  0  0  0  0  0  0  0
    1.4520    1.2247    3.1263 H   0  0  0  0  0  0  0  0  0  0  0  0
   -0.1070    0.6686    3.7692 H   0  0  0  0  0  0  0  0  0  0  0  0
    1.1621   -0.5133    3.3831 H   0  0  0  0  0  0  0  0  0  0  0  0
  1  2  1  0  0  0  0
  2  3  1  0  0  0  0
  2  4  1  0  0  0  0
  2  5  1  0  0  0  0
  5  6  2  0  0  0  0
  5  7  1  0  0  0  0
  7  8  1  0  0  0  0
  7  9  1  0  0  0  0
  9 10  1  0  0  0  0
  9 11  1  0  0  0  0
  9 18  1  0  0  0  0
 11 12  1  0  0  0  0
 11 13  1  0  0  0  0
 11 14  1  0  0  0  0
 14 15  2  0  0  0  0
 14 16  1  0  0  0  0
 16 17  1  0  0  0  0
 18 19  2  0  0  0  0
 18 20  1  0  0  0  0
 20 21  1  0  0  0  0
 20 22  1  0  0  0  0
 22 23  1  0  0  0  0
 22 24  1  0  0  0  0
 22 25  1  0  0  0  0
M  END
$$$$

  -OEChem-02102214113D

 25 24  0     1  0  0  0  0  0999 V2000
   -2.4976   -3.6693   -0.3560 H   0  0  0  0  0  0  0  0  0  0  0  0
   -2.5338   -2.6056   -0.6080 C   0  0  0  0  0  0  0  0  0  0  0  0
   -3.1329   -2.0864    0.1436 H   0  0  0  0  0  0  0  0  0  0  0  0
   -3.0078   -2.4917   -1.5858 H   0  0  0  0  0  0  0  0  0  0  0  0
   -1.1305   -2.0303   -0.6426 C   0  0  0  0  0  0  0  0  0  0  0  0
   -0.1724   -2.7488   -0.4178 O   0  0  0  0  0  0  0  0  0  0  0  0
   -0.9446   -0.6925   -0.9299 N   0  0  0  0  0  0  0  0  0  0  0  0
   -1.7832   -0.1183   -0.9841 H   0  0  0  0  0  0  0  0  0  0  0  0
    0.3492   -0.0013   -0.8000 C   0  0  1  0  0  0  0  0  0  0  0  0
    1.0699   -0.5476   -1.4204 H   0  0  0  0  0  0  0  0  0  0  0  0
    0.2213    1.4178   -1.3904 C   0  0  0  0  0  0  0  0  0  0  0  0
    1.2298    1.8173   -1.5344 H   0  0  0  0  0  0  0  0  0  0  0  0
   -0.2544    1.3729   -2.3734 H   0  0  0  0  0  0  0  0  0  0  0  0
   -0.5483    2.4002   -0.5109 C   0  0  0  0  0  0  0  0  0  0  0  0
   -1.5959    2.0336    0.0032 O   0  0  0  0  0  0  0  0  0  0  0  0
   -0.0340    3.6418   -0.3596 O   0  0  0  0  0  0  0  0  0  0  0  0
   -0.6362    4.1232    0.2274 H   0  0  0  0  0  0  0  0  0  0  0  0
    0.9527   -0.0047    0.6244 C   0  0  0  0  0  0  0  0  0  0  0  0
    2.1670   -0.0422    0.7637 O   0  0  0  0  0  0  0  0  0  0  0  0
    0.1616    0.2735    1.7246 N   0  0  0  0  0  0  0  0  0  0  0  0
   -0.8255    0.4461    1.5508 H   0  0  0  0  0  0  0  0  0  0  0  0
    0.6887    0.4392    3.0729 C   0  0  0  0  0  0  0  0  0  0  0  0
    1.3750    1.2913    3.1141 H   0  0  0  0  0  0  0  0  0  0  0  0
   -0.1277    0.6162    3.7795 H   0  0  0  0  0  0  0  0  0  0  0  0
    1.2270   -0.4618    3.3858 H   0  0  0  0  0  0  0  0  0  0  0  0
  1  2  1  0  0  0  0
  2  3  1  0  0  0  0
  2  4  1  0  0  0  0
  2  5  1  0  0  0  0
  5  6  2  0  0  0  0
  5  7  1  0  0  0  0
  7  8  1  0  0  0  0
  7  9  1  0  0  0  0
  9 10  1  0  0  0  0
  9 11  1  0  0  0  0
  9 18  1  0  0  0  0
 11 12  1  0  0  0  0
 11 13  1  0  0  0  0
 11 14  1  0  0  0  0
 14 15  2  0  0  0  0
 14 16  1  0  0  0  0
 16 17  1  0  0  0  0
 18 19  2  0  0  0  0
 18 20  1  0  0  0  0
 20 21  1  0  0  0  0
 20 22  1  0  0  0  0
 22 23  1  0  0  0  0
 22 24  1  0  0  0  0
 22 25  1  0  0  0  0
M  END
$$$$

  -OEChem-02102214113D

 25 24  0     1  0  0  0  0  0999 V2000
   -2.4852   -3.6910   -0.3947 H   0  0  0  0  0  0  0  0  0  0  0  0
   -2.5320   -2.6234   -0.6273 C   0  0  0  0  0  0  0  0  0  0  0  0
   -3.1272   -2.1223    0.1398 H   0  0  0  0  0  0  0  0  0  0  0  0
   -3.0169   -2.4959   -1.5981 H   0  0  0  0  0  0  0  0  0  0  0  0
   -1.1335   -2.0365   -0.6661 C   0  0  0  0  0  0  0  0  0  0  0  0
   -0.1674   -2.7546   -0.4767 O   0  0  0  0  0  0  0  0  0  0  0  0
   -0.9608   -0.6908   -0.9251 N   0  0  0  0  0  0  0  0  0  0  0  0
   -1.8045   -0.1231   -0.9426 H   0  0  0  0  0  0  0  0  0  0  0  0
    0.3281    0.0055   -0.7728 C   0  0  1  0  0  0  0  0  0  0  0  0
    1.0516   -0.5398   -1.3911 H   0  0  0  0  0  0  0  0  0  0  0  0
    0.2154    1.4223   -1.3744 C   0  0  0  0  0  0  0  0  0  0  0  0
    1.2289    1.8158   -1.4977 H   0  0  0  0  0  0  0  0  0  0  0  0
   -0.2336    1.3655   -2.3692 H   0  0  0  0  0  0  0  0  0  0  0  0
   -0.5697    2.4335   -0.5409 C   0  0  0  0  0  0  0  0  0  0  0  0
   -1.4806    2.0438    0.1762 O   0  0  0  0  0  0  0  0  0  0  0  0
   -0.2214    3.7344   -0.6646 O   0  0  0  0  0  0  0  0  0  0  0  0
   -0.8028    4.2351   -0.0724 H   0  0  0  0  0  0  0  0  0  0  0  0
    0.9389   -0.0147    0.6494 C   0  0  0  0  0  0  0  0  0  0  0  0
    2.1544   -0.0570    0.7778 O   0  0  0  0  0  0  0  0  0  0  0  0
    0.1593    0.2382    1.7633 N   0  0  0  0  0  0  0  0  0  0  0  0
   -0.8108    0.4916    1.5890 H   0  0  0  0  0  0  0  0  0  0  0  0
    0.7079    0.4189    3.1013 C   0  0  0  0  0  0  0  0  0  0  0  0
    1.3599    1.2980    3.1326 H   0  0  0  0  0  0  0  0  0  0  0  0
   -0.1002    0.5584    3.8257 H   0  0  0  0  0  0  0  0  0  0  0  0
    1.2886   -0.4608    3.3988 H   0  0  0  0  0  0  0  0  0  0  0  0
  1  2  1  0  0  0  0
  2  3  1  0  0  0  0
  2  4  1  0  0  0  0
  2  5  1  0  0  0  0
  5  6  2  0  0  0  0
  5  7  1  0  0  0  0
  7  8  1  0  0  0  0
  7  9  1  0  0  0  0
  9 10  1  0  0  0  0
  9 11  1  0  0  0  0
  9 18  1  0  0  0  0
 11 12  1  0  0  0  0
 11 13  1  0  0  0  0
 11 14  1  0  0  0  0
 14 15  2  0  0  0  0
 14 16  1  0  0  0  0
 16 17  1  0  0  0  0
 18 19  2  0  0  0  0
 18 20  1  0  0  0  0
 20 21  1  0  0  0  0
 20 22  1  0  0  0  0
 22 23  1  0  0  0  0
 22 24  1  0  0  0  0
 22 25  1  0  0  0  0
M  END
$$$$

  -OEChem-02102214113D

 25 24  0     1  0  0  0  0  0999 V2000
   -2.4721   -3.7129   -0.4437 H   0  0  0  0  0  0  0  0  0  0  0  0
   -2.5305   -2.6409   -0.6527 C   0  0  0  0  0  0  0  0  0  0  0  0
   -3.1334   -2.1641    0.1237 H   0  0  0  0  0  0  0  0  0  0  0  0
   -3.0144   -2.4975   -1.6217 H   0  0  0  0  0  0  0  0  0  0  0  0
   -1.1386   -2.0377   -0.6746 C   0  0  0  0  0  0  0  0  0  0  0  0
   -0.1660   -2.7494   -0.4952 O   0  0  0  0  0  0  0  0  0  0  0  0
   -0.9797   -0.6851   -0.9064 N   0  0  0  0  0  0  0  0  0  0  0  0
   -1.8295   -0.1274   -0.9241 H   0  0  0  0  0  0  0  0  0  0  0  0
    0.3024    0.0200   -0.7404 C   0  0  1  0  0  0  0  0  0  0  0  0
    1.0268   -0.5256   -1.3576 H   0  0  0  0  0  0  0  0  0  0  0  0
    0.1994    1.4297   -1.3622 C   0  0  0  0  0  0  0  0  0  0  0  0
    1.2155    1.8204   -1.4729 H   0  0  0  0  0  0  0  0  0  0  0  0
   -0.2283    1.3519   -2.3649 H   0  0  0  0  0  0  0  0  0  0  0  0
   -0.6006    2.4695   -0.5782 C   0  0  0  0  0  0  0  0  0  0  0  0
   -1.3439    2.1198    0.3263 O   0  0  0  0  0  0  0  0  0  0  0  0
   -0.4453    3.7584   -0.9569 O   0  0  0  0  0  0  0  0  0  0  0  0
   -0.9953    4.2900   -0.3614 H   0  0  0  0  0  0  0  0  0  0  0  0
    0.9275   -0.0146    0.6768 C   0  0  0  0  0  0  0  0  0  0  0  0
    2.1450   -0.0605    0.7882 O   0  0  0  0  0  0  0  0  0  0  0  0
    0.1643    0.2103    1.8076 N   0  0  0  0  0  0  0  0  0  0  0  0
   -0.7918    0.5187    1.6440 H   0  0  0  0  0  0  0  0  0  0  0  0
    0.7392    0.3879    3.1350 C   0  0  0  0  0  0  0  0  0  0  0  0
    1.3601    1.2892    3.1664 H   0  0  0  0  0  0  0  0  0  0  0  0
   -0.0553    0.4854    3.8808 H   0  0  0  0  0  0  0  0  0  0  0  0
    1.3575   -0.4755    3.4030 H   0  0  0  0  0  0  0  0  0  0  0  0
  1  2  1  0  0  0  0
  2  3  1  0  0  0  0
  2  4  1  0  0  0  0
  2  5  1  0  0  0  0
  5  6  2  0  0  0  0
  5  7  1  0  0  0  0
  7  8  1  0  0  0  0
  7  9  1  0  0  0  0
  9 10  1  0  0  0  0
  9 11  1  0  0  0  0
  9 18  1  0  0  0  0
 11 12  1  0  0  0  0
 11 13  1  0  0  0  0
 11 14  1  0  0  0  0
 14 15  2  0  0  0  0
 14 16  1  0  0  0  0
 16 17  1  0  0  0  0
 18 19  2  0  0  0  0
 18 20  1  0  0  0  0
 20 21  1  0  0  0  0
 20 22  1  0  0  0  0
 22 23  1  0  0  0  0
 22 24  1  0  0  0  0
 22 25  1  0  0  0  0
M  END
$$$$

  -OEChem-02102214113D

 25 24  0     1  0  0  0  0  0999 V2000
   -2.4604   -3.7266   -0.4734 H   0  0  0  0  0  0  0  0  0  0  0  0
   -2.5285   -2.6534   -0.6728 C   0  0  0  0  0  0  0  0  0  0  0  0
   -3.1416   -2.1904    0.1039 H   0  0  0  0  0  0  0  0  0  0  0  0
   -3.0065   -2.5057   -1.6442 H   0  0  0  0  0  0  0  0  0  0  0  0
   -1.1427   -2.0359   -0.6781 C   0  0  0  0  0  0  0  0  0  0  0  0
   -0.1641   -2.7414   -0.5071 O   0  0  0  0  0  0  0  0  0  0  0  0
   -0.9969   -0.6777   -0.8855 N   0  0  0  0  0  0  0  0  0  0  0  0
   -1.8520   -0.1296   -0.9111 H   0  0  0  0  0  0  0  0  0  0  0  0
    0.2794    0.0363   -0.7119 C   0  0  1  0  0  0  0  0  0  0  0  0
    1.0033   -0.5082   -1.3309 H   0  0  0  0  0  0  0  0  0  0  0  0
    0.1809    1.4389   -1.3511 C   0  0  0  0  0  0  0  0  0  0  0  0
    1.1973    1.8300   -1.4554 H   0  0  0  0  0  0  0  0  0  0  0  0
   -0.2327    1.3414   -2.3582 H   0  0  0  0  0  0  0  0  0  0  0  0
   -0.6295    2.4989   -0.6055 C   0  0  0  0  0  0  0  0  0  0  0  0
   -1.1776    2.2378    0.4529 O   0  0  0  0  0  0  0  0  0  0  0  0
   -0.7010    3.7127   -1.1975 O   0  0  0  0  0  0  0  0  0  0  0  0
   -1.2204    4.2773   -0.6048 H   0  0  0  0  0  0  0  0  0  0  0  0
    0.9191   -0.0127    0.6990 C   0  0  0  0  0  0  0  0  0  0  0  0
    2.1382   -0.0605    0.7932 O   0  0  0  0  0  0  0  0  0  0  0  0
    0.1711    0.1856    1.8450 N   0  0  0  0  0  0  0  0  0  0  0  0
   -0.7740    0.5323    1.6968 H   0  0  0  0  0  0  0  0  0  0  0  0
    0.7722    0.3551    3.1618 C   0  0  0  0  0  0  0  0  0  0  0  0
    1.3870    1.2608    3.1882 H   0  0  0  0  0  0  0  0  0  0  0  0
   -0.0072    0.4401    3.9251 H   0  0  0  0  0  0  0  0  0  0  0  0
    1.4024   -0.5062    3.4086 H   0  0  0  0  0  0  0  0  0  0  0  0
  1  2  1  0  0  0  0
  2  3  1  0  0  0  0
  2  4  1  0  0  0  0
  2  5  1  0  0  0  0
  5  6  2  0  0  0  0
  5  7  1  0  0  0  0
  7  8  1  0  0  0  0
  7  9  1  0  0  0  0
  9 10  1  0  0  0  0
  9 11  1  0  0  0  0
  9 18  1  0  0  0  0
 11 12  1  0  0  0  0
 11 13  1  0  0  0  0
 11 14  1  0  0  0  0
 14 15  2  0  0  0  0
 14 16  1  0  0  0  0
 16 17  1  0  0  0  0
 18 19  2  0  0  0  0
 18 20  1  0  0  0  0
 20 21  1  0  0  0  0
 20 22  1  0  0  0  0
 22 23  1  0  0  0  0
 22 24  1  0  0  0  0
 22 25  1  0  0  0  0
M  END
$$$$

  -OEChem-02102214113D

 25 24  0     1  0  0  0  0  0999 V2000
   -2.4613   -3.7307   -0.4916 H   0  0  0  0  0  0  0  0  0  0  0  0
   -2.5308   -2.6567   -0.6868 C   0  0  0  0  0  0  0  0  0  0  0  0
   -3.1595   -2.2004    0.0814 H   0  0  0  0  0  0  0  0  0  0  0  0
   -2.9931   -2.5066   -1.6653 H   0  0  0  0  0  0  0  0  0  0  0  0
   -1.1481   -2.0327   -0.6651 C   0  0  0  0  0  0  0  0  0  0  0  0
   -0.1690   -2.7348   -0.4842 O   0  0  0  0  0  0  0  0  0  0  0  0
   -1.0063   -0.6724   -0.8624 N   0  0  0  0  0  0  0  0  0  0  0  0
   -1.8628   -0.1305   -0.9258 H   0  0  0  0  0  0  0  0  0  0  0  0
    0.2677    0.0473   -0.6937 C   0  0  1  0  0  0  0  0  0  0  0  0
    0.9889   -0.4974   -1.3156 H   0  0  0  0  0  0  0  0  0  0  0  0
    0.1619    1.4441   -1.3469 C   0  0  0  0  0  0  0  0  0  0  0  0
    1.1759    1.8391   -1.4581 H   0  0  0  0  0  0  0  0  0  0  0  0
   -0.2505    1.3297   -2.3530 H   0  0  0  0  0  0  0  0  0  0  0  0
   -0.6524    2.5145   -0.6197 C   0  0  0  0  0  0  0  0  0  0  0  0
   -0.9757    2.3783    0.5473 O   0  0  0  0  0  0  0  0  0  0  0  0
   -0.9868    3.5978   -1.3571 O   0  0  0  0  0  0  0  0  0  0  0  0
   -1.4667    4.1955   -0.7633 H   0  0  0  0  0  0  0  0  0  0  0  0
    0.9203   -0.0082    0.7119 C   0  0  0  0  0  0  0  0  0  0  0  0
    2.1399   -0.0706    0.7932 O   0  0  0  0  0  0  0  0  0  0  0  0
    0.1843    0.1772    1.8679 N   0  0  0  0  0  0  0  0  0  0  0  0
   -0.7503    0.5543    1.7323 H   0  0  0  0  0  0  0  0  0  0  0  0
    0.8028    0.3298    3.1789 C   0  0  0  0  0  0  0  0  0  0  0  0
    1.4237    1.2313    3.2072 H   0  0  0  0  0  0  0  0  0  0  0  0
    0.0331    0.4121    3.9523 H   0  0  0  0  0  0  0  0  0  0  0  0
    1.4300   -0.5378    3.4099 H   0  0  0  0  0  0  0  0  0  0  0  0
  1  2  1  0  0  0  0
  2  3  1  0  0  0  0
  2  4  1  0  0  0  0
  2  5  1  0  0  0  0
  5  6  2  0  0  0  0
  5  7  1  0  0  0  0
  7  8  1  0  0  0  0
  7  9  1  0  0  0  0
  9 10  1  0  0  0  0
  9 11  1  0  0  0  0
  9 18  1  0  0  0  0
 11 12  1  0  0  0  0
 11 13  1  0  0  0  0
 11 14  1  0  0  0  0
 14 15  2  0  0  0  0
 14 16  1  0  0  0  0
 16 17  1  0  0  0  0
 18 19  2  0  0  0  0
 18 20  1  0  0  0  0
 20 21  1  0  0  0  0
 20 22  1  0  0  0  0
 22 23  1  0  0  0  0
 22 24  1  0  0  0  0
 22 25  1  0  0  0  0
M  END
$$$$

  -OEChem-02102214113D

 25 24  0     1  0  0  0  0  0999 V2000
   -2.4770   -3.7298   -0.5152 H   0  0  0  0  0  0  0  0  0  0  0  0
   -2.5410   -2.6545   -0.7054 C   0  0  0  0  0  0  0  0  0  0  0  0
   -3.1928   -2.2029    0.0464 H   0  0  0  0  0  0  0  0  0  0  0  0
   -2.9734   -2.4978   -1.6965 H   0  0  0  0  0  0  0  0  0  0  0  0
   -1.1599   -2.0302   -0.6380 C   0  0  0  0  0  0  0  0  0  0  0  0
   -0.1875   -2.7308   -0.4205 O   0  0  0  0  0  0  0  0  0  0  0  0
   -1.0117   -0.6712   -0.8384 N   0  0  0  0  0  0  0  0  0  0  0  0
   -1.8617   -0.1321   -0.9720 H   0  0  0  0  0  0  0  0  0  0  0  0
    0.2644    0.0476   -0.6830 C   0  0  1  0  0  0  0  0  0  0  0  0
    0.9804   -0.5003   -1.3081 H   0  0  0  0  0  0  0  0  0  0  0  0
    0.1496    1.4388   -1.3462 C   0  0  0  0  0  0  0  0  0  0  0  0
    1.1607    1.8370   -1.4698 H   0  0  0  0  0  0  0  0  0  0  0  0
   -0.2699    1.3138   -2.3482 H   0  0  0  0  0  0  0  0  0  0  0  0
   -0.6613    2.5106   -0.6176 C   0  0  0  0  0  0  0  0  0  0  0  0
   -0.7450    2.5239    0.5968 O   0  0  0  0  0  0  0  0  0  0  0  0
   -1.2764    3.4187   -1.4091 O   0  0  0  0  0  0  0  0  0  0  0  0
   -1.7154    4.0454   -0.8132 H   0  0  0  0  0  0  0  0  0  0  0  0
    0.9270   -0.0071    0.7176 C   0  0  0  0  0  0  0  0  0  0  0  0
    2.1470   -0.0770    0.7888 O   0  0  0  0  0  0  0  0  0  0  0  0
    0.2000    0.1805    1.8793 N   0  0  0  0  0  0  0  0  0  0  0  0
   -0.7376    0.5511    1.7540 H   0  0  0  0  0  0  0  0  0  0  0  0
    0.8309    0.3343    3.1842 C   0  0  0  0  0  0  0  0  0  0  0  0
    1.4452    1.2403    3.2083 H   0  0  0  0  0  0  0  0  0  0  0  0
    0.0690    0.4086    3.9658 H   0  0  0  0  0  0  0  0  0  0  0  0
    1.4672   -0.5292    3.4060 H   0  0  0  0  0  0  0  0  0  0  0  0
  1  2  1  0  0  0  0
  2  3  1  0  0  0  0
  2  4  1  0  0  0  0
  2  5  1  0  0  0  0
  5  6  2  0  0  0  0
  5  7  1  0  0  0  0
  7  8  1  0  0  0  0
  7  9  1  0  0  0  0
  9 10  1  0  0  0  0
  9 11  1  0  0  0  0
  9 18  1  0  0  0  0
 11 12  1  0  0  0  0
 11 13  1  0  0  0  0
 11 14  1  0  0  0  0
 14 15  2  0  0  0  0
 14 16  1  0  0  0  0
 16 17  1  0  0  0  0
 18 19  2  0  0  0  0
 18 20  1  0  0  0  0
 20 21  1  0  0  0  0
 20 22  1  0  0  0  0
 22 23  1  0  0  0  0
 22 24  1  0  0  0  0
 22 25  1  0  0  0  0
M  END
$$$$

  -OEChem-02102214113D

 25 24  0     1  0  0  0  0  0999 V2000
   -2.4995   -3.7242   -0.5325 H   0  0  0  0  0  0  0  0  0  0  0  0
   -2.5534   -2.6492   -0.7272 C   0  0  0  0  0  0  0  0  0  0  0  0
   -3.2348   -2.1949   -0.0041 H   0  0  0  0  0  0  0  0  0  0  0  0
   -2.9443   -2.4940   -1.7358 H   0  0  0  0  0  0  0  0  0  0  0  0
   -1.1750   -2.0277   -0.6035 C   0  0  0  0  0  0  0  0  0  0  0  0
   -0.2172   -2.7276   -0.3279 O   0  0  0  0  0  0  0  0  0  0  0  0
   -1.0116   -0.6730   -0.8209 N   0  0  0  0  0  0  0  0  0  0  0  0
   -1.8434   -0.1393   -1.0557 H   0  0  0  0  0  0  0  0  0  0  0  0
    0.2720    0.0370   -0.6847 C   0  0  1  0  0  0  0  0  0  0  0  0
    0.9810   -0.5164   -1.3129 H   0  0  0  0  0  0  0  0  0  0  0  0
    0.1461    1.4263   -1.3490 C   0  0  0  0  0  0  0  0  0  0  0  0
    1.1546    1.8264   -1.4889 H   0  0  0  0  0  0  0  0  0  0  0  0
   -0.2894    1.3025   -2.3444 H   0  0  0  0  0  0  0  0  0  0  0  0
   -0.6526    2.4898   -0.5966 C   0  0  0  0  0  0  0  0  0  0  0  0
   -0.4953    2.6636    0.5973 O   0  0  0  0  0  0  0  0  0  0  0  0
   -1.5506    3.1855   -1.3316 O   0  0  0  0  0  0  0  0  0  0  0  0
   -1.9478    3.8335   -0.7288 H   0  0  0  0  0  0  0  0  0  0  0  0
    0.9385   -0.0111    0.7140 C   0  0  0  0  0  0  0  0  0  0  0  0
    2.1585   -0.0843    0.7820 O   0  0  0  0  0  0  0  0  0  0  0  0
    0.2142    0.1949    1.8744 N   0  0  0  0  0  0  0  0  0  0  0  0
   -0.7377    0.5245    1.7522 H   0  0  0  0  0  0  0  0  0  0  0  0
    0.8454    0.3704    3.1764 C   0  0  0  0  0  0  0  0  0  0  0  0
    1.4591    1.2772    3.1848 H   0  0  0  0  0  0  0  0  0  0  0  0
    0.0840    0.4581    3.9570 H   0  0  0  0  0  0  0  0  0  0  0  0
    1.4823   -0.4887    3.4124 H   0  0  0  0  0  0  0  0  0  0  0  0
  1  2  1  0  0  0  0
  2  3  1  0  0  0  0
  2  4  1  0  0  0  0
  2  5  1  0  0  0  0
  5  6  2  0  0  0  0
  5  7  1  0  0  0  0
  7  8  1  0  0  0  0
  7  9  1  0  0  0  0
  9 10  1  0  0  0  0
  9 11  1  0  0  0  0
  9 18  1  0  0  0  0
 11 12  1  0  0  0  0
 11 13  1  0  0  0  0
 11 14  1  0  0  0  0
 14 15  2  0  0  0  0
 14 16  1  0  0  0  0
 16 17  1  0  0  0  0
 18 19  2  0  0  0  0
 18 20  1  0  0  0  0
 20 21  1  0  0  0  0
 20 22  1  0  0  0  0
 22 23  1  0  0  0  0
 22 24  1  0  0  0  0
 22 25  1  0  0  0  0
M  END
$$$$

  -OEChem-02102214113D

 25 24  0     1  0  0  0  0  0999 V2000
   -2.5154   -3.7118   -0.5083 H   0  0  0  0  0  0  0  0  0  0  0  0
   -2.5574   -2.6417   -0.7312 C   0  0  0  0  0  0  0  0  0  0  0  0
   -3.2535   -2.1655   -0.0367 H   0  0  0  0  0  0  0  0  0  0  0  0
   -2.9221   -2.5097   -1.7526 H   0  0  0  0  0  0  0  0  0  0  0  0
   -1.1784   -2.0257   -0.5882 C   0  0  0  0  0  0  0  0  0  0  0  0
   -0.2323   -2.7244   -0.2723 O   0  0  0  0  0  0  0  0  0  0  0  0
   -1.0013   -0.6765   -0.8278 N   0  0  0  0  0  0  0  0  0  0  0  0
   -1.8184   -0.1469   -1.1188 H   0  0  0  0  0  0  0  0  0  0  0  0
    0.2891    0.0237   -0.7044 C   0  0  1  0  0  0  0  0  0  0  0  0
    0.9957   -0.5307   -1.3341 H   0  0  0  0  0  0  0  0  0  0  0  0
    0.1519    1.4159   -1.3560 C   0  0  0  0  0  0  0  0  0  0  0  0
    1.1569    1.8210   -1.5073 H   0  0  0  0  0  0  0  0  0  0  0  0
   -0.3020    1.3080   -2.3449 H   0  0  0  0  0  0  0  0  0  0  0  0
   -0.6357    2.4538   -0.5610 C   0  0  0  0  0  0  0  0  0  0  0  0
   -0.2699    2.7907    0.5495 O   0  0  0  0  0  0  0  0  0  0  0  0
   -1.7668    2.9181   -1.1407 O   0  0  0  0  0  0  0  0  0  0  0  0
   -2.1282    3.5787   -0.5289 H   0  0  0  0  0  0  0  0  0  0  0  0
    0.9484   -0.0130    0.6969 C   0  0  0  0  0  0  0  0  0  0  0  0
    2.1677   -0.0852    0.7741 O   0  0  0  0  0  0  0  0  0  0  0  0
    0.2147    0.2173    1.8469 N   0  0  0  0  0  0  0  0  0  0  0  0
   -0.7556    0.4831    1.7214 H   0  0  0  0  0  0  0  0  0  0  0  0
    0.8309    0.4168    3.1521 C   0  0  0  0  0  0  0  0  0  0  0  0
    1.4735    1.3035    3.1396 H   0  0  0  0  0  0  0  0  0  0  0  0
    0.0610    0.5561    3.9168 H   0  0  0  0  0  0  0  0  0  0  0  0
    1.4357   -0.4540    3.4263 H   0  0  0  0  0  0  0  0  0  0  0  0
  1  2  1  0  0  0  0
  2  3  1  0  0  0  0
  2  4  1  0  0  0  0
  2  5  1  0  0  0  0
  5  6  2  0  0  0  0
  5  7  1  0  0  0  0
  7  8  1  0  0  0  0
  7  9  1  0  0  0  0
  9 10  1  0  0  0  0
  9 11  1  0  0  0  0
  9 18  1  0  0  0  0
 11 12  1  0  0  0  0
 11 13  1  0  0  0  0
 11 14  1  0  0  0  0
 14 15  2  0  0  0  0
 14 16  1  0  0  0  0
 16 17  1  0  0  0  0
 18 19  2  0  0  0  0
 18 20  1  0  0  0  0
 20 21  1  0  0  0  0
 20 22  1  0  0  0  0
 22 23  1  0  0  0  0
 22 24  1  0  0  0  0
 22 25  1  0  0  0  0
M  END
$$$$

  -OEChem-02102214113D

 25 24  0     1  0  0  0  0  0999 V2000
   -2.5294   -3.6993   -0.4907 H   0  0  0  0  0  0  0  0  0  0  0  0
   -2.5606   -2.6335   -0.7337 C   0  0  0  0  0  0  0  0  0  0  0  0
   -3.2679   -2.1407   -0.0625 H   0  0  0  0  0  0  0  0  0  0  0  0
   -2.9035   -2.5181   -1.7647 H   0  0  0  0  0  0  0  0  0  0  0  0
   -1.1808   -2.0231   -0.5747 C   0  0  0  0  0  0  0  0  0  0  0  0
   -0.2463   -2.7202   -0.2229 O   0  0  0  0  0  0  0  0  0  0  0  0
   -0.9891   -0.6810   -0.8403 N   0  0  0  0  0  0  0  0  0  0  0  0
   -1.7974   -0.1507   -1.1557 H   0  0  0  0  0  0  0  0  0  0  0  0
    0.3067    0.0111   -0.7283 C   0  0  1  0  0  0  0  0  0  0  0  0
    1.0125   -0.5447   -1.3574 H   0  0  0  0  0  0  0  0  0  0  0  0
    0.1607    1.4062   -1.3668 C   0  0  0  0  0  0  0  0  0  0  0  0
    1.1619    1.8164   -1.5298 H   0  0  0  0  0  0  0  0  0  0  0  0
   -0.3137    1.3157   -2.3476 H   0  0  0  0  0  0  0  0  0  0  0  0
   -0.6164    2.4123   -0.5264 C   0  0  0  0  0  0  0  0  0  0  0  0
   -0.0961    2.9223    0.4485 O   0  0  0  0  0  0  0  0  0  0  0  0
   -1.9028    2.6338   -0.8846 O   0  0  0  0  0  0  0  0  0  0  0  0
   -2.2368    3.3028   -0.2656 H   0  0  0  0  0  0  0  0  0  0  0  0
    0.9575   -0.0059    0.6761 C   0  0  0  0  0  0  0  0  0  0  0  0
    2.1765   -0.0636    0.7640 O   0  0  0  0  0  0  0  0  0  0  0  0
    0.2126    0.2528    1.8127 N   0  0  0  0  0  0  0  0  0  0  0  0
   -0.7804    0.4144    1.6899 H   0  0  0  0  0  0  0  0  0  0  0  0
    0.8079    0.4646    3.1254 C   0  0  0  0  0  0  0  0  0  0  0  0
    1.4672    1.3389    3.1086 H   0  0  0  0  0  0  0  0  0  0  0  0
    0.0270    0.6336    3.8727 H   0  0  0  0  0  0  0  0  0  0  0  0
    1.3910   -0.4122    3.4265 H   0  0  0  0  0  0  0  0  0  0  0  0
  1  2  1  0  0  0  0
  2  3  1  0  0  0  0
  2  4  1  0  0  0  0
  2  5  1  0  0  0  0
  5  6  2  0  0  0  0
  5  7  1  0  0  0  0
  7  8  1  0  0  0  0
  7  9  1  0  0  0  0
  9 10  1  0  0  0  0
  9 11  1  0  0  0  0
  9 18  1  0  0  0  0
 11 12  1  0  0  0  0
 11 13  1  0  0  0  0
 11 14  1  0  0  0  0
 14 15  2  0  0  0  0
 14 16  1  0  0  0  0
 16 17  1  0  0  0  0
 18 19  2  0  0  0  0
 18 20  1  0  0  0  0
 20 21  1  0  0  0  0
 20 22  1  0  0  0  0
 22 23  1  0  0  0  0
 22 24  1  0  0  0  0
 22 25  1  0  0  0  0
M  END
$$$$

  -OEChem-02102214113D

 25 24  0     1  0  0  0  0  0999 V2000
   -2.5219   -3.6876   -0.4428 H   0  0  0  0  0  0  0  0  0  0  0  0
   -2.5504   -2.6257   -0.7035 C   0  0  0  0  0  0  0  0  0  0  0  0
   -3.2450   -2.1170   -0.0310 H   0  0  0  0  0  0  0  0  0  0  0  0
   -2.9080   -2.5259   -1.7311 H   0  0  0  0  0  0  0  0  0  0  0  0
   -1.1651   -2.0206   -0.5755 C   0  0  0  0  0  0  0  0  0  0  0  0
   -0.2289   -2.7158   -0.2244 O   0  0  0  0  0  0  0  0  0  0  0  0
   -0.9706   -0.6836   -0.8627 N   0  0  0  0  0  0  0  0  0  0  0  0
   -1.7870   -0.1439   -1.1414 H   0  0  0  0  0  0  0  0  0  0  0  0
    0.3238    0.0113   -0.7557 C   0  0  1  0  0  0  0  0  0  0  0  0
    1.0346   -0.5417   -1.3813 H   0  0  0  0  0  0  0  0  0  0  0  0
    0.1681    1.4087   -1.3831 C   0  0  0  0  0  0  0  0  0  0  0  0
    1.1652    1.8268   -1.5540 H   0  0  0  0  0  0  0  0  0  0  0  0
   -0.3221    1.3297   -2.3571 H   0  0  0  0  0  0  0  0  0  0  0  0
   -0.6084    2.3837   -0.5086 C   0  0  0  0  0  0  0  0  0  0  0  0
   -0.0125    3.0774    0.2950 O   0  0  0  0  0  0  0  0  0  0  0  0
   -1.9568    2.3786   -0.6366 O   0  0  0  0  0  0  0  0  0  0  0  0
   -2.2780    3.0655   -0.0304 H   0  0  0  0  0  0  0  0  0  0  0  0
    0.9623    0.0166    0.6536 C   0  0  0  0  0  0  0  0  0  0  0  0
    2.1804   -0.0269    0.7560 O   0  0  0  0  0  0  0  0  0  0  0  0
    0.2018    0.2944    1.7754 N   0  0  0  0  0  0  0  0  0  0  0  0
   -0.8029    0.3529    1.6549 H   0  0  0  0  0  0  0  0  0  0  0  0
    0.7716    0.4684    3.1051 C   0  0  0  0  0  0  0  0  0  0  0  0
    1.4795    1.3040    3.1109 H   0  0  0  0  0  0  0  0  0  0  0  0
   -0.0186    0.6805    3.8314 H   0  0  0  0  0  0  0  0  0  0  0  0
    1.2961   -0.4405    3.4184 H   0  0  0  0  0  0  0  0  0  0  0  0
  1  2  1  0  0  0  0
  2  3  1  0  0  0  0
  2  4  1  0  0  0  0
  2  5  1  0  0  0  0
  5  6  2  0  0  0  0
  5  7  1  0  0  0  0
  7  8  1  0  0  0  0
  7  9  1  0  0  0  0
  9 10  1  0  0  0  0
  9 11  1  0  0  0  0
  9 18  1  0  0  0  0
 11 12  1  0  0  0  0
 11 13  1  0  0  0  0
 11 14  1  0  0  0  0
 14 15  2  0  0  0  0
 14 16  1  0  0  0  0
 16 17  1  0  0  0  0
 18 19  2  0  0  0  0
 18 20  1  0  0  0  0
 20 21  1  0  0  0  0
 20 22  1  0  0  0  0
 22 23  1  0  0  0  0
 22 24  1  0  0  0  0
 22 25  1  0  0  0  0
M  END
$$$$

  -OEChem-02102214113D

 25 24  0     1  0  0  0  0  0999 V2000
   -2.4992   -3.6854   -0.3955 H   0  0  0  0  0  0  0  0  0  0  0  0
   -2.5344   -2.6251   -0.6615 C   0  0  0  0  0  0  0  0  0  0  0  0
   -3.2043   -2.1105    0.0312 H   0  0  0  0  0  0  0  0  0  0  0  0
   -2.9269   -2.5309   -1.6769 H   0  0  0  0  0  0  0  0  0  0  0  0
   -1.1442   -2.0224   -0.5853 C   0  0  0  0  0  0  0  0  0  0  0  0
   -0.1978   -2.7162   -0.2595 O   0  0  0  0  0  0  0  0  0  0  0  0
   -0.9566   -0.6870   -0.8836 N   0  0  0  0  0  0  0  0  0  0  0  0
   -1.7862   -0.1369   -1.0971 H   0  0  0  0  0  0  0  0  0  0  0  0
    0.3343    0.0146   -0.7777 C   0  0  1  0  0  0  0  0  0  0  0  0
    1.0514   -0.5332   -1.4009 H   0  0  0  0  0  0  0  0  0  0  0  0
    0.1755    1.4168   -1.3930 C   0  0  0  0  0  0  0  0  0  0  0  0
    1.1719    1.8364   -1.5650 H   0  0  0  0  0  0  0  0  0  0  0  0
   -0.3217    1.3463   -2.3638 H   0  0  0  0  0  0  0  0  0  0  0  0
   -0.6007    2.3758   -0.4997 C   0  0  0  0  0  0  0  0  0  0  0  0
    0.0011    3.2441    0.1050 O   0  0  0  0  0  0  0  0  0  0  0  0
   -1.9395    2.1857   -0.4011 O   0  0  0  0  0  0  0  0  0  0  0  0
   -2.2571    2.8966    0.1794 H   0  0  0  0  0  0  0  0  0  0  0  0
    0.9610    0.0308    0.6361 C   0  0  0  0  0  0  0  0  0  0  0  0
    2.1780    0.0027    0.7518 O   0  0  0  0  0  0  0  0  0  0  0  0
    0.1851    0.3137    1.7462 N   0  0  0  0  0  0  0  0  0  0  0  0
   -0.8212    0.3086    1.6207 H   0  0  0  0  0  0  0  0  0  0  0  0
    0.7344    0.4494    3.0891 C   0  0  0  0  0  0  0  0  0  0  0  0
    1.4755    1.2553    3.1195 H   0  0  0  0  0  0  0  0  0  0  0  0
   -0.0607    0.6860    3.8024 H   0  0  0  0  0  0  0  0  0  0  0  0
    1.2151   -0.4836    3.4014 H   0  0  0  0  0  0  0  0  0  0  0  0
  1  2  1  0  0  0  0
  2  3  1  0  0  0  0
  2  4  1  0  0  0  0
  2  5  1  0  0  0  0
  5  6  2  0  0  0  0
  5  7  1  0  0  0  0
  7  8  1  0  0  0  0
  7  9  1  0  0  0  0
  9 10  1  0  0  0  0
  9 11  1  0  0  0  0
  9 18  1  0  0  0  0
 11 12  1  0  0  0  0
 11 13  1  0  0  0  0
 11 14  1  0  0  0  0
 14 15  2  0  0  0  0
 14 16  1  0  0  0  0
 16 17  1  0  0  0  0
 18 19  2  0  0  0  0
 18 20  1  0  0  0  0
 20 21  1  0  0  0  0
 20 22  1  0  0  0  0
 22 23  1  0  0  0  0
 22 24  1  0  0  0  0
 22 25  1  0  0  0  0
M  END
$$$$

  -OEChem-02102214113D

 25 24  0     1  0  0  0  0  0999 V2000
   -2.4773   -3.6920   -0.3640 H   0  0  0  0  0  0  0  0  0  0  0  0
   -2.5198   -2.6316   -0.6289 C   0  0  0  0  0  0  0  0  0  0  0  0
   -3.1657   -2.1160    0.0854 H   0  0  0  0  0  0  0  0  0  0  0  0
   -2.9456   -2.5369   -1.6307 H   0  0  0  0  0  0  0  0  0  0  0  0
   -1.1271   -2.0305   -0.5989 C   0  0  0  0  0  0  0  0  0  0  0  0
   -0.1709   -2.7265   -0.3078 O   0  0  0  0  0  0  0  0  0  0  0  0
   -0.9483   -0.6941   -0.8974 N   0  0  0  0  0  0  0  0  0  0  0  0
   -1.7872   -0.1372   -1.0461 H   0  0  0  0  0  0  0  0  0  0  0  0
    0.3396    0.0130   -0.7916 C   0  0  1  0  0  0  0  0  0  0  0  0
    1.0592   -0.5281   -1.4178 H   0  0  0  0  0  0  0  0  0  0  0  0
    0.1806    1.4234   -1.3902 C   0  0  0  0  0  0  0  0  0  0  0  0
    1.1780    1.8402   -1.5641 H   0  0  0  0  0  0  0  0  0  0  0  0
   -0.3228    1.3625   -2.3584 H   0  0  0  0  0  0  0  0  0  0  0  0
   -0.5908    2.3813   -0.4887 C   0  0  0  0  0  0  0  0  0  0  0  0
   -0.0395    3.3962   -0.1044 O   0  0  0  0  0  0  0  0  0  0  0  0
   -1.8679    2.0569   -0.1657 O   0  0  0  0  0  0  0  0  0  0  0  0
   -2.1878    2.7982    0.3746 H   0  0  0  0  0  0  0  0  0  0  0  0
    0.9601    0.0270    0.6246 C   0  0  0  0  0  0  0  0  0  0  0  0
    2.1761    0.0078    0.7494 O   0  0  0  0  0  0  0  0  0  0  0  0
    0.1748    0.3049    1.7292 N   0  0  0  0  0  0  0  0  0  0  0  0
   -0.8303    0.3115    1.5898 H   0  0  0  0  0  0  0  0  0  0  0  0
    0.7085    0.4267    3.0798 C   0  0  0  0  0  0  0  0  0  0  0  0
    1.4503    1.2310    3.1274 H   0  0  0  0  0  0  0  0  0  0  0  0
   -0.0952    0.6571    3.7855 H   0  0  0  0  0  0  0  0  0  0  0  0
    1.1843   -0.5100    3.3886 H   0  0  0  0  0  0  0  0  0  0  0  0
  1  2  1  0  0  0  0
  2  3  1  0  0  0  0
  2  4  1  0  0  0  0
  2  5  1  0  0  0  0
  5  6  2  0  0  0  0
  5  7  1  0  0  0  0
  7  8  1  0  0  0  0
  7  9  1  0  0  0  0
  9 10  1  0  0  0  0
  9 11  1  0  0  0  0
  9 18  1  0  0  0  0
 11 12  1  0  0  0  0
 11 13  1  0  0  0  0
 11 14  1  0  0  0  0
 14 15  2  0  0  0  0
 14 16  1  0  0  0  0
 16 17  1  0  0  0  0
 18 19  2  0  0  0  0
 18 20  1  0  0  0  0
 20 21  1  0  0  0  0
 20 22  1  0  0  0  0
 22 23  1  0  0  0  0
 22 24  1  0  0  0  0
 22 25  1  0  0  0  0
M  END
$$$$

  -OEChem-02102214113D

 25 24  0     1  0  0  0  0  0999 V2000
   -2.4667   -3.7006   -0.3636 H   0  0  0  0  0  0  0  0  0  0  0  0
   -2.5144   -2.6371   -0.6148 C   0  0  0  0  0  0  0  0  0  0  0  0
   -3.1352   -2.1284    0.1263 H   0  0  0  0  0  0  0  0  0  0  0  0
   -2.9718   -2.5293   -1.6013 H   0  0  0  0  0  0  0  0  0  0  0  0
   -1.1196   -2.0401   -0.6225 C   0  0  0  0  0  0  0  0  0  0  0  0
   -0.1557   -2.7432   -0.3769 O   0  0  0  0  0  0  0  0  0  0  0  0
   -0.9479   -0.6995   -0.9064 N   0  0  0  0  0  0  0  0  0  0  0  0
   -1.7919   -0.1377   -0.9932 H   0  0  0  0  0  0  0  0  0  0  0  0
    0.3390    0.0076   -0.7903 C   0  0  1  0  0  0  0  0  0  0  0  0
    1.0590   -0.5285   -1.4203 H   0  0  0  0  0  0  0  0  0  0  0  0
    0.1880    1.4250   -1.3759 C   0  0  0  0  0  0  0  0  0  0  0  0
    1.1895    1.8358   -1.5400 H   0  0  0  0  0  0  0  0  0  0  0  0
   -0.3089    1.3708   -2.3476 H   0  0  0  0  0  0  0  0  0  0  0  0
   -0.5834    2.3907   -0.4803 C   0  0  0  0  0  0  0  0  0  0  0  0
   -0.1357    3.5116   -0.3228 O   0  0  0  0  0  0  0  0  0  0  0  0
   -1.7650    1.9792    0.0473 O   0  0  0  0  0  0  0  0  0  0  0  0
   -2.1053    2.7495    0.5324 H   0  0  0  0  0  0  0  0  0  0  0  0
    0.9598    0.0073    0.6258 C   0  0  0  0  0  0  0  0  0  0  0  0
    2.1757   -0.0122    0.7517 O   0  0  0  0  0  0  0  0  0  0  0  0
    0.1753    0.2724    1.7336 N   0  0  0  0  0  0  0  0  0  0  0  0
   -0.8260    0.3474    1.5821 H   0  0  0  0  0  0  0  0  0  0  0  0
    0.7089    0.4107    3.0825 C   0  0  0  0  0  0  0  0  0  0  0  0
    1.4149    1.2465    3.1311 H   0  0  0  0  0  0  0  0  0  0  0  0
   -0.1013    0.6003    3.7929 H   0  0  0  0  0  0  0  0  0  0  0  0
    1.2268   -0.5059    3.3849 H   0  0  0  0  0  0  0  0  0  0  0  0
  1  2  1  0  0  0  0
  2  3  1  0  0  0  0
  2  4  1  0  0  0  0
  2  5  1  0  0  0  0
  5  6  2  0  0  0  0
  5  7  1  0  0  0  0
  7  8  1  0  0  0  0
  7  9  1  0  0  0  0
  9 10  1  0  0  0  0
  9 11  1  0  0  0  0
  9 18  1  0  0  0  0
 11 12  1  0  0  0  0
 11 13  1  0  0  0  0
 11 14  1  0  0  0  0
 14 15  2  0  0  0  0
 14 16  1  0  0  0  0
 16 17  1  0  0  0  0
 18 19  2  0  0  0  0
 18 20  1  0  0  0  0
 20 21  1  0  0  0  0
 20 22  1  0  0  0  0
 22 23  1  0  0  0  0
 22 24  1  0  0  0  0
 22 25  1  0  0  0  0
M  END
$$$$

  -OEChem-02102214113D

 25 24  0     1  0  0  0  0  0999 V2000
   -2.4649   -3.7132   -0.3964 H   0  0  0  0  0  0  0  0  0  0  0  0
   -2.5178   -2.6443   -0.6223 C   0  0  0  0  0  0  0  0  0  0  0  0
   -3.1251   -2.1530    0.1414 H   0  0  0  0  0  0  0  0  0  0  0  0
   -2.9928   -2.5144   -1.5977 H   0  0  0  0  0  0  0  0  0  0  0  0
   -1.1237   -2.0463   -0.6418 C   0  0  0  0  0  0  0  0  0  0  0  0
   -0.1558   -2.7542   -0.4276 O   0  0  0  0  0  0  0  0  0  0  0  0
   -0.9570   -0.7004   -0.9031 N   0  0  0  0  0  0  0  0  0  0  0  0
   -1.8027   -0.1379   -0.9555 H   0  0  0  0  0  0  0  0  0  0  0  0
    0.3297    0.0041   -0.7732 C   0  0  1  0  0  0  0  0  0  0  0  0
    1.0473   -0.5319   -1.4063 H   0  0  0  0  0  0  0  0  0  0  0  0
    0.1948    1.4243   -1.3575 C   0  0  0  0  0  0  0  0  0  0  0  0
    1.2025    1.8250   -1.5069 H   0  0  0  0  0  0  0  0  0  0  0  0
   -0.2874    1.3705   -2.3369 H   0  0  0  0  0  0  0  0  0  0  0  0
   -0.5792    2.4112   -0.4859 C   0  0  0  0  0  0  0  0  0  0  0  0
   -0.2729    3.5869   -0.5602 O   0  0  0  0  0  0  0  0  0  0  0  0
   -1.6420    1.9647    0.2327 O   0  0  0  0  0  0  0  0  0  0  0  0
   -2.0110    2.7594    0.6536 H   0  0  0  0  0  0  0  0  0  0  0  0
    0.9587   -0.0148    0.6402 C   0  0  0  0  0  0  0  0  0  0  0  0
    2.1755   -0.0397    0.7565 O   0  0  0  0  0  0  0  0  0  0  0  0
    0.1865    0.2330    1.7601 N   0  0  0  0  0  0  0  0  0  0  0  0
   -0.8055    0.3913    1.6058 H   0  0  0  0  0  0  0  0  0  0  0  0
    0.7383    0.3927    3.0995 C   0  0  0  0  0  0  0  0  0  0  0  0
    1.3951    1.2679    3.1416 H   0  0  0  0  0  0  0  0  0  0  0  0
   -0.0670    0.5270    3.8279 H   0  0  0  0  0  0  0  0  0  0  0  0
    1.3152   -0.4940    3.3832 H   0  0  0  0  0  0  0  0  0  0  0  0
  1  2  1  0  0  0  0
  2  3  1  0  0  0  0
  2  4  1  0  0  0  0
  2  5  1  0  0  0  0
  5  6  2  0  0  0  0
  5  7  1  0  0  0  0
  7  8  1  0  0  0  0
  7  9  1  0  0  0  0
  9 10  1  0  0  0  0
  9 11  1  0  0  0  0
  9 18  1  0  0  0  0
 11 12  1  0  0  0  0
 11 13  1  0  0  0  0
 11 14  1  0  0  0  0
 14 15  2  0  0  0  0
 14 16  1  0  0  0  0
 16 17  1  0  0  0  0
 18 19  2  0  0  0  0
 18 20  1  0  0  0  0
 20 21  1  0  0  0  0
 20 22  1  0  0  0  0
 22 23  1  0  0  0  0
 22 24  1  0  0  0  0
 22 25  1  0  0  0  0
M  END
$$$$

  -OEChem-02102214113D

 25 24  0     1  0  0  0  0  0999 V2000
   -2.4715   -3.7200   -0.4383 H   0  0  0  0  0  0  0  0  0  0  0  0
   -2.5261   -2.6473   -0.6448 C   0  0  0  0  0  0  0  0  0  0  0  0
   -3.1361   -2.1717    0.1267 H   0  0  0  0  0  0  0  0  0  0  0  0
   -2.9998   -2.5004   -1.6183 H   0  0  0  0  0  0  0  0  0  0  0  0
   -1.1332   -2.0462   -0.6504 C   0  0  0  0  0  0  0  0  0  0  0  0
   -0.1644   -2.7566   -0.4477 O   0  0  0  0  0  0  0  0  0  0  0  0
   -0.9693   -0.6952   -0.8864 N   0  0  0  0  0  0  0  0  0  0  0  0
   -1.8159   -0.1349   -0.9352 H   0  0  0  0  0  0  0  0  0  0  0  0
    0.3170    0.0071   -0.7447 C   0  0  1  0  0  0  0  0  0  0  0  0
    1.0302   -0.5327   -1.3797 H   0  0  0  0  0  0  0  0  0  0  0  0
    0.1992    1.4240   -1.3414 C   0  0  0  0  0  0  0  0  0  0  0  0
    1.2121    1.8160   -1.4769 H   0  0  0  0  0  0  0  0  0  0  0  0
   -0.2638    1.3596   -2.3294 H   0  0  0  0  0  0  0  0  0  0  0  0
   -0.5797    2.4404   -0.5080 C   0  0  0  0  0  0  0  0  0  0  0  0
   -0.4473    3.6125   -0.8089 O   0  0  0  0  0  0  0  0  0  0  0  0
   -1.4994    2.0084    0.3928 O   0  0  0  0  0  0  0  0  0  0  0  0
   -1.9064    2.8182    0.7438 H   0  0  0  0  0  0  0  0  0  0  0  0
    0.9609   -0.0300    0.6622 C   0  0  0  0  0  0  0  0  0  0  0  0
    2.1795   -0.0580    0.7609 O   0  0  0  0  0  0  0  0  0  0  0  0
    0.2076    0.1980    1.7984 N   0  0  0  0  0  0  0  0  0  0  0  0
   -0.7721    0.4268    1.6507 H   0  0  0  0  0  0  0  0  0  0  0  0
    0.7857    0.3649    3.1257 C   0  0  0  0  0  0  0  0  0  0  0  0
    1.4133    1.2615    3.1601 H   0  0  0  0  0  0  0  0  0  0  0  0
   -0.0064    0.4649    3.8737 H   0  0  0  0  0  0  0  0  0  0  0  0
    1.3983   -0.5043    3.3877 H   0  0  0  0  0  0  0  0  0  0  0  0
  1  2  1  0  0  0  0
  2  3  1  0  0  0  0
  2  4  1  0  0  0  0
  2  5  1  0  0  0  0
  5  6  2  0  0  0  0
  5  7  1  0  0  0  0
  7  8  1  0  0  0  0
  7  9  1  0  0  0  0
  9 10  1  0  0  0  0
  9 11  1  0  0  0  0
  9 18  1  0  0  0  0
 11 12  1  0  0  0  0
 11 13  1  0  0  0  0
 11 14  1  0  0  0  0
 14 15  2  0  0  0  0
 14 16  1  0  0  0  0
 16 17  1  0  0  0  0
 18 19  2  0  0  0  0
 18 20  1  0  0  0  0
 20 21  1  0  0  0  0
 20 22  1  0  0  0  0
 22 23  1  0  0  0  0
 22 24  1  0  0  0  0
 22 25  1  0  0  0  0
M  END
$$$$

  -OEChem-02102214113D

 25 24  0     1  0  0  0  0  0999 V2000
   -2.5164   -3.7075   -0.5509 H   0  0  0  0  0  0  0  0  0  0  0  0
   -2.5618   -2.6294   -0.7302 C   0  0  0  0  0  0  0  0  0  0  0  0
   -3.2119   -2.1754    0.0213 H   0  0  0  0  0  0  0  0  0  0  0  0
   -2.9839   -2.4557   -1.7229 H   0  0  0  0  0  0  0  0  0  0  0  0
   -1.1716   -2.0278   -0.6456 C   0  0  0  0  0  0  0  0  0  0  0  0
   -0.2122   -2.7451   -0.4242 O   0  0  0  0  0  0  0  0  0  0  0  0
   -1.0005   -0.6684   -0.8237 N   0  0  0  0  0  0  0  0  0  0  0  0
   -1.8403   -0.1117   -0.9509 H   0  0  0  0  0  0  0  0  0  0  0  0
    0.2870    0.0282   -0.6639 C   0  0  1  0  0  0  0  0  0  0  0  0
    0.9818   -0.5441   -1.2913 H   0  0  0  0  0  0  0  0  0  0  0  0
    0.2273    1.4164   -1.3427 C   0  0  0  0  0  0  0  0  0  0  0  0
    1.2436    1.6566   -1.6697 H   0  0  0  0  0  0  0  0  0  0  0  0
   -0.3944    1.3505   -2.2397 H   0  0  0  0  0  0  0  0  0  0  0  0
   -0.2462    2.6108   -0.5146 C   0  0  0  0  0  0  0  0  0  0  0  0
   -0.2711    3.6809   -1.0955 O   0  0  0  0  0  0  0  0  0  0  0  0
   -0.8024    2.4276    0.7053 O   0  0  0  0  0  0  0  0  0  0  0  0
   -1.0639    3.3140    1.0031 H   0  0  0  0  0  0  0  0  0  0  0  0
    0.9642   -0.0542    0.7277 C   0  0  0  0  0  0  0  0  0  0  0  0
    2.1856   -0.0972    0.7875 O   0  0  0  0  0  0  0  0  0  0  0  0
    0.2505    0.1265    1.8978 N   0  0  0  0  0  0  0  0  0  0  0  0
   -0.7087    0.4418    1.7863 H   0  0  0  0  0  0  0  0  0  0  0  0
    0.8829    0.2545    3.2046 C   0  0  0  0  0  0  0  0  0  0  0  0
    1.5187    1.1454    3.2371 H   0  0  0  0  0  0  0  0  0  0  0  0
    0.1218    0.3400    3.9859 H   0  0  0  0  0  0  0  0  0  0  0  0
    1.4983   -0.6257    3.4194 H   0  0  0  0  0  0  0  0  0  0  0  0
  1  2  1  0  0  0  0
  2  3  1  0  0  0  0
  2  4  1  0  0  0  0
  2  5  1  0  0  0  0
  5  6  2  0  0  0  0
  5  7  1  0  0  0  0
  7  8  1  0  0  0  0
  7  9  1  0  0  0  0
  9 10  1  0  0  0  0
  9 11  1  0  0  0  0
  9 18  1  0  0  0  0
 11 12  1  0  0  0  0
 11 13  1  0  0  0  0
 11 14  1  0  0  0  0
 14 15  2  0  0  0  0
 14 16  1  0  0  0  0
 16 17  1  0  0  0  0
 18 19  2  0  0  0  0
 18 20  1  0  0  0  0
 20 21  1  0  0  0  0
 20 22  1  0  0  0  0
 22 23  1  0  0  0  0
 22 24  1  0  0  0  0
 22 25  1  0  0  0  0
M  END
$$$$

  -OEChem-02102214113D

 25 24  0     1  0  0  0  0  0999 V2000
   -2.5282   -3.7115   -0.5926 H   0  0  0  0  0  0  0  0  0  0  0  0
   -2.5746   -2.6311   -0.7571 C   0  0  0  0  0  0  0  0  0  0  0  0
   -3.2520   -2.1926   -0.0206 H   0  0  0  0  0  0  0  0  0  0  0  0
   -2.9655   -2.4452   -1.7604 H   0  0  0  0  0  0  0  0  0  0  0  0
   -1.1914   -2.0231   -0.6188 C   0  0  0  0  0  0  0  0  0  0  0  0
   -0.2390   -2.7375   -0.3618 O   0  0  0  0  0  0  0  0  0  0  0  0
   -1.0175   -0.6633   -0.7944 N   0  0  0  0  0  0  0  0  0  0  0  0
   -1.8480   -0.1130   -0.9924 H   0  0  0  0  0  0  0  0  0  0  0  0
    0.2734    0.0314   -0.6469 C   0  0  1  0  0  0  0  0  0  0  0  0
    0.9611   -0.5488   -1.2749 H   0  0  0  0  0  0  0  0  0  0  0  0
    0.2152    1.4114   -1.3462 C   0  0  0  0  0  0  0  0  0  0  0  0
    1.2330    1.6408   -1.6756 H   0  0  0  0  0  0  0  0  0  0  0  0
   -0.4017    1.3267   -2.2454 H   0  0  0  0  0  0  0  0  0  0  0  0
   -0.2493    2.6366   -0.5561 C   0  0  0  0  0  0  0  0  0  0  0  0
   -0.5388    3.6121   -1.2259 O   0  0  0  0  0  0  0  0  0  0  0  0
   -0.4226    2.5922    0.7824 O   0  0  0  0  0  0  0  0  0  0  0  0
   -0.6998    3.4854    1.0407 H   0  0  0  0  0  0  0  0  0  0  0  0
    0.9585   -0.0614    0.7405 C   0  0  0  0  0  0  0  0  0  0  0  0
    2.1803   -0.1154    0.7913 O   0  0  0  0  0  0  0  0  0  0  0  0
    0.2519    0.1141    1.9163 N   0  0  0  0  0  0  0  0  0  0  0  0
   -0.7124    0.4138    1.8173 H   0  0  0  0  0  0  0  0  0  0  0  0
    0.8928    0.2345    3.2195 C   0  0  0  0  0  0  0  0  0  0  0  0
    1.5127    1.1363    3.2596 H   0  0  0  0  0  0  0  0  0  0  0  0
    0.1370    0.2951    4.0084 H   0  0  0  0  0  0  0  0  0  0  0  0
    1.5257   -0.6375    3.4163 H   0  0  0  0  0  0  0  0  0  0  0  0
  1  2  1  0  0  0  0
  2  3  1  0  0  0  0
  2  4  1  0  0  0  0
  2  5  1  0  0  0  0
  5  6  2  0  0  0  0
  5  7  1  0  0  0  0
  7  8  1  0  0  0  0
  7  9  1  0  0  0  0
  9 10  1  0  0  0  0
  9 11  1  0  0  0  0
  9 18  1  0  0  0  0
 11 12  1  0  0  0  0
 11 13  1  0  0  0  0
 11 14  1  0  0  0  0
 14 15  2  0  0  0  0
 14 16  1  0  0  0  0
 16 17  1  0  0  0  0
 18 19  2  0  0  0  0
 18 20  1  0  0  0  0
 20 21  1  0  0  0  0
 20 22  1  0  0  0  0
 22 23  1  0  0  0  0
 22 24  1  0  0  0  0
 22 25  1  0  0  0  0
M  END
$$$$

  -OEChem-02102214113D

 25 24  0     1  0  0  0  0  0999 V2000
   -2.5271   -3.7044   -0.5569 H   0  0  0  0  0  0  0  0  0  0  0  0
   -2.5674   -2.6285   -0.7501 C   0  0  0  0  0  0  0  0  0  0  0  0
   -3.2655   -2.1714   -0.0451 H   0  0  0  0  0  0  0  0  0  0  0  0
   -2.9285   -2.4675   -1.7687 H   0  0  0  0  0  0  0  0  0  0  0  0
   -1.1884   -2.0176   -0.5856 C   0  0  0  0  0  0  0  0  0  0  0  0
   -0.2439   -2.7255   -0.2858 O   0  0  0  0  0  0  0  0  0  0  0  0
   -1.0105   -0.6616   -0.7847 N   0  0  0  0  0  0  0  0  0  0  0  0
   -1.8288   -0.1240   -1.0552 H   0  0  0  0  0  0  0  0  0  0  0  0
    0.2828    0.0342   -0.6595 C   0  0  1  0  0  0  0  0  0  0  0  0
    0.9714   -0.5421   -1.2900 H   0  0  0  0  0  0  0  0  0  0  0  0
    0.1884    1.4138   -1.3576 C   0  0  0  0  0  0  0  0  0  0  0  0
    1.1958    1.6590   -1.7063 H   0  0  0  0  0  0  0  0  0  0  0  0
   -0.4429    1.3210   -2.2463 H   0  0  0  0  0  0  0  0  0  0  0  0
   -0.2705    2.6306   -0.5513 C   0  0  0  0  0  0  0  0  0  0  0  0
   -0.8577    3.4915   -1.1831 O   0  0  0  0  0  0  0  0  0  0  0  0
    0.0207    2.7554    0.7604 O   0  0  0  0  0  0  0  0  0  0  0  0
   -0.2912    3.6346    1.0242 H   0  0  0  0  0  0  0  0  0  0  0  0
    0.9608   -0.0493    0.7313 C   0  0  0  0  0  0  0  0  0  0  0  0
    2.1814   -0.1175    0.7926 O   0  0  0  0  0  0  0  0  0  0  0  0
    0.2421    0.1422    1.8980 N   0  0  0  0  0  0  0  0  0  0  0  0
   -0.7463    0.3445    1.8015 H   0  0  0  0  0  0  0  0  0  0  0  0
    0.8607    0.2304    3.2142 C   0  0  0  0  0  0  0  0  0  0  0  0
    1.5428    1.0859    3.2592 H   0  0  0  0  0  0  0  0  0  0  0  0
    0.0946    0.3553    3.9853 H   0  0  0  0  0  0  0  0  0  0  0  0
    1.4252   -0.6823    3.4330 H   0  0  0  0  0  0  0  0  0  0  0  0
  1  2  1  0  0  0  0
  2  3  1  0  0  0  0
  2  4  1  0  0  0  0
  2  5  1  0  0  0  0
  5  6  2  0  0  0  0
  5  7  1  0  0  0  0
  7  8  1  0  0  0  0
  7  9  1  0  0  0  0
  9 10  1  0  0  0  0
  9 11  1  0  0  0  0
  9 18  1  0  0  0  0
 11 12  1  0  0  0  0
 11 13  1  0  0  0  0
 11 14  1  0  0  0  0
 14 15  2  0  0  0  0
 14 16  1  0  0  0  0
 16 17  1  0  0  0  0
 18 19  2  0  0  0  0
 18 20  1  0  0  0  0
 20 21  1  0  0  0  0
 20 22  1  0  0  0  0
 22 23  1  0  0  0  0
 22 24  1  0  0  0  0
 22 25  1  0  0  0  0
M  END
$$$$

  -OEChem-02102214113D

 25 24  0     1  0  0  0  0  0999 V2000
   -2.5177   -3.6919   -0.4960 H   0  0  0  0  0  0  0  0  0  0  0  0
   -2.5548   -2.6214   -0.7179 C   0  0  0  0  0  0  0  0  0  0  0  0
   -3.2683   -2.1469   -0.0399 H   0  0  0  0  0  0  0  0  0  0  0  0
   -2.8951   -2.4882   -1.7476 H   0  0  0  0  0  0  0  0  0  0  0  0
   -1.1798   -2.0044   -0.5417 C   0  0  0  0  0  0  0  0  0  0  0  0
   -0.2457   -2.6989   -0.1841 O   0  0  0  0  0  0  0  0  0  0  0  0
   -0.9939   -0.6573   -0.7884 N   0  0  0  0  0  0  0  0  0  0  0  0
   -1.7974   -0.1365   -1.1290 H   0  0  0  0  0  0  0  0  0  0  0  0
    0.3039    0.0355   -0.6913 C   0  0  1  0  0  0  0  0  0  0  0  0
    0.9943   -0.5373   -1.3225 H   0  0  0  0  0  0  0  0  0  0  0  0
    0.1741    1.4186   -1.3733 C   0  0  0  0  0  0  0  0  0  0  0  0
    1.1657    1.6828   -1.7517 H   0  0  0  0  0  0  0  0  0  0  0  0
   -0.4865    1.3366   -2.2415 H   0  0  0  0  0  0  0  0  0  0  0  0
   -0.2687    2.6005   -0.5107 C   0  0  0  0  0  0  0  0  0  0  0  0
   -1.1211    3.3283   -0.9899 O   0  0  0  0  0  0  0  0  0  0  0  0
    0.3817    2.8850    0.6381 O   0  0  0  0  0  0  0  0  0  0  0  0
    0.0175    3.7225    0.9615 H   0  0  0  0  0  0  0  0  0  0  0  0
    0.9689   -0.0143    0.7058 C   0  0  0  0  0  0  0  0  0  0  0  0
    2.1877   -0.0911    0.7848 O   0  0  0  0  0  0  0  0  0  0  0  0
    0.2314    0.2190    1.8532 N   0  0  0  0  0  0  0  0  0  0  0  0
   -0.7761    0.2687    1.7534 H   0  0  0  0  0  0  0  0  0  0  0  0
    0.8181    0.2445    3.1864 C   0  0  0  0  0  0  0  0  0  0  0  0
    1.5790    1.0291    3.2538 H   0  0  0  0  0  0  0  0  0  0  0  0
    0.0470    0.4456    3.9360 H   0  0  0  0  0  0  0  0  0  0  0  0
    1.2839   -0.7194    3.4170 H   0  0  0  0  0  0  0  0  0  0  0  0
  1  2  1  0  0  0  0
  2  3  1  0  0  0  0
  2  4  1  0  0  0  0
  2  5  1  0  0  0  0
  5  6  2  0  0  0  0
  5  7  1  0  0  0  0
  7  8  1  0  0  0  0
  7  9  1  0  0  0  0
  9 10  1  0  0  0  0
  9 11  1  0  0  0  0
  9 18  1  0  0  0  0
 11 12  1  0  0  0  0
 11 13  1  0  0  0  0
 11 14  1  0  0  0  0
 14 15  2  0  0  0  0
 14 16  1  0  0  0  0
 16 17  1  0  0  0  0
 18 19  2  0  0  0  0
 18 20  1  0  0  0  0
 20 21  1  0  0  0  0
 20 22  1  0  0  0  0
 22 23  1  0  0  0  0
 22 24  1  0  0  0  0
 22 25  1  0  0  0  0
M  END
$$$$

  -OEChem-02102214113D

 25 24  0     1  0  0  0  0  0999 V2000
   -2.5276   -3.6750   -0.4529 H   0  0  0  0  0  0  0  0  0  0  0  0
   -2.5547   -2.6101   -0.7016 C   0  0  0  0  0  0  0  0  0  0  0  0
   -3.2658   -2.1122   -0.0381 H   0  0  0  0  0  0  0  0  0  0  0  0
   -2.8910   -2.5002   -1.7355 H   0  0  0  0  0  0  0  0  0  0  0  0
   -1.1749   -2.0008   -0.5363 C   0  0  0  0  0  0  0  0  0  0  0  0
   -0.2475   -2.6946   -0.1606 O   0  0  0  0  0  0  0  0  0  0  0  0
   -0.9770   -0.6612   -0.8115 N   0  0  0  0  0  0  0  0  0  0  0  0
   -1.7792   -0.1368   -1.1508 H   0  0  0  0  0  0  0  0  0  0  0  0
    0.3250    0.0250   -0.7211 C   0  0  1  0  0  0  0  0  0  0  0  0
    1.0186   -0.5458   -1.3504 H   0  0  0  0  0  0  0  0  0  0  0  0
    0.1810    1.4137   -1.3845 C   0  0  0  0  0  0  0  0  0  0  0  0
    1.1630    1.6944   -1.7760 H   0  0  0  0  0  0  0  0  0  0  0  0
   -0.4975    1.3527   -2.2403 H   0  0  0  0  0  0  0  0  0  0  0  0
   -0.2523    2.5512   -0.4636 C   0  0  0  0  0  0  0  0  0  0  0  0
   -1.2943    3.1200   -0.7412 O   0  0  0  0  0  0  0  0  0  0  0  0
    0.5900    2.9738    0.5056 O   0  0  0  0  0  0  0  0  0  0  0  0
    0.1767    3.7475    0.9167 H   0  0  0  0  0  0  0  0  0  0  0  0
    0.9775    0.0005    0.6820 C   0  0  0  0  0  0  0  0  0  0  0  0
    2.1947   -0.0780    0.7766 O   0  0  0  0  0  0  0  0  0  0  0  0
    0.2258    0.2656    1.8135 N   0  0  0  0  0  0  0  0  0  0  0  0
   -0.7823    0.2720    1.7049 H   0  0  0  0  0  0  0  0  0  0  0  0
    0.7956    0.3026    3.1539 C   0  0  0  0  0  0  0  0  0  0  0  0
    1.5802    1.0642    3.2148 H   0  0  0  0  0  0  0  0  0  0  0  0
    0.0221    0.5457    3.8885 H   0  0  0  0  0  0  0  0  0  0  0  0
    1.2276   -0.6701    3.4122 H   0  0  0  0  0  0  0  0  0  0  0  0
  1  2  1  0  0  0  0
  2  3  1  0  0  0  0
  2  4  1  0  0  0  0
  2  5  1  0  0  0  0
  5  6  2  0  0  0  0
  5  7  1  0  0  0  0
  7  8  1  0  0  0  0
  7  9  1  0  0  0  0
  9 10  1  0  0  0  0
  9 11  1  0  0  0  0
  9 18  1  0  0  0  0
 11 12  1  0  0  0  0
 11 13  1  0  0  0  0
 11 14  1  0  0  0  0
 14 15  2  0  0  0  0
 14 16  1  0  0  0  0
 16 17  1  0  0  0  0
 18 19  2  0  0  0  0
 18 20  1  0  0  0  0
 20 21  1  0  0  0  0
 20 22  1  0  0  0  0
 22 23  1  0  0  0  0
 22 24  1  0  0  0  0
 22 25  1  0  0  0  0
M  END
$$$$

  -OEChem-02102214113D

 25 24  0     1  0  0  0  0  0999 V2000
   -2.5252   -3.6602   -0.4156 H   0  0  0  0  0  0  0  0  0  0  0  0
   -2.5506   -2.5974   -0.6731 C   0  0  0  0  0  0  0  0  0  0  0  0
   -3.2475   -2.0897   -0.0021 H   0  0  0  0  0  0  0  0  0  0  0  0
   -2.9035   -2.4941   -1.7020 H   0  0  0  0  0  0  0  0  0  0  0  0
   -1.1647   -1.9952   -0.5368 C   0  0  0  0  0  0  0  0  0  0  0  0
   -0.2360   -2.6889   -0.1637 O   0  0  0  0  0  0  0  0  0  0  0  0
   -0.9614   -0.6616   -0.8355 N   0  0  0  0  0  0  0  0  0  0  0  0
   -1.7703   -0.1268   -1.1418 H   0  0  0  0  0  0  0  0  0  0  0  0
    0.3415    0.0222   -0.7486 C   0  0  1  0  0  0  0  0  0  0  0  0
    1.0387   -0.5499   -1.3725 H   0  0  0  0  0  0  0  0  0  0  0  0
    0.1933    1.4111   -1.4052 C   0  0  0  0  0  0  0  0  0  0  0  0
    1.1698    1.7002   -1.8044 H   0  0  0  0  0  0  0  0  0  0  0  0
   -0.4976    1.3638   -2.2518 H   0  0  0  0  0  0  0  0  0  0  0  0
   -0.2358    2.5157   -0.4476 C   0  0  0  0  0  0  0  0  0  0  0  0
   -1.3921    2.8973   -0.5154 O   0  0  0  0  0  0  0  0  0  0  0  0
    0.6969    3.0854    0.3488 O   0  0  0  0  0  0  0  0  0  0  0  0
    0.2510    3.7871    0.8456 H   0  0  0  0  0  0  0  0  0  0  0  0
    0.9835    0.0218    0.6596 C   0  0  0  0  0  0  0  0  0  0  0  0
    2.1995   -0.0519    0.7672 O   0  0  0  0  0  0  0  0  0  0  0  0
    0.2204    0.3110    1.7776 N   0  0  0  0  0  0  0  0  0  0  0  0
   -0.7870    0.2972    1.6591 H   0  0  0  0  0  0  0  0  0  0  0  0
    0.7727    0.3428    3.1255 C   0  0  0  0  0  0  0  0  0  0  0  0
    1.5726    1.0878    3.1945 H   0  0  0  0  0  0  0  0  0  0  0  0
   -0.0060    0.6057    3.8477 H   0  0  0  0  0  0  0  0  0  0  0  0
    1.1800   -0.6377    3.3939 H   0  0  0  0  0  0  0  0  0  0  0  0
  1  2  1  0  0  0  0
  2  3  1  0  0  0  0
  2  4  1  0  0  0  0
  2  5  1  0  0  0  0
  5  6  2  0  0  0  0
  5  7  1  0  0  0  0
  7  8  1  0  0  0  0
  7  9  1  0  0  0  0
  9 10  1  0  0  0  0
  9 11  1  0  0  0  0
  9 18  1  0  0  0  0
 11 12  1  0  0  0  0
 11 13  1  0  0  0  0
 11 14  1  0  0  0  0
 14 15  2  0  0  0  0
 14 16  1  0  0  0  0
 16 17  1  0  0  0  0
 18 19  2  0  0  0  0
 18 20  1  0  0  0  0
 20 21  1  0  0  0  0
 20 22  1  0  0  0  0
 22 23  1  0  0  0  0
 22 24  1  0  0  0  0
 22 25  1  0  0  0  0
M  END
$$$$

  -OEChem-02102214113D

 25 24  0     1  0  0  0  0  0999 V2000
   -2.5295   -3.6468   -0.3819 H   0  0  0  0  0  0  0  0  0  0  0  0
   -2.5496   -2.5869   -0.6513 C   0  0  0  0  0  0  0  0  0  0  0  0
   -3.2215   -2.0629    0.0324 H   0  0  0  0  0  0  0  0  0  0  0  0
   -2.9296   -2.4908   -1.6712 H   0  0  0  0  0  0  0  0  0  0  0  0
   -1.1539   -1.9994   -0.5603 C   0  0  0  0  0  0  0  0  0  0  0  0
   -0.2208   -2.7007   -0.2129 O   0  0  0  0  0  0  0  0  0  0  0  0
   -0.9476   -0.6682   -0.8662 N   0  0  0  0  0  0  0  0  0  0  0  0
   -1.7643   -0.1193   -1.1233 H   0  0  0  0  0  0  0  0  0  0  0  0
    0.3544    0.0149   -0.7717 C   0  0  1  0  0  0  0  0  0  0  0  0
    1.0572   -0.5540   -1.3922 H   0  0  0  0  0  0  0  0  0  0  0  0
    0.2054    1.4077   -1.4181 C   0  0  0  0  0  0  0  0  0  0  0  0
    1.1802    1.7048   -1.8161 H   0  0  0  0  0  0  0  0  0  0  0  0
   -0.4893    1.3730   -2.2620 H   0  0  0  0  0  0  0  0  0  0  0  0
   -0.2271    2.4866   -0.4348 C   0  0  0  0  0  0  0  0  0  0  0  0
   -1.4251    2.6690   -0.2920 O   0  0  0  0  0  0  0  0  0  0  0  0
    0.7260    3.2165    0.1881 O   0  0  0  0  0  0  0  0  0  0  0  0
    0.2654    3.8502    0.7580 H   0  0  0  0  0  0  0  0  0  0  0  0
    0.9844    0.0243    0.6420 C   0  0  0  0  0  0  0  0  0  0  0  0
    2.1996   -0.0415    0.7613 O   0  0  0  0  0  0  0  0  0  0  0  0
    0.2125    0.3226    1.7516 N   0  0  0  0  0  0  0  0  0  0  0  0
   -0.7940    0.3405    1.6207 H   0  0  0  0  0  0  0  0  0  0  0  0
    0.7534    0.3880    3.1031 C   0  0  0  0  0  0  0  0  0  0  0  0
    1.5440    1.1434    3.1630 H   0  0  0  0  0  0  0  0  0  0  0  0
   -0.0341    0.6562    3.8136 H   0  0  0  0  0  0  0  0  0  0  0  0
    1.1700   -0.5816    3.3955 H   0  0  0  0  0  0  0  0  0  0  0  0
  1  2  1  0  0  0  0
  2  3  1  0  0  0  0
  2  4  1  0  0  0  0
  2  5  1  0  0  0  0
  5  6  2  0  0  0  0
  5  7  1  0  0  0  0
  7  8  1  0  0  0  0
  7  9  1  0  0  0  0
  9 10  1  0  0  0  0
  9 11  1  0  0  0  0
  9 18  1  0  0  0  0
 11 12  1  0  0  0  0
 11 13  1  0  0  0  0
 11 14  1  0  0  0  0
 14 15  2  0  0  0  0
 14 16  1  0  0  0  0
 16 17  1  0  0  0  0
 18 19  2  0  0  0  0
 18 20  1  0  0  0  0
 20 21  1  0  0  0  0
 20 22  1  0  0  0  0
 22 23  1  0  0  0  0
 22 24  1  0  0  0  0
 22 25  1  0  0  0  0
M  END
$$$$

  -OEChem-02102214113D

 25 24  0     1  0  0  0  0  0999 V2000
   -2.5221   -3.6434   -0.3632 H   0  0  0  0  0  0  0  0  0  0  0  0
   -2.5447   -2.5835   -0.6326 C   0  0  0  0  0  0  0  0  0  0  0  0
   -3.1914   -2.0550    0.0716 H   0  0  0  0  0  0  0  0  0  0  0  0
   -2.9561   -2.4855   -1.6400 H   0  0  0  0  0  0  0  0  0  0  0  0
   -1.1434   -2.0044   -0.5868 C   0  0  0  0  0  0  0  0  0  0  0  0
   -0.2018   -2.7143   -0.2820 O   0  0  0  0  0  0  0  0  0  0  0  0
   -0.9405   -0.6726   -0.8911 N   0  0  0  0  0  0  0  0  0  0  0  0
   -1.7676   -0.1086   -1.0706 H   0  0  0  0  0  0  0  0  0  0  0  0
    0.3592    0.0116   -0.7838 C   0  0  1  0  0  0  0  0  0  0  0  0
    1.0677   -0.5557   -1.3994 H   0  0  0  0  0  0  0  0  0  0  0  0
    0.2165    1.4060   -1.4273 C   0  0  0  0  0  0  0  0  0  0  0  0
    1.1942    1.7039   -1.8173 H   0  0  0  0  0  0  0  0  0  0  0  0
   -0.4733    1.3766   -2.2750 H   0  0  0  0  0  0  0  0  0  0  0  0
   -0.2257    2.4762   -0.4394 C   0  0  0  0  0  0  0  0  0  0  0  0
   -1.3969    2.4723   -0.0934 O   0  0  0  0  0  0  0  0  0  0  0  0
    0.6841    3.3814   -0.0134 O   0  0  0  0  0  0  0  0  0  0  0  0
    0.2262    3.9651    0.6097 H   0  0  0  0  0  0  0  0  0  0  0  0
    0.9791    0.0233    0.6345 C   0  0  0  0  0  0  0  0  0  0  0  0
    2.1935   -0.0370    0.7625 O   0  0  0  0  0  0  0  0  0  0  0  0
    0.2015    0.3211    1.7398 N   0  0  0  0  0  0  0  0  0  0  0  0
   -0.8004    0.4026    1.5935 H   0  0  0  0  0  0  0  0  0  0  0  0
    0.7335    0.4076    3.0936 C   0  0  0  0  0  0  0  0  0  0  0  0
    1.5135    1.1742    3.1512 H   0  0  0  0  0  0  0  0  0  0  0  0
   -0.0620    0.6707    3.7972 H   0  0  0  0  0  0  0  0  0  0  0  0
    1.1610   -0.5539    3.3974 H   0  0  0  0  0  0  0  0  0  0  0  0
  1  2  1  0  0  0  0
  2  3  1  0  0  0  0
  2  4  1  0  0  0  0
  2  5  1  0  0  0  0
  5  6  2  0  0  0  0
  5  7  1  0  0  0  0
  7  8  1  0  0  0  0
  7  9  1  0  0  0  0
  9 10  1  0  0  0  0
  9 11  1  0  0  0  0
  9 18  1  0  0  0  0
 11 12  1  0  0  0  0
 11 13  1  0  0  0  0
 11 14  1  0  0  0  0
 14 15  2  0  0  0  0
 14 16  1  0  0  0  0
 16 17  1  0  0  0  0
 18 19  2  0  0  0  0
 18 20  1  0  0  0  0
 20 21  1  0  0  0  0
 20 22  1  0  0  0  0
 22 23  1  0  0  0  0
 22 24  1  0  0  0  0
 22 25  1  0  0  0  0
M  END
$$$$

  -OEChem-02102214113D

 25 24  0     1  0  0  0  0  0999 V2000
   -2.5288   -3.6583   -0.3986 H   0  0  0  0  0  0  0  0  0  0  0  0
   -2.5533   -2.5924   -0.6430 C   0  0  0  0  0  0  0  0  0  0  0  0
   -3.1724   -2.0768    0.0951 H   0  0  0  0  0  0  0  0  0  0  0  0
   -2.9980   -2.4690   -1.6334 H   0  0  0  0  0  0  0  0  0  0  0  0
   -1.1474   -2.0223   -0.6320 C   0  0  0  0  0  0  0  0  0  0  0  0
   -0.2000   -2.7456   -0.3798 O   0  0  0  0  0  0  0  0  0  0  0  0
   -0.9472   -0.6846   -0.9118 N   0  0  0  0  0  0  0  0  0  0  0  0
   -1.7791   -0.1102   -1.0216 H   0  0  0  0  0  0  0  0  0  0  0  0
    0.3516   -0.0037   -0.7782 C   0  0  1  0  0  0  0  0  0  0  0  0
    1.0633   -0.5677   -1.3934 H   0  0  0  0  0  0  0  0  0  0  0  0
    0.2301    1.3989   -1.4100 C   0  0  0  0  0  0  0  0  0  0  0  0
    1.2185    1.6887   -1.7792 H   0  0  0  0  0  0  0  0  0  0  0  0
   -0.4435    1.3806   -2.2706 H   0  0  0  0  0  0  0  0  0  0  0  0
   -0.2231    2.4740   -0.4303 C   0  0  0  0  0  0  0  0  0  0  0  0
   -1.3099    2.3288    0.1100 O   0  0  0  0  0  0  0  0  0  0  0  0
    0.5861    3.5374   -0.2214 O   0  0  0  0  0  0  0  0  0  0  0  0
    0.1442    4.0997    0.4325 H   0  0  0  0  0  0  0  0  0  0  0  0
    0.9646   -0.0125    0.6434 C   0  0  0  0  0  0  0  0  0  0  0  0
    2.1792   -0.0655    0.7735 O   0  0  0  0  0  0  0  0  0  0  0  0
    0.1848    0.2685    1.7510 N   0  0  0  0  0  0  0  0  0  0  0  0
   -0.7961    0.4756    1.5823 H   0  0  0  0  0  0  0  0  0  0  0  0
    0.7289    0.4487    3.0906 C   0  0  0  0  0  0  0  0  0  0  0  0
    1.4067    1.3084    3.1167 H   0  0  0  0  0  0  0  0  0  0  0  0
   -0.0795    0.6213    3.8073 H   0  0  0  0  0  0  0  0  0  0  0  0
    1.2806   -0.4448    3.4018 H   0  0  0  0  0  0  0  0  0  0  0  0
  1  2  1  0  0  0  0
  2  3  1  0  0  0  0
  2  4  1  0  0  0  0
  2  5  1  0  0  0  0
  5  6  2  0  0  0  0
  5  7  1  0  0  0  0
  7  8  1  0  0  0  0
  7  9  1  0  0  0  0
  9 10  1  0  0  0  0
  9 11  1  0  0  0  0
  9 18  1  0  0  0  0
 11 12  1  0  0  0  0
 11 13  1  0  0  0  0
 11 14  1  0  0  0  0
 14 15  2  0  0  0  0
 14 16  1  0  0  0  0
 16 17  1  0  0  0  0
 18 19  2  0  0  0  0
 18 20  1  0  0  0  0
 20 21  1  0  0  0  0
 20 22  1  0  0  0  0
 22 23  1  0  0  0  0
 22 24  1  0  0  0  0
 22 25  1  0  0  0  0
M  END
$$$$

  -OEChem-02102214113D

 25 24  0     1  0  0  0  0  0999 V2000
   -2.5199   -3.6779   -0.4436 H   0  0  0  0  0  0  0  0  0  0  0  0
   -2.5539   -2.6071   -0.6639 C   0  0  0  0  0  0  0  0  0  0  0  0
   -3.1674   -2.1121    0.0925 H   0  0  0  0  0  0  0  0  0  0  0  0
   -3.0108   -2.4647   -1.6462 H   0  0  0  0  0  0  0  0  0  0  0  0
   -1.1513   -2.0288   -0.6558 C   0  0  0  0  0  0  0  0  0  0  0  0
   -0.1969   -2.7524   -0.4322 O   0  0  0  0  0  0  0  0  0  0  0  0
   -0.9619   -0.6842   -0.9083 N   0  0  0  0  0  0  0  0  0  0  0  0
   -1.7991   -0.1125   -0.9838 H   0  0  0  0  0  0  0  0  0  0  0  0
    0.3312    0.0016   -0.7504 C   0  0  1  0  0  0  0  0  0  0  0  0
    1.0463   -0.5642   -1.3603 H   0  0  0  0  0  0  0  0  0  0  0  0
    0.2334    1.4010   -1.3960 C   0  0  0  0  0  0  0  0  0  0  0  0
    1.2347    1.6772   -1.7402 H   0  0  0  0  0  0  0  0  0  0  0  0
   -0.4132    1.3719   -2.2767 H   0  0  0  0  0  0  0  0  0  0  0  0
   -0.2409    2.5090   -0.4614 C   0  0  0  0  0  0  0  0  0  0  0  0
   -1.1999    2.2886    0.2641 O   0  0  0  0  0  0  0  0  0  0  0  0
    0.4122    3.6925   -0.5027 O   0  0  0  0  0  0  0  0  0  0  0  0
   -0.0087    4.2642    0.1572 H   0  0  0  0  0  0  0  0  0  0  0  0
    0.9479   -0.0219    0.6704 C   0  0  0  0  0  0  0  0  0  0  0  0
    2.1640   -0.0726    0.7913 O   0  0  0  0  0  0  0  0  0  0  0  0
    0.1774    0.2350    1.7899 N   0  0  0  0  0  0  0  0  0  0  0  0
   -0.7839    0.5205    1.6190 H   0  0  0  0  0  0  0  0  0  0  0  0
    0.7420    0.4292    3.1194 C   0  0  0  0  0  0  0  0  0  0  0  0
    1.3773    1.3206    3.1393 H   0  0  0  0  0  0  0  0  0  0  0  0
   -0.0577    0.5547    3.8554 H   0  0  0  0  0  0  0  0  0  0  0  0
    1.3434   -0.4388    3.4100 H   0  0  0  0  0  0  0  0  0  0  0  0
  1  2  1  0  0  0  0
  2  3  1  0  0  0  0
  2  4  1  0  0  0  0
  2  5  1  0  0  0  0
  5  6  2  0  0  0  0
  5  7  1  0  0  0  0
  7  8  1  0  0  0  0
  7  9  1  0  0  0  0
  9 10  1  0  0  0  0
  9 11  1  0  0  0  0
  9 18  1  0  0  0  0
 11 12  1  0  0  0  0
 11 13  1  0  0  0  0
 11 14  1  0  0  0  0
 14 15  2  0  0  0  0
 14 16  1  0  0  0  0
 16 17  1  0  0  0  0
 18 19  2  0  0  0  0
 18 20  1  0  0  0  0
 20 21  1  0  0  0  0
 20 22  1  0  0  0  0
 22 23  1  0  0  0  0
 22 24  1  0  0  0  0
 22 25  1  0  0  0  0
M  END
$$$$

  -OEChem-02102214113D

 25 24  0     1  0  0  0  0  0999 V2000
   -2.5005   -3.6999   -0.4876 H   0  0  0  0  0  0  0  0  0  0  0  0
   -2.5482   -2.6256   -0.6878 C   0  0  0  0  0  0  0  0  0  0  0  0
   -3.1691   -2.1531    0.0769 H   0  0  0  0  0  0  0  0  0  0  0  0
   -3.0052   -2.4709   -1.6682 H   0  0  0  0  0  0  0  0  0  0  0  0
   -1.1534   -2.0291   -0.6658 C   0  0  0  0  0  0  0  0  0  0  0  0
   -0.1904   -2.7458   -0.4573 O   0  0  0  0  0  0  0  0  0  0  0  0
   -0.9811   -0.6767   -0.8892 N   0  0  0  0  0  0  0  0  0  0  0  0
   -1.8255   -0.1148   -0.9523 H   0  0  0  0  0  0  0  0  0  0  0  0
    0.3042    0.0203   -0.7161 C   0  0  1  0  0  0  0  0  0  0  0  0
    1.0203   -0.5468   -1.3239 H   0  0  0  0  0  0  0  0  0  0  0  0
    0.2247    1.4131   -1.3810 C   0  0  0  0  0  0  0  0  0  0  0  0
    1.2361    1.6773   -1.7045 H   0  0  0  0  0  0  0  0  0  0  0  0
   -0.3971    1.3648   -2.2783 H   0  0  0  0  0  0  0  0  0  0  0  0
   -0.2673    2.5608   -0.5026 C   0  0  0  0  0  0  0  0  0  0  0  0
   -1.0586    2.3315    0.3992 O   0  0  0  0  0  0  0  0  0  0  0  0
    0.1917    3.7987   -0.7958 O   0  0  0  0  0  0  0  0  0  0  0  0
   -0.1982    4.3987   -0.1419 H   0  0  0  0  0  0  0  0  0  0  0  0
    0.9333   -0.0194    0.6996 C   0  0  0  0  0  0  0  0  0  0  0  0
    2.1512   -0.0680    0.8048 O   0  0  0  0  0  0  0  0  0  0  0  0
    0.1761    0.2058    1.8347 N   0  0  0  0  0  0  0  0  0  0  0  0
   -0.7731    0.5351    1.6756 H   0  0  0  0  0  0  0  0  0  0  0  0
    0.7620    0.3829    3.1573 C   0  0  0  0  0  0  0  0  0  0  0  0
    1.3809    1.2857    3.1846 H   0  0  0  0  0  0  0  0  0  0  0  0
   -0.0263    0.4775    3.9101 H   0  0  0  0  0  0  0  0  0  0  0  0
    1.3848   -0.4794    3.4185 H   0  0  0  0  0  0  0  0  0  0  0  0
  1  2  1  0  0  0  0
  2  3  1  0  0  0  0
  2  4  1  0  0  0  0
  2  5  1  0  0  0  0
  5  6  2  0  0  0  0
  5  7  1  0  0  0  0
  7  8  1  0  0  0  0
  7  9  1  0  0  0  0
  9 10  1  0  0  0  0
  9 11  1  0  0  0  0
  9 18  1  0  0  0  0
 11 12  1  0  0  0  0
 11 13  1  0  0  0  0
 11 14  1  0  0  0  0
 14 15  2  0  0  0  0
 14 16  1  0  0  0  0
 16 17  1  0  0  0  0
 18 19  2  0  0  0  0
 18 20  1  0  0  0  0
 20 21  1  0  0  0  0
 20 22  1  0  0  0  0
 22 23  1  0  0  0  0
 22 24  1  0  0  0  0
 22 25  1  0  0  0  0
M  END
$$$$

  -OEChem-02102214113D

 25 24  0     1  0  0  0  0  0999 V2000
   -2.4792   -3.7160   -0.5176 H   0  0  0  0  0  0  0  0  0  0  0  0
   -2.5406   -2.6404   -0.7062 C   0  0  0  0  0  0  0  0  0  0  0  0
   -3.1727   -2.1852    0.0599 H   0  0  0  0  0  0  0  0  0  0  0  0
   -2.9937   -2.4811   -1.6875 H   0  0  0  0  0  0  0  0  0  0  0  0
   -1.1542   -2.0255   -0.6696 C   0  0  0  0  0  0  0  0  0  0  0  0
   -0.1825   -2.7347   -0.4770 O   0  0  0  0  0  0  0  0  0  0  0  0
   -0.9988   -0.6666   -0.8659 N   0  0  0  0  0  0  0  0  0  0  0  0
   -1.8495   -0.1151   -0.9294 H   0  0  0  0  0  0  0  0  0  0  0  0
    0.2797    0.0417   -0.6862 C   0  0  1  0  0  0  0  0  0  0  0  0
    0.9953   -0.5237   -1.2964 H   0  0  0  0  0  0  0  0  0  0  0  0
    0.2084    1.4299   -1.3656 C   0  0  0  0  0  0  0  0  0  0  0  0
    1.2244    1.6873   -1.6796 H   0  0  0  0  0  0  0  0  0  0  0  0
   -0.3990    1.3640   -2.2719 H   0  0  0  0  0  0  0  0  0  0  0  0
   -0.2937    2.6087   -0.5332 C   0  0  0  0  0  0  0  0  0  0  0  0
   -0.8789    2.4192    0.5201 O   0  0  0  0  0  0  0  0  0  0  0  0
   -0.0677    3.8399   -1.0455 O   0  0  0  0  0  0  0  0  0  0  0  0
   -0.4203    4.4729   -0.4015 H   0  0  0  0  0  0  0  0  0  0  0  0
    0.9227   -0.0169    0.7234 C   0  0  0  0  0  0  0  0  0  0  0  0
    2.1420   -0.0700    0.8135 O   0  0  0  0  0  0  0  0  0  0  0  0
    0.1779    0.1762    1.8726 N   0  0  0  0  0  0  0  0  0  0  0  0
   -0.7632    0.5337    1.7294 H   0  0  0  0  0  0  0  0  0  0  0  0
    0.7835    0.3338    3.1889 C   0  0  0  0  0  0  0  0  0  0  0  0
    1.3997    1.2383    3.2216 H   0  0  0  0  0  0  0  0  0  0  0  0
    0.0066    0.4128    3.9551 H   0  0  0  0  0  0  0  0  0  0  0  0
    1.4132   -0.5303    3.4263 H   0  0  0  0  0  0  0  0  0  0  0  0
  1  2  1  0  0  0  0
  2  3  1  0  0  0  0
  2  4  1  0  0  0  0
  2  5  1  0  0  0  0
  5  6  2  0  0  0  0
  5  7  1  0  0  0  0
  7  8  1  0  0  0  0
  7  9  1  0  0  0  0
  9 10  1  0  0  0  0
  9 11  1  0  0  0  0
  9 18  1  0  0  0  0
 11 12  1  0  0  0  0
 11 13  1  0  0  0  0
 11 14  1  0  0  0  0
 14 15  2  0  0  0  0
 14 16  1  0  0  0  0
 16 17  1  0  0  0  0
 18 19  2  0  0  0  0
 18 20  1  0  0  0  0
 20 21  1  0  0  0  0
 20 22  1  0  0  0  0
 22 23  1  0  0  0  0
 22 24  1  0  0  0  0
 22 25  1  0  0  0  0
M  END
$$$$

  -OEChem-02102214113D

 25 24  0     1  0  0  0  0  0999 V2000
   -2.4763   -3.7209   -0.5444 H   0  0  0  0  0  0  0  0  0  0  0  0
   -2.5406   -2.6431   -0.7194 C   0  0  0  0  0  0  0  0  0  0  0  0
   -3.1786   -2.2003    0.0489 H   0  0  0  0  0  0  0  0  0  0  0  0
   -2.9891   -2.4724   -1.7010 H   0  0  0  0  0  0  0  0  0  0  0  0
   -1.1568   -2.0231   -0.6668 C   0  0  0  0  0  0  0  0  0  0  0  0
   -0.1828   -2.7298   -0.4772 O   0  0  0  0  0  0  0  0  0  0  0  0
   -1.0082   -0.6606   -0.8440 N   0  0  0  0  0  0  0  0  0  0  0  0
   -1.8610   -0.1152   -0.9256 H   0  0  0  0  0  0  0  0  0  0  0  0
    0.2670    0.0545   -0.6654 C   0  0  1  0  0  0  0  0  0  0  0  0
    0.9806   -0.5070   -1.2815 H   0  0  0  0  0  0  0  0  0  0  0  0
    0.1903    1.4410   -1.3515 C   0  0  0  0  0  0  0  0  0  0  0  0
    1.2055    1.6994   -1.6669 H   0  0  0  0  0  0  0  0  0  0  0  0
   -0.4144    1.3607   -2.2587 H   0  0  0  0  0  0  0  0  0  0  0  0
   -0.3156    2.6380   -0.5455 C   0  0  0  0  0  0  0  0  0  0  0  0
   -0.6596    2.5200    0.6171 O   0  0  0  0  0  0  0  0  0  0  0  0
   -0.3647    3.8123   -1.2145 O   0  0  0  0  0  0  0  0  0  0  0  0
   -0.6728    4.4751   -0.5774 H   0  0  0  0  0  0  0  0  0  0  0  0
    0.9222   -0.0201    0.7380 C   0  0  0  0  0  0  0  0  0  0  0  0
    2.1424   -0.0773    0.8160 O   0  0  0  0  0  0  0  0  0  0  0  0
    0.1863    0.1505    1.8968 N   0  0  0  0  0  0  0  0  0  0  0  0
   -0.7523    0.5172    1.7668 H   0  0  0  0  0  0  0  0  0  0  0  0
    0.8069    0.3008    3.2071 C   0  0  0  0  0  0  0  0  0  0  0  0
    1.4105    1.2138    3.2424 H   0  0  0  0  0  0  0  0  0  0  0  0
    0.0389    0.3601    3.9840 H   0  0  0  0  0  0  0  0  0  0  0  0
    1.4519   -0.5569    3.4264 H   0  0  0  0  0  0  0  0  0  0  0  0
  1  2  1  0  0  0  0
  2  3  1  0  0  0  0
  2  4  1  0  0  0  0
  2  5  1  0  0  0  0
  5  6  2  0  0  0  0
  5  7  1  0  0  0  0
  7  8  1  0  0  0  0
  7  9  1  0  0  0  0
  9 10  1  0  0  0  0
  9 11  1  0  0  0  0
  9 18  1  0  0  0  0
 11 12  1  0  0  0  0
 11 13  1  0  0  0  0
 11 14  1  0  0  0  0
 14 15  2  0  0  0  0
 14 16  1  0  0  0  0
 16 17  1  0  0  0  0
 18 19  2  0  0  0  0
 18 20  1  0  0  0  0
 20 21  1  0  0  0  0
 20 22  1  0  0  0  0
 22 23  1  0  0  0  0
 22 24  1  0  0  0  0
 22 25  1  0  0  0  0
M  END
$$$$

  -OEChem-02102214113D

 25 24  0     1  0  0  0  0  0999 V2000
   -2.4800   -3.7198   -0.5513 H   0  0  0  0  0  0  0  0  0  0  0  0
   -2.5444   -2.6419   -0.7257 C   0  0  0  0  0  0  0  0  0  0  0  0
   -3.1934   -2.2014    0.0347 H   0  0  0  0  0  0  0  0  0  0  0  0
   -2.9798   -2.4709   -1.7131 H   0  0  0  0  0  0  0  0  0  0  0  0
   -1.1626   -2.0195   -0.6537 C   0  0  0  0  0  0  0  0  0  0  0  0
   -0.1898   -2.7255   -0.4562 O   0  0  0  0  0  0  0  0  0  0  0  0
   -1.0145   -0.6563   -0.8251 N   0  0  0  0  0  0  0  0  0  0  0  0
   -1.8652   -0.1133   -0.9361 H   0  0  0  0  0  0  0  0  0  0  0  0
    0.2617    0.0598   -0.6555 C   0  0  1  0  0  0  0  0  0  0  0  0
    0.9709   -0.4998   -1.2783 H   0  0  0  0  0  0  0  0  0  0  0  0
    0.1740    1.4451   -1.3441 C   0  0  0  0  0  0  0  0  0  0  0  0
    1.1848    1.7061   -1.6708 H   0  0  0  0  0  0  0  0  0  0  0  0
   -0.4370    1.3551   -2.2463 H   0  0  0  0  0  0  0  0  0  0  0  0
   -0.3281    2.6490   -0.5450 C   0  0  0  0  0  0  0  0  0  0  0  0
   -0.4092    2.6238    0.6689 O   0  0  0  0  0  0  0  0  0  0  0  0
   -0.6786    3.7263   -1.2839 O   0  0  0  0  0  0  0  0  0  0  0  0
   -0.9416    4.4132   -0.6518 H   0  0  0  0  0  0  0  0  0  0  0  0
    0.9266   -0.0237    0.7426 C   0  0  0  0  0  0  0  0  0  0  0  0
    2.1471   -0.0897    0.8111 O   0  0  0  0  0  0  0  0  0  0  0  0
    0.1978    0.1392    1.9073 N   0  0  0  0  0  0  0  0  0  0  0  0
   -0.7456    0.4943    1.7893 H   0  0  0  0  0  0  0  0  0  0  0  0
    0.8304    0.2883    3.2118 C   0  0  0  0  0  0  0  0  0  0  0  0
    1.4342    1.2013    3.2417 H   0  0  0  0  0  0  0  0  0  0  0  0
    0.0703    0.3470    3.9964 H   0  0  0  0  0  0  0  0  0  0  0  0
    1.4776   -0.5693    3.4240 H   0  0  0  0  0  0  0  0  0  0  0  0
  1  2  1  0  0  0  0
  2  3  1  0  0  0  0
  2  4  1  0  0  0  0
  2  5  1  0  0  0  0
  5  6  2  0  0  0  0
  5  7  1  0  0  0  0
  7  8  1  0  0  0  0
  7  9  1  0  0  0  0
  9 10  1  0  0  0  0
  9 11  1  0  0  0  0
  9 18  1  0  0  0  0
 11 12  1  0  0  0  0
 11 13  1  0  0  0  0
 11 14  1  0  0  0  0
 14 15  2  0  0  0  0
 14 16  1  0  0  0  0
 16 17  1  0  0  0  0
 18 19  2  0  0  0  0
 18 20  1  0  0  0  0
 20 21  1  0  0  0  0
 20 22  1  0  0  0  0
 22 23  1  0  0  0  0
 22 24  1  0  0  0  0
 22 25  1  0  0  0  0
M  END
$$$$

  -OEChem-02102214113D

 25 24  0     1  0  0  0  0  0999 V2000
   -2.4960   -3.7150   -0.5607 H   0  0  0  0  0  0  0  0  0  0  0  0
   -2.5526   -2.6365   -0.7343 C   0  0  0  0  0  0  0  0  0  0  0  0
   -3.2221   -2.1960    0.0083 H   0  0  0  0  0  0  0  0  0  0  0  0
   -2.9597   -2.4626   -1.7332 H   0  0  0  0  0  0  0  0  0  0  0  0
   -1.1719   -2.0173   -0.6219 C   0  0  0  0  0  0  0  0  0  0  0  0
   -0.2087   -2.7232   -0.3826 O   0  0  0  0  0  0  0  0  0  0  0  0
   -1.0134   -0.6569   -0.8065 N   0  0  0  0  0  0  0  0  0  0  0  0
   -1.8533   -0.1160   -0.9890 H   0  0  0  0  0  0  0  0  0  0  0  0
    0.2684    0.0547   -0.6570 C   0  0  1  0  0  0  0  0  0  0  0  0
    0.9716   -0.5063   -1.2852 H   0  0  0  0  0  0  0  0  0  0  0  0
    0.1629    1.4390   -1.3454 C   0  0  0  0  0  0  0  0  0  0  0  0
    1.1655    1.7042   -1.6929 H   0  0  0  0  0  0  0  0  0  0  0  0
   -0.4646    1.3455   -2.2359 H   0  0  0  0  0  0  0  0  0  0  0  0
   -0.3265    2.6398   -0.5337 C   0  0  0  0  0  0  0  0  0  0  0  0
   -0.1346    2.7234    0.6643 O   0  0  0  0  0  0  0  0  0  0  0  0
   -0.9916    3.5828   -1.2397 O   0  0  0  0  0  0  0  0  0  0  0  0
   -1.2077    4.2873   -0.6089 H   0  0  0  0  0  0  0  0  0  0  0  0
    0.9395   -0.0249    0.7381 C   0  0  0  0  0  0  0  0  0  0  0  0
    2.1598   -0.0980    0.8023 O   0  0  0  0  0  0  0  0  0  0  0  0
    0.2141    0.1502    1.9035 N   0  0  0  0  0  0  0  0  0  0  0  0
   -0.7450    0.4599    1.7923 H   0  0  0  0  0  0  0  0  0  0  0  0
    0.8460    0.3026    3.2079 C   0  0  0  0  0  0  0  0  0  0  0  0
    1.4456    1.2184    3.2377 H   0  0  0  0  0  0  0  0  0  0  0  0
    0.0857    0.3581    3.9926 H   0  0  0  0  0  0  0  0  0  0  0  0
    1.4970   -0.5523    3.4203 H   0  0  0  0  0  0  0  0  0  0  0  0
  1  2  1  0  0  0  0
  2  3  1  0  0  0  0
  2  4  1  0  0  0  0
  2  5  1  0  0  0  0
  5  6  2  0  0  0  0
  5  7  1  0  0  0  0
  7  8  1  0  0  0  0
  7  9  1  0  0  0  0
  9 10  1  0  0  0  0
  9 11  1  0  0  0  0
  9 18  1  0  0  0  0
 11 12  1  0  0  0  0
 11 13  1  0  0  0  0
 11 14  1  0  0  0  0
 14 15  2  0  0  0  0
 14 16  1  0  0  0  0
 16 17  1  0  0  0  0
 18 19  2  0  0  0  0
 18 20  1  0  0  0  0
 20 21  1  0  0  0  0
 20 22  1  0  0  0  0
 22 23  1  0  0  0  0
 22 24  1  0  0  0  0
 22 25  1  0  0  0  0
M  END
$$$$

  -OEChem-02102214113D

 25 24  0     1  0  0  0  0  0999 V2000
   -2.5090   -3.7089   -0.5409 H   0  0  0  0  0  0  0  0  0  0  0  0
   -2.5568   -2.6333   -0.7340 C   0  0  0  0  0  0  0  0  0  0  0  0
   -3.2433   -2.1778   -0.0167 H   0  0  0  0  0  0  0  0  0  0  0  0
   -2.9375   -2.4751   -1.7458 H   0  0  0  0  0  0  0  0  0  0  0  0
   -1.1772   -2.0175   -0.5960 C   0  0  0  0  0  0  0  0  0  0  0  0
   -0.2249   -2.7222   -0.3139 O   0  0  0  0  0  0  0  0  0  0  0  0
   -1.0066   -0.6622   -0.8051 N   0  0  0  0  0  0  0  0  0  0  0  0
   -1.8327   -0.1255   -1.0523 H   0  0  0  0  0  0  0  0  0  0  0  0
    0.2822    0.0410   -0.6750 C   0  0  1  0  0  0  0  0  0  0  0  0
    0.9809   -0.5210   -1.3071 H   0  0  0  0  0  0  0  0  0  0  0  0
    0.1593    1.4287   -1.3522 C   0  0  0  0  0  0  0  0  0  0  0  0
    1.1536    1.7013   -1.7175 H   0  0  0  0  0  0  0  0  0  0  0  0
   -0.4864    1.3450   -2.2306 H   0  0  0  0  0  0  0  0  0  0  0  0
   -0.3128    2.6112   -0.5053 C   0  0  0  0  0  0  0  0  0  0  0  0
    0.1329    2.8091    0.6088 O   0  0  0  0  0  0  0  0  0  0  0  0
   -1.2653    3.3909   -1.0669 O   0  0  0  0  0  0  0  0  0  0  0  0
   -1.4361    4.1020   -0.4296 H   0  0  0  0  0  0  0  0  0  0  0  0
    0.9508   -0.0264    0.7208 C   0  0  0  0  0  0  0  0  0  0  0  0
    2.1703   -0.1042    0.7902 O   0  0  0  0  0  0  0  0  0  0  0  0
    0.2206    0.1736    1.8793 N   0  0  0  0  0  0  0  0  0  0  0  0
   -0.7567    0.4172    1.7677 H   0  0  0  0  0  0  0  0  0  0  0  0
    0.8425    0.3448    3.1859 C   0  0  0  0  0  0  0  0  0  0  0  0
    1.4628    1.2473    3.1976 H   0  0  0  0  0  0  0  0  0  0  0  0
    0.0764    0.4391    3.9610 H   0  0  0  0  0  0  0  0  0  0  0  0
    1.4713   -0.5189    3.4267 H   0  0  0  0  0  0  0  0  0  0  0  0
  1  2  1  0  0  0  0
  2  3  1  0  0  0  0
  2  4  1  0  0  0  0
  2  5  1  0  0  0  0
  5  6  2  0  0  0  0
  5  7  1  0  0  0  0
  7  8  1  0  0  0  0
  7  9  1  0  0  0  0
  9 10  1  0  0  0  0
  9 11  1  0  0  0  0
  9 18  1  0  0  0  0
 11 12  1  0  0  0  0
 11 13  1  0  0  0  0
 11 14  1  0  0  0  0
 14 15  2  0  0  0  0
 14 16  1  0  0  0  0
 16 17  1  0  0  0  0
 18 19  2  0  0  0  0
 18 20  1  0  0  0  0
 20 21  1  0  0  0  0
 20 22  1  0  0  0  0
 22 23  1  0  0  0  0
 22 24  1  0  0  0  0
 22 25  1  0  0  0  0
M  END
$$$$

  -OEChem-02102214113D

 25 24  0     1  0  0  0  0  0999 V2000
   -2.5166   -3.6974   -0.4994 H   0  0  0  0  0  0  0  0  0  0  0  0
   -2.5537   -2.6275   -0.7234 C   0  0  0  0  0  0  0  0  0  0  0  0
   -3.2530   -2.1487   -0.0341 H   0  0  0  0  0  0  0  0  0  0  0  0
   -2.9113   -2.4955   -1.7474 H   0  0  0  0  0  0  0  0  0  0  0  0
   -1.1736   -2.0152   -0.5735 C   0  0  0  0  0  0  0  0  0  0  0  0
   -0.2314   -2.7165   -0.2519 O   0  0  0  0  0  0  0  0  0  0  0  0
   -0.9911   -0.6671   -0.8162 N   0  0  0  0  0  0  0  0  0  0  0  0
   -1.8077   -0.1341   -1.1020 H   0  0  0  0  0  0  0  0  0  0  0  0
    0.3026    0.0299   -0.7038 C   0  0  1  0  0  0  0  0  0  0  0  0
    1.0011   -0.5324   -1.3356 H   0  0  0  0  0  0  0  0  0  0  0  0
    0.1600    1.4193   -1.3693 C   0  0  0  0  0  0  0  0  0  0  0  0
    1.1445    1.7031   -1.7526 H   0  0  0  0  0  0  0  0  0  0  0  0
   -0.5064    1.3487   -2.2333 H   0  0  0  0  0  0  0  0  0  0  0  0
   -0.2981    2.5713   -0.4776 C   0  0  0  0  0  0  0  0  0  0  0  0
    0.3549    2.9003    0.4949 O   0  0  0  0  0  0  0  0  0  0  0  0
   -1.4738    3.1524   -0.8109 O   0  0  0  0  0  0  0  0  0  0  0  0
   -1.6060    3.8668   -0.1677 H   0  0  0  0  0  0  0  0  0  0  0  0
    0.9621   -0.0127    0.6965 C   0  0  0  0  0  0  0  0  0  0  0  0
    2.1803   -0.0935    0.7792 O   0  0  0  0  0  0  0  0  0  0  0  0
    0.2201    0.2204    1.8410 N   0  0  0  0  0  0  0  0  0  0  0  0
   -0.7735    0.3822    1.7261 H   0  0  0  0  0  0  0  0  0  0  0  0
    0.8195    0.3849    3.1587 C   0  0  0  0  0  0  0  0  0  0  0  0
    1.4810    1.2576    3.1705 H   0  0  0  0  0  0  0  0  0  0  0  0
    0.0413    0.5297    3.9136 H   0  0  0  0  0  0  0  0  0  0  0  0
    1.4016   -0.5028    3.4280 H   0  0  0  0  0  0  0  0  0  0  0  0
  1  2  1  0  0  0  0
  2  3  1  0  0  0  0
  2  4  1  0  0  0  0
  2  5  1  0  0  0  0
  5  6  2  0  0  0  0
  5  7  1  0  0  0  0
  7  8  1  0  0  0  0
  7  9  1  0  0  0  0
  9 10  1  0  0  0  0
  9 11  1  0  0  0  0
  9 18  1  0  0  0  0
 11 12  1  0  0  0  0
 11 13  1  0  0  0  0
 11 14  1  0  0  0  0
 14 15  2  0  0  0  0
 14 16  1  0  0  0  0
 16 17  1  0  0  0  0
 18 19  2  0  0  0  0
 18 20  1  0  0  0  0
 20 21  1  0  0  0  0
 20 22  1  0  0  0  0
 22 23  1  0  0  0  0
 22 24  1  0  0  0  0
 22 25  1  0  0  0  0
M  END
$$$$

  -OEChem-02102214113D

 25 24  0     1  0  0  0  0  0999 V2000
   -2.5119   -3.6843   -0.4456 H   0  0  0  0  0  0  0  0  0  0  0  0
   -2.5439   -2.6204   -0.6978 C   0  0  0  0  0  0  0  0  0  0  0  0
   -3.2401   -2.1198   -0.0210 H   0  0  0  0  0  0  0  0  0  0  0  0
   -2.9021   -2.5134   -1.7246 H   0  0  0  0  0  0  0  0  0  0  0  0
   -1.1609   -2.0112   -0.5653 C   0  0  0  0  0  0  0  0  0  0  0  0
   -0.2220   -2.7068   -0.2232 O   0  0  0  0  0  0  0  0  0  0  0  0
   -0.9726   -0.6700   -0.8387 N   0  0  0  0  0  0  0  0  0  0  0  0
   -1.7892   -0.1364   -1.1247 H   0  0  0  0  0  0  0  0  0  0  0  0
    0.3220    0.0269   -0.7356 C   0  0  1  0  0  0  0  0  0  0  0  0
    1.0255   -0.5339   -1.3629 H   0  0  0  0  0  0  0  0  0  0  0  0
    0.1647    1.4172   -1.3908 C   0  0  0  0  0  0  0  0  0  0  0  0
    1.1410    1.7140   -1.7858 H   0  0  0  0  0  0  0  0  0  0  0  0
   -0.5182    1.3596   -2.2425 H   0  0  0  0  0  0  0  0  0  0  0  0
   -0.2879    2.5322   -0.4543 C   0  0  0  0  0  0  0  0  0  0  0  0
    0.4961    3.0145    0.3422 O   0  0  0  0  0  0  0  0  0  0  0  0
   -1.5909    2.8909   -0.5270 O   0  0  0  0  0  0  0  0  0  0  0  0
   -1.7000    3.6080    0.1178 H   0  0  0  0  0  0  0  0  0  0  0  0
    0.9691    0.0136    0.6703 C   0  0  0  0  0  0  0  0  0  0  0  0
    2.1860   -0.0605    0.7698 O   0  0  0  0  0  0  0  0  0  0  0  0
    0.2115    0.2754    1.7981 N   0  0  0  0  0  0  0  0  0  0  0  0
   -0.7932    0.3379    1.6807 H   0  0  0  0  0  0  0  0  0  0  0  0
    0.7842    0.4079    3.1310 C   0  0  0  0  0  0  0  0  0  0  0  0
    1.5122    1.2258    3.1538 H   0  0  0  0  0  0  0  0  0  0  0  0
   -0.0013    0.6244    3.8611 H   0  0  0  0  0  0  0  0  0  0  0  0
    1.2861   -0.5197    3.4255 H   0  0  0  0  0  0  0  0  0  0  0  0
  1  2  1  0  0  0  0
  2  3  1  0  0  0  0
  2  4  1  0  0  0  0
  2  5  1  0  0  0  0
  5  6  2  0  0  0  0
  5  7  1  0  0  0  0
  7  8  1  0  0  0  0
  7  9  1  0  0  0  0
  9 10  1  0  0  0  0
  9 11  1  0  0  0  0
  9 18  1  0  0  0  0
 11 12  1  0  0  0  0
 11 13  1  0  0  0  0
 11 14  1  0  0  0  0
 14 15  2  0  0  0  0
 14 16  1  0  0  0  0
 16 17  1  0  0  0  0
 18 19  2  0  0  0  0
 18 20  1  0  0  0  0
 20 21  1  0  0  0  0
 20 22  1  0  0  0  0
 22 23  1  0  0  0  0
 22 24  1  0  0  0  0
 22 25  1  0  0  0  0
M  END
$$$$

  -OEChem-02102214113D

 25 24  0     1  0  0  0  0  0999 V2000
   -2.5019   -3.6799   -0.4170 H   0  0  0  0  0  0  0  0  0  0  0  0
   -2.5361   -2.6178   -0.6761 C   0  0  0  0  0  0  0  0  0  0  0  0
   -3.2214   -2.1113    0.0074 H   0  0  0  0  0  0  0  0  0  0  0  0
   -2.9092   -2.5175   -1.6982 H   0  0  0  0  0  0  0  0  0  0  0  0
   -1.1502   -2.0103   -0.5680 C   0  0  0  0  0  0  0  0  0  0  0  0
   -0.2094   -2.7025   -0.2238 O   0  0  0  0  0  0  0  0  0  0  0  0
   -0.9615   -0.6732   -0.8594 N   0  0  0  0  0  0  0  0  0  0  0  0
   -1.7832   -0.1349   -1.1218 H   0  0  0  0  0  0  0  0  0  0  0  0
    0.3318    0.0254   -0.7574 C   0  0  1  0  0  0  0  0  0  0  0  0
    1.0403   -0.5343   -1.3802 H   0  0  0  0  0  0  0  0  0  0  0  0
    0.1714    1.4164   -1.4055 C   0  0  0  0  0  0  0  0  0  0  0  0
    1.1443    1.7193   -1.8047 H   0  0  0  0  0  0  0  0  0  0  0  0
   -0.5217    1.3700   -2.2494 H   0  0  0  0  0  0  0  0  0  0  0  0
   -0.2799    2.5021   -0.4371 C   0  0  0  0  0  0  0  0  0  0  0  0
    0.5532    3.1526    0.1668 O   0  0  0  0  0  0  0  0  0  0  0  0
   -1.6143    2.6442   -0.2566 O   0  0  0  0  0  0  0  0  0  0  0  0
   -1.7124    3.3724    0.3779 H   0  0  0  0  0  0  0  0  0  0  0  0
    0.9683    0.0316    0.6533 C   0  0  0  0  0  0  0  0  0  0  0  0
    2.1845   -0.0302    0.7640 O   0  0  0  0  0  0  0  0  0  0  0  0
    0.1999    0.3095    1.7702 N   0  0  0  0  0  0  0  0  0  0  0  0
   -0.8065    0.3268    1.6471 H   0  0  0  0  0  0  0  0  0  0  0  0
    0.7556    0.4187    3.1129 C   0  0  0  0  0  0  0  0  0  0  0  0
    1.5081    1.2135    3.1517 H   0  0  0  0  0  0  0  0  0  0  0  0
   -0.0338    0.6563    3.8320 H   0  0  0  0  0  0  0  0  0  0  0  0
    1.2243   -0.5252    3.4106 H   0  0  0  0  0  0  0  0  0  0  0  0
  1  2  1  0  0  0  0
  2  3  1  0  0  0  0
  2  4  1  0  0  0  0
  2  5  1  0  0  0  0
  5  6  2  0  0  0  0
  5  7  1  0  0  0  0
  7  8  1  0  0  0  0
  7  9  1  0  0  0  0
  9 10  1  0  0  0  0
  9 11  1  0  0  0  0
  9 18  1  0  0  0  0
 11 12  1  0  0  0  0
 11 13  1  0  0  0  0
 11 14  1  0  0  0  0
 14 15  2  0  0  0  0
 14 16  1  0  0  0  0
 16 17  1  0  0  0  0
 18 19  2  0  0  0  0
 18 20  1  0  0  0  0
 20 21  1  0  0  0  0
 20 22  1  0  0  0  0
 22 23  1  0  0  0  0
 22 24  1  0  0  0  0
 22 25  1  0  0  0  0
M  END
$$$$

  -OEChem-02102214113D

 25 24  0     1  0  0  0  0  0999 V2000
   -2.4942   -3.6807   -0.3966 H   0  0  0  0  0  0  0  0  0  0  0  0
   -2.5308   -2.6192   -0.6576 C   0  0  0  0  0  0  0  0  0  0  0  0
   -3.1969   -2.1083    0.0415 H   0  0  0  0  0  0  0  0  0  0  0  0
   -2.9288   -2.5200   -1.6703 H   0  0  0  0  0  0  0  0  0  0  0  0
   -1.1402   -2.0170   -0.5860 C   0  0  0  0  0  0  0  0  0  0  0  0
   -0.1928   -2.7132   -0.2687 O   0  0  0  0  0  0  0  0  0  0  0  0
   -0.9546   -0.6796   -0.8775 N   0  0  0  0  0  0  0  0  0  0  0  0
   -1.7851   -0.1311   -1.0858 H   0  0  0  0  0  0  0  0  0  0  0  0
    0.3370    0.0210   -0.7695 C   0  0  1  0  0  0  0  0  0  0  0  0
    1.0489   -0.5346   -1.3917 H   0  0  0  0  0  0  0  0  0  0  0  0
    0.1800    1.4173   -1.4056 C   0  0  0  0  0  0  0  0  0  0  0  0
    1.1534    1.7219   -1.8031 H   0  0  0  0  0  0  0  0  0  0  0  0
   -0.5157    1.3816   -2.2478 H   0  0  0  0  0  0  0  0  0  0  0  0
   -0.2723    2.4854   -0.4180 C   0  0  0  0  0  0  0  0  0  0  0  0
    0.5336    3.3025   -0.0124 O   0  0  0  0  0  0  0  0  0  0  0  0
   -1.5661    2.4463   -0.0166 O   0  0  0  0  0  0  0  0  0  0  0  0
   -1.6670    3.1968    0.5914 H   0  0  0  0  0  0  0  0  0  0  0  0
    0.9661    0.0286    0.6442 C   0  0  0  0  0  0  0  0  0  0  0  0
    2.1820   -0.0187    0.7623 O   0  0  0  0  0  0  0  0  0  0  0  0
    0.1904    0.3059    1.7560 N   0  0  0  0  0  0  0  0  0  0  0  0
   -0.8151    0.3352    1.6227 H   0  0  0  0  0  0  0  0  0  0  0  0
    0.7365    0.4194    3.1022 C   0  0  0  0  0  0  0  0  0  0  0  0
    1.4831    1.2194    3.1457 H   0  0  0  0  0  0  0  0  0  0  0  0
   -0.0592    0.6511    3.8164 H   0  0  0  0  0  0  0  0  0  0  0  0
    1.2098   -0.5213    3.4027 H   0  0  0  0  0  0  0  0  0  0  0  0
  1  2  1  0  0  0  0
  2  3  1  0  0  0  0
  2  4  1  0  0  0  0
  2  5  1  0  0  0  0
  5  6  2  0  0  0  0
  5  7  1  0  0  0  0
  7  8  1  0  0  0  0
  7  9  1  0  0  0  0
  9 10  1  0  0  0  0
  9 11  1  0  0  0  0
  9 18  1  0  0  0  0
 11 12  1  0  0  0  0
 11 13  1  0  0  0  0
 11 14  1  0  0  0  0
 14 15  2  0  0  0  0
 14 16  1  0  0  0  0
 16 17  1  0  0  0  0
 18 19  2  0  0  0  0
 18 20  1  0  0  0  0
 20 21  1  0  0  0  0
 20 22  1  0  0  0  0
 22 23  1  0  0  0  0
 22 24  1  0  0  0  0
 22 25  1  0  0  0  0
M  END
$$$$

  -OEChem-02102214113D

 25 24  0     1  0  0  0  0  0999 V2000
   -2.4898   -3.6875   -0.4015 H   0  0  0  0  0  0  0  0  0  0  0  0
   -2.5296   -2.6234   -0.6513 C   0  0  0  0  0  0  0  0  0  0  0  0
   -3.1784   -2.1177    0.0677 H   0  0  0  0  0  0  0  0  0  0  0  0
   -2.9502   -2.5133   -1.6539 H   0  0  0  0  0  0  0  0  0  0  0  0
   -1.1360   -2.0252   -0.6055 C   0  0  0  0  0  0  0  0  0  0  0  0
   -0.1826   -2.7278   -0.3211 O   0  0  0  0  0  0  0  0  0  0  0  0
   -0.9540   -0.6847   -0.8846 N   0  0  0  0  0  0  0  0  0  0  0  0
   -1.7901   -0.1286   -1.0432 H   0  0  0  0  0  0  0  0  0  0  0  0
    0.3363    0.0157   -0.7666 C   0  0  1  0  0  0  0  0  0  0  0  0
    1.0492   -0.5371   -1.3905 H   0  0  0  0  0  0  0  0  0  0  0  0
    0.1884    1.4166   -1.3953 C   0  0  0  0  0  0  0  0  0  0  0  0
    1.1659    1.7179   -1.7856 H   0  0  0  0  0  0  0  0  0  0  0  0
   -0.5036    1.3863   -2.2406 H   0  0  0  0  0  0  0  0  0  0  0  0
   -0.2675    2.4838   -0.4074 C   0  0  0  0  0  0  0  0  0  0  0  0
    0.4484    3.4476   -0.2062 O   0  0  0  0  0  0  0  0  0  0  0  0
   -1.4799    2.3161    0.1773 O   0  0  0  0  0  0  0  0  0  0  0  0
   -1.6003    3.0995    0.7388 H   0  0  0  0  0  0  0  0  0  0  0  0
    0.9658    0.0133    0.6471 C   0  0  0  0  0  0  0  0  0  0  0  0
    2.1820   -0.0268    0.7645 O   0  0  0  0  0  0  0  0  0  0  0  0
    0.1929    0.2804    1.7628 N   0  0  0  0  0  0  0  0  0  0  0  0
   -0.8089    0.3666    1.6214 H   0  0  0  0  0  0  0  0  0  0  0  0
    0.7407    0.4051    3.1074 C   0  0  0  0  0  0  0  0  0  0  0  0
    1.4623    1.2277    3.1519 H   0  0  0  0  0  0  0  0  0  0  0  0
   -0.0593    0.6076    3.8257 H   0  0  0  0  0  0  0  0  0  0  0  0
    1.2442   -0.5218    3.4017 H   0  0  0  0  0  0  0  0  0  0  0  0
  1  2  1  0  0  0  0
  2  3  1  0  0  0  0
  2  4  1  0  0  0  0
  2  5  1  0  0  0  0
  5  6  2  0  0  0  0
  5  7  1  0  0  0  0
  7  8  1  0  0  0  0
  7  9  1  0  0  0  0
  9 10  1  0  0  0  0
  9 11  1  0  0  0  0
  9 18  1  0  0  0  0
 11 12  1  0  0  0  0
 11 13  1  0  0  0  0
 11 14  1  0  0  0  0
 14 15  2  0  0  0  0
 14 16  1  0  0  0  0
 16 17  1  0  0  0  0
 18 19  2  0  0  0  0
 18 20  1  0  0  0  0
 20 21  1  0  0  0  0
 20 22  1  0  0  0  0
 22 23  1  0  0  0  0
 22 24  1  0  0  0  0
 22 25  1  0  0  0  0
M  END
$$$$

  -OEChem-02102214113D

 25 24  0     1  0  0  0  0  0999 V2000
   -2.4937   -3.6976   -0.4337 H   0  0  0  0  0  0  0  0  0  0  0  0
   -2.5350   -2.6287   -0.6620 C   0  0  0  0  0  0  0  0  0  0  0  0
   -3.1712   -2.1359    0.0770 H   0  0  0  0  0  0  0  0  0  0  0  0
   -2.9710   -2.4981   -1.6552 H   0  0  0  0  0  0  0  0  0  0  0  0
   -1.1399   -2.0339   -0.6267 C   0  0  0  0  0  0  0  0  0  0  0  0
   -0.1828   -2.7438   -0.3741 O   0  0  0  0  0  0  0  0  0  0  0  0
   -0.9611   -0.6882   -0.8818 N   0  0  0  0  0  0  0  0  0  0  0  0
   -1.8003   -0.1275   -1.0023 H   0  0  0  0  0  0  0  0  0  0  0  0
    0.3289    0.0092   -0.7489 C   0  0  1  0  0  0  0  0  0  0  0  0
    1.0390   -0.5434   -1.3762 H   0  0  0  0  0  0  0  0  0  0  0  0
    0.2007    1.4137   -1.3748 C   0  0  0  0  0  0  0  0  0  0  0  0
    1.1874    1.7037   -1.7502 H   0  0  0  0  0  0  0  0  0  0  0  0
   -0.4786    1.3868   -2.2305 H   0  0  0  0  0  0  0  0  0  0  0  0
   -0.2602    2.4953   -0.4032 C   0  0  0  0  0  0  0  0  0  0  0  0
    0.3197    3.5657   -0.4079 O   0  0  0  0  0  0  0  0  0  0  0  0
   -1.3728    2.2524    0.3352 O   0  0  0  0  0  0  0  0  0  0  0  0
   -1.5299    3.0725    0.8319 H   0  0  0  0  0  0  0  0  0  0  0  0
    0.9655   -0.0132    0.6618 C   0  0  0  0  0  0  0  0  0  0  0  0
    2.1828   -0.0515    0.7695 O   0  0  0  0  0  0  0  0  0  0  0  0
    0.2038    0.2355    1.7890 N   0  0  0  0  0  0  0  0  0  0  0  0
   -0.7870    0.4084    1.6443 H   0  0  0  0  0  0  0  0  0  0  0  0
    0.7696    0.3854    3.1238 C   0  0  0  0  0  0  0  0  0  0  0  0
    1.4461    1.2458    3.1587 H   0  0  0  0  0  0  0  0  0  0  0  0
   -0.0264    0.5395    3.8583 H   0  0  0  0  0  0  0  0  0  0  0  0
    1.3284   -0.5137    3.4046 H   0  0  0  0  0  0  0  0  0  0  0  0
  1  2  1  0  0  0  0
  2  3  1  0  0  0  0
  2  4  1  0  0  0  0
  2  5  1  0  0  0  0
  5  6  2  0  0  0  0
  5  7  1  0  0  0  0
  7  8  1  0  0  0  0
  7  9  1  0  0  0  0
  9 10  1  0  0  0  0
  9 11  1  0  0  0  0
  9 18  1  0  0  0  0
 11 12  1  0  0  0  0
 11 13  1  0  0  0  0
 11 14  1  0  0  0  0
 14 15  2  0  0  0  0
 14 16  1  0  0  0  0
 16 17  1  0  0  0  0
 18 19  2  0  0  0  0
 18 20  1  0  0  0  0
 20 21  1  0  0  0  0
 20 22  1  0  0  0  0
 22 23  1  0  0  0  0
 22 24  1  0  0  0  0
 22 25  1  0  0  0  0
M  END
$$$$

  -OEChem-02102214113D

 25 24  0     1  0  0  0  0  0999 V2000
   -2.4966   -3.7099   -0.4787 H   0  0  0  0  0  0  0  0  0  0  0  0
   -2.5429   -2.6362   -0.6822 C   0  0  0  0  0  0  0  0  0  0  0  0
   -3.1780   -2.1634    0.0703 H   0  0  0  0  0  0  0  0  0  0  0  0
   -2.9834   -2.4849   -1.6704 H   0  0  0  0  0  0  0  0  0  0  0  0
   -1.1499   -2.0368   -0.6385 C   0  0  0  0  0  0  0  0  0  0  0  0
   -0.1898   -2.7497   -0.4065 O   0  0  0  0  0  0  0  0  0  0  0  0
   -0.9748   -0.6855   -0.8665 N   0  0  0  0  0  0  0  0  0  0  0  0
   -1.8154   -0.1241   -0.9706 H   0  0  0  0  0  0  0  0  0  0  0  0
    0.3153    0.0100   -0.7221 C   0  0  1  0  0  0  0  0  0  0  0  0
    1.0196   -0.5474   -1.3516 H   0  0  0  0  0  0  0  0  0  0  0  0
    0.2139    1.4141   -1.3561 C   0  0  0  0  0  0  0  0  0  0  0  0
    1.2114    1.6874   -1.7155 H   0  0  0  0  0  0  0  0  0  0  0  0
   -0.4492    1.3841   -2.2242 H   0  0  0  0  0  0  0  0  0  0  0  0
   -0.2498    2.5259   -0.4190 C   0  0  0  0  0  0  0  0  0  0  0  0
    0.1609    3.6518   -0.6334 O   0  0  0  0  0  0  0  0  0  0  0  0
   -1.2357    2.2535    0.4730 O   0  0  0  0  0  0  0  0  0  0  0  0
   -1.4309    3.1037    0.9005 H   0  0  0  0  0  0  0  0  0  0  0  0
    0.9657   -0.0342    0.6824 C   0  0  0  0  0  0  0  0  0  0  0  0
    2.1847   -0.0702    0.7735 O   0  0  0  0  0  0  0  0  0  0  0  0
    0.2204    0.1922    1.8245 N   0  0  0  0  0  0  0  0  0  0  0  0
   -0.7579    0.4305    1.6853 H   0  0  0  0  0  0  0  0  0  0  0  0
    0.8100    0.3528    3.1475 C   0  0  0  0  0  0  0  0  0  0  0  0
    1.4476    1.2424    3.1770 H   0  0  0  0  0  0  0  0  0  0  0  0
    0.0248    0.4615    3.9015 H   0  0  0  0  0  0  0  0  0  0  0  0
    1.4151   -0.5231    3.4049 H   0  0  0  0  0  0  0  0  0  0  0  0
  1  2  1  0  0  0  0
  2  3  1  0  0  0  0
  2  4  1  0  0  0  0
  2  5  1  0  0  0  0
  5  6  2  0  0  0  0
  5  7  1  0  0  0  0
  7  8  1  0  0  0  0
  7  9  1  0  0  0  0
  9 10  1  0  0  0  0
  9 11  1  0  0  0  0
  9 18  1  0  0  0  0
 11 12  1  0  0  0  0
 11 13  1  0  0  0  0
 11 14  1  0  0  0  0
 14 15  2  0  0  0  0
 14 16  1  0  0  0  0
 16 17  1  0  0  0  0
 18 19  2  0  0  0  0
 18 20  1  0  0  0  0
 20 21  1  0  0  0  0
 20 22  1  0  0  0  0
 22 23  1  0  0  0  0
 22 24  1  0  0  0  0
 22 25  1  0  0  0  0
M  END
$$$$

  -OEChem-02102214113D

 25 24  0     1  0  0  0  0  0999 V2000
   -2.5072   -3.7098   -0.5260 H   0  0  0  0  0  0  0  0  0  0  0  0
   -2.5529   -2.6324   -0.7089 C   0  0  0  0  0  0  0  0  0  0  0  0
   -3.1951   -2.1745    0.0470 H   0  0  0  0  0  0  0  0  0  0  0  0
   -2.9845   -2.4620   -1.6982 H   0  0  0  0  0  0  0  0  0  0  0  0
   -1.1608   -2.0332   -0.6408 C   0  0  0  0  0  0  0  0  0  0  0  0
   -0.2021   -2.7492   -0.4119 O   0  0  0  0  0  0  0  0  0  0  0  0
   -0.9867   -0.6779   -0.8440 N   0  0  0  0  0  0  0  0  0  0  0  0
   -1.8266   -0.1175   -0.9561 H   0  0  0  0  0  0  0  0  0  0  0  0
    0.3024    0.0164   -0.6901 C   0  0  1  0  0  0  0  0  0  0  0  0
    1.0017   -0.5494   -1.3183 H   0  0  0  0  0  0  0  0  0  0  0  0
    0.2233    1.4125   -1.3466 C   0  0  0  0  0  0  0  0  0  0  0  0
    1.2304    1.6687   -1.6905 H   0  0  0  0  0  0  0  0  0  0  0  0
   -0.4198    1.3654   -2.2291 H   0  0  0  0  0  0  0  0  0  0  0  0
   -0.2470    2.5655   -0.4624 C   0  0  0  0  0  0  0  0  0  0  0  0
   -0.0409    3.6908   -0.8795 O   0  0  0  0  0  0  0  0  0  0  0  0
   -1.0589    2.3092    0.5927 O   0  0  0  0  0  0  0  0  0  0  0  0
   -1.2938    3.1818    0.9489 H   0  0  0  0  0  0  0  0  0  0  0  0
    0.9673   -0.0453    0.7078 C   0  0  0  0  0  0  0  0  0  0  0  0
    2.1877   -0.0844    0.7815 O   0  0  0  0  0  0  0  0  0  0  0  0
    0.2412    0.1601    1.8659 N   0  0  0  0  0  0  0  0  0  0  0  0
   -0.7262    0.4451    1.7405 H   0  0  0  0  0  0  0  0  0  0  0  0
    0.8548    0.3062    3.1798 C   0  0  0  0  0  0  0  0  0  0  0  0
    1.4754    1.2076    3.2150 H   0  0  0  0  0  0  0  0  0  0  0  0
    0.0832    0.3834    3.9516 H   0  0  0  0  0  0  0  0  0  0  0  0
    1.4821   -0.5623    3.4075 H   0  0  0  0  0  0  0  0  0  0  0  0
  1  2  1  0  0  0  0
  2  3  1  0  0  0  0
  2  4  1  0  0  0  0
  2  5  1  0  0  0  0
  5  6  2  0  0  0  0
  5  7  1  0  0  0  0
  7  8  1  0  0  0  0
  7  9  1  0  0  0  0
  9 10  1  0  0  0  0
  9 11  1  0  0  0  0
  9 18  1  0  0  0  0
 11 12  1  0  0  0  0
 11 13  1  0  0  0  0
 11 14  1  0  0  0  0
 14 15  2  0  0  0  0
 14 16  1  0  0  0  0
 16 17  1  0  0  0  0
 18 19  2  0  0  0  0
 18 20  1  0  0  0  0
 20 21  1  0  0  0  0
 20 22  1  0  0  0  0
 22 23  1  0  0  0  0
 22 24  1  0  0  0  0
 22 25  1  0  0  0  0
M  END
$$$$

  -OEChem-02102214113D

 25 24  0     1  0  0  0  0  0999 V2000
   -2.5528   -3.6839   -0.5935 H   0  0  0  0  0  0  0  0  0  0  0  0
   -2.5855   -2.6031   -0.7586 C   0  0  0  0  0  0  0  0  0  0  0  0
   -3.2541   -2.1550   -0.0199 H   0  0  0  0  0  0  0  0  0  0  0  0
   -2.9776   -2.4128   -1.7605 H   0  0  0  0  0  0  0  0  0  0  0  0
   -1.1939   -2.0134   -0.6256 C   0  0  0  0  0  0  0  0  0  0  0  0
   -0.2491   -2.7399   -0.3745 O   0  0  0  0  0  0  0  0  0  0  0  0
   -1.0048   -0.6553   -0.7992 N   0  0  0  0  0  0  0  0  0  0  0  0
   -1.8312   -0.0946   -0.9836 H   0  0  0  0  0  0  0  0  0  0  0  0
    0.2921    0.0279   -0.6452 C   0  0  1  0  0  0  0  0  0  0  0  0
    0.9767   -0.5673   -1.2629 H   0  0  0  0  0  0  0  0  0  0  0  0
    0.2574    1.4035   -1.3635 C   0  0  0  0  0  0  0  0  0  0  0  0
    1.2006    1.4930   -1.9112 H   0  0  0  0  0  0  0  0  0  0  0  0
   -0.5435    1.4011   -2.1076 H   0  0  0  0  0  0  0  0  0  0  0  0
    0.1381    2.6915   -0.5457 C   0  0  0  0  0  0  0  0  0  0  0  0
    0.1219    3.7216   -1.1961 O   0  0  0  0  0  0  0  0  0  0  0  0
   -0.1176    2.6619    0.7801 O   0  0  0  0  0  0  0  0  0  0  0  0
   -0.1695    3.5899    1.0577 H   0  0  0  0  0  0  0  0  0  0  0  0
    0.9630   -0.0767    0.7480 C   0  0  0  0  0  0  0  0  0  0  0  0
    2.1837   -0.1400    0.8121 O   0  0  0  0  0  0  0  0  0  0  0  0
    0.2434    0.1031    1.9158 N   0  0  0  0  0  0  0  0  0  0  0  0
   -0.7229    0.3925    1.8093 H   0  0  0  0  0  0  0  0  0  0  0  0
    0.8700    0.2102    3.2270 C   0  0  0  0  0  0  0  0  0  0  0  0
    1.5062    1.1000    3.2756 H   0  0  0  0  0  0  0  0  0  0  0  0
    0.1059    0.2847    4.0063 H   0  0  0  0  0  0  0  0  0  0  0  0
    1.4837   -0.6738    3.4305 H   0  0  0  0  0  0  0  0  0  0  0  0
  1  2  1  0  0  0  0
  2  3  1  0  0  0  0
  2  4  1  0  0  0  0
  2  5  1  0  0  0  0
  5  6  2  0  0  0  0
  5  7  1  0  0  0  0
  7  8  1  0  0  0  0
  7  9  1  0  0  0  0
  9 10  1  0  0  0  0
  9 11  1  0  0  0  0
  9 18  1  0  0  0  0
 11 12  1  0  0  0  0
 11 13  1  0  0  0  0
 11 14  1  0  0  0  0
 14 15  2  0  0  0  0
 14 16  1  0  0  0  0
 16 17  1  0  0  0  0
 18 19  2  0  0  0  0
 18 20  1  0  0  0  0
 20 21  1  0  0  0  0
 20 22  1  0  0  0  0
 22 23  1  0  0  0  0
 22 24  1  0  0  0  0
 22 25  1  0  0  0  0
M  END
$$$$

  -OEChem-02102214113D

 25 24  0     1  0  0  0  0  0999 V2000
   -2.5484   -3.6814   -0.5694 H   0  0  0  0  0  0  0  0  0  0  0  0
   -2.5787   -2.6031   -0.7506 C   0  0  0  0  0  0  0  0  0  0  0  0
   -3.2665   -2.1461   -0.0353 H   0  0  0  0  0  0  0  0  0  0  0  0
   -2.9460   -2.4279   -1.7646 H   0  0  0  0  0  0  0  0  0  0  0  0
   -1.1921   -2.0085   -0.5914 C   0  0  0  0  0  0  0  0  0  0  0  0
   -0.2536   -2.7288   -0.3025 O   0  0  0  0  0  0  0  0  0  0  0  0
   -1.0002   -0.6535   -0.7848 N   0  0  0  0  0  0  0  0  0  0  0  0
   -1.8170   -0.1034   -1.0334 H   0  0  0  0  0  0  0  0  0  0  0  0
    0.2993    0.0308   -0.6527 C   0  0  1  0  0  0  0  0  0  0  0  0
    0.9844   -0.5591   -1.2744 H   0  0  0  0  0  0  0  0  0  0  0  0
    0.2285    1.4085   -1.3688 C   0  0  0  0  0  0  0  0  0  0  0  0
    1.1592    1.5078   -1.9351 H   0  0  0  0  0  0  0  0  0  0  0  0
   -0.5848    1.3907   -2.0998 H   0  0  0  0  0  0  0  0  0  0  0  0
    0.1157    2.7079   -0.5647 C   0  0  0  0  0  0  0  0  0  0  0  0
   -0.2169    3.6866   -1.2103 O   0  0  0  0  0  0  0  0  0  0  0  0
    0.3618    2.7569    0.7607 O   0  0  0  0  0  0  0  0  0  0  0  0
    0.2806    3.6885    1.0159 H   0  0  0  0  0  0  0  0  0  0  0  0
    0.9638   -0.0689    0.7433 C   0  0  0  0  0  0  0  0  0  0  0  0
    2.1829   -0.1513    0.8173 O   0  0  0  0  0  0  0  0  0  0  0  0
    0.2325    0.1236    1.9026 N   0  0  0  0  0  0  0  0  0  0  0  0
   -0.7571    0.3157    1.7982 H   0  0  0  0  0  0  0  0  0  0  0  0
    0.8372    0.1978    3.2262 C   0  0  0  0  0  0  0  0  0  0  0  0
    1.5177    1.0536    3.2876 H   0  0  0  0  0  0  0  0  0  0  0  0
    0.0631    0.3139    3.9907 H   0  0  0  0  0  0  0  0  0  0  0  0
    1.4000   -0.7169    3.4408 H   0  0  0  0  0  0  0  0  0  0  0  0
  1  2  1  0  0  0  0
  2  3  1  0  0  0  0
  2  4  1  0  0  0  0
  2  5  1  0  0  0  0
  5  6  2  0  0  0  0
  5  7  1  0  0  0  0
  7  8  1  0  0  0  0
  7  9  1  0  0  0  0
  9 10  1  0  0  0  0
  9 11  1  0  0  0  0
  9 18  1  0  0  0  0
 11 12  1  0  0  0  0
 11 13  1  0  0  0  0
 11 14  1  0  0  0  0
 14 15  2  0  0  0  0
 14 16  1  0  0  0  0
 16 17  1  0  0  0  0
 18 19  2  0  0  0  0
 18 20  1  0  0  0  0
 20 21  1  0  0  0  0
 20 22  1  0  0  0  0
 22 23  1  0  0  0  0
 22 24  1  0  0  0  0
 22 25  1  0  0  0  0
M  END
$$$$

  -OEChem-02102214113D

 25 24  0     1  0  0  0  0  0999 V2000
   -2.5257   -3.6676   -0.4721 H   0  0  0  0  0  0  0  0  0  0  0  0
   -2.5547   -2.5976   -0.6971 C   0  0  0  0  0  0  0  0  0  0  0  0
   -3.2462   -2.1124   -0.0043 H   0  0  0  0  0  0  0  0  0  0  0  0
   -2.9164   -2.4633   -1.7194 H   0  0  0  0  0  0  0  0  0  0  0  0
   -1.1688   -1.9977   -0.5529 C   0  0  0  0  0  0  0  0  0  0  0  0
   -0.2342   -2.7057   -0.2246 O   0  0  0  0  0  0  0  0  0  0  0  0
   -0.9752   -0.6505   -0.7939 N   0  0  0  0  0  0  0  0  0  0  0  0
   -1.7856   -0.1146   -1.0909 H   0  0  0  0  0  0  0  0  0  0  0  0
    0.3268    0.0358   -0.6892 C   0  0  1  0  0  0  0  0  0  0  0  0
    1.0192   -0.5429   -1.3132 H   0  0  0  0  0  0  0  0  0  0  0  0
    0.2034    1.4210   -1.3838 C   0  0  0  0  0  0  0  0  0  0  0  0
    1.1116    1.5499   -1.9792 H   0  0  0  0  0  0  0  0  0  0  0  0
   -0.6331    1.4033   -2.0885 H   0  0  0  0  0  0  0  0  0  0  0  0
    0.1012    2.6934   -0.5361 C   0  0  0  0  0  0  0  0  0  0  0  0
   -0.5352    3.6057   -1.0346 O   0  0  0  0  0  0  0  0  0  0  0  0
    0.7941    2.8271    0.6145 O   0  0  0  0  0  0  0  0  0  0  0  0
    0.6583    3.7379    0.9154 H   0  0  0  0  0  0  0  0  0  0  0  0
    0.9718   -0.0321    0.7169 C   0  0  0  0  0  0  0  0  0  0  0  0
    2.1855   -0.1533    0.8176 O   0  0  0  0  0  0  0  0  0  0  0  0
    0.2149    0.1988    1.8528 N   0  0  0  0  0  0  0  0  0  0  0  0
   -0.7885    0.2754    1.7332 H   0  0  0  0  0  0  0  0  0  0  0  0
    0.7742    0.1885    3.1978 C   0  0  0  0  0  0  0  0  0  0  0  0
    1.5603    0.9452    3.2905 H   0  0  0  0  0  0  0  0  0  0  0  0
   -0.0044    0.4079    3.9344 H   0  0  0  0  0  0  0  0  0  0  0  0
    1.2016   -0.7936    3.4256 H   0  0  0  0  0  0  0  0  0  0  0  0
  1  2  1  0  0  0  0
  2  3  1  0  0  0  0
  2  4  1  0  0  0  0
  2  5  1  0  0  0  0
  5  6  2  0  0  0  0
  5  7  1  0  0  0  0
  7  8  1  0  0  0  0
  7  9  1  0  0  0  0
  9 10  1  0  0  0  0
  9 11  1  0  0  0  0
  9 18  1  0  0  0  0
 11 12  1  0  0  0  0
 11 13  1  0  0  0  0
 11 14  1  0  0  0  0
 14 15  2  0  0  0  0
 14 16  1  0  0  0  0
 16 17  1  0  0  0  0
 18 19  2  0  0  0  0
 18 20  1  0  0  0  0
 20 21  1  0  0  0  0
 20 22  1  0  0  0  0
 22 23  1  0  0  0  0
 22 24  1  0  0  0  0
 22 25  1  0  0  0  0
M  END
$$$$

  -OEChem-02102214113D

 25 24  0     1  0  0  0  0  0999 V2000
   -2.5260   -3.6546   -0.4290 H   0  0  0  0  0  0  0  0  0  0  0  0
   -2.5480   -2.5883   -0.6717 C   0  0  0  0  0  0  0  0  0  0  0  0
   -3.2393   -2.0867    0.0095 H   0  0  0  0  0  0  0  0  0  0  0  0
   -2.9053   -2.4693   -1.6974 H   0  0  0  0  0  0  0  0  0  0  0  0
   -1.1590   -1.9939   -0.5336 C   0  0  0  0  0  0  0  0  0  0  0  0
   -0.2310   -2.6981   -0.1798 O   0  0  0  0  0  0  0  0  0  0  0  0
   -0.9558   -0.6552   -0.8101 N   0  0  0  0  0  0  0  0  0  0  0  0
   -1.7620   -0.1229   -1.1252 H   0  0  0  0  0  0  0  0  0  0  0  0
    0.3487    0.0281   -0.7185 C   0  0  1  0  0  0  0  0  0  0  0  0
    1.0456   -0.5462   -1.3412 H   0  0  0  0  0  0  0  0  0  0  0  0
    0.1970    1.4167   -1.3955 C   0  0  0  0  0  0  0  0  0  0  0  0
    1.0898    1.5698   -2.0080 H   0  0  0  0  0  0  0  0  0  0  0  0
   -0.6556    1.4101   -2.0804 H   0  0  0  0  0  0  0  0  0  0  0  0
    0.1063    2.6479   -0.4917 C   0  0  0  0  0  0  0  0  0  0  0  0
   -0.7587    3.4604   -0.7713 O   0  0  0  0  0  0  0  0  0  0  0  0
    1.0618    2.8771    0.4355 O   0  0  0  0  0  0  0  0  0  0  0  0
    0.8710    3.7430    0.8252 H   0  0  0  0  0  0  0  0  0  0  0  0
    0.9820   -0.0070    0.6934 C   0  0  0  0  0  0  0  0  0  0  0  0
    2.1921   -0.1426    0.8125 O   0  0  0  0  0  0  0  0  0  0  0  0
    0.2119    0.2590    1.8124 N   0  0  0  0  0  0  0  0  0  0  0  0
   -0.7931    0.2864    1.6811 H   0  0  0  0  0  0  0  0  0  0  0  0
    0.7494    0.2300    3.1661 C   0  0  0  0  0  0  0  0  0  0  0  0
    1.5645    0.9541    3.2693 H   0  0  0  0  0  0  0  0  0  0  0  0
   -0.0306    0.4842    3.8898 H   0  0  0  0  0  0  0  0  0  0  0  0
    1.1323   -0.7684    3.4029 H   0  0  0  0  0  0  0  0  0  0  0  0
  1  2  1  0  0  0  0
  2  3  1  0  0  0  0
  2  4  1  0  0  0  0
  2  5  1  0  0  0  0
  5  6  2  0  0  0  0
  5  7  1  0  0  0  0
  7  8  1  0  0  0  0
  7  9  1  0  0  0  0
  9 10  1  0  0  0  0
  9 11  1  0  0  0  0
  9 18  1  0  0  0  0
 11 12  1  0  0  0  0
 11 13  1  0  0  0  0
 11 14  1  0  0  0  0
 14 15  2  0  0  0  0
 14 16  1  0  0  0  0
 16 17  1  0  0  0  0
 18 19  2  0  0  0  0
 18 20  1  0  0  0  0
 20 21  1  0  0  0  0
 20 22  1  0  0  0  0
 22 23  1  0  0  0  0
 22 24  1  0  0  0  0
 22 25  1  0  0  0  0
M  END
$$$$

  -OEChem-02102214113D

 25 24  0     1  0  0  0  0  0999 V2000
   -2.5256   -3.6490   -0.4001 H   0  0  0  0  0  0  0  0  0  0  0  0
   -2.5454   -2.5858   -0.6564 C   0  0  0  0  0  0  0  0  0  0  0  0
   -3.2335   -2.0740    0.0206 H   0  0  0  0  0  0  0  0  0  0  0  0
   -2.9054   -2.4787   -1.6825 H   0  0  0  0  0  0  0  0  0  0  0  0
   -1.1546   -1.9930   -0.5299 C   0  0  0  0  0  0  0  0  0  0  0  0
   -0.2287   -2.6928   -0.1620 O   0  0  0  0  0  0  0  0  0  0  0  0
   -0.9476   -0.6598   -0.8293 N   0  0  0  0  0  0  0  0  0  0  0  0
   -1.7534   -0.1281   -1.1466 H   0  0  0  0  0  0  0  0  0  0  0  0
    0.3577    0.0220   -0.7437 C   0  0  1  0  0  0  0  0  0  0  0  0
    1.0573   -0.5517   -1.3636 H   0  0  0  0  0  0  0  0  0  0  0  0
    0.2004    1.4126   -1.4105 C   0  0  0  0  0  0  0  0  0  0  0  0
    1.0852    1.5788   -2.0315 H   0  0  0  0  0  0  0  0  0  0  0  0
   -0.6623    1.4225   -2.0829 H   0  0  0  0  0  0  0  0  0  0  0  0
    0.1214    2.6066   -0.4617 C   0  0  0  0  0  0  0  0  0  0  0  0
   -0.8923    3.2829   -0.5058 O   0  0  0  0  0  0  0  0  0  0  0  0
    1.2133    2.9463    0.2591 O   0  0  0  0  0  0  0  0  0  0  0  0
    0.9898    3.7552    0.7426 H   0  0  0  0  0  0  0  0  0  0  0  0
    0.9856    0.0112    0.6712 C   0  0  0  0  0  0  0  0  0  0  0  0
    2.1950   -0.1191    0.7990 O   0  0  0  0  0  0  0  0  0  0  0  0
    0.2109    0.2996    1.7814 N   0  0  0  0  0  0  0  0  0  0  0  0
   -0.7941    0.3178    1.6457 H   0  0  0  0  0  0  0  0  0  0  0  0
    0.7408    0.2830    3.1385 C   0  0  0  0  0  0  0  0  0  0  0  0
    1.5646    0.9980    3.2358 H   0  0  0  0  0  0  0  0  0  0  0  0
   -0.0401    0.5567    3.8543 H   0  0  0  0  0  0  0  0  0  0  0  0
    1.1103   -0.7164    3.3914 H   0  0  0  0  0  0  0  0  0  0  0  0
  1  2  1  0  0  0  0
  2  3  1  0  0  0  0
  2  4  1  0  0  0  0
  2  5  1  0  0  0  0
  5  6  2  0  0  0  0
  5  7  1  0  0  0  0
  7  8  1  0  0  0  0
  7  9  1  0  0  0  0
  9 10  1  0  0  0  0
  9 11  1  0  0  0  0
  9 18  1  0  0  0  0
 11 12  1  0  0  0  0
 11 13  1  0  0  0  0
 11 14  1  0  0  0  0
 14 15  2  0  0  0  0
 14 16  1  0  0  0  0
 16 17  1  0  0  0  0
 18 19  2  0  0  0  0
 18 20  1  0  0  0  0
 20 21  1  0  0  0  0
 20 22  1  0  0  0  0
 22 23  1  0  0  0  0
 22 24  1  0  0  0  0
 22 25  1  0  0  0  0
M  END
$$$$

  -OEChem-02102214113D

 25 24  0     1  0  0  0  0  0999 V2000
   -2.5226   -3.6463   -0.3763 H   0  0  0  0  0  0  0  0  0  0  0  0
   -2.5442   -2.5856   -0.6427 C   0  0  0  0  0  0  0  0  0  0  0  0
   -3.2204   -2.0656    0.0399 H   0  0  0  0  0  0  0  0  0  0  0  0
   -2.9197   -2.4878   -1.6641 H   0  0  0  0  0  0  0  0  0  0  0  0
   -1.1504   -1.9949   -0.5432 C   0  0  0  0  0  0  0  0  0  0  0  0
   -0.2198   -2.6948   -0.1871 O   0  0  0  0  0  0  0  0  0  0  0  0
   -0.9435   -0.6641   -0.8529 N   0  0  0  0  0  0  0  0  0  0  0  0
   -1.7551   -0.1248   -1.1417 H   0  0  0  0  0  0  0  0  0  0  0  0
    0.3612    0.0177   -0.7652 C   0  0  1  0  0  0  0  0  0  0  0  0
    1.0632   -0.5570   -1.3816 H   0  0  0  0  0  0  0  0  0  0  0  0
    0.2076    1.4093   -1.4269 C   0  0  0  0  0  0  0  0  0  0  0  0
    1.0898    1.5824   -2.0497 H   0  0  0  0  0  0  0  0  0  0  0  0
   -0.6592    1.4328   -2.0931 H   0  0  0  0  0  0  0  0  0  0  0  0
    0.1325    2.5755   -0.4475 C   0  0  0  0  0  0  0  0  0  0  0  0
   -0.9609    3.0836   -0.2634 O   0  0  0  0  0  0  0  0  0  0  0  0
    1.2800    3.0461    0.0908 O   0  0  0  0  0  0  0  0  0  0  0  0
    1.0375    3.7890    0.6631 H   0  0  0  0  0  0  0  0  0  0  0  0
    0.9861    0.0218    0.6519 C   0  0  0  0  0  0  0  0  0  0  0  0
    2.1967   -0.0901    0.7833 O   0  0  0  0  0  0  0  0  0  0  0  0
    0.2092    0.3213    1.7575 N   0  0  0  0  0  0  0  0  0  0  0  0
   -0.7952    0.3568    1.6173 H   0  0  0  0  0  0  0  0  0  0  0  0
    0.7362    0.3352    3.1160 C   0  0  0  0  0  0  0  0  0  0  0  0
    1.5548    1.0575    3.2018 H   0  0  0  0  0  0  0  0  0  0  0  0
   -0.0483    0.6174    3.8245 H   0  0  0  0  0  0  0  0  0  0  0  0
    1.1120   -0.6565    3.3896 H   0  0  0  0  0  0  0  0  0  0  0  0
  1  2  1  0  0  0  0
  2  3  1  0  0  0  0
  2  4  1  0  0  0  0
  2  5  1  0  0  0  0
  5  6  2  0  0  0  0
  5  7  1  0  0  0  0
  7  8  1  0  0  0  0
  7  9  1  0  0  0  0
  9 10  1  0  0  0  0
  9 11  1  0  0  0  0
  9 18  1  0  0  0  0
 11 12  1  0  0  0  0
 11 13  1  0  0  0  0
 11 14  1  0  0  0  0
 14 15  2  0  0  0  0
 14 16  1  0  0  0  0
 16 17  1  0  0  0  0
 18 19  2  0  0  0  0
 18 20  1  0  0  0  0
 20 21  1  0  0  0  0
 20 22  1  0  0  0  0
 22 23  1  0  0  0  0
 22 24  1  0  0  0  0
 22 25  1  0  0  0  0
M  END
$$$$

  -OEChem-02102214113D

 25 24  0     1  0  0  0  0  0999 V2000
   -2.5263   -3.6529   -0.3817 H   0  0  0  0  0  0  0  0  0  0  0  0
   -2.5487   -2.5924   -0.6486 C   0  0  0  0  0  0  0  0  0  0  0  0
   -3.2155   -2.0707    0.0421 H   0  0  0  0  0  0  0  0  0  0  0  0
   -2.9366   -2.4943   -1.6653 H   0  0  0  0  0  0  0  0  0  0  0  0
   -1.1522   -2.0050   -0.5672 C   0  0  0  0  0  0  0  0  0  0  0  0
   -0.2162   -2.7106   -0.2368 O   0  0  0  0  0  0  0  0  0  0  0  0
   -0.9472   -0.6731   -0.8730 N   0  0  0  0  0  0  0  0  0  0  0  0
   -1.7663   -0.1225   -1.1159 H   0  0  0  0  0  0  0  0  0  0  0  0
    0.3563    0.0084   -0.7765 C   0  0  1  0  0  0  0  0  0  0  0  0
    1.0599   -0.5652   -1.3922 H   0  0  0  0  0  0  0  0  0  0  0  0
    0.2138    1.4031   -1.4309 C   0  0  0  0  0  0  0  0  0  0  0  0
    1.0982    1.5771   -2.0505 H   0  0  0  0  0  0  0  0  0  0  0  0
   -0.6527    1.4406   -2.0966 H   0  0  0  0  0  0  0  0  0  0  0  0
    0.1387    2.5503   -0.4316 C   0  0  0  0  0  0  0  0  0  0  0  0
   -0.9671    2.8763   -0.0316 O   0  0  0  0  0  0  0  0  0  0  0  0
    1.2839    3.1749   -0.0765 O   0  0  0  0  0  0  0  0  0  0  0  0
    1.0420    3.8594    0.5647 H   0  0  0  0  0  0  0  0  0  0  0  0
    0.9795    0.0125    0.6415 C   0  0  0  0  0  0  0  0  0  0  0  0
    2.1923   -0.0727    0.7708 O   0  0  0  0  0  0  0  0  0  0  0  0
    0.2040    0.3105    1.7483 N   0  0  0  0  0  0  0  0  0  0  0  0
   -0.7960    0.4089    1.6031 H   0  0  0  0  0  0  0  0  0  0  0  0
    0.7397    0.3970    3.1006 C   0  0  0  0  0  0  0  0  0  0  0  0
    1.5159    1.1675    3.1564 H   0  0  0  0  0  0  0  0  0  0  0  0
   -0.0548    0.6552    3.8071 H   0  0  0  0  0  0  0  0  0  0  0  0
    1.1736   -0.5625    3.4011 H   0  0  0  0  0  0  0  0  0  0  0  0
  1  2  1  0  0  0  0
  2  3  1  0  0  0  0
  2  4  1  0  0  0  0
  2  5  1  0  0  0  0
  5  6  2  0  0  0  0
  5  7  1  0  0  0  0
  7  8  1  0  0  0  0
  7  9  1  0  0  0  0
  9 10  1  0  0  0  0
  9 11  1  0  0  0  0
  9 18  1  0  0  0  0
 11 12  1  0  0  0  0
 11 13  1  0  0  0  0
 11 14  1  0  0  0  0
 14 15  2  0  0  0  0
 14 16  1  0  0  0  0
 16 17  1  0  0  0  0
 18 19  2  0  0  0  0
 18 20  1  0  0  0  0
 20 21  1  0  0  0  0
 20 22  1  0  0  0  0
 22 23  1  0  0  0  0
 22 24  1  0  0  0  0
 22 25  1  0  0  0  0
M  END
$$$$

  -OEChem-02102214113D

 25 24  0     1  0  0  0  0  0999 V2000
   -2.5315   -3.6616   -0.4061 H   0  0  0  0  0  0  0  0  0  0  0  0
   -2.5552   -2.5968   -0.6555 C   0  0  0  0  0  0  0  0  0  0  0  0
   -3.1993   -2.0823    0.0615 H   0  0  0  0  0  0  0  0  0  0  0  0
   -2.9705   -2.4804   -1.6595 H   0  0  0  0  0  0  0  0  0  0  0  0
   -1.1536   -2.0184   -0.6031 C   0  0  0  0  0  0  0  0  0  0  0  0
   -0.2123   -2.7338   -0.3102 O   0  0  0  0  0  0  0  0  0  0  0  0
   -0.9503   -0.6829   -0.8923 N   0  0  0  0  0  0  0  0  0  0  0  0
   -1.7757   -0.1208   -1.0804 H   0  0  0  0  0  0  0  0  0  0  0  0
    0.3513   -0.0025   -0.7754 C   0  0  1  0  0  0  0  0  0  0  0  0
    1.0586   -0.5748   -1.3881 H   0  0  0  0  0  0  0  0  0  0  0  0
    0.2245    1.3949   -1.4271 C   0  0  0  0  0  0  0  0  0  0  0  0
    1.1182    1.5665   -2.0340 H   0  0  0  0  0  0  0  0  0  0  0  0
   -0.6332    1.4390   -2.1034 H   0  0  0  0  0  0  0  0  0  0  0  0
    0.1366    2.5385   -0.4253 C   0  0  0  0  0  0  0  0  0  0  0  0
   -0.9208    2.6869    0.1673 O   0  0  0  0  0  0  0  0  0  0  0  0
    1.2134    3.3395   -0.2607 O   0  0  0  0  0  0  0  0  0  0  0  0
    0.9794    3.9827    0.4251 H   0  0  0  0  0  0  0  0  0  0  0  0
    0.9686   -0.0097    0.6454 C   0  0  0  0  0  0  0  0  0  0  0  0
    2.1825   -0.0791    0.7744 O   0  0  0  0  0  0  0  0  0  0  0  0
    0.1925    0.2765    1.7545 N   0  0  0  0  0  0  0  0  0  0  0  0
   -0.7872    0.4899    1.5908 H   0  0  0  0  0  0  0  0  0  0  0  0
    0.7401    0.4385    3.0949 C   0  0  0  0  0  0  0  0  0  0  0  0
    1.4434    1.2772    3.1223 H   0  0  0  0  0  0  0  0  0  0  0  0
   -0.0633    0.6352    3.8112 H   0  0  0  0  0  0  0  0  0  0  0  0
    1.2644   -0.4715    3.4054 H   0  0  0  0  0  0  0  0  0  0  0  0
  1  2  1  0  0  0  0
  2  3  1  0  0  0  0
  2  4  1  0  0  0  0
  2  5  1  0  0  0  0
  5  6  2  0  0  0  0
  5  7  1  0  0  0  0
  7  8  1  0  0  0  0
  7  9  1  0  0  0  0
  9 10  1  0  0  0  0
  9 11  1  0  0  0  0
  9 18  1  0  0  0  0
 11 12  1  0  0  0  0
 11 13  1  0  0  0  0
 11 14  1  0  0  0  0
 14 15  2  0  0  0  0
 14 16  1  0  0  0  0
 16 17  1  0  0  0  0
 18 19  2  0  0  0  0
 18 20  1  0  0  0  0
 20 21  1  0  0  0  0
 20 22  1  0  0  0  0
 22 23  1  0  0  0  0
 22 24  1  0  0  0  0
 22 25  1  0  0  0  0
M  END
$$$$

  -OEChem-02102214113D

 25 24  0     1  0  0  0  0  0999 V2000
   -2.5276   -3.6744   -0.4370 H   0  0  0  0  0  0  0  0  0  0  0  0
   -2.5573   -2.6059   -0.6695 C   0  0  0  0  0  0  0  0  0  0  0  0
   -3.1885   -2.1038    0.0673 H   0  0  0  0  0  0  0  0  0  0  0  0
   -2.9914   -2.4748   -1.6635 H   0  0  0  0  0  0  0  0  0  0  0  0
   -1.1558   -2.0257   -0.6346 C   0  0  0  0  0  0  0  0  0  0  0  0
   -0.2063   -2.7468   -0.3842 O   0  0  0  0  0  0  0  0  0  0  0  0
   -0.9613   -0.6834   -0.8975 N   0  0  0  0  0  0  0  0  0  0  0  0
   -1.7942   -0.1161   -1.0272 H   0  0  0  0  0  0  0  0  0  0  0  0
    0.3351    0.0008   -0.7535 C   0  0  1  0  0  0  0  0  0  0  0  0
    1.0459   -0.5761   -1.3581 H   0  0  0  0  0  0  0  0  0  0  0  0
    0.2375    1.3931   -1.4219 C   0  0  0  0  0  0  0  0  0  0  0  0
    1.1514    1.5482   -2.0031 H   0  0  0  0  0  0  0  0  0  0  0  0
   -0.5971    1.4306   -2.1263 H   0  0  0  0  0  0  0  0  0  0  0  0
    0.1233    2.5616   -0.4503 C   0  0  0  0  0  0  0  0  0  0  0  0
   -0.8338    2.5801    0.3087 O   0  0  0  0  0  0  0  0  0  0  0  0
    1.0710    3.5254   -0.4907 O   0  0  0  0  0  0  0  0  0  0  0  0
    0.8495    4.1602    0.2072 H   0  0  0  0  0  0  0  0  0  0  0  0
    0.9521   -0.0203    0.6677 C   0  0  0  0  0  0  0  0  0  0  0  0
    2.1670   -0.0865    0.7910 O   0  0  0  0  0  0  0  0  0  0  0  0
    0.1805    0.2442    1.7849 N   0  0  0  0  0  0  0  0  0  0  0  0
   -0.7754    0.5434    1.6126 H   0  0  0  0  0  0  0  0  0  0  0  0
    0.7453    0.4341    3.1148 C   0  0  0  0  0  0  0  0  0  0  0  0
    1.4033    1.3091    3.1305 H   0  0  0  0  0  0  0  0  0  0  0  0
   -0.0536    0.5859    3.8469 H   0  0  0  0  0  0  0  0  0  0  0  0
    1.3233   -0.4466    3.4142 H   0  0  0  0  0  0  0  0  0  0  0  0
  1  2  1  0  0  0  0
  2  3  1  0  0  0  0
  2  4  1  0  0  0  0
  2  5  1  0  0  0  0
  5  6  2  0  0  0  0
  5  7  1  0  0  0  0
  7  8  1  0  0  0  0
  7  9  1  0  0  0  0
  9 10  1  0  0  0  0
  9 11  1  0  0  0  0
  9 18  1  0  0  0  0
 11 12  1  0  0  0  0
 11 13  1  0  0  0  0
 11 14  1  0  0  0  0
 14 15  2  0  0  0  0
 14 16  1  0  0  0  0
 16 17  1  0  0  0  0
 18 19  2  0  0  0  0
 18 20  1  0  0  0  0
 20 21  1  0  0  0  0
 20 22  1  0  0  0  0
 22 23  1  0  0  0  0
 22 24  1  0  0  0  0
 22 25  1  0  0  0  0
M  END
$$$$

  -OEChem-02102214113D

 25 24  0     1  0  0  0  0  0999 V2000
   -2.5185   -3.6917   -0.4929 H   0  0  0  0  0  0  0  0  0  0  0  0
   -2.5575   -2.6179   -0.6976 C   0  0  0  0  0  0  0  0  0  0  0  0
   -3.1937   -2.1406    0.0514 H   0  0  0  0  0  0  0  0  0  0  0  0
   -2.9918   -2.4646   -1.6883 H   0  0  0  0  0  0  0  0  0  0  0  0
   -1.1612   -2.0265   -0.6467 C   0  0  0  0  0  0  0  0  0  0  0  0
   -0.2068   -2.7449   -0.4076 O   0  0  0  0  0  0  0  0  0  0  0  0
   -0.9780   -0.6770   -0.8799 N   0  0  0  0  0  0  0  0  0  0  0  0
   -1.8160   -0.1145   -0.9954 H   0  0  0  0  0  0  0  0  0  0  0  0
    0.3118    0.0153   -0.7171 C   0  0  1  0  0  0  0  0  0  0  0  0
    1.0231   -0.5669   -1.3160 H   0  0  0  0  0  0  0  0  0  0  0  0
    0.2422    1.3994   -1.4090 C   0  0  0  0  0  0  0  0  0  0  0  0
    1.1758    1.5324   -1.9637 H   0  0  0  0  0  0  0  0  0  0  0  0
   -0.5679    1.4219   -2.1420 H   0  0  0  0  0  0  0  0  0  0  0  0
    0.1051    2.6097   -0.4898 C   0  0  0  0  0  0  0  0  0  0  0  0
   -0.6990    2.5630    0.4280 O   0  0  0  0  0  0  0  0  0  0  0  0
    0.8693    3.6922   -0.7612 O   0  0  0  0  0  0  0  0  0  0  0  0
    0.6713    4.3469   -0.0743 H   0  0  0  0  0  0  0  0  0  0  0  0
    0.9373   -0.0227    0.7006 C   0  0  0  0  0  0  0  0  0  0  0  0
    2.1546   -0.0771    0.8099 O   0  0  0  0  0  0  0  0  0  0  0  0
    0.1760    0.2124    1.8312 N   0  0  0  0  0  0  0  0  0  0  0  0
   -0.7704    0.5448    1.6685 H   0  0  0  0  0  0  0  0  0  0  0  0
    0.7596    0.3969    3.1538 C   0  0  0  0  0  0  0  0  0  0  0  0
    1.3804    1.2985    3.1758 H   0  0  0  0  0  0  0  0  0  0  0  0
   -0.0296    0.4982    3.9048 H   0  0  0  0  0  0  0  0  0  0  0  0
    1.3799   -0.4649    3.4221 H   0  0  0  0  0  0  0  0  0  0  0  0
  1  2  1  0  0  0  0
  2  3  1  0  0  0  0
  2  4  1  0  0  0  0
  2  5  1  0  0  0  0
  5  6  2  0  0  0  0
  5  7  1  0  0  0  0
  7  8  1  0  0  0  0
  7  9  1  0  0  0  0
  9 10  1  0  0  0  0
  9 11  1  0  0  0  0
  9 18  1  0  0  0  0
 11 12  1  0  0  0  0
 11 13  1  0  0  0  0
 11 14  1  0  0  0  0
 14 15  2  0  0  0  0
 14 16  1  0  0  0  0
 16 17  1  0  0  0  0
 18 19  2  0  0  0  0
 18 20  1  0  0  0  0
 20 21  1  0  0  0  0
 20 22  1  0  0  0  0
 22 23  1  0  0  0  0
 22 24  1  0  0  0  0
 22 25  1  0  0  0  0
M  END
$$$$

  -OEChem-02102214113D

 25 24  0     1  0  0  0  0  0999 V2000
   -2.5020   -3.7010   -0.5294 H   0  0  0  0  0  0  0  0  0  0  0  0
   -2.5508   -2.6247   -0.7183 C   0  0  0  0  0  0  0  0  0  0  0  0
   -3.1930   -2.1646    0.0364 H   0  0  0  0  0  0  0  0  0  0  0  0
   -2.9850   -2.4610   -1.7075 H   0  0  0  0  0  0  0  0  0  0  0  0
   -1.1600   -2.0217   -0.6564 C   0  0  0  0  0  0  0  0  0  0  0  0
   -0.1983   -2.7371   -0.4387 O   0  0  0  0  0  0  0  0  0  0  0  0
   -0.9904   -0.6656   -0.8603 N   0  0  0  0  0  0  0  0  0  0  0  0
   -1.8341   -0.1097   -0.9628 H   0  0  0  0  0  0  0  0  0  0  0  0
    0.2930    0.0357   -0.6844 C   0  0  1  0  0  0  0  0  0  0  0  0
    1.0052   -0.5462   -1.2828 H   0  0  0  0  0  0  0  0  0  0  0  0
    0.2365    1.4142   -1.3924 C   0  0  0  0  0  0  0  0  0  0  0  0
    1.1823    1.5356   -1.9290 H   0  0  0  0  0  0  0  0  0  0  0  0
   -0.5558    1.4183   -2.1451 H   0  0  0  0  0  0  0  0  0  0  0  0
    0.0810    2.6613   -0.5238 C   0  0  0  0  0  0  0  0  0  0  0  0
   -0.5210    2.5962    0.5348 O   0  0  0  0  0  0  0  0  0  0  0  0
    0.6137    3.8067   -1.0073 O   0  0  0  0  0  0  0  0  0  0  0  0
    0.4532    4.4864   -0.3349 H   0  0  0  0  0  0  0  0  0  0  0  0
    0.9270   -0.0234    0.7294 C   0  0  0  0  0  0  0  0  0  0  0  0
    2.1454   -0.0828    0.8279 O   0  0  0  0  0  0  0  0  0  0  0  0
    0.1737    0.1800    1.8717 N   0  0  0  0  0  0  0  0  0  0  0  0
   -0.7673    0.5318    1.7217 H   0  0  0  0  0  0  0  0  0  0  0  0
    0.7705    0.3457    3.1910 C   0  0  0  0  0  0  0  0  0  0  0  0
    1.3840    1.2521    3.2227 H   0  0  0  0  0  0  0  0  0  0  0  0
   -0.0117    0.4269    3.9517 H   0  0  0  0  0  0  0  0  0  0  0  0
    1.4007   -0.5156    3.4372 H   0  0  0  0  0  0  0  0  0  0  0  0
  1  2  1  0  0  0  0
  2  3  1  0  0  0  0
  2  4  1  0  0  0  0
  2  5  1  0  0  0  0
  5  6  2  0  0  0  0
  5  7  1  0  0  0  0
  7  8  1  0  0  0  0
  7  9  1  0  0  0  0
  9 10  1  0  0  0  0
  9 11  1  0  0  0  0
  9 18  1  0  0  0  0
 11 12  1  0  0  0  0
 11 13  1  0  0  0  0
 11 14  1  0  0  0  0
 14 15  2  0  0  0  0
 14 16  1  0  0  0  0
 16 17  1  0  0  0  0
 18 19  2  0  0  0  0
 18 20  1  0  0  0  0
 20 21  1  0  0  0  0
 20 22  1  0  0  0  0
 22 23  1  0  0  0  0
 22 24  1  0  0  0  0
 22 25  1  0  0  0  0
M  END
$$$$

  -OEChem-02102214113D

 25 24  0     1  0  0  0  0  0999 V2000
   -2.4908   -3.7034   -0.5489 H   0  0  0  0  0  0  0  0  0  0  0  0
   -2.5461   -2.6260   -0.7295 C   0  0  0  0  0  0  0  0  0  0  0  0
   -3.1930   -2.1763    0.0274 H   0  0  0  0  0  0  0  0  0  0  0  0
   -2.9788   -2.4574   -1.7184 H   0  0  0  0  0  0  0  0  0  0  0  0
   -1.1595   -2.0143   -0.6589 C   0  0  0  0  0  0  0  0  0  0  0  0
   -0.1935   -2.7263   -0.4500 O   0  0  0  0  0  0  0  0  0  0  0  0
   -0.9989   -0.6536   -0.8398 N   0  0  0  0  0  0  0  0  0  0  0  0
   -1.8458   -0.1032   -0.9451 H   0  0  0  0  0  0  0  0  0  0  0  0
    0.2814    0.0538   -0.6610 C   0  0  1  0  0  0  0  0  0  0  0  0
    0.9917   -0.5243   -1.2654 H   0  0  0  0  0  0  0  0  0  0  0  0
    0.2249    1.4321   -1.3735 C   0  0  0  0  0  0  0  0  0  0  0  0
    1.1742    1.5497   -1.9045 H   0  0  0  0  0  0  0  0  0  0  0  0
   -0.5605    1.4224   -2.1332 H   0  0  0  0  0  0  0  0  0  0  0  0
    0.0626    2.7044   -0.5405 C   0  0  0  0  0  0  0  0  0  0  0  0
   -0.2939    2.6548    0.6231 O   0  0  0  0  0  0  0  0  0  0  0  0
    0.3135    3.8652   -1.1877 O   0  0  0  0  0  0  0  0  0  0  0  0
    0.1927    4.5704   -0.5332 H   0  0  0  0  0  0  0  0  0  0  0  0
    0.9246   -0.0269    0.7472 C   0  0  0  0  0  0  0  0  0  0  0  0
    2.1437   -0.0920    0.8365 O   0  0  0  0  0  0  0  0  0  0  0  0
    0.1769    0.1502    1.8977 N   0  0  0  0  0  0  0  0  0  0  0  0
   -0.7662    0.4998    1.7618 H   0  0  0  0  0  0  0  0  0  0  0  0
    0.7841    0.2960    3.2143 C   0  0  0  0  0  0  0  0  0  0  0  0
    1.4017    1.1995    3.2522 H   0  0  0  0  0  0  0  0  0  0  0  0
    0.0088    0.3707    3.9826 H   0  0  0  0  0  0  0  0  0  0  0  0
    1.4125   -0.5712    3.4438 H   0  0  0  0  0  0  0  0  0  0  0  0
  1  2  1  0  0  0  0
  2  3  1  0  0  0  0
  2  4  1  0  0  0  0
  2  5  1  0  0  0  0
  5  6  2  0  0  0  0
  5  7  1  0  0  0  0
  7  8  1  0  0  0  0
  7  9  1  0  0  0  0
  9 10  1  0  0  0  0
  9 11  1  0  0  0  0
  9 18  1  0  0  0  0
 11 12  1  0  0  0  0
 11 13  1  0  0  0  0
 11 14  1  0  0  0  0
 14 15  2  0  0  0  0
 14 16  1  0  0  0  0
 16 17  1  0  0  0  0
 18 19  2  0  0  0  0
 18 20  1  0  0  0  0
 20 21  1  0  0  0  0
 20 22  1  0  0  0  0
 22 23  1  0  0  0  0
 22 24  1  0  0  0  0
 22 25  1  0  0  0  0
M  END
$$$$

  -OEChem-02102214113D

 25 24  0     1  0  0  0  0  0999 V2000
   -2.4987   -3.7029   -0.5894 H   0  0  0  0  0  0  0  0  0  0  0  0
   -2.5529   -2.6215   -0.7447 C   0  0  0  0  0  0  0  0  0  0  0  0
   -3.2090   -2.1905    0.0153 H   0  0  0  0  0  0  0  0  0  0  0  0
   -2.9747   -2.4295   -1.7341 H   0  0  0  0  0  0  0  0  0  0  0  0
   -1.1678   -2.0103   -0.6438 C   0  0  0  0  0  0  0  0  0  0  0  0
   -0.2058   -2.7238   -0.4224 O   0  0  0  0  0  0  0  0  0  0  0  0
   -1.0046   -0.6485   -0.8155 N   0  0  0  0  0  0  0  0  0  0  0  0
   -1.8468   -0.0994   -0.9572 H   0  0  0  0  0  0  0  0  0  0  0  0
    0.2779    0.0579   -0.6464 C   0  0  1  0  0  0  0  0  0  0  0  0
    0.9827   -0.5166   -1.2607 H   0  0  0  0  0  0  0  0  0  0  0  0
    0.2088    1.4389   -1.3562 C   0  0  0  0  0  0  0  0  0  0  0  0
    1.1496    1.5583   -1.9013 H   0  0  0  0  0  0  0  0  0  0  0  0
   -0.5867    1.4217   -2.1055 H   0  0  0  0  0  0  0  0  0  0  0  0
    0.0528    2.7237   -0.5388 C   0  0  0  0  0  0  0  0  0  0  0  0
   -0.0240    2.7112    0.6753 O   0  0  0  0  0  0  0  0  0  0  0  0
   -0.0060    3.8614   -1.2679 O   0  0  0  0  0  0  0  0  0  0  0  0
   -0.0729    4.5871   -0.6281 H   0  0  0  0  0  0  0  0  0  0  0  0
    0.9320   -0.0371    0.7559 C   0  0  0  0  0  0  0  0  0  0  0  0
    2.1516   -0.1071    0.8353 O   0  0  0  0  0  0  0  0  0  0  0  0
    0.1904    0.1301    1.9123 N   0  0  0  0  0  0  0  0  0  0  0  0
   -0.7634    0.4512    1.7870 H   0  0  0  0  0  0  0  0  0  0  0  0
    0.8046    0.2796    3.2255 C   0  0  0  0  0  0  0  0  0  0  0  0
    1.3861    1.2065    3.2713 H   0  0  0  0  0  0  0  0  0  0  0  0
    0.0343    0.3118    4.0018 H   0  0  0  0  0  0  0  0  0  0  0  0
    1.4694   -0.5647    3.4369 H   0  0  0  0  0  0  0  0  0  0  0  0
  1  2  1  0  0  0  0
  2  3  1  0  0  0  0
  2  4  1  0  0  0  0
  2  5  1  0  0  0  0
  5  6  2  0  0  0  0
  5  7  1  0  0  0  0
  7  8  1  0  0  0  0
  7  9  1  0  0  0  0
  9 10  1  0  0  0  0
  9 11  1  0  0  0  0
  9 18  1  0  0  0  0
 11 12  1  0  0  0  0
 11 13  1  0  0  0  0
 11 14  1  0  0  0  0
 14 15  2  0  0  0  0
 14 16  1  0  0  0  0
 16 17  1  0  0  0  0
 18 19  2  0  0  0  0
 18 20  1  0  0  0  0
 20 21  1  0  0  0  0
 20 22  1  0  0  0  0
 22 23  1  0  0  0  0
 22 24  1  0  0  0  0
 22 25  1  0  0  0  0
M  END
$$$$

  -OEChem-02102214113D

 25 24  0     1  0  0  0  0  0999 V2000
   -2.5011   -3.6945   -0.5697 H   0  0  0  0  0  0  0  0  0  0  0  0
   -2.5516   -2.6147   -0.7370 C   0  0  0  0  0  0  0  0  0  0  0  0
   -3.2172   -2.1748    0.0094 H   0  0  0  0  0  0  0  0  0  0  0  0
   -2.9595   -2.4324   -1.7342 H   0  0  0  0  0  0  0  0  0  0  0  0
   -1.1672   -2.0048   -0.6229 C   0  0  0  0  0  0  0  0  0  0  0  0
   -0.2089   -2.7182   -0.3866 O   0  0  0  0  0  0  0  0  0  0  0  0
   -0.9999   -0.6447   -0.8032 N   0  0  0  0  0  0  0  0  0  0  0  0
   -1.8370   -0.0972   -0.9778 H   0  0  0  0  0  0  0  0  0  0  0  0
    0.2866    0.0593   -0.6503 C   0  0  1  0  0  0  0  0  0  0  0  0
    0.9877   -0.5111   -1.2725 H   0  0  0  0  0  0  0  0  0  0  0  0
    0.1939    1.4438   -1.3529 C   0  0  0  0  0  0  0  0  0  0  0  0
    1.1211    1.5716   -1.9188 H   0  0  0  0  0  0  0  0  0  0  0  0
   -0.6166    1.4209   -2.0860 H   0  0  0  0  0  0  0  0  0  0  0  0
    0.0471    2.7290   -0.5327 C   0  0  0  0  0  0  0  0  0  0  0  0
    0.2604    2.7660    0.6637 O   0  0  0  0  0  0  0  0  0  0  0  0
   -0.3453    3.8121   -1.2414 O   0  0  0  0  0  0  0  0  0  0  0  0
   -0.3649    4.5499   -0.6121 H   0  0  0  0  0  0  0  0  0  0  0  0
    0.9433   -0.0374    0.7502 C   0  0  0  0  0  0  0  0  0  0  0  0
    2.1614   -0.1295    0.8291 O   0  0  0  0  0  0  0  0  0  0  0  0
    0.2022    0.1360    1.9062 N   0  0  0  0  0  0  0  0  0  0  0  0
   -0.7626    0.4229    1.7871 H   0  0  0  0  0  0  0  0  0  0  0  0
    0.8137    0.2667    3.2226 C   0  0  0  0  0  0  0  0  0  0  0  0
    1.4237    1.1748    3.2714 H   0  0  0  0  0  0  0  0  0  0  0  0
    0.0412    0.3238    3.9950 H   0  0  0  0  0  0  0  0  0  0  0  0
    1.4512   -0.5977    3.4372 H   0  0  0  0  0  0  0  0  0  0  0  0
  1  2  1  0  0  0  0
  2  3  1  0  0  0  0
  2  4  1  0  0  0  0
  2  5  1  0  0  0  0
  5  6  2  0  0  0  0
  5  7  1  0  0  0  0
  7  8  1  0  0  0  0
  7  9  1  0  0  0  0
  9 10  1  0  0  0  0
  9 11  1  0  0  0  0
  9 18  1  0  0  0  0
 11 12  1  0  0  0  0
 11 13  1  0  0  0  0
 11 14  1  0  0  0  0
 14 15  2  0  0  0  0
 14 16  1  0  0  0  0
 16 17  1  0  0  0  0
 18 19  2  0  0  0  0
 18 20  1  0  0  0  0
 20 21  1  0  0  0  0
 20 22  1  0  0  0  0
 22 23  1  0  0  0  0
 22 24  1  0  0  0  0
 22 25  1  0  0  0  0
M  END
$$$$

  -OEChem-02102214113D

 25 24  0     1  0  0  0  0  0999 V2000
   -2.5047   -3.6866   -0.5243 H   0  0  0  0  0  0  0  0  0  0  0  0
   -2.5484   -2.6107   -0.7174 C   0  0  0  0  0  0  0  0  0  0  0  0
   -3.2198   -2.1498    0.0109 H   0  0  0  0  0  0  0  0  0  0  0  0
   -2.9443   -2.4503   -1.7231 H   0  0  0  0  0  0  0  0  0  0  0  0
   -1.1623   -2.0045   -0.6032 C   0  0  0  0  0  0  0  0  0  0  0  0
   -0.2089   -2.7181   -0.3495 O   0  0  0  0  0  0  0  0  0  0  0  0
   -0.9879   -0.6483   -0.8049 N   0  0  0  0  0  0  0  0  0  0  0  0
   -1.8192   -0.1029   -1.0109 H   0  0  0  0  0  0  0  0  0  0  0  0
    0.3036    0.0515   -0.6714 C   0  0  1  0  0  0  0  0  0  0  0  0
    1.0026   -0.5136   -1.3005 H   0  0  0  0  0  0  0  0  0  0  0  0
    0.1829    1.4425   -1.3574 C   0  0  0  0  0  0  0  0  0  0  0  0
    1.0936    1.5848   -1.9459 H   0  0  0  0  0  0  0  0  0  0  0  0
   -0.6458    1.4224   -2.0700 H   0  0  0  0  0  0  0  0  0  0  0  0
    0.0510    2.7132   -0.5116 C   0  0  0  0  0  0  0  0  0  0  0  0
    0.5432    2.8071    0.5959 O   0  0  0  0  0  0  0  0  0  0  0  0
   -0.6578    3.7120   -1.0861 O   0  0  0  0  0  0  0  0  0  0  0  0
   -0.6300    4.4514   -0.4587 H   0  0  0  0  0  0  0  0  0  0  0  0
    0.9569   -0.0360    0.7304 C   0  0  0  0  0  0  0  0  0  0  0  0
    2.1724   -0.1497    0.8172 O   0  0  0  0  0  0  0  0  0  0  0  0
    0.2091    0.1570    1.8788 N   0  0  0  0  0  0  0  0  0  0  0  0
   -0.7678    0.3961    1.7569 H   0  0  0  0  0  0  0  0  0  0  0  0
    0.8074    0.2822    3.2013 C   0  0  0  0  0  0  0  0  0  0  0  0
    1.4634    1.1582    3.2417 H   0  0  0  0  0  0  0  0  0  0  0  0
    0.0282    0.3962    3.9607 H   0  0  0  0  0  0  0  0  0  0  0  0
    1.3953   -0.6100    3.4415 H   0  0  0  0  0  0  0  0  0  0  0  0
  1  2  1  0  0  0  0
  2  3  1  0  0  0  0
  2  4  1  0  0  0  0
  2  5  1  0  0  0  0
  5  6  2  0  0  0  0
  5  7  1  0  0  0  0
  7  8  1  0  0  0  0
  7  9  1  0  0  0  0
  9 10  1  0  0  0  0
  9 11  1  0  0  0  0
  9 18  1  0  0  0  0
 11 12  1  0  0  0  0
 11 13  1  0  0  0  0
 11 14  1  0  0  0  0
 14 15  2  0  0  0  0
 14 16  1  0  0  0  0
 16 17  1  0  0  0  0
 18 19  2  0  0  0  0
 18 20  1  0  0  0  0
 20 21  1  0  0  0  0
 20 22  1  0  0  0  0
 22 23  1  0  0  0  0
 22 24  1  0  0  0  0
 22 25  1  0  0  0  0
M  END
$$$$

  -OEChem-02102214113D

 25 24  0     1  0  0  0  0  0999 V2000
   -2.5034   -3.6791   -0.4833 H   0  0  0  0  0  0  0  0  0  0  0  0
   -2.5424   -2.6077   -0.7005 C   0  0  0  0  0  0  0  0  0  0  0  0
   -3.2304   -2.1320    0.0023 H   0  0  0  0  0  0  0  0  0  0  0  0
   -2.9152   -2.4692   -1.7182 H   0  0  0  0  0  0  0  0  0  0  0  0
   -1.1590   -1.9990   -0.5670 C   0  0  0  0  0  0  0  0  0  0  0  0
   -0.2154   -2.7044   -0.2599 O   0  0  0  0  0  0  0  0  0  0  0  0
   -0.9766   -0.6500   -0.8063 N   0  0  0  0  0  0  0  0  0  0  0  0
   -1.7960   -0.1155   -1.0791 H   0  0  0  0  0  0  0  0  0  0  0  0
    0.3190    0.0469   -0.6965 C   0  0  1  0  0  0  0  0  0  0  0  0
    1.0176   -0.5188   -1.3255 H   0  0  0  0  0  0  0  0  0  0  0  0
    0.1724    1.4370   -1.3762 C   0  0  0  0  0  0  0  0  0  0  0  0
    1.0681    1.5915   -1.9845 H   0  0  0  0  0  0  0  0  0  0  0  0
   -0.6730    1.4209   -2.0694 H   0  0  0  0  0  0  0  0  0  0  0  0
    0.0563    2.6871   -0.5001 C   0  0  0  0  0  0  0  0  0  0  0  0
    0.7871    2.8632    0.4559 O   0  0  0  0  0  0  0  0  0  0  0  0
   -0.9186    3.5570   -0.8515 O   0  0  0  0  0  0  0  0  0  0  0  0
   -0.8495    4.2957   -0.2263 H   0  0  0  0  0  0  0  0  0  0  0  0
    0.9694   -0.0102    0.7079 C   0  0  0  0  0  0  0  0  0  0  0  0
    2.1825   -0.1394    0.8032 O   0  0  0  0  0  0  0  0  0  0  0  0
    0.2177    0.2169    1.8476 N   0  0  0  0  0  0  0  0  0  0  0  0
   -0.7763    0.3723    1.7285 H   0  0  0  0  0  0  0  0  0  0  0  0
    0.7984    0.2980    3.1814 C   0  0  0  0  0  0  0  0  0  0  0  0
    1.5136    1.1257    3.2360 H   0  0  0  0  0  0  0  0  0  0  0  0
    0.0157    0.4664    3.9271 H   0  0  0  0  0  0  0  0  0  0  0  0
    1.3174   -0.6339    3.4292 H   0  0  0  0  0  0  0  0  0  0  0  0
  1  2  1  0  0  0  0
  2  3  1  0  0  0  0
  2  4  1  0  0  0  0
  2  5  1  0  0  0  0
  5  6  2  0  0  0  0
  5  7  1  0  0  0  0
  7  8  1  0  0  0  0
  7  9  1  0  0  0  0
  9 10  1  0  0  0  0
  9 11  1  0  0  0  0
  9 18  1  0  0  0  0
 11 12  1  0  0  0  0
 11 13  1  0  0  0  0
 11 14  1  0  0  0  0
 14 15  2  0  0  0  0
 14 16  1  0  0  0  0
 16 17  1  0  0  0  0
 18 19  2  0  0  0  0
 18 20  1  0  0  0  0
 20 21  1  0  0  0  0
 20 22  1  0  0  0  0
 22 23  1  0  0  0  0
 22 24  1  0  0  0  0
 22 25  1  0  0  0  0
M  END
$$$$

  -OEChem-02102214113D

 25 24  0     1  0  0  0  0  0999 V2000
   -2.4954   -3.6701   -0.4265 H   0  0  0  0  0  0  0  0  0  0  0  0
   -2.5306   -2.6044   -0.6709 C   0  0  0  0  0  0  0  0  0  0  0  0
   -3.2209   -2.1090    0.0159 H   0  0  0  0  0  0  0  0  0  0  0  0
   -2.8980   -2.4904   -1.6936 H   0  0  0  0  0  0  0  0  0  0  0  0
   -1.1464   -1.9959   -0.5456 C   0  0  0  0  0  0  0  0  0  0  0  0
   -0.2078   -2.6926   -0.2053 O   0  0  0  0  0  0  0  0  0  0  0  0
   -0.9591   -0.6549   -0.8224 N   0  0  0  0  0  0  0  0  0  0  0  0
   -1.7749   -0.1275   -1.1197 H   0  0  0  0  0  0  0  0  0  0  0  0
    0.3377    0.0426   -0.7302 C   0  0  1  0  0  0  0  0  0  0  0  0
    1.0405   -0.5217   -1.3554 H   0  0  0  0  0  0  0  0  0  0  0  0
    0.1690    1.4324   -1.4007 C   0  0  0  0  0  0  0  0  0  0  0  0
    1.0508    1.6022   -2.0253 H   0  0  0  0  0  0  0  0  0  0  0  0
   -0.6920    1.4263   -2.0743 H   0  0  0  0  0  0  0  0  0  0  0  0
    0.0666    2.6497   -0.4820 C   0  0  0  0  0  0  0  0  0  0  0  0
    0.9738    2.9289    0.2792 O   0  0  0  0  0  0  0  0  0  0  0  0
   -1.0895    3.3497   -0.5446 O   0  0  0  0  0  0  0  0  0  0  0  0
   -0.9859    4.0805    0.0854 H   0  0  0  0  0  0  0  0  0  0  0  0
    0.9779    0.0191    0.6792 C   0  0  0  0  0  0  0  0  0  0  0  0
    2.1892   -0.1094    0.7914 O   0  0  0  0  0  0  0  0  0  0  0  0
    0.2120    0.2789    1.8021 N   0  0  0  0  0  0  0  0  0  0  0  0
   -0.7917    0.3390    1.6759 H   0  0  0  0  0  0  0  0  0  0  0  0
    0.7657    0.3242    3.1489 C   0  0  0  0  0  0  0  0  0  0  0  0
    1.5395    1.0964    3.2176 H   0  0  0  0  0  0  0  0  0  0  0  0
   -0.0195    0.5568    3.8744 H   0  0  0  0  0  0  0  0  0  0  0  0
    1.2073   -0.6425    3.4127 H   0  0  0  0  0  0  0  0  0  0  0  0
  1  2  1  0  0  0  0
  2  3  1  0  0  0  0
  2  4  1  0  0  0  0
  2  5  1  0  0  0  0
  5  6  2  0  0  0  0
  5  7  1  0  0  0  0
  7  8  1  0  0  0  0
  7  9  1  0  0  0  0
  9 10  1  0  0  0  0
  9 11  1  0  0  0  0
  9 18  1  0  0  0  0
 11 12  1  0  0  0  0
 11 13  1  0  0  0  0
 11 14  1  0  0  0  0
 14 15  2  0  0  0  0
 14 16  1  0  0  0  0
 16 17  1  0  0  0  0
 18 19  2  0  0  0  0
 18 20  1  0  0  0  0
 20 21  1  0  0  0  0
 20 22  1  0  0  0  0
 22 23  1  0  0  0  0
 22 24  1  0  0  0  0
 22 25  1  0  0  0  0
M  END
$$$$

  -OEChem-02102214113D

 25 24  0     1  0  0  0  0  0999 V2000
   -2.4889   -3.6721   -0.4035 H   0  0  0  0  0  0  0  0  0  0  0  0
   -2.5248   -2.6091   -0.6591 C   0  0  0  0  0  0  0  0  0  0  0  0
   -3.2150   -2.1065    0.0226 H   0  0  0  0  0  0  0  0  0  0  0  0
   -2.8931   -2.5072   -1.6826 H   0  0  0  0  0  0  0  0  0  0  0  0
   -1.1410   -1.9983   -0.5418 C   0  0  0  0  0  0  0  0  0  0  0  0
   -0.2030   -2.6879   -0.1856 O   0  0  0  0  0  0  0  0  0  0  0  0
   -0.9525   -0.6623   -0.8411 N   0  0  0  0  0  0  0  0  0  0  0  0
   -1.7685   -0.1369   -1.1420 H   0  0  0  0  0  0  0  0  0  0  0  0
    0.3436    0.0364   -0.7541 C   0  0  1  0  0  0  0  0  0  0  0  0
    1.0506   -0.5266   -1.3757 H   0  0  0  0  0  0  0  0  0  0  0  0
    0.1693    1.4266   -1.4163 C   0  0  0  0  0  0  0  0  0  0  0  0
    1.0441    1.6065   -2.0482 H   0  0  0  0  0  0  0  0  0  0  0  0
   -0.7011    1.4344   -2.0773 H   0  0  0  0  0  0  0  0  0  0  0  0
    0.0761    2.6090   -0.4565 C   0  0  0  0  0  0  0  0  0  0  0  0
    1.0790    3.0193    0.0976 O   0  0  0  0  0  0  0  0  0  0  0  0
   -1.1597    3.1116   -0.2290 O   0  0  0  0  0  0  0  0  0  0  0  0
   -1.0308    3.8399    0.3995 H   0  0  0  0  0  0  0  0  0  0  0  0
    0.9766    0.0379    0.6591 C   0  0  0  0  0  0  0  0  0  0  0  0
    2.1876   -0.0794    0.7817 O   0  0  0  0  0  0  0  0  0  0  0  0
    0.2026    0.3181    1.7718 N   0  0  0  0  0  0  0  0  0  0  0  0
   -0.8021    0.3513    1.6385 H   0  0  0  0  0  0  0  0  0  0  0  0
    0.7427    0.3587    3.1244 C   0  0  0  0  0  0  0  0  0  0  0  0
    1.5325    1.1139    3.1982 H   0  0  0  0  0  0  0  0  0  0  0  0
   -0.0448    0.6126    3.8402 H   0  0  0  0  0  0  0  0  0  0  0  0
    1.1604   -0.6158    3.3984 H   0  0  0  0  0  0  0  0  0  0  0  0
  1  2  1  0  0  0  0
  2  3  1  0  0  0  0
  2  4  1  0  0  0  0
  2  5  1  0  0  0  0
  5  6  2  0  0  0  0
  5  7  1  0  0  0  0
  7  8  1  0  0  0  0
  7  9  1  0  0  0  0
  9 10  1  0  0  0  0
  9 11  1  0  0  0  0
  9 18  1  0  0  0  0
 11 12  1  0  0  0  0
 11 13  1  0  0  0  0
 11 14  1  0  0  0  0
 14 15  2  0  0  0  0
 14 16  1  0  0  0  0
 16 17  1  0  0  0  0
 18 19  2  0  0  0  0
 18 20  1  0  0  0  0
 20 21  1  0  0  0  0
 20 22  1  0  0  0  0
 22 23  1  0  0  0  0
 22 24  1  0  0  0  0
 22 25  1  0  0  0  0
M  END
$$$$

  -OEChem-02102214113D

 25 24  0     1  0  0  0  0  0999 V2000
   -2.4862   -3.6790   -0.4099 H   0  0  0  0  0  0  0  0  0  0  0  0
   -2.5246   -2.6149   -0.6608 C   0  0  0  0  0  0  0  0  0  0  0  0
   -3.2132   -2.1161    0.0251 H   0  0  0  0  0  0  0  0  0  0  0  0
   -2.8963   -2.5094   -1.6828 H   0  0  0  0  0  0  0  0  0  0  0  0
   -1.1413   -2.0028   -0.5452 C   0  0  0  0  0  0  0  0  0  0  0  0
   -0.2029   -2.6897   -0.1844 O   0  0  0  0  0  0  0  0  0  0  0  0
   -0.9535   -0.6687   -0.8512 N   0  0  0  0  0  0  0  0  0  0  0  0
   -1.7728   -0.1409   -1.1387 H   0  0  0  0  0  0  0  0  0  0  0  0
    0.3407    0.0319   -0.7612 C   0  0  1  0  0  0  0  0  0  0  0  0
    1.0501   -0.5327   -1.3785 H   0  0  0  0  0  0  0  0  0  0  0  0
    0.1722    1.4214   -1.4219 C   0  0  0  0  0  0  0  0  0  0  0  0
    1.0481    1.6032   -2.0521 H   0  0  0  0  0  0  0  0  0  0  0  0
   -0.7000    1.4391   -2.0799 H   0  0  0  0  0  0  0  0  0  0  0  0
    0.0802    2.5822   -0.4385 C   0  0  0  0  0  0  0  0  0  0  0  0
    1.0976    3.1508   -0.0879 O   0  0  0  0  0  0  0  0  0  0  0  0
   -1.1508    2.8905    0.0335 O   0  0  0  0  0  0  0  0  0  0  0  0
   -1.0128    3.6323    0.6443 H   0  0  0  0  0  0  0  0  0  0  0  0
    0.9718    0.0458    0.6527 C   0  0  0  0  0  0  0  0  0  0  0  0
    2.1843   -0.0494    0.7756 O   0  0  0  0  0  0  0  0  0  0  0  0
    0.1978    0.3326    1.7633 N   0  0  0  0  0  0  0  0  0  0  0  0
   -0.8071    0.3671    1.6284 H   0  0  0  0  0  0  0  0  0  0  0  0
    0.7371    0.3762    3.1163 C   0  0  0  0  0  0  0  0  0  0  0  0
    1.5177    1.1406    3.1927 H   0  0  0  0  0  0  0  0  0  0  0  0
   -0.0537    0.6175    3.8329 H   0  0  0  0  0  0  0  0  0  0  0  0
    1.1668   -0.5942    3.3870 H   0  0  0  0  0  0  0  0  0  0  0  0
  1  2  1  0  0  0  0
  2  3  1  0  0  0  0
  2  4  1  0  0  0  0
  2  5  1  0  0  0  0
  5  6  2  0  0  0  0
  5  7  1  0  0  0  0
  7  8  1  0  0  0  0
  7  9  1  0  0  0  0
  9 10  1  0  0  0  0
  9 11  1  0  0  0  0
  9 18  1  0  0  0  0
 11 12  1  0  0  0  0
 11 13  1  0  0  0  0
 11 14  1  0  0  0  0
 14 15  2  0  0  0  0
 14 16  1  0  0  0  0
 16 17  1  0  0  0  0
 18 19  2  0  0  0  0
 18 20  1  0  0  0  0
 20 21  1  0  0  0  0
 20 22  1  0  0  0  0
 22 23  1  0  0  0  0
 22 24  1  0  0  0  0
 22 25  1  0  0  0  0
M  END
$$$$

  -OEChem-02102214113D

 25 24  0     1  0  0  0  0  0999 V2000
   -2.4849   -3.6859   -0.4129 H   0  0  0  0  0  0  0  0  0  0  0  0
   -2.5251   -2.6212   -0.6602 C   0  0  0  0  0  0  0  0  0  0  0  0
   -3.2007   -2.1230    0.0390 H   0  0  0  0  0  0  0  0  0  0  0  0
   -2.9136   -2.5111   -1.6754 H   0  0  0  0  0  0  0  0  0  0  0  0
   -1.1390   -2.0121   -0.5663 C   0  0  0  0  0  0  0  0  0  0  0  0
   -0.1939   -2.7034   -0.2320 O   0  0  0  0  0  0  0  0  0  0  0  0
   -0.9555   -0.6749   -0.8609 N   0  0  0  0  0  0  0  0  0  0  0  0
   -1.7819   -0.1379   -1.1078 H   0  0  0  0  0  0  0  0  0  0  0  0
    0.3369    0.0266   -0.7608 C   0  0  1  0  0  0  0  0  0  0  0  0
    1.0472   -0.5364   -1.3787 H   0  0  0  0  0  0  0  0  0  0  0  0
    0.1812    1.4195   -1.4160 C   0  0  0  0  0  0  0  0  0  0  0  0
    1.0614    1.5985   -2.0413 H   0  0  0  0  0  0  0  0  0  0  0  0
   -0.6892    1.4462   -2.0761 H   0  0  0  0  0  0  0  0  0  0  0  0
    0.0863    2.5702   -0.4213 C   0  0  0  0  0  0  0  0  0  0  0  0
    1.0469    3.3016   -0.2645 O   0  0  0  0  0  0  0  0  0  0  0  0
   -1.0860    2.7190    0.2414 O   0  0  0  0  0  0  0  0  0  0  0  0
   -0.9572    3.4901    0.8171 H   0  0  0  0  0  0  0  0  0  0  0  0
    0.9680    0.0325    0.6536 C   0  0  0  0  0  0  0  0  0  0  0  0
    2.1821   -0.0417    0.7742 O   0  0  0  0  0  0  0  0  0  0  0  0
    0.1964    0.3094    1.7681 N   0  0  0  0  0  0  0  0  0  0  0  0
   -0.8058    0.3898    1.6290 H   0  0  0  0  0  0  0  0  0  0  0  0
    0.7382    0.3740    3.1192 C   0  0  0  0  0  0  0  0  0  0  0  0
    1.5005    1.1571    3.1896 H   0  0  0  0  0  0  0  0  0  0  0  0
   -0.0564    0.6001    3.8364 H   0  0  0  0  0  0  0  0  0  0  0  0
    1.1910   -0.5845    3.3943 H   0  0  0  0  0  0  0  0  0  0  0  0
  1  2  1  0  0  0  0
  2  3  1  0  0  0  0
  2  4  1  0  0  0  0
  2  5  1  0  0  0  0
  5  6  2  0  0  0  0
  5  7  1  0  0  0  0
  7  8  1  0  0  0  0
  7  9  1  0  0  0  0
  9 10  1  0  0  0  0
  9 11  1  0  0  0  0
  9 18  1  0  0  0  0
 11 12  1  0  0  0  0
 11 13  1  0  0  0  0
 11 14  1  0  0  0  0
 14 15  2  0  0  0  0
 14 16  1  0  0  0  0
 16 17  1  0  0  0  0
 18 19  2  0  0  0  0
 18 20  1  0  0  0  0
 20 21  1  0  0  0  0
 20 22  1  0  0  0  0
 22 23  1  0  0  0  0
 22 24  1  0  0  0  0
 22 25  1  0  0  0  0
M  END
$$$$

  -OEChem-02102214113D

 25 24  0     1  0  0  0  0  0999 V2000
   -2.5006   -3.6941   -0.4402 H   0  0  0  0  0  0  0  0  0  0  0  0
   -2.5383   -2.6272   -0.6784 C   0  0  0  0  0  0  0  0  0  0  0  0
   -3.1976   -2.1305    0.0372 H   0  0  0  0  0  0  0  0  0  0  0  0
   -2.9448   -2.5064   -1.6854 H   0  0  0  0  0  0  0  0  0  0  0  0
   -1.1466   -2.0274   -0.6058 C   0  0  0  0  0  0  0  0  0  0  0  0
   -0.1954   -2.7334   -0.3227 O   0  0  0  0  0  0  0  0  0  0  0  0
   -0.9634   -0.6831   -0.8676 N   0  0  0  0  0  0  0  0  0  0  0  0
   -1.7961   -0.1313   -1.0523 H   0  0  0  0  0  0  0  0  0  0  0  0
    0.3295    0.0134   -0.7452 C   0  0  1  0  0  0  0  0  0  0  0  0
    1.0368   -0.5493   -1.3669 H   0  0  0  0  0  0  0  0  0  0  0  0
    0.2008    1.4128   -1.3922 C   0  0  0  0  0  0  0  0  0  0  0  0
    1.0936    1.5830   -2.0023 H   0  0  0  0  0  0  0  0  0  0  0  0
   -0.6590    1.4504   -2.0650 H   0  0  0  0  0  0  0  0  0  0  0  0
    0.0991    2.5635   -0.3973 C   0  0  0  0  0  0  0  0  0  0  0  0
    0.9463    3.4375   -0.4185 O   0  0  0  0  0  0  0  0  0  0  0  0
   -0.9917    2.5975    0.4071 O   0  0  0  0  0  0  0  0  0  0  0  0
   -0.8948    3.4088    0.9320 H   0  0  0  0  0  0  0  0  0  0  0  0
    0.9649   -0.0098    0.6670 C   0  0  0  0  0  0  0  0  0  0  0  0
    2.1808   -0.0670    0.7786 O   0  0  0  0  0  0  0  0  0  0  0  0
    0.2011    0.2432    1.7920 N   0  0  0  0  0  0  0  0  0  0  0  0
   -0.7872    0.4247    1.6462 H   0  0  0  0  0  0  0  0  0  0  0  0
    0.7629    0.3791    3.1297 C   0  0  0  0  0  0  0  0  0  0  0  0
    1.4662    1.2177    3.1666 H   0  0  0  0  0  0  0  0  0  0  0  0
   -0.0329    0.5610    3.8580 H   0  0  0  0  0  0  0  0  0  0  0  0
    1.2910   -0.5364    3.4167 H   0  0  0  0  0  0  0  0  0  0  0  0
  1  2  1  0  0  0  0
  2  3  1  0  0  0  0
  2  4  1  0  0  0  0
  2  5  1  0  0  0  0
  5  6  2  0  0  0  0
  5  7  1  0  0  0  0
  7  8  1  0  0  0  0
  7  9  1  0  0  0  0
  9 10  1  0  0  0  0
  9 11  1  0  0  0  0
  9 18  1  0  0  0  0
 11 12  1  0  0  0  0
 11 13  1  0  0  0  0
 11 14  1  0  0  0  0
 14 15  2  0  0  0  0
 14 16  1  0  0  0  0
 16 17  1  0  0  0  0
 18 19  2  0  0  0  0
 18 20  1  0  0  0  0
 20 21  1  0  0  0  0
 20 22  1  0  0  0  0
 22 23  1  0  0  0  0
 22 24  1  0  0  0  0
 22 25  1  0  0  0  0
M  END
$$$$

  -OEChem-02102214113D

 25 24  0     1  0  0  0  0  0999 V2000
   -2.5087   -3.6994   -0.4847 H   0  0  0  0  0  0  0  0  0  0  0  0
   -2.5483   -2.6272   -0.6976 C   0  0  0  0  0  0  0  0  0  0  0  0
   -3.2050   -2.1483    0.0325 H   0  0  0  0  0  0  0  0  0  0  0  0
   -2.9595   -2.4830   -1.6996 H   0  0  0  0  0  0  0  0  0  0  0  0
   -1.1563   -2.0287   -0.6169 C   0  0  0  0  0  0  0  0  0  0  0  0
   -0.2052   -2.7393   -0.3450 O   0  0  0  0  0  0  0  0  0  0  0  0
   -0.9728   -0.6802   -0.8548 N   0  0  0  0  0  0  0  0  0  0  0  0
   -1.8055   -0.1242   -1.0263 H   0  0  0  0  0  0  0  0  0  0  0  0
    0.3199    0.0134   -0.7188 C   0  0  1  0  0  0  0  0  0  0  0  0
    1.0230   -0.5569   -1.3387 H   0  0  0  0  0  0  0  0  0  0  0  0
    0.2200    1.4087   -1.3804 C   0  0  0  0  0  0  0  0  0  0  0  0
    1.1280    1.5595   -1.9729 H   0  0  0  0  0  0  0  0  0  0  0  0
   -0.6247    1.4435   -2.0727 H   0  0  0  0  0  0  0  0  0  0  0  0
    0.1091    2.5837   -0.4138 C   0  0  0  0  0  0  0  0  0  0  0  0
    0.7965    3.5674   -0.6206 O   0  0  0  0  0  0  0  0  0  0  0  0
   -0.8743    2.5452    0.5191 O   0  0  0  0  0  0  0  0  0  0  0  0
   -0.8185    3.3973    0.9815 H   0  0  0  0  0  0  0  0  0  0  0  0
    0.9650   -0.0275    0.6889 C   0  0  0  0  0  0  0  0  0  0  0  0
    2.1828   -0.0754    0.7856 O   0  0  0  0  0  0  0  0  0  0  0  0
    0.2167    0.2070    1.8277 N   0  0  0  0  0  0  0  0  0  0  0  0
   -0.7629    0.4373    1.6903 H   0  0  0  0  0  0  0  0  0  0  0  0
    0.7999    0.3394    3.1567 C   0  0  0  0  0  0  0  0  0  0  0  0
    1.4704    1.2043    3.1964 H   0  0  0  0  0  0  0  0  0  0  0  0
    0.0126    0.4742    3.9044 H   0  0  0  0  0  0  0  0  0  0  0  0
    1.3695   -0.5598    3.4148 H   0  0  0  0  0  0  0  0  0  0  0  0
  1  2  1  0  0  0  0
  2  3  1  0  0  0  0
  2  4  1  0  0  0  0
  2  5  1  0  0  0  0
  5  6  2  0  0  0  0
  5  7  1  0  0  0  0
  7  8  1  0  0  0  0
  7  9  1  0  0  0  0
  9 10  1  0  0  0  0
  9 11  1  0  0  0  0
  9 18  1  0  0  0  0
 11 12  1  0  0  0  0
 11 13  1  0  0  0  0
 11 14  1  0  0  0  0
 14 15  2  0  0  0  0
 14 16  1  0  0  0  0
 16 17  1  0  0  0  0
 18 19  2  0  0  0  0
 18 20  1  0  0  0  0
 20 21  1  0  0  0  0
 20 22  1  0  0  0  0
 22 23  1  0  0  0  0
 22 24  1  0  0  0  0
 22 25  1  0  0  0  0
M  END
$$$$

  -OEChem-02102214113D

 25 24  0     1  0  0  0  0  0999 V2000
   -2.5213   -3.6998   -0.5253 H   0  0  0  0  0  0  0  0  0  0  0  0
   -2.5610   -2.6240   -0.7188 C   0  0  0  0  0  0  0  0  0  0  0  0
   -3.2129   -2.1578    0.0236 H   0  0  0  0  0  0  0  0  0  0  0  0
   -2.9780   -2.4617   -1.7155 H   0  0  0  0  0  0  0  0  0  0  0  0
   -1.1681   -2.0285   -0.6359 C   0  0  0  0  0  0  0  0  0  0  0  0
   -0.2154   -2.7472   -0.3922 O   0  0  0  0  0  0  0  0  0  0  0  0
   -0.9853   -0.6745   -0.8427 N   0  0  0  0  0  0  0  0  0  0  0  0
   -1.8198   -0.1129   -0.9846 H   0  0  0  0  0  0  0  0  0  0  0  0
    0.3085    0.0136   -0.6915 C   0  0  1  0  0  0  0  0  0  0  0  0
    1.0046   -0.5653   -1.3116 H   0  0  0  0  0  0  0  0  0  0  0  0
    0.2442    1.4057   -1.3664 C   0  0  0  0  0  0  0  0  0  0  0  0
    1.1697    1.5331   -1.9370 H   0  0  0  0  0  0  0  0  0  0  0  0
   -0.5818    1.4385   -2.0808 H   0  0  0  0  0  0  0  0  0  0  0  0
    0.1282    2.6121   -0.4379 C   0  0  0  0  0  0  0  0  0  0  0  0
    0.6208    3.6587   -0.8191 O   0  0  0  0  0  0  0  0  0  0  0  0
   -0.7070    2.5341    0.6265 O   0  0  0  0  0  0  0  0  0  0  0  0
   -0.6939    3.4190    1.0258 H   0  0  0  0  0  0  0  0  0  0  0  0
    0.9643   -0.0547    0.7106 C   0  0  0  0  0  0  0  0  0  0  0  0
    2.1840   -0.0968    0.7930 O   0  0  0  0  0  0  0  0  0  0  0  0
    0.2281    0.1555    1.8620 N   0  0  0  0  0  0  0  0  0  0  0  0
   -0.7397    0.4346    1.7313 H   0  0  0  0  0  0  0  0  0  0  0  0
    0.8331    0.3051    3.1794 C   0  0  0  0  0  0  0  0  0  0  0  0
    1.4711    1.1945    3.2096 H   0  0  0  0  0  0  0  0  0  0  0  0
    0.0564    0.4068    3.9432 H   0  0  0  0  0  0  0  0  0  0  0  0
    1.4415   -0.5727    3.4222 H   0  0  0  0  0  0  0  0  0  0  0  0
  1  2  1  0  0  0  0
  2  3  1  0  0  0  0
  2  4  1  0  0  0  0
  2  5  1  0  0  0  0
  5  6  2  0  0  0  0
  5  7  1  0  0  0  0
  7  8  1  0  0  0  0
  7  9  1  0  0  0  0
  9 10  1  0  0  0  0
  9 11  1  0  0  0  0
  9 18  1  0  0  0  0
 11 12  1  0  0  0  0
 11 13  1  0  0  0  0
 11 14  1  0  0  0  0
 14 15  2  0  0  0  0
 14 16  1  0  0  0  0
 16 17  1  0  0  0  0
 18 19  2  0  0  0  0
 18 20  1  0  0  0  0
 20 21  1  0  0  0  0
 20 22  1  0  0  0  0
 22 23  1  0  0  0  0
 22 24  1  0  0  0  0
 22 25  1  0  0  0  0
M  END
$$$$

  -OEChem-02102214113D

 25 24  0     1  0  0  0  0  0999 V2000
   -2.5342   -3.6926   -0.5571 H   0  0  0  0  0  0  0  0  0  0  0  0
   -2.5716   -2.6147   -0.7393 C   0  0  0  0  0  0  0  0  0  0  0  0
   -3.2273   -2.1555    0.0042 H   0  0  0  0  0  0  0  0  0  0  0  0
   -2.9827   -2.4417   -1.7366 H   0  0  0  0  0  0  0  0  0  0  0  0
   -1.1787   -2.0211   -0.6414 C   0  0  0  0  0  0  0  0  0  0  0  0
   -0.2276   -2.7440   -0.4036 O   0  0  0  0  0  0  0  0  0  0  0  0
   -0.9948   -0.6637   -0.8246 N   0  0  0  0  0  0  0  0  0  0  0  0
   -1.8270   -0.1021   -0.9774 H   0  0  0  0  0  0  0  0  0  0  0  0
    0.2991    0.0225   -0.6643 C   0  0  1  0  0  0  0  0  0  0  0  0
    0.9901   -0.5659   -1.2811 H   0  0  0  0  0  0  0  0  0  0  0  0
    0.2606    1.4060   -1.3627 C   0  0  0  0  0  0  0  0  0  0  0  0
    1.1998    1.5111   -1.9152 H   0  0  0  0  0  0  0  0  0  0  0  0
   -0.5478    1.4240   -2.0978 H   0  0  0  0  0  0  0  0  0  0  0  0
    0.1380    2.6546   -0.4900 C   0  0  0  0  0  0  0  0  0  0  0  0
    0.3967    3.7152   -1.0303 O   0  0  0  0  0  0  0  0  0  0  0  0
   -0.4766    2.5768    0.7130 O   0  0  0  0  0  0  0  0  0  0  0  0
   -0.5044    3.4877    1.0473 H   0  0  0  0  0  0  0  0  0  0  0  0
    0.9629   -0.0666    0.7335 C   0  0  0  0  0  0  0  0  0  0  0  0
    2.1834   -0.1182    0.8047 O   0  0  0  0  0  0  0  0  0  0  0  0
    0.2387    0.1229    1.8964 N   0  0  0  0  0  0  0  0  0  0  0  0
   -0.7219    0.4294    1.7789 H   0  0  0  0  0  0  0  0  0  0  0  0
    0.8607    0.2499    3.2084 C   0  0  0  0  0  0  0  0  0  0  0  0
    1.5032    1.1358    3.2436 H   0  0  0  0  0  0  0  0  0  0  0  0
    0.0940    0.3436    3.9834 H   0  0  0  0  0  0  0  0  0  0  0  0
    1.4680   -0.6341    3.4304 H   0  0  0  0  0  0  0  0  0  0  0  0
  1  2  1  0  0  0  0
  2  3  1  0  0  0  0
  2  4  1  0  0  0  0
  2  5  1  0  0  0  0
  5  6  2  0  0  0  0
  5  7  1  0  0  0  0
  7  8  1  0  0  0  0
  7  9  1  0  0  0  0
  9 10  1  0  0  0  0
  9 11  1  0  0  0  0
  9 18  1  0  0  0  0
 11 12  1  0  0  0  0
 11 13  1  0  0  0  0
 11 14  1  0  0  0  0
 14 15  2  0  0  0  0
 14 16  1  0  0  0  0
 16 17  1  0  0  0  0
 18 19  2  0  0  0  0
 18 20  1  0  0  0  0
 20 21  1  0  0  0  0
 20 22  1  0  0  0  0
 22 23  1  0  0  0  0
 22 24  1  0  0  0  0
 22 25  1  0  0  0  0
M  END
$$$$

  -OEChem-02102214113D

 25 24  0     1  0  0  0  0  0999 V2000
   -2.5594   -3.6529   -0.5214 H   0  0  0  0  0  0  0  0  0  0  0  0
   -2.5771   -2.5779   -0.7225 C   0  0  0  0  0  0  0  0  0  0  0  0
   -3.2530   -2.0985   -0.0107 H   0  0  0  0  0  0  0  0  0  0  0  0
   -2.9503   -2.4169   -1.7367 H   0  0  0  0  0  0  0  0  0  0  0  0
   -1.1813   -1.9993   -0.5854 C   0  0  0  0  0  0  0  0  0  0  0  0
   -0.2500   -2.7281   -0.2953 O   0  0  0  0  0  0  0  0  0  0  0  0
   -0.9736   -0.6498   -0.8006 N   0  0  0  0  0  0  0  0  0  0  0  0
   -1.7864   -0.0925   -1.0455 H   0  0  0  0  0  0  0  0  0  0  0  0
    0.3344    0.0223   -0.6758 C   0  0  1  0  0  0  0  0  0  0  0  0
    1.0247   -0.5727   -1.2869 H   0  0  0  0  0  0  0  0  0  0  0  0
    0.2651    1.4054   -1.3915 C   0  0  0  0  0  0  0  0  0  0  0  0
    1.0198    1.3827   -2.1834 H   0  0  0  0  0  0  0  0  0  0  0  0
   -0.7051    1.5035   -1.8852 H   0  0  0  0  0  0  0  0  0  0  0  0
    0.5089    2.7156   -0.6317 C   0  0  0  0  0  0  0  0  0  0  0  0
    0.4256    3.7226   -1.3133 O   0  0  0  0  0  0  0  0  0  0  0  0
    0.6996    2.7535    0.7035 O   0  0  0  0  0  0  0  0  0  0  0  0
    0.8481    3.6845    0.9287 H   0  0  0  0  0  0  0  0  0  0  0  0
    0.9709   -0.0771    0.7332 C   0  0  0  0  0  0  0  0  0  0  0  0
    2.1850   -0.1952    0.8351 O   0  0  0  0  0  0  0  0  0  0  0  0
    0.2152    0.1388    1.8727 N   0  0  0  0  0  0  0  0  0  0  0  0
   -0.7703    0.3366    1.7445 H   0  0  0  0  0  0  0  0  0  0  0  0
    0.7840    0.1866    3.2130 C   0  0  0  0  0  0  0  0  0  0  0  0
    1.5091    1.0033    3.2919 H   0  0  0  0  0  0  0  0  0  0  0  0
   -0.0045    0.3505    3.9533 H   0  0  0  0  0  0  0  0  0  0  0  0
    1.2881   -0.7567    3.4480 H   0  0  0  0  0  0  0  0  0  0  0  0
  1  2  1  0  0  0  0
  2  3  1  0  0  0  0
  2  4  1  0  0  0  0
  2  5  1  0  0  0  0
  5  6  2  0  0  0  0
  5  7  1  0  0  0  0
  7  8  1  0  0  0  0
  7  9  1  0  0  0  0
  9 10  1  0  0  0  0
  9 11  1  0  0  0  0
  9 18  1  0  0  0  0
 11 12  1  0  0  0  0
 11 13  1  0  0  0  0
 11 14  1  0  0  0  0
 14 15  2  0  0  0  0
 14 16  1  0  0  0  0
 16 17  1  0  0  0  0
 18 19  2  0  0  0  0
 18 20  1  0  0  0  0
 20 21  1  0  0  0  0
 20 22  1  0  0  0  0
 22 23  1  0  0  0  0
 22 24  1  0  0  0  0
 22 25  1  0  0  0  0
M  END
$$$$

  -OEChem-02102214113D

 25 24  0     1  0  0  0  0  0999 V2000
   -2.5436   -3.6388   -0.4487 H   0  0  0  0  0  0  0  0  0  0  0  0
   -2.5565   -2.5696   -0.6787 C   0  0  0  0  0  0  0  0  0  0  0  0
   -3.2365   -2.0696    0.0148 H   0  0  0  0  0  0  0  0  0  0  0  0
   -2.9215   -2.4344   -1.6995 H   0  0  0  0  0  0  0  0  0  0  0  0
   -1.1604   -1.9910   -0.5458 C   0  0  0  0  0  0  0  0  0  0  0  0
   -0.2348   -2.7125   -0.2220 O   0  0  0  0  0  0  0  0  0  0  0  0
   -0.9487   -0.6491   -0.8015 N   0  0  0  0  0  0  0  0  0  0  0  0
   -1.7544   -0.1056   -1.0960 H   0  0  0  0  0  0  0  0  0  0  0  0
    0.3612    0.0248   -0.6997 C   0  0  1  0  0  0  0  0  0  0  0  0
    1.0595   -0.5573   -1.3136 H   0  0  0  0  0  0  0  0  0  0  0  0
    0.2348    1.4154   -1.3957 C   0  0  0  0  0  0  0  0  0  0  0  0
    0.9660    1.4201   -2.2091 H   0  0  0  0  0  0  0  0  0  0  0  0
   -0.7510    1.4982   -1.8616 H   0  0  0  0  0  0  0  0  0  0  0  0
    0.4796    2.7212   -0.6264 C   0  0  0  0  0  0  0  0  0  0  0  0
    0.0763    3.7265   -1.1857 O   0  0  0  0  0  0  0  0  0  0  0  0
    1.1565    2.7572    0.5401 O   0  0  0  0  0  0  0  0  0  0  0  0
    1.2458    3.6917    0.7796 H   0  0  0  0  0  0  0  0  0  0  0  0
    0.9793   -0.0465    0.7183 C   0  0  0  0  0  0  0  0  0  0  0  0
    2.1835   -0.2240    0.8472 O   0  0  0  0  0  0  0  0  0  0  0  0
    0.2029    0.2025    1.8369 N   0  0  0  0  0  0  0  0  0  0  0  0
   -0.7935    0.3184    1.6932 H   0  0  0  0  0  0  0  0  0  0  0  0
    0.7294    0.1677    3.1945 C   0  0  0  0  0  0  0  0  0  0  0  0
    1.5284    0.9070    3.3135 H   0  0  0  0  0  0  0  0  0  0  0  0
   -0.0623    0.3957    3.9142 H   0  0  0  0  0  0  0  0  0  0  0  0
    1.1312   -0.8252    3.4223 H   0  0  0  0  0  0  0  0  0  0  0  0
  1  2  1  0  0  0  0
  2  3  1  0  0  0  0
  2  4  1  0  0  0  0
  2  5  1  0  0  0  0
  5  6  2  0  0  0  0
  5  7  1  0  0  0  0
  7  8  1  0  0  0  0
  7  9  1  0  0  0  0
  9 10  1  0  0  0  0
  9 11  1  0  0  0  0
  9 18  1  0  0  0  0
 11 12  1  0  0  0  0
 11 13  1  0  0  0  0
 11 14  1  0  0  0  0
 14 15  2  0  0  0  0
 14 16  1  0  0  0  0
 16 17  1  0  0  0  0
 18 19  2  0  0  0  0
 18 20  1  0  0  0  0
 20 21  1  0  0  0  0
 20 22  1  0  0  0  0
 22 23  1  0  0  0  0
 22 24  1  0  0  0  0
 22 25  1  0  0  0  0
M  END
$$$$

  -OEChem-02102214113D

 25 24  0     1  0  0  0  0  0999 V2000
   -2.5325   -3.6353   -0.4055 H   0  0  0  0  0  0  0  0  0  0  0  0
   -2.5449   -2.5701   -0.6542 C   0  0  0  0  0  0  0  0  0  0  0  0
   -3.2336   -2.0596    0.0231 H   0  0  0  0  0  0  0  0  0  0  0  0
   -2.8988   -2.4537   -1.6813 H   0  0  0  0  0  0  0  0  0  0  0  0
   -1.1513   -1.9866   -0.5160 C   0  0  0  0  0  0  0  0  0  0  0  0
   -0.2326   -2.6972   -0.1516 O   0  0  0  0  0  0  0  0  0  0  0  0
   -0.9345   -0.6532   -0.8098 N   0  0  0  0  0  0  0  0  0  0  0  0
   -1.7320   -0.1236   -1.1491 H   0  0  0  0  0  0  0  0  0  0  0  0
    0.3777    0.0199   -0.7261 C   0  0  1  0  0  0  0  0  0  0  0  0
    1.0812   -0.5532   -1.3420 H   0  0  0  0  0  0  0  0  0  0  0  0
    0.2145    1.4168   -1.3991 C   0  0  0  0  0  0  0  0  0  0  0  0
    0.9252    1.4508   -2.2294 H   0  0  0  0  0  0  0  0  0  0  0  0
   -0.7831    1.5033   -1.8388 H   0  0  0  0  0  0  0  0  0  0  0  0
    0.4757    2.6887   -0.5833 C   0  0  0  0  0  0  0  0  0  0  0  0
   -0.1731    3.6673   -0.9118 O   0  0  0  0  0  0  0  0  0  0  0  0
    1.4888    2.7458    0.3073 O   0  0  0  0  0  0  0  0  0  0  0  0
    1.5296    3.6588    0.6277 H   0  0  0  0  0  0  0  0  0  0  0  0
    0.9853   -0.0182    0.6980 C   0  0  0  0  0  0  0  0  0  0  0  0
    2.1815   -0.2287    0.8470 O   0  0  0  0  0  0  0  0  0  0  0  0
    0.1982    0.2647    1.8010 N   0  0  0  0  0  0  0  0  0  0  0  0
   -0.8008    0.3379    1.6453 H   0  0  0  0  0  0  0  0  0  0  0  0
    0.7002    0.1979    3.1671 C   0  0  0  0  0  0  0  0  0  0  0  0
    1.5325    0.8966    3.3030 H   0  0  0  0  0  0  0  0  0  0  0  0
   -0.0909    0.4618    3.8751 H   0  0  0  0  0  0  0  0  0  0  0  0
    1.0491   -0.8145    3.3964 H   0  0  0  0  0  0  0  0  0  0  0  0
  1  2  1  0  0  0  0
  2  3  1  0  0  0  0
  2  4  1  0  0  0  0
  2  5  1  0  0  0  0
  5  6  2  0  0  0  0
  5  7  1  0  0  0  0
  7  8  1  0  0  0  0
  7  9  1  0  0  0  0
  9 10  1  0  0  0  0
  9 11  1  0  0  0  0
  9 18  1  0  0  0  0
 11 12  1  0  0  0  0
 11 13  1  0  0  0  0
 11 14  1  0  0  0  0
 14 15  2  0  0  0  0
 14 16  1  0  0  0  0
 16 17  1  0  0  0  0
 18 19  2  0  0  0  0
 18 20  1  0  0  0  0
 20 21  1  0  0  0  0
 20 22  1  0  0  0  0
 22 23  1  0  0  0  0
 22 24  1  0  0  0  0
 22 25  1  0  0  0  0
M  END
$$$$

  -OEChem-02102214113D

 25 24  0     1  0  0  0  0  0999 V2000
   -2.5269   -3.6334   -0.3780 H   0  0  0  0  0  0  0  0  0  0  0  0
   -2.5390   -2.5709   -0.6374 C   0  0  0  0  0  0  0  0  0  0  0  0
   -3.2276   -2.0532    0.0344 H   0  0  0  0  0  0  0  0  0  0  0  0
   -2.8931   -2.4651   -1.6656 H   0  0  0  0  0  0  0  0  0  0  0  0
   -1.1452   -1.9862   -0.5051 C   0  0  0  0  0  0  0  0  0  0  0  0
   -0.2287   -2.6894   -0.1214 O   0  0  0  0  0  0  0  0  0  0  0  0
   -0.9261   -0.6590   -0.8235 N   0  0  0  0  0  0  0  0  0  0  0  0
   -1.7218   -0.1354   -1.1762 H   0  0  0  0  0  0  0  0  0  0  0  0
    0.3860    0.0152   -0.7503 C   0  0  1  0  0  0  0  0  0  0  0  0
    1.0932   -0.5545   -1.3652 H   0  0  0  0  0  0  0  0  0  0  0  0
    0.2076    1.4135   -1.4110 C   0  0  0  0  0  0  0  0  0  0  0  0
    0.9055    1.4669   -2.2511 H   0  0  0  0  0  0  0  0  0  0  0  0
   -0.7970    1.5104   -1.8321 H   0  0  0  0  0  0  0  0  0  0  0  0
    0.4861    2.6466   -0.5487 C   0  0  0  0  0  0  0  0  0  0  0  0
   -0.3279    3.5522   -0.6123 O   0  0  0  0  0  0  0  0  0  0  0  0
    1.6768    2.7643    0.0784 O   0  0  0  0  0  0  0  0  0  0  0  0
    1.6876    3.6354    0.5015 H   0  0  0  0  0  0  0  0  0  0  0  0
    0.9913    0.0039    0.6758 C   0  0  0  0  0  0  0  0  0  0  0  0
    2.1867   -0.2009    0.8351 O   0  0  0  0  0  0  0  0  0  0  0  0
    0.1996    0.3086    1.7694 N   0  0  0  0  0  0  0  0  0  0  0  0
   -0.7998    0.3663    1.6074 H   0  0  0  0  0  0  0  0  0  0  0  0
    0.6904    0.2440    3.1397 C   0  0  0  0  0  0  0  0  0  0  0  0
    1.5317    0.9314    3.2778 H   0  0  0  0  0  0  0  0  0  0  0  0
   -0.1024    0.5237    3.8399 H   0  0  0  0  0  0  0  0  0  0  0  0
    1.0228   -0.7718    3.3783 H   0  0  0  0  0  0  0  0  0  0  0  0
  1  2  1  0  0  0  0
  2  3  1  0  0  0  0
  2  4  1  0  0  0  0
  2  5  1  0  0  0  0
  5  6  2  0  0  0  0
  5  7  1  0  0  0  0
  7  8  1  0  0  0  0
  7  9  1  0  0  0  0
  9 10  1  0  0  0  0
  9 11  1  0  0  0  0
  9 18  1  0  0  0  0
 11 12  1  0  0  0  0
 11 13  1  0  0  0  0
 11 14  1  0  0  0  0
 14 15  2  0  0  0  0
 14 16  1  0  0  0  0
 16 17  1  0  0  0  0
 18 19  2  0  0  0  0
 18 20  1  0  0  0  0
 20 21  1  0  0  0  0
 20 22  1  0  0  0  0
 22 23  1  0  0  0  0
 22 24  1  0  0  0  0
 22 25  1  0  0  0  0
M  END
$$$$

  -OEChem-02102214113D

 25 24  0     1  0  0  0  0  0999 V2000
   -2.5208   -3.6372   -0.3540 H   0  0  0  0  0  0  0  0  0  0  0  0
   -2.5368   -2.5779   -0.6263 C   0  0  0  0  0  0  0  0  0  0  0  0
   -3.2161   -2.0521    0.0488 H   0  0  0  0  0  0  0  0  0  0  0  0
   -2.9050   -2.4845   -1.6508 H   0  0  0  0  0  0  0  0  0  0  0  0
   -1.1412   -1.9918   -0.5201 C   0  0  0  0  0  0  0  0  0  0  0  0
   -0.2180   -2.6924   -0.1476 O   0  0  0  0  0  0  0  0  0  0  0  0
   -0.9264   -0.6659   -0.8467 N   0  0  0  0  0  0  0  0  0  0  0  0
   -1.7292   -0.1379   -1.1763 H   0  0  0  0  0  0  0  0  0  0  0  0
    0.3835    0.0111   -0.7739 C   0  0  1  0  0  0  0  0  0  0  0  0
    1.0928   -0.5567   -1.3882 H   0  0  0  0  0  0  0  0  0  0  0  0
    0.2089    1.4114   -1.4250 C   0  0  0  0  0  0  0  0  0  0  0  0
    0.9044    1.4768   -2.2663 H   0  0  0  0  0  0  0  0  0  0  0  0
   -0.7973    1.5238   -1.8387 H   0  0  0  0  0  0  0  0  0  0  0  0
    0.5001    2.6092   -0.5228 C   0  0  0  0  0  0  0  0  0  0  0  0
   -0.4102    3.3965   -0.3263 O   0  0  0  0  0  0  0  0  0  0  0  0
    1.7709    2.8187   -0.1132 O   0  0  0  0  0  0  0  0  0  0  0  0
    1.7671    3.6339    0.4099 H   0  0  0  0  0  0  0  0  0  0  0  0
    0.9892    0.0128    0.6527 C   0  0  0  0  0  0  0  0  0  0  0  0
    2.1895   -0.1587    0.8119 O   0  0  0  0  0  0  0  0  0  0  0  0
    0.1971    0.3239    1.7440 N   0  0  0  0  0  0  0  0  0  0  0  0
   -0.8023    0.3876    1.5821 H   0  0  0  0  0  0  0  0  0  0  0  0
    0.6923    0.3037    3.1142 C   0  0  0  0  0  0  0  0  0  0  0  0
    1.5277    1.0022    3.2299 H   0  0  0  0  0  0  0  0  0  0  0  0
   -0.1010    0.5972    3.8080 H   0  0  0  0  0  0  0  0  0  0  0  0
    1.0342   -0.7018    3.3811 H   0  0  0  0  0  0  0  0  0  0  0  0
  1  2  1  0  0  0  0
  2  3  1  0  0  0  0
  2  4  1  0  0  0  0
  2  5  1  0  0  0  0
  5  6  2  0  0  0  0
  5  7  1  0  0  0  0
  7  8  1  0  0  0  0
  7  9  1  0  0  0  0
  9 10  1  0  0  0  0
  9 11  1  0  0  0  0
  9 18  1  0  0  0  0
 11 12  1  0  0  0  0
 11 13  1  0  0  0  0
 11 14  1  0  0  0  0
 14 15  2  0  0  0  0
 14 16  1  0  0  0  0
 16 17  1  0  0  0  0
 18 19  2  0  0  0  0
 18 20  1  0  0  0  0
 20 21  1  0  0  0  0
 20 22  1  0  0  0  0
 22 23  1  0  0  0  0
 22 24  1  0  0  0  0
 22 25  1  0  0  0  0
M  END
$$$$

  -OEChem-02102214113D

 25 24  0     1  0  0  0  0  0999 V2000
   -2.5181   -3.6453   -0.3566 H   0  0  0  0  0  0  0  0  0  0  0  0
   -2.5373   -2.5858   -0.6281 C   0  0  0  0  0  0  0  0  0  0  0  0
   -3.2108   -2.0608    0.0534 H   0  0  0  0  0  0  0  0  0  0  0  0
   -2.9146   -2.4924   -1.6492 H   0  0  0  0  0  0  0  0  0  0  0  0
   -1.1417   -1.9982   -0.5345 C   0  0  0  0  0  0  0  0  0  0  0  0
   -0.2128   -2.6975   -0.1732 O   0  0  0  0  0  0  0  0  0  0  0  0
   -0.9325   -0.6721   -0.8626 N   0  0  0  0  0  0  0  0  0  0  0  0
   -1.7417   -0.1404   -1.1696 H   0  0  0  0  0  0  0  0  0  0  0  0
    0.3749    0.0080   -0.7881 C   0  0  1  0  0  0  0  0  0  0  0  0
    1.0843   -0.5610   -1.4010 H   0  0  0  0  0  0  0  0  0  0  0  0
    0.2084    1.4080   -1.4377 C   0  0  0  0  0  0  0  0  0  0  0  0
    0.9043    1.4772   -2.2783 H   0  0  0  0  0  0  0  0  0  0  0  0
   -0.7972    1.5323   -1.8486 H   0  0  0  0  0  0  0  0  0  0  0  0
    0.5055    2.5831   -0.5117 C   0  0  0  0  0  0  0  0  0  0  0  0
   -0.4434    3.2143   -0.0769 O   0  0  0  0  0  0  0  0  0  0  0  0
    1.7966    2.9183   -0.2927 O   0  0  0  0  0  0  0  0  0  0  0  0
    1.7913    3.6709    0.3170 H   0  0  0  0  0  0  0  0  0  0  0  0
    0.9847    0.0169    0.6370 C   0  0  0  0  0  0  0  0  0  0  0  0
    2.1908   -0.1141    0.7883 O   0  0  0  0  0  0  0  0  0  0  0  0
    0.1967    0.3283    1.7310 N   0  0  0  0  0  0  0  0  0  0  0  0
   -0.8015    0.4172    1.5718 H   0  0  0  0  0  0  0  0  0  0  0  0
    0.7038    0.3594    3.0966 C   0  0  0  0  0  0  0  0  0  0  0  0
    1.5150    1.0893    3.1879 H   0  0  0  0  0  0  0  0  0  0  0  0
   -0.0938    0.6418    3.7904 H   0  0  0  0  0  0  0  0  0  0  0  0
    1.0827   -0.6268    3.3852 H   0  0  0  0  0  0  0  0  0  0  0  0
  1  2  1  0  0  0  0
  2  3  1  0  0  0  0
  2  4  1  0  0  0  0
  2  5  1  0  0  0  0
  5  6  2  0  0  0  0
  5  7  1  0  0  0  0
  7  8  1  0  0  0  0
  7  9  1  0  0  0  0
  9 10  1  0  0  0  0
  9 11  1  0  0  0  0
  9 18  1  0  0  0  0
 11 12  1  0  0  0  0
 11 13  1  0  0  0  0
 11 14  1  0  0  0  0
 14 15  2  0  0  0  0
 14 16  1  0  0  0  0
 16 17  1  0  0  0  0
 18 19  2  0  0  0  0
 18 20  1  0  0  0  0
 20 21  1  0  0  0  0
 20 22  1  0  0  0  0
 22 23  1  0  0  0  0
 22 24  1  0  0  0  0
 22 25  1  0  0  0  0
M  END
$$$$

  -OEChem-02102214113D

 25 24  0     1  0  0  0  0  0999 V2000
   -2.5261   -3.6578   -0.3732 H   0  0  0  0  0  0  0  0  0  0  0  0
   -2.5468   -2.5984   -0.6448 C   0  0  0  0  0  0  0  0  0  0  0  0
   -3.2077   -2.0714    0.0472 H   0  0  0  0  0  0  0  0  0  0  0  0
   -2.9403   -2.5037   -1.6597 H   0  0  0  0  0  0  0  0  0  0  0  0
   -1.1482   -2.0146   -0.5743 C   0  0  0  0  0  0  0  0  0  0  0  0
   -0.2108   -2.7230   -0.2538 O   0  0  0  0  0  0  0  0  0  0  0  0
   -0.9438   -0.6832   -0.8830 N   0  0  0  0  0  0  0  0  0  0  0  0
   -1.7626   -0.1367   -1.1330 H   0  0  0  0  0  0  0  0  0  0  0  0
    0.3613   -0.0023   -0.7917 C   0  0  1  0  0  0  0  0  0  0  0  0
    1.0713   -0.5699   -1.4054 H   0  0  0  0  0  0  0  0  0  0  0  0
    0.2125    1.4005   -1.4364 C   0  0  0  0  0  0  0  0  0  0  0  0
    0.9182    1.4712   -2.2689 H   0  0  0  0  0  0  0  0  0  0  0  0
   -0.7877    1.5362   -1.8563 H   0  0  0  0  0  0  0  0  0  0  0  0
    0.5041    2.5609   -0.4925 C   0  0  0  0  0  0  0  0  0  0  0  0
   -0.4282    3.0150    0.1510 O   0  0  0  0  0  0  0  0  0  0  0  0
    1.7637    3.0497   -0.4456 O   0  0  0  0  0  0  0  0  0  0  0  0
    1.7676    3.7456    0.2284 H   0  0  0  0  0  0  0  0  0  0  0  0
    0.9734   -0.0065    0.6326 C   0  0  0  0  0  0  0  0  0  0  0  0
    2.1846   -0.0980    0.7735 O   0  0  0  0  0  0  0  0  0  0  0  0
    0.1898    0.2899    1.7336 N   0  0  0  0  0  0  0  0  0  0  0  0
   -0.7945    0.4739    1.5678 H   0  0  0  0  0  0  0  0  0  0  0  0
    0.7217    0.4296    3.0828 C   0  0  0  0  0  0  0  0  0  0  0  0
    1.4580    1.2391    3.1228 H   0  0  0  0  0  0  0  0  0  0  0  0
   -0.0847    0.6598    3.7855 H   0  0  0  0  0  0  0  0  0  0  0  0
    1.2031   -0.5010    3.4016 H   0  0  0  0  0  0  0  0  0  0  0  0
  1  2  1  0  0  0  0
  2  3  1  0  0  0  0
  2  4  1  0  0  0  0
  2  5  1  0  0  0  0
  5  6  2  0  0  0  0
  5  7  1  0  0  0  0
  7  8  1  0  0  0  0
  7  9  1  0  0  0  0
  9 10  1  0  0  0  0
  9 11  1  0  0  0  0
  9 18  1  0  0  0  0
 11 12  1  0  0  0  0
 11 13  1  0  0  0  0
 11 14  1  0  0  0  0
 14 15  2  0  0  0  0
 14 16  1  0  0  0  0
 16 17  1  0  0  0  0
 18 19  2  0  0  0  0
 18 20  1  0  0  0  0
 20 21  1  0  0  0  0
 20 22  1  0  0  0  0
 22 23  1  0  0  0  0
 22 24  1  0  0  0  0
 22 25  1  0  0  0  0
M  END
$$$$

  -OEChem-02102214113D

 25 24  0     1  0  0  0  0  0999 V2000
   -2.5294   -3.6741   -0.4208 H   0  0  0  0  0  0  0  0  0  0  0  0
   -2.5553   -2.6083   -0.6652 C   0  0  0  0  0  0  0  0  0  0  0  0
   -3.2058   -2.0994    0.0500 H   0  0  0  0  0  0  0  0  0  0  0  0
   -2.9643   -2.4885   -1.6713 H   0  0  0  0  0  0  0  0  0  0  0  0
   -1.1562   -2.0251   -0.6017 C   0  0  0  0  0  0  0  0  0  0  0  0
   -0.2138   -2.7393   -0.3100 O   0  0  0  0  0  0  0  0  0  0  0  0
   -0.9564   -0.6881   -0.8882 N   0  0  0  0  0  0  0  0  0  0  0  0
   -1.7813   -0.1331   -1.0957 H   0  0  0  0  0  0  0  0  0  0  0  0
    0.3447   -0.0045   -0.7744 C   0  0  1  0  0  0  0  0  0  0  0  0
    1.0564   -0.5783   -1.3803 H   0  0  0  0  0  0  0  0  0  0  0  0
    0.2244    1.3929   -1.4361 C   0  0  0  0  0  0  0  0  0  0  0  0
    0.9520    1.4473   -2.2508 H   0  0  0  0  0  0  0  0  0  0  0  0
   -0.7630    1.5298   -1.8842 H   0  0  0  0  0  0  0  0  0  0  0  0
    0.4953    2.5675   -0.5035 C   0  0  0  0  0  0  0  0  0  0  0  0
   -0.3692    2.8602    0.3072 O   0  0  0  0  0  0  0  0  0  0  0  0
    1.6650    3.2331   -0.6328 O   0  0  0  0  0  0  0  0  0  0  0  0
    1.6783    3.9037    0.0664 H   0  0  0  0  0  0  0  0  0  0  0  0
    0.9578   -0.0202    0.6492 C   0  0  0  0  0  0  0  0  0  0  0  0
    2.1720   -0.0891    0.7795 O   0  0  0  0  0  0  0  0  0  0  0  0
    0.1801    0.2581    1.7589 N   0  0  0  0  0  0  0  0  0  0  0  0
   -0.7850    0.5215    1.5864 H   0  0  0  0  0  0  0  0  0  0  0  0
    0.7356    0.4549    3.0916 C   0  0  0  0  0  0  0  0  0  0  0  0
    1.3991    1.3260    3.1048 H   0  0  0  0  0  0  0  0  0  0  0  0
   -0.0678    0.6182    3.8162 H   0  0  0  0  0  0  0  0  0  0  0  0
    1.3056   -0.4273    3.4022 H   0  0  0  0  0  0  0  0  0  0  0  0
  1  2  1  0  0  0  0
  2  3  1  0  0  0  0
  2  4  1  0  0  0  0
  2  5  1  0  0  0  0
  5  6  2  0  0  0  0
  5  7  1  0  0  0  0
  7  8  1  0  0  0  0
  7  9  1  0  0  0  0
  9 10  1  0  0  0  0
  9 11  1  0  0  0  0
  9 18  1  0  0  0  0
 11 12  1  0  0  0  0
 11 13  1  0  0  0  0
 11 14  1  0  0  0  0
 14 15  2  0  0  0  0
 14 16  1  0  0  0  0
 16 17  1  0  0  0  0
 18 19  2  0  0  0  0
 18 20  1  0  0  0  0
 20 21  1  0  0  0  0
 20 22  1  0  0  0  0
 22 23  1  0  0  0  0
 22 24  1  0  0  0  0
 22 25  1  0  0  0  0
M  END
$$$$

  -OEChem-02102214113D

 25 24  0     1  0  0  0  0  0999 V2000
   -2.5228   -3.6872   -0.4641 H   0  0  0  0  0  0  0  0  0  0  0  0
   -2.5573   -2.6167   -0.6862 C   0  0  0  0  0  0  0  0  0  0  0  0
   -3.2052   -2.1271    0.0446 H   0  0  0  0  0  0  0  0  0  0  0  0
   -2.9755   -2.4788   -1.6861 H   0  0  0  0  0  0  0  0  0  0  0  0
   -1.1611   -2.0265   -0.6216 C   0  0  0  0  0  0  0  0  0  0  0  0
   -0.2123   -2.7419   -0.3535 O   0  0  0  0  0  0  0  0  0  0  0  0
   -0.9702   -0.6826   -0.8807 N   0  0  0  0  0  0  0  0  0  0  0  0
   -1.8010   -0.1254   -1.0559 H   0  0  0  0  0  0  0  0  0  0  0  0
    0.3255    0.0064   -0.7439 C   0  0  1  0  0  0  0  0  0  0  0  0
    1.0387   -0.5763   -1.3401 H   0  0  0  0  0  0  0  0  0  0  0  0
    0.2387    1.3937   -1.4342 C   0  0  0  0  0  0  0  0  0  0  0  0
    0.9934    1.4208   -2.2257 H   0  0  0  0  0  0  0  0  0  0  0  0
   -0.7317    1.5226   -1.9194 H   0  0  0  0  0  0  0  0  0  0  0  0
    0.4819    2.6040   -0.5380 C   0  0  0  0  0  0  0  0  0  0  0  0
   -0.2613    2.7780    0.4145 O   0  0  0  0  0  0  0  0  0  0  0  0
    1.5015    3.4335   -0.8562 O   0  0  0  0  0  0  0  0  0  0  0  0
    1.5317    4.1082   -0.1609 H   0  0  0  0  0  0  0  0  0  0  0  0
    0.9416   -0.0248    0.6783 C   0  0  0  0  0  0  0  0  0  0  0  0
    2.1576   -0.0861    0.7983 O   0  0  0  0  0  0  0  0  0  0  0  0
    0.1706    0.2287    1.7986 N   0  0  0  0  0  0  0  0  0  0  0  0
   -0.7824    0.5346    1.6288 H   0  0  0  0  0  0  0  0  0  0  0  0
    0.7429    0.4347    3.1232 C   0  0  0  0  0  0  0  0  0  0  0  0
    1.3677    1.3338    3.1346 H   0  0  0  0  0  0  0  0  0  0  0  0
   -0.0525    0.5533    3.8651 H   0  0  0  0  0  0  0  0  0  0  0  0
    1.3570   -0.4248    3.4126 H   0  0  0  0  0  0  0  0  0  0  0  0
  1  2  1  0  0  0  0
  2  3  1  0  0  0  0
  2  4  1  0  0  0  0
  2  5  1  0  0  0  0
  5  6  2  0  0  0  0
  5  7  1  0  0  0  0
  7  8  1  0  0  0  0
  7  9  1  0  0  0  0
  9 10  1  0  0  0  0
  9 11  1  0  0  0  0
  9 18  1  0  0  0  0
 11 12  1  0  0  0  0
 11 13  1  0  0  0  0
 11 14  1  0  0  0  0
 14 15  2  0  0  0  0
 14 16  1  0  0  0  0
 16 17  1  0  0  0  0
 18 19  2  0  0  0  0
 18 20  1  0  0  0  0
 20 21  1  0  0  0  0
 20 22  1  0  0  0  0
 22 23  1  0  0  0  0
 22 24  1  0  0  0  0
 22 25  1  0  0  0  0
M  END
$$$$

  -OEChem-02102214113D

 25 24  0     1  0  0  0  0  0999 V2000
   -2.5102   -3.6918   -0.4877 H   0  0  0  0  0  0  0  0  0  0  0  0
   -2.5516   -2.6196   -0.7000 C   0  0  0  0  0  0  0  0  0  0  0  0
   -3.1962   -2.1401    0.0403 H   0  0  0  0  0  0  0  0  0  0  0  0
   -2.9784   -2.4749   -1.6952 H   0  0  0  0  0  0  0  0  0  0  0  0
   -1.1577   -2.0228   -0.6406 C   0  0  0  0  0  0  0  0  0  0  0  0
   -0.2022   -2.7386   -0.3988 O   0  0  0  0  0  0  0  0  0  0  0  0
   -0.9777   -0.6717   -0.8698 N   0  0  0  0  0  0  0  0  0  0  0  0
   -1.8153   -0.1151   -1.0108 H   0  0  0  0  0  0  0  0  0  0  0  0
    0.3125    0.0241   -0.7133 C   0  0  1  0  0  0  0  0  0  0  0  0
    1.0270   -0.5618   -1.3051 H   0  0  0  0  0  0  0  0  0  0  0  0
    0.2477    1.4047   -1.4236 C   0  0  0  0  0  0  0  0  0  0  0  0
    1.0253    1.4107   -2.1931 H   0  0  0  0  0  0  0  0  0  0  0  0
   -0.7073    1.5188   -1.9418 H   0  0  0  0  0  0  0  0  0  0  0  0
    0.4648    2.6542   -0.5713 C   0  0  0  0  0  0  0  0  0  0  0  0
   -0.0984    2.7516    0.5059 O   0  0  0  0  0  0  0  0  0  0  0  0
    1.2706    3.6141   -1.0806 O   0  0  0  0  0  0  0  0  0  0  0  0
    1.3278    4.3063   -0.4043 H   0  0  0  0  0  0  0  0  0  0  0  0
    0.9311   -0.0290    0.7073 C   0  0  0  0  0  0  0  0  0  0  0  0
    2.1479   -0.0916    0.8215 O   0  0  0  0  0  0  0  0  0  0  0  0
    0.1622    0.1949    1.8357 N   0  0  0  0  0  0  0  0  0  0  0  0
   -0.7863    0.5164    1.6727 H   0  0  0  0  0  0  0  0  0  0  0  0
    0.7419    0.3878    3.1588 C   0  0  0  0  0  0  0  0  0  0  0  0
    1.3677    1.2862    3.1746 H   0  0  0  0  0  0  0  0  0  0  0  0
   -0.0493    0.5011    3.9061 H   0  0  0  0  0  0  0  0  0  0  0  0
    1.3562   -0.4751    3.4368 H   0  0  0  0  0  0  0  0  0  0  0  0
  1  2  1  0  0  0  0
  2  3  1  0  0  0  0
  2  4  1  0  0  0  0
  2  5  1  0  0  0  0
  5  6  2  0  0  0  0
  5  7  1  0  0  0  0
  7  8  1  0  0  0  0
  7  9  1  0  0  0  0
  9 10  1  0  0  0  0
  9 11  1  0  0  0  0
  9 18  1  0  0  0  0
 11 12  1  0  0  0  0
 11 13  1  0  0  0  0
 11 14  1  0  0  0  0
 14 15  2  0  0  0  0
 14 16  1  0  0  0  0
 16 17  1  0  0  0  0
 18 19  2  0  0  0  0
 18 20  1  0  0  0  0
 20 21  1  0  0  0  0
 20 22  1  0  0  0  0
 22 23  1  0  0  0  0
 22 24  1  0  0  0  0
 22 25  1  0  0  0  0
M  END
$$$$

  -OEChem-02102214113D

 25 24  0     1  0  0  0  0  0999 V2000
   -2.5067   -3.6906   -0.5327 H   0  0  0  0  0  0  0  0  0  0  0  0
   -2.5500   -2.6141   -0.7221 C   0  0  0  0  0  0  0  0  0  0  0  0
   -3.2013   -2.1526    0.0239 H   0  0  0  0  0  0  0  0  0  0  0  0
   -2.9697   -2.4495   -1.7174 H   0  0  0  0  0  0  0  0  0  0  0  0
   -1.1586   -2.0148   -0.6400 C   0  0  0  0  0  0  0  0  0  0  0  0
   -0.2036   -2.7325   -0.4026 O   0  0  0  0  0  0  0  0  0  0  0  0
   -0.9809   -0.6599   -0.8475 N   0  0  0  0  0  0  0  0  0  0  0  0
   -1.8182   -0.1046   -0.9941 H   0  0  0  0  0  0  0  0  0  0  0  0
    0.3080    0.0368   -0.6840 C   0  0  1  0  0  0  0  0  0  0  0  0
    1.0209   -0.5488   -1.2782 H   0  0  0  0  0  0  0  0  0  0  0  0
    0.2470    1.4162   -1.4021 C   0  0  0  0  0  0  0  0  0  0  0  0
    1.0315    1.4118   -2.1647 H   0  0  0  0  0  0  0  0  0  0  0  0
   -0.7026    1.5168   -1.9329 H   0  0  0  0  0  0  0  0  0  0  0  0
    0.4512    2.6979   -0.5913 C   0  0  0  0  0  0  0  0  0  0  0  0
    0.1261    2.7536    0.5813 O   0  0  0  0  0  0  0  0  0  0  0  0
    0.9794    3.7463   -1.2631 O   0  0  0  0  0  0  0  0  0  0  0  0
    1.0726    4.4609   -0.6144 H   0  0  0  0  0  0  0  0  0  0  0  0
    0.9310   -0.0378    0.7336 C   0  0  0  0  0  0  0  0  0  0  0  0
    2.1478   -0.1135    0.8428 O   0  0  0  0  0  0  0  0  0  0  0  0
    0.1640    0.1657    1.8674 N   0  0  0  0  0  0  0  0  0  0  0  0
   -0.7850    0.4880    1.7120 H   0  0  0  0  0  0  0  0  0  0  0  0
    0.7479    0.3420    3.1909 C   0  0  0  0  0  0  0  0  0  0  0  0
    1.3563    1.2520    3.2218 H   0  0  0  0  0  0  0  0  0  0  0  0
   -0.0414    0.4245    3.9440 H   0  0  0  0  0  0  0  0  0  0  0  0
    1.3803   -0.5144    3.4484 H   0  0  0  0  0  0  0  0  0  0  0  0
  1  2  1  0  0  0  0
  2  3  1  0  0  0  0
  2  4  1  0  0  0  0
  2  5  1  0  0  0  0
  5  6  2  0  0  0  0
  5  7  1  0  0  0  0
  7  8  1  0  0  0  0
  7  9  1  0  0  0  0
  9 10  1  0  0  0  0
  9 11  1  0  0  0  0
  9 18  1  0  0  0  0
 11 12  1  0  0  0  0
 11 13  1  0  0  0  0
 11 14  1  0  0  0  0
 14 15  2  0  0  0  0
 14 16  1  0  0  0  0
 16 17  1  0  0  0  0
 18 19  2  0  0  0  0
 18 20  1  0  0  0  0
 20 21  1  0  0  0  0
 20 22  1  0  0  0  0
 22 23  1  0  0  0  0
 22 24  1  0  0  0  0
 22 25  1  0  0  0  0
M  END
$$$$

  -OEChem-02102214113D

 25 24  0     1  0  0  0  0  0999 V2000
   -2.5056   -3.6810   -0.5421 H   0  0  0  0  0  0  0  0  0  0  0  0
   -2.5477   -2.6038   -0.7266 C   0  0  0  0  0  0  0  0  0  0  0  0
   -3.2030   -2.1456    0.0177 H   0  0  0  0  0  0  0  0  0  0  0  0
   -2.9623   -2.4345   -1.7232 H   0  0  0  0  0  0  0  0  0  0  0  0
   -1.1565   -2.0050   -0.6341 C   0  0  0  0  0  0  0  0  0  0  0  0
   -0.2025   -2.7246   -0.3992 O   0  0  0  0  0  0  0  0  0  0  0  0
   -0.9777   -0.6486   -0.8307 N   0  0  0  0  0  0  0  0  0  0  0  0
   -1.8129   -0.0943   -0.9918 H   0  0  0  0  0  0  0  0  0  0  0  0
    0.3129    0.0472   -0.6695 C   0  0  1  0  0  0  0  0  0  0  0  0
    1.0236   -0.5333   -1.2711 H   0  0  0  0  0  0  0  0  0  0  0  0
    0.2402    1.4306   -1.3831 C   0  0  0  0  0  0  0  0  0  0  0  0
    1.0200    1.4273   -2.1503 H   0  0  0  0  0  0  0  0  0  0  0  0
   -0.7126    1.5200   -1.9100 H   0  0  0  0  0  0  0  0  0  0  0  0
    0.4402    2.7324   -0.6000 C   0  0  0  0  0  0  0  0  0  0  0  0
    0.3913    2.7678    0.6151 O   0  0  0  0  0  0  0  0  0  0  0  0
    0.6490    3.8320   -1.3596 O   0  0  0  0  0  0  0  0  0  0  0  0
    0.7854    4.5637   -0.7379 H   0  0  0  0  0  0  0  0  0  0  0  0
    0.9383   -0.0439    0.7458 C   0  0  0  0  0  0  0  0  0  0  0  0
    2.1538   -0.1430    0.8536 O   0  0  0  0  0  0  0  0  0  0  0  0
    0.1710    0.1489    1.8816 N   0  0  0  0  0  0  0  0  0  0  0  0
   -0.7863    0.4476    1.7345 H   0  0  0  0  0  0  0  0  0  0  0  0
    0.7525    0.2978    3.2096 C   0  0  0  0  0  0  0  0  0  0  0  0
    1.3755    1.1973    3.2546 H   0  0  0  0  0  0  0  0  0  0  0  0
   -0.0377    0.3836    3.9612 H   0  0  0  0  0  0  0  0  0  0  0  0
    1.3700   -0.5724    3.4574 H   0  0  0  0  0  0  0  0  0  0  0  0
  1  2  1  0  0  0  0
  2  3  1  0  0  0  0
  2  4  1  0  0  0  0
  2  5  1  0  0  0  0
  5  6  2  0  0  0  0
  5  7  1  0  0  0  0
  7  8  1  0  0  0  0
  7  9  1  0  0  0  0
  9 10  1  0  0  0  0
  9 11  1  0  0  0  0
  9 18  1  0  0  0  0
 11 12  1  0  0  0  0
 11 13  1  0  0  0  0
 11 14  1  0  0  0  0
 14 15  2  0  0  0  0
 14 16  1  0  0  0  0
 16 17  1  0  0  0  0
 18 19  2  0  0  0  0
 18 20  1  0  0  0  0
 20 21  1  0  0  0  0
 20 22  1  0  0  0  0
 22 23  1  0  0  0  0
 22 24  1  0  0  0  0
 22 25  1  0  0  0  0
M  END
$$$$

  -OEChem-02102214113D

 25 24  0     1  0  0  0  0  0999 V2000
   -2.5070   -3.6671   -0.5254 H   0  0  0  0  0  0  0  0  0  0  0  0
   -2.5440   -2.5907   -0.7165 C   0  0  0  0  0  0  0  0  0  0  0  0
   -3.2043   -2.1260    0.0194 H   0  0  0  0  0  0  0  0  0  0  0  0
   -2.9488   -2.4255   -1.7177 H   0  0  0  0  0  0  0  0  0  0  0  0
   -1.1517   -1.9963   -0.6154 C   0  0  0  0  0  0  0  0  0  0  0  0
   -0.2018   -2.7183   -0.3724 O   0  0  0  0  0  0  0  0  0  0  0  0
   -0.9681   -0.6415   -0.8190 N   0  0  0  0  0  0  0  0  0  0  0  0
   -1.7994   -0.0876   -1.0001 H   0  0  0  0  0  0  0  0  0  0  0  0
    0.3267    0.0506   -0.6715 C   0  0  1  0  0  0  0  0  0  0  0  0
    1.0358   -0.5230   -1.2817 H   0  0  0  0  0  0  0  0  0  0  0  0
    0.2279    1.4403   -1.3733 C   0  0  0  0  0  0  0  0  0  0  0  0
    0.9874    1.4475   -2.1602 H   0  0  0  0  0  0  0  0  0  0  0  0
   -0.7384    1.5223   -1.8770 H   0  0  0  0  0  0  0  0  0  0  0  0
    0.4326    2.7483   -0.5995 C   0  0  0  0  0  0  0  0  0  0  0  0
    0.6789    2.7763    0.5907 O   0  0  0  0  0  0  0  0  0  0  0  0
    0.3032    3.8681   -1.3468 O   0  0  0  0  0  0  0  0  0  0  0  0
    0.4843    4.6087   -0.7472 H   0  0  0  0  0  0  0  0  0  0  0  0
    0.9507   -0.0453    0.7436 C   0  0  0  0  0  0  0  0  0  0  0  0
    2.1622   -0.1807    0.8554 O   0  0  0  0  0  0  0  0  0  0  0  0
    0.1811    0.1528    1.8770 N   0  0  0  0  0  0  0  0  0  0  0  0
   -0.7825    0.4314    1.7336 H   0  0  0  0  0  0  0  0  0  0  0  0
    0.7554    0.2655    3.2113 C   0  0  0  0  0  0  0  0  0  0  0  0
    1.4145    1.1380    3.2704 H   0  0  0  0  0  0  0  0  0  0  0  0
   -0.0374    0.3769    3.9569 H   0  0  0  0  0  0  0  0  0  0  0  0
    1.3344   -0.6315    3.4556 H   0  0  0  0  0  0  0  0  0  0  0  0
  1  2  1  0  0  0  0
  2  3  1  0  0  0  0
  2  4  1  0  0  0  0
  2  5  1  0  0  0  0
  5  6  2  0  0  0  0
  5  7  1  0  0  0  0
  7  8  1  0  0  0  0
  7  9  1  0  0  0  0
  9 10  1  0  0  0  0
  9 11  1  0  0  0  0
  9 18  1  0  0  0  0
 11 12  1  0  0  0  0
 11 13  1  0  0  0  0
 11 14  1  0  0  0  0
 14 15  2  0  0  0  0
 14 16  1  0  0  0  0
 16 17  1  0  0  0  0
 18 19  2  0  0  0  0
 18 20  1  0  0  0  0
 20 21  1  0  0  0  0
 20 22  1  0  0  0  0
 22 23  1  0  0  0  0
 22 24  1  0  0  0  0
 22 25  1  0  0  0  0
M  END
$$$$

  -OEChem-02102214113D

 25 24  0     1  0  0  0  0  0999 V2000
   -2.5031   -3.6492   -0.4640 H   0  0  0  0  0  0  0  0  0  0  0  0
   -2.5340   -2.5782   -0.6844 C   0  0  0  0  0  0  0  0  0  0  0  0
   -3.1981   -2.0912    0.0334 H   0  0  0  0  0  0  0  0  0  0  0  0
   -2.9307   -2.4384   -1.6928 H   0  0  0  0  0  0  0  0  0  0  0  0
   -1.1403   -1.9866   -0.5881 C   0  0  0  0  0  0  0  0  0  0  0  0
   -0.1951   -2.7063   -0.3213 O   0  0  0  0  0  0  0  0  0  0  0  0
   -0.9522   -0.6360   -0.8150 N   0  0  0  0  0  0  0  0  0  0  0  0
   -1.7785   -0.0873   -1.0323 H   0  0  0  0  0  0  0  0  0  0  0  0
    0.3461    0.0550   -0.6896 C   0  0  1  0  0  0  0  0  0  0  0  0
    1.0546   -0.5124   -1.3060 H   0  0  0  0  0  0  0  0  0  0  0  0
    0.2144    1.4492   -1.3788 C   0  0  0  0  0  0  0  0  0  0  0  0
    0.9496    1.4704   -2.1878 H   0  0  0  0  0  0  0  0  0  0  0  0
   -0.7671    1.5246   -1.8536 H   0  0  0  0  0  0  0  0  0  0  0  0
    0.4288    2.7542   -0.6011 C   0  0  0  0  0  0  0  0  0  0  0  0
    0.9605    2.7905    0.4911 O   0  0  0  0  0  0  0  0  0  0  0  0
   -0.0282    3.8617   -1.2290 O   0  0  0  0  0  0  0  0  0  0  0  0
    0.1956    4.6055   -0.6478 H   0  0  0  0  0  0  0  0  0  0  0  0
    0.9674   -0.0290    0.7272 C   0  0  0  0  0  0  0  0  0  0  0  0
    2.1734   -0.1993    0.8475 O   0  0  0  0  0  0  0  0  0  0  0  0
    0.1937    0.1874    1.8543 N   0  0  0  0  0  0  0  0  0  0  0  0
   -0.7853    0.4058    1.7125 H   0  0  0  0  0  0  0  0  0  0  0  0
    0.7467    0.2331    3.2013 C   0  0  0  0  0  0  0  0  0  0  0  0
    1.4786    1.0433    3.2861 H   0  0  0  0  0  0  0  0  0  0  0  0
   -0.0486    0.4061    3.9322 H   0  0  0  0  0  0  0  0  0  0  0  0
    1.2399   -0.7142    3.4440 H   0  0  0  0  0  0  0  0  0  0  0  0
  1  2  1  0  0  0  0
  2  3  1  0  0  0  0
  2  4  1  0  0  0  0
  2  5  1  0  0  0  0
  5  6  2  0  0  0  0
  5  7  1  0  0  0  0
  7  8  1  0  0  0  0
  7  9  1  0  0  0  0
  9 10  1  0  0  0  0
  9 11  1  0  0  0  0
  9 18  1  0  0  0  0
 11 12  1  0  0  0  0
 11 13  1  0  0  0  0
 11 14  1  0  0  0  0
 14 15  2  0  0  0  0
 14 16  1  0  0  0  0
 16 17  1  0  0  0  0
 18 19  2  0  0  0  0
 18 20  1  0  0  0  0
 20 21  1  0  0  0  0
 20 22  1  0  0  0  0
 22 23  1  0  0  0  0
 22 24  1  0  0  0  0
 22 25  1  0  0  0  0
M  END
$$$$

  -OEChem-02102214113D

 25 24  0     1  0  0  0  0  0999 V2000
   -2.4993   -3.6438   -0.4239 H   0  0  0  0  0  0  0  0  0  0  0  0
   -2.5276   -2.5759   -0.6595 C   0  0  0  0  0  0  0  0  0  0  0  0
   -3.2008   -2.0793    0.0432 H   0  0  0  0  0  0  0  0  0  0  0  0
   -2.9119   -2.4510   -1.6747 H   0  0  0  0  0  0  0  0  0  0  0  0
   -1.1349   -1.9826   -0.5544 C   0  0  0  0  0  0  0  0  0  0  0  0
   -0.1963   -2.6967   -0.2534 O   0  0  0  0  0  0  0  0  0  0  0  0
   -0.9400   -0.6388   -0.8143 N   0  0  0  0  0  0  0  0  0  0  0  0
   -1.7575   -0.1001   -1.0838 H   0  0  0  0  0  0  0  0  0  0  0  0
    0.3623    0.0506   -0.7140 C   0  0  1  0  0  0  0  0  0  0  0  0
    1.0704   -0.5128   -1.3340 H   0  0  0  0  0  0  0  0  0  0  0  0
    0.1998    1.4478   -1.3902 C   0  0  0  0  0  0  0  0  0  0  0  0
    0.9110    1.4853   -2.2199 H   0  0  0  0  0  0  0  0  0  0  0  0
   -0.7953    1.5229   -1.8362 H   0  0  0  0  0  0  0  0  0  0  0  0
    0.4319    2.7368   -0.5917 C   0  0  0  0  0  0  0  0  0  0  0  0
    1.2154    2.7930    0.3359 O   0  0  0  0  0  0  0  0  0  0  0  0
   -0.3043    3.7983   -0.9938 O   0  0  0  0  0  0  0  0  0  0  0  0
   -0.0363    4.5341   -0.4209 H   0  0  0  0  0  0  0  0  0  0  0  0
    0.9812   -0.0092    0.7050 C   0  0  0  0  0  0  0  0  0  0  0  0
    2.1820   -0.2049    0.8361 O   0  0  0  0  0  0  0  0  0  0  0  0
    0.2029    0.2355    1.8231 N   0  0  0  0  0  0  0  0  0  0  0  0
   -0.7877    0.3905    1.6785 H   0  0  0  0  0  0  0  0  0  0  0  0
    0.7369    0.2401    3.1784 C   0  0  0  0  0  0  0  0  0  0  0  0
    1.5101    1.0089    3.2808 H   0  0  0  0  0  0  0  0  0  0  0  0
   -0.0585    0.4506    3.8995 H   0  0  0  0  0  0  0  0  0  0  0  0
    1.1744   -0.7345    3.4193 H   0  0  0  0  0  0  0  0  0  0  0  0
  1  2  1  0  0  0  0
  2  3  1  0  0  0  0
  2  4  1  0  0  0  0
  2  5  1  0  0  0  0
  5  6  2  0  0  0  0
  5  7  1  0  0  0  0
  7  8  1  0  0  0  0
  7  9  1  0  0  0  0
  9 10  1  0  0  0  0
  9 11  1  0  0  0  0
  9 18  1  0  0  0  0
 11 12  1  0  0  0  0
 11 13  1  0  0  0  0
 11 14  1  0  0  0  0
 14 15  2  0  0  0  0
 14 16  1  0  0  0  0
 16 17  1  0  0  0  0
 18 19  2  0  0  0  0
 18 20  1  0  0  0  0
 20 21  1  0  0  0  0
 20 22  1  0  0  0  0
 22 23  1  0  0  0  0
 22 24  1  0  0  0  0
 22 25  1  0  0  0  0
M  END
$$$$

  -OEChem-02102214113D

 25 24  0     1  0  0  0  0  0999 V2000
   -2.4941   -3.6426   -0.3908 H   0  0  0  0  0  0  0  0  0  0  0  0
   -2.5199   -2.5786   -0.6433 C   0  0  0  0  0  0  0  0  0  0  0  0
   -3.2011   -2.0710    0.0435 H   0  0  0  0  0  0  0  0  0  0  0  0
   -2.8925   -2.4692   -1.6646 H   0  0  0  0  0  0  0  0  0  0  0  0
   -1.1292   -1.9829   -0.5311 C   0  0  0  0  0  0  0  0  0  0  0  0
   -0.1958   -2.6874   -0.1933 O   0  0  0  0  0  0  0  0  0  0  0  0
   -0.9314   -0.6462   -0.8225 N   0  0  0  0  0  0  0  0  0  0  0  0
   -1.7435   -0.1181   -1.1271 H   0  0  0  0  0  0  0  0  0  0  0  0
    0.3715    0.0440   -0.7394 C   0  0  1  0  0  0  0  0  0  0  0  0
    1.0816   -0.5167   -1.3594 H   0  0  0  0  0  0  0  0  0  0  0  0
    0.1868    1.4410   -1.4059 C   0  0  0  0  0  0  0  0  0  0  0  0
    0.8828    1.4938   -2.2474 H   0  0  0  0  0  0  0  0  0  0  0  0
   -0.8166    1.5207   -1.8318 H   0  0  0  0  0  0  0  0  0  0  0  0
    0.4348    2.7042   -0.5756 C   0  0  0  0  0  0  0  0  0  0  0  0
    1.4108    2.8051    0.1426 O   0  0  0  0  0  0  0  0  0  0  0  0
   -0.5038    3.6729   -0.6833 O   0  0  0  0  0  0  0  0  0  0  0  0
   -0.1974    4.3964   -0.1138 H   0  0  0  0  0  0  0  0  0  0  0  0
    0.9874    0.0146    0.6819 C   0  0  0  0  0  0  0  0  0  0  0  0
    2.1855   -0.1881    0.8235 O   0  0  0  0  0  0  0  0  0  0  0  0
    0.2044    0.2862    1.7903 N   0  0  0  0  0  0  0  0  0  0  0  0
   -0.7940    0.3776    1.6420 H   0  0  0  0  0  0  0  0  0  0  0  0
    0.7245    0.2685    3.1512 C   0  0  0  0  0  0  0  0  0  0  0  0
    1.5318    1.0004    3.2606 H   0  0  0  0  0  0  0  0  0  0  0  0
   -0.0668    0.5189    3.8638 H   0  0  0  0  0  0  0  0  0  0  0  0
    1.1135   -0.7249    3.3984 H   0  0  0  0  0  0  0  0  0  0  0  0
  1  2  1  0  0  0  0
  2  3  1  0  0  0  0
  2  4  1  0  0  0  0
  2  5  1  0  0  0  0
  5  6  2  0  0  0  0
  5  7  1  0  0  0  0
  7  8  1  0  0  0  0
  7  9  1  0  0  0  0
  9 10  1  0  0  0  0
  9 11  1  0  0  0  0
  9 18  1  0  0  0  0
 11 12  1  0  0  0  0
 11 13  1  0  0  0  0
 11 14  1  0  0  0  0
 14 15  2  0  0  0  0
 14 16  1  0  0  0  0
 16 17  1  0  0  0  0
 18 19  2  0  0  0  0
 18 20  1  0  0  0  0
 20 21  1  0  0  0  0
 20 22  1  0  0  0  0
 22 23  1  0  0  0  0
 22 24  1  0  0  0  0
 22 25  1  0  0  0  0
M  END
$$$$

  -OEChem-02102214113D

 25 24  0     1  0  0  0  0  0999 V2000
   -2.4836   -3.6500   -0.3654 H   0  0  0  0  0  0  0  0  0  0  0  0
   -2.5126   -2.5892   -0.6305 C   0  0  0  0  0  0  0  0  0  0  0  0
   -3.1968   -2.0761    0.0495 H   0  0  0  0  0  0  0  0  0  0  0  0
   -2.8840   -2.4932   -1.6535 H   0  0  0  0  0  0  0  0  0  0  0  0
   -1.1240   -1.9872   -0.5225 C   0  0  0  0  0  0  0  0  0  0  0  0
   -0.1916   -2.6813   -0.1616 O   0  0  0  0  0  0  0  0  0  0  0  0
   -0.9283   -0.6556   -0.8375 N   0  0  0  0  0  0  0  0  0  0  0  0
   -1.7383   -0.1379   -1.1651 H   0  0  0  0  0  0  0  0  0  0  0  0
    0.3729    0.0387   -0.7641 C   0  0  1  0  0  0  0  0  0  0  0  0
    1.0869   -0.5193   -1.3820 H   0  0  0  0  0  0  0  0  0  0  0  0
    0.1770    1.4356   -1.4208 C   0  0  0  0  0  0  0  0  0  0  0  0
    0.8645    1.5032   -2.2685 H   0  0  0  0  0  0  0  0  0  0  0  0
   -0.8318    1.5264   -1.8317 H   0  0  0  0  0  0  0  0  0  0  0  0
    0.4402    2.6645   -0.5502 C   0  0  0  0  0  0  0  0  0  0  0  0
    1.5399    2.8441   -0.0619 O   0  0  0  0  0  0  0  0  0  0  0  0
   -0.6100    3.4910   -0.3389 O   0  0  0  0  0  0  0  0  0  0  0  0
   -0.2703    4.2017    0.2280 H   0  0  0  0  0  0  0  0  0  0  0  0
    0.9867    0.0368    0.6586 C   0  0  0  0  0  0  0  0  0  0  0  0
    2.1852   -0.1542    0.8087 O   0  0  0  0  0  0  0  0  0  0  0  0
    0.1988    0.3275    1.7586 N   0  0  0  0  0  0  0  0  0  0  0  0
   -0.8010    0.3936    1.6043 H   0  0  0  0  0  0  0  0  0  0  0  0
    0.7076    0.3062    3.1239 C   0  0  0  0  0  0  0  0  0  0  0  0
    1.5308    1.0198    3.2361 H   0  0  0  0  0  0  0  0  0  0  0  0
   -0.0839    0.5789    3.8281 H   0  0  0  0  0  0  0  0  0  0  0  0
    1.0715   -0.6943    3.3806 H   0  0  0  0  0  0  0  0  0  0  0  0
  1  2  1  0  0  0  0
  2  3  1  0  0  0  0
  2  4  1  0  0  0  0
  2  5  1  0  0  0  0
  5  6  2  0  0  0  0
  5  7  1  0  0  0  0
  7  8  1  0  0  0  0
  7  9  1  0  0  0  0
  9 10  1  0  0  0  0
  9 11  1  0  0  0  0
  9 18  1  0  0  0  0
 11 12  1  0  0  0  0
 11 13  1  0  0  0  0
 11 14  1  0  0  0  0
 14 15  2  0  0  0  0
 14 16  1  0  0  0  0
 16 17  1  0  0  0  0
 18 19  2  0  0  0  0
 18 20  1  0  0  0  0
 20 21  1  0  0  0  0
 20 22  1  0  0  0  0
 22 23  1  0  0  0  0
 22 24  1  0  0  0  0
 22 25  1  0  0  0  0
M  END
$$$$

  -OEChem-02102214113D

 25 24  0     1  0  0  0  0  0999 V2000
   -2.4754   -3.6631   -0.3611 H   0  0  0  0  0  0  0  0  0  0  0  0
   -2.5107   -2.6039   -0.6322 C   0  0  0  0  0  0  0  0  0  0  0  0
   -3.1970   -2.0904    0.0452 H   0  0  0  0  0  0  0  0  0  0  0  0
   -2.8831   -2.5164   -1.6556 H   0  0  0  0  0  0  0  0  0  0  0  0
   -1.1253   -1.9941   -0.5289 C   0  0  0  0  0  0  0  0  0  0  0  0
   -0.1892   -2.6805   -0.1624 O   0  0  0  0  0  0  0  0  0  0  0  0
   -0.9342   -0.6640   -0.8528 N   0  0  0  0  0  0  0  0  0  0  0  0
   -1.7467   -0.1480   -1.1770 H   0  0  0  0  0  0  0  0  0  0  0  0
    0.3649    0.0334   -0.7793 C   0  0  1  0  0  0  0  0  0  0  0  0
    1.0814   -0.5238   -1.3951 H   0  0  0  0  0  0  0  0  0  0  0  0
    0.1734    1.4314   -1.4289 C   0  0  0  0  0  0  0  0  0  0  0  0
    0.8600    1.5071   -2.2768 H   0  0  0  0  0  0  0  0  0  0  0  0
   -0.8364    1.5377   -1.8330 H   0  0  0  0  0  0  0  0  0  0  0  0
    0.4483    2.6275   -0.5217 C   0  0  0  0  0  0  0  0  0  0  0  0
    1.5980    2.9253   -0.2564 O   0  0  0  0  0  0  0  0  0  0  0  0
   -0.6270    3.2750   -0.0158 O   0  0  0  0  0  0  0  0  0  0  0  0
   -0.2631    3.9776    0.5464 H   0  0  0  0  0  0  0  0  0  0  0  0
    0.9780    0.0454    0.6440 C   0  0  0  0  0  0  0  0  0  0  0  0
    2.1812   -0.1108    0.7943 O   0  0  0  0  0  0  0  0  0  0  0  0
    0.1889    0.3429    1.7413 N   0  0  0  0  0  0  0  0  0  0  0  0
   -0.8114    0.4064    1.5862 H   0  0  0  0  0  0  0  0  0  0  0  0
    0.6987    0.3476    3.1063 C   0  0  0  0  0  0  0  0  0  0  0  0
    1.5171    1.0685    3.2065 H   0  0  0  0  0  0  0  0  0  0  0  0
   -0.0943    0.6264    3.8067 H   0  0  0  0  0  0  0  0  0  0  0  0
    1.0694   -0.6464    3.3785 H   0  0  0  0  0  0  0  0  0  0  0  0
  1  2  1  0  0  0  0
  2  3  1  0  0  0  0
  2  4  1  0  0  0  0
  2  5  1  0  0  0  0
  5  6  2  0  0  0  0
  5  7  1  0  0  0  0
  7  8  1  0  0  0  0
  7  9  1  0  0  0  0
  9 10  1  0  0  0  0
  9 11  1  0  0  0  0
  9 18  1  0  0  0  0
 11 12  1  0  0  0  0
 11 13  1  0  0  0  0
 11 14  1  0  0  0  0
 14 15  2  0  0  0  0
 14 16  1  0  0  0  0
 16 17  1  0  0  0  0
 18 19  2  0  0  0  0
 18 20  1  0  0  0  0
 20 21  1  0  0  0  0
 20 22  1  0  0  0  0
 22 23  1  0  0  0  0
 22 24  1  0  0  0  0
 22 25  1  0  0  0  0
M  END
$$$$

  -OEChem-02102214113D

 25 24  0     1  0  0  0  0  0999 V2000
   -2.4785   -3.6770   -0.3886 H   0  0  0  0  0  0  0  0  0  0  0  0
   -2.5161   -2.6152   -0.6488 C   0  0  0  0  0  0  0  0  0  0  0  0
   -3.2052   -2.1108    0.0328 H   0  0  0  0  0  0  0  0  0  0  0  0
   -2.8869   -2.5179   -1.6720 H   0  0  0  0  0  0  0  0  0  0  0  0
   -1.1326   -2.0025   -0.5365 C   0  0  0  0  0  0  0  0  0  0  0  0
   -0.1957   -2.6878   -0.1694 O   0  0  0  0  0  0  0  0  0  0  0  0
   -0.9437   -0.6709   -0.8544 N   0  0  0  0  0  0  0  0  0  0  0  0
   -1.7584   -0.1530   -1.1698 H   0  0  0  0  0  0  0  0  0  0  0  0
    0.3534    0.0286   -0.7761 C   0  0  1  0  0  0  0  0  0  0  0  0
    1.0690   -0.5308   -1.3912 H   0  0  0  0  0  0  0  0  0  0  0  0
    0.1759    1.4264   -1.4261 C   0  0  0  0  0  0  0  0  0  0  0  0
    0.8658    1.5003   -2.2721 H   0  0  0  0  0  0  0  0  0  0  0  0
   -0.8329    1.5436   -1.8295 H   0  0  0  0  0  0  0  0  0  0  0  0
    0.4548    2.6063   -0.5011 C   0  0  0  0  0  0  0  0  0  0  0  0
    1.5837    3.0574   -0.4398 O   0  0  0  0  0  0  0  0  0  0  0  0
   -0.5839    3.0826    0.2249 O   0  0  0  0  0  0  0  0  0  0  0  0
   -0.2142    3.8037    0.7592 H   0  0  0  0  0  0  0  0  0  0  0  0
    0.9712    0.0399    0.6452 C   0  0  0  0  0  0  0  0  0  0  0  0
    2.1800   -0.0742    0.7856 O   0  0  0  0  0  0  0  0  0  0  0  0
    0.1877    0.3319    1.7475 N   0  0  0  0  0  0  0  0  0  0  0  0
   -0.8121    0.4120    1.5954 H   0  0  0  0  0  0  0  0  0  0  0  0
    0.7068    0.3644    3.1087 C   0  0  0  0  0  0  0  0  0  0  0  0
    1.4987    1.1154    3.1990 H   0  0  0  0  0  0  0  0  0  0  0  0
   -0.0912    0.6176    3.8130 H   0  0  0  0  0  0  0  0  0  0  0  0
    1.1156   -0.6136    3.3844 H   0  0  0  0  0  0  0  0  0  0  0  0
  1  2  1  0  0  0  0
  2  3  1  0  0  0  0
  2  4  1  0  0  0  0
  2  5  1  0  0  0  0
  5  6  2  0  0  0  0
  5  7  1  0  0  0  0
  7  8  1  0  0  0  0
  7  9  1  0  0  0  0
  9 10  1  0  0  0  0
  9 11  1  0  0  0  0
  9 18  1  0  0  0  0
 11 12  1  0  0  0  0
 11 13  1  0  0  0  0
 11 14  1  0  0  0  0
 14 15  2  0  0  0  0
 14 16  1  0  0  0  0
 16 17  1  0  0  0  0
 18 19  2  0  0  0  0
 18 20  1  0  0  0  0
 20 21  1  0  0  0  0
 20 22  1  0  0  0  0
 22 23  1  0  0  0  0
 22 24  1  0  0  0  0
 22 25  1  0  0  0  0
M  END
$$$$

  -OEChem-02102214113D

 25 24  0     1  0  0  0  0  0999 V2000
   -2.4983   -3.6864   -0.4216 H   0  0  0  0  0  0  0  0  0  0  0  0
   -2.5313   -2.6232   -0.6767 C   0  0  0  0  0  0  0  0  0  0  0  0
   -3.2175   -2.1188    0.0077 H   0  0  0  0  0  0  0  0  0  0  0  0
   -2.9025   -2.5193   -1.6990 H   0  0  0  0  0  0  0  0  0  0  0  0
   -1.1447   -2.0173   -0.5650 C   0  0  0  0  0  0  0  0  0  0  0  0
   -0.2044   -2.7136   -0.2278 O   0  0  0  0  0  0  0  0  0  0  0  0
   -0.9551   -0.6799   -0.8568 N   0  0  0  0  0  0  0  0  0  0  0  0
   -1.7741   -0.1482   -1.1356 H   0  0  0  0  0  0  0  0  0  0  0  0
    0.3420    0.0158   -0.7618 C   0  0  1  0  0  0  0  0  0  0  0  0
    1.0542   -0.5450   -1.3794 H   0  0  0  0  0  0  0  0  0  0  0  0
    0.1893    1.4174   -1.4085 C   0  0  0  0  0  0  0  0  0  0  0  0
    0.8905    1.4848   -2.2459 H   0  0  0  0  0  0  0  0  0  0  0  0
   -0.8135    1.5462   -1.8228 H   0  0  0  0  0  0  0  0  0  0  0  0
    0.4654    2.5901   -0.4733 C   0  0  0  0  0  0  0  0  0  0  0  0
    1.5114    3.2022   -0.5894 O   0  0  0  0  0  0  0  0  0  0  0  0
   -0.5041    2.9224    0.4123 O   0  0  0  0  0  0  0  0  0  0  0  0
   -0.1488    3.6773    0.9085 H   0  0  0  0  0  0  0  0  0  0  0  0
    0.9660    0.0048    0.6568 C   0  0  0  0  0  0  0  0  0  0  0  0
    2.1791   -0.0738    0.7844 O   0  0  0  0  0  0  0  0  0  0  0  0
    0.1913    0.2779    1.7697 N   0  0  0  0  0  0  0  0  0  0  0  0
   -0.8015    0.4238    1.6187 H   0  0  0  0  0  0  0  0  0  0  0  0
    0.7321    0.3813    3.1187 C   0  0  0  0  0  0  0  0  0  0  0  0
    1.4711    1.1875    3.1750 H   0  0  0  0  0  0  0  0  0  0  0  0
   -0.0689    0.5959    3.8323 H   0  0  0  0  0  0  0  0  0  0  0  0
    1.2126   -0.5586    3.4104 H   0  0  0  0  0  0  0  0  0  0  0  0
  1  2  1  0  0  0  0
  2  3  1  0  0  0  0
  2  4  1  0  0  0  0
  2  5  1  0  0  0  0
  5  6  2  0  0  0  0
  5  7  1  0  0  0  0
  7  8  1  0  0  0  0
  7  9  1  0  0  0  0
  9 10  1  0  0  0  0
  9 11  1  0  0  0  0
  9 18  1  0  0  0  0
 11 12  1  0  0  0  0
 11 13  1  0  0  0  0
 11 14  1  0  0  0  0
 14 15  2  0  0  0  0
 14 16  1  0  0  0  0
 16 17  1  0  0  0  0
 18 19  2  0  0  0  0
 18 20  1  0  0  0  0
 20 21  1  0  0  0  0
 20 22  1  0  0  0  0
 22 23  1  0  0  0  0
 22 24  1  0  0  0  0
 22 25  1  0  0  0  0
M  END
$$$$

  -OEChem-02102214113D

 25 24  0     1  0  0  0  0  0999 V2000
   -2.5099   -3.6903   -0.4620 H   0  0  0  0  0  0  0  0  0  0  0  0
   -2.5436   -2.6218   -0.6934 C   0  0  0  0  0  0  0  0  0  0  0  0
   -3.2190   -2.1311    0.0111 H   0  0  0  0  0  0  0  0  0  0  0  0
   -2.9285   -2.4944   -1.7081 H   0  0  0  0  0  0  0  0  0  0  0  0
   -1.1545   -2.0215   -0.5850 C   0  0  0  0  0  0  0  0  0  0  0  0
   -0.2127   -2.7254   -0.2677 O   0  0  0  0  0  0  0  0  0  0  0  0
   -0.9641   -0.6789   -0.8513 N   0  0  0  0  0  0  0  0  0  0  0  0
   -1.7855   -0.1375   -1.1034 H   0  0  0  0  0  0  0  0  0  0  0  0
    0.3332    0.0129   -0.7386 C   0  0  1  0  0  0  0  0  0  0  0  0
    1.0415   -0.5575   -1.3522 H   0  0  0  0  0  0  0  0  0  0  0  0
    0.2152    1.4105   -1.4009 C   0  0  0  0  0  0  0  0  0  0  0  0
    0.9362    1.4567   -2.2230 H   0  0  0  0  0  0  0  0  0  0  0  0
   -0.7765    1.5439   -1.8395 H   0  0  0  0  0  0  0  0  0  0  0  0
    0.4811    2.5968   -0.4792 C   0  0  0  0  0  0  0  0  0  0  0  0
    1.3929    3.3555   -0.7551 O   0  0  0  0  0  0  0  0  0  0  0  0
   -0.4026    2.8235    0.5221 O   0  0  0  0  0  0  0  0  0  0  0  0
   -0.0839    3.6241    0.9688 H   0  0  0  0  0  0  0  0  0  0  0  0
    0.9623   -0.0189    0.6775 C   0  0  0  0  0  0  0  0  0  0  0  0
    2.1780   -0.0813    0.7924 O   0  0  0  0  0  0  0  0  0  0  0  0
    0.1988    0.2350    1.8025 N   0  0  0  0  0  0  0  0  0  0  0  0
   -0.7857    0.4334    1.6566 H   0  0  0  0  0  0  0  0  0  0  0  0
    0.7591    0.3512    3.1426 C   0  0  0  0  0  0  0  0  0  0  0  0
    1.4606    1.1905    3.1934 H   0  0  0  0  0  0  0  0  0  0  0  0
   -0.0378    0.5195    3.8730 H   0  0  0  0  0  0  0  0  0  0  0  0
    1.2891   -0.5676    3.4156 H   0  0  0  0  0  0  0  0  0  0  0  0
  1  2  1  0  0  0  0
  2  3  1  0  0  0  0
  2  4  1  0  0  0  0
  2  5  1  0  0  0  0
  5  6  2  0  0  0  0
  5  7  1  0  0  0  0
  7  8  1  0  0  0  0
  7  9  1  0  0  0  0
  9 10  1  0  0  0  0
  9 11  1  0  0  0  0
  9 18  1  0  0  0  0
 11 12  1  0  0  0  0
 11 13  1  0  0  0  0
 11 14  1  0  0  0  0
 14 15  2  0  0  0  0
 14 16  1  0  0  0  0
 16 17  1  0  0  0  0
 18 19  2  0  0  0  0
 18 20  1  0  0  0  0
 20 21  1  0  0  0  0
 20 22  1  0  0  0  0
 22 23  1  0  0  0  0
 22 24  1  0  0  0  0
 22 25  1  0  0  0  0
M  END
$$$$

  -OEChem-02102214113D

 25 24  0     1  0  0  0  0  0999 V2000
   -2.5254   -3.6866   -0.4921 H   0  0  0  0  0  0  0  0  0  0  0  0
   -2.5565   -2.6150   -0.7093 C   0  0  0  0  0  0  0  0  0  0  0  0
   -3.2230   -2.1306    0.0081 H   0  0  0  0  0  0  0  0  0  0  0  0
   -2.9505   -2.4731   -1.7184 H   0  0  0  0  0  0  0  0  0  0  0  0
   -1.1635   -2.0225   -0.6081 C   0  0  0  0  0  0  0  0  0  0  0  0
   -0.2198   -2.7379   -0.3239 O   0  0  0  0  0  0  0  0  0  0  0  0
   -0.9711   -0.6746   -0.8445 N   0  0  0  0  0  0  0  0  0  0  0  0
   -1.7954   -0.1213   -1.0580 H   0  0  0  0  0  0  0  0  0  0  0  0
    0.3271    0.0117   -0.7137 C   0  0  1  0  0  0  0  0  0  0  0  0
    1.0306   -0.5686   -1.3238 H   0  0  0  0  0  0  0  0  0  0  0  0
    0.2449    1.4044   -1.3933 C   0  0  0  0  0  0  0  0  0  0  0  0
    0.9879    1.4264   -2.1968 H   0  0  0  0  0  0  0  0  0  0  0  0
   -0.7336    1.5388   -1.8600 H   0  0  0  0  0  0  0  0  0  0  0  0
    0.4997    2.6149   -0.4984 C   0  0  0  0  0  0  0  0  0  0  0  0
    1.2318    3.4904   -0.9243 O   0  0  0  0  0  0  0  0  0  0  0  0
   -0.2603    2.7598    0.6130 O   0  0  0  0  0  0  0  0  0  0  0  0
    0.0132    3.6053    1.0030 H   0  0  0  0  0  0  0  0  0  0  0  0
    0.9617   -0.0468    0.6991 C   0  0  0  0  0  0  0  0  0  0  0  0
    2.1790   -0.1017    0.8036 O   0  0  0  0  0  0  0  0  0  0  0  0
    0.2072    0.1845    1.8351 N   0  0  0  0  0  0  0  0  0  0  0  0
   -0.7671    0.4302    1.6940 H   0  0  0  0  0  0  0  0  0  0  0  0
    0.7854    0.3141    3.1666 C   0  0  0  0  0  0  0  0  0  0  0  0
    1.4640    1.1726    3.2077 H   0  0  0  0  0  0  0  0  0  0  0  0
   -0.0042    0.4584    3.9101 H   0  0  0  0  0  0  0  0  0  0  0  0
    1.3448   -0.5902    3.4290 H   0  0  0  0  0  0  0  0  0  0  0  0
  1  2  1  0  0  0  0
  2  3  1  0  0  0  0
  2  4  1  0  0  0  0
  2  5  1  0  0  0  0
  5  6  2  0  0  0  0
  5  7  1  0  0  0  0
  7  8  1  0  0  0  0
  7  9  1  0  0  0  0
  9 10  1  0  0  0  0
  9 11  1  0  0  0  0
  9 18  1  0  0  0  0
 11 12  1  0  0  0  0
 11 13  1  0  0  0  0
 11 14  1  0  0  0  0
 14 15  2  0  0  0  0
 14 16  1  0  0  0  0
 16 17  1  0  0  0  0
 18 19  2  0  0  0  0
 18 20  1  0  0  0  0
 20 21  1  0  0  0  0
 20 22  1  0  0  0  0
 22 23  1  0  0  0  0
 22 24  1  0  0  0  0
 22 25  1  0  0  0  0
M  END
$$$$

  -OEChem-02102214113D

 25 24  0     1  0  0  0  0  0999 V2000
   -2.5458   -3.6757   -0.5277 H   0  0  0  0  0  0  0  0  0  0  0  0
   -2.5706   -2.6008   -0.7286 C   0  0  0  0  0  0  0  0  0  0  0  0
   -3.2349   -2.1232   -0.0046 H   0  0  0  0  0  0  0  0  0  0  0  0
   -2.9633   -2.4414   -1.7357 H   0  0  0  0  0  0  0  0  0  0  0  0
   -1.1747   -2.0170   -0.6172 C   0  0  0  0  0  0  0  0  0  0  0  0
   -0.2336   -2.7416   -0.3476 O   0  0  0  0  0  0  0  0  0  0  0  0
   -0.9777   -0.6659   -0.8294 N   0  0  0  0  0  0  0  0  0  0  0  0
   -1.8014   -0.1061   -1.0278 H   0  0  0  0  0  0  0  0  0  0  0  0
    0.3222    0.0147   -0.6875 C   0  0  1  0  0  0  0  0  0  0  0  0
    1.0185   -0.5778   -1.2943 H   0  0  0  0  0  0  0  0  0  0  0  0
    0.2715    1.3987   -1.3906 C   0  0  0  0  0  0  0  0  0  0  0  0
    1.0331    1.3925   -2.1769 H   0  0  0  0  0  0  0  0  0  0  0  0
   -0.6950    1.5268   -1.8833 H   0  0  0  0  0  0  0  0  0  0  0  0
    0.5175    2.6453   -0.5411 C   0  0  0  0  0  0  0  0  0  0  0  0
    1.0266    3.5984   -1.1041 O   0  0  0  0  0  0  0  0  0  0  0  0
   -0.0581    2.7354    0.6800 O   0  0  0  0  0  0  0  0  0  0  0  0
    0.1679    3.6201    1.0078 H   0  0  0  0  0  0  0  0  0  0  0  0
    0.9647   -0.0657    0.7208 C   0  0  0  0  0  0  0  0  0  0  0  0
    2.1834   -0.1214    0.8147 O   0  0  0  0  0  0  0  0  0  0  0  0
    0.2196    0.1480    1.8666 N   0  0  0  0  0  0  0  0  0  0  0  0
   -0.7536    0.4027    1.7362 H   0  0  0  0  0  0  0  0  0  0  0  0
    0.8099    0.2664    3.1938 C   0  0  0  0  0  0  0  0  0  0  0  0
    1.4791    1.1318    3.2394 H   0  0  0  0  0  0  0  0  0  0  0  0
    0.0261    0.3928    3.9466 H   0  0  0  0  0  0  0  0  0  0  0  0
    1.3816   -0.6349    3.4397 H   0  0  0  0  0  0  0  0  0  0  0  0
  1  2  1  0  0  0  0
  2  3  1  0  0  0  0
  2  4  1  0  0  0  0
  2  5  1  0  0  0  0
  5  6  2  0  0  0  0
  5  7  1  0  0  0  0
  7  8  1  0  0  0  0
  7  9  1  0  0  0  0
  9 10  1  0  0  0  0
  9 11  1  0  0  0  0
  9 18  1  0  0  0  0
 11 12  1  0  0  0  0
 11 13  1  0  0  0  0
 11 14  1  0  0  0  0
 14 15  2  0  0  0  0
 14 16  1  0  0  0  0
 16 17  1  0  0  0  0
 18 19  2  0  0  0  0
 18 20  1  0  0  0  0
 20 21  1  0  0  0  0
 20 22  1  0  0  0  0
 22 23  1  0  0  0  0
 22 24  1  0  0  0  0
 22 25  1  0  0  0  0
M  END
$$$$

  -OEChem-02102214113D

 25 24  0     1  0  0  0  0  0999 V2000
   -2.5619   -3.6633   -0.5496 H   0  0  0  0  0  0  0  0  0  0  0  0
   -2.5816   -2.5861   -0.7392 C   0  0  0  0  0  0  0  0  0  0  0  0
   -3.2489   -2.1140   -0.0143 H   0  0  0  0  0  0  0  0  0  0  0  0
   -2.9668   -2.4142   -1.7472 H   0  0  0  0  0  0  0  0  0  0  0  0
   -1.1845   -2.0085   -0.6116 C   0  0  0  0  0  0  0  0  0  0  0  0
   -0.2495   -2.7391   -0.3371 O   0  0  0  0  0  0  0  0  0  0  0  0
   -0.9808   -0.6564   -0.8129 N   0  0  0  0  0  0  0  0  0  0  0  0
   -1.7986   -0.0945   -1.0289 H   0  0  0  0  0  0  0  0  0  0  0  0
    0.3234    0.0172   -0.6709 C   0  0  1  0  0  0  0  0  0  0  0  0
    1.0142   -0.5823   -1.2770 H   0  0  0  0  0  0  0  0  0  0  0  0
    0.2836    1.3970   -1.3892 C   0  0  0  0  0  0  0  0  0  0  0  0
    1.0501    1.3714   -2.1700 H   0  0  0  0  0  0  0  0  0  0  0  0
   -0.6787    1.5138   -1.8935 H   0  0  0  0  0  0  0  0  0  0  0  0
    0.5273    2.6810   -0.5919 C   0  0  0  0  0  0  0  0  0  0  0  0
    0.7649    3.6742   -1.2569 O   0  0  0  0  0  0  0  0  0  0  0  0
    0.2534    2.7368    0.7296 O   0  0  0  0  0  0  0  0  0  0  0  0
    0.4395    3.6498    0.9987 H   0  0  0  0  0  0  0  0  0  0  0  0
    0.9665   -0.0819    0.7355 C   0  0  0  0  0  0  0  0  0  0  0  0
    2.1844   -0.1621    0.8275 O   0  0  0  0  0  0  0  0  0  0  0  0
    0.2214    0.1240    1.8831 N   0  0  0  0  0  0  0  0  0  0  0  0
   -0.7491    0.3884    1.7556 H   0  0  0  0  0  0  0  0  0  0  0  0
    0.8133    0.2224    3.2107 C   0  0  0  0  0  0  0  0  0  0  0  0
    1.4874    1.0833    3.2663 H   0  0  0  0  0  0  0  0  0  0  0  0
    0.0312    0.3434    3.9659 H   0  0  0  0  0  0  0  0  0  0  0  0
    1.3803   -0.6852    3.4440 H   0  0  0  0  0  0  0  0  0  0  0  0
  1  2  1  0  0  0  0
  2  3  1  0  0  0  0
  2  4  1  0  0  0  0
  2  5  1  0  0  0  0
  5  6  2  0  0  0  0
  5  7  1  0  0  0  0
  7  8  1  0  0  0  0
  7  9  1  0  0  0  0
  9 10  1  0  0  0  0
  9 11  1  0  0  0  0
  9 18  1  0  0  0  0
 11 12  1  0  0  0  0
 11 13  1  0  0  0  0
 11 14  1  0  0  0  0
 14 15  2  0  0  0  0
 14 16  1  0  0  0  0
 16 17  1  0  0  0  0
 18 19  2  0  0  0  0
 18 20  1  0  0  0  0
 20 21  1  0  0  0  0
 20 22  1  0  0  0  0
 22 23  1  0  0  0  0
 22 24  1  0  0  0  0
 22 25  1  0  0  0  0
M  END
$$$$

  -OEChem-02102214113D

 25 24  0     1  0  0  0  0  0999 V2000
   -2.5578   -3.6154   -0.4216 H   0  0  0  0  0  0  0  0  0  0  0  0
   -2.5568   -2.5489   -0.6652 C   0  0  0  0  0  0  0  0  0  0  0  0
   -3.2371   -2.0327    0.0162 H   0  0  0  0  0  0  0  0  0  0  0  0
   -2.9115   -2.4234   -1.6910 H   0  0  0  0  0  0  0  0  0  0  0  0
   -1.1553   -1.9840   -0.5267 C   0  0  0  0  0  0  0  0  0  0  0  0
   -0.2439   -2.7103   -0.1751 O   0  0  0  0  0  0  0  0  0  0  0  0
   -0.9217   -0.6519   -0.8144 N   0  0  0  0  0  0  0  0  0  0  0  0
   -1.7123   -0.1115   -1.1518 H   0  0  0  0  0  0  0  0  0  0  0  0
    0.3990    0.0047   -0.7238 C   0  0  1  0  0  0  0  0  0  0  0  0
    1.1070   -0.5761   -1.3278 H   0  0  0  0  0  0  0  0  0  0  0  0
    0.2618    1.4008   -1.4102 C   0  0  0  0  0  0  0  0  0  0  0  0
    0.7150    1.3132   -2.4017 H   0  0  0  0  0  0  0  0  0  0  0  0
   -0.7994    1.6133   -1.5632 H   0  0  0  0  0  0  0  0  0  0  0  0
    0.8378    2.6768   -0.7776 C   0  0  0  0  0  0  0  0  0  0  0  0
    0.6533    3.6905   -1.4291 O   0  0  0  0  0  0  0  0  0  0  0  0
    1.4684    2.6813    0.4147 O   0  0  0  0  0  0  0  0  0  0  0  0
    1.7645    3.5909    0.5674 H   0  0  0  0  0  0  0  0  0  0  0  0
    0.9885   -0.0547    0.7075 C   0  0  0  0  0  0  0  0  0  0  0  0
    2.1808   -0.2832    0.8656 O   0  0  0  0  0  0  0  0  0  0  0  0
    0.1954    0.2292    1.8058 N   0  0  0  0  0  0  0  0  0  0  0  0
   -0.7935    0.3730    1.6384 H   0  0  0  0  0  0  0  0  0  0  0  0
    0.6900    0.1898    3.1752 C   0  0  0  0  0  0  0  0  0  0  0  0
    1.5021    0.9124    3.3084 H   0  0  0  0  0  0  0  0  0  0  0  0
   -0.1126    0.4385    3.8758 H   0  0  0  0  0  0  0  0  0  0  0  0
    1.0646   -0.8105    3.4171 H   0  0  0  0  0  0  0  0  0  0  0  0
  1  2  1  0  0  0  0
  2  3  1  0  0  0  0
  2  4  1  0  0  0  0
  2  5  1  0  0  0  0
  5  6  2  0  0  0  0
  5  7  1  0  0  0  0
  7  8  1  0  0  0  0
  7  9  1  0  0  0  0
  9 10  1  0  0  0  0
  9 11  1  0  0  0  0
  9 18  1  0  0  0  0
 11 12  1  0  0  0  0
 11 13  1  0  0  0  0
 11 14  1  0  0  0  0
 14 15  2  0  0  0  0
 14 16  1  0  0  0  0
 16 17  1  0  0  0  0
 18 19  2  0  0  0  0
 18 20  1  0  0  0  0
 20 21  1  0  0  0  0
 20 22  1  0  0  0  0
 22 23  1  0  0  0  0
 22 24  1  0  0  0  0
 22 25  1  0  0  0  0
M  END
$$$$

  -OEChem-02102214113D

 25 24  0     1  0  0  0  0  0999 V2000
   -2.5434   -3.6111   -0.3732 H   0  0  0  0  0  0  0  0  0  0  0  0
   -2.5394   -2.5523   -0.6482 C   0  0  0  0  0  0  0  0  0  0  0  0
   -3.2432   -2.0197   -0.0043 H   0  0  0  0  0  0  0  0  0  0  0  0
   -2.8623   -2.4592   -1.6879 H   0  0  0  0  0  0  0  0  0  0  0  0
   -1.1454   -1.9762   -0.4834 C   0  0  0  0  0  0  0  0  0  0  0  0
   -0.2437   -2.6874   -0.0807 O   0  0  0  0  0  0  0  0  0  0  0  0
   -0.9097   -0.6528   -0.8079 N   0  0  0  0  0  0  0  0  0  0  0  0
   -1.6869   -0.1396   -1.2127 H   0  0  0  0  0  0  0  0  0  0  0  0
    0.4120    0.0064   -0.7403 C   0  0  1  0  0  0  0  0  0  0  0  0
    1.1252   -0.5617   -1.3498 H   0  0  0  0  0  0  0  0  0  0  0  0
    0.2270    1.4098   -1.3996 C   0  0  0  0  0  0  0  0  0  0  0  0
    0.6566    1.3517   -2.4034 H   0  0  0  0  0  0  0  0  0  0  0  0
   -0.8409    1.6113   -1.5205 H   0  0  0  0  0  0  0  0  0  0  0  0
    0.8137    2.6689   -0.7459 C   0  0  0  0  0  0  0  0  0  0  0  0
    0.3759    3.7237   -1.1727 O   0  0  0  0  0  0  0  0  0  0  0  0
    1.8411    2.6029    0.1258 O   0  0  0  0  0  0  0  0  0  0  0  0
    2.0925    3.5147    0.3347 H   0  0  0  0  0  0  0  0  0  0  0  0
    0.9945   -0.0213    0.6958 C   0  0  0  0  0  0  0  0  0  0  0  0
    2.1725   -0.3004    0.8762 O   0  0  0  0  0  0  0  0  0  0  0  0
    0.1934    0.2917    1.7802 N   0  0  0  0  0  0  0  0  0  0  0  0
   -0.7983    0.4005    1.6008 H   0  0  0  0  0  0  0  0  0  0  0  0
    0.6585    0.1961    3.1576 C   0  0  0  0  0  0  0  0  0  0  0  0
    1.5303    0.8407    3.3120 H   0  0  0  0  0  0  0  0  0  0  0  0
   -0.1301    0.5118    3.8470 H   0  0  0  0  0  0  0  0  0  0  0  0
    0.9374   -0.8359    3.3959 H   0  0  0  0  0  0  0  0  0  0  0  0
  1  2  1  0  0  0  0
  2  3  1  0  0  0  0
  2  4  1  0  0  0  0
  2  5  1  0  0  0  0
  5  6  2  0  0  0  0
  5  7  1  0  0  0  0
  7  8  1  0  0  0  0
  7  9  1  0  0  0  0
  9 10  1  0  0  0  0
  9 11  1  0  0  0  0
  9 18  1  0  0  0  0
 11 12  1  0  0  0  0
 11 13  1  0  0  0  0
 11 14  1  0  0  0  0
 14 15  2  0  0  0  0
 14 16  1  0  0  0  0
 16 17  1  0  0  0  0
 18 19  2  0  0  0  0
 18 20  1  0  0  0  0
 20 21  1  0  0  0  0
 20 22  1  0  0  0  0
 22 23  1  0  0  0  0
 22 24  1  0  0  0  0
 22 25  1  0  0  0  0
M  END
$$$$

  -OEChem-02102214113D

 25 24  0     1  0  0  0  0  0999 V2000
   -2.5260   -3.6151   -0.3492 H   0  0  0  0  0  0  0  0  0  0  0  0
   -2.5291   -2.5552   -0.6197 C   0  0  0  0  0  0  0  0  0  0  0  0
   -3.2238   -2.0268    0.0376 H   0  0  0  0  0  0  0  0  0  0  0  0
   -2.8691   -2.4589   -1.6536 H   0  0  0  0  0  0  0  0  0  0  0  0
   -1.1341   -1.9764   -0.4744 C   0  0  0  0  0  0  0  0  0  0  0  0
   -0.2302   -2.6795   -0.0625 O   0  0  0  0  0  0  0  0  0  0  0  0
   -0.9008   -0.6585   -0.8219 N   0  0  0  0  0  0  0  0  0  0  0  0
   -1.6803   -0.1522   -1.2309 H   0  0  0  0  0  0  0  0  0  0  0  0
    0.4190    0.0051   -0.7656 C   0  0  1  0  0  0  0  0  0  0  0  0
    1.1371   -0.5549   -1.3764 H   0  0  0  0  0  0  0  0  0  0  0  0
    0.2145    1.4116   -1.4055 C   0  0  0  0  0  0  0  0  0  0  0  0
    0.6334    1.3794   -2.4148 H   0  0  0  0  0  0  0  0  0  0  0  0
   -0.8550    1.6167   -1.5087 H   0  0  0  0  0  0  0  0  0  0  0  0
    0.8243    2.6308   -0.7064 C   0  0  0  0  0  0  0  0  0  0  0  0
    0.2285    3.6853   -0.8475 O   0  0  0  0  0  0  0  0  0  0  0  0
    2.0578    2.5482   -0.1643 O   0  0  0  0  0  0  0  0  0  0  0  0
    2.2906    3.4359    0.1449 H   0  0  0  0  0  0  0  0  0  0  0  0
    0.9972    0.0018    0.6737 C   0  0  0  0  0  0  0  0  0  0  0  0
    2.1735   -0.2715    0.8697 O   0  0  0  0  0  0  0  0  0  0  0  0
    0.1880    0.3317    1.7471 N   0  0  0  0  0  0  0  0  0  0  0  0
   -0.8040    0.4219    1.5577 H   0  0  0  0  0  0  0  0  0  0  0  0
    0.6353    0.2328    3.1304 C   0  0  0  0  0  0  0  0  0  0  0  0
    1.4944    0.8897    3.3026 H   0  0  0  0  0  0  0  0  0  0  0  0
   -0.1680    0.5303    3.8109 H   0  0  0  0  0  0  0  0  0  0  0  0
    0.9263   -0.7968    3.3647 H   0  0  0  0  0  0  0  0  0  0  0  0
  1  2  1  0  0  0  0
  2  3  1  0  0  0  0
  2  4  1  0  0  0  0
  2  5  1  0  0  0  0
  5  6  2  0  0  0  0
  5  7  1  0  0  0  0
  7  8  1  0  0  0  0
  7  9  1  0  0  0  0
  9 10  1  0  0  0  0
  9 11  1  0  0  0  0
  9 18  1  0  0  0  0
 11 12  1  0  0  0  0
 11 13  1  0  0  0  0
 11 14  1  0  0  0  0
 14 15  2  0  0  0  0
 14 16  1  0  0  0  0
 16 17  1  0  0  0  0
 18 19  2  0  0  0  0
 18 20  1  0  0  0  0
 20 21  1  0  0  0  0
 20 22  1  0  0  0  0
 22 23  1  0  0  0  0
 22 24  1  0  0  0  0
 22 25  1  0  0  0  0
M  END
$$$$

  -OEChem-02102214113D

 25 24  0     1  0  0  0  0  0999 V2000
   -2.5176   -3.6267   -0.3425 H   0  0  0  0  0  0  0  0  0  0  0  0
   -2.5272   -2.5684   -0.6194 C   0  0  0  0  0  0  0  0  0  0  0  0
   -3.2268   -2.0405    0.0330 H   0  0  0  0  0  0  0  0  0  0  0  0
   -2.8656   -2.4801   -1.6546 H   0  0  0  0  0  0  0  0  0  0  0  0
   -1.1362   -1.9799   -0.4745 C   0  0  0  0  0  0  0  0  0  0  0  0
   -0.2297   -2.6730   -0.0512 O   0  0  0  0  0  0  0  0  0  0  0  0
   -0.9087   -0.6642   -0.8336 N   0  0  0  0  0  0  0  0  0  0  0  0
   -1.6895   -0.1640   -1.2477 H   0  0  0  0  0  0  0  0  0  0  0  0
    0.4089    0.0031   -0.7844 C   0  0  1  0  0  0  0  0  0  0  0  0
    1.1266   -0.5558   -1.3969 H   0  0  0  0  0  0  0  0  0  0  0  0
    0.2048    1.4107   -1.4150 C   0  0  0  0  0  0  0  0  0  0  0  0
    0.6213    1.3934   -2.4255 H   0  0  0  0  0  0  0  0  0  0  0  0
   -0.8629    1.6270   -1.5110 H   0  0  0  0  0  0  0  0  0  0  0  0
    0.8382    2.5912   -0.6779 C   0  0  0  0  0  0  0  0  0  0  0  0
    0.1528    3.5889   -0.5308 O   0  0  0  0  0  0  0  0  0  0  0  0
    2.1601    2.5496   -0.4031 O   0  0  0  0  0  0  0  0  0  0  0  0
    2.3879    3.3925    0.0159 H   0  0  0  0  0  0  0  0  0  0  0  0
    0.9948    0.0164    0.6521 C   0  0  0  0  0  0  0  0  0  0  0  0
    2.1804   -0.2160    0.8424 O   0  0  0  0  0  0  0  0  0  0  0  0
    0.1897    0.3541    1.7257 N   0  0  0  0  0  0  0  0  0  0  0  0
   -0.8048    0.4310    1.5424 H   0  0  0  0  0  0  0  0  0  0  0  0
    0.6489    0.2890    3.1071 C   0  0  0  0  0  0  0  0  0  0  0  0
    1.5003    0.9605    3.2599 H   0  0  0  0  0  0  0  0  0  0  0  0
   -0.1536    0.5884    3.7879 H   0  0  0  0  0  0  0  0  0  0  0  0
    0.9558   -0.7316    3.3593 H   0  0  0  0  0  0  0  0  0  0  0  0
  1  2  1  0  0  0  0
  2  3  1  0  0  0  0
  2  4  1  0  0  0  0
  2  5  1  0  0  0  0
  5  6  2  0  0  0  0
  5  7  1  0  0  0  0
  7  8  1  0  0  0  0
  7  9  1  0  0  0  0
  9 10  1  0  0  0  0
  9 11  1  0  0  0  0
  9 18  1  0  0  0  0
 11 12  1  0  0  0  0
 11 13  1  0  0  0  0
 11 14  1  0  0  0  0
 14 15  2  0  0  0  0
 14 16  1  0  0  0  0
 16 17  1  0  0  0  0
 18 19  2  0  0  0  0
 18 20  1  0  0  0  0
 20 21  1  0  0  0  0
 20 22  1  0  0  0  0
 22 23  1  0  0  0  0
 22 24  1  0  0  0  0
 22 25  1  0  0  0  0
M  END
$$$$

  -OEChem-02102214113D

 25 24  0     1  0  0  0  0  0999 V2000
   -2.5152   -3.6392   -0.3437 H   0  0  0  0  0  0  0  0  0  0  0  0
   -2.5298   -2.5819   -0.6237 C   0  0  0  0  0  0  0  0  0  0  0  0
   -3.2245   -2.0539    0.0337 H   0  0  0  0  0  0  0  0  0  0  0  0
   -2.8774   -2.4974   -1.6561 H   0  0  0  0  0  0  0  0  0  0  0  0
   -1.1391   -1.9894   -0.4937 C   0  0  0  0  0  0  0  0  0  0  0  0
   -0.2244   -2.6798   -0.0832 O   0  0  0  0  0  0  0  0  0  0  0  0
   -0.9192   -0.6719   -0.8506 N   0  0  0  0  0  0  0  0  0  0  0  0
   -1.7078   -0.1674   -1.2445 H   0  0  0  0  0  0  0  0  0  0  0  0
    0.3950    0.0005   -0.8010 C   0  0  1  0  0  0  0  0  0  0  0  0
    1.1121   -0.5573   -1.4151 H   0  0  0  0  0  0  0  0  0  0  0  0
    0.1988    1.4092   -1.4261 C   0  0  0  0  0  0  0  0  0  0  0  0
    0.6190    1.4021   -2.4354 H   0  0  0  0  0  0  0  0  0  0  0  0
   -0.8665    1.6373   -1.5225 H   0  0  0  0  0  0  0  0  0  0  0  0
    0.8461    2.5594   -0.6578 C   0  0  0  0  0  0  0  0  0  0  0  0
    0.1192    3.4460   -0.2418 O   0  0  0  0  0  0  0  0  0  0  0  0
    2.1955    2.6059   -0.5995 O   0  0  0  0  0  0  0  0  0  0  0  0
    2.4265    3.3904   -0.0806 H   0  0  0  0  0  0  0  0  0  0  0  0
    0.9897    0.0182    0.6319 C   0  0  0  0  0  0  0  0  0  0  0  0
    2.1873   -0.1549    0.8082 O   0  0  0  0  0  0  0  0  0  0  0  0
    0.1902    0.3518    1.7107 N   0  0  0  0  0  0  0  0  0  0  0  0
   -0.8060    0.4306    1.5366 H   0  0  0  0  0  0  0  0  0  0  0  0
    0.6705    0.3514    3.0864 C   0  0  0  0  0  0  0  0  0  0  0  0
    1.4987    1.0582    3.2037 H   0  0  0  0  0  0  0  0  0  0  0  0
   -0.1331    0.6456    3.7682 H   0  0  0  0  0  0  0  0  0  0  0  0
    1.0174   -0.6483    3.3686 H   0  0  0  0  0  0  0  0  0  0  0  0
  1  2  1  0  0  0  0
  2  3  1  0  0  0  0
  2  4  1  0  0  0  0
  2  5  1  0  0  0  0
  5  6  2  0  0  0  0
  5  7  1  0  0  0  0
  7  8  1  0  0  0  0
  7  9  1  0  0  0  0
  9 10  1  0  0  0  0
  9 11  1  0  0  0  0
  9 18  1  0  0  0  0
 11 12  1  0  0  0  0
 11 13  1  0  0  0  0
 11 14  1  0  0  0  0
 14 15  2  0  0  0  0
 14 16  1  0  0  0  0
 16 17  1  0  0  0  0
 18 19  2  0  0  0  0
 18 20  1  0  0  0  0
 20 21  1  0  0  0  0
 20 22  1  0  0  0  0
 22 23  1  0  0  0  0
 22 24  1  0  0  0  0
 22 25  1  0  0  0  0
M  END
$$$$

  -OEChem-02102214113D

 25 24  0     1  0  0  0  0  0999 V2000
   -2.5181   -3.6570   -0.3693 H   0  0  0  0  0  0  0  0  0  0  0  0
   -2.5377   -2.5985   -0.6448 C   0  0  0  0  0  0  0  0  0  0  0  0
   -3.2323   -2.0758    0.0170 H   0  0  0  0  0  0  0  0  0  0  0  0
   -2.8892   -2.5114   -1.6757 H   0  0  0  0  0  0  0  0  0  0  0  0
   -1.1488   -2.0010   -0.5171 C   0  0  0  0  0  0  0  0  0  0  0  0
   -0.2276   -2.6915   -0.1211 O   0  0  0  0  0  0  0  0  0  0  0  0
   -0.9360   -0.6795   -0.8622 N   0  0  0  0  0  0  0  0  0  0  0  0
   -1.7310   -0.1694   -1.2351 H   0  0  0  0  0  0  0  0  0  0  0  0
    0.3752   -0.0034   -0.8056 C   0  0  1  0  0  0  0  0  0  0  0  0
    1.0898   -0.5627   -1.4215 H   0  0  0  0  0  0  0  0  0  0  0  0
    0.1936    1.4057   -1.4309 C   0  0  0  0  0  0  0  0  0  0  0  0
    0.6229    1.4006   -2.4362 H   0  0  0  0  0  0  0  0  0  0  0  0
   -0.8683    1.6443   -1.5353 H   0  0  0  0  0  0  0  0  0  0  0  0
    0.8448    2.5385   -0.6433 C   0  0  0  0  0  0  0  0  0  0  0  0
    0.1210    3.2741    0.0072 O   0  0  0  0  0  0  0  0  0  0  0  0
    2.1793    2.7124   -0.7701 O   0  0  0  0  0  0  0  0  0  0  0  0
    2.4220    3.4396   -0.1778 H   0  0  0  0  0  0  0  0  0  0  0  0
    0.9806    0.0100    0.6225 C   0  0  0  0  0  0  0  0  0  0  0  0
    2.1878   -0.1080    0.7778 O   0  0  0  0  0  0  0  0  0  0  0  0
    0.1913    0.3328    1.7117 N   0  0  0  0  0  0  0  0  0  0  0  0
   -0.8037    0.4431    1.5479 H   0  0  0  0  0  0  0  0  0  0  0  0
    0.7022    0.4158    3.0736 C   0  0  0  0  0  0  0  0  0  0  0  0
    1.4832    1.1802    3.1442 H   0  0  0  0  0  0  0  0  0  0  0  0
   -0.1034    0.6806    3.7649 H   0  0  0  0  0  0  0  0  0  0  0  0
    1.1220   -0.5472    3.3828 H   0  0  0  0  0  0  0  0  0  0  0  0
  1  2  1  0  0  0  0
  2  3  1  0  0  0  0
  2  4  1  0  0  0  0
  2  5  1  0  0  0  0
  5  6  2  0  0  0  0
  5  7  1  0  0  0  0
  7  8  1  0  0  0  0
  7  9  1  0  0  0  0
  9 10  1  0  0  0  0
  9 11  1  0  0  0  0
  9 18  1  0  0  0  0
 11 12  1  0  0  0  0
 11 13  1  0  0  0  0
 11 14  1  0  0  0  0
 14 15  2  0  0  0  0
 14 16  1  0  0  0  0
 16 17  1  0  0  0  0
 18 19  2  0  0  0  0
 18 20  1  0  0  0  0
 20 21  1  0  0  0  0
 20 22  1  0  0  0  0
 22 23  1  0  0  0  0
 22 24  1  0  0  0  0
 22 25  1  0  0  0  0
M  END
$$$$

  -OEChem-02102214113D

 25 24  0     1  0  0  0  0  0999 V2000
   -2.5248   -3.6760   -0.4047 H   0  0  0  0  0  0  0  0  0  0  0  0
   -2.5489   -2.6151   -0.6703 C   0  0  0  0  0  0  0  0  0  0  0  0
   -3.2370   -2.0997    0.0040 H   0  0  0  0  0  0  0  0  0  0  0  0
   -2.9114   -2.5186   -1.6965 H   0  0  0  0  0  0  0  0  0  0  0  0
   -1.1596   -2.0170   -0.5523 C   0  0  0  0  0  0  0  0  0  0  0  0
   -0.2290   -2.7152   -0.1926 O   0  0  0  0  0  0  0  0  0  0  0  0
   -0.9543   -0.6881   -0.8722 N   0  0  0  0  0  0  0  0  0  0  0  0
   -1.7597   -0.1634   -1.1997 H   0  0  0  0  0  0  0  0  0  0  0  0
    0.3536   -0.0092   -0.8002 C   0  0  1  0  0  0  0  0  0  0  0  0
    1.0667   -0.5692   -1.4173 H   0  0  0  0  0  0  0  0  0  0  0  0
    0.1937    1.4002   -1.4296 C   0  0  0  0  0  0  0  0  0  0  0  0
    0.6380    1.3917   -2.4287 H   0  0  0  0  0  0  0  0  0  0  0  0
   -0.8641    1.6484   -1.5506 H   0  0  0  0  0  0  0  0  0  0  0  0
    0.8389    2.5266   -0.6292 C   0  0  0  0  0  0  0  0  0  0  0  0
    0.1628    3.0892    0.2168 O   0  0  0  0  0  0  0  0  0  0  0  0
    2.1174    2.8580   -0.9175 O   0  0  0  0  0  0  0  0  0  0  0  0
    2.3778    3.5327   -0.2726 H   0  0  0  0  0  0  0  0  0  0  0  0
    0.9675   -0.0141    0.6244 C   0  0  0  0  0  0  0  0  0  0  0  0
    2.1806   -0.0916    0.7606 O   0  0  0  0  0  0  0  0  0  0  0  0
    0.1869    0.2869    1.7260 N   0  0  0  0  0  0  0  0  0  0  0  0
   -0.7952    0.4778    1.5592 H   0  0  0  0  0  0  0  0  0  0  0  0
    0.7295    0.4794    3.0645 C   0  0  0  0  0  0  0  0  0  0  0  0
    1.4201    1.3291    3.0787 H   0  0  0  0  0  0  0  0  0  0  0  0
   -0.0781    0.6773    3.7756 H   0  0  0  0  0  0  0  0  0  0  0  0
    1.2661   -0.4174    3.3923 H   0  0  0  0  0  0  0  0  0  0  0  0
  1  2  1  0  0  0  0
  2  3  1  0  0  0  0
  2  4  1  0  0  0  0
  2  5  1  0  0  0  0
  5  6  2  0  0  0  0
  5  7  1  0  0  0  0
  7  8  1  0  0  0  0
  7  9  1  0  0  0  0
  9 10  1  0  0  0  0
  9 11  1  0  0  0  0
  9 18  1  0  0  0  0
 11 12  1  0  0  0  0
 11 13  1  0  0  0  0
 11 14  1  0  0  0  0
 14 15  2  0  0  0  0
 14 16  1  0  0  0  0
 16 17  1  0  0  0  0
 18 19  2  0  0  0  0
 18 20  1  0  0  0  0
 20 21  1  0  0  0  0
 20 22  1  0  0  0  0
 22 23  1  0  0  0  0
 22 24  1  0  0  0  0
 22 25  1  0  0  0  0
M  END
$$$$

  -OEChem-02102214113D

 25 24  0     1  0  0  0  0  0999 V2000
   -2.5192   -3.6820   -0.4153 H   0  0  0  0  0  0  0  0  0  0  0  0
   -2.5491   -2.6185   -0.6692 C   0  0  0  0  0  0  0  0  0  0  0  0
   -3.2159   -2.1093    0.0305 H   0  0  0  0  0  0  0  0  0  0  0  0
   -2.9416   -2.5105   -1.6831 H   0  0  0  0  0  0  0  0  0  0  0  0
   -1.1556   -2.0244   -0.5854 C   0  0  0  0  0  0  0  0  0  0  0  0
   -0.2148   -2.7301   -0.2692 O   0  0  0  0  0  0  0  0  0  0  0  0
   -0.9582   -0.6888   -0.8812 N   0  0  0  0  0  0  0  0  0  0  0  0
   -1.7755   -0.1501   -1.1513 H   0  0  0  0  0  0  0  0  0  0  0  0
    0.3445   -0.0037   -0.7842 C   0  0  1  0  0  0  0  0  0  0  0  0
    1.0619   -0.5698   -1.3908 H   0  0  0  0  0  0  0  0  0  0  0  0
    0.2105    1.3978   -1.4378 C   0  0  0  0  0  0  0  0  0  0  0  0
    0.6820    1.3678   -2.4241 H   0  0  0  0  0  0  0  0  0  0  0  0
   -0.8428    1.6443   -1.5936 H   0  0  0  0  0  0  0  0  0  0  0  0
    0.8272    2.5500   -0.6502 C   0  0  0  0  0  0  0  0  0  0  0  0
    0.2389    2.9542    0.3396 O   0  0  0  0  0  0  0  0  0  0  0  0
    1.9908    3.0714   -1.0999 O   0  0  0  0  0  0  0  0  0  0  0  0
    2.2596    3.7375   -0.4491 H   0  0  0  0  0  0  0  0  0  0  0  0
    0.9541   -0.0225    0.6413 C   0  0  0  0  0  0  0  0  0  0  0  0
    2.1686   -0.0925    0.7730 O   0  0  0  0  0  0  0  0  0  0  0  0
    0.1730    0.2568    1.7483 N   0  0  0  0  0  0  0  0  0  0  0  0
   -0.7947    0.5059    1.5746 H   0  0  0  0  0  0  0  0  0  0  0  0
    0.7274    0.4725    3.0784 C   0  0  0  0  0  0  0  0  0  0  0  0
    1.3933    1.3417    3.0787 H   0  0  0  0  0  0  0  0  0  0  0  0
   -0.0762    0.6502    3.7994 H   0  0  0  0  0  0  0  0  0  0  0  0
    1.2941   -0.4065    3.4034 H   0  0  0  0  0  0  0  0  0  0  0  0
  1  2  1  0  0  0  0
  2  3  1  0  0  0  0
  2  4  1  0  0  0  0
  2  5  1  0  0  0  0
  5  6  2  0  0  0  0
  5  7  1  0  0  0  0
  7  8  1  0  0  0  0
  7  9  1  0  0  0  0
  9 10  1  0  0  0  0
  9 11  1  0  0  0  0
  9 18  1  0  0  0  0
 11 12  1  0  0  0  0
 11 13  1  0  0  0  0
 11 14  1  0  0  0  0
 14 15  2  0  0  0  0
 14 16  1  0  0  0  0
 16 17  1  0  0  0  0
 18 19  2  0  0  0  0
 18 20  1  0  0  0  0
 20 21  1  0  0  0  0
 20 22  1  0  0  0  0
 22 23  1  0  0  0  0
 22 24  1  0  0  0  0
 22 25  1  0  0  0  0
M  END
$$$$

  -OEChem-02102214113D

 25 24  0     1  0  0  0  0  0999 V2000
   -2.5201   -3.6858   -0.4567 H   0  0  0  0  0  0  0  0  0  0  0  0
   -2.5503   -2.6172   -0.6887 C   0  0  0  0  0  0  0  0  0  0  0  0
   -3.2147   -2.1221    0.0234 H   0  0  0  0  0  0  0  0  0  0  0  0
   -2.9458   -2.4883   -1.6990 H   0  0  0  0  0  0  0  0  0  0  0  0
   -1.1570   -2.0242   -0.5980 C   0  0  0  0  0  0  0  0  0  0  0  0
   -0.2142   -2.7354   -0.3007 O   0  0  0  0  0  0  0  0  0  0  0  0
   -0.9634   -0.6830   -0.8701 N   0  0  0  0  0  0  0  0  0  0  0  0
   -1.7864   -0.1377   -1.1073 H   0  0  0  0  0  0  0  0  0  0  0  0
    0.3357    0.0055   -0.7543 C   0  0  1  0  0  0  0  0  0  0  0  0
    1.0540   -0.5688   -1.3523 H   0  0  0  0  0  0  0  0  0  0  0  0
    0.2249    1.3972   -1.4370 C   0  0  0  0  0  0  0  0  0  0  0  0
    0.7193    1.3387   -2.4109 H   0  0  0  0  0  0  0  0  0  0  0  0
   -0.8237    1.6367   -1.6277 H   0  0  0  0  0  0  0  0  0  0  0  0
    0.8137    2.5879   -0.6818 C   0  0  0  0  0  0  0  0  0  0  0  0
    0.3747    2.8674    0.4213 O   0  0  0  0  0  0  0  0  0  0  0  0
    1.8009    3.2825   -1.2915 O   0  0  0  0  0  0  0  0  0  0  0  0
    2.0903    3.9529   -0.6536 H   0  0  0  0  0  0  0  0  0  0  0  0
    0.9457   -0.0293    0.6703 C   0  0  0  0  0  0  0  0  0  0  0  0
    2.1611   -0.1006    0.7958 O   0  0  0  0  0  0  0  0  0  0  0  0
    0.1663    0.2293    1.7839 N   0  0  0  0  0  0  0  0  0  0  0  0
   -0.7967    0.4966    1.6124 H   0  0  0  0  0  0  0  0  0  0  0  0
    0.7289    0.4496    3.1098 C   0  0  0  0  0  0  0  0  0  0  0  0
    1.3536    1.3488    3.1151 H   0  0  0  0  0  0  0  0  0  0  0  0
   -0.0718    0.5776    3.8441 H   0  0  0  0  0  0  0  0  0  0  0  0
    1.3405   -0.4065    3.4135 H   0  0  0  0  0  0  0  0  0  0  0  0
  1  2  1  0  0  0  0
  2  3  1  0  0  0  0
  2  4  1  0  0  0  0
  2  5  1  0  0  0  0
  5  6  2  0  0  0  0
  5  7  1  0  0  0  0
  7  8  1  0  0  0  0
  7  9  1  0  0  0  0
  9 10  1  0  0  0  0
  9 11  1  0  0  0  0
  9 18  1  0  0  0  0
 11 12  1  0  0  0  0
 11 13  1  0  0  0  0
 11 14  1  0  0  0  0
 14 15  2  0  0  0  0
 14 16  1  0  0  0  0
 16 17  1  0  0  0  0
 18 19  2  0  0  0  0
 18 20  1  0  0  0  0
 20 21  1  0  0  0  0
 20 22  1  0  0  0  0
 22 23  1  0  0  0  0
 22 24  1  0  0  0  0
 22 25  1  0  0  0  0
M  END
$$$$

  -OEChem-02102214113D

 25 24  0     1  0  0  0  0  0999 V2000
   -2.5150   -3.6772   -0.4712 H   0  0  0  0  0  0  0  0  0  0  0  0
   -2.5456   -2.6070   -0.6954 C   0  0  0  0  0  0  0  0  0  0  0  0
   -3.2046   -2.1161    0.0246 H   0  0  0  0  0  0  0  0  0  0  0  0
   -2.9478   -2.4703   -1.7021 H   0  0  0  0  0  0  0  0  0  0  0  0
   -1.1505   -2.0171   -0.6090 C   0  0  0  0  0  0  0  0  0  0  0  0
   -0.2062   -2.7342   -0.3314 O   0  0  0  0  0  0  0  0  0  0  0  0
   -0.9570   -0.6719   -0.8612 N   0  0  0  0  0  0  0  0  0  0  0  0
   -1.7825   -0.1208   -1.0747 H   0  0  0  0  0  0  0  0  0  0  0  0
    0.3411    0.0163   -0.7288 C   0  0  1  0  0  0  0  0  0  0  0  0
    1.0620   -0.5607   -1.3214 H   0  0  0  0  0  0  0  0  0  0  0  0
    0.2405    1.4040   -1.4273 C   0  0  0  0  0  0  0  0  0  0  0  0
    0.7513    1.3249   -2.3914 H   0  0  0  0  0  0  0  0  0  0  0  0
   -0.8058    1.6315   -1.6437 H   0  0  0  0  0  0  0  0  0  0  0  0
    0.8029    2.6342   -0.7105 C   0  0  0  0  0  0  0  0  0  0  0  0
    0.5710    2.8179    0.4714 O   0  0  0  0  0  0  0  0  0  0  0  0
    1.5352    3.4864   -1.4633 O   0  0  0  0  0  0  0  0  0  0  0  0
    1.8461    4.1768   -0.8575 H   0  0  0  0  0  0  0  0  0  0  0  0
    0.9439   -0.0375    0.6980 C   0  0  0  0  0  0  0  0  0  0  0  0
    2.1571   -0.1340    0.8286 O   0  0  0  0  0  0  0  0  0  0  0  0
    0.1593    0.2047    1.8120 N   0  0  0  0  0  0  0  0  0  0  0  0
   -0.7989    0.4867    1.6399 H   0  0  0  0  0  0  0  0  0  0  0  0
    0.7179    0.3978    3.1438 C   0  0  0  0  0  0  0  0  0  0  0  0
    1.3570    1.2869    3.1644 H   0  0  0  0  0  0  0  0  0  0  0  0
   -0.0848    0.5290    3.8754 H   0  0  0  0  0  0  0  0  0  0  0  0
    1.3139   -0.4722    3.4392 H   0  0  0  0  0  0  0  0  0  0  0  0
  1  2  1  0  0  0  0
  2  3  1  0  0  0  0
  2  4  1  0  0  0  0
  2  5  1  0  0  0  0
  5  6  2  0  0  0  0
  5  7  1  0  0  0  0
  7  8  1  0  0  0  0
  7  9  1  0  0  0  0
  9 10  1  0  0  0  0
  9 11  1  0  0  0  0
  9 18  1  0  0  0  0
 11 12  1  0  0  0  0
 11 13  1  0  0  0  0
 11 14  1  0  0  0  0
 14 15  2  0  0  0  0
 14 16  1  0  0  0  0
 16 17  1  0  0  0  0
 18 19  2  0  0  0  0
 18 20  1  0  0  0  0
 20 21  1  0  0  0  0
 20 22  1  0  0  0  0
 22 23  1  0  0  0  0
 22 24  1  0  0  0  0
 22 25  1  0  0  0  0
M  END
$$$$

  -OEChem-02102214113D

 25 24  0     1  0  0  0  0  0999 V2000
   -2.5169   -3.6627   -0.4870 H   0  0  0  0  0  0  0  0  0  0  0  0
   -2.5427   -2.5906   -0.7023 C   0  0  0  0  0  0  0  0  0  0  0  0
   -3.2056   -2.1040    0.0169 H   0  0  0  0  0  0  0  0  0  0  0  0
   -2.9372   -2.4446   -1.7107 H   0  0  0  0  0  0  0  0  0  0  0  0
   -1.1463   -2.0055   -0.6015 C   0  0  0  0  0  0  0  0  0  0  0  0
   -0.2067   -2.7283   -0.3233 O   0  0  0  0  0  0  0  0  0  0  0  0
   -0.9466   -0.6595   -0.8459 N   0  0  0  0  0  0  0  0  0  0  0  0
   -1.7677   -0.1068   -1.0716 H   0  0  0  0  0  0  0  0  0  0  0  0
    0.3544    0.0240   -0.7107 C   0  0  1  0  0  0  0  0  0  0  0  0
    1.0749   -0.5513   -1.3055 H   0  0  0  0  0  0  0  0  0  0  0  0
    0.2478    1.4139   -1.4100 C   0  0  0  0  0  0  0  0  0  0  0  0
    0.7572    1.3276   -2.3742 H   0  0  0  0  0  0  0  0  0  0  0  0
   -0.8005    1.6296   -1.6281 H   0  0  0  0  0  0  0  0  0  0  0  0
    0.7961    2.6736   -0.7294 C   0  0  0  0  0  0  0  0  0  0  0  0
    0.8228    2.7850    0.4821 O   0  0  0  0  0  0  0  0  0  0  0  0
    1.2161    3.6490   -1.5673 O   0  0  0  0  0  0  0  0  0  0  0  0
    1.5563    4.3576   -0.9990 H   0  0  0  0  0  0  0  0  0  0  0  0
    0.9512   -0.0444    0.7178 C   0  0  0  0  0  0  0  0  0  0  0  0
    2.1599   -0.1816    0.8547 O   0  0  0  0  0  0  0  0  0  0  0  0
    0.1623    0.1929    1.8300 N   0  0  0  0  0  0  0  0  0  0  0  0
   -0.7982    0.4672    1.6600 H   0  0  0  0  0  0  0  0  0  0  0  0
    0.7123    0.3464    3.1705 C   0  0  0  0  0  0  0  0  0  0  0  0
    1.3724    1.2190    3.2141 H   0  0  0  0  0  0  0  0  0  0  0  0
   -0.0936    0.4832    3.8973 H   0  0  0  0  0  0  0  0  0  0  0  0
    1.2846   -0.5433    3.4540 H   0  0  0  0  0  0  0  0  0  0  0  0
  1  2  1  0  0  0  0
  2  3  1  0  0  0  0
  2  4  1  0  0  0  0
  2  5  1  0  0  0  0
  5  6  2  0  0  0  0
  5  7  1  0  0  0  0
  7  8  1  0  0  0  0
  7  9  1  0  0  0  0
  9 10  1  0  0  0  0
  9 11  1  0  0  0  0
  9 18  1  0  0  0  0
 11 12  1  0  0  0  0
 11 13  1  0  0  0  0
 11 14  1  0  0  0  0
 14 15  2  0  0  0  0
 14 16  1  0  0  0  0
 16 17  1  0  0  0  0
 18 19  2  0  0  0  0
 18 20  1  0  0  0  0
 20 21  1  0  0  0  0
 20 22  1  0  0  0  0
 22 23  1  0  0  0  0
 22 24  1  0  0  0  0
 22 25  1  0  0  0  0
M  END
$$$$

  -OEChem-02102214113D

 25 24  0     1  0  0  0  0  0999 V2000
   -2.5204   -3.6425   -0.4803 H   0  0  0  0  0  0  0  0  0  0  0  0
   -2.5381   -2.5705   -0.6972 C   0  0  0  0  0  0  0  0  0  0  0  0
   -3.2053   -2.0793    0.0151 H   0  0  0  0  0  0  0  0  0  0  0  0
   -2.9219   -2.4237   -1.7097 H   0  0  0  0  0  0  0  0  0  0  0  0
   -1.1397   -1.9929   -0.5832 C   0  0  0  0  0  0  0  0  0  0  0  0
   -0.2071   -2.7200   -0.2935 O   0  0  0  0  0  0  0  0  0  0  0  0
   -0.9315   -0.6494   -0.8336 N   0  0  0  0  0  0  0  0  0  0  0  0
   -1.7456   -0.0987   -1.0871 H   0  0  0  0  0  0  0  0  0  0  0  0
    0.3742    0.0282   -0.7069 C   0  0  1  0  0  0  0  0  0  0  0  0
    1.0943   -0.5416   -1.3073 H   0  0  0  0  0  0  0  0  0  0  0  0
    0.2456    1.4234   -1.3966 C   0  0  0  0  0  0  0  0  0  0  0  0
    0.7352    1.3429   -2.3712 H   0  0  0  0  0  0  0  0  0  0  0  0
   -0.8093    1.6286   -1.5927 H   0  0  0  0  0  0  0  0  0  0  0  0
    0.7887    2.6997   -0.7400 C   0  0  0  0  0  0  0  0  0  0  0  0
    1.0972    2.7533    0.4348 O   0  0  0  0  0  0  0  0  0  0  0  0
    0.8758    3.7650   -1.5688 O   0  0  0  0  0  0  0  0  0  0  0  0
    1.2532    4.4826   -1.0363 H   0  0  0  0  0  0  0  0  0  0  0  0
    0.9647   -0.0451    0.7241 C   0  0  0  0  0  0  0  0  0  0  0  0
    2.1653   -0.2331    0.8709 O   0  0  0  0  0  0  0  0  0  0  0  0
    0.1715    0.1993    1.8317 N   0  0  0  0  0  0  0  0  0  0  0  0
   -0.7903    0.4679    1.6614 H   0  0  0  0  0  0  0  0  0  0  0  0
    0.7075    0.2984    3.1828 C   0  0  0  0  0  0  0  0  0  0  0  0
    1.4076    1.1375    3.2543 H   0  0  0  0  0  0  0  0  0  0  0  0
   -0.1017    0.4583    3.9013 H   0  0  0  0  0  0  0  0  0  0  0  0
    1.2327   -0.6235    3.4542 H   0  0  0  0  0  0  0  0  0  0  0  0
  1  2  1  0  0  0  0
  2  3  1  0  0  0  0
  2  4  1  0  0  0  0
  2  5  1  0  0  0  0
  5  6  2  0  0  0  0
  5  7  1  0  0  0  0
  7  8  1  0  0  0  0
  7  9  1  0  0  0  0
  9 10  1  0  0  0  0
  9 11  1  0  0  0  0
  9 18  1  0  0  0  0
 11 12  1  0  0  0  0
 11 13  1  0  0  0  0
 11 14  1  0  0  0  0
 14 15  2  0  0  0  0
 14 16  1  0  0  0  0
 16 17  1  0  0  0  0
 18 19  2  0  0  0  0
 18 20  1  0  0  0  0
 20 21  1  0  0  0  0
 20 22  1  0  0  0  0
 22 23  1  0  0  0  0
 22 24  1  0  0  0  0
 22 25  1  0  0  0  0
M  END
$$$$

  -OEChem-02102214113D

 25 24  0     1  0  0  0  0  0999 V2000
   -2.5129   -3.6190   -0.4157 H   0  0  0  0  0  0  0  0  0  0  0  0
   -2.5256   -2.5523   -0.6580 C   0  0  0  0  0  0  0  0  0  0  0  0
   -3.1873   -2.0411    0.0450 H   0  0  0  0  0  0  0  0  0  0  0  0
   -2.9126   -2.4274   -1.6720 H   0  0  0  0  0  0  0  0  0  0  0  0
   -1.1240   -1.9795   -0.5629 C   0  0  0  0  0  0  0  0  0  0  0  0
   -0.1946   -2.7056   -0.2617 O   0  0  0  0  0  0  0  0  0  0  0  0
   -0.9111   -0.6403   -0.8328 N   0  0  0  0  0  0  0  0  0  0  0  0
   -1.7214   -0.0930   -1.1051 H   0  0  0  0  0  0  0  0  0  0  0  0
    0.3980    0.0352   -0.7233 C   0  0  1  0  0  0  0  0  0  0  0  0
    1.1191   -0.5273   -1.3289 H   0  0  0  0  0  0  0  0  0  0  0  0
    0.2410    1.4360   -1.3977 C   0  0  0  0  0  0  0  0  0  0  0  0
    0.7051    1.3690   -2.3855 H   0  0  0  0  0  0  0  0  0  0  0  0
   -0.8209    1.6326   -1.5644 H   0  0  0  0  0  0  0  0  0  0  0  0
    0.7870    2.7161   -0.7495 C   0  0  0  0  0  0  0  0  0  0  0  0
    1.3688    2.7230    0.3171 O   0  0  0  0  0  0  0  0  0  0  0  0
    0.5546    3.8421   -1.4618 O   0  0  0  0  0  0  0  0  0  0  0  0
    0.9659    4.5610   -0.9564 H   0  0  0  0  0  0  0  0  0  0  0  0
    0.9811   -0.0303    0.7108 C   0  0  0  0  0  0  0  0  0  0  0  0
    2.1722   -0.2609    0.8720 O   0  0  0  0  0  0  0  0  0  0  0  0
    0.1804    0.2290    1.8096 N   0  0  0  0  0  0  0  0  0  0  0  0
   -0.7945    0.4439    1.6375 H   0  0  0  0  0  0  0  0  0  0  0  0
    0.6871    0.2494    3.1750 C   0  0  0  0  0  0  0  0  0  0  0  0
    1.4600    1.0177    3.2830 H   0  0  0  0  0  0  0  0  0  0  0  0
   -0.1222    0.4707    3.8770 H   0  0  0  0  0  0  0  0  0  0  0  0
    1.1169   -0.7232    3.4368 H   0  0  0  0  0  0  0  0  0  0  0  0
  1  2  1  0  0  0  0
  2  3  1  0  0  0  0
  2  4  1  0  0  0  0
  2  5  1  0  0  0  0
  5  6  2  0  0  0  0
  5  7  1  0  0  0  0
  7  8  1  0  0  0  0
  7  9  1  0  0  0  0
  9 10  1  0  0  0  0
  9 11  1  0  0  0  0
  9 18  1  0  0  0  0
 11 12  1  0  0  0  0
 11 13  1  0  0  0  0
 11 14  1  0  0  0  0
 14 15  2  0  0  0  0
 14 16  1  0  0  0  0
 16 17  1  0  0  0  0
 18 19  2  0  0  0  0
 18 20  1  0  0  0  0
 20 21  1  0  0  0  0
 20 22  1  0  0  0  0
 22 23  1  0  0  0  0
 22 24  1  0  0  0  0
 22 25  1  0  0  0  0
M  END
$$$$

  -OEChem-02102214113D

 25 24  0     1  0  0  0  0  0999 V2000
   -2.5088   -3.6111   -0.3883 H   0  0  0  0  0  0  0  0  0  0  0  0
   -2.5200   -2.5465   -0.6393 C   0  0  0  0  0  0  0  0  0  0  0  0
   -3.1928   -2.0306    0.0497 H   0  0  0  0  0  0  0  0  0  0  0  0
   -2.8925   -2.4309   -1.6599 H   0  0  0  0  0  0  0  0  0  0  0  0
   -1.1207   -1.9707   -0.5278 C   0  0  0  0  0  0  0  0  0  0  0  0
   -0.1986   -2.6902   -0.1914 O   0  0  0  0  0  0  0  0  0  0  0  0
   -0.9031   -0.6379   -0.8245 N   0  0  0  0  0  0  0  0  0  0  0  0
   -1.7046   -0.1048   -1.1471 H   0  0  0  0  0  0  0  0  0  0  0  0
    0.4093    0.0364   -0.7381 C   0  0  1  0  0  0  0  0  0  0  0  0
    1.1292   -0.5230   -1.3479 H   0  0  0  0  0  0  0  0  0  0  0  0
    0.2259    1.4392   -1.4017 C   0  0  0  0  0  0  0  0  0  0  0  0
    0.6629    1.3848   -2.4023 H   0  0  0  0  0  0  0  0  0  0  0  0
   -0.8414    1.6316   -1.5365 H   0  0  0  0  0  0  0  0  0  0  0  0
    0.7847    2.7122   -0.7515 C   0  0  0  0  0  0  0  0  0  0  0  0
    1.6075    2.6872    0.1419 O   0  0  0  0  0  0  0  0  0  0  0  0
    0.2849    3.8648   -1.2528 O   0  0  0  0  0  0  0  0  0  0  0  0
    0.7360    4.5758   -0.7707 H   0  0  0  0  0  0  0  0  0  0  0  0
    0.9944   -0.0083    0.6965 C   0  0  0  0  0  0  0  0  0  0  0  0
    2.1777   -0.2702    0.8655 O   0  0  0  0  0  0  0  0  0  0  0  0
    0.1945    0.2733    1.7902 N   0  0  0  0  0  0  0  0  0  0  0  0
   -0.7909    0.4339    1.6180 H   0  0  0  0  0  0  0  0  0  0  0  0
    0.6839    0.2345    3.1616 C   0  0  0  0  0  0  0  0  0  0  0  0
    1.4917    0.9612    3.2983 H   0  0  0  0  0  0  0  0  0  0  0  0
   -0.1225    0.4781    3.8595 H   0  0  0  0  0  0  0  0  0  0  0  0
    1.0629   -0.7640    3.4037 H   0  0  0  0  0  0  0  0  0  0  0  0
  1  2  1  0  0  0  0
  2  3  1  0  0  0  0
  2  4  1  0  0  0  0
  2  5  1  0  0  0  0
  5  6  2  0  0  0  0
  5  7  1  0  0  0  0
  7  8  1  0  0  0  0
  7  9  1  0  0  0  0
  9 10  1  0  0  0  0
  9 11  1  0  0  0  0
  9 18  1  0  0  0  0
 11 12  1  0  0  0  0
 11 13  1  0  0  0  0
 11 14  1  0  0  0  0
 14 15  2  0  0  0  0
 14 16  1  0  0  0  0
 16 17  1  0  0  0  0
 18 19  2  0  0  0  0
 18 20  1  0  0  0  0
 20 21  1  0  0  0  0
 20 22  1  0  0  0  0
 22 23  1  0  0  0  0
 22 24  1  0  0  0  0
 22 25  1  0  0  0  0
M  END
$$$$

  -OEChem-02102214113D

 25 24  0     1  0  0  0  0  0999 V2000
   -2.4989   -3.6145   -0.3577 H   0  0  0  0  0  0  0  0  0  0  0  0
   -2.5111   -2.5537   -0.6243 C   0  0  0  0  0  0  0  0  0  0  0  0
   -3.1992   -2.0315    0.0445 H   0  0  0  0  0  0  0  0  0  0  0  0
   -2.8654   -2.4547   -1.6531 H   0  0  0  0  0  0  0  0  0  0  0  0
   -1.1173   -1.9681   -0.4956 C   0  0  0  0  0  0  0  0  0  0  0  0
   -0.2006   -2.6737   -0.1178 O   0  0  0  0  0  0  0  0  0  0  0  0
   -0.8998   -0.6423   -0.8225 N   0  0  0  0  0  0  0  0  0  0  0  0
   -1.6924   -0.1301   -1.1968 H   0  0  0  0  0  0  0  0  0  0  0  0
    0.4135    0.0338   -0.7603 C   0  0  1  0  0  0  0  0  0  0  0  0
    1.1328   -0.5208   -1.3749 H   0  0  0  0  0  0  0  0  0  0  0  0
    0.2045    1.4382   -1.4091 C   0  0  0  0  0  0  0  0  0  0  0  0
    0.6154    1.4009   -2.4214 H   0  0  0  0  0  0  0  0  0  0  0  0
   -0.8668    1.6299   -1.5119 H   0  0  0  0  0  0  0  0  0  0  0  0
    0.7841    2.6907   -0.7406 C   0  0  0  0  0  0  0  0  0  0  0  0
    1.7997    2.6501   -0.0746 O   0  0  0  0  0  0  0  0  0  0  0  0
    0.0846    3.8307   -0.9442 O   0  0  0  0  0  0  0  0  0  0  0  0
    0.5753    4.5241   -0.4749 H   0  0  0  0  0  0  0  0  0  0  0  0
    1.0025    0.0162    0.6739 C   0  0  0  0  0  0  0  0  0  0  0  0
    2.1814   -0.2588    0.8510 O   0  0  0  0  0  0  0  0  0  0  0  0
    0.2021    0.3210    1.7613 N   0  0  0  0  0  0  0  0  0  0  0  0
   -0.7896    0.4352    1.5863 H   0  0  0  0  0  0  0  0  0  0  0  0
    0.6781    0.2484    3.1364 C   0  0  0  0  0  0  0  0  0  0  0  0
    1.5207    0.9320    3.2848 H   0  0  0  0  0  0  0  0  0  0  0  0
   -0.1200    0.5290    3.8299 H   0  0  0  0  0  0  0  0  0  0  0  0
    1.0039   -0.7697    3.3743 H   0  0  0  0  0  0  0  0  0  0  0  0
  1  2  1  0  0  0  0
  2  3  1  0  0  0  0
  2  4  1  0  0  0  0
  2  5  1  0  0  0  0
  5  6  2  0  0  0  0
  5  7  1  0  0  0  0
  7  8  1  0  0  0  0
  7  9  1  0  0  0  0
  9 10  1  0  0  0  0
  9 11  1  0  0  0  0
  9 18  1  0  0  0  0
 11 12  1  0  0  0  0
 11 13  1  0  0  0  0
 11 14  1  0  0  0  0
 14 15  2  0  0  0  0
 14 16  1  0  0  0  0
 16 17  1  0  0  0  0
 18 19  2  0  0  0  0
 18 20  1  0  0  0  0
 20 21  1  0  0  0  0
 20 22  1  0  0  0  0
 22 23  1  0  0  0  0
 22 24  1  0  0  0  0
 22 25  1  0  0  0  0
M  END
$$$$

  -OEChem-02102214113D

 25 24  0     1  0  0  0  0  0999 V2000
   -2.4844   -3.6261   -0.3335 H   0  0  0  0  0  0  0  0  0  0  0  0
   -2.5031   -2.5683   -0.6115 C   0  0  0  0  0  0  0  0  0  0  0  0
   -3.1946   -2.0433    0.0515 H   0  0  0  0  0  0  0  0  0  0  0  0
   -2.8576   -2.4827   -1.6414 H   0  0  0  0  0  0  0  0  0  0  0  0
   -1.1125   -1.9736   -0.4887 C   0  0  0  0  0  0  0  0  0  0  0  0
   -0.1934   -2.6681   -0.0962 O   0  0  0  0  0  0  0  0  0  0  0  0
   -0.9011   -0.6516   -0.8346 N   0  0  0  0  0  0  0  0  0  0  0  0
   -1.6953   -0.1488   -1.2183 H   0  0  0  0  0  0  0  0  0  0  0  0
    0.4091    0.0309   -0.7839 C   0  0  1  0  0  0  0  0  0  0  0  0
    1.1310   -0.5183   -1.4005 H   0  0  0  0  0  0  0  0  0  0  0  0
    0.1857    1.4354   -1.4207 C   0  0  0  0  0  0  0  0  0  0  0  0
    0.5892    1.4158   -2.4365 H   0  0  0  0  0  0  0  0  0  0  0  0
   -0.8860    1.6311   -1.5111 H   0  0  0  0  0  0  0  0  0  0  0  0
    0.7848    2.6565   -0.7183 C   0  0  0  0  0  0  0  0  0  0  0  0
    1.9273    2.6319   -0.3031 O   0  0  0  0  0  0  0  0  0  0  0  0
   -0.0292    3.7285   -0.5813 O   0  0  0  0  0  0  0  0  0  0  0  0
    0.5000    4.3982   -0.1194 H   0  0  0  0  0  0  0  0  0  0  0  0
    1.0004    0.0358    0.6501 C   0  0  0  0  0  0  0  0  0  0  0  0
    2.1821   -0.2210    0.8325 O   0  0  0  0  0  0  0  0  0  0  0  0
    0.1976    0.3527    1.7321 N   0  0  0  0  0  0  0  0  0  0  0  0
   -0.7966    0.4381    1.5541 H   0  0  0  0  0  0  0  0  0  0  0  0
    0.6676    0.2849    3.1099 C   0  0  0  0  0  0  0  0  0  0  0  0
    1.5198    0.9570    3.2567 H   0  0  0  0  0  0  0  0  0  0  0  0
   -0.1293    0.5831    3.7977 H   0  0  0  0  0  0  0  0  0  0  0  0
    0.9772   -0.7360    3.3578 H   0  0  0  0  0  0  0  0  0  0  0  0
  1  2  1  0  0  0  0
  2  3  1  0  0  0  0
  2  4  1  0  0  0  0
  2  5  1  0  0  0  0
  5  6  2  0  0  0  0
  5  7  1  0  0  0  0
  7  8  1  0  0  0  0
  7  9  1  0  0  0  0
  9 10  1  0  0  0  0
  9 11  1  0  0  0  0
  9 18  1  0  0  0  0
 11 12  1  0  0  0  0
 11 13  1  0  0  0  0
 11 14  1  0  0  0  0
 14 15  2  0  0  0  0
 14 16  1  0  0  0  0
 16 17  1  0  0  0  0
 18 19  2  0  0  0  0
 18 20  1  0  0  0  0
 20 21  1  0  0  0  0
 20 22  1  0  0  0  0
 22 23  1  0  0  0  0
 22 24  1  0  0  0  0
 22 25  1  0  0  0  0
M  END
$$$$

  -OEChem-02102214113D

 25 24  0     1  0  0  0  0  0999 V2000
   -2.4796   -3.6472   -0.3375 H   0  0  0  0  0  0  0  0  0  0  0  0
   -2.5022   -2.5937   -0.6308 C   0  0  0  0  0  0  0  0  0  0  0  0
   -3.2170   -2.0671    0.0060 H   0  0  0  0  0  0  0  0  0  0  0  0
   -2.8303   -2.5264   -1.6708 H   0  0  0  0  0  0  0  0  0  0  0  0
   -1.1221   -1.9811   -0.4809 C   0  0  0  0  0  0  0  0  0  0  0  0
   -0.2043   -2.6599   -0.0589 O   0  0  0  0  0  0  0  0  0  0  0  0
   -0.9170   -0.6612   -0.8386 N   0  0  0  0  0  0  0  0  0  0  0  0
   -1.7062   -0.1749   -1.2530 H   0  0  0  0  0  0  0  0  0  0  0  0
    0.3907    0.0259   -0.7961 C   0  0  1  0  0  0  0  0  0  0  0  0
    1.1118   -0.5215   -1.4151 H   0  0  0  0  0  0  0  0  0  0  0  0
    0.1648    1.4319   -1.4219 C   0  0  0  0  0  0  0  0  0  0  0  0
    0.5640    1.4263   -2.4396 H   0  0  0  0  0  0  0  0  0  0  0  0
   -0.9055    1.6392   -1.5015 H   0  0  0  0  0  0  0  0  0  0  0  0
    0.7863    2.6174   -0.6846 C   0  0  0  0  0  0  0  0  0  0  0  0
    1.9916    2.6582   -0.5247 O   0  0  0  0  0  0  0  0  0  0  0  0
   -0.0605    3.5609   -0.2122 O   0  0  0  0  0  0  0  0  0  0  0  0
    0.5022    4.2092    0.2406 H   0  0  0  0  0  0  0  0  0  0  0  0
    0.9917    0.0492    0.6336 C   0  0  0  0  0  0  0  0  0  0  0  0
    2.1827   -0.1645    0.8084 O   0  0  0  0  0  0  0  0  0  0  0  0
    0.1941    0.3744    1.7166 N   0  0  0  0  0  0  0  0  0  0  0  0
   -0.8033    0.4411    1.5459 H   0  0  0  0  0  0  0  0  0  0  0  0
    0.6767    0.3403    3.0909 C   0  0  0  0  0  0  0  0  0  0  0  0
    1.5268    1.0194    3.2157 H   0  0  0  0  0  0  0  0  0  0  0  0
   -0.1154    0.6502    3.7788 H   0  0  0  0  0  0  0  0  0  0  0  0
    0.9936   -0.6734    3.3579 H   0  0  0  0  0  0  0  0  0  0  0  0
  1  2  1  0  0  0  0
  2  3  1  0  0  0  0
  2  4  1  0  0  0  0
  2  5  1  0  0  0  0
  5  6  2  0  0  0  0
  5  7  1  0  0  0  0
  7  8  1  0  0  0  0
  7  9  1  0  0  0  0
  9 10  1  0  0  0  0
  9 11  1  0  0  0  0
  9 18  1  0  0  0  0
 11 12  1  0  0  0  0
 11 13  1  0  0  0  0
 11 14  1  0  0  0  0
 14 15  2  0  0  0  0
 14 16  1  0  0  0  0
 16 17  1  0  0  0  0
 18 19  2  0  0  0  0
 18 20  1  0  0  0  0
 20 21  1  0  0  0  0
 20 22  1  0  0  0  0
 22 23  1  0  0  0  0
 22 24  1  0  0  0  0
 22 25  1  0  0  0  0
M  END
$$$$

  -OEChem-02102214113D

 25 24  0     1  0  0  0  0  0999 V2000
   -2.4727   -3.6632   -0.3555 H   0  0  0  0  0  0  0  0  0  0  0  0
   -2.5036   -2.6059   -0.6348 C   0  0  0  0  0  0  0  0  0  0  0  0
   -3.2103   -2.0900    0.0194 H   0  0  0  0  0  0  0  0  0  0  0  0
   -2.8477   -2.5263   -1.6688 H   0  0  0  0  0  0  0  0  0  0  0  0
   -1.1236   -1.9906   -0.4977 C   0  0  0  0  0  0  0  0  0  0  0  0
   -0.1993   -2.6673   -0.0863 O   0  0  0  0  0  0  0  0  0  0  0  0
   -0.9254   -0.6687   -0.8505 N   0  0  0  0  0  0  0  0  0  0  0  0
   -1.7209   -0.1779   -1.2471 H   0  0  0  0  0  0  0  0  0  0  0  0
    0.3780    0.0242   -0.8013 C   0  0  1  0  0  0  0  0  0  0  0  0
    1.1015   -0.5222   -1.4182 H   0  0  0  0  0  0  0  0  0  0  0  0
    0.1627    1.4298   -1.4257 C   0  0  0  0  0  0  0  0  0  0  0  0
    0.5717    1.4297   -2.4399 H   0  0  0  0  0  0  0  0  0  0  0  0
   -0.9048    1.6483   -1.5108 H   0  0  0  0  0  0  0  0  0  0  0  0
    0.7922    2.5890   -0.6590 C   0  0  0  0  0  0  0  0  0  0  0  0
    1.9967    2.7506   -0.7222 O   0  0  0  0  0  0  0  0  0  0  0  0
   -0.0310    3.3675    0.0810 O   0  0  0  0  0  0  0  0  0  0  0  0
    0.5480    4.0144    0.5149 H   0  0  0  0  0  0  0  0  0  0  0  0
    0.9802    0.0494    0.6278 C   0  0  0  0  0  0  0  0  0  0  0  0
    2.1808   -0.1078    0.7944 O   0  0  0  0  0  0  0  0  0  0  0  0
    0.1833    0.3678    1.7131 N   0  0  0  0  0  0  0  0  0  0  0  0
   -0.8148    0.4321    1.5454 H   0  0  0  0  0  0  0  0  0  0  0  0
    0.6739    0.3698    3.0851 C   0  0  0  0  0  0  0  0  0  0  0  0
    1.4993    1.0810    3.1962 H   0  0  0  0  0  0  0  0  0  0  0  0
   -0.1257    0.6597    3.7732 H   0  0  0  0  0  0  0  0  0  0  0  0
    1.0283   -0.6281    3.3645 H   0  0  0  0  0  0  0  0  0  0  0  0
  1  2  1  0  0  0  0
  2  3  1  0  0  0  0
  2  4  1  0  0  0  0
  2  5  1  0  0  0  0
  5  6  2  0  0  0  0
  5  7  1  0  0  0  0
  7  8  1  0  0  0  0
  7  9  1  0  0  0  0
  9 10  1  0  0  0  0
  9 11  1  0  0  0  0
  9 18  1  0  0  0  0
 11 12  1  0  0  0  0
 11 13  1  0  0  0  0
 11 14  1  0  0  0  0
 14 15  2  0  0  0  0
 14 16  1  0  0  0  0
 16 17  1  0  0  0  0
 18 19  2  0  0  0  0
 18 20  1  0  0  0  0
 20 21  1  0  0  0  0
 20 22  1  0  0  0  0
 22 23  1  0  0  0  0
 22 24  1  0  0  0  0
 22 25  1  0  0  0  0
M  END
$$$$

  -OEChem-02102214113D

 25 24  0     1  0  0  0  0  0999 V2000
   -2.4792   -3.6788   -0.3946 H   0  0  0  0  0  0  0  0  0  0  0  0
   -2.5139   -2.6187   -0.6618 C   0  0  0  0  0  0  0  0  0  0  0  0
   -3.2264   -2.1141   -0.0051 H   0  0  0  0  0  0  0  0  0  0  0  0
   -2.8526   -2.5289   -1.6967 H   0  0  0  0  0  0  0  0  0  0  0  0
   -1.1381   -1.9979   -0.5099 C   0  0  0  0  0  0  0  0  0  0  0  0
   -0.2119   -2.6738   -0.1009 O   0  0  0  0  0  0  0  0  0  0  0  0
   -0.9434   -0.6717   -0.8473 N   0  0  0  0  0  0  0  0  0  0  0  0
   -1.7390   -0.1778   -1.2400 H   0  0  0  0  0  0  0  0  0  0  0  0
    0.3590    0.0208   -0.7884 C   0  0  1  0  0  0  0  0  0  0  0  0
    1.0788   -0.5316   -1.4044 H   0  0  0  0  0  0  0  0  0  0  0  0
    0.1687    1.4255   -1.4196 C   0  0  0  0  0  0  0  0  0  0  0  0
    0.5913    1.4183   -2.4286 H   0  0  0  0  0  0  0  0  0  0  0  0
   -0.8946    1.6580   -1.5175 H   0  0  0  0  0  0  0  0  0  0  0  0
    0.8028    2.5715   -0.6380 C   0  0  0  0  0  0  0  0  0  0  0  0
    1.9513    2.8852   -0.8917 O   0  0  0  0  0  0  0  0  0  0  0  0
    0.0418    3.1940    0.2924 O   0  0  0  0  0  0  0  0  0  0  0  0
    0.6215    3.8598    0.6954 H   0  0  0  0  0  0  0  0  0  0  0  0
    0.9691    0.0351    0.6373 C   0  0  0  0  0  0  0  0  0  0  0  0
    2.1777   -0.0722    0.7859 O   0  0  0  0  0  0  0  0  0  0  0  0
    0.1820    0.3410    1.7329 N   0  0  0  0  0  0  0  0  0  0  0  0
   -0.8167    0.4204    1.5754 H   0  0  0  0  0  0  0  0  0  0  0  0
    0.6937    0.3840    3.0964 C   0  0  0  0  0  0  0  0  0  0  0  0
    1.4830    1.1376    3.1863 H   0  0  0  0  0  0  0  0  0  0  0  0
   -0.1091    0.6398    3.7943 H   0  0  0  0  0  0  0  0  0  0  0  0
    1.1034   -0.5910    3.3807 H   0  0  0  0  0  0  0  0  0  0  0  0
  1  2  1  0  0  0  0
  2  3  1  0  0  0  0
  2  4  1  0  0  0  0
  2  5  1  0  0  0  0
  5  6  2  0  0  0  0
  5  7  1  0  0  0  0
  7  8  1  0  0  0  0
  7  9  1  0  0  0  0
  9 10  1  0  0  0  0
  9 11  1  0  0  0  0
  9 18  1  0  0  0  0
 11 12  1  0  0  0  0
 11 13  1  0  0  0  0
 11 14  1  0  0  0  0
 14 15  2  0  0  0  0
 14 16  1  0  0  0  0
 16 17  1  0  0  0  0
 18 19  2  0  0  0  0
 18 20  1  0  0  0  0
 20 21  1  0  0  0  0
 20 22  1  0  0  0  0
 22 23  1  0  0  0  0
 22 24  1  0  0  0  0
 22 25  1  0  0  0  0
M  END
$$$$

  -OEChem-02102214113D

 25 24  0     1  0  0  0  0  0999 V2000
   -2.5022   -3.6819   -0.4169 H   0  0  0  0  0  0  0  0  0  0  0  0
   -2.5309   -2.6217   -0.6847 C   0  0  0  0  0  0  0  0  0  0  0  0
   -3.2369   -2.1121   -0.0248 H   0  0  0  0  0  0  0  0  0  0  0  0
   -2.8745   -2.5302   -1.7179 H   0  0  0  0  0  0  0  0  0  0  0  0
   -1.1497   -2.0105   -0.5399 C   0  0  0  0  0  0  0  0  0  0  0  0
   -0.2207   -2.6997   -0.1601 O   0  0  0  0  0  0  0  0  0  0  0  0
   -0.9524   -0.6776   -0.8490 N   0  0  0  0  0  0  0  0  0  0  0  0
   -1.7522   -0.1667   -1.2101 H   0  0  0  0  0  0  0  0  0  0  0  0
    0.3508    0.0109   -0.7718 C   0  0  1  0  0  0  0  0  0  0  0  0
    1.0676   -0.5458   -1.3879 H   0  0  0  0  0  0  0  0  0  0  0  0
    0.1897    1.4175   -1.4063 C   0  0  0  0  0  0  0  0  0  0  0  0
    0.6266    1.4014   -2.4092 H   0  0  0  0  0  0  0  0  0  0  0  0
   -0.8694    1.6602   -1.5207 H   0  0  0  0  0  0  0  0  0  0  0  0
    0.8191    2.5628   -0.6186 C   0  0  0  0  0  0  0  0  0  0  0  0
    1.8591    3.0451   -1.0294 O   0  0  0  0  0  0  0  0  0  0  0  0
    0.1381    3.0459    0.4472 O   0  0  0  0  0  0  0  0  0  0  0  0
    0.6952    3.7527    0.8098 H   0  0  0  0  0  0  0  0  0  0  0  0
    0.9644   -0.0010    0.6522 C   0  0  0  0  0  0  0  0  0  0  0  0
    2.1771   -0.0791    0.7879 O   0  0  0  0  0  0  0  0  0  0  0  0
    0.1844    0.2840    1.7584 N   0  0  0  0  0  0  0  0  0  0  0  0
   -0.8096    0.4135    1.6040 H   0  0  0  0  0  0  0  0  0  0  0  0
    0.7169    0.3868    3.1106 C   0  0  0  0  0  0  0  0  0  0  0  0
    1.4622    1.1870    3.1685 H   0  0  0  0  0  0  0  0  0  0  0  0
   -0.0868    0.6106    3.8183 H   0  0  0  0  0  0  0  0  0  0  0  0
    1.1882   -0.5560    3.4079 H   0  0  0  0  0  0  0  0  0  0  0  0
  1  2  1  0  0  0  0
  2  3  1  0  0  0  0
  2  4  1  0  0  0  0
  2  5  1  0  0  0  0
  5  6  2  0  0  0  0
  5  7  1  0  0  0  0
  7  8  1  0  0  0  0
  7  9  1  0  0  0  0
  9 10  1  0  0  0  0
  9 11  1  0  0  0  0
  9 18  1  0  0  0  0
 11 12  1  0  0  0  0
 11 13  1  0  0  0  0
 11 14  1  0  0  0  0
 14 15  2  0  0  0  0
 14 16  1  0  0  0  0
 16 17  1  0  0  0  0
 18 19  2  0  0  0  0
 18 20  1  0  0  0  0
 20 21  1  0  0  0  0
 20 22  1  0  0  0  0
 22 23  1  0  0  0  0
 22 24  1  0  0  0  0
 22 25  1  0  0  0  0
M  END
$$$$

  -OEChem-02102214113D

 25 24  0     1  0  0  0  0  0999 V2000
   -2.5249   -3.6779   -0.4506 H   0  0  0  0  0  0  0  0  0  0  0  0
   -2.5467   -2.6134   -0.7012 C   0  0  0  0  0  0  0  0  0  0  0  0
   -3.2411   -2.1077   -0.0261 H   0  0  0  0  0  0  0  0  0  0  0  0
   -2.8999   -2.5022   -1.7291 H   0  0  0  0  0  0  0  0  0  0  0  0
   -1.1590   -2.0163   -0.5614 C   0  0  0  0  0  0  0  0  0  0  0  0
   -0.2294   -2.7197   -0.2096 O   0  0  0  0  0  0  0  0  0  0  0  0
   -0.9568   -0.6787   -0.8445 N   0  0  0  0  0  0  0  0  0  0  0  0
   -1.7611   -0.1504   -1.1688 H   0  0  0  0  0  0  0  0  0  0  0  0
    0.3476    0.0039   -0.7499 C   0  0  1  0  0  0  0  0  0  0  0  0
    1.0604   -0.5632   -1.3612 H   0  0  0  0  0  0  0  0  0  0  0  0
    0.2197    1.4062   -1.4034 C   0  0  0  0  0  0  0  0  0  0  0  0
    0.6775    1.3674   -2.3965 H   0  0  0  0  0  0  0  0  0  0  0  0
   -0.8343    1.6558   -1.5447 H   0  0  0  0  0  0  0  0  0  0  0  0
    0.8391    2.5661   -0.6265 C   0  0  0  0  0  0  0  0  0  0  0  0
    1.7242    3.2053   -1.1669 O   0  0  0  0  0  0  0  0  0  0  0  0
    0.2613    2.9336    0.5414 O   0  0  0  0  0  0  0  0  0  0  0  0
    0.7795    3.6893    0.8601 H   0  0  0  0  0  0  0  0  0  0  0  0
    0.9638   -0.0318    0.6723 C   0  0  0  0  0  0  0  0  0  0  0  0
    2.1787   -0.0973    0.7980 O   0  0  0  0  0  0  0  0  0  0  0  0
    0.1907    0.2350    1.7880 N   0  0  0  0  0  0  0  0  0  0  0  0
   -0.7964    0.4107    1.6357 H   0  0  0  0  0  0  0  0  0  0  0  0
    0.7385    0.3629    3.1321 C   0  0  0  0  0  0  0  0  0  0  0  0
    1.4496    1.1943    3.1783 H   0  0  0  0  0  0  0  0  0  0  0  0
   -0.0635    0.5523    3.8517 H   0  0  0  0  0  0  0  0  0  0  0  0
    1.2539   -0.5586    3.4232 H   0  0  0  0  0  0  0  0  0  0  0  0
  1  2  1  0  0  0  0
  2  3  1  0  0  0  0
  2  4  1  0  0  0  0
  2  5  1  0  0  0  0
  5  6  2  0  0  0  0
  5  7  1  0  0  0  0
  7  8  1  0  0  0  0
  7  9  1  0  0  0  0
  9 10  1  0  0  0  0
  9 11  1  0  0  0  0
  9 18  1  0  0  0  0
 11 12  1  0  0  0  0
 11 13  1  0  0  0  0
 11 14  1  0  0  0  0
 14 15  2  0  0  0  0
 14 16  1  0  0  0  0
 16 17  1  0  0  0  0
 18 19  2  0  0  0  0
 18 20  1  0  0  0  0
 20 21  1  0  0  0  0
 20 22  1  0  0  0  0
 22 23  1  0  0  0  0
 22 24  1  0  0  0  0
 22 25  1  0  0  0  0
M  END
$$$$

  -OEChem-02102214113D

 25 24  0     1  0  0  0  0  0999 V2000
   -2.5437   -3.6697   -0.4843 H   0  0  0  0  0  0  0  0  0  0  0  0
   -2.5614   -2.6004   -0.7141 C   0  0  0  0  0  0  0  0  0  0  0  0
   -3.2506   -2.1046   -0.0264 H   0  0  0  0  0  0  0  0  0  0  0  0
   -2.9178   -2.4672   -1.7383 H   0  0  0  0  0  0  0  0  0  0  0  0
   -1.1697   -2.0135   -0.5693 C   0  0  0  0  0  0  0  0  0  0  0  0
   -0.2431   -2.7273   -0.2310 O   0  0  0  0  0  0  0  0  0  0  0  0
   -0.9601   -0.6731   -0.8331 N   0  0  0  0  0  0  0  0  0  0  0  0
   -1.7632   -0.1341   -1.1420 H   0  0  0  0  0  0  0  0  0  0  0  0
    0.3480    0.0013   -0.7278 C   0  0  1  0  0  0  0  0  0  0  0  0
    1.0542   -0.5793   -1.3344 H   0  0  0  0  0  0  0  0  0  0  0  0
    0.2515    1.3967   -1.4048 C   0  0  0  0  0  0  0  0  0  0  0  0
    0.7248    1.3290   -2.3891 H   0  0  0  0  0  0  0  0  0  0  0  0
   -0.7981    1.6500   -1.5696 H   0  0  0  0  0  0  0  0  0  0  0  0
    0.8620    2.5835   -0.6583 C   0  0  0  0  0  0  0  0  0  0  0  0
    1.5446    3.3545   -1.3097 O   0  0  0  0  0  0  0  0  0  0  0  0
    0.4361    2.8549    0.5970 O   0  0  0  0  0  0  0  0  0  0  0  0
    0.9084    3.6585    0.8650 H   0  0  0  0  0  0  0  0  0  0  0  0
    0.9674   -0.0550    0.6921 C   0  0  0  0  0  0  0  0  0  0  0  0
    2.1834   -0.1218    0.8108 O   0  0  0  0  0  0  0  0  0  0  0  0
    0.1996    0.2001    1.8144 N   0  0  0  0  0  0  0  0  0  0  0  0
   -0.7848    0.3920    1.6665 H   0  0  0  0  0  0  0  0  0  0  0  0
    0.7547    0.3226    3.1559 C   0  0  0  0  0  0  0  0  0  0  0  0
    1.4508    1.1663    3.2063 H   0  0  0  0  0  0  0  0  0  0  0  0
   -0.0455    0.4887    3.8832 H   0  0  0  0  0  0  0  0  0  0  0  0
    1.2886   -0.5925    3.4331 H   0  0  0  0  0  0  0  0  0  0  0  0
  1  2  1  0  0  0  0
  2  3  1  0  0  0  0
  2  4  1  0  0  0  0
  2  5  1  0  0  0  0
  5  6  2  0  0  0  0
  5  7  1  0  0  0  0
  7  8  1  0  0  0  0
  7  9  1  0  0  0  0
  9 10  1  0  0  0  0
  9 11  1  0  0  0  0
  9 18  1  0  0  0  0
 11 12  1  0  0  0  0
 11 13  1  0  0  0  0
 11 14  1  0  0  0  0
 14 15  2  0  0  0  0
 14 16  1  0  0  0  0
 16 17  1  0  0  0  0
 18 19  2  0  0  0  0
 18 20  1  0  0  0  0
 20 21  1  0  0  0  0
 20 22  1  0  0  0  0
 22 23  1  0  0  0  0
 22 24  1  0  0  0  0
 22 25  1  0  0  0  0
M  END
$$$$

  -OEChem-02102214113D

 25 24  0     1  0  0  0  0  0999 V2000
   -2.5585   -3.6504   -0.4845 H   0  0  0  0  0  0  0  0  0  0  0  0
   -2.5689   -2.5804   -0.7110 C   0  0  0  0  0  0  0  0  0  0  0  0
   -3.2475   -2.0804   -0.0158 H   0  0  0  0  0  0  0  0  0  0  0  0
   -2.9335   -2.4413   -1.7315 H   0  0  0  0  0  0  0  0  0  0  0  0
   -1.1712   -2.0059   -0.5763 C   0  0  0  0  0  0  0  0  0  0  0  0
   -0.2466   -2.7313   -0.2571 O   0  0  0  0  0  0  0  0  0  0  0  0
   -0.9535   -0.6643   -0.8279 N   0  0  0  0  0  0  0  0  0  0  0  0
   -1.7568   -0.1138   -1.1156 H   0  0  0  0  0  0  0  0  0  0  0  0
    0.3580    0.0021   -0.7132 C   0  0  1  0  0  0  0  0  0  0  0  0
    1.0617   -0.5877   -1.3137 H   0  0  0  0  0  0  0  0  0  0  0  0
    0.2776    1.3908   -1.4110 C   0  0  0  0  0  0  0  0  0  0  0  0
    0.7636    1.2987   -2.3871 H   0  0  0  0  0  0  0  0  0  0  0  0
   -0.7702    1.6368   -1.5972 H   0  0  0  0  0  0  0  0  0  0  0  0
    0.8725    2.6145   -0.7077 C   0  0  0  0  0  0  0  0  0  0  0  0
    1.3030    3.4903   -1.4379 O   0  0  0  0  0  0  0  0  0  0  0  0
    0.6791    2.7969    0.6175 O   0  0  0  0  0  0  0  0  0  0  0  0
    1.0959    3.6459    0.8312 H   0  0  0  0  0  0  0  0  0  0  0  0
    0.9723   -0.0701    0.7076 C   0  0  0  0  0  0  0  0  0  0  0  0
    2.1860   -0.1708    0.8294 O   0  0  0  0  0  0  0  0  0  0  0  0
    0.2024    0.1794    1.8301 N   0  0  0  0  0  0  0  0  0  0  0  0
   -0.7782    0.3878    1.6810 H   0  0  0  0  0  0  0  0  0  0  0  0
    0.7540    0.2689    3.1756 C   0  0  0  0  0  0  0  0  0  0  0  0
    1.4746    1.0909    3.2400 H   0  0  0  0  0  0  0  0  0  0  0  0
   -0.0448    0.4497    3.9010 H   0  0  0  0  0  0  0  0  0  0  0  0
    1.2592   -0.6651    3.4439 H   0  0  0  0  0  0  0  0  0  0  0  0
  1  2  1  0  0  0  0
  2  3  1  0  0  0  0
  2  4  1  0  0  0  0
  2  5  1  0  0  0  0
  5  6  2  0  0  0  0
  5  7  1  0  0  0  0
  7  8  1  0  0  0  0
  7  9  1  0  0  0  0
  9 10  1  0  0  0  0
  9 11  1  0  0  0  0
  9 18  1  0  0  0  0
 11 12  1  0  0  0  0
 11 13  1  0  0  0  0
 11 14  1  0  0  0  0
 14 15  2  0  0  0  0
 14 16  1  0  0  0  0
 16 17  1  0  0  0  0
 18 19  2  0  0  0  0
 18 20  1  0  0  0  0
 20 21  1  0  0  0  0
 20 22  1  0  0  0  0
 22 23  1  0  0  0  0
 22 24  1  0  0  0  0
 22 25  1  0  0  0  0
M  END
$$$$

  -OEChem-02102214113D

 25 24  0     1  0  0  0  0  0999 V2000
   -2.5624   -3.6321   -0.4611 H   0  0  0  0  0  0  0  0  0  0  0  0
   -2.5684   -2.5631   -0.6928 C   0  0  0  0  0  0  0  0  0  0  0  0
   -3.2433   -2.0579    0.0020 H   0  0  0  0  0  0  0  0  0  0  0  0
   -2.9352   -2.4271   -1.7130 H   0  0  0  0  0  0  0  0  0  0  0  0
   -1.1676   -1.9944   -0.5632 C   0  0  0  0  0  0  0  0  0  0  0  0
   -0.2477   -2.7234   -0.2394 O   0  0  0  0  0  0  0  0  0  0  0  0
   -0.9422   -0.6549   -0.8214 N   0  0  0  0  0  0  0  0  0  0  0  0
   -1.7400   -0.1044   -1.1237 H   0  0  0  0  0  0  0  0  0  0  0  0
    0.3744    0.0049   -0.7127 C   0  0  1  0  0  0  0  0  0  0  0  0
    1.0773   -0.5854   -1.3135 H   0  0  0  0  0  0  0  0  0  0  0  0
    0.2827    1.3948   -1.4141 C   0  0  0  0  0  0  0  0  0  0  0  0
    0.7603    1.2937   -2.3933 H   0  0  0  0  0  0  0  0  0  0  0  0
   -0.7693    1.6274   -1.5952 H   0  0  0  0  0  0  0  0  0  0  0  0
    0.8666    2.6529   -0.7572 C   0  0  0  0  0  0  0  0  0  0  0  0
    0.9969    3.6069   -1.5047 O   0  0  0  0  0  0  0  0  0  0  0  0
    1.0363    2.7466    0.5790 O   0  0  0  0  0  0  0  0  0  0  0  0
    1.3958    3.6314    0.7443 H   0  0  0  0  0  0  0  0  0  0  0  0
    0.9790   -0.0721    0.7117 C   0  0  0  0  0  0  0  0  0  0  0  0
    2.1859   -0.2273    0.8456 O   0  0  0  0  0  0  0  0  0  0  0  0
    0.2004    0.1853    1.8267 N   0  0  0  0  0  0  0  0  0  0  0  0
   -0.7839    0.3708    1.6733 H   0  0  0  0  0  0  0  0  0  0  0  0
    0.7315    0.2184    3.1828 C   0  0  0  0  0  0  0  0  0  0  0  0
    1.4951    0.9979    3.2755 H   0  0  0  0  0  0  0  0  0  0  0  0
   -0.0686    0.4306    3.8982 H   0  0  0  0  0  0  0  0  0  0  0  0
    1.1802   -0.7468    3.4409 H   0  0  0  0  0  0  0  0  0  0  0  0
  1  2  1  0  0  0  0
  2  3  1  0  0  0  0
  2  4  1  0  0  0  0
  2  5  1  0  0  0  0
  5  6  2  0  0  0  0
  5  7  1  0  0  0  0
  7  8  1  0  0  0  0
  7  9  1  0  0  0  0
  9 10  1  0  0  0  0
  9 11  1  0  0  0  0
  9 18  1  0  0  0  0
 11 12  1  0  0  0  0
 11 13  1  0  0  0  0
 11 14  1  0  0  0  0
 14 15  2  0  0  0  0
 14 16  1  0  0  0  0
 16 17  1  0  0  0  0
 18 19  2  0  0  0  0
 18 20  1  0  0  0  0
 20 21  1  0  0  0  0
 20 22  1  0  0  0  0
 22 23  1  0  0  0  0
 22 24  1  0  0  0  0
 22 25  1  0  0  0  0
M  END
$$$$

  -OEChem-02102214113D

 25 24  0     1  0  0  0  0  0999 V2000
   -2.5521   -3.5887   -0.3587 H   0  0  0  0  0  0  0  0  0  0  0  0
   -2.5384   -2.5285   -0.6276 C   0  0  0  0  0  0  0  0  0  0  0  0
   -3.2304   -1.9913    0.0253 H   0  0  0  0  0  0  0  0  0  0  0  0
   -2.8689   -2.4259   -1.6640 H   0  0  0  0  0  0  0  0  0  0  0  0
   -1.1364   -1.9696   -0.4712 C   0  0  0  0  0  0  0  0  0  0  0  0
   -0.2464   -2.6859   -0.0520 O   0  0  0  0  0  0  0  0  0  0  0  0
   -0.8810   -0.6567   -0.8233 N   0  0  0  0  0  0  0  0  0  0  0  0
   -1.6476   -0.1441   -1.2485 H   0  0  0  0  0  0  0  0  0  0  0  0
    0.4476   -0.0111   -0.7606 C   0  0  1  0  0  0  0  0  0  0  0  0
    1.1685   -0.5779   -1.3620 H   0  0  0  0  0  0  0  0  0  0  0  0
    0.2459    1.3880   -1.4159 C   0  0  0  0  0  0  0  0  0  0  0  0
    0.3747    1.2677   -2.4952 H   0  0  0  0  0  0  0  0  0  0  0  0
   -0.7860    1.7053   -1.2422 H   0  0  0  0  0  0  0  0  0  0  0  0
    1.0987    2.5882   -0.9834 C   0  0  0  0  0  0  0  0  0  0  0  0
    0.8489    3.6296   -1.5659 O   0  0  0  0  0  0  0  0  0  0  0  0
    2.0848    2.4778   -0.0706 O   0  0  0  0  0  0  0  0  0  0  0  0
    2.5065    3.3473   -0.0050 H   0  0  0  0  0  0  0  0  0  0  0  0
    1.0080   -0.0191    0.6854 C   0  0  0  0  0  0  0  0  0  0  0  0
    2.1704   -0.3397    0.8958 O   0  0  0  0  0  0  0  0  0  0  0  0
    0.1935    0.3254    1.7501 N   0  0  0  0  0  0  0  0  0  0  0  0
   -0.7913    0.4547    1.5486 H   0  0  0  0  0  0  0  0  0  0  0  0
    0.6235    0.2190    3.1381 C   0  0  0  0  0  0  0  0  0  0  0  0
    1.4864    0.8681    3.3209 H   0  0  0  0  0  0  0  0  0  0  0  0
   -0.1848    0.5217    3.8103 H   0  0  0  0  0  0  0  0  0  0  0  0
    0.9029   -0.8138    3.3730 H   0  0  0  0  0  0  0  0  0  0  0  0
  1  2  1  0  0  0  0
  2  3  1  0  0  0  0
  2  4  1  0  0  0  0
  2  5  1  0  0  0  0
  5  6  2  0  0  0  0
  5  7  1  0  0  0  0
  7  8  1  0  0  0  0
  7  9  1  0  0  0  0
  9 10  1  0  0  0  0
  9 11  1  0  0  0  0
  9 18  1  0  0  0  0
 11 12  1  0  0  0  0
 11 13  1  0  0  0  0
 11 14  1  0  0  0  0
 14 15  2  0  0  0  0
 14 16  1  0  0  0  0
 16 17  1  0  0  0  0
 18 19  2  0  0  0  0
 18 20  1  0  0  0  0
 20 21  1  0  0  0  0
 20 22  1  0  0  0  0
 22 23  1  0  0  0  0
 22 24  1  0  0  0  0
 22 25  1  0  0  0  0
M  END
$$$$

  -OEChem-02102214113D

 25 24  0     1  0  0  0  0  0999 V2000
   -2.5419   -3.5918   -0.3189 H   0  0  0  0  0  0  0  0  0  0  0  0
   -2.5263   -2.5423   -0.6265 C   0  0  0  0  0  0  0  0  0  0  0  0
   -3.2391   -1.9861   -0.0132 H   0  0  0  0  0  0  0  0  0  0  0  0
   -2.8288   -2.4797   -1.6745 H   0  0  0  0  0  0  0  0  0  0  0  0
   -1.1323   -1.9691   -0.4529 C   0  0  0  0  0  0  0  0  0  0  0  0
   -0.2458   -2.6698   -0.0015 O   0  0  0  0  0  0  0  0  0  0  0  0
   -0.8821   -0.6607   -0.8239 N   0  0  0  0  0  0  0  0  0  0  0  0
   -1.6413   -0.1705   -1.2873 H   0  0  0  0  0  0  0  0  0  0  0  0
    0.4445   -0.0100   -0.7757 C   0  0  1  0  0  0  0  0  0  0  0  0
    1.1677   -0.5635   -1.3862 H   0  0  0  0  0  0  0  0  0  0  0  0
    0.2161    1.3976   -1.3981 C   0  0  0  0  0  0  0  0  0  0  0  0
    0.3330    1.3095   -2.4813 H   0  0  0  0  0  0  0  0  0  0  0  0
   -0.8140    1.7089   -1.2014 H   0  0  0  0  0  0  0  0  0  0  0  0
    1.0915    2.5650   -0.9322 C   0  0  0  0  0  0  0  0  0  0  0  0
    0.6898    3.6776   -1.2273 O   0  0  0  0  0  0  0  0  0  0  0  0
    2.3124    2.3390   -0.4051 O   0  0  0  0  0  0  0  0  0  0  0  0
    2.7194    3.2040   -0.2502 H   0  0  0  0  0  0  0  0  0  0  0  0
    1.0089    0.0021    0.6702 C   0  0  0  0  0  0  0  0  0  0  0  0
    2.1711   -0.3117    0.8894 O   0  0  0  0  0  0  0  0  0  0  0  0
    0.1922    0.3587    1.7292 N   0  0  0  0  0  0  0  0  0  0  0  0
   -0.7964    0.4546    1.5254 H   0  0  0  0  0  0  0  0  0  0  0  0
    0.6171    0.2563    3.1196 C   0  0  0  0  0  0  0  0  0  0  0  0
    1.5148    0.8596    3.2913 H   0  0  0  0  0  0  0  0  0  0  0  0
   -0.1724    0.6178    3.7851 H   0  0  0  0  0  0  0  0  0  0  0  0
    0.8390   -0.7853    3.3753 H   0  0  0  0  0  0  0  0  0  0  0  0
  1  2  1  0  0  0  0
  2  3  1  0  0  0  0
  2  4  1  0  0  0  0
  2  5  1  0  0  0  0
  5  6  2  0  0  0  0
  5  7  1  0  0  0  0
  7  8  1  0  0  0  0
  7  9  1  0  0  0  0
  9 10  1  0  0  0  0
  9 11  1  0  0  0  0
  9 18  1  0  0  0  0
 11 12  1  0  0  0  0
 11 13  1  0  0  0  0
 11 14  1  0  0  0  0
 14 15  2  0  0  0  0
 14 16  1  0  0  0  0
 16 17  1  0  0  0  0
 18 19  2  0  0  0  0
 18 20  1  0  0  0  0
 20 21  1  0  0  0  0
 20 22  1  0  0  0  0
 22 23  1  0  0  0  0
 22 24  1  0  0  0  0
 22 25  1  0  0  0  0
M  END
$$$$

  -OEChem-02102214113D

 25 24  0     1  0  0  0  0  0999 V2000
   -2.5285   -3.6105   -0.3196 H   0  0  0  0  0  0  0  0  0  0  0  0
   -2.5235   -2.5607   -0.6270 C   0  0  0  0  0  0  0  0  0  0  0  0
   -3.2411   -2.0116   -0.0130 H   0  0  0  0  0  0  0  0  0  0  0  0
   -2.8274   -2.5008   -1.6748 H   0  0  0  0  0  0  0  0  0  0  0  0
   -1.1351   -1.9739   -0.4534 C   0  0  0  0  0  0  0  0  0  0  0  0
   -0.2438   -2.6630    0.0065 O   0  0  0  0  0  0  0  0  0  0  0  0
   -0.8937   -0.6664   -0.8333 N   0  0  0  0  0  0  0  0  0  0  0  0
   -1.6552   -0.1843   -1.3015 H   0  0  0  0  0  0  0  0  0  0  0  0
    0.4297   -0.0099   -0.7929 C   0  0  1  0  0  0  0  0  0  0  0  0
    1.1526   -0.5590   -1.4079 H   0  0  0  0  0  0  0  0  0  0  0  0
    0.2004    1.4018   -1.3984 C   0  0  0  0  0  0  0  0  0  0  0  0
    0.3172    1.3359   -2.4832 H   0  0  0  0  0  0  0  0  0  0  0  0
   -0.8262    1.7199   -1.1941 H   0  0  0  0  0  0  0  0  0  0  0  0
    1.1074    2.5248   -0.8937 C   0  0  0  0  0  0  0  0  0  0  0  0
    0.6361    3.6492   -0.8826 O   0  0  0  0  0  0  0  0  0  0  0  0
    2.4181    2.2677   -0.6956 O   0  0  0  0  0  0  0  0  0  0  0  0
    2.8331    3.1016   -0.4307 H   0  0  0  0  0  0  0  0  0  0  0  0
    1.0033    0.0158    0.6498 C   0  0  0  0  0  0  0  0  0  0  0  0
    2.1783   -0.2486    0.8627 O   0  0  0  0  0  0  0  0  0  0  0  0
    0.1902    0.3763    1.7101 N   0  0  0  0  0  0  0  0  0  0  0  0
   -0.8015    0.4538    1.5133 H   0  0  0  0  0  0  0  0  0  0  0  0
    0.6288    0.3092    3.0985 C   0  0  0  0  0  0  0  0  0  0  0  0
    1.5059    0.9460    3.2547 H   0  0  0  0  0  0  0  0  0  0  0  0
   -0.1685    0.6521    3.7646 H   0  0  0  0  0  0  0  0  0  0  0  0
    0.8888   -0.7204    3.3669 H   0  0  0  0  0  0  0  0  0  0  0  0
  1  2  1  0  0  0  0
  2  3  1  0  0  0  0
  2  4  1  0  0  0  0
  2  5  1  0  0  0  0
  5  6  2  0  0  0  0
  5  7  1  0  0  0  0
  7  8  1  0  0  0  0
  7  9  1  0  0  0  0
  9 10  1  0  0  0  0
  9 11  1  0  0  0  0
  9 18  1  0  0  0  0
 11 12  1  0  0  0  0
 11 13  1  0  0  0  0
 11 14  1  0  0  0  0
 14 15  2  0  0  0  0
 14 16  1  0  0  0  0
 16 17  1  0  0  0  0
 18 19  2  0  0  0  0
 18 20  1  0  0  0  0
 20 21  1  0  0  0  0
 20 22  1  0  0  0  0
 22 23  1  0  0  0  0
 22 24  1  0  0  0  0
 22 25  1  0  0  0  0
M  END
$$$$

  -OEChem-02102214113D

 25 24  0     1  0  0  0  0  0999 V2000
   -2.5217   -3.6322   -0.3332 H   0  0  0  0  0  0  0  0  0  0  0  0
   -2.5266   -2.5822   -0.6397 C   0  0  0  0  0  0  0  0  0  0  0  0
   -3.2490   -2.0401   -0.0250 H   0  0  0  0  0  0  0  0  0  0  0  0
   -2.8315   -2.5245   -1.6874 H   0  0  0  0  0  0  0  0  0  0  0  0
   -1.1435   -1.9828   -0.4666 C   0  0  0  0  0  0  0  0  0  0  0  0
   -0.2452   -2.6635   -0.0071 O   0  0  0  0  0  0  0  0  0  0  0  0
   -0.9133   -0.6728   -0.8445 N   0  0  0  0  0  0  0  0  0  0  0  0
   -1.6786   -0.1951   -1.3112 H   0  0  0  0  0  0  0  0  0  0  0  0
    0.4068   -0.0106   -0.8080 C   0  0  1  0  0  0  0  0  0  0  0  0
    1.1267   -0.5573   -1.4288 H   0  0  0  0  0  0  0  0  0  0  0  0
    0.1870    1.4051   -1.4014 C   0  0  0  0  0  0  0  0  0  0  0  0
    0.3086    1.3559   -2.4865 H   0  0  0  0  0  0  0  0  0  0  0  0
   -0.8358    1.7344   -1.1962 H   0  0  0  0  0  0  0  0  0  0  0  0
    1.1207    2.4875   -0.8632 C   0  0  0  0  0  0  0  0  0  0  0  0
    0.6283    3.5592   -0.5537 O   0  0  0  0  0  0  0  0  0  0  0  0
    2.4522    2.2680   -0.9332 O   0  0  0  0  0  0  0  0  0  0  0  0
    2.8856    3.0529   -0.5667 H   0  0  0  0  0  0  0  0  0  0  0  0
    0.9941    0.0178    0.6292 C   0  0  0  0  0  0  0  0  0  0  0  0
    2.1861   -0.1762    0.8212 O   0  0  0  0  0  0  0  0  0  0  0  0
    0.1901    0.3725    1.6981 N   0  0  0  0  0  0  0  0  0  0  0  0
   -0.8060    0.4351    1.5179 H   0  0  0  0  0  0  0  0  0  0  0  0
    0.6587    0.3722    3.0782 C   0  0  0  0  0  0  0  0  0  0  0  0
    1.5057    1.0561    3.1958 H   0  0  0  0  0  0  0  0  0  0  0  0
   -0.1414    0.6971    3.7500 H   0  0  0  0  0  0  0  0  0  0  0  0
    0.9744   -0.6338    3.3742 H   0  0  0  0  0  0  0  0  0  0  0  0
  1  2  1  0  0  0  0
  2  3  1  0  0  0  0
  2  4  1  0  0  0  0
  2  5  1  0  0  0  0
  5  6  2  0  0  0  0
  5  7  1  0  0  0  0
  7  8  1  0  0  0  0
  7  9  1  0  0  0  0
  9 10  1  0  0  0  0
  9 11  1  0  0  0  0
  9 18  1  0  0  0  0
 11 12  1  0  0  0  0
 11 13  1  0  0  0  0
 11 14  1  0  0  0  0
 14 15  2  0  0  0  0
 14 16  1  0  0  0  0
 16 17  1  0  0  0  0
 18 19  2  0  0  0  0
 18 20  1  0  0  0  0
 20 21  1  0  0  0  0
 20 22  1  0  0  0  0
 22 23  1  0  0  0  0
 22 24  1  0  0  0  0
 22 25  1  0  0  0  0
M  END
$$$$

  -OEChem-02102214113D

 25 24  0     1  0  0  0  0  0999 V2000
   -2.5235   -3.6462   -0.3392 H   0  0  0  0  0  0  0  0  0  0  0  0
   -2.5323   -2.5978   -0.6505 C   0  0  0  0  0  0  0  0  0  0  0  0
   -3.2505   -2.0542   -0.0322 H   0  0  0  0  0  0  0  0  0  0  0  0
   -2.8462   -2.5450   -1.6956 H   0  0  0  0  0  0  0  0  0  0  0  0
   -1.1488   -1.9954   -0.4928 C   0  0  0  0  0  0  0  0  0  0  0  0
   -0.2398   -2.6767   -0.0552 O   0  0  0  0  0  0  0  0  0  0  0  0
   -0.9284   -0.6808   -0.8598 N   0  0  0  0  0  0  0  0  0  0  0  0
   -1.7056   -0.1932   -1.2954 H   0  0  0  0  0  0  0  0  0  0  0  0
    0.3873   -0.0117   -0.8204 C   0  0  1  0  0  0  0  0  0  0  0  0
    1.1049   -0.5563   -1.4456 H   0  0  0  0  0  0  0  0  0  0  0  0
    0.1753    1.4047   -1.4100 C   0  0  0  0  0  0  0  0  0  0  0  0
    0.3043    1.3643   -2.4946 H   0  0  0  0  0  0  0  0  0  0  0  0
   -0.8460    1.7415   -1.2094 H   0  0  0  0  0  0  0  0  0  0  0  0
    1.1204    2.4626   -0.8470 C   0  0  0  0  0  0  0  0  0  0  0  0
    0.6348    3.4217   -0.2711 O   0  0  0  0  0  0  0  0  0  0  0  0
    2.4388    2.3344   -1.1174 O   0  0  0  0  0  0  0  0  0  0  0  0
    2.8879    3.0578   -0.6551 H   0  0  0  0  0  0  0  0  0  0  0  0
    0.9881    0.0136    0.6103 C   0  0  0  0  0  0  0  0  0  0  0  0
    2.1920   -0.1202    0.7789 O   0  0  0  0  0  0  0  0  0  0  0  0
    0.1930    0.3564    1.6891 N   0  0  0  0  0  0  0  0  0  0  0  0
   -0.8049    0.4258    1.5224 H   0  0  0  0  0  0  0  0  0  0  0  0
    0.6912    0.4322    3.0563 C   0  0  0  0  0  0  0  0  0  0  0  0
    1.4983    1.1687    3.1296 H   0  0  0  0  0  0  0  0  0  0  0  0
   -0.1118    0.7327    3.7359 H   0  0  0  0  0  0  0  0  0  0  0  0
    1.0729   -0.5424    3.3784 H   0  0  0  0  0  0  0  0  0  0  0  0
  1  2  1  0  0  0  0
  2  3  1  0  0  0  0
  2  4  1  0  0  0  0
  2  5  1  0  0  0  0
  5  6  2  0  0  0  0
  5  7  1  0  0  0  0
  7  8  1  0  0  0  0
  7  9  1  0  0  0  0
  9 10  1  0  0  0  0
  9 11  1  0  0  0  0
  9 18  1  0  0  0  0
 11 12  1  0  0  0  0
 11 13  1  0  0  0  0
 11 14  1  0  0  0  0
 14 15  2  0  0  0  0
 14 16  1  0  0  0  0
 16 17  1  0  0  0  0
 18 19  2  0  0  0  0
 18 20  1  0  0  0  0
 20 21  1  0  0  0  0
 20 22  1  0  0  0  0
 22 23  1  0  0  0  0
 22 24  1  0  0  0  0
 22 25  1  0  0  0  0
M  END
$$$$

  -OEChem-02102214113D

 25 24  0     1  0  0  0  0  0999 V2000
   -2.5152   -3.6693   -0.3816 H   0  0  0  0  0  0  0  0  0  0  0  0
   -2.5371   -2.6131   -0.6657 C   0  0  0  0  0  0  0  0  0  0  0  0
   -3.2510   -2.0912   -0.0243 H   0  0  0  0  0  0  0  0  0  0  0  0
   -2.8652   -2.5368   -1.7052 H   0  0  0  0  0  0  0  0  0  0  0  0
   -1.1566   -2.0032   -0.5102 C   0  0  0  0  0  0  0  0  0  0  0  0
   -0.2405   -2.6828   -0.0845 O   0  0  0  0  0  0  0  0  0  0  0  0
   -0.9453   -0.6841   -0.8658 N   0  0  0  0  0  0  0  0  0  0  0  0
   -1.7276   -0.1943   -1.2893 H   0  0  0  0  0  0  0  0  0  0  0  0
    0.3664   -0.0092   -0.8207 C   0  0  1  0  0  0  0  0  0  0  0  0
    1.0824   -0.5567   -1.4453 H   0  0  0  0  0  0  0  0  0  0  0  0
    0.1670    1.4042   -1.4203 C   0  0  0  0  0  0  0  0  0  0  0  0
    0.3070    1.3599   -2.5035 H   0  0  0  0  0  0  0  0  0  0  0  0
   -0.8540    1.7489   -1.2325 H   0  0  0  0  0  0  0  0  0  0  0  0
    1.1130    2.4539   -0.8453 C   0  0  0  0  0  0  0  0  0  0  0  0
    0.6657    3.2620   -0.0485 O   0  0  0  0  0  0  0  0  0  0  0  0
    2.3898    2.4585   -1.2899 O   0  0  0  0  0  0  0  0  0  0  0  0
    2.8567    3.1303   -0.7704 H   0  0  0  0  0  0  0  0  0  0  0  0
    0.9793    0.0135    0.6043 C   0  0  0  0  0  0  0  0  0  0  0  0
    2.1902   -0.0819    0.7500 O   0  0  0  0  0  0  0  0  0  0  0  0
    0.1956    0.3446    1.6946 N   0  0  0  0  0  0  0  0  0  0  0  0
   -0.8021    0.4364    1.5379 H   0  0  0  0  0  0  0  0  0  0  0  0
    0.7193    0.4754    3.0479 C   0  0  0  0  0  0  0  0  0  0  0  0
    1.4886    1.2538    3.0874 H   0  0  0  0  0  0  0  0  0  0  0  0
   -0.0831    0.7482    3.7399 H   0  0  0  0  0  0  0  0  0  0  0  0
    1.1576   -0.4714    3.3805 H   0  0  0  0  0  0  0  0  0  0  0  0
  1  2  1  0  0  0  0
  2  3  1  0  0  0  0
  2  4  1  0  0  0  0
  2  5  1  0  0  0  0
  5  6  2  0  0  0  0
  5  7  1  0  0  0  0
  7  8  1  0  0  0  0
  7  9  1  0  0  0  0
  9 10  1  0  0  0  0
  9 11  1  0  0  0  0
  9 18  1  0  0  0  0
 11 12  1  0  0  0  0
 11 13  1  0  0  0  0
 11 14  1  0  0  0  0
 14 15  2  0  0  0  0
 14 16  1  0  0  0  0
 16 17  1  0  0  0  0
 18 19  2  0  0  0  0
 18 20  1  0  0  0  0
 20 21  1  0  0  0  0
 20 22  1  0  0  0  0
 22 23  1  0  0  0  0
 22 24  1  0  0  0  0
 22 25  1  0  0  0  0
M  END
$$$$

  -OEChem-02102214113D

 25 24  0     1  0  0  0  0  0999 V2000
   -2.5264   -3.6737   -0.3821 H   0  0  0  0  0  0  0  0  0  0  0  0
   -2.5458   -2.6205   -0.6771 C   0  0  0  0  0  0  0  0  0  0  0  0
   -3.2475   -2.0879   -0.0310 H   0  0  0  0  0  0  0  0  0  0  0  0
   -2.8878   -2.5522   -1.7126 H   0  0  0  0  0  0  0  0  0  0  0  0
   -1.1594   -2.0183   -0.5477 C   0  0  0  0  0  0  0  0  0  0  0  0
   -0.2319   -2.7109   -0.1700 O   0  0  0  0  0  0  0  0  0  0  0  0
   -0.9542   -0.6917   -0.8773 N   0  0  0  0  0  0  0  0  0  0  0  0
   -1.7522   -0.1797   -1.2410 H   0  0  0  0  0  0  0  0  0  0  0  0
    0.3540   -0.0125   -0.8143 C   0  0  1  0  0  0  0  0  0  0  0  0
    1.0706   -0.5600   -1.4384 H   0  0  0  0  0  0  0  0  0  0  0  0
    0.1696    1.3995   -1.4221 C   0  0  0  0  0  0  0  0  0  0  0  0
    0.3260    1.3490   -2.5029 H   0  0  0  0  0  0  0  0  0  0  0  0
   -0.8534    1.7474   -1.2541 H   0  0  0  0  0  0  0  0  0  0  0  0
    1.1027    2.4556   -0.8378 C   0  0  0  0  0  0  0  0  0  0  0  0
    0.7266    3.0863    0.1366 O   0  0  0  0  0  0  0  0  0  0  0  0
    2.2992    2.6391   -1.4399 O   0  0  0  0  0  0  0  0  0  0  0  0
    2.7826    3.2752   -0.8907 H   0  0  0  0  0  0  0  0  0  0  0  0
    0.9699   -0.0091    0.6087 C   0  0  0  0  0  0  0  0  0  0  0  0
    2.1838   -0.0886    0.7414 O   0  0  0  0  0  0  0  0  0  0  0  0
    0.1899    0.2995    1.7084 N   0  0  0  0  0  0  0  0  0  0  0  0
   -0.7968    0.4660    1.5454 H   0  0  0  0  0  0  0  0  0  0  0  0
    0.7359    0.5119    3.0423 C   0  0  0  0  0  0  0  0  0  0  0  0
    1.4238    1.3639    3.0423 H   0  0  0  0  0  0  0  0  0  0  0  0
   -0.0700    0.7174    3.7532 H   0  0  0  0  0  0  0  0  0  0  0  0
    1.2761   -0.3788    3.3802 H   0  0  0  0  0  0  0  0  0  0  0  0
  1  2  1  0  0  0  0
  2  3  1  0  0  0  0
  2  4  1  0  0  0  0
  2  5  1  0  0  0  0
  5  6  2  0  0  0  0
  5  7  1  0  0  0  0
  7  8  1  0  0  0  0
  7  9  1  0  0  0  0
  9 10  1  0  0  0  0
  9 11  1  0  0  0  0
  9 18  1  0  0  0  0
 11 12  1  0  0  0  0
 11 13  1  0  0  0  0
 11 14  1  0  0  0  0
 14 15  2  0  0  0  0
 14 16  1  0  0  0  0
 16 17  1  0  0  0  0
 18 19  2  0  0  0  0
 18 20  1  0  0  0  0
 20 21  1  0  0  0  0
 20 22  1  0  0  0  0
 22 23  1  0  0  0  0
 22 24  1  0  0  0  0
 22 25  1  0  0  0  0
M  END
$$$$

  -OEChem-02102214113D

 25 24  0     1  0  0  0  0  0999 V2000
   -2.5297   -3.6804   -0.4179 H   0  0  0  0  0  0  0  0  0  0  0  0
   -2.5505   -2.6214   -0.6910 C   0  0  0  0  0  0  0  0  0  0  0  0
   -3.2465   -2.1015   -0.0286 H   0  0  0  0  0  0  0  0  0  0  0  0
   -2.9011   -2.5319   -1.7219 H   0  0  0  0  0  0  0  0  0  0  0  0
   -1.1626   -2.0223   -0.5602 C   0  0  0  0  0  0  0  0  0  0  0  0
   -0.2340   -2.7210   -0.1970 O   0  0  0  0  0  0  0  0  0  0  0  0
   -0.9575   -0.6912   -0.8718 N   0  0  0  0  0  0  0  0  0  0  0  0
   -1.7573   -0.1719   -1.2208 H   0  0  0  0  0  0  0  0  0  0  0  0
    0.3495   -0.0113   -0.7927 C   0  0  1  0  0  0  0  0  0  0  0  0
    1.0672   -0.5662   -1.4089 H   0  0  0  0  0  0  0  0  0  0  0  0
    0.1822    1.3945   -1.4246 C   0  0  0  0  0  0  0  0  0  0  0  0
    0.3533    1.3216   -2.5022 H   0  0  0  0  0  0  0  0  0  0  0  0
   -0.8433    1.7434   -1.2797 H   0  0  0  0  0  0  0  0  0  0  0  0
    1.0924    2.4812   -0.8563 C   0  0  0  0  0  0  0  0  0  0  0  0
    0.8355    2.9492    0.2405 O   0  0  0  0  0  0  0  0  0  0  0  0
    2.1475    2.8671   -1.6088 O   0  0  0  0  0  0  0  0  0  0  0  0
    2.6452    3.4986   -1.0668 H   0  0  0  0  0  0  0  0  0  0  0  0
    0.9634   -0.0213    0.6302 C   0  0  0  0  0  0  0  0  0  0  0  0
    2.1774   -0.1098    0.7583 O   0  0  0  0  0  0  0  0  0  0  0  0
    0.1843    0.2733    1.7344 N   0  0  0  0  0  0  0  0  0  0  0  0
   -0.7944    0.4767    1.5669 H   0  0  0  0  0  0  0  0  0  0  0  0
    0.7401    0.5087    3.0603 C   0  0  0  0  0  0  0  0  0  0  0  0
    1.3933    1.3877    3.0490 H   0  0  0  0  0  0  0  0  0  0  0  0
   -0.0635    0.6815    3.7823 H   0  0  0  0  0  0  0  0  0  0  0  0
    1.3209   -0.3587    3.3916 H   0  0  0  0  0  0  0  0  0  0  0  0
  1  2  1  0  0  0  0
  2  3  1  0  0  0  0
  2  4  1  0  0  0  0
  2  5  1  0  0  0  0
  5  6  2  0  0  0  0
  5  7  1  0  0  0  0
  7  8  1  0  0  0  0
  7  9  1  0  0  0  0
  9 10  1  0  0  0  0
  9 11  1  0  0  0  0
  9 18  1  0  0  0  0
 11 12  1  0  0  0  0
 11 13  1  0  0  0  0
 11 14  1  0  0  0  0
 14 15  2  0  0  0  0
 14 16  1  0  0  0  0
 16 17  1  0  0  0  0
 18 19  2  0  0  0  0
 18 20  1  0  0  0  0
 20 21  1  0  0  0  0
 20 22  1  0  0  0  0
 22 23  1  0  0  0  0
 22 24  1  0  0  0  0
 22 25  1  0  0  0  0
M  END
$$$$

  -OEChem-02102214113D

 25 24  0     1  0  0  0  0  0999 V2000
   -2.5270   -3.6735   -0.4462 H   0  0  0  0  0  0  0  0  0  0  0  0
   -2.5463   -2.6092   -0.6979 C   0  0  0  0  0  0  0  0  0  0  0  0
   -3.2381   -2.1008   -0.0222 H   0  0  0  0  0  0  0  0  0  0  0  0
   -2.9009   -2.4984   -1.7254 H   0  0  0  0  0  0  0  0  0  0  0  0
   -1.1564   -2.0162   -0.5615 C   0  0  0  0  0  0  0  0  0  0  0  0
   -0.2296   -2.7224   -0.2082 O   0  0  0  0  0  0  0  0  0  0  0  0
   -0.9479   -0.6831   -0.8613 N   0  0  0  0  0  0  0  0  0  0  0  0
   -1.7499   -0.1558   -1.1922 H   0  0  0  0  0  0  0  0  0  0  0  0
    0.3583   -0.0035   -0.7672 C   0  0  1  0  0  0  0  0  0  0  0  0
    1.0798   -0.5664   -1.3720 H   0  0  0  0  0  0  0  0  0  0  0  0
    0.2014    1.3919   -1.4303 C   0  0  0  0  0  0  0  0  0  0  0  0
    0.3870    1.2869   -2.5029 H   0  0  0  0  0  0  0  0  0  0  0  0
   -0.8295    1.7351   -1.3123 H   0  0  0  0  0  0  0  0  0  0  0  0
    1.0804    2.5240   -0.8956 C   0  0  0  0  0  0  0  0  0  0  0  0
    0.9924    2.8574    0.2735 O   0  0  0  0  0  0  0  0  0  0  0  0
    1.9255    3.1080   -1.7753 O   0  0  0  0  0  0  0  0  0  0  0  0
    2.4358    3.7544   -1.2631 H   0  0  0  0  0  0  0  0  0  0  0  0
    0.9624   -0.0232    0.6595 C   0  0  0  0  0  0  0  0  0  0  0  0
    2.1730   -0.1432    0.7948 O   0  0  0  0  0  0  0  0  0  0  0  0
    0.1783    0.2629    1.7629 N   0  0  0  0  0  0  0  0  0  0  0  0
   -0.7953    0.4859    1.5920 H   0  0  0  0  0  0  0  0  0  0  0  0
    0.7283    0.4634    3.0970 C   0  0  0  0  0  0  0  0  0  0  0  0
    1.3991    1.3291    3.1067 H   0  0  0  0  0  0  0  0  0  0  0  0
   -0.0772    0.6395    3.8161 H   0  0  0  0  0  0  0  0  0  0  0  0
    1.2891   -0.4216    3.4166 H   0  0  0  0  0  0  0  0  0  0  0  0
  1  2  1  0  0  0  0
  2  3  1  0  0  0  0
  2  4  1  0  0  0  0
  2  5  1  0  0  0  0
  5  6  2  0  0  0  0
  5  7  1  0  0  0  0
  7  8  1  0  0  0  0
  7  9  1  0  0  0  0
  9 10  1  0  0  0  0
  9 11  1  0  0  0  0
  9 18  1  0  0  0  0
 11 12  1  0  0  0  0
 11 13  1  0  0  0  0
 11 14  1  0  0  0  0
 14 15  2  0  0  0  0
 14 16  1  0  0  0  0
 16 17  1  0  0  0  0
 18 19  2  0  0  0  0
 18 20  1  0  0  0  0
 20 21  1  0  0  0  0
 20 22  1  0  0  0  0
 22 23  1  0  0  0  0
 22 24  1  0  0  0  0
 22 25  1  0  0  0  0
M  END
$$$$

  -OEChem-02102214113D

 25 24  0     1  0  0  0  0  0999 V2000
   -2.5233   -3.6521   -0.4317 H   0  0  0  0  0  0  0  0  0  0  0  0
   -2.5374   -2.5885   -0.6865 C   0  0  0  0  0  0  0  0  0  0  0  0
   -3.2203   -2.0741   -0.0067 H   0  0  0  0  0  0  0  0  0  0  0  0
   -2.8995   -2.4784   -1.7113 H   0  0  0  0  0  0  0  0  0  0  0  0
   -1.1424   -2.0048   -0.5626 C   0  0  0  0  0  0  0  0  0  0  0  0
   -0.2173   -2.7193   -0.2224 O   0  0  0  0  0  0  0  0  0  0  0  0
   -0.9274   -0.6713   -0.8574 N   0  0  0  0  0  0  0  0  0  0  0  0
   -1.7292   -0.1361   -1.1759 H   0  0  0  0  0  0  0  0  0  0  0  0
    0.3812    0.0039   -0.7530 C   0  0  1  0  0  0  0  0  0  0  0  0
    1.1070   -0.5603   -1.3513 H   0  0  0  0  0  0  0  0  0  0  0  0
    0.2239    1.3968   -1.4279 C   0  0  0  0  0  0  0  0  0  0  0  0
    0.4143    1.2730   -2.4978 H   0  0  0  0  0  0  0  0  0  0  0  0
   -0.8113    1.7296   -1.3221 H   0  0  0  0  0  0  0  0  0  0  0  0
    1.0760    2.5682   -0.9278 C   0  0  0  0  0  0  0  0  0  0  0  0
    1.2082    2.7828    0.2632 O   0  0  0  0  0  0  0  0  0  0  0  0
    1.6419    3.3390   -1.8845 O   0  0  0  0  0  0  0  0  0  0  0  0
    2.1674    4.0028   -1.4111 H   0  0  0  0  0  0  0  0  0  0  0  0
    0.9678   -0.0267    0.6807 C   0  0  0  0  0  0  0  0  0  0  0  0
    2.1698   -0.1999    0.8348 O   0  0  0  0  0  0  0  0  0  0  0  0
    0.1721    0.2575    1.7765 N   0  0  0  0  0  0  0  0  0  0  0  0
   -0.7965    0.4944    1.5972 H   0  0  0  0  0  0  0  0  0  0  0  0
    0.7016    0.4004    3.1262 C   0  0  0  0  0  0  0  0  0  0  0  0
    1.4181    1.2276    3.1690 H   0  0  0  0  0  0  0  0  0  0  0  0
   -0.1090    0.6062    3.8315 H   0  0  0  0  0  0  0  0  0  0  0  0
    1.2063   -0.5200    3.4386 H   0  0  0  0  0  0  0  0  0  0  0  0
  1  2  1  0  0  0  0
  2  3  1  0  0  0  0
  2  4  1  0  0  0  0
  2  5  1  0  0  0  0
  5  6  2  0  0  0  0
  5  7  1  0  0  0  0
  7  8  1  0  0  0  0
  7  9  1  0  0  0  0
  9 10  1  0  0  0  0
  9 11  1  0  0  0  0
  9 18  1  0  0  0  0
 11 12  1  0  0  0  0
 11 13  1  0  0  0  0
 11 14  1  0  0  0  0
 14 15  2  0  0  0  0
 14 16  1  0  0  0  0
 16 17  1  0  0  0  0
 18 19  2  0  0  0  0
 18 20  1  0  0  0  0
 20 21  1  0  0  0  0
 20 22  1  0  0  0  0
 22 23  1  0  0  0  0
 22 24  1  0  0  0  0
 22 25  1  0  0  0  0
M  END
$$$$

  -OEChem-02102214113D

 25 24  0     1  0  0  0  0  0999 V2000
   -2.5241   -3.6251   -0.4236 H   0  0  0  0  0  0  0  0  0  0  0  0
   -2.5292   -2.5613   -0.6778 C   0  0  0  0  0  0  0  0  0  0  0  0
   -3.2141   -2.0425   -0.0032 H   0  0  0  0  0  0  0  0  0  0  0  0
   -2.8822   -2.4482   -1.7057 H   0  0  0  0  0  0  0  0  0  0  0  0
   -1.1314   -1.9869   -0.5426 C   0  0  0  0  0  0  0  0  0  0  0  0
   -0.2151   -2.7065   -0.1900 O   0  0  0  0  0  0  0  0  0  0  0  0
   -0.9051   -0.6569   -0.8450 N   0  0  0  0  0  0  0  0  0  0  0  0
   -1.6990   -0.1226   -1.1840 H   0  0  0  0  0  0  0  0  0  0  0  0
    0.4082    0.0108   -0.7440 C   0  0  1  0  0  0  0  0  0  0  0  0
    1.1352   -0.5541   -1.3401 H   0  0  0  0  0  0  0  0  0  0  0  0
    0.2381    1.4029   -1.4222 C   0  0  0  0  0  0  0  0  0  0  0  0
    0.4184    1.2698   -2.4926 H   0  0  0  0  0  0  0  0  0  0  0  0
   -0.7997    1.7254   -1.3092 H   0  0  0  0  0  0  0  0  0  0  0  0
    1.0729    2.6035   -0.9581 C   0  0  0  0  0  0  0  0  0  0  0  0
    1.4561    2.7177    0.1901 O   0  0  0  0  0  0  0  0  0  0  0  0
    1.3254    3.5288   -1.9118 O   0  0  0  0  0  0  0  0  0  0  0  0
    1.8719    4.2058   -1.4828 H   0  0  0  0  0  0  0  0  0  0  0  0
    0.9824   -0.0215    0.6952 C   0  0  0  0  0  0  0  0  0  0  0  0
    2.1722   -0.2515    0.8673 O   0  0  0  0  0  0  0  0  0  0  0  0
    0.1788    0.2725    1.7827 N   0  0  0  0  0  0  0  0  0  0  0  0
   -0.7940    0.4879    1.5993 H   0  0  0  0  0  0  0  0  0  0  0  0
    0.6807    0.3369    3.1489 C   0  0  0  0  0  0  0  0  0  0  0  0
    1.4481    1.1133    3.2375 H   0  0  0  0  0  0  0  0  0  0  0  0
   -0.1327    0.5732    3.8411 H   0  0  0  0  0  0  0  0  0  0  0  0
    1.1162   -0.6243    3.4415 H   0  0  0  0  0  0  0  0  0  0  0  0
  1  2  1  0  0  0  0
  2  3  1  0  0  0  0
  2  4  1  0  0  0  0
  2  5  1  0  0  0  0
  5  6  2  0  0  0  0
  5  7  1  0  0  0  0
  7  8  1  0  0  0  0
  7  9  1  0  0  0  0
  9 10  1  0  0  0  0
  9 11  1  0  0  0  0
  9 18  1  0  0  0  0
 11 12  1  0  0  0  0
 11 13  1  0  0  0  0
 11 14  1  0  0  0  0
 14 15  2  0  0  0  0
 14 16  1  0  0  0  0
 16 17  1  0  0  0  0
 18 19  2  0  0  0  0
 18 20  1  0  0  0  0
 20 21  1  0  0  0  0
 20 22  1  0  0  0  0
 22 23  1  0  0  0  0
 22 24  1  0  0  0  0
 22 25  1  0  0  0  0
M  END
$$$$

  -OEChem-02102214113D

 25 24  0     1  0  0  0  0  0999 V2000
   -2.5246   -3.6005   -0.3979 H   0  0  0  0  0  0  0  0  0  0  0  0
   -2.5213   -2.5386   -0.6601 C   0  0  0  0  0  0  0  0  0  0  0  0
   -3.2096   -2.0106    0.0040 H   0  0  0  0  0  0  0  0  0  0  0  0
   -2.8636   -2.4313   -1.6921 H   0  0  0  0  0  0  0  0  0  0  0  0
   -1.1218   -1.9708   -0.5151 C   0  0  0  0  0  0  0  0  0  0  0  0
   -0.2159   -2.6900   -0.1365 O   0  0  0  0  0  0  0  0  0  0  0  0
   -0.8857   -0.6464   -0.8345 N   0  0  0  0  0  0  0  0  0  0  0  0
   -1.6695   -0.1208   -1.2089 H   0  0  0  0  0  0  0  0  0  0  0  0
    0.4325    0.0155   -0.7479 C   0  0  1  0  0  0  0  0  0  0  0  0
    1.1592   -0.5460   -1.3475 H   0  0  0  0  0  0  0  0  0  0  0  0
    0.2407    1.4111   -1.4161 C   0  0  0  0  0  0  0  0  0  0  0  0
    0.3971    1.2837   -2.4909 H   0  0  0  0  0  0  0  0  0  0  0  0
   -0.7968    1.7254   -1.2771 H   0  0  0  0  0  0  0  0  0  0  0  0
    1.0703    2.6243   -0.9750 C   0  0  0  0  0  0  0  0  0  0  0  0
    1.7055    2.6447    0.0604 O   0  0  0  0  0  0  0  0  0  0  0  0
    1.0217    3.6754   -1.8245 O   0  0  0  0  0  0  0  0  0  0  0  0
    1.5968    4.3528   -1.4350 H   0  0  0  0  0  0  0  0  0  0  0  0
    0.9998   -0.0102    0.6947 C   0  0  0  0  0  0  0  0  0  0  0  0
    2.1771   -0.2877    0.8818 O   0  0  0  0  0  0  0  0  0  0  0  0
    0.1906    0.2996    1.7739 N   0  0  0  0  0  0  0  0  0  0  0  0
   -0.7887    0.4785    1.5857 H   0  0  0  0  0  0  0  0  0  0  0  0
    0.6640    0.2866    3.1516 C   0  0  0  0  0  0  0  0  0  0  0  0
    1.4824    1.0030    3.2802 H   0  0  0  0  0  0  0  0  0  0  0  0
   -0.1461    0.5609    3.8336 H   0  0  0  0  0  0  0  0  0  0  0  0
    1.0233   -0.7118    3.4228 H   0  0  0  0  0  0  0  0  0  0  0  0
  1  2  1  0  0  0  0
  2  3  1  0  0  0  0
  2  4  1  0  0  0  0
  2  5  1  0  0  0  0
  5  6  2  0  0  0  0
  5  7  1  0  0  0  0
  7  8  1  0  0  0  0
  7  9  1  0  0  0  0
  9 10  1  0  0  0  0
  9 11  1  0  0  0  0
  9 18  1  0  0  0  0
 11 12  1  0  0  0  0
 11 13  1  0  0  0  0
 11 14  1  0  0  0  0
 14 15  2  0  0  0  0
 14 16  1  0  0  0  0
 16 17  1  0  0  0  0
 18 19  2  0  0  0  0
 18 20  1  0  0  0  0
 20 21  1  0  0  0  0
 20 22  1  0  0  0  0
 22 23  1  0  0  0  0
 22 24  1  0  0  0  0
 22 25  1  0  0  0  0
M  END
$$$$

  -OEChem-02102214113D

 25 24  0     1  0  0  0  0  0999 V2000
   -2.5227   -3.5869   -0.3633 H   0  0  0  0  0  0  0  0  0  0  0  0
   -2.5154   -2.5295   -0.6431 C   0  0  0  0  0  0  0  0  0  0  0  0
   -3.2115   -1.9902    0.0035 H   0  0  0  0  0  0  0  0  0  0  0  0
   -2.8449   -2.4392   -1.6809 H   0  0  0  0  0  0  0  0  0  0  0  0
   -1.1175   -1.9599   -0.4898 C   0  0  0  0  0  0  0  0  0  0  0  0
   -0.2180   -2.6739   -0.0875 O   0  0  0  0  0  0  0  0  0  0  0  0
   -0.8767   -0.6409   -0.8283 N   0  0  0  0  0  0  0  0  0  0  0  0
   -1.6532   -0.1270   -1.2329 H   0  0  0  0  0  0  0  0  0  0  0  0
    0.4446    0.0180   -0.7580 C   0  0  1  0  0  0  0  0  0  0  0  0
    1.1695   -0.5407   -1.3622 H   0  0  0  0  0  0  0  0  0  0  0  0
    0.2337    1.4166   -1.4138 C   0  0  0  0  0  0  0  0  0  0  0  0
    0.3691    1.2997   -2.4922 H   0  0  0  0  0  0  0  0  0  0  0  0
   -0.8021    1.7252   -1.2503 H   0  0  0  0  0  0  0  0  0  0  0  0
    1.0675    2.6291   -0.9807 C   0  0  0  0  0  0  0  0  0  0  0  0
    1.9216    2.5653   -0.1197 O   0  0  0  0  0  0  0  0  0  0  0  0
    0.7659    3.7771   -1.6291 O   0  0  0  0  0  0  0  0  0  0  0  0
    1.3697    4.4460   -1.2692 H   0  0  0  0  0  0  0  0  0  0  0  0
    1.0125    0.0058    0.6852 C   0  0  0  0  0  0  0  0  0  0  0  0
    2.1801   -0.3032    0.8822 O   0  0  0  0  0  0  0  0  0  0  0  0
    0.2033    0.3321    1.7597 N   0  0  0  0  0  0  0  0  0  0  0  0
   -0.7811    0.4770    1.5690 H   0  0  0  0  0  0  0  0  0  0  0  0
    0.6579    0.2607    3.1422 C   0  0  0  0  0  0  0  0  0  0  0  0
    1.5190    0.9201    3.2952 H   0  0  0  0  0  0  0  0  0  0  0  0
   -0.1409    0.5730    3.8212 H   0  0  0  0  0  0  0  0  0  0  0  0
    0.9492   -0.7642    3.3957 H   0  0  0  0  0  0  0  0  0  0  0  0
  1  2  1  0  0  0  0
  2  3  1  0  0  0  0
  2  4  1  0  0  0  0
  2  5  1  0  0  0  0
  5  6  2  0  0  0  0
  5  7  1  0  0  0  0
  7  8  1  0  0  0  0
  7  9  1  0  0  0  0
  9 10  1  0  0  0  0
  9 11  1  0  0  0  0
  9 18  1  0  0  0  0
 11 12  1  0  0  0  0
 11 13  1  0  0  0  0
 11 14  1  0  0  0  0
 14 15  2  0  0  0  0
 14 16  1  0  0  0  0
 16 17  1  0  0  0  0
 18 19  2  0  0  0  0
 18 20  1  0  0  0  0
 20 21  1  0  0  0  0
 20 22  1  0  0  0  0
 22 23  1  0  0  0  0
 22 24  1  0  0  0  0
 22 25  1  0  0  0  0
M  END
$$$$

  -OEChem-02102214113D

 25 24  0     1  0  0  0  0  0999 V2000
   -2.5173   -3.5860   -0.3285 H   0  0  0  0  0  0  0  0  0  0  0  0
   -2.5090   -2.5347   -0.6307 C   0  0  0  0  0  0  0  0  0  0  0  0
   -3.2157   -1.9838   -0.0057 H   0  0  0  0  0  0  0  0  0  0  0  0
   -2.8242   -2.4675   -1.6747 H   0  0  0  0  0  0  0  0  0  0  0  0
   -1.1150   -1.9578   -0.4705 C   0  0  0  0  0  0  0  0  0  0  0  0
   -0.2180   -2.6620   -0.0464 O   0  0  0  0  0  0  0  0  0  0  0  0
   -0.8761   -0.6433   -0.8273 N   0  0  0  0  0  0  0  0  0  0  0  0
   -1.6479   -0.1448   -1.2594 H   0  0  0  0  0  0  0  0  0  0  0  0
    0.4456    0.0167   -0.7755 C   0  0  1  0  0  0  0  0  0  0  0  0
    1.1691   -0.5349   -1.3876 H   0  0  0  0  0  0  0  0  0  0  0  0
    0.2140    1.4197   -1.4112 C   0  0  0  0  0  0  0  0  0  0  0  0
    0.3249    1.3227   -2.4943 H   0  0  0  0  0  0  0  0  0  0  0  0
   -0.8182    1.7237   -1.2169 H   0  0  0  0  0  0  0  0  0  0  0  0
    1.0632    2.6165   -0.9687 C   0  0  0  0  0  0  0  0  0  0  0  0
    2.0917    2.4804   -0.3371 O   0  0  0  0  0  0  0  0  0  0  0  0
    0.5807    3.8260   -1.3347 O   0  0  0  0  0  0  0  0  0  0  0  0
    1.2196    4.4736   -0.9970 H   0  0  0  0  0  0  0  0  0  0  0  0
    1.0190    0.0195    0.6664 C   0  0  0  0  0  0  0  0  0  0  0  0
    2.1829   -0.2983    0.8691 O   0  0  0  0  0  0  0  0  0  0  0  0
    0.2104    0.3585    1.7375 N   0  0  0  0  0  0  0  0  0  0  0  0
   -0.7782    0.4722    1.5456 H   0  0  0  0  0  0  0  0  0  0  0  0
    0.6573    0.2680    3.1216 C   0  0  0  0  0  0  0  0  0  0  0  0
    1.5466    0.8880    3.2772 H   0  0  0  0  0  0  0  0  0  0  0  0
   -0.1284    0.6169    3.7981 H   0  0  0  0  0  0  0  0  0  0  0  0
    0.9019   -0.7687    3.3765 H   0  0  0  0  0  0  0  0  0  0  0  0
  1  2  1  0  0  0  0
  2  3  1  0  0  0  0
  2  4  1  0  0  0  0
  2  5  1  0  0  0  0
  5  6  2  0  0  0  0
  5  7  1  0  0  0  0
  7  8  1  0  0  0  0
  7  9  1  0  0  0  0
  9 10  1  0  0  0  0
  9 11  1  0  0  0  0
  9 18  1  0  0  0  0
 11 12  1  0  0  0  0
 11 13  1  0  0  0  0
 11 14  1  0  0  0  0
 14 15  2  0  0  0  0
 14 16  1  0  0  0  0
 16 17  1  0  0  0  0
 18 19  2  0  0  0  0
 18 20  1  0  0  0  0
 20 21  1  0  0  0  0
 20 22  1  0  0  0  0
 22 23  1  0  0  0  0
 22 24  1  0  0  0  0
 22 25  1  0  0  0  0
M  END
$$$$

  -OEChem-02102214113D

 25 24  0     1  0  0  0  0  0999 V2000
   -2.5065   -3.6014   -0.3114 H   0  0  0  0  0  0  0  0  0  0  0  0
   -2.5038   -2.5533   -0.6246 C   0  0  0  0  0  0  0  0  0  0  0  0
   -3.2202   -2.0017   -0.0112 H   0  0  0  0  0  0  0  0  0  0  0  0
   -2.8107   -2.4998   -1.6718 H   0  0  0  0  0  0  0  0  0  0  0  0
   -1.1156   -1.9632   -0.4596 C   0  0  0  0  0  0  0  0  0  0  0  0
   -0.2178   -2.6538   -0.0154 O   0  0  0  0  0  0  0  0  0  0  0  0
   -0.8838   -0.6517   -0.8324 N   0  0  0  0  0  0  0  0  0  0  0  0
   -1.6540   -0.1687   -1.2846 H   0  0  0  0  0  0  0  0  0  0  0  0
    0.4358    0.0142   -0.7954 C   0  0  1  0  0  0  0  0  0  0  0  0
    1.1595   -0.5298   -1.4140 H   0  0  0  0  0  0  0  0  0  0  0  0
    0.1891    1.4211   -1.4115 C   0  0  0  0  0  0  0  0  0  0  0  0
    0.2867    1.3457   -2.4974 H   0  0  0  0  0  0  0  0  0  0  0  0
   -0.8399    1.7237   -1.1983 H   0  0  0  0  0  0  0  0  0  0  0  0
    1.0609    2.5902   -0.9450 C   0  0  0  0  0  0  0  0  0  0  0  0
    2.2051    2.4103   -0.5771 O   0  0  0  0  0  0  0  0  0  0  0  0
    0.4771    3.8102   -0.9724 O   0  0  0  0  0  0  0  0  0  0  0  0
    1.1522    4.4283   -0.6499 H   0  0  0  0  0  0  0  0  0  0  0  0
    1.0176    0.0354    0.6434 C   0  0  0  0  0  0  0  0  0  0  0  0
    2.1858   -0.2640    0.8469 O   0  0  0  0  0  0  0  0  0  0  0  0
    0.2107    0.3836    1.7127 N   0  0  0  0  0  0  0  0  0  0  0  0
   -0.7807    0.4750    1.5222 H   0  0  0  0  0  0  0  0  0  0  0  0
    0.6586    0.2995    3.0970 C   0  0  0  0  0  0  0  0  0  0  0  0
    1.5498    0.9178    3.2490 H   0  0  0  0  0  0  0  0  0  0  0  0
   -0.1255    0.6544    3.7722 H   0  0  0  0  0  0  0  0  0  0  0  0
    0.9003   -0.7365    3.3575 H   0  0  0  0  0  0  0  0  0  0  0  0
  1  2  1  0  0  0  0
  2  3  1  0  0  0  0
  2  4  1  0  0  0  0
  2  5  1  0  0  0  0
  5  6  2  0  0  0  0
  5  7  1  0  0  0  0
  7  8  1  0  0  0  0
  7  9  1  0  0  0  0
  9 10  1  0  0  0  0
  9 11  1  0  0  0  0
  9 18  1  0  0  0  0
 11 12  1  0  0  0  0
 11 13  1  0  0  0  0
 11 14  1  0  0  0  0
 14 15  2  0  0  0  0
 14 16  1  0  0  0  0
 16 17  1  0  0  0  0
 18 19  2  0  0  0  0
 18 20  1  0  0  0  0
 20 21  1  0  0  0  0
 20 22  1  0  0  0  0
 22 23  1  0  0  0  0
 22 24  1  0  0  0  0
 22 25  1  0  0  0  0
M  END
$$$$

  -OEChem-02102214113D

 25 24  0     1  0  0  0  0  0999 V2000
   -2.4899   -3.6271   -0.3170 H   0  0  0  0  0  0  0  0  0  0  0  0
   -2.5000   -2.5787   -0.6286 C   0  0  0  0  0  0  0  0  0  0  0  0
   -3.2250   -2.0370   -0.0164 H   0  0  0  0  0  0  0  0  0  0  0  0
   -2.8053   -2.5279   -1.6765 H   0  0  0  0  0  0  0  0  0  0  0  0
   -1.1200   -1.9713   -0.4584 C   0  0  0  0  0  0  0  0  0  0  0  0
   -0.2186   -2.6463    0.0026 O   0  0  0  0  0  0  0  0  0  0  0  0
   -0.8996   -0.6606   -0.8403 N   0  0  0  0  0  0  0  0  0  0  0  0
   -1.6685   -0.1930   -1.3105 H   0  0  0  0  0  0  0  0  0  0  0  0
    0.4154    0.0135   -0.8109 C   0  0  1  0  0  0  0  0  0  0  0  0
    1.1393   -0.5257   -1.4335 H   0  0  0  0  0  0  0  0  0  0  0  0
    0.1652    1.4232   -1.4123 C   0  0  0  0  0  0  0  0  0  0  0  0
    0.2616    1.3663   -2.4994 H   0  0  0  0  0  0  0  0  0  0  0  0
   -0.8607    1.7306   -1.1914 H   0  0  0  0  0  0  0  0  0  0  0  0
    1.0621    2.5569   -0.9141 C   0  0  0  0  0  0  0  0  0  0  0  0
    2.2617    2.3809   -0.8181 O   0  0  0  0  0  0  0  0  0  0  0  0
    0.4528    3.7206   -0.5905 O   0  0  0  0  0  0  0  0  0  0  0  0
    1.1621    4.3076   -0.2838 H   0  0  0  0  0  0  0  0  0  0  0  0
    1.0060    0.0499    0.6240 C   0  0  0  0  0  0  0  0  0  0  0  0
    2.1863   -0.2009    0.8202 O   0  0  0  0  0  0  0  0  0  0  0  0
    0.2022    0.4008    1.6947 N   0  0  0  0  0  0  0  0  0  0  0  0
   -0.7929    0.4674    1.5120 H   0  0  0  0  0  0  0  0  0  0  0  0
    0.6629    0.3450    3.0763 C   0  0  0  0  0  0  0  0  0  0  0  0
    1.5369    0.9901    3.2148 H   0  0  0  0  0  0  0  0  0  0  0  0
   -0.1263    0.6844    3.7537 H   0  0  0  0  0  0  0  0  0  0  0  0
    0.9363   -0.6807    3.3458 H   0  0  0  0  0  0  0  0  0  0  0  0
  1  2  1  0  0  0  0
  2  3  1  0  0  0  0
  2  4  1  0  0  0  0
  2  5  1  0  0  0  0
  5  6  2  0  0  0  0
  5  7  1  0  0  0  0
  7  8  1  0  0  0  0
  7  9  1  0  0  0  0
  9 10  1  0  0  0  0
  9 11  1  0  0  0  0
  9 18  1  0  0  0  0
 11 12  1  0  0  0  0
 11 13  1  0  0  0  0
 11 14  1  0  0  0  0
 14 15  2  0  0  0  0
 14 16  1  0  0  0  0
 16 17  1  0  0  0  0
 18 19  2  0  0  0  0
 18 20  1  0  0  0  0
 20 21  1  0  0  0  0
 20 22  1  0  0  0  0
 22 23  1  0  0  0  0
 22 24  1  0  0  0  0
 22 25  1  0  0  0  0
M  END
$$$$

  -OEChem-02102214113D

 25 24  0     1  0  0  0  0  0999 V2000
   -2.4846   -3.6497   -0.3299 H   0  0  0  0  0  0  0  0  0  0  0  0
   -2.5020   -2.6021   -0.6440 C   0  0  0  0  0  0  0  0  0  0  0  0
   -3.2330   -2.0651   -0.0349 H   0  0  0  0  0  0  0  0  0  0  0  0
   -2.8048   -2.5558   -1.6927 H   0  0  0  0  0  0  0  0  0  0  0  0
   -1.1272   -1.9830   -0.4721 C   0  0  0  0  0  0  0  0  0  0  0  0
   -0.2196   -2.6497   -0.0106 O   0  0  0  0  0  0  0  0  0  0  0  0
   -0.9173   -0.6694   -0.8498 N   0  0  0  0  0  0  0  0  0  0  0  0
   -1.6895   -0.2057   -1.3188 H   0  0  0  0  0  0  0  0  0  0  0  0
    0.3927    0.0130   -0.8186 C   0  0  1  0  0  0  0  0  0  0  0  0
    1.1173   -0.5223   -1.4438 H   0  0  0  0  0  0  0  0  0  0  0  0
    0.1487    1.4248   -1.4108 C   0  0  0  0  0  0  0  0  0  0  0  0
    0.2542    1.3816   -2.4981 H   0  0  0  0  0  0  0  0  0  0  0  0
   -0.8748    1.7417   -1.1931 H   0  0  0  0  0  0  0  0  0  0  0  0
    1.0655    2.5234   -0.8783 C   0  0  0  0  0  0  0  0  0  0  0  0
    2.2671    2.4141   -1.0365 O   0  0  0  0  0  0  0  0  0  0  0  0
    0.4869    3.5622   -0.2329 O   0  0  0  0  0  0  0  0  0  0  0  0
    1.2210    4.1255    0.0595 H   0  0  0  0  0  0  0  0  0  0  0  0
    0.9909    0.0526    0.6130 C   0  0  0  0  0  0  0  0  0  0  0  0
    2.1865   -0.1257    0.7934 O   0  0  0  0  0  0  0  0  0  0  0  0
    0.1909    0.3955    1.6886 N   0  0  0  0  0  0  0  0  0  0  0  0
   -0.8076    0.4378    1.5175 H   0  0  0  0  0  0  0  0  0  0  0  0
    0.6726    0.3967    3.0641 C   0  0  0  0  0  0  0  0  0  0  0  0
    1.5195    1.0826    3.1732 H   0  0  0  0  0  0  0  0  0  0  0  0
   -0.1218    0.7199    3.7433 H   0  0  0  0  0  0  0  0  0  0  0  0
    0.9936   -0.6087    3.3569 H   0  0  0  0  0  0  0  0  0  0  0  0
  1  2  1  0  0  0  0
  2  3  1  0  0  0  0
  2  4  1  0  0  0  0
  2  5  1  0  0  0  0
  5  6  2  0  0  0  0
  5  7  1  0  0  0  0
  7  8  1  0  0  0  0
  7  9  1  0  0  0  0
  9 10  1  0  0  0  0
  9 11  1  0  0  0  0
  9 18  1  0  0  0  0
 11 12  1  0  0  0  0
 11 13  1  0  0  0  0
 11 14  1  0  0  0  0
 14 15  2  0  0  0  0
 14 16  1  0  0  0  0
 16 17  1  0  0  0  0
 18 19  2  0  0  0  0
 18 20  1  0  0  0  0
 20 21  1  0  0  0  0
 20 22  1  0  0  0  0
 22 23  1  0  0  0  0
 22 24  1  0  0  0  0
 22 25  1  0  0  0  0
M  END
$$$$

  -OEChem-02102214113D

 25 24  0     1  0  0  0  0  0999 V2000
   -2.4808   -3.6694   -0.3583 H   0  0  0  0  0  0  0  0  0  0  0  0
   -2.5068   -2.6193   -0.6637 C   0  0  0  0  0  0  0  0  0  0  0  0
   -3.2424   -2.0934   -0.0505 H   0  0  0  0  0  0  0  0  0  0  0  0
   -2.8098   -2.5668   -1.7122 H   0  0  0  0  0  0  0  0  0  0  0  0
   -1.1372   -1.9911   -0.4863 C   0  0  0  0  0  0  0  0  0  0  0  0
   -0.2243   -2.6549   -0.0307 O   0  0  0  0  0  0  0  0  0  0  0  0
   -0.9357   -0.6732   -0.8529 N   0  0  0  0  0  0  0  0  0  0  0  0
   -1.7121   -0.2064   -1.3117 H   0  0  0  0  0  0  0  0  0  0  0  0
    0.3713    0.0133   -0.8157 C   0  0  1  0  0  0  0  0  0  0  0  0
    1.0945   -0.5234   -1.4416 H   0  0  0  0  0  0  0  0  0  0  0  0
    0.1443    1.4262   -1.4079 C   0  0  0  0  0  0  0  0  0  0  0  0
    0.2624    1.3865   -2.4942 H   0  0  0  0  0  0  0  0  0  0  0  0
   -0.8769    1.7561   -1.1991 H   0  0  0  0  0  0  0  0  0  0  0  0
    1.0746    2.4990   -0.8505 C   0  0  0  0  0  0  0  0  0  0  0  0
    2.2324    2.5143   -1.2268 O   0  0  0  0  0  0  0  0  0  0  0  0
    0.5648    3.3719    0.0489 O   0  0  0  0  0  0  0  0  0  0  0  0
    1.3119    3.9286    0.3201 H   0  0  0  0  0  0  0  0  0  0  0  0
    0.9764    0.0463    0.6127 C   0  0  0  0  0  0  0  0  0  0  0  0
    2.1826   -0.0690    0.7744 O   0  0  0  0  0  0  0  0  0  0  0  0
    0.1822    0.3773    1.6962 N   0  0  0  0  0  0  0  0  0  0  0  0
   -0.8185    0.4129    1.5361 H   0  0  0  0  0  0  0  0  0  0  0  0
    0.6834    0.4311    3.0634 C   0  0  0  0  0  0  0  0  0  0  0  0
    1.4967    1.1600    3.1449 H   0  0  0  0  0  0  0  0  0  0  0  0
   -0.1157    0.7291    3.7488 H   0  0  0  0  0  0  0  0  0  0  0  0
    1.0579   -0.5508    3.3717 H   0  0  0  0  0  0  0  0  0  0  0  0
  1  2  1  0  0  0  0
  2  3  1  0  0  0  0
  2  4  1  0  0  0  0
  2  5  1  0  0  0  0
  5  6  2  0  0  0  0
  5  7  1  0  0  0  0
  7  8  1  0  0  0  0
  7  9  1  0  0  0  0
  9 10  1  0  0  0  0
  9 11  1  0  0  0  0
  9 18  1  0  0  0  0
 11 12  1  0  0  0  0
 11 13  1  0  0  0  0
 11 14  1  0  0  0  0
 14 15  2  0  0  0  0
 14 16  1  0  0  0  0
 16 17  1  0  0  0  0
 18 19  2  0  0  0  0
 18 20  1  0  0  0  0
 20 21  1  0  0  0  0
 20 22  1  0  0  0  0
 22 23  1  0  0  0  0
 22 24  1  0  0  0  0
 22 25  1  0  0  0  0
M  END
$$$$

  -OEChem-02102214113D

 25 24  0     1  0  0  0  0  0999 V2000
   -2.4809   -3.6791   -0.3967 H   0  0  0  0  0  0  0  0  0  0  0  0
   -2.5133   -2.6211   -0.6729 C   0  0  0  0  0  0  0  0  0  0  0  0
   -3.2403   -2.1129   -0.0351 H   0  0  0  0  0  0  0  0  0  0  0  0
   -2.8317   -2.5408   -1.7150 H   0  0  0  0  0  0  0  0  0  0  0  0
   -1.1423   -1.9951   -0.4987 C   0  0  0  0  0  0  0  0  0  0  0  0
   -0.2250   -2.6635   -0.0586 O   0  0  0  0  0  0  0  0  0  0  0  0
   -0.9429   -0.6732   -0.8509 N   0  0  0  0  0  0  0  0  0  0  0  0
   -1.7244   -0.1956   -1.2896 H   0  0  0  0  0  0  0  0  0  0  0  0
    0.3624    0.0142   -0.8025 C   0  0  1  0  0  0  0  0  0  0  0  0
    1.0849   -0.5294   -1.4233 H   0  0  0  0  0  0  0  0  0  0  0  0
    0.1569    1.4228   -1.4106 C   0  0  0  0  0  0  0  0  0  0  0  0
    0.2917    1.3712   -2.4947 H   0  0  0  0  0  0  0  0  0  0  0  0
   -0.8643    1.7637   -1.2217 H   0  0  0  0  0  0  0  0  0  0  0  0
    1.0870    2.4900   -0.8425 C   0  0  0  0  0  0  0  0  0  0  0  0
    2.1598    2.6697   -1.3901 O   0  0  0  0  0  0  0  0  0  0  0  0
    0.6570    3.2049    0.2232 O   0  0  0  0  0  0  0  0  0  0  0  0
    1.3972    3.7854    0.4608 H   0  0  0  0  0  0  0  0  0  0  0  0
    0.9689    0.0368    0.6249 C   0  0  0  0  0  0  0  0  0  0  0  0
    2.1793   -0.0510    0.7749 O   0  0  0  0  0  0  0  0  0  0  0  0
    0.1787    0.3557    1.7145 N   0  0  0  0  0  0  0  0  0  0  0  0
   -0.8221    0.4031    1.5586 H   0  0  0  0  0  0  0  0  0  0  0  0
    0.6896    0.4234    3.0774 C   0  0  0  0  0  0  0  0  0  0  0  0
    1.4821    1.1752    3.1534 H   0  0  0  0  0  0  0  0  0  0  0  0
   -0.1121    0.6970    3.7696 H   0  0  0  0  0  0  0  0  0  0  0  0
    1.0950   -0.5476    3.3808 H   0  0  0  0  0  0  0  0  0  0  0  0
  1  2  1  0  0  0  0
  2  3  1  0  0  0  0
  2  4  1  0  0  0  0
  2  5  1  0  0  0  0
  5  6  2  0  0  0  0
  5  7  1  0  0  0  0
  7  8  1  0  0  0  0
  7  9  1  0  0  0  0
  9 10  1  0  0  0  0
  9 11  1  0  0  0  0
  9 18  1  0  0  0  0
 11 12  1  0  0  0  0
 11 13  1  0  0  0  0
 11 14  1  0  0  0  0
 14 15  2  0  0  0  0
 14 16  1  0  0  0  0
 16 17  1  0  0  0  0
 18 19  2  0  0  0  0
 18 20  1  0  0  0  0
 20 21  1  0  0  0  0
 20 22  1  0  0  0  0
 22 23  1  0  0  0  0
 22 24  1  0  0  0  0
 22 25  1  0  0  0  0
M  END
$$$$

  -OEChem-02102214113D

 25 24  0     1  0  0  0  0  0999 V2000
   -2.5108   -3.6755   -0.4152 H   0  0  0  0  0  0  0  0  0  0  0  0
   -2.5316   -2.6194   -0.6991 C   0  0  0  0  0  0  0  0  0  0  0  0
   -3.2614   -2.1019   -0.0721 H   0  0  0  0  0  0  0  0  0  0  0  0
   -2.8388   -2.5439   -1.7449 H   0  0  0  0  0  0  0  0  0  0  0  0
   -1.1570   -2.0038   -0.5152 C   0  0  0  0  0  0  0  0  0  0  0  0
   -0.2416   -2.6849   -0.0908 O   0  0  0  0  0  0  0  0  0  0  0  0
   -0.9504   -0.6772   -0.8449 N   0  0  0  0  0  0  0  0  0  0  0  0
   -1.7312   -0.1856   -1.2691 H   0  0  0  0  0  0  0  0  0  0  0  0
    0.3582    0.0026   -0.7842 C   0  0  1  0  0  0  0  0  0  0  0  0
    1.0754   -0.5475   -1.4055 H   0  0  0  0  0  0  0  0  0  0  0  0
    0.1765    1.4122   -1.3994 C   0  0  0  0  0  0  0  0  0  0  0  0
    0.3171    1.3515   -2.4826 H   0  0  0  0  0  0  0  0  0  0  0  0
   -0.8431    1.7625   -1.2200 H   0  0  0  0  0  0  0  0  0  0  0  0
    1.1049    2.4825   -0.8301 C   0  0  0  0  0  0  0  0  0  0  0  0
    2.0454    2.8438   -1.5150 O   0  0  0  0  0  0  0  0  0  0  0  0
    0.7769    3.0517    0.3534 O   0  0  0  0  0  0  0  0  0  0  0  0
    1.4921    3.6772    0.5491 H   0  0  0  0  0  0  0  0  0  0  0  0
    0.9700    0.0019    0.6404 C   0  0  0  0  0  0  0  0  0  0  0  0
    2.1833   -0.0724    0.7785 O   0  0  0  0  0  0  0  0  0  0  0  0
    0.1865    0.3075    1.7386 N   0  0  0  0  0  0  0  0  0  0  0  0
   -0.8118    0.3946    1.5846 H   0  0  0  0  0  0  0  0  0  0  0  0
    0.7123    0.4222    3.0924 C   0  0  0  0  0  0  0  0  0  0  0  0
    1.4670    1.2139    3.1435 H   0  0  0  0  0  0  0  0  0  0  0  0
   -0.0927    0.6666    3.7919 H   0  0  0  0  0  0  0  0  0  0  0  0
    1.1697   -0.5223    3.4059 H   0  0  0  0  0  0  0  0  0  0  0  0
  1  2  1  0  0  0  0
  2  3  1  0  0  0  0
  2  4  1  0  0  0  0
  2  5  1  0  0  0  0
  5  6  2  0  0  0  0
  5  7  1  0  0  0  0
  7  8  1  0  0  0  0
  7  9  1  0  0  0  0
  9 10  1  0  0  0  0
  9 11  1  0  0  0  0
  9 18  1  0  0  0  0
 11 12  1  0  0  0  0
 11 13  1  0  0  0  0
 11 14  1  0  0  0  0
 14 15  2  0  0  0  0
 14 16  1  0  0  0  0
 16 17  1  0  0  0  0
 18 19  2  0  0  0  0
 18 20  1  0  0  0  0
 20 21  1  0  0  0  0
 20 22  1  0  0  0  0
 22 23  1  0  0  0  0
 22 24  1  0  0  0  0
 22 25  1  0  0  0  0
M  END
$$$$

  -OEChem-02102214113D

 25 24  0     1  0  0  0  0  0999 V2000
   -2.5328   -3.6675   -0.4422 H   0  0  0  0  0  0  0  0  0  0  0  0
   -2.5469   -2.6075   -0.7114 C   0  0  0  0  0  0  0  0  0  0  0  0
   -3.2707   -2.0929   -0.0751 H   0  0  0  0  0  0  0  0  0  0  0  0
   -2.8568   -2.5154   -1.7551 H   0  0  0  0  0  0  0  0  0  0  0  0
   -1.1675   -2.0043   -0.5240 C   0  0  0  0  0  0  0  0  0  0  0  0
   -0.2554   -2.6979   -0.1124 O   0  0  0  0  0  0  0  0  0  0  0  0
   -0.9517   -0.6753   -0.8379 N   0  0  0  0  0  0  0  0  0  0  0  0
   -1.7316   -0.1694   -1.2468 H   0  0  0  0  0  0  0  0  0  0  0  0
    0.3612   -0.0053   -0.7644 C   0  0  1  0  0  0  0  0  0  0  0  0
    1.0737   -0.5687   -1.3790 H   0  0  0  0  0  0  0  0  0  0  0  0
    0.2073    1.3987   -1.4030 C   0  0  0  0  0  0  0  0  0  0  0  0
    0.3624    1.3134   -2.4826 H   0  0  0  0  0  0  0  0  0  0  0  0
   -0.8126    1.7575   -1.2449 H   0  0  0  0  0  0  0  0  0  0  0  0
    1.1262    2.4870   -0.8481 C   0  0  0  0  0  0  0  0  0  0  0  0
    1.8954    3.0218   -1.6273 O   0  0  0  0  0  0  0  0  0  0  0  0
    0.9176    2.9299    0.4137 O   0  0  0  0  0  0  0  0  0  0  0  0
    1.5911    3.6101    0.5683 H   0  0  0  0  0  0  0  0  0  0  0  0
    0.9725   -0.0232    0.6597 C   0  0  0  0  0  0  0  0  0  0  0  0
    2.1860   -0.1094    0.7923 O   0  0  0  0  0  0  0  0  0  0  0  0
    0.1937    0.2756    1.7633 N   0  0  0  0  0  0  0  0  0  0  0  0
   -0.8017    0.3911    1.6106 H   0  0  0  0  0  0  0  0  0  0  0  0
    0.7278    0.3923    3.1136 C   0  0  0  0  0  0  0  0  0  0  0  0
    1.4691    1.1968    3.1634 H   0  0  0  0  0  0  0  0  0  0  0  0
   -0.0760    0.6178    3.8206 H   0  0  0  0  0  0  0  0  0  0  0  0
    1.2040   -0.5457    3.4179 H   0  0  0  0  0  0  0  0  0  0  0  0
  1  2  1  0  0  0  0
  2  3  1  0  0  0  0
  2  4  1  0  0  0  0
  2  5  1  0  0  0  0
  5  6  2  0  0  0  0
  5  7  1  0  0  0  0
  7  8  1  0  0  0  0
  7  9  1  0  0  0  0
  9 10  1  0  0  0  0
  9 11  1  0  0  0  0
  9 18  1  0  0  0  0
 11 12  1  0  0  0  0
 11 13  1  0  0  0  0
 11 14  1  0  0  0  0
 14 15  2  0  0  0  0
 14 16  1  0  0  0  0
 16 17  1  0  0  0  0
 18 19  2  0  0  0  0
 18 20  1  0  0  0  0
 20 21  1  0  0  0  0
 20 22  1  0  0  0  0
 22 23  1  0  0  0  0
 22 24  1  0  0  0  0
 22 25  1  0  0  0  0
M  END
$$$$

  -OEChem-02102214113D

 25 24  0     1  0  0  0  0  0999 V2000
   -2.5535   -3.6482   -0.4452 H   0  0  0  0  0  0  0  0  0  0  0  0
   -2.5568   -2.5856   -0.7044 C   0  0  0  0  0  0  0  0  0  0  0  0
   -3.2637   -2.0676   -0.0521 H   0  0  0  0  0  0  0  0  0  0  0  0
   -2.8811   -2.4786   -1.7422 H   0  0  0  0  0  0  0  0  0  0  0  0
   -1.1668   -2.0026   -0.5322 C   0  0  0  0  0  0  0  0  0  0  0  0
   -0.2587   -2.7109   -0.1374 O   0  0  0  0  0  0  0  0  0  0  0  0
   -0.9395   -0.6734   -0.8362 N   0  0  0  0  0  0  0  0  0  0  0  0
   -1.7188   -0.1543   -1.2291 H   0  0  0  0  0  0  0  0  0  0  0  0
    0.3775   -0.0122   -0.7523 C   0  0  1  0  0  0  0  0  0  0  0  0
    1.0889   -0.5848   -1.3598 H   0  0  0  0  0  0  0  0  0  0  0  0
    0.2389    1.3865   -1.4122 C   0  0  0  0  0  0  0  0  0  0  0  0
    0.4026    1.2772   -2.4884 H   0  0  0  0  0  0  0  0  0  0  0  0
   -0.7836    1.7450   -1.2716 H   0  0  0  0  0  0  0  0  0  0  0  0
    1.1401    2.5071   -0.8863 C   0  0  0  0  0  0  0  0  0  0  0  0
    1.6888    3.2012   -1.7245 O   0  0  0  0  0  0  0  0  0  0  0  0
    1.1080    2.8259    0.4278 O   0  0  0  0  0  0  0  0  0  0  0  0
    1.7252    3.5652    0.5386 H   0  0  0  0  0  0  0  0  0  0  0  0
    0.9801   -0.0438    0.6746 C   0  0  0  0  0  0  0  0  0  0  0  0
    2.1902   -0.1659    0.8135 O   0  0  0  0  0  0  0  0  0  0  0  0
    0.1980    0.2525    1.7768 N   0  0  0  0  0  0  0  0  0  0  0  0
   -0.7926    0.3969    1.6177 H   0  0  0  0  0  0  0  0  0  0  0  0
    0.7256    0.3444    3.1317 C   0  0  0  0  0  0  0  0  0  0  0  0
    1.4828    1.1330    3.1945 H   0  0  0  0  0  0  0  0  0  0  0  0
   -0.0780    0.5792    3.8360 H   0  0  0  0  0  0  0  0  0  0  0  0
    1.1808   -0.6062    3.4294 H   0  0  0  0  0  0  0  0  0  0  0  0
  1  2  1  0  0  0  0
  2  3  1  0  0  0  0
  2  4  1  0  0  0  0
  2  5  1  0  0  0  0
  5  6  2  0  0  0  0
  5  7  1  0  0  0  0
  7  8  1  0  0  0  0
  7  9  1  0  0  0  0
  9 10  1  0  0  0  0
  9 11  1  0  0  0  0
  9 18  1  0  0  0  0
 11 12  1  0  0  0  0
 11 13  1  0  0  0  0
 11 14  1  0  0  0  0
 14 15  2  0  0  0  0
 14 16  1  0  0  0  0
 16 17  1  0  0  0  0
 18 19  2  0  0  0  0
 18 20  1  0  0  0  0
 20 21  1  0  0  0  0
 20 22  1  0  0  0  0
 22 23  1  0  0  0  0
 22 24  1  0  0  0  0
 22 25  1  0  0  0  0
M  END
$$$$

  -OEChem-02102214113D

 25 24  0     1  0  0  0  0  0999 V2000
   -2.5654   -3.6260   -0.4379 H   0  0  0  0  0  0  0  0  0  0  0  0
   -2.5618   -2.5619   -0.6915 C   0  0  0  0  0  0  0  0  0  0  0  0
   -3.2600   -2.0414   -0.0318 H   0  0  0  0  0  0  0  0  0  0  0  0
   -2.8920   -2.4473   -1.7267 H   0  0  0  0  0  0  0  0  0  0  0  0
   -1.1657   -1.9913   -0.5237 C   0  0  0  0  0  0  0  0  0  0  0  0
   -0.2643   -2.7087   -0.1300 O   0  0  0  0  0  0  0  0  0  0  0  0
   -0.9250   -0.6647   -0.8302 N   0  0  0  0  0  0  0  0  0  0  0  0
   -1.6997   -0.1385   -1.2228 H   0  0  0  0  0  0  0  0  0  0  0  0
    0.3979   -0.0143   -0.7433 C   0  0  1  0  0  0  0  0  0  0  0  0
    1.1087   -0.5958   -1.3432 H   0  0  0  0  0  0  0  0  0  0  0  0
    0.2627    1.3782   -1.4233 C   0  0  0  0  0  0  0  0  0  0  0  0
    0.4270    1.2441   -2.4966 H   0  0  0  0  0  0  0  0  0  0  0  0
   -0.7629    1.7310   -1.2909 H   0  0  0  0  0  0  0  0  0  0  0  0
    1.1428    2.5387   -0.9426 C   0  0  0  0  0  0  0  0  0  0  0  0
    1.4299    3.3650   -1.7915 O   0  0  0  0  0  0  0  0  0  0  0  0
    1.3713    2.7339    0.3746 O   0  0  0  0  0  0  0  0  0  0  0  0
    1.9192    3.5307    0.4402 H   0  0  0  0  0  0  0  0  0  0  0  0
    0.9888   -0.0511    0.6880 C   0  0  0  0  0  0  0  0  0  0  0  0
    2.1895   -0.2354    0.8405 O   0  0  0  0  0  0  0  0  0  0  0  0
    0.2013    0.2539    1.7842 N   0  0  0  0  0  0  0  0  0  0  0  0
   -0.7867    0.4063    1.6182 H   0  0  0  0  0  0  0  0  0  0  0  0
    0.7117    0.2876    3.1480 C   0  0  0  0  0  0  0  0  0  0  0  0
    1.4991    1.0427    3.2422 H   0  0  0  0  0  0  0  0  0  0  0  0
   -0.0916    0.5364    3.8478 H   0  0  0  0  0  0  0  0  0  0  0  0
    1.1237   -0.6884    3.4259 H   0  0  0  0  0  0  0  0  0  0  0  0
  1  2  1  0  0  0  0
  2  3  1  0  0  0  0
  2  4  1  0  0  0  0
  2  5  1  0  0  0  0
  5  6  2  0  0  0  0
  5  7  1  0  0  0  0
  7  8  1  0  0  0  0
  7  9  1  0  0  0  0
  9 10  1  0  0  0  0
  9 11  1  0  0  0  0
  9 18  1  0  0  0  0
 11 12  1  0  0  0  0
 11 13  1  0  0  0  0
 11 14  1  0  0  0  0
 14 15  2  0  0  0  0
 14 16  1  0  0  0  0
 16 17  1  0  0  0  0
 18 19  2  0  0  0  0
 18 20  1  0  0  0  0
 20 21  1  0  0  0  0
 20 22  1  0  0  0  0
 22 23  1  0  0  0  0
 22 24  1  0  0  0  0
 22 25  1  0  0  0  0
M  END
$$$$

  -OEChem-02102214113D

 25 24  0     1  0  0  0  0  0999 V2000
   -2.5646   -3.6001   -0.4042 H   0  0  0  0  0  0  0  0  0  0  0  0
   -2.5538   -2.5358   -0.6567 C   0  0  0  0  0  0  0  0  0  0  0  0
   -3.2416   -2.0098    0.0095 H   0  0  0  0  0  0  0  0  0  0  0  0
   -2.8921   -2.4169   -1.6888 H   0  0  0  0  0  0  0  0  0  0  0  0
   -1.1512   -1.9783   -0.5016 C   0  0  0  0  0  0  0  0  0  0  0  0
   -0.2561   -2.7009   -0.1037 O   0  0  0  0  0  0  0  0  0  0  0  0
   -0.8994   -0.6583   -0.8270 N   0  0  0  0  0  0  0  0  0  0  0  0
   -1.6713   -0.1315   -1.2241 H   0  0  0  0  0  0  0  0  0  0  0  0
    0.4279   -0.0142   -0.7482 C   0  0  1  0  0  0  0  0  0  0  0  0
    1.1423   -0.5931   -1.3459 H   0  0  0  0  0  0  0  0  0  0  0  0
    0.2668    1.3780   -1.4283 C   0  0  0  0  0  0  0  0  0  0  0  0
    0.4167    1.2381   -2.5030 H   0  0  0  0  0  0  0  0  0  0  0  0
   -0.7632    1.7134   -1.2830 H   0  0  0  0  0  0  0  0  0  0  0  0
    1.1250    2.5731   -0.9896 C   0  0  0  0  0  0  0  0  0  0  0  0
    1.1244    3.5136   -1.7652 O   0  0  0  0  0  0  0  0  0  0  0  0
    1.7237    2.6234    0.2185 O   0  0  0  0  0  0  0  0  0  0  0  0
    2.1987    3.4669    0.2579 H   0  0  0  0  0  0  0  0  0  0  0  0
    1.0005   -0.0427    0.6914 C   0  0  0  0  0  0  0  0  0  0  0  0
    2.1825   -0.3057    0.8723 O   0  0  0  0  0  0  0  0  0  0  0  0
    0.1986    0.2813    1.7719 N   0  0  0  0  0  0  0  0  0  0  0  0
   -0.7868    0.4293    1.5876 H   0  0  0  0  0  0  0  0  0  0  0  0
    0.6671    0.2347    3.1505 C   0  0  0  0  0  0  0  0  0  0  0  0
    1.4915    0.9404    3.2977 H   0  0  0  0  0  0  0  0  0  0  0  0
   -0.1432    0.5012    3.8356 H   0  0  0  0  0  0  0  0  0  0  0  0
    1.0163   -0.7726    3.4013 H   0  0  0  0  0  0  0  0  0  0  0  0
  1  2  1  0  0  0  0
  2  3  1  0  0  0  0
  2  4  1  0  0  0  0
  2  5  1  0  0  0  0
  5  6  2  0  0  0  0
  5  7  1  0  0  0  0
  7  8  1  0  0  0  0
  7  9  1  0  0  0  0
  9 10  1  0  0  0  0
  9 11  1  0  0  0  0
  9 18  1  0  0  0  0
 11 12  1  0  0  0  0
 11 13  1  0  0  0  0
 11 14  1  0  0  0  0
 14 15  2  0  0  0  0
 14 16  1  0  0  0  0
 16 17  1  0  0  0  0
 18 19  2  0  0  0  0
 18 20  1  0  0  0  0
 20 21  1  0  0  0  0
 20 22  1  0  0  0  0
 22 23  1  0  0  0  0
 22 24  1  0  0  0  0
 22 25  1  0  0  0  0
M  END
$$$$

  -OEChem-02102214113D

 25 24  0     1  0  0  0  0  0999 V2000
   -2.5478   -3.5837   -0.3046 H   0  0  0  0  0  0  0  0  0  0  0  0
   -2.5254   -2.5389   -0.6277 C   0  0  0  0  0  0  0  0  0  0  0  0
   -3.2408   -1.9706   -0.0287 H   0  0  0  0  0  0  0  0  0  0  0  0
   -2.8188   -2.4909   -1.6791 H   0  0  0  0  0  0  0  0  0  0  0  0
   -1.1304   -1.9686   -0.4506 C   0  0  0  0  0  0  0  0  0  0  0  0
   -0.2501   -2.6673    0.0157 O   0  0  0  0  0  0  0  0  0  0  0  0
   -0.8715   -0.6662   -0.8369 N   0  0  0  0  0  0  0  0  0  0  0  0
   -1.6264   -0.1756   -1.3070 H   0  0  0  0  0  0  0  0  0  0  0  0
    0.4573   -0.0216   -0.7869 C   0  0  1  0  0  0  0  0  0  0  0  0
    1.1813   -0.5756   -1.3962 H   0  0  0  0  0  0  0  0  0  0  0  0
    0.2175    1.3807   -1.4056 C   0  0  0  0  0  0  0  0  0  0  0  0
    0.0647    1.2561   -2.4812 H   0  0  0  0  0  0  0  0  0  0  0  0
   -0.7012    1.7955   -0.9813 H   0  0  0  0  0  0  0  0  0  0  0  0
    1.2880    2.4586   -1.2137 C   0  0  0  0  0  0  0  0  0  0  0  0
    1.0406    3.5391   -1.7207 O   0  0  0  0  0  0  0  0  0  0  0  0
    2.4680    2.1723   -0.6278 O   0  0  0  0  0  0  0  0  0  0  0  0
    3.0028    2.9792   -0.6567 H   0  0  0  0  0  0  0  0  0  0  0  0
    1.0172    0.0105    0.6608 C   0  0  0  0  0  0  0  0  0  0  0  0
    2.1716   -0.3214    0.8941 O   0  0  0  0  0  0  0  0  0  0  0  0
    0.1981    0.3871    1.7112 N   0  0  0  0  0  0  0  0  0  0  0  0
   -0.7877    0.4940    1.5002 H   0  0  0  0  0  0  0  0  0  0  0  0
    0.6126    0.2927    3.1054 C   0  0  0  0  0  0  0  0  0  0  0  0
    1.5199    0.8819    3.2761 H   0  0  0  0  0  0  0  0  0  0  0  0
   -0.1743    0.6755    3.7620 H   0  0  0  0  0  0  0  0  0  0  0  0
    0.8144   -0.7499    3.3735 H   0  0  0  0  0  0  0  0  0  0  0  0
  1  2  1  0  0  0  0
  2  3  1  0  0  0  0
  2  4  1  0  0  0  0
  2  5  1  0  0  0  0
  5  6  2  0  0  0  0
  5  7  1  0  0  0  0
  7  8  1  0  0  0  0
  7  9  1  0  0  0  0
  9 10  1  0  0  0  0
  9 11  1  0  0  0  0
  9 18  1  0  0  0  0
 11 12  1  0  0  0  0
 11 13  1  0  0  0  0
 11 14  1  0  0  0  0
 14 15  2  0  0  0  0
 14 16  1  0  0  0  0
 16 17  1  0  0  0  0
 18 19  2  0  0  0  0
 18 20  1  0  0  0  0
 20 21  1  0  0  0  0
 20 22  1  0  0  0  0
 22 23  1  0  0  0  0
 22 24  1  0  0  0  0
 22 25  1  0  0  0  0
M  END
$$$$

  -OEChem-02102214113D

 25 24  0     1  0  0  0  0  0999 V2000
   -2.5316   -3.6051   -0.3149 H   0  0  0  0  0  0  0  0  0  0  0  0
   -2.5212   -2.5573   -0.6289 C   0  0  0  0  0  0  0  0  0  0  0  0
   -3.2422   -2.0020   -0.0244 H   0  0  0  0  0  0  0  0  0  0  0  0
   -2.8162   -2.5033   -1.6796 H   0  0  0  0  0  0  0  0  0  0  0  0
   -1.1327   -1.9729   -0.4486 C   0  0  0  0  0  0  0  0  0  0  0  0
   -0.2488   -2.6583    0.0309 O   0  0  0  0  0  0  0  0  0  0  0  0
   -0.8841   -0.6708   -0.8419 N   0  0  0  0  0  0  0  0  0  0  0  0
   -1.6387   -0.1932   -1.3258 H   0  0  0  0  0  0  0  0  0  0  0  0
    0.4411   -0.0195   -0.8004 C   0  0  1  0  0  0  0  0  0  0  0  0
    1.1647   -0.5655   -1.4176 H   0  0  0  0  0  0  0  0  0  0  0  0
    0.2000    1.3915   -1.3912 C   0  0  0  0  0  0  0  0  0  0  0  0
    0.0456    1.2959   -2.4691 H   0  0  0  0  0  0  0  0  0  0  0  0
   -0.7127    1.8076   -0.9545 H   0  0  0  0  0  0  0  0  0  0  0  0
    1.3023    2.4269   -1.1670 C   0  0  0  0  0  0  0  0  0  0  0  0
    1.0001    3.5900   -1.3712 O   0  0  0  0  0  0  0  0  0  0  0  0
    2.5716    2.0163   -0.9617 O   0  0  0  0  0  0  0  0  0  0  0  0
    3.1194    2.8119   -0.8938 H   0  0  0  0  0  0  0  0  0  0  0  0
    1.0092    0.0222    0.6441 C   0  0  0  0  0  0  0  0  0  0  0  0
    2.1795   -0.2511    0.8711 O   0  0  0  0  0  0  0  0  0  0  0  0
    0.1909    0.3992    1.6948 N   0  0  0  0  0  0  0  0  0  0  0  0
   -0.8002    0.4663    1.4916 H   0  0  0  0  0  0  0  0  0  0  0  0
    0.6191    0.3381    3.0868 C   0  0  0  0  0  0  0  0  0  0  0  0
    1.5042    0.9636    3.2436 H   0  0  0  0  0  0  0  0  0  0  0  0
   -0.1771    0.6983    3.7449 H   0  0  0  0  0  0  0  0  0  0  0  0
    0.8627   -0.6924    3.3664 H   0  0  0  0  0  0  0  0  0  0  0  0
  1  2  1  0  0  0  0
  2  3  1  0  0  0  0
  2  4  1  0  0  0  0
  2  5  1  0  0  0  0
  5  6  2  0  0  0  0
  5  7  1  0  0  0  0
  7  8  1  0  0  0  0
  7  9  1  0  0  0  0
  9 10  1  0  0  0  0
  9 11  1  0  0  0  0
  9 18  1  0  0  0  0
 11 12  1  0  0  0  0
 11 13  1  0  0  0  0
 11 14  1  0  0  0  0
 14 15  2  0  0  0  0
 14 16  1  0  0  0  0
 16 17  1  0  0  0  0
 18 19  2  0  0  0  0
 18 20  1  0  0  0  0
 20 21  1  0  0  0  0
 20 22  1  0  0  0  0
 22 23  1  0  0  0  0
 22 24  1  0  0  0  0
 22 25  1  0  0  0  0
M  END
$$$$

  -OEChem-02102214113D

 25 24  0     1  0  0  0  0  0999 V2000
   -2.5245   -3.6293   -0.3302 H   0  0  0  0  0  0  0  0  0  0  0  0
   -2.5252   -2.5819   -0.6457 C   0  0  0  0  0  0  0  0  0  0  0  0
   -3.2552   -2.0347   -0.0447 H   0  0  0  0  0  0  0  0  0  0  0  0
   -2.8168   -2.5330   -1.6976 H   0  0  0  0  0  0  0  0  0  0  0  0
   -1.1441   -1.9816   -0.4601 C   0  0  0  0  0  0  0  0  0  0  0  0
   -0.2537   -2.6569    0.0221 O   0  0  0  0  0  0  0  0  0  0  0  0
   -0.9075   -0.6762   -0.8498 N   0  0  0  0  0  0  0  0  0  0  0  0
   -1.6645   -0.2052   -1.3366 H   0  0  0  0  0  0  0  0  0  0  0  0
    0.4141   -0.0183   -0.8127 C   0  0  1  0  0  0  0  0  0  0  0  0
    1.1335   -0.5612   -1.4373 H   0  0  0  0  0  0  0  0  0  0  0  0
    0.1827    1.3984   -1.3870 C   0  0  0  0  0  0  0  0  0  0  0  0
    0.0331    1.3245   -2.4671 H   0  0  0  0  0  0  0  0  0  0  0  0
   -0.7248    1.8220   -0.9467 H   0  0  0  0  0  0  0  0  0  0  0  0
    1.3173    2.3881   -1.1305 C   0  0  0  0  0  0  0  0  0  0  0  0
    1.0179    3.5653   -1.0259 O   0  0  0  0  0  0  0  0  0  0  0  0
    2.5908    1.9484   -1.2369 O   0  0  0  0  0  0  0  0  0  0  0  0
    3.1656    2.7080   -1.0617 H   0  0  0  0  0  0  0  0  0  0  0  0
    0.9985    0.0251    0.6251 C   0  0  0  0  0  0  0  0  0  0  0  0
    2.1889   -0.1686    0.8270 O   0  0  0  0  0  0  0  0  0  0  0  0
    0.1903    0.3947    1.6858 N   0  0  0  0  0  0  0  0  0  0  0  0
   -0.8065    0.4322    1.5031 H   0  0  0  0  0  0  0  0  0  0  0  0
    0.6524    0.3962    3.0682 C   0  0  0  0  0  0  0  0  0  0  0  0
    1.5089    1.0685    3.1857 H   0  0  0  0  0  0  0  0  0  0  0  0
   -0.1458    0.7367    3.7345 H   0  0  0  0  0  0  0  0  0  0  0  0
    0.9527   -0.6123    3.3715 H   0  0  0  0  0  0  0  0  0  0  0  0
  1  2  1  0  0  0  0
  2  3  1  0  0  0  0
  2  4  1  0  0  0  0
  2  5  1  0  0  0  0
  5  6  2  0  0  0  0
  5  7  1  0  0  0  0
  7  8  1  0  0  0  0
  7  9  1  0  0  0  0
  9 10  1  0  0  0  0
  9 11  1  0  0  0  0
  9 18  1  0  0  0  0
 11 12  1  0  0  0  0
 11 13  1  0  0  0  0
 11 14  1  0  0  0  0
 14 15  2  0  0  0  0
 14 16  1  0  0  0  0
 16 17  1  0  0  0  0
 18 19  2  0  0  0  0
 18 20  1  0  0  0  0
 20 21  1  0  0  0  0
 20 22  1  0  0  0  0
 22 23  1  0  0  0  0
 22 24  1  0  0  0  0
 22 25  1  0  0  0  0
M  END
$$$$

  -OEChem-02102214113D

 25 24  0     1  0  0  0  0  0999 V2000
   -2.5205   -3.6492   -0.3434 H   0  0  0  0  0  0  0  0  0  0  0  0
   -2.5301   -2.6016   -0.6579 C   0  0  0  0  0  0  0  0  0  0  0  0
   -3.2606   -2.0596   -0.0525 H   0  0  0  0  0  0  0  0  0  0  0  0
   -2.8278   -2.5541   -1.7081 H   0  0  0  0  0  0  0  0  0  0  0  0
   -1.1523   -1.9915   -0.4804 C   0  0  0  0  0  0  0  0  0  0  0  0
   -0.2524   -2.6618   -0.0085 O   0  0  0  0  0  0  0  0  0  0  0  0
   -0.9288   -0.6811   -0.8605 N   0  0  0  0  0  0  0  0  0  0  0  0
   -1.6940   -0.2087   -1.3328 H   0  0  0  0  0  0  0  0  0  0  0  0
    0.3878   -0.0147   -0.8241 C   0  0  1  0  0  0  0  0  0  0  0  0
    1.1043   -0.5556   -1.4541 H   0  0  0  0  0  0  0  0  0  0  0  0
    0.1661    1.4030   -1.3951 C   0  0  0  0  0  0  0  0  0  0  0  0
    0.0259    1.3393   -2.4771 H   0  0  0  0  0  0  0  0  0  0  0  0
   -0.7400    1.8350   -0.9598 H   0  0  0  0  0  0  0  0  0  0  0  0
    1.3213    2.3598   -1.1135 C   0  0  0  0  0  0  0  0  0  0  0  0
    1.0515    3.4826   -0.7219 O   0  0  0  0  0  0  0  0  0  0  0  0
    2.5679    1.9616   -1.4543 O   0  0  0  0  0  0  0  0  0  0  0  0
    3.1690    2.6715   -1.1830 H   0  0  0  0  0  0  0  0  0  0  0  0
    0.9901    0.0272    0.6055 C   0  0  0  0  0  0  0  0  0  0  0  0
    2.1940   -0.1013    0.7783 O   0  0  0  0  0  0  0  0  0  0  0  0
    0.1940    0.3843    1.6789 N   0  0  0  0  0  0  0  0  0  0  0  0
   -0.8068    0.4058    1.5163 H   0  0  0  0  0  0  0  0  0  0  0  0
    0.6883    0.4465    3.0486 C   0  0  0  0  0  0  0  0  0  0  0  0
    1.5132    1.1627    3.1258 H   0  0  0  0  0  0  0  0  0  0  0  0
   -0.1094    0.7665    3.7254 H   0  0  0  0  0  0  0  0  0  0  0  0
    1.0445   -0.5376    3.3712 H   0  0  0  0  0  0  0  0  0  0  0  0
  1  2  1  0  0  0  0
  2  3  1  0  0  0  0
  2  4  1  0  0  0  0
  2  5  1  0  0  0  0
  5  6  2  0  0  0  0
  5  7  1  0  0  0  0
  7  8  1  0  0  0  0
  7  9  1  0  0  0  0
  9 10  1  0  0  0  0
  9 11  1  0  0  0  0
  9 18  1  0  0  0  0
 11 12  1  0  0  0  0
 11 13  1  0  0  0  0
 11 14  1  0  0  0  0
 14 15  2  0  0  0  0
 14 16  1  0  0  0  0
 16 17  1  0  0  0  0
 18 19  2  0  0  0  0
 18 20  1  0  0  0  0
 20 21  1  0  0  0  0
 20 22  1  0  0  0  0
 22 23  1  0  0  0  0
 22 24  1  0  0  0  0
 22 25  1  0  0  0  0
M  END
$$$$

  -OEChem-02102214113D

 25 24  0     1  0  0  0  0  0999 V2000
   -2.5098   -3.6702   -0.3766 H   0  0  0  0  0  0  0  0  0  0  0  0
   -2.5322   -2.6166   -0.6698 C   0  0  0  0  0  0  0  0  0  0  0  0
   -3.2621   -2.0939   -0.0472 H   0  0  0  0  0  0  0  0  0  0  0  0
   -2.8402   -2.5507   -1.7159 H   0  0  0  0  0  0  0  0  0  0  0  0
   -1.1586   -1.9969   -0.4924 C   0  0  0  0  0  0  0  0  0  0  0  0
   -0.2511   -2.6631   -0.0292 O   0  0  0  0  0  0  0  0  0  0  0  0
   -0.9456   -0.6828   -0.8657 N   0  0  0  0  0  0  0  0  0  0  0  0
   -1.7174   -0.2095   -1.3262 H   0  0  0  0  0  0  0  0  0  0  0  0
    0.3668   -0.0093   -0.8293 C   0  0  1  0  0  0  0  0  0  0  0  0
    1.0804   -0.5511   -1.4618 H   0  0  0  0  0  0  0  0  0  0  0  0
    0.1499    1.4050   -1.4068 C   0  0  0  0  0  0  0  0  0  0  0  0
    0.0170    1.3415   -2.4897 H   0  0  0  0  0  0  0  0  0  0  0  0
   -0.7568    1.8431   -0.9791 H   0  0  0  0  0  0  0  0  0  0  0  0
    1.3131    2.3464   -1.1120 C   0  0  0  0  0  0  0  0  0  0  0  0
    1.0906    3.3580   -0.4686 O   0  0  0  0  0  0  0  0  0  0  0  0
    2.5166    2.0422   -1.6484 O   0  0  0  0  0  0  0  0  0  0  0  0
    3.1406    2.7008   -1.3073 H   0  0  0  0  0  0  0  0  0  0  0  0
    0.9850    0.0349    0.5922 C   0  0  0  0  0  0  0  0  0  0  0  0
    2.1956   -0.0604    0.7400 O   0  0  0  0  0  0  0  0  0  0  0  0
    0.2007    0.3839    1.6764 N   0  0  0  0  0  0  0  0  0  0  0  0
   -0.8020    0.4080    1.5277 H   0  0  0  0  0  0  0  0  0  0  0  0
    0.7182    0.4830    3.0349 C   0  0  0  0  0  0  0  0  0  0  0  0
    1.5210    1.2262    3.0861 H   0  0  0  0  0  0  0  0  0  0  0  0
   -0.0770    0.7878    3.7217 H   0  0  0  0  0  0  0  0  0  0  0  0
    1.1114   -0.4844    3.3648 H   0  0  0  0  0  0  0  0  0  0  0  0
  1  2  1  0  0  0  0
  2  3  1  0  0  0  0
  2  4  1  0  0  0  0
  2  5  1  0  0  0  0
  5  6  2  0  0  0  0
  5  7  1  0  0  0  0
  7  8  1  0  0  0  0
  7  9  1  0  0  0  0
  9 10  1  0  0  0  0
  9 11  1  0  0  0  0
  9 18  1  0  0  0  0
 11 12  1  0  0  0  0
 11 13  1  0  0  0  0
 11 14  1  0  0  0  0
 14 15  2  0  0  0  0
 14 16  1  0  0  0  0
 16 17  1  0  0  0  0
 18 19  2  0  0  0  0
 18 20  1  0  0  0  0
 20 21  1  0  0  0  0
 20 22  1  0  0  0  0
 22 23  1  0  0  0  0
 22 24  1  0  0  0  0
 22 25  1  0  0  0  0
M  END
$$$$

  -OEChem-02102214113D

 25 24  0     1  0  0  0  0  0999 V2000
   -2.5094   -3.6802   -0.3945 H   0  0  0  0  0  0  0  0  0  0  0  0
   -2.5357   -2.6251   -0.6816 C   0  0  0  0  0  0  0  0  0  0  0  0
   -3.2621   -2.1068   -0.0512 H   0  0  0  0  0  0  0  0  0  0  0  0
   -2.8507   -2.5540   -1.7253 H   0  0  0  0  0  0  0  0  0  0  0  0
   -1.1620   -2.0042   -0.5100 C   0  0  0  0  0  0  0  0  0  0  0  0
   -0.2483   -2.6724   -0.0619 O   0  0  0  0  0  0  0  0  0  0  0  0
   -0.9557   -0.6862   -0.8718 N   0  0  0  0  0  0  0  0  0  0  0  0
   -1.7340   -0.2074   -1.3153 H   0  0  0  0  0  0  0  0  0  0  0  0
    0.3530   -0.0070   -0.8280 C   0  0  1  0  0  0  0  0  0  0  0  0
    1.0666   -0.5489   -1.4605 H   0  0  0  0  0  0  0  0  0  0  0  0
    0.1387    1.4031   -1.4160 C   0  0  0  0  0  0  0  0  0  0  0  0
    0.0147    1.3338   -2.4998 H   0  0  0  0  0  0  0  0  0  0  0  0
   -0.7719    1.8437   -1.0000 H   0  0  0  0  0  0  0  0  0  0  0  0
    1.2967    2.3474   -1.1133 C   0  0  0  0  0  0  0  0  0  0  0  0
    1.1387    3.2042   -0.2600 O   0  0  0  0  0  0  0  0  0  0  0  0
    2.4356    2.1911   -1.8249 O   0  0  0  0  0  0  0  0  0  0  0  0
    3.0775    2.8082   -1.4413 H   0  0  0  0  0  0  0  0  0  0  0  0
    0.9799    0.0345    0.5887 C   0  0  0  0  0  0  0  0  0  0  0  0
    2.1936   -0.0511    0.7188 O   0  0  0  0  0  0  0  0  0  0  0  0
    0.2053    0.3727    1.6830 N   0  0  0  0  0  0  0  0  0  0  0  0
   -0.7975    0.4232    1.5417 H   0  0  0  0  0  0  0  0  0  0  0  0
    0.7423    0.5098    3.0304 C   0  0  0  0  0  0  0  0  0  0  0  0
    1.5241    1.2763    3.0549 H   0  0  0  0  0  0  0  0  0  0  0  0
   -0.0496    0.8033    3.7258 H   0  0  0  0  0  0  0  0  0  0  0  0
    1.1684   -0.4402    3.3696 H   0  0  0  0  0  0  0  0  0  0  0  0
  1  2  1  0  0  0  0
  2  3  1  0  0  0  0
  2  4  1  0  0  0  0
  2  5  1  0  0  0  0
  5  6  2  0  0  0  0
  5  7  1  0  0  0  0
  7  8  1  0  0  0  0
  7  9  1  0  0  0  0
  9 10  1  0  0  0  0
  9 11  1  0  0  0  0
  9 18  1  0  0  0  0
 11 12  1  0  0  0  0
 11 13  1  0  0  0  0
 11 14  1  0  0  0  0
 14 15  2  0  0  0  0
 14 16  1  0  0  0  0
 16 17  1  0  0  0  0
 18 19  2  0  0  0  0
 18 20  1  0  0  0  0
 20 21  1  0  0  0  0
 20 22  1  0  0  0  0
 22 23  1  0  0  0  0
 22 24  1  0  0  0  0
 22 25  1  0  0  0  0
M  END
$$$$

  -OEChem-02102214113D

 25 24  0     1  0  0  0  0  0999 V2000
   -2.5098   -3.6841   -0.4076 H   0  0  0  0  0  0  0  0  0  0  0  0
   -2.5370   -2.6273   -0.6885 C   0  0  0  0  0  0  0  0  0  0  0  0
   -3.2584   -2.1123   -0.0498 H   0  0  0  0  0  0  0  0  0  0  0  0
   -2.8592   -2.5500   -1.7295 H   0  0  0  0  0  0  0  0  0  0  0  0
   -1.1616   -2.0085   -0.5230 C   0  0  0  0  0  0  0  0  0  0  0  0
   -0.2432   -2.6822   -0.0929 O   0  0  0  0  0  0  0  0  0  0  0  0
   -0.9584   -0.6867   -0.8728 N   0  0  0  0  0  0  0  0  0  0  0  0
   -1.7420   -0.2001   -1.2978 H   0  0  0  0  0  0  0  0  0  0  0  0
    0.3476   -0.0040   -0.8180 C   0  0  1  0  0  0  0  0  0  0  0  0
    1.0632   -0.5498   -1.4448 H   0  0  0  0  0  0  0  0  0  0  0  0
    0.1389    1.3991   -1.4263 C   0  0  0  0  0  0  0  0  0  0  0  0
    0.0248    1.3141   -2.5102 H   0  0  0  0  0  0  0  0  0  0  0  0
   -0.7779    1.8421   -1.0275 H   0  0  0  0  0  0  0  0  0  0  0  0
    1.2821    2.3627   -1.1256 C   0  0  0  0  0  0  0  0  0  0  0  0
    1.2174    3.0451   -0.1170 O   0  0  0  0  0  0  0  0  0  0  0  0
    2.3162    2.4003   -1.9955 O   0  0  0  0  0  0  0  0  0  0  0  0
    2.9720    2.9961   -1.6012 H   0  0  0  0  0  0  0  0  0  0  0  0
    0.9745    0.0312    0.5981 C   0  0  0  0  0  0  0  0  0  0  0  0
    2.1878   -0.0701    0.7228 O   0  0  0  0  0  0  0  0  0  0  0  0
    0.2035    0.3590    1.6983 N   0  0  0  0  0  0  0  0  0  0  0  0
   -0.7959    0.4512    1.5556 H   0  0  0  0  0  0  0  0  0  0  0  0
    0.7510    0.5135    3.0396 C   0  0  0  0  0  0  0  0  0  0  0  0
    1.5178    1.2955    3.0523 H   0  0  0  0  0  0  0  0  0  0  0  0
   -0.0395    0.7944    3.7419 H   0  0  0  0  0  0  0  0  0  0  0  0
    1.1994   -0.4260    3.3792 H   0  0  0  0  0  0  0  0  0  0  0  0
  1  2  1  0  0  0  0
  2  3  1  0  0  0  0
  2  4  1  0  0  0  0
  2  5  1  0  0  0  0
  5  6  2  0  0  0  0
  5  7  1  0  0  0  0
  7  8  1  0  0  0  0
  7  9  1  0  0  0  0
  9 10  1  0  0  0  0
  9 11  1  0  0  0  0
  9 18  1  0  0  0  0
 11 12  1  0  0  0  0
 11 13  1  0  0  0  0
 11 14  1  0  0  0  0
 14 15  2  0  0  0  0
 14 16  1  0  0  0  0
 16 17  1  0  0  0  0
 18 19  2  0  0  0  0
 18 20  1  0  0  0  0
 20 21  1  0  0  0  0
 20 22  1  0  0  0  0
 22 23  1  0  0  0  0
 22 24  1  0  0  0  0
 22 25  1  0  0  0  0
M  END
$$$$

  -OEChem-02102214113D

 25 24  0     1  0  0  0  0  0999 V2000
   -2.5217   -3.6716   -0.3949 H   0  0  0  0  0  0  0  0  0  0  0  0
   -2.5397   -2.6186   -0.6904 C   0  0  0  0  0  0  0  0  0  0  0  0
   -3.2553   -2.0885   -0.0575 H   0  0  0  0  0  0  0  0  0  0  0  0
   -2.8626   -2.5522   -1.7322 H   0  0  0  0  0  0  0  0  0  0  0  0
   -1.1580   -2.0109   -0.5351 C   0  0  0  0  0  0  0  0  0  0  0  0
   -0.2381   -2.6977   -0.1302 O   0  0  0  0  0  0  0  0  0  0  0  0
   -0.9492   -0.6866   -0.8716 N   0  0  0  0  0  0  0  0  0  0  0  0
   -1.7387   -0.1834   -1.2648 H   0  0  0  0  0  0  0  0  0  0  0  0
    0.3579   -0.0062   -0.8020 C   0  0  1  0  0  0  0  0  0  0  0  0
    1.0768   -0.5564   -1.4213 H   0  0  0  0  0  0  0  0  0  0  0  0
    0.1561    1.3918   -1.4306 C   0  0  0  0  0  0  0  0  0  0  0  0
    0.0499    1.2846   -2.5135 H   0  0  0  0  0  0  0  0  0  0  0  0
   -0.7683    1.8329   -1.0485 H   0  0  0  0  0  0  0  0  0  0  0  0
    1.2741    2.3922   -1.1458 C   0  0  0  0  0  0  0  0  0  0  0  0
    1.3448    2.9010   -0.0403 O   0  0  0  0  0  0  0  0  0  0  0  0
    2.1413    2.6566   -2.1490 O   0  0  0  0  0  0  0  0  0  0  0  0
    2.8064    3.2534   -1.7718 H   0  0  0  0  0  0  0  0  0  0  0  0
    0.9743    0.0154    0.6184 C   0  0  0  0  0  0  0  0  0  0  0  0
    2.1834   -0.1198    0.7516 O   0  0  0  0  0  0  0  0  0  0  0  0
    0.1978    0.3348    1.7173 N   0  0  0  0  0  0  0  0  0  0  0  0
   -0.7934    0.4786    1.5622 H   0  0  0  0  0  0  0  0  0  0  0  0
    0.7424    0.4961    3.0586 C   0  0  0  0  0  0  0  0  0  0  0  0
    1.4850    1.3010    3.0748 H   0  0  0  0  0  0  0  0  0  0  0  0
   -0.0550    0.7470    3.7643 H   0  0  0  0  0  0  0  0  0  0  0  0
    1.2200   -0.4316    3.3907 H   0  0  0  0  0  0  0  0  0  0  0  0
  1  2  1  0  0  0  0
  2  3  1  0  0  0  0
  2  4  1  0  0  0  0
  2  5  1  0  0  0  0
  5  6  2  0  0  0  0
  5  7  1  0  0  0  0
  7  8  1  0  0  0  0
  7  9  1  0  0  0  0
  9 10  1  0  0  0  0
  9 11  1  0  0  0  0
  9 18  1  0  0  0  0
 11 12  1  0  0  0  0
 11 13  1  0  0  0  0
 11 14  1  0  0  0  0
 14 15  2  0  0  0  0
 14 16  1  0  0  0  0
 16 17  1  0  0  0  0
 18 19  2  0  0  0  0
 18 20  1  0  0  0  0
 20 21  1  0  0  0  0
 20 22  1  0  0  0  0
 22 23  1  0  0  0  0
 22 24  1  0  0  0  0
 22 25  1  0  0  0  0
M  END
$$$$

  -OEChem-02102214113D

 25 24  0     1  0  0  0  0  0999 V2000
   -2.5127   -3.6532   -0.3847 H   0  0  0  0  0  0  0  0  0  0  0  0
   -2.5275   -2.5976   -0.6714 C   0  0  0  0  0  0  0  0  0  0  0  0
   -3.2306   -2.0679   -0.0244 H   0  0  0  0  0  0  0  0  0  0  0  0
   -2.8644   -2.5200   -1.7077 H   0  0  0  0  0  0  0  0  0  0  0  0
   -1.1397   -2.0006   -0.5301 C   0  0  0  0  0  0  0  0  0  0  0  0
   -0.2221   -2.6946   -0.1324 O   0  0  0  0  0  0  0  0  0  0  0  0
   -0.9253   -0.6770   -0.8672 N   0  0  0  0  0  0  0  0  0  0  0  0
   -1.7141   -0.1691   -1.2555 H   0  0  0  0  0  0  0  0  0  0  0  0
    0.3830    0.0010   -0.7900 C   0  0  1  0  0  0  0  0  0  0  0  0
    1.1075   -0.5530   -1.3993 H   0  0  0  0  0  0  0  0  0  0  0  0
    0.1788    1.3919   -1.4403 C   0  0  0  0  0  0  0  0  0  0  0  0
    0.0732    1.2597   -2.5206 H   0  0  0  0  0  0  0  0  0  0  0  0
   -0.7527    1.8272   -1.0696 H   0  0  0  0  0  0  0  0  0  0  0  0
    1.2678    2.4355   -1.1855 C   0  0  0  0  0  0  0  0  0  0  0  0
    1.5193    2.7872   -0.0471 O   0  0  0  0  0  0  0  0  0  0  0  0
    1.9097    2.9210   -2.2724 O   0  0  0  0  0  0  0  0  0  0  0  0
    2.5863    3.5258   -1.9294 H   0  0  0  0  0  0  0  0  0  0  0  0
    0.9801    0.0172    0.6388 C   0  0  0  0  0  0  0  0  0  0  0  0
    2.1791   -0.1721    0.7946 O   0  0  0  0  0  0  0  0  0  0  0  0
    0.1898    0.3374    1.7279 N   0  0  0  0  0  0  0  0  0  0  0  0
   -0.7971    0.4932    1.5584 H   0  0  0  0  0  0  0  0  0  0  0  0
    0.7077    0.4384    3.0857 C   0  0  0  0  0  0  0  0  0  0  0  0
    1.4929    1.2000    3.1392 H   0  0  0  0  0  0  0  0  0  0  0  0
   -0.0928    0.7179    3.7770 H   0  0  0  0  0  0  0  0  0  0  0  0
    1.1247   -0.5216    3.4076 H   0  0  0  0  0  0  0  0  0  0  0  0
  1  2  1  0  0  0  0
  2  3  1  0  0  0  0
  2  4  1  0  0  0  0
  2  5  1  0  0  0  0
  5  6  2  0  0  0  0
  5  7  1  0  0  0  0
  7  8  1  0  0  0  0
  7  9  1  0  0  0  0
  9 10  1  0  0  0  0
  9 11  1  0  0  0  0
  9 18  1  0  0  0  0
 11 12  1  0  0  0  0
 11 13  1  0  0  0  0
 11 14  1  0  0  0  0
 14 15  2  0  0  0  0
 14 16  1  0  0  0  0
 16 17  1  0  0  0  0
 18 19  2  0  0  0  0
 18 20  1  0  0  0  0
 20 21  1  0  0  0  0
 20 22  1  0  0  0  0
 22 23  1  0  0  0  0
 22 24  1  0  0  0  0
 22 25  1  0  0  0  0
M  END
$$$$

  -OEChem-02102214113D

 25 24  0     1  0  0  0  0  0999 V2000
   -2.5133   -3.6291   -0.3822 H   0  0  0  0  0  0  0  0  0  0  0  0
   -2.5191   -2.5724   -0.6652 C   0  0  0  0  0  0  0  0  0  0  0  0
   -3.2236   -2.0405   -0.0214 H   0  0  0  0  0  0  0  0  0  0  0  0
   -2.8480   -2.4895   -1.7039 H   0  0  0  0  0  0  0  0  0  0  0  0
   -1.1287   -1.9845   -0.5118 C   0  0  0  0  0  0  0  0  0  0  0  0
   -0.2197   -2.6855   -0.1071 O   0  0  0  0  0  0  0  0  0  0  0  0
   -0.9016   -0.6644   -0.8547 N   0  0  0  0  0  0  0  0  0  0  0  0
   -1.6852   -0.1528   -1.2485 H   0  0  0  0  0  0  0  0  0  0  0  0
    0.4115    0.0056   -0.7758 C   0  0  1  0  0  0  0  0  0  0  0  0
    1.1385   -0.5539   -1.3768 H   0  0  0  0  0  0  0  0  0  0  0  0
    0.2027    1.3913   -1.4417 C   0  0  0  0  0  0  0  0  0  0  0  0
    0.0959    1.2369   -2.5191 H   0  0  0  0  0  0  0  0  0  0  0  0
   -0.7337    1.8217   -1.0780 H   0  0  0  0  0  0  0  0  0  0  0  0
    1.2670    2.4707   -1.2223 C   0  0  0  0  0  0  0  0  0  0  0  0
    1.7292    2.6805   -0.1170 O   0  0  0  0  0  0  0  0  0  0  0  0
    1.6365    3.1672   -2.3212 O   0  0  0  0  0  0  0  0  0  0  0  0
    2.3251    3.7818   -2.0222 H   0  0  0  0  0  0  0  0  0  0  0  0
    0.9920    0.0194    0.6606 C   0  0  0  0  0  0  0  0  0  0  0  0
    2.1774   -0.2267    0.8394 O   0  0  0  0  0  0  0  0  0  0  0  0
    0.1910    0.3485    1.7395 N   0  0  0  0  0  0  0  0  0  0  0  0
   -0.7937    0.5041    1.5585 H   0  0  0  0  0  0  0  0  0  0  0  0
    0.6798    0.3807    3.1114 C   0  0  0  0  0  0  0  0  0  0  0  0
    1.4997    1.1004    3.2072 H   0  0  0  0  0  0  0  0  0  0  0  0
   -0.1223    0.6783    3.7932 H   0  0  0  0  0  0  0  0  0  0  0  0
    1.0420   -0.6084    3.4112 H   0  0  0  0  0  0  0  0  0  0  0  0
  1  2  1  0  0  0  0
  2  3  1  0  0  0  0
  2  4  1  0  0  0  0
  2  5  1  0  0  0  0
  5  6  2  0  0  0  0
  5  7  1  0  0  0  0
  7  8  1  0  0  0  0
  7  9  1  0  0  0  0
  9 10  1  0  0  0  0
  9 11  1  0  0  0  0
  9 18  1  0  0  0  0
 11 12  1  0  0  0  0
 11 13  1  0  0  0  0
 11 14  1  0  0  0  0
 14 15  2  0  0  0  0
 14 16  1  0  0  0  0
 16 17  1  0  0  0  0
 18 19  2  0  0  0  0
 18 20  1  0  0  0  0
 20 21  1  0  0  0  0
 20 22  1  0  0  0  0
 22 23  1  0  0  0  0
 22 24  1  0  0  0  0
 22 25  1  0  0  0  0
M  END
$$$$

  -OEChem-02102214113D

 25 24  0     1  0  0  0  0  0999 V2000
   -2.5184   -3.6033   -0.3616 H   0  0  0  0  0  0  0  0  0  0  0  0
   -2.5131   -2.5493   -0.6545 C   0  0  0  0  0  0  0  0  0  0  0  0
   -3.2183   -2.0055   -0.0218 H   0  0  0  0  0  0  0  0  0  0  0  0
   -2.8326   -2.4734   -1.6966 H   0  0  0  0  0  0  0  0  0  0  0  0
   -1.1192   -1.9715   -0.4954 C   0  0  0  0  0  0  0  0  0  0  0  0
   -0.2191   -2.6773   -0.0799 O   0  0  0  0  0  0  0  0  0  0  0  0
   -0.8801   -0.6560   -0.8481 N   0  0  0  0  0  0  0  0  0  0  0  0
   -1.6568   -0.1444   -1.2552 H   0  0  0  0  0  0  0  0  0  0  0  0
    0.4382    0.0055   -0.7733 C   0  0  1  0  0  0  0  0  0  0  0  0
    1.1661   -0.5538   -1.3728 H   0  0  0  0  0  0  0  0  0  0  0  0
    0.2185    1.3931   -1.4359 C   0  0  0  0  0  0  0  0  0  0  0  0
    0.1014    1.2351   -2.5118 H   0  0  0  0  0  0  0  0  0  0  0  0
   -0.7176    1.8158   -1.0626 H   0  0  0  0  0  0  0  0  0  0  0  0
    1.2677    2.4934   -1.2415 C   0  0  0  0  0  0  0  0  0  0  0  0
    1.9469    2.5627   -0.2364 O   0  0  0  0  0  0  0  0  0  0  0  0
    1.3642    3.3824   -2.2562 O   0  0  0  0  0  0  0  0  0  0  0  0
    2.0689    3.9975   -1.9984 H   0  0  0  0  0  0  0  0  0  0  0  0
    1.0061    0.0200    0.6691 C   0  0  0  0  0  0  0  0  0  0  0  0
    2.1771   -0.2740    0.8685 O   0  0  0  0  0  0  0  0  0  0  0  0
    0.1967    0.3612    1.7384 N   0  0  0  0  0  0  0  0  0  0  0  0
   -0.7870    0.5097    1.5462 H   0  0  0  0  0  0  0  0  0  0  0  0
    0.6580    0.3374    3.1201 C   0  0  0  0  0  0  0  0  0  0  0  0
    1.5171    1.0048    3.2469 H   0  0  0  0  0  0  0  0  0  0  0  0
   -0.1387    0.6693    3.7924 H   0  0  0  0  0  0  0  0  0  0  0  0
    0.9550   -0.6772    3.4060 H   0  0  0  0  0  0  0  0  0  0  0  0
  1  2  1  0  0  0  0
  2  3  1  0  0  0  0
  2  4  1  0  0  0  0
  2  5  1  0  0  0  0
  5  6  2  0  0  0  0
  5  7  1  0  0  0  0
  7  8  1  0  0  0  0
  7  9  1  0  0  0  0
  9 10  1  0  0  0  0
  9 11  1  0  0  0  0
  9 18  1  0  0  0  0
 11 12  1  0  0  0  0
 11 13  1  0  0  0  0
 11 14  1  0  0  0  0
 14 15  2  0  0  0  0
 14 16  1  0  0  0  0
 16 17  1  0  0  0  0
 18 19  2  0  0  0  0
 18 20  1  0  0  0  0
 20 21  1  0  0  0  0
 20 22  1  0  0  0  0
 22 23  1  0  0  0  0
 22 24  1  0  0  0  0
 22 25  1  0  0  0  0
M  END
$$$$

  -OEChem-02102214113D

 25 24  0     1  0  0  0  0  0999 V2000
   -2.5204   -3.5859   -0.3355 H   0  0  0  0  0  0  0  0  0  0  0  0
   -2.5090   -2.5343   -0.6369 C   0  0  0  0  0  0  0  0  0  0  0  0
   -3.2120   -1.9814   -0.0093 H   0  0  0  0  0  0  0  0  0  0  0  0
   -2.8268   -2.4653   -1.6799 H   0  0  0  0  0  0  0  0  0  0  0  0
   -1.1125   -1.9624   -0.4802 C   0  0  0  0  0  0  0  0  0  0  0  0
   -0.2183   -2.6686   -0.0531 O   0  0  0  0  0  0  0  0  0  0  0  0
   -0.8661   -0.6517   -0.8457 N   0  0  0  0  0  0  0  0  0  0  0  0
   -1.6361   -0.1468   -1.2737 H   0  0  0  0  0  0  0  0  0  0  0  0
    0.4564    0.0039   -0.7816 C   0  0  1  0  0  0  0  0  0  0  0  0
    1.1838   -0.5518   -1.3855 H   0  0  0  0  0  0  0  0  0  0  0  0
    0.2230    1.3969   -1.4284 C   0  0  0  0  0  0  0  0  0  0  0  0
    0.0893    1.2494   -2.5036 H   0  0  0  0  0  0  0  0  0  0  0  0
   -0.7083    1.8123   -1.0349 H   0  0  0  0  0  0  0  0  0  0  0  0
    1.2688    2.5023   -1.2466 C   0  0  0  0  0  0  0  0  0  0  0  0
    2.1441    2.4359   -0.4073 O   0  0  0  0  0  0  0  0  0  0  0  0
    1.1310    3.5572   -2.0814 O   0  0  0  0  0  0  0  0  0  0  0  0
    1.8580    4.1606   -1.8602 H   0  0  0  0  0  0  0  0  0  0  0  0
    1.0191    0.0231    0.6639 C   0  0  0  0  0  0  0  0  0  0  0  0
    2.1786   -0.3025    0.8790 O   0  0  0  0  0  0  0  0  0  0  0  0
    0.2044    0.3769    1.7254 N   0  0  0  0  0  0  0  0  0  0  0  0
   -0.7789    0.5156    1.5241 H   0  0  0  0  0  0  0  0  0  0  0  0
    0.6429    0.3113    3.1136 C   0  0  0  0  0  0  0  0  0  0  0  0
    1.5271    0.9396    3.2650 H   0  0  0  0  0  0  0  0  0  0  0  0
   -0.1497    0.6658    3.7791 H   0  0  0  0  0  0  0  0  0  0  0  0
    0.8925   -0.7193    3.3874 H   0  0  0  0  0  0  0  0  0  0  0  0
  1  2  1  0  0  0  0
  2  3  1  0  0  0  0
  2  4  1  0  0  0  0
  2  5  1  0  0  0  0
  5  6  2  0  0  0  0
  5  7  1  0  0  0  0
  7  8  1  0  0  0  0
  7  9  1  0  0  0  0
  9 10  1  0  0  0  0
  9 11  1  0  0  0  0
  9 18  1  0  0  0  0
 11 12  1  0  0  0  0
 11 13  1  0  0  0  0
 11 14  1  0  0  0  0
 14 15  2  0  0  0  0
 14 16  1  0  0  0  0
 16 17  1  0  0  0  0
 18 19  2  0  0  0  0
 18 20  1  0  0  0  0
 20 21  1  0  0  0  0
 20 22  1  0  0  0  0
 22 23  1  0  0  0  0
 22 24  1  0  0  0  0
 22 25  1  0  0  0  0
M  END
$$$$

  -OEChem-02102214113D

 25 24  0     1  0  0  0  0  0999 V2000
   -2.5200   -3.5824   -0.3175 H   0  0  0  0  0  0  0  0  0  0  0  0
   -2.5069   -2.5343   -0.6299 C   0  0  0  0  0  0  0  0  0  0  0  0
   -3.2183   -1.9763   -0.0166 H   0  0  0  0  0  0  0  0  0  0  0  0
   -2.8126   -2.4771   -1.6773 H   0  0  0  0  0  0  0  0  0  0  0  0
   -1.1133   -1.9584   -0.4630 C   0  0  0  0  0  0  0  0  0  0  0  0
   -0.2242   -2.6578   -0.0151 O   0  0  0  0  0  0  0  0  0  0  0  0
   -0.8654   -0.6517   -0.8421 N   0  0  0  0  0  0  0  0  0  0  0  0
   -1.6294   -0.1584   -1.2939 H   0  0  0  0  0  0  0  0  0  0  0  0
    0.4591    0.0014   -0.7928 C   0  0  1  0  0  0  0  0  0  0  0  0
    1.1833   -0.5502   -1.4038 H   0  0  0  0  0  0  0  0  0  0  0  0
    0.2132    1.4004   -1.4201 C   0  0  0  0  0  0  0  0  0  0  0  0
    0.0586    1.2702   -2.4944 H   0  0  0  0  0  0  0  0  0  0  0  0
   -0.7092    1.8116   -1.0012 H   0  0  0  0  0  0  0  0  0  0  0  0
    1.2672    2.4971   -1.2402 C   0  0  0  0  0  0  0  0  0  0  0  0
    2.2949    2.3079   -0.6213 O   0  0  0  0  0  0  0  0  0  0  0  0
    0.9624    3.6828   -1.8149 O   0  0  0  0  0  0  0  0  0  0  0  0
    1.7149    4.2651   -1.6243 H   0  0  0  0  0  0  0  0  0  0  0  0
    1.0271    0.0300    0.6512 C   0  0  0  0  0  0  0  0  0  0  0  0
    2.1834   -0.3023    0.8720 O   0  0  0  0  0  0  0  0  0  0  0  0
    0.2133    0.3950    1.7098 N   0  0  0  0  0  0  0  0  0  0  0  0
   -0.7727    0.5115    1.5069 H   0  0  0  0  0  0  0  0  0  0  0  0
    0.6431    0.3103    3.0998 C   0  0  0  0  0  0  0  0  0  0  0  0
    1.5428    0.9139    3.2594 H   0  0  0  0  0  0  0  0  0  0  0  0
   -0.1431    0.6827    3.7632 H   0  0  0  0  0  0  0  0  0  0  0  0
    0.8640   -0.7282    3.3686 H   0  0  0  0  0  0  0  0  0  0  0  0
  1  2  1  0  0  0  0
  2  3  1  0  0  0  0
  2  4  1  0  0  0  0
  2  5  1  0  0  0  0
  5  6  2  0  0  0  0
  5  7  1  0  0  0  0
  7  8  1  0  0  0  0
  7  9  1  0  0  0  0
  9 10  1  0  0  0  0
  9 11  1  0  0  0  0
  9 18  1  0  0  0  0
 11 12  1  0  0  0  0
 11 13  1  0  0  0  0
 11 14  1  0  0  0  0
 14 15  2  0  0  0  0
 14 16  1  0  0  0  0
 16 17  1  0  0  0  0
 18 19  2  0  0  0  0
 18 20  1  0  0  0  0
 20 21  1  0  0  0  0
 20 22  1  0  0  0  0
 22 23  1  0  0  0  0
 22 24  1  0  0  0  0
 22 25  1  0  0  0  0
M  END
$$$$

  -OEChem-02102214113D

 25 24  0     1  0  0  0  0  0999 V2000
   -2.5125   -3.5941   -0.3042 H   0  0  0  0  0  0  0  0  0  0  0  0
   -2.5054   -2.5476   -0.6224 C   0  0  0  0  0  0  0  0  0  0  0  0
   -3.2200   -1.9901   -0.0126 H   0  0  0  0  0  0  0  0  0  0  0  0
   -2.8117   -2.4982   -1.6700 H   0  0  0  0  0  0  0  0  0  0  0  0
   -1.1149   -1.9631   -0.4584 C   0  0  0  0  0  0  0  0  0  0  0  0
   -0.2238   -2.6528    0.0006 O   0  0  0  0  0  0  0  0  0  0  0  0
   -0.8732   -0.6580   -0.8470 N   0  0  0  0  0  0  0  0  0  0  0  0
   -1.6360   -0.1768   -1.3136 H   0  0  0  0  0  0  0  0  0  0  0  0
    0.4496   -0.0007   -0.8094 C   0  0  1  0  0  0  0  0  0  0  0  0
    1.1726   -0.5443   -1.4292 H   0  0  0  0  0  0  0  0  0  0  0  0
    0.1946    1.4052   -1.4126 C   0  0  0  0  0  0  0  0  0  0  0  0
    0.0262    1.2986   -2.4871 H   0  0  0  0  0  0  0  0  0  0  0  0
   -0.7199    1.8124   -0.9723 H   0  0  0  0  0  0  0  0  0  0  0  0
    1.2662    2.4804   -1.2184 C   0  0  0  0  0  0  0  0  0  0  0  0
    2.3908    2.1940   -0.8586 O   0  0  0  0  0  0  0  0  0  0  0  0
    0.8739    3.7488   -1.4754 O   0  0  0  0  0  0  0  0  0  0  0  0
    1.6546    4.3002   -1.3078 H   0  0  0  0  0  0  0  0  0  0  0  0
    1.0254    0.0377    0.6316 C   0  0  0  0  0  0  0  0  0  0  0  0
    2.1881   -0.2705    0.8516 O   0  0  0  0  0  0  0  0  0  0  0  0
    0.2129    0.4068    1.6898 N   0  0  0  0  0  0  0  0  0  0  0  0
   -0.7767    0.4980    1.4906 H   0  0  0  0  0  0  0  0  0  0  0  0
    0.6472    0.3321    3.0791 C   0  0  0  0  0  0  0  0  0  0  0  0
    1.5427    0.9434    3.2335 H   0  0  0  0  0  0  0  0  0  0  0  0
   -0.1404    0.7015    3.7425 H   0  0  0  0  0  0  0  0  0  0  0  0
    0.8767   -0.7033    3.3526 H   0  0  0  0  0  0  0  0  0  0  0  0
  1  2  1  0  0  0  0
  2  3  1  0  0  0  0
  2  4  1  0  0  0  0
  2  5  1  0  0  0  0
  5  6  2  0  0  0  0
  5  7  1  0  0  0  0
  7  8  1  0  0  0  0
  7  9  1  0  0  0  0
  9 10  1  0  0  0  0
  9 11  1  0  0  0  0
  9 18  1  0  0  0  0
 11 12  1  0  0  0  0
 11 13  1  0  0  0  0
 11 14  1  0  0  0  0
 14 15  2  0  0  0  0
 14 16  1  0  0  0  0
 16 17  1  0  0  0  0
 18 19  2  0  0  0  0
 18 20  1  0  0  0  0
 20 21  1  0  0  0  0
 20 22  1  0  0  0  0
 22 23  1  0  0  0  0
 22 24  1  0  0  0  0
 22 25  1  0  0  0  0
M  END
$$$$

  -OEChem-02102214113D

 25 24  0     1  0  0  0  0  0999 V2000
   -2.5017   -3.6195   -0.3140 H   0  0  0  0  0  0  0  0  0  0  0  0
   -2.5043   -2.5743   -0.6371 C   0  0  0  0  0  0  0  0  0  0  0  0
   -3.2376   -2.0243   -0.0429 H   0  0  0  0  0  0  0  0  0  0  0  0
   -2.7924   -2.5340   -1.6902 H   0  0  0  0  0  0  0  0  0  0  0  0
   -1.1253   -1.9689   -0.4524 C   0  0  0  0  0  0  0  0  0  0  0  0
   -0.2333   -2.6422    0.0290 O   0  0  0  0  0  0  0  0  0  0  0  0
   -0.8944   -0.6637   -0.8469 N   0  0  0  0  0  0  0  0  0  0  0  0
   -1.6553   -0.1986   -1.3327 H   0  0  0  0  0  0  0  0  0  0  0  0
    0.4250    0.0007   -0.8196 C   0  0  1  0  0  0  0  0  0  0  0  0
    1.1457   -0.5382   -1.4465 H   0  0  0  0  0  0  0  0  0  0  0  0
    0.1674    1.4110   -1.4052 C   0  0  0  0  0  0  0  0  0  0  0  0
   -0.0071    1.3240   -2.4806 H   0  0  0  0  0  0  0  0  0  0  0  0
   -0.7407    1.8198   -0.9529 H   0  0  0  0  0  0  0  0  0  0  0  0
    1.2642    2.4543   -1.1903 C   0  0  0  0  0  0  0  0  0  0  0  0
    2.4283    2.1127   -1.1084 O   0  0  0  0  0  0  0  0  0  0  0  0
    0.8607    3.7422   -1.1024 O   0  0  0  0  0  0  0  0  0  0  0  0
    1.6696    4.2573   -0.9542 H   0  0  0  0  0  0  0  0  0  0  0  0
    1.0148    0.0494    0.6155 C   0  0  0  0  0  0  0  0  0  0  0  0
    2.1922   -0.2068    0.8215 O   0  0  0  0  0  0  0  0  0  0  0  0
    0.2100    0.4184    1.6794 N   0  0  0  0  0  0  0  0  0  0  0  0
   -0.7851    0.4755    1.4937 H   0  0  0  0  0  0  0  0  0  0  0  0
    0.6649    0.3715    3.0634 C   0  0  0  0  0  0  0  0  0  0  0  0
    1.5475    1.0055    3.1985 H   0  0  0  0  0  0  0  0  0  0  0  0
   -0.1221    0.7303    3.7334 H   0  0  0  0  0  0  0  0  0  0  0  0
    0.9226   -0.6547    3.3461 H   0  0  0  0  0  0  0  0  0  0  0  0
  1  2  1  0  0  0  0
  2  3  1  0  0  0  0
  2  4  1  0  0  0  0
  2  5  1  0  0  0  0
  5  6  2  0  0  0  0
  5  7  1  0  0  0  0
  7  8  1  0  0  0  0
  7  9  1  0  0  0  0
  9 10  1  0  0  0  0
  9 11  1  0  0  0  0
  9 18  1  0  0  0  0
 11 12  1  0  0  0  0
 11 13  1  0  0  0  0
 11 14  1  0  0  0  0
 14 15  2  0  0  0  0
 14 16  1  0  0  0  0
 16 17  1  0  0  0  0
 18 19  2  0  0  0  0
 18 20  1  0  0  0  0
 20 21  1  0  0  0  0
 20 22  1  0  0  0  0
 22 23  1  0  0  0  0
 22 24  1  0  0  0  0
 22 25  1  0  0  0  0
M  END
$$$$

  -OEChem-02102214113D

 25 24  0     1  0  0  0  0  0999 V2000
   -2.4880   -3.6455   -0.3297 H   0  0  0  0  0  0  0  0  0  0  0  0
   -2.5033   -2.5983   -0.6454 C   0  0  0  0  0  0  0  0  0  0  0  0
   -3.2379   -2.0599   -0.0418 H   0  0  0  0  0  0  0  0  0  0  0  0
   -2.7993   -2.5539   -1.6962 H   0  0  0  0  0  0  0  0  0  0  0  0
   -1.1295   -1.9800   -0.4651 C   0  0  0  0  0  0  0  0  0  0  0  0
   -0.2292   -2.6428    0.0157 O   0  0  0  0  0  0  0  0  0  0  0  0
   -0.9133   -0.6713   -0.8556 N   0  0  0  0  0  0  0  0  0  0  0  0
   -1.6778   -0.2136   -1.3431 H   0  0  0  0  0  0  0  0  0  0  0  0
    0.3998    0.0041   -0.8288 C   0  0  1  0  0  0  0  0  0  0  0  0
    1.1209   -0.5288   -1.4604 H   0  0  0  0  0  0  0  0  0  0  0  0
    0.1461    1.4177   -1.4012 C   0  0  0  0  0  0  0  0  0  0  0  0
   -0.0221    1.3484   -2.4788 H   0  0  0  0  0  0  0  0  0  0  0  0
   -0.7595    1.8305   -0.9478 H   0  0  0  0  0  0  0  0  0  0  0  0
    1.2668    2.4256   -1.1558 C   0  0  0  0  0  0  0  0  0  0  0  0
    2.4210    2.0896   -1.3454 O   0  0  0  0  0  0  0  0  0  0  0  0
    0.9082    3.6579   -0.7291 O   0  0  0  0  0  0  0  0  0  0  0  0
    1.7408    4.1392   -0.5991 H   0  0  0  0  0  0  0  0  0  0  0  0
    0.9990    0.0564    0.6018 C   0  0  0  0  0  0  0  0  0  0  0  0
    2.1930   -0.1249    0.7898 O   0  0  0  0  0  0  0  0  0  0  0  0
    0.1976    0.4154    1.6714 N   0  0  0  0  0  0  0  0  0  0  0  0
   -0.8013    0.4377    1.4992 H   0  0  0  0  0  0  0  0  0  0  0  0
    0.6738    0.4152    3.0491 C   0  0  0  0  0  0  0  0  0  0  0  0
    1.5280    1.0917    3.1595 H   0  0  0  0  0  0  0  0  0  0  0  0
   -0.1195    0.7494    3.7244 H   0  0  0  0  0  0  0  0  0  0  0  0
    0.9822   -0.5928    3.3461 H   0  0  0  0  0  0  0  0  0  0  0  0
  1  2  1  0  0  0  0
  2  3  1  0  0  0  0
  2  4  1  0  0  0  0
  2  5  1  0  0  0  0
  5  6  2  0  0  0  0
  5  7  1  0  0  0  0
  7  8  1  0  0  0  0
  7  9  1  0  0  0  0
  9 10  1  0  0  0  0
  9 11  1  0  0  0  0
  9 18  1  0  0  0  0
 11 12  1  0  0  0  0
 11 13  1  0  0  0  0
 11 14  1  0  0  0  0
 14 15  2  0  0  0  0
 14 16  1  0  0  0  0
 16 17  1  0  0  0  0
 18 19  2  0  0  0  0
 18 20  1  0  0  0  0
 20 21  1  0  0  0  0
 20 22  1  0  0  0  0
 22 23  1  0  0  0  0
 22 24  1  0  0  0  0
 22 25  1  0  0  0  0
M  END
$$$$

  -OEChem-02102214113D

 25 24  0     1  0  0  0  0  0999 V2000
   -2.4799   -3.6695   -0.3626 H   0  0  0  0  0  0  0  0  0  0  0  0
   -2.5054   -2.6194   -0.6680 C   0  0  0  0  0  0  0  0  0  0  0  0
   -3.2490   -2.0957   -0.0629 H   0  0  0  0  0  0  0  0  0  0  0  0
   -2.7967   -2.5672   -1.7199 H   0  0  0  0  0  0  0  0  0  0  0  0
   -1.1395   -1.9876   -0.4752 C   0  0  0  0  0  0  0  0  0  0  0  0
   -0.2360   -2.6412    0.0124 O   0  0  0  0  0  0  0  0  0  0  0  0
   -0.9335   -0.6752   -0.8578 N   0  0  0  0  0  0  0  0  0  0  0  0
   -1.7006   -0.2207   -1.3442 H   0  0  0  0  0  0  0  0  0  0  0  0
    0.3749    0.0081   -0.8278 C   0  0  1  0  0  0  0  0  0  0  0  0
    1.0956   -0.5234   -1.4614 H   0  0  0  0  0  0  0  0  0  0  0  0
    0.1301    1.4219   -1.3979 C   0  0  0  0  0  0  0  0  0  0  0  0
   -0.0260    1.3612   -2.4779 H   0  0  0  0  0  0  0  0  0  0  0  0
   -0.7751    1.8429   -0.9517 H   0  0  0  0  0  0  0  0  0  0  0  0
    1.2698    2.3985   -1.1255 C   0  0  0  0  0  0  0  0  0  0  0  0
    2.3762    2.1360   -1.5611 O   0  0  0  0  0  0  0  0  0  0  0  0
    0.9921    3.5049   -0.3986 O   0  0  0  0  0  0  0  0  0  0  0  0
    1.8412    3.9614   -0.2882 H   0  0  0  0  0  0  0  0  0  0  0  0
    0.9847    0.0610    0.5977 C   0  0  0  0  0  0  0  0  0  0  0  0
    2.1907   -0.0518    0.7625 O   0  0  0  0  0  0  0  0  0  0  0  0
    0.1904    0.4100    1.6755 N   0  0  0  0  0  0  0  0  0  0  0  0
   -0.8117    0.4009    1.5199 H   0  0  0  0  0  0  0  0  0  0  0  0
    0.6896    0.4573    3.0440 C   0  0  0  0  0  0  0  0  0  0  0  0
    1.5149    1.1722    3.1270 H   0  0  0  0  0  0  0  0  0  0  0  0
   -0.1062    0.7697    3.7268 H   0  0  0  0  0  0  0  0  0  0  0  0
    1.0471   -0.5302    3.3542 H   0  0  0  0  0  0  0  0  0  0  0  0
  1  2  1  0  0  0  0
  2  3  1  0  0  0  0
  2  4  1  0  0  0  0
  2  5  1  0  0  0  0
  5  6  2  0  0  0  0
  5  7  1  0  0  0  0
  7  8  1  0  0  0  0
  7  9  1  0  0  0  0
  9 10  1  0  0  0  0
  9 11  1  0  0  0  0
  9 18  1  0  0  0  0
 11 12  1  0  0  0  0
 11 13  1  0  0  0  0
 11 14  1  0  0  0  0
 14 15  2  0  0  0  0
 14 16  1  0  0  0  0
 16 17  1  0  0  0  0
 18 19  2  0  0  0  0
 18 20  1  0  0  0  0
 20 21  1  0  0  0  0
 20 22  1  0  0  0  0
 22 23  1  0  0  0  0
 22 24  1  0  0  0  0
 22 25  1  0  0  0  0
M  END
$$$$

  -OEChem-02102214113D

 25 24  0     1  0  0  0  0  0999 V2000
   -2.4868   -3.6777   -0.3759 H   0  0  0  0  0  0  0  0  0  0  0  0
   -2.5115   -2.6293   -0.6872 C   0  0  0  0  0  0  0  0  0  0  0  0
   -3.2580   -2.1024   -0.0881 H   0  0  0  0  0  0  0  0  0  0  0  0
   -2.7983   -2.5831   -1.7405 H   0  0  0  0  0  0  0  0  0  0  0  0
   -1.1468   -1.9954   -0.4922 C   0  0  0  0  0  0  0  0  0  0  0  0
   -0.2382   -2.6517   -0.0173 O   0  0  0  0  0  0  0  0  0  0  0  0
   -0.9460   -0.6782   -0.8603 N   0  0  0  0  0  0  0  0  0  0  0  0
   -1.7159   -0.2185   -1.3372 H   0  0  0  0  0  0  0  0  0  0  0  0
    0.3596    0.0083   -0.8209 C   0  0  1  0  0  0  0  0  0  0  0  0
    1.0796   -0.5224   -1.4555 H   0  0  0  0  0  0  0  0  0  0  0  0
    0.1270    1.4221   -1.3929 C   0  0  0  0  0  0  0  0  0  0  0  0
   -0.0176    1.3635   -2.4750 H   0  0  0  0  0  0  0  0  0  0  0  0
   -0.7786    1.8520   -0.9565 H   0  0  0  0  0  0  0  0  0  0  0  0
    1.2758    2.3801   -1.0989 C   0  0  0  0  0  0  0  0  0  0  0  0
    2.3047    2.2574   -1.7391 O   0  0  0  0  0  0  0  0  0  0  0  0
    1.0920    3.3165   -0.1401 O   0  0  0  0  0  0  0  0  0  0  0  0
    1.9440    3.7728   -0.0567 H   0  0  0  0  0  0  0  0  0  0  0  0
    0.9754    0.0525    0.6016 C   0  0  0  0  0  0  0  0  0  0  0  0
    2.1870   -0.0228    0.7492 O   0  0  0  0  0  0  0  0  0  0  0  0
    0.1870    0.3888    1.6873 N   0  0  0  0  0  0  0  0  0  0  0  0
   -0.8164    0.3855    1.5410 H   0  0  0  0  0  0  0  0  0  0  0  0
    0.7038    0.4832    3.0466 C   0  0  0  0  0  0  0  0  0  0  0  0
    1.5014    1.2315    3.1014 H   0  0  0  0  0  0  0  0  0  0  0  0
   -0.0933    0.7787    3.7354 H   0  0  0  0  0  0  0  0  0  0  0  0
    1.1041   -0.4832    3.3712 H   0  0  0  0  0  0  0  0  0  0  0  0
  1  2  1  0  0  0  0
  2  3  1  0  0  0  0
  2  4  1  0  0  0  0
  2  5  1  0  0  0  0
  5  6  2  0  0  0  0
  5  7  1  0  0  0  0
  7  8  1  0  0  0  0
  7  9  1  0  0  0  0
  9 10  1  0  0  0  0
  9 11  1  0  0  0  0
  9 18  1  0  0  0  0
 11 12  1  0  0  0  0
 11 13  1  0  0  0  0
 11 14  1  0  0  0  0
 14 15  2  0  0  0  0
 14 16  1  0  0  0  0
 16 17  1  0  0  0  0
 18 19  2  0  0  0  0
 18 20  1  0  0  0  0
 20 21  1  0  0  0  0
 20 22  1  0  0  0  0
 22 23  1  0  0  0  0
 22 24  1  0  0  0  0
 22 25  1  0  0  0  0
M  END
$$$$

  -OEChem-02102214113D

 25 24  0     1  0  0  0  0  0999 V2000
   -2.4924   -3.6827   -0.4026 H   0  0  0  0  0  0  0  0  0  0  0  0
   -2.5192   -2.6307   -0.7013 C   0  0  0  0  0  0  0  0  0  0  0  0
   -3.2679   -2.1129   -0.0973 H   0  0  0  0  0  0  0  0  0  0  0  0
   -2.8047   -2.5729   -1.7543 H   0  0  0  0  0  0  0  0  0  0  0  0
   -1.1559   -1.9963   -0.4974 C   0  0  0  0  0  0  0  0  0  0  0  0
   -0.2476   -2.6560   -0.0264 O   0  0  0  0  0  0  0  0  0  0  0  0
   -0.9535   -0.6762   -0.8547 N   0  0  0  0  0  0  0  0  0  0  0  0
   -1.7228   -0.2103   -1.3265 H   0  0  0  0  0  0  0  0  0  0  0  0
    0.3533    0.0073   -0.8072 C   0  0  1  0  0  0  0  0  0  0  0  0
    1.0708   -0.5309   -1.4385 H   0  0  0  0  0  0  0  0  0  0  0  0
    0.1379    1.4185   -1.3929 C   0  0  0  0  0  0  0  0  0  0  0  0
    0.0030    1.3511   -2.4760 H   0  0  0  0  0  0  0  0  0  0  0  0
   -0.7685    1.8591   -0.9691 H   0  0  0  0  0  0  0  0  0  0  0  0
    1.2895    2.3714   -1.0911 C   0  0  0  0  0  0  0  0  0  0  0  0
    2.2107    2.4264   -1.8867 O   0  0  0  0  0  0  0  0  0  0  0  0
    1.2057    3.1401    0.0195 O   0  0  0  0  0  0  0  0  0  0  0  0
    2.0453    3.6234    0.0672 H   0  0  0  0  0  0  0  0  0  0  0  0
    0.9721    0.0421    0.6135 C   0  0  0  0  0  0  0  0  0  0  0  0
    2.1855   -0.0320    0.7515 O   0  0  0  0  0  0  0  0  0  0  0  0
    0.1888    0.3719    1.7045 N   0  0  0  0  0  0  0  0  0  0  0  0
   -0.8147    0.3885    1.5603 H   0  0  0  0  0  0  0  0  0  0  0  0
    0.7140    0.4771    3.0595 C   0  0  0  0  0  0  0  0  0  0  0  0
    1.4985    1.2399    3.1075 H   0  0  0  0  0  0  0  0  0  0  0  0
   -0.0832    0.7587    3.7538 H   0  0  0  0  0  0  0  0  0  0  0  0
    1.1337   -0.4818    3.3817 H   0  0  0  0  0  0  0  0  0  0  0  0
  1  2  1  0  0  0  0
  2  3  1  0  0  0  0
  2  4  1  0  0  0  0
  2  5  1  0  0  0  0
  5  6  2  0  0  0  0
  5  7  1  0  0  0  0
  7  8  1  0  0  0  0
  7  9  1  0  0  0  0
  9 10  1  0  0  0  0
  9 11  1  0  0  0  0
  9 18  1  0  0  0  0
 11 12  1  0  0  0  0
 11 13  1  0  0  0  0
 11 14  1  0  0  0  0
 14 15  2  0  0  0  0
 14 16  1  0  0  0  0
 16 17  1  0  0  0  0
 18 19  2  0  0  0  0
 18 20  1  0  0  0  0
 20 21  1  0  0  0  0
 20 22  1  0  0  0  0
 22 23  1  0  0  0  0
 22 24  1  0  0  0  0
 22 25  1  0  0  0  0
M  END
$$$$

  -OEChem-02102214113D

 25 24  0     1  0  0  0  0  0999 V2000
   -2.5153   -3.6708   -0.4108 H   0  0  0  0  0  0  0  0  0  0  0  0
   -2.5317   -2.6181   -0.7076 C   0  0  0  0  0  0  0  0  0  0  0  0
   -3.2720   -2.0932   -0.0995 H   0  0  0  0  0  0  0  0  0  0  0  0
   -2.8207   -2.5551   -1.7594 H   0  0  0  0  0  0  0  0  0  0  0  0
   -1.1612   -1.9986   -0.5075 C   0  0  0  0  0  0  0  0  0  0  0  0
   -0.2551   -2.6712   -0.0507 O   0  0  0  0  0  0  0  0  0  0  0  0
   -0.9498   -0.6768   -0.8523 N   0  0  0  0  0  0  0  0  0  0  0  0
   -1.7204   -0.1956   -1.3065 H   0  0  0  0  0  0  0  0  0  0  0  0
    0.3600   -0.0008   -0.7916 C   0  0  1  0  0  0  0  0  0  0  0  0
    1.0758   -0.5491   -1.4160 H   0  0  0  0  0  0  0  0  0  0  0  0
    0.1628    1.4052   -1.3991 C   0  0  0  0  0  0  0  0  0  0  0  0
    0.0393    1.3188   -2.4823 H   0  0  0  0  0  0  0  0  0  0  0  0
   -0.7476    1.8537   -0.9934 H   0  0  0  0  0  0  0  0  0  0  0  0
    1.3063    2.3708   -1.0995 C   0  0  0  0  0  0  0  0  0  0  0  0
    2.0889    2.6224   -1.9991 O   0  0  0  0  0  0  0  0  0  0  0  0
    1.3231    2.9884    0.1048 O   0  0  0  0  0  0  0  0  0  0  0  0
    2.1318    3.5234    0.1171 H   0  0  0  0  0  0  0  0  0  0  0  0
    0.9752    0.0215    0.6300 C   0  0  0  0  0  0  0  0  0  0  0  0
    2.1877   -0.0730    0.7660 O   0  0  0  0  0  0  0  0  0  0  0  0
    0.1942    0.3472    1.7239 N   0  0  0  0  0  0  0  0  0  0  0  0
   -0.8080    0.3926    1.5777 H   0  0  0  0  0  0  0  0  0  0  0  0
    0.7222    0.4518    3.0775 C   0  0  0  0  0  0  0  0  0  0  0  0
    1.5040    1.2171    3.1249 H   0  0  0  0  0  0  0  0  0  0  0  0
   -0.0741    0.7290    3.7746 H   0  0  0  0  0  0  0  0  0  0  0  0
    1.1464   -0.5060    3.3970 H   0  0  0  0  0  0  0  0  0  0  0  0
  1  2  1  0  0  0  0
  2  3  1  0  0  0  0
  2  4  1  0  0  0  0
  2  5  1  0  0  0  0
  5  6  2  0  0  0  0
  5  7  1  0  0  0  0
  7  8  1  0  0  0  0
  7  9  1  0  0  0  0
  9 10  1  0  0  0  0
  9 11  1  0  0  0  0
  9 18  1  0  0  0  0
 11 12  1  0  0  0  0
 11 13  1  0  0  0  0
 11 14  1  0  0  0  0
 14 15  2  0  0  0  0
 14 16  1  0  0  0  0
 16 17  1  0  0  0  0
 18 19  2  0  0  0  0
 18 20  1  0  0  0  0
 20 21  1  0  0  0  0
 20 22  1  0  0  0  0
 22 23  1  0  0  0  0
 22 24  1  0  0  0  0
 22 25  1  0  0  0  0
M  END
$$$$

  -OEChem-02102214113D

 25 24  0     1  0  0  0  0  0999 V2000
   -2.5352   -3.6547   -0.4157 H   0  0  0  0  0  0  0  0  0  0  0  0
   -2.5430   -2.5995   -0.7039 C   0  0  0  0  0  0  0  0  0  0  0  0
   -3.2731   -2.0719   -0.0856 H   0  0  0  0  0  0  0  0  0  0  0  0
   -2.8399   -2.5249   -1.7528 H   0  0  0  0  0  0  0  0  0  0  0  0
   -1.1642   -1.9966   -0.5102 C   0  0  0  0  0  0  0  0  0  0  0  0
   -0.2613   -2.6836   -0.0689 O   0  0  0  0  0  0  0  0  0  0  0  0
   -0.9398   -0.6752   -0.8483 N   0  0  0  0  0  0  0  0  0  0  0  0
   -1.7104   -0.1788   -1.2855 H   0  0  0  0  0  0  0  0  0  0  0  0
    0.3756   -0.0103   -0.7788 C   0  0  1  0  0  0  0  0  0  0  0  0
    1.0897   -0.5701   -1.3947 H   0  0  0  0  0  0  0  0  0  0  0  0
    0.1938    1.3892   -1.4111 C   0  0  0  0  0  0  0  0  0  0  0  0
    0.0760    1.2789   -2.4932 H   0  0  0  0  0  0  0  0  0  0  0  0
   -0.7205    1.8435   -1.0206 H   0  0  0  0  0  0  0  0  0  0  0  0
    1.3247    2.3780   -1.1289 C   0  0  0  0  0  0  0  0  0  0  0  0
    1.9293    2.8235   -2.0889 O   0  0  0  0  0  0  0  0  0  0  0  0
    1.4722    2.8528    0.1295 O   0  0  0  0  0  0  0  0  0  0  0  0
    2.2317    3.4546    0.1026 H   0  0  0  0  0  0  0  0  0  0  0  0
    0.9830    0.0005    0.6459 C   0  0  0  0  0  0  0  0  0  0  0  0
    2.1912   -0.1349    0.7889 O   0  0  0  0  0  0  0  0  0  0  0  0
    0.2005    0.3277    1.7385 N   0  0  0  0  0  0  0  0  0  0  0  0
   -0.7978    0.4101    1.5838 H   0  0  0  0  0  0  0  0  0  0  0  0
    0.7212    0.4107    3.0965 C   0  0  0  0  0  0  0  0  0  0  0  0
    1.5172    1.1607    3.1556 H   0  0  0  0  0  0  0  0  0  0  0  0
   -0.0744    0.6973    3.7907 H   0  0  0  0  0  0  0  0  0  0  0  0
    1.1246   -0.5578    3.4105 H   0  0  0  0  0  0  0  0  0  0  0  0
  1  2  1  0  0  0  0
  2  3  1  0  0  0  0
  2  4  1  0  0  0  0
  2  5  1  0  0  0  0
  5  6  2  0  0  0  0
  5  7  1  0  0  0  0
  7  8  1  0  0  0  0
  7  9  1  0  0  0  0
  9 10  1  0  0  0  0
  9 11  1  0  0  0  0
  9 18  1  0  0  0  0
 11 12  1  0  0  0  0
 11 13  1  0  0  0  0
 11 14  1  0  0  0  0
 14 15  2  0  0  0  0
 14 16  1  0  0  0  0
 16 17  1  0  0  0  0
 18 19  2  0  0  0  0
 18 20  1  0  0  0  0
 20 21  1  0  0  0  0
 20 22  1  0  0  0  0
 22 23  1  0  0  0  0
 22 24  1  0  0  0  0
 22 25  1  0  0  0  0
M  END
$$$$

  -OEChem-02102214113D

 25 24  0     1  0  0  0  0  0999 V2000
   -2.5487   -3.6309   -0.4137 H   0  0  0  0  0  0  0  0  0  0  0  0
   -2.5477   -2.5707   -0.6832 C   0  0  0  0  0  0  0  0  0  0  0  0
   -3.2603   -2.0449   -0.0436 H   0  0  0  0  0  0  0  0  0  0  0  0
   -2.8609   -2.4736   -1.7255 H   0  0  0  0  0  0  0  0  0  0  0  0
   -1.1589   -1.9881   -0.5008 C   0  0  0  0  0  0  0  0  0  0  0  0
   -0.2642   -2.6862   -0.0603 O   0  0  0  0  0  0  0  0  0  0  0  0
   -0.9189   -0.6708   -0.8445 N   0  0  0  0  0  0  0  0  0  0  0  0
   -1.6852   -0.1656   -1.2792 H   0  0  0  0  0  0  0  0  0  0  0  0
    0.4020   -0.0169   -0.7710 C   0  0  1  0  0  0  0  0  0  0  0  0
    1.1166   -0.5890   -1.3752 H   0  0  0  0  0  0  0  0  0  0  0  0
    0.2252    1.3733   -1.4310 C   0  0  0  0  0  0  0  0  0  0  0  0
    0.1079    1.2339   -2.5099 H   0  0  0  0  0  0  0  0  0  0  0  0
   -0.6937    1.8279   -1.0522 H   0  0  0  0  0  0  0  0  0  0  0  0
    1.3341    2.3995   -1.1841 C   0  0  0  0  0  0  0  0  0  0  0  0
    1.7211    3.0244   -2.1566 O   0  0  0  0  0  0  0  0  0  0  0  0
    1.6687    2.7268    0.0840 O   0  0  0  0  0  0  0  0  0  0  0  0
    2.3633    3.3993    0.0182 H   0  0  0  0  0  0  0  0  0  0  0  0
    0.9938   -0.0078    0.6601 C   0  0  0  0  0  0  0  0  0  0  0  0
    2.1911   -0.2056    0.8222 O   0  0  0  0  0  0  0  0  0  0  0  0
    0.2041    0.3307    1.7445 N   0  0  0  0  0  0  0  0  0  0  0  0
   -0.7900    0.4355    1.5768 H   0  0  0  0  0  0  0  0  0  0  0  0
    0.7017    0.3496    3.1136 C   0  0  0  0  0  0  0  0  0  0  0  0
    1.5221    1.0683    3.2120 H   0  0  0  0  0  0  0  0  0  0  0  0
   -0.0964    0.6402    3.8032 H   0  0  0  0  0  0  0  0  0  0  0  0
    1.0657   -0.6425    3.4012 H   0  0  0  0  0  0  0  0  0  0  0  0
  1  2  1  0  0  0  0
  2  3  1  0  0  0  0
  2  4  1  0  0  0  0
  2  5  1  0  0  0  0
  5  6  2  0  0  0  0
  5  7  1  0  0  0  0
  7  8  1  0  0  0  0
  7  9  1  0  0  0  0
  9 10  1  0  0  0  0
  9 11  1  0  0  0  0
  9 18  1  0  0  0  0
 11 12  1  0  0  0  0
 11 13  1  0  0  0  0
 11 14  1  0  0  0  0
 14 15  2  0  0  0  0
 14 16  1  0  0  0  0
 16 17  1  0  0  0  0
 18 19  2  0  0  0  0
 18 20  1  0  0  0  0
 20 21  1  0  0  0  0
 20 22  1  0  0  0  0
 22 23  1  0  0  0  0
 22 24  1  0  0  0  0
 22 25  1  0  0  0  0
M  END
$$$$

  -OEChem-02102214113D

 25 24  0     1  0  0  0  0  0999 V2000
   -2.5666   -3.6006   -0.3816 H   0  0  0  0  0  0  0  0  0  0  0  0
   -2.5495   -2.5448   -0.6670 C   0  0  0  0  0  0  0  0  0  0  0  0
   -3.2571   -1.9992   -0.0384 H   0  0  0  0  0  0  0  0  0  0  0  0
   -2.8570   -2.4589   -1.7119 H   0  0  0  0  0  0  0  0  0  0  0  0
   -1.1530   -1.9793   -0.4874 C   0  0  0  0  0  0  0  0  0  0  0  0
   -0.2678   -2.6874   -0.0441 O   0  0  0  0  0  0  0  0  0  0  0  0
   -0.8963   -0.6676   -0.8405 N   0  0  0  0  0  0  0  0  0  0  0  0
   -1.6554   -0.1591   -1.2837 H   0  0  0  0  0  0  0  0  0  0  0  0
    0.4308   -0.0246   -0.7673 C   0  0  1  0  0  0  0  0  0  0  0  0
    1.1472   -0.6005   -1.3655 H   0  0  0  0  0  0  0  0  0  0  0  0
    0.2421    1.3618   -1.4385 C   0  0  0  0  0  0  0  0  0  0  0  0
    0.1189    1.2033   -2.5141 H   0  0  0  0  0  0  0  0  0  0  0  0
   -0.6816    1.8065   -1.0593 H   0  0  0  0  0  0  0  0  0  0  0  0
    1.3228    2.4290   -1.2327 C   0  0  0  0  0  0  0  0  0  0  0  0
    1.4624    3.2205   -2.1493 O   0  0  0  0  0  0  0  0  0  0  0  0
    1.9275    2.5790   -0.0352 O   0  0  0  0  0  0  0  0  0  0  0  0
    2.5464    3.3186   -0.1272 H   0  0  0  0  0  0  0  0  0  0  0  0
    1.0067   -0.0144    0.6711 C   0  0  0  0  0  0  0  0  0  0  0  0
    2.1857   -0.2858    0.8577 O   0  0  0  0  0  0  0  0  0  0  0  0
    0.2089    0.3387    1.7450 N   0  0  0  0  0  0  0  0  0  0  0  0
   -0.7799    0.4637    1.5614 H   0  0  0  0  0  0  0  0  0  0  0  0
    0.6778    0.3046    3.1241 C   0  0  0  0  0  0  0  0  0  0  0  0
    1.5367    0.9719    3.2521 H   0  0  0  0  0  0  0  0  0  0  0  0
   -0.1160    0.6302    3.8029 H   0  0  0  0  0  0  0  0  0  0  0  0
    0.9774   -0.7120    3.4006 H   0  0  0  0  0  0  0  0  0  0  0  0
  1  2  1  0  0  0  0
  2  3  1  0  0  0  0
  2  4  1  0  0  0  0
  2  5  1  0  0  0  0
  5  6  2  0  0  0  0
  5  7  1  0  0  0  0
  7  8  1  0  0  0  0
  7  9  1  0  0  0  0
  9 10  1  0  0  0  0
  9 11  1  0  0  0  0
  9 18  1  0  0  0  0
 11 12  1  0  0  0  0
 11 13  1  0  0  0  0
 11 14  1  0  0  0  0
 14 15  2  0  0  0  0
 14 16  1  0  0  0  0
 16 17  1  0  0  0  0
 18 19  2  0  0  0  0
 18 20  1  0  0  0  0
 20 21  1  0  0  0  0
 20 22  1  0  0  0  0
 22 23  1  0  0  0  0
 22 24  1  0  0  0  0
 22 25  1  0  0  0  0
M  END
$$$$

  -OEChem-02102214113D

 25 24  0     1  0  0  0  0  0999 V2000
   -2.5628   -3.5812   -0.3321 H   0  0  0  0  0  0  0  0  0  0  0  0
   -2.5381   -2.5327   -0.6427 C   0  0  0  0  0  0  0  0  0  0  0  0
   -3.2482   -1.9688   -0.0331 H   0  0  0  0  0  0  0  0  0  0  0  0
   -2.8367   -2.4709   -1.6919 H   0  0  0  0  0  0  0  0  0  0  0  0
   -1.1400   -1.9705   -0.4659 C   0  0  0  0  0  0  0  0  0  0  0  0
   -0.2604   -2.6779   -0.0112 O   0  0  0  0  0  0  0  0  0  0  0  0
   -0.8768   -0.6646   -0.8370 N   0  0  0  0  0  0  0  0  0  0  0  0
   -1.6315   -0.1625   -1.2950 H   0  0  0  0  0  0  0  0  0  0  0  0
    0.4538   -0.0254   -0.7750 C   0  0  1  0  0  0  0  0  0  0  0  0
    1.1734   -0.5928   -1.3772 H   0  0  0  0  0  0  0  0  0  0  0  0
    0.2364    1.3671   -1.4264 C   0  0  0  0  0  0  0  0  0  0  0  0
    0.0941    1.2163   -2.5006 H   0  0  0  0  0  0  0  0  0  0  0  0
   -0.6862    1.7933   -1.0233 H   0  0  0  0  0  0  0  0  0  0  0  0
    1.2980    2.4586   -1.2464 C   0  0  0  0  0  0  0  0  0  0  0  0
    1.2007    3.4062   -2.0070 O   0  0  0  0  0  0  0  0  0  0  0  0
    2.2359    2.3856   -0.2806 O   0  0  0  0  0  0  0  0  0  0  0  0
    2.7931    3.1728   -0.3686 H   0  0  0  0  0  0  0  0  0  0  0  0
    1.0164   -0.0070    0.6700 C   0  0  0  0  0  0  0  0  0  0  0  0
    2.1753   -0.3367    0.8859 O   0  0  0  0  0  0  0  0  0  0  0  0
    0.2054    0.3614    1.7293 N   0  0  0  0  0  0  0  0  0  0  0  0
   -0.7797    0.4877    1.5272 H   0  0  0  0  0  0  0  0  0  0  0  0
    0.6380    0.2794    3.1183 C   0  0  0  0  0  0  0  0  0  0  0  0
    1.5385    0.8829    3.2743 H   0  0  0  0  0  0  0  0  0  0  0  0
   -0.1465    0.6532    3.7830 H   0  0  0  0  0  0  0  0  0  0  0  0
    0.8589   -0.7586    3.3888 H   0  0  0  0  0  0  0  0  0  0  0  0
  1  2  1  0  0  0  0
  2  3  1  0  0  0  0
  2  4  1  0  0  0  0
  2  5  1  0  0  0  0
  5  6  2  0  0  0  0
  5  7  1  0  0  0  0
  7  8  1  0  0  0  0
  7  9  1  0  0  0  0
  9 10  1  0  0  0  0
  9 11  1  0  0  0  0
  9 18  1  0  0  0  0
 11 12  1  0  0  0  0
 11 13  1  0  0  0  0
 11 14  1  0  0  0  0
 14 15  2  0  0  0  0
 14 16  1  0  0  0  0
 16 17  1  0  0  0  0
 18 19  2  0  0  0  0
 18 20  1  0  0  0  0
 20 21  1  0  0  0  0
 20 22  1  0  0  0  0
 22 23  1  0  0  0  0
 22 24  1  0  0  0  0
 22 25  1  0  0  0  0
M  END
$$$$
