default_name
  -OEChem-02102213163D

 25 24  0     1  0  0  0  0  0999 V2000
   -2.7826   -3.8464    0.7821 H   0  0  0  0  0  0  0  0  0  0  0  0
   -2.8156   -2.8034    0.4711 C   0  0  0  0  0  0  0  0  0  0  0  0
   -3.4336   -2.2354    1.1641 H   0  0  0  0  0  0  0  0  0  0  0  0
   -3.2256   -2.7344   -0.5349 H   0  0  0  0  0  0  0  0  0  0  0  0
   -1.4126   -2.2444    0.4801 C   0  0  0  0  0  0  0  0  0  0  0  0
   -0.4686   -2.9534    0.8001 O   0  0  0  0  0  0  0  0  0  0  0  0
   -1.2736   -0.9704    0.1241 N   0  0  0  0  0  0  0  0  0  0  0  0
   -2.0996   -0.4354   -0.1019 H   0  0  0  0  0  0  0  0  0  0  0  0
   -0.0016   -0.2394    0.1271 C   0  0  1  0  0  0  0  0  0  0  0  0
    0.6995   -0.7619   -0.5275 H   0  0  0  0  0  0  0  0  0  0  0  0
   -0.2283    1.1832   -0.4215 C   0  0  0  0  0  0  0  0  0  0  0  0
   -0.6018    1.1225   -1.4445 H   0  0  0  0  0  0  0  0  0  0  0  0
   -0.9812    1.6932    0.1804 H   0  0  0  0  0  0  0  0  0  0  0  0
    1.0413    2.0285   -0.4594 C   0  0  0  0  0  0  0  0  0  0  0  0
    1.1156    3.1853   -0.8524 O   0  0  0  0  0  0  0  0  0  0  0  0
    2.1493    1.4029   -0.0203 O   0  0  0  0  0  0  0  0  0  0  0  0
    2.8556    2.0470   -0.0802 H   0  0  0  0  0  0  0  0  0  0  0  0
    0.5920   -0.2154    1.5497 C   0  0  0  0  0  0  0  0  0  0  0  0
    1.7860   -0.4596    1.7183 O   0  0  0  0  0  0  0  0  0  0  0  0
   -0.2294    0.0669    2.5672 N   0  0  0  0  0  0  0  0  0  0  0  0
   -1.2130    0.1938    2.3518 H   0  0  0  0  0  0  0  0  0  0  0  0
    0.1836    0.1337    3.9673 C   0  0  0  0  0  0  0  0  0  0  0  0
    1.0451    0.7976    4.0666 H   0  0  0  0  0  0  0  0  0  0  0  0
   -0.6344    0.5115    4.5820 H   0  0  0  0  0  0  0  0  0  0  0  0
    0.4676   -0.8609    4.3157 H   0  0  0  0  0  0  0  0  0  0  0  0
  5  6  2  0  0  0  0
  5  7  1  0  0  0  0
  2  3  1  0  0  0  0
  2  4  1  0  0  0  0
  2  5  1  0  0  0  0
  1  2  1  0  0  0  0
 18 19  2  0  0  0  0
 18 20  1  0  0  0  0
 16 17  1  0  0  0  0
 14 15  2  0  0  0  0
 14 16  1  0  0  0  0
 11 12  1  0  0  0  0
 11 13  1  0  0  0  0
 11 14  1  0  0  0  0
  9 10  1  0  0  0  0
  9 11  1  0  0  0  0
  9 18  1  0  0  0  0
  7  8  1  0  0  0  0
  7  9  1  0  0  0  0
 22 23  1  0  0  0  0
 22 24  1  0  0  0  0
 22 25  1  0  0  0  0
 20 21  1  0  0  0  0
 20 22  1  0  0  0  0
M  END
$$$$
default_name
  -OEChem-02102213163D

 25 24  0     1  0  0  0  0  0999 V2000
   -2.7826   -3.8464    0.7821 H   0  0  0  0  0  0  0  0  0  0  0  0
   -2.8156   -2.8034    0.4711 C   0  0  0  0  0  0  0  0  0  0  0  0
   -3.4336   -2.2354    1.1641 H   0  0  0  0  0  0  0  0  0  0  0  0
   -3.2256   -2.7344   -0.5349 H   0  0  0  0  0  0  0  0  0  0  0  0
   -1.4126   -2.2444    0.4801 C   0  0  0  0  0  0  0  0  0  0  0  0
   -0.4686   -2.9534    0.8001 O   0  0  0  0  0  0  0  0  0  0  0  0
   -1.2736   -0.9704    0.1241 N   0  0  0  0  0  0  0  0  0  0  0  0
   -2.0996   -0.4354   -0.1019 H   0  0  0  0  0  0  0  0  0  0  0  0
   -0.0016   -0.2394    0.1271 C   0  0  1  0  0  0  0  0  0  0  0  0
    0.6995   -0.7619   -0.5275 H   0  0  0  0  0  0  0  0  0  0  0  0
   -0.2283    1.1832   -0.4215 C   0  0  0  0  0  0  0  0  0  0  0  0
   -0.6018    1.1225   -1.4445 H   0  0  0  0  0  0  0  0  0  0  0  0
   -0.9812    1.6932    0.1804 H   0  0  0  0  0  0  0  0  0  0  0  0
    1.0413    2.0285   -0.4594 C   0  0  0  0  0  0  0  0  0  0  0  0
    1.0843    3.2435   -0.6011 O   0  0  0  0  0  0  0  0  0  0  0  0
    2.1865    1.3332   -0.3294 O   0  0  0  0  0  0  0  0  0  0  0  0
    2.8911    1.9816   -0.3505 H   0  0  0  0  0  0  0  0  0  0  0  0
    0.5920   -0.2154    1.5497 C   0  0  0  0  0  0  0  0  0  0  0  0
    1.7860   -0.4596    1.7183 O   0  0  0  0  0  0  0  0  0  0  0  0
   -0.2294    0.0669    2.5672 N   0  0  0  0  0  0  0  0  0  0  0  0
   -1.2130    0.1938    2.3518 H   0  0  0  0  0  0  0  0  0  0  0  0
    0.1836    0.1337    3.9673 C   0  0  0  0  0  0  0  0  0  0  0  0
    1.0451    0.7976    4.0666 H   0  0  0  0  0  0  0  0  0  0  0  0
   -0.6344    0.5115    4.5820 H   0  0  0  0  0  0  0  0  0  0  0  0
    0.4676   -0.8609    4.3157 H   0  0  0  0  0  0  0  0  0  0  0  0
  5  6  2  0  0  0  0
  5  7  1  0  0  0  0
  2  3  1  0  0  0  0
  2  4  1  0  0  0  0
  2  5  1  0  0  0  0
  1  2  1  0  0  0  0
 18 19  2  0  0  0  0
 18 20  1  0  0  0  0
 16 17  1  0  0  0  0
 14 15  2  0  0  0  0
 14 16  1  0  0  0  0
 11 12  1  0  0  0  0
 11 13  1  0  0  0  0
 11 14  1  0  0  0  0
  9 10  1  0  0  0  0
  9 11  1  0  0  0  0
  9 18  1  0  0  0  0
  7  8  1  0  0  0  0
  7  9  1  0  0  0  0
 22 23  1  0  0  0  0
 22 24  1  0  0  0  0
 22 25  1  0  0  0  0
 20 21  1  0  0  0  0
 20 22  1  0  0  0  0
M  END
$$$$
default_name
  -OEChem-02102213163D

 25 24  0     1  0  0  0  0  0999 V2000
   -2.7826   -3.8464    0.7821 H   0  0  0  0  0  0  0  0  0  0  0  0
   -2.8156   -2.8034    0.4711 C   0  0  0  0  0  0  0  0  0  0  0  0
   -3.4336   -2.2354    1.1641 H   0  0  0  0  0  0  0  0  0  0  0  0
   -3.2256   -2.7344   -0.5349 H   0  0  0  0  0  0  0  0  0  0  0  0
   -1.4126   -2.2444    0.4801 C   0  0  0  0  0  0  0  0  0  0  0  0
   -0.4686   -2.9534    0.8001 O   0  0  0  0  0  0  0  0  0  0  0  0
   -1.2736   -0.9704    0.1241 N   0  0  0  0  0  0  0  0  0  0  0  0
   -2.0996   -0.4354   -0.1019 H   0  0  0  0  0  0  0  0  0  0  0  0
   -0.0016   -0.2394    0.1271 C   0  0  1  0  0  0  0  0  0  0  0  0
    0.6995   -0.7619   -0.5275 H   0  0  0  0  0  0  0  0  0  0  0  0
   -0.2283    1.1832   -0.4215 C   0  0  0  0  0  0  0  0  0  0  0  0
   -0.6018    1.1225   -1.4445 H   0  0  0  0  0  0  0  0  0  0  0  0
   -0.9812    1.6932    0.1804 H   0  0  0  0  0  0  0  0  0  0  0  0
    1.0413    2.0285   -0.4594 C   0  0  0  0  0  0  0  0  0  0  0  0
    1.0905    3.2458   -0.3414 O   0  0  0  0  0  0  0  0  0  0  0  0
    2.1777    1.3322   -0.6483 O   0  0  0  0  0  0  0  0  0  0  0  0
    2.8862    1.9764   -0.6309 H   0  0  0  0  0  0  0  0  0  0  0  0
    0.5920   -0.2154    1.5497 C   0  0  0  0  0  0  0  0  0  0  0  0
    1.7860   -0.4596    1.7183 O   0  0  0  0  0  0  0  0  0  0  0  0
   -0.2294    0.0669    2.5672 N   0  0  0  0  0  0  0  0  0  0  0  0
   -1.2130    0.1938    2.3518 H   0  0  0  0  0  0  0  0  0  0  0  0
    0.1836    0.1337    3.9673 C   0  0  0  0  0  0  0  0  0  0  0  0
    1.0451    0.7976    4.0666 H   0  0  0  0  0  0  0  0  0  0  0  0
   -0.6344    0.5115    4.5820 H   0  0  0  0  0  0  0  0  0  0  0  0
    0.4676   -0.8609    4.3157 H   0  0  0  0  0  0  0  0  0  0  0  0
  5  6  2  0  0  0  0
  5  7  1  0  0  0  0
  2  3  1  0  0  0  0
  2  4  1  0  0  0  0
  2  5  1  0  0  0  0
  1  2  1  0  0  0  0
 18 19  2  0  0  0  0
 18 20  1  0  0  0  0
 16 17  1  0  0  0  0
 14 15  2  0  0  0  0
 14 16  1  0  0  0  0
 11 12  1  0  0  0  0
 11 13  1  0  0  0  0
 11 14  1  0  0  0  0
  9 10  1  0  0  0  0
  9 11  1  0  0  0  0
  9 18  1  0  0  0  0
  7  8  1  0  0  0  0
  7  9  1  0  0  0  0
 22 23  1  0  0  0  0
 22 24  1  0  0  0  0
 22 25  1  0  0  0  0
 20 21  1  0  0  0  0
 20 22  1  0  0  0  0
M  END
$$$$
default_name
  -OEChem-02102213163D

 25 24  0     1  0  0  0  0  0999 V2000
   -2.7826   -3.8464    0.7821 H   0  0  0  0  0  0  0  0  0  0  0  0
   -2.8156   -2.8034    0.4711 C   0  0  0  0  0  0  0  0  0  0  0  0
   -3.4336   -2.2354    1.1641 H   0  0  0  0  0  0  0  0  0  0  0  0
   -3.2256   -2.7344   -0.5349 H   0  0  0  0  0  0  0  0  0  0  0  0
   -1.4126   -2.2444    0.4801 C   0  0  0  0  0  0  0  0  0  0  0  0
   -0.4686   -2.9534    0.8001 O   0  0  0  0  0  0  0  0  0  0  0  0
   -1.2736   -0.9704    0.1241 N   0  0  0  0  0  0  0  0  0  0  0  0
   -2.0996   -0.4354   -0.1019 H   0  0  0  0  0  0  0  0  0  0  0  0
   -0.0016   -0.2394    0.1271 C   0  0  1  0  0  0  0  0  0  0  0  0
    0.6995   -0.7619   -0.5275 H   0  0  0  0  0  0  0  0  0  0  0  0
   -0.2283    1.1832   -0.4215 C   0  0  0  0  0  0  0  0  0  0  0  0
   -0.6018    1.1225   -1.4445 H   0  0  0  0  0  0  0  0  0  0  0  0
   -0.9812    1.6932    0.1804 H   0  0  0  0  0  0  0  0  0  0  0  0
    1.0413    2.0285   -0.4594 C   0  0  0  0  0  0  0  0  0  0  0  0
    1.1338    3.1921   -0.0909 O   0  0  0  0  0  0  0  0  0  0  0  0
    2.1234    1.4000   -0.9552 O   0  0  0  0  0  0  0  0  0  0  0  0
    2.8412    2.0318   -0.9021 H   0  0  0  0  0  0  0  0  0  0  0  0
    0.5920   -0.2154    1.5497 C   0  0  0  0  0  0  0  0  0  0  0  0
    1.7860   -0.4596    1.7183 O   0  0  0  0  0  0  0  0  0  0  0  0
   -0.2294    0.0669    2.5672 N   0  0  0  0  0  0  0  0  0  0  0  0
   -1.2130    0.1938    2.3518 H   0  0  0  0  0  0  0  0  0  0  0  0
    0.1836    0.1337    3.9673 C   0  0  0  0  0  0  0  0  0  0  0  0
    1.0451    0.7976    4.0666 H   0  0  0  0  0  0  0  0  0  0  0  0
   -0.6344    0.5115    4.5820 H   0  0  0  0  0  0  0  0  0  0  0  0
    0.4676   -0.8609    4.3157 H   0  0  0  0  0  0  0  0  0  0  0  0
  5  6  2  0  0  0  0
  5  7  1  0  0  0  0
  2  3  1  0  0  0  0
  2  4  1  0  0  0  0
  2  5  1  0  0  0  0
  1  2  1  0  0  0  0
 18 19  2  0  0  0  0
 18 20  1  0  0  0  0
 16 17  1  0  0  0  0
 14 15  2  0  0  0  0
 14 16  1  0  0  0  0
 11 12  1  0  0  0  0
 11 13  1  0  0  0  0
 11 14  1  0  0  0  0
  9 10  1  0  0  0  0
  9 11  1  0  0  0  0
  9 18  1  0  0  0  0
  7  8  1  0  0  0  0
  7  9  1  0  0  0  0
 22 23  1  0  0  0  0
 22 24  1  0  0  0  0
 22 25  1  0  0  0  0
 20 21  1  0  0  0  0
 20 22  1  0  0  0  0
M  END
$$$$
default_name
  -OEChem-02102213163D

 25 24  0     1  0  0  0  0  0999 V2000
   -2.7826   -3.8464    0.7821 H   0  0  0  0  0  0  0  0  0  0  0  0
   -2.8156   -2.8034    0.4711 C   0  0  0  0  0  0  0  0  0  0  0  0
   -3.4336   -2.2354    1.1641 H   0  0  0  0  0  0  0  0  0  0  0  0
   -3.2256   -2.7344   -0.5349 H   0  0  0  0  0  0  0  0  0  0  0  0
   -1.4126   -2.2444    0.4801 C   0  0  0  0  0  0  0  0  0  0  0  0
   -0.4686   -2.9534    0.8001 O   0  0  0  0  0  0  0  0  0  0  0  0
   -1.2736   -0.9704    0.1241 N   0  0  0  0  0  0  0  0  0  0  0  0
   -2.0996   -0.4354   -0.1019 H   0  0  0  0  0  0  0  0  0  0  0  0
   -0.0016   -0.2394    0.1271 C   0  0  1  0  0  0  0  0  0  0  0  0
    0.6995   -0.7619   -0.5275 H   0  0  0  0  0  0  0  0  0  0  0  0
   -0.2283    1.1832   -0.4215 C   0  0  0  0  0  0  0  0  0  0  0  0
   -0.6018    1.1225   -1.4445 H   0  0  0  0  0  0  0  0  0  0  0  0
   -0.9812    1.6932    0.1804 H   0  0  0  0  0  0  0  0  0  0  0  0
    1.0413    2.0285   -0.4594 C   0  0  0  0  0  0  0  0  0  0  0  0
    1.2112    3.0859    0.1333 O   0  0  0  0  0  0  0  0  0  0  0  0
    2.0274    1.5319   -1.2294 O   0  0  0  0  0  0  0  0  0  0  0  0
    2.7592    2.1440   -1.1457 H   0  0  0  0  0  0  0  0  0  0  0  0
    0.5920   -0.2154    1.5497 C   0  0  0  0  0  0  0  0  0  0  0  0
    1.7860   -0.4596    1.7183 O   0  0  0  0  0  0  0  0  0  0  0  0
   -0.2294    0.0669    2.5672 N   0  0  0  0  0  0  0  0  0  0  0  0
   -1.2130    0.1938    2.3518 H   0  0  0  0  0  0  0  0  0  0  0  0
    0.1836    0.1337    3.9673 C   0  0  0  0  0  0  0  0  0  0  0  0
    1.0451    0.7976    4.0666 H   0  0  0  0  0  0  0  0  0  0  0  0
   -0.6344    0.5115    4.5820 H   0  0  0  0  0  0  0  0  0  0  0  0
    0.4676   -0.8609    4.3157 H   0  0  0  0  0  0  0  0  0  0  0  0
  5  6  2  0  0  0  0
  5  7  1  0  0  0  0
  2  3  1  0  0  0  0
  2  4  1  0  0  0  0
  2  5  1  0  0  0  0
  1  2  1  0  0  0  0
 18 19  2  0  0  0  0
 18 20  1  0  0  0  0
 16 17  1  0  0  0  0
 14 15  2  0  0  0  0
 14 16  1  0  0  0  0
 11 12  1  0  0  0  0
 11 13  1  0  0  0  0
 11 14  1  0  0  0  0
  9 10  1  0  0  0  0
  9 11  1  0  0  0  0
  9 18  1  0  0  0  0
  7  8  1  0  0  0  0
  7  9  1  0  0  0  0
 22 23  1  0  0  0  0
 22 24  1  0  0  0  0
 22 25  1  0  0  0  0
 20 21  1  0  0  0  0
 20 22  1  0  0  0  0
M  END
$$$$
default_name
  -OEChem-02102213163D

 25 24  0     1  0  0  0  0  0999 V2000
   -2.7826   -3.8464    0.7821 H   0  0  0  0  0  0  0  0  0  0  0  0
   -2.8156   -2.8034    0.4711 C   0  0  0  0  0  0  0  0  0  0  0  0
   -3.4336   -2.2354    1.1641 H   0  0  0  0  0  0  0  0  0  0  0  0
   -3.2256   -2.7344   -0.5349 H   0  0  0  0  0  0  0  0  0  0  0  0
   -1.4126   -2.2444    0.4801 C   0  0  0  0  0  0  0  0  0  0  0  0
   -0.4686   -2.9534    0.8001 O   0  0  0  0  0  0  0  0  0  0  0  0
   -1.2736   -0.9704    0.1241 N   0  0  0  0  0  0  0  0  0  0  0  0
   -2.0996   -0.4354   -0.1019 H   0  0  0  0  0  0  0  0  0  0  0  0
   -0.0016   -0.2394    0.1271 C   0  0  1  0  0  0  0  0  0  0  0  0
    0.6995   -0.7619   -0.5275 H   0  0  0  0  0  0  0  0  0  0  0  0
   -0.2283    1.1832   -0.4215 C   0  0  0  0  0  0  0  0  0  0  0  0
   -0.6018    1.1225   -1.4445 H   0  0  0  0  0  0  0  0  0  0  0  0
   -0.9812    1.6932    0.1804 H   0  0  0  0  0  0  0  0  0  0  0  0
    1.0413    2.0285   -0.4594 C   0  0  0  0  0  0  0  0  0  0  0  0
    1.3173    2.9346    0.3158 O   0  0  0  0  0  0  0  0  0  0  0  0
    1.8962    1.7190   -1.4520 O   0  0  0  0  0  0  0  0  0  0  0  0
    2.6459    2.3053   -1.3451 H   0  0  0  0  0  0  0  0  0  0  0  0
    0.5920   -0.2154    1.5497 C   0  0  0  0  0  0  0  0  0  0  0  0
    1.7860   -0.4596    1.7183 O   0  0  0  0  0  0  0  0  0  0  0  0
   -0.2294    0.0669    2.5672 N   0  0  0  0  0  0  0  0  0  0  0  0
   -1.2130    0.1938    2.3518 H   0  0  0  0  0  0  0  0  0  0  0  0
    0.1836    0.1337    3.9673 C   0  0  0  0  0  0  0  0  0  0  0  0
    1.0451    0.7976    4.0666 H   0  0  0  0  0  0  0  0  0  0  0  0
   -0.6344    0.5115    4.5820 H   0  0  0  0  0  0  0  0  0  0  0  0
    0.4676   -0.8609    4.3157 H   0  0  0  0  0  0  0  0  0  0  0  0
  5  6  2  0  0  0  0
  5  7  1  0  0  0  0
  2  3  1  0  0  0  0
  2  4  1  0  0  0  0
  2  5  1  0  0  0  0
  1  2  1  0  0  0  0
 18 19  2  0  0  0  0
 18 20  1  0  0  0  0
 16 17  1  0  0  0  0
 14 15  2  0  0  0  0
 14 16  1  0  0  0  0
 11 12  1  0  0  0  0
 11 13  1  0  0  0  0
 11 14  1  0  0  0  0
  9 10  1  0  0  0  0
  9 11  1  0  0  0  0
  9 18  1  0  0  0  0
  7  8  1  0  0  0  0
  7  9  1  0  0  0  0
 22 23  1  0  0  0  0
 22 24  1  0  0  0  0
 22 25  1  0  0  0  0
 20 21  1  0  0  0  0
 20 22  1  0  0  0  0
M  END
$$$$
default_name
  -OEChem-02102213163D

 25 24  0     1  0  0  0  0  0999 V2000
   -2.7826   -3.8464    0.7821 H   0  0  0  0  0  0  0  0  0  0  0  0
   -2.8156   -2.8034    0.4711 C   0  0  0  0  0  0  0  0  0  0  0  0
   -3.4336   -2.2354    1.1641 H   0  0  0  0  0  0  0  0  0  0  0  0
   -3.2256   -2.7344   -0.5349 H   0  0  0  0  0  0  0  0  0  0  0  0
   -1.4126   -2.2444    0.4801 C   0  0  0  0  0  0  0  0  0  0  0  0
   -0.4686   -2.9534    0.8001 O   0  0  0  0  0  0  0  0  0  0  0  0
   -1.2736   -0.9704    0.1241 N   0  0  0  0  0  0  0  0  0  0  0  0
   -2.0996   -0.4354   -0.1019 H   0  0  0  0  0  0  0  0  0  0  0  0
   -0.0016   -0.2394    0.1271 C   0  0  1  0  0  0  0  0  0  0  0  0
    0.6995   -0.7619   -0.5275 H   0  0  0  0  0  0  0  0  0  0  0  0
   -0.2283    1.1832   -0.4215 C   0  0  0  0  0  0  0  0  0  0  0  0
   -0.6018    1.1225   -1.4445 H   0  0  0  0  0  0  0  0  0  0  0  0
   -0.9812    1.6932    0.1804 H   0  0  0  0  0  0  0  0  0  0  0  0
    1.0413    2.0285   -0.4594 C   0  0  0  0  0  0  0  0  0  0  0  0
    1.4451    2.7485    0.4444 O   0  0  0  0  0  0  0  0  0  0  0  0
    1.7388    1.9485   -1.6079 O   0  0  0  0  0  0  0  0  0  0  0  0
    2.5088    2.5049   -1.4866 H   0  0  0  0  0  0  0  0  0  0  0  0
    0.5920   -0.2154    1.5497 C   0  0  0  0  0  0  0  0  0  0  0  0
    1.7860   -0.4596    1.7183 O   0  0  0  0  0  0  0  0  0  0  0  0
   -0.2294    0.0669    2.5672 N   0  0  0  0  0  0  0  0  0  0  0  0
   -1.2130    0.1938    2.3518 H   0  0  0  0  0  0  0  0  0  0  0  0
    0.1836    0.1337    3.9673 C   0  0  0  0  0  0  0  0  0  0  0  0
    1.0451    0.7976    4.0666 H   0  0  0  0  0  0  0  0  0  0  0  0
   -0.6344    0.5115    4.5820 H   0  0  0  0  0  0  0  0  0  0  0  0
    0.4676   -0.8609    4.3157 H   0  0  0  0  0  0  0  0  0  0  0  0
  5  6  2  0  0  0  0
  5  7  1  0  0  0  0
  2  3  1  0  0  0  0
  2  4  1  0  0  0  0
  2  5  1  0  0  0  0
  1  2  1  0  0  0  0
 18 19  2  0  0  0  0
 18 20  1  0  0  0  0
 16 17  1  0  0  0  0
 14 15  2  0  0  0  0
 14 16  1  0  0  0  0
 11 12  1  0  0  0  0
 11 13  1  0  0  0  0
 11 14  1  0  0  0  0
  9 10  1  0  0  0  0
  9 11  1  0  0  0  0
  9 18  1  0  0  0  0
  7  8  1  0  0  0  0
  7  9  1  0  0  0  0
 22 23  1  0  0  0  0
 22 24  1  0  0  0  0
 22 25  1  0  0  0  0
 20 21  1  0  0  0  0
 20 22  1  0  0  0  0
M  END
$$$$
default_name
  -OEChem-02102213163D

 25 24  0     1  0  0  0  0  0999 V2000
   -2.7826   -3.8464    0.7821 H   0  0  0  0  0  0  0  0  0  0  0  0
   -2.8156   -2.8034    0.4711 C   0  0  0  0  0  0  0  0  0  0  0  0
   -3.4336   -2.2354    1.1641 H   0  0  0  0  0  0  0  0  0  0  0  0
   -3.2256   -2.7344   -0.5349 H   0  0  0  0  0  0  0  0  0  0  0  0
   -1.4126   -2.2444    0.4801 C   0  0  0  0  0  0  0  0  0  0  0  0
   -0.4686   -2.9534    0.8001 O   0  0  0  0  0  0  0  0  0  0  0  0
   -1.2736   -0.9704    0.1241 N   0  0  0  0  0  0  0  0  0  0  0  0
   -2.0996   -0.4354   -0.1019 H   0  0  0  0  0  0  0  0  0  0  0  0
   -0.0016   -0.2394    0.1271 C   0  0  1  0  0  0  0  0  0  0  0  0
    0.6995   -0.7619   -0.5275 H   0  0  0  0  0  0  0  0  0  0  0  0
   -0.2283    1.1832   -0.4215 C   0  0  0  0  0  0  0  0  0  0  0  0
   -0.6018    1.1225   -1.4445 H   0  0  0  0  0  0  0  0  0  0  0  0
   -0.9812    1.6932    0.1804 H   0  0  0  0  0  0  0  0  0  0  0  0
    1.0413    2.0285   -0.4594 C   0  0  0  0  0  0  0  0  0  0  0  0
    1.5858    2.5402    0.5102 O   0  0  0  0  0  0  0  0  0  0  0  0
    1.5658    2.2047   -1.6865 O   0  0  0  0  0  0  0  0  0  0  0  0
    2.3574    2.7290   -1.5607 H   0  0  0  0  0  0  0  0  0  0  0  0
    0.5920   -0.2154    1.5497 C   0  0  0  0  0  0  0  0  0  0  0  0
    1.7860   -0.4596    1.7183 O   0  0  0  0  0  0  0  0  0  0  0  0
   -0.2294    0.0669    2.5672 N   0  0  0  0  0  0  0  0  0  0  0  0
   -1.2130    0.1938    2.3518 H   0  0  0  0  0  0  0  0  0  0  0  0
    0.1836    0.1337    3.9673 C   0  0  0  0  0  0  0  0  0  0  0  0
    1.0451    0.7976    4.0666 H   0  0  0  0  0  0  0  0  0  0  0  0
   -0.6344    0.5115    4.5820 H   0  0  0  0  0  0  0  0  0  0  0  0
    0.4676   -0.8609    4.3157 H   0  0  0  0  0  0  0  0  0  0  0  0
  5  6  2  0  0  0  0
  5  7  1  0  0  0  0
  2  3  1  0  0  0  0
  2  4  1  0  0  0  0
  2  5  1  0  0  0  0
  1  2  1  0  0  0  0
 18 19  2  0  0  0  0
 18 20  1  0  0  0  0
 16 17  1  0  0  0  0
 14 15  2  0  0  0  0
 14 16  1  0  0  0  0
 11 12  1  0  0  0  0
 11 13  1  0  0  0  0
 11 14  1  0  0  0  0
  9 10  1  0  0  0  0
  9 11  1  0  0  0  0
  9 18  1  0  0  0  0
  7  8  1  0  0  0  0
  7  9  1  0  0  0  0
 22 23  1  0  0  0  0
 22 24  1  0  0  0  0
 22 25  1  0  0  0  0
 20 21  1  0  0  0  0
 20 22  1  0  0  0  0
M  END
$$$$
default_name
  -OEChem-02102213163D

 25 24  0     1  0  0  0  0  0999 V2000
   -2.7826   -3.8464    0.7821 H   0  0  0  0  0  0  0  0  0  0  0  0
   -2.8156   -2.8034    0.4711 C   0  0  0  0  0  0  0  0  0  0  0  0
   -3.4336   -2.2354    1.1641 H   0  0  0  0  0  0  0  0  0  0  0  0
   -3.2256   -2.7344   -0.5349 H   0  0  0  0  0  0  0  0  0  0  0  0
   -1.4126   -2.2444    0.4801 C   0  0  0  0  0  0  0  0  0  0  0  0
   -0.4686   -2.9534    0.8001 O   0  0  0  0  0  0  0  0  0  0  0  0
   -1.2736   -0.9704    0.1241 N   0  0  0  0  0  0  0  0  0  0  0  0
   -2.0996   -0.4354   -0.1019 H   0  0  0  0  0  0  0  0  0  0  0  0
   -0.0016   -0.2394    0.1271 C   0  0  1  0  0  0  0  0  0  0  0  0
    0.6995   -0.7619   -0.5275 H   0  0  0  0  0  0  0  0  0  0  0  0
   -0.2283    1.1832   -0.4215 C   0  0  0  0  0  0  0  0  0  0  0  0
   -0.6018    1.1225   -1.4445 H   0  0  0  0  0  0  0  0  0  0  0  0
   -0.9812    1.6932    0.1804 H   0  0  0  0  0  0  0  0  0  0  0  0
    1.0413    2.0285   -0.4594 C   0  0  0  0  0  0  0  0  0  0  0  0
    1.7297    2.3239    0.5086 O   0  0  0  0  0  0  0  0  0  0  0  0
    1.3891    2.4703   -1.6824 O   0  0  0  0  0  0  0  0  0  0  0  0
    2.2019    2.9624   -1.5624 H   0  0  0  0  0  0  0  0  0  0  0  0
    0.5920   -0.2154    1.5497 C   0  0  0  0  0  0  0  0  0  0  0  0
    1.7860   -0.4596    1.7183 O   0  0  0  0  0  0  0  0  0  0  0  0
   -0.2294    0.0669    2.5672 N   0  0  0  0  0  0  0  0  0  0  0  0
   -1.2130    0.1938    2.3518 H   0  0  0  0  0  0  0  0  0  0  0  0
    0.1836    0.1337    3.9673 C   0  0  0  0  0  0  0  0  0  0  0  0
    1.0451    0.7976    4.0666 H   0  0  0  0  0  0  0  0  0  0  0  0
   -0.6344    0.5115    4.5820 H   0  0  0  0  0  0  0  0  0  0  0  0
    0.4676   -0.8609    4.3157 H   0  0  0  0  0  0  0  0  0  0  0  0
  5  6  2  0  0  0  0
  5  7  1  0  0  0  0
  2  3  1  0  0  0  0
  2  4  1  0  0  0  0
  2  5  1  0  0  0  0
  1  2  1  0  0  0  0
 18 19  2  0  0  0  0
 18 20  1  0  0  0  0
 16 17  1  0  0  0  0
 14 15  2  0  0  0  0
 14 16  1  0  0  0  0
 11 12  1  0  0  0  0
 11 13  1  0  0  0  0
 11 14  1  0  0  0  0
  9 10  1  0  0  0  0
  9 11  1  0  0  0  0
  9 18  1  0  0  0  0
  7  8  1  0  0  0  0
  7  9  1  0  0  0  0
 22 23  1  0  0  0  0
 22 24  1  0  0  0  0
 22 25  1  0  0  0  0
 20 21  1  0  0  0  0
 20 22  1  0  0  0  0
M  END
$$$$
default_name
  -OEChem-02102213163D

 25 24  0     1  0  0  0  0  0999 V2000
   -2.7826   -3.8464    0.7821 H   0  0  0  0  0  0  0  0  0  0  0  0
   -2.8156   -2.8034    0.4711 C   0  0  0  0  0  0  0  0  0  0  0  0
   -3.4336   -2.2354    1.1641 H   0  0  0  0  0  0  0  0  0  0  0  0
   -3.2256   -2.7344   -0.5349 H   0  0  0  0  0  0  0  0  0  0  0  0
   -1.4126   -2.2444    0.4801 C   0  0  0  0  0  0  0  0  0  0  0  0
   -0.4686   -2.9534    0.8001 O   0  0  0  0  0  0  0  0  0  0  0  0
   -1.2736   -0.9704    0.1241 N   0  0  0  0  0  0  0  0  0  0  0  0
   -2.0996   -0.4354   -0.1019 H   0  0  0  0  0  0  0  0  0  0  0  0
   -0.0016   -0.2394    0.1271 C   0  0  1  0  0  0  0  0  0  0  0  0
    0.6995   -0.7619   -0.5275 H   0  0  0  0  0  0  0  0  0  0  0  0
   -0.2283    1.1832   -0.4215 C   0  0  0  0  0  0  0  0  0  0  0  0
   -0.6018    1.1225   -1.4445 H   0  0  0  0  0  0  0  0  0  0  0  0
   -0.9812    1.6932    0.1804 H   0  0  0  0  0  0  0  0  0  0  0  0
    1.0413    2.0285   -0.4594 C   0  0  0  0  0  0  0  0  0  0  0  0
    1.8672    2.1144    0.4399 O   0  0  0  0  0  0  0  0  0  0  0  0
    1.2207    2.7271   -1.5959 O   0  0  0  0  0  0  0  0  0  0  0  0
    2.0530    3.1892   -1.4914 H   0  0  0  0  0  0  0  0  0  0  0  0
    0.5920   -0.2154    1.5497 C   0  0  0  0  0  0  0  0  0  0  0  0
    1.7860   -0.4596    1.7183 O   0  0  0  0  0  0  0  0  0  0  0  0
   -0.2294    0.0669    2.5672 N   0  0  0  0  0  0  0  0  0  0  0  0
   -1.2130    0.1938    2.3518 H   0  0  0  0  0  0  0  0  0  0  0  0
    0.1836    0.1337    3.9673 C   0  0  0  0  0  0  0  0  0  0  0  0
    1.0451    0.7976    4.0666 H   0  0  0  0  0  0  0  0  0  0  0  0
   -0.6344    0.5115    4.5820 H   0  0  0  0  0  0  0  0  0  0  0  0
    0.4676   -0.8609    4.3157 H   0  0  0  0  0  0  0  0  0  0  0  0
  5  6  2  0  0  0  0
  5  7  1  0  0  0  0
  2  3  1  0  0  0  0
  2  4  1  0  0  0  0
  2  5  1  0  0  0  0
  1  2  1  0  0  0  0
 18 19  2  0  0  0  0
 18 20  1  0  0  0  0
 16 17  1  0  0  0  0
 14 15  2  0  0  0  0
 14 16  1  0  0  0  0
 11 12  1  0  0  0  0
 11 13  1  0  0  0  0
 11 14  1  0  0  0  0
  9 10  1  0  0  0  0
  9 11  1  0  0  0  0
  9 18  1  0  0  0  0
  7  8  1  0  0  0  0
  7  9  1  0  0  0  0
 22 23  1  0  0  0  0
 22 24  1  0  0  0  0
 22 25  1  0  0  0  0
 20 21  1  0  0  0  0
 20 22  1  0  0  0  0
M  END
$$$$
default_name
  -OEChem-02102213163D

 25 24  0     1  0  0  0  0  0999 V2000
   -2.7826   -3.8464    0.7821 H   0  0  0  0  0  0  0  0  0  0  0  0
   -2.8156   -2.8034    0.4711 C   0  0  0  0  0  0  0  0  0  0  0  0
   -3.4336   -2.2354    1.1641 H   0  0  0  0  0  0  0  0  0  0  0  0
   -3.2256   -2.7344   -0.5349 H   0  0  0  0  0  0  0  0  0  0  0  0
   -1.4126   -2.2444    0.4801 C   0  0  0  0  0  0  0  0  0  0  0  0
   -0.4686   -2.9534    0.8001 O   0  0  0  0  0  0  0  0  0  0  0  0
   -1.2736   -0.9704    0.1241 N   0  0  0  0  0  0  0  0  0  0  0  0
   -2.0996   -0.4354   -0.1019 H   0  0  0  0  0  0  0  0  0  0  0  0
   -0.0016   -0.2394    0.1271 C   0  0  1  0  0  0  0  0  0  0  0  0
    0.6995   -0.7619   -0.5275 H   0  0  0  0  0  0  0  0  0  0  0  0
   -0.2283    1.1832   -0.4215 C   0  0  0  0  0  0  0  0  0  0  0  0
   -0.6018    1.1225   -1.4445 H   0  0  0  0  0  0  0  0  0  0  0  0
   -0.9812    1.6932    0.1804 H   0  0  0  0  0  0  0  0  0  0  0  0
    1.0413    2.0285   -0.4594 C   0  0  0  0  0  0  0  0  0  0  0  0
    1.9888    1.9259    0.3088 O   0  0  0  0  0  0  0  0  0  0  0  0
    1.0721    2.9575   -1.4330 O   0  0  0  0  0  0  0  0  0  0  0  0
    1.9208    3.3939   -1.3526 H   0  0  0  0  0  0  0  0  0  0  0  0
    0.5920   -0.2154    1.5497 C   0  0  0  0  0  0  0  0  0  0  0  0
    1.7860   -0.4596    1.7183 O   0  0  0  0  0  0  0  0  0  0  0  0
   -0.2294    0.0669    2.5672 N   0  0  0  0  0  0  0  0  0  0  0  0
   -1.2130    0.1938    2.3518 H   0  0  0  0  0  0  0  0  0  0  0  0
    0.1836    0.1337    3.9673 C   0  0  0  0  0  0  0  0  0  0  0  0
    1.0451    0.7976    4.0666 H   0  0  0  0  0  0  0  0  0  0  0  0
   -0.6344    0.5115    4.5820 H   0  0  0  0  0  0  0  0  0  0  0  0
    0.4676   -0.8609    4.3157 H   0  0  0  0  0  0  0  0  0  0  0  0
  5  6  2  0  0  0  0
  5  7  1  0  0  0  0
  2  3  1  0  0  0  0
  2  4  1  0  0  0  0
  2  5  1  0  0  0  0
  1  2  1  0  0  0  0
 18 19  2  0  0  0  0
 18 20  1  0  0  0  0
 16 17  1  0  0  0  0
 14 15  2  0  0  0  0
 14 16  1  0  0  0  0
 11 12  1  0  0  0  0
 11 13  1  0  0  0  0
 11 14  1  0  0  0  0
  9 10  1  0  0  0  0
  9 11  1  0  0  0  0
  9 18  1  0  0  0  0
  7  8  1  0  0  0  0
  7  9  1  0  0  0  0
 22 23  1  0  0  0  0
 22 24  1  0  0  0  0
 22 25  1  0  0  0  0
 20 21  1  0  0  0  0
 20 22  1  0  0  0  0
M  END
$$$$
default_name
  -OEChem-02102213163D

 25 24  0     1  0  0  0  0  0999 V2000
   -2.7826   -3.8464    0.7821 H   0  0  0  0  0  0  0  0  0  0  0  0
   -2.8156   -2.8034    0.4711 C   0  0  0  0  0  0  0  0  0  0  0  0
   -3.4336   -2.2354    1.1641 H   0  0  0  0  0  0  0  0  0  0  0  0
   -3.2256   -2.7344   -0.5349 H   0  0  0  0  0  0  0  0  0  0  0  0
   -1.4126   -2.2444    0.4801 C   0  0  0  0  0  0  0  0  0  0  0  0
   -0.4686   -2.9534    0.8001 O   0  0  0  0  0  0  0  0  0  0  0  0
   -1.2736   -0.9704    0.1241 N   0  0  0  0  0  0  0  0  0  0  0  0
   -2.0996   -0.4354   -0.1019 H   0  0  0  0  0  0  0  0  0  0  0  0
   -0.0016   -0.2394    0.1271 C   0  0  1  0  0  0  0  0  0  0  0  0
    0.6995   -0.7619   -0.5275 H   0  0  0  0  0  0  0  0  0  0  0  0
   -0.2283    1.1832   -0.4215 C   0  0  0  0  0  0  0  0  0  0  0  0
   -0.6018    1.1225   -1.4445 H   0  0  0  0  0  0  0  0  0  0  0  0
   -0.9812    1.6932    0.1804 H   0  0  0  0  0  0  0  0  0  0  0  0
    1.0413    2.0285   -0.4594 C   0  0  0  0  0  0  0  0  0  0  0  0
    2.0862    1.7714    0.1240 O   0  0  0  0  0  0  0  0  0  0  0  0
    0.9534    3.1460   -1.2046 O   0  0  0  0  0  0  0  0  0  0  0  0
    1.8144    3.5626   -1.1555 H   0  0  0  0  0  0  0  0  0  0  0  0
    0.5920   -0.2154    1.5497 C   0  0  0  0  0  0  0  0  0  0  0  0
    1.7860   -0.4596    1.7183 O   0  0  0  0  0  0  0  0  0  0  0  0
   -0.2294    0.0669    2.5672 N   0  0  0  0  0  0  0  0  0  0  0  0
   -1.2130    0.1938    2.3518 H   0  0  0  0  0  0  0  0  0  0  0  0
    0.1836    0.1337    3.9673 C   0  0  0  0  0  0  0  0  0  0  0  0
    1.0451    0.7976    4.0666 H   0  0  0  0  0  0  0  0  0  0  0  0
   -0.6344    0.5115    4.5820 H   0  0  0  0  0  0  0  0  0  0  0  0
    0.4676   -0.8609    4.3157 H   0  0  0  0  0  0  0  0  0  0  0  0
  5  6  2  0  0  0  0
  5  7  1  0  0  0  0
  2  3  1  0  0  0  0
  2  4  1  0  0  0  0
  2  5  1  0  0  0  0
  1  2  1  0  0  0  0
 18 19  2  0  0  0  0
 18 20  1  0  0  0  0
 16 17  1  0  0  0  0
 14 15  2  0  0  0  0
 14 16  1  0  0  0  0
 11 12  1  0  0  0  0
 11 13  1  0  0  0  0
 11 14  1  0  0  0  0
  9 10  1  0  0  0  0
  9 11  1  0  0  0  0
  9 18  1  0  0  0  0
  7  8  1  0  0  0  0
  7  9  1  0  0  0  0
 22 23  1  0  0  0  0
 22 24  1  0  0  0  0
 22 25  1  0  0  0  0
 20 21  1  0  0  0  0
 20 22  1  0  0  0  0
M  END
$$$$
default_name
  -OEChem-02102213163D

 25 24  0     1  0  0  0  0  0999 V2000
   -2.7826   -3.8464    0.7821 H   0  0  0  0  0  0  0  0  0  0  0  0
   -2.8156   -2.8034    0.4711 C   0  0  0  0  0  0  0  0  0  0  0  0
   -3.4336   -2.2354    1.1641 H   0  0  0  0  0  0  0  0  0  0  0  0
   -3.2256   -2.7344   -0.5349 H   0  0  0  0  0  0  0  0  0  0  0  0
   -1.4126   -2.2444    0.4801 C   0  0  0  0  0  0  0  0  0  0  0  0
   -0.4686   -2.9534    0.8001 O   0  0  0  0  0  0  0  0  0  0  0  0
   -1.2736   -0.9704    0.1241 N   0  0  0  0  0  0  0  0  0  0  0  0
   -2.0996   -0.4354   -0.1019 H   0  0  0  0  0  0  0  0  0  0  0  0
   -0.0016   -0.2394    0.1271 C   0  0  1  0  0  0  0  0  0  0  0  0
    0.6995   -0.7619   -0.5275 H   0  0  0  0  0  0  0  0  0  0  0  0
   -0.2283    1.1832   -0.4215 C   0  0  0  0  0  0  0  0  0  0  0  0
   -0.6018    1.1225   -1.4445 H   0  0  0  0  0  0  0  0  0  0  0  0
   -0.9812    1.6932    0.1804 H   0  0  0  0  0  0  0  0  0  0  0  0
    1.0413    2.0285   -0.4594 C   0  0  0  0  0  0  0  0  0  0  0  0
    2.1528    1.6612   -0.1017 O   0  0  0  0  0  0  0  0  0  0  0  0
    0.8727    3.2797   -0.9264 O   0  0  0  0  0  0  0  0  0  0  0  0
    1.7409    3.6838   -0.9135 H   0  0  0  0  0  0  0  0  0  0  0  0
    0.5920   -0.2154    1.5497 C   0  0  0  0  0  0  0  0  0  0  0  0
    1.7860   -0.4596    1.7183 O   0  0  0  0  0  0  0  0  0  0  0  0
   -0.2294    0.0669    2.5672 N   0  0  0  0  0  0  0  0  0  0  0  0
   -1.2130    0.1938    2.3518 H   0  0  0  0  0  0  0  0  0  0  0  0
    0.1836    0.1337    3.9673 C   0  0  0  0  0  0  0  0  0  0  0  0
    1.0451    0.7976    4.0666 H   0  0  0  0  0  0  0  0  0  0  0  0
   -0.6344    0.5115    4.5820 H   0  0  0  0  0  0  0  0  0  0  0  0
    0.4676   -0.8609    4.3157 H   0  0  0  0  0  0  0  0  0  0  0  0
  5  6  2  0  0  0  0
  5  7  1  0  0  0  0
  2  3  1  0  0  0  0
  2  4  1  0  0  0  0
  2  5  1  0  0  0  0
  1  2  1  0  0  0  0
 18 19  2  0  0  0  0
 18 20  1  0  0  0  0
 16 17  1  0  0  0  0
 14 15  2  0  0  0  0
 14 16  1  0  0  0  0
 11 12  1  0  0  0  0
 11 13  1  0  0  0  0
 11 14  1  0  0  0  0
  9 10  1  0  0  0  0
  9 11  1  0  0  0  0
  9 18  1  0  0  0  0
  7  8  1  0  0  0  0
  7  9  1  0  0  0  0
 22 23  1  0  0  0  0
 22 24  1  0  0  0  0
 22 25  1  0  0  0  0
 20 21  1  0  0  0  0
 20 22  1  0  0  0  0
M  END
$$$$
default_name
  -OEChem-02102213163D

 25 24  0     1  0  0  0  0  0999 V2000
   -2.7826   -3.8464    0.7821 H   0  0  0  0  0  0  0  0  0  0  0  0
   -2.8156   -2.8034    0.4711 C   0  0  0  0  0  0  0  0  0  0  0  0
   -3.4336   -2.2354    1.1641 H   0  0  0  0  0  0  0  0  0  0  0  0
   -3.2256   -2.7344   -0.5349 H   0  0  0  0  0  0  0  0  0  0  0  0
   -1.4126   -2.2444    0.4801 C   0  0  0  0  0  0  0  0  0  0  0  0
   -0.4686   -2.9534    0.8001 O   0  0  0  0  0  0  0  0  0  0  0  0
   -1.2736   -0.9704    0.1241 N   0  0  0  0  0  0  0  0  0  0  0  0
   -2.0996   -0.4354   -0.1019 H   0  0  0  0  0  0  0  0  0  0  0  0
   -0.0016   -0.2394    0.1271 C   0  0  1  0  0  0  0  0  0  0  0  0
    0.6995   -0.7619   -0.5275 H   0  0  0  0  0  0  0  0  0  0  0  0
   -0.2283    1.1832   -0.4215 C   0  0  0  0  0  0  0  0  0  0  0  0
   -0.6018    1.1225   -1.4445 H   0  0  0  0  0  0  0  0  0  0  0  0
   -0.9812    1.6932    0.1804 H   0  0  0  0  0  0  0  0  0  0  0  0
    1.0413    2.0285   -0.4594 C   0  0  0  0  0  0  0  0  0  0  0  0
    2.1840    1.6030   -0.3530 O   0  0  0  0  0  0  0  0  0  0  0  0
    0.8355    3.3494   -0.6173 O   0  0  0  0  0  0  0  0  0  0  0  0
    1.7054    3.7492   -0.6431 H   0  0  0  0  0  0  0  0  0  0  0  0
    0.5920   -0.2154    1.5497 C   0  0  0  0  0  0  0  0  0  0  0  0
    1.7860   -0.4596    1.7183 O   0  0  0  0  0  0  0  0  0  0  0  0
   -0.2294    0.0669    2.5672 N   0  0  0  0  0  0  0  0  0  0  0  0
   -1.2130    0.1938    2.3518 H   0  0  0  0  0  0  0  0  0  0  0  0
    0.1836    0.1337    3.9673 C   0  0  0  0  0  0  0  0  0  0  0  0
    1.0451    0.7976    4.0666 H   0  0  0  0  0  0  0  0  0  0  0  0
   -0.6344    0.5115    4.5820 H   0  0  0  0  0  0  0  0  0  0  0  0
    0.4676   -0.8609    4.3157 H   0  0  0  0  0  0  0  0  0  0  0  0
  5  6  2  0  0  0  0
  5  7  1  0  0  0  0
  2  3  1  0  0  0  0
  2  4  1  0  0  0  0
  2  5  1  0  0  0  0
  1  2  1  0  0  0  0
 18 19  2  0  0  0  0
 18 20  1  0  0  0  0
 16 17  1  0  0  0  0
 14 15  2  0  0  0  0
 14 16  1  0  0  0  0
 11 12  1  0  0  0  0
 11 13  1  0  0  0  0
 11 14  1  0  0  0  0
  9 10  1  0  0  0  0
  9 11  1  0  0  0  0
  9 18  1  0  0  0  0
  7  8  1  0  0  0  0
  7  9  1  0  0  0  0
 22 23  1  0  0  0  0
 22 24  1  0  0  0  0
 22 25  1  0  0  0  0
 20 21  1  0  0  0  0
 20 22  1  0  0  0  0
M  END
$$$$
default_name
  -OEChem-02102213163D

 25 24  0     1  0  0  0  0  0999 V2000
   -2.7826   -3.8464    0.7821 H   0  0  0  0  0  0  0  0  0  0  0  0
   -2.8156   -2.8034    0.4711 C   0  0  0  0  0  0  0  0  0  0  0  0
   -3.4336   -2.2354    1.1641 H   0  0  0  0  0  0  0  0  0  0  0  0
   -3.2256   -2.7344   -0.5349 H   0  0  0  0  0  0  0  0  0  0  0  0
   -1.4126   -2.2444    0.4801 C   0  0  0  0  0  0  0  0  0  0  0  0
   -0.4686   -2.9534    0.8001 O   0  0  0  0  0  0  0  0  0  0  0  0
   -1.2736   -0.9704    0.1241 N   0  0  0  0  0  0  0  0  0  0  0  0
   -2.0996   -0.4354   -0.1019 H   0  0  0  0  0  0  0  0  0  0  0  0
   -0.0016   -0.2394    0.1271 C   0  0  1  0  0  0  0  0  0  0  0  0
    0.6995   -0.7619   -0.5275 H   0  0  0  0  0  0  0  0  0  0  0  0
   -0.2283    1.1832   -0.4215 C   0  0  0  0  0  0  0  0  0  0  0  0
   -0.6018    1.1225   -1.4445 H   0  0  0  0  0  0  0  0  0  0  0  0
   -0.9812    1.6932    0.1804 H   0  0  0  0  0  0  0  0  0  0  0  0
    1.0413    2.0285   -0.4594 C   0  0  0  0  0  0  0  0  0  0  0  0
    2.1778    1.6007   -0.6127 O   0  0  0  0  0  0  0  0  0  0  0  0
    0.8444    3.3504   -0.2985 O   0  0  0  0  0  0  0  0  0  0  0  0
    1.7103    3.7544   -0.3628 H   0  0  0  0  0  0  0  0  0  0  0  0
    0.5920   -0.2154    1.5497 C   0  0  0  0  0  0  0  0  0  0  0  0
    1.7860   -0.4596    1.7183 O   0  0  0  0  0  0  0  0  0  0  0  0
   -0.2294    0.0669    2.5672 N   0  0  0  0  0  0  0  0  0  0  0  0
   -1.2130    0.1938    2.3518 H   0  0  0  0  0  0  0  0  0  0  0  0
    0.1836    0.1337    3.9673 C   0  0  0  0  0  0  0  0  0  0  0  0
    1.0451    0.7976    4.0666 H   0  0  0  0  0  0  0  0  0  0  0  0
   -0.6344    0.5115    4.5820 H   0  0  0  0  0  0  0  0  0  0  0  0
    0.4676   -0.8609    4.3157 H   0  0  0  0  0  0  0  0  0  0  0  0
  5  6  2  0  0  0  0
  5  7  1  0  0  0  0
  2  3  1  0  0  0  0
  2  4  1  0  0  0  0
  2  5  1  0  0  0  0
  1  2  1  0  0  0  0
 18 19  2  0  0  0  0
 18 20  1  0  0  0  0
 16 17  1  0  0  0  0
 14 15  2  0  0  0  0
 14 16  1  0  0  0  0
 11 12  1  0  0  0  0
 11 13  1  0  0  0  0
 11 14  1  0  0  0  0
  9 10  1  0  0  0  0
  9 11  1  0  0  0  0
  9 18  1  0  0  0  0
  7  8  1  0  0  0  0
  7  9  1  0  0  0  0
 22 23  1  0  0  0  0
 22 24  1  0  0  0  0
 22 25  1  0  0  0  0
 20 21  1  0  0  0  0
 20 22  1  0  0  0  0
M  END
$$$$
default_name
  -OEChem-02102213163D

 25 24  0     1  0  0  0  0  0999 V2000
   -2.7826   -3.8464    0.7821 H   0  0  0  0  0  0  0  0  0  0  0  0
   -2.8156   -2.8034    0.4711 C   0  0  0  0  0  0  0  0  0  0  0  0
   -3.4336   -2.2354    1.1641 H   0  0  0  0  0  0  0  0  0  0  0  0
   -3.2256   -2.7344   -0.5349 H   0  0  0  0  0  0  0  0  0  0  0  0
   -1.4126   -2.2444    0.4801 C   0  0  0  0  0  0  0  0  0  0  0  0
   -0.4686   -2.9534    0.8001 O   0  0  0  0  0  0  0  0  0  0  0  0
   -1.2736   -0.9704    0.1241 N   0  0  0  0  0  0  0  0  0  0  0  0
   -2.0996   -0.4354   -0.1019 H   0  0  0  0  0  0  0  0  0  0  0  0
   -0.0016   -0.2394    0.1271 C   0  0  1  0  0  0  0  0  0  0  0  0
    0.6995   -0.7619   -0.5275 H   0  0  0  0  0  0  0  0  0  0  0  0
   -0.2283    1.1832   -0.4215 C   0  0  0  0  0  0  0  0  0  0  0  0
   -0.6018    1.1225   -1.4445 H   0  0  0  0  0  0  0  0  0  0  0  0
   -0.9812    1.6932    0.1804 H   0  0  0  0  0  0  0  0  0  0  0  0
    1.0413    2.0285   -0.4594 C   0  0  0  0  0  0  0  0  0  0  0  0
    2.1346    1.6545   -0.8632 O   0  0  0  0  0  0  0  0  0  0  0  0
    0.8987    3.2826    0.0085 O   0  0  0  0  0  0  0  0  0  0  0  0
    1.7552    3.6991   -0.0916 H   0  0  0  0  0  0  0  0  0  0  0  0
    0.5920   -0.2154    1.5497 C   0  0  0  0  0  0  0  0  0  0  0  0
    1.7860   -0.4596    1.7183 O   0  0  0  0  0  0  0  0  0  0  0  0
   -0.2294    0.0669    2.5672 N   0  0  0  0  0  0  0  0  0  0  0  0
   -1.2130    0.1938    2.3518 H   0  0  0  0  0  0  0  0  0  0  0  0
    0.1836    0.1337    3.9673 C   0  0  0  0  0  0  0  0  0  0  0  0
    1.0451    0.7976    4.0666 H   0  0  0  0  0  0  0  0  0  0  0  0
   -0.6344    0.5115    4.5820 H   0  0  0  0  0  0  0  0  0  0  0  0
    0.4676   -0.8609    4.3157 H   0  0  0  0  0  0  0  0  0  0  0  0
  5  6  2  0  0  0  0
  5  7  1  0  0  0  0
  2  3  1  0  0  0  0
  2  4  1  0  0  0  0
  2  5  1  0  0  0  0
  1  2  1  0  0  0  0
 18 19  2  0  0  0  0
 18 20  1  0  0  0  0
 16 17  1  0  0  0  0
 14 15  2  0  0  0  0
 14 16  1  0  0  0  0
 11 12  1  0  0  0  0
 11 13  1  0  0  0  0
 11 14  1  0  0  0  0
  9 10  1  0  0  0  0
  9 11  1  0  0  0  0
  9 18  1  0  0  0  0
  7  8  1  0  0  0  0
  7  9  1  0  0  0  0
 22 23  1  0  0  0  0
 22 24  1  0  0  0  0
 22 25  1  0  0  0  0
 20 21  1  0  0  0  0
 20 22  1  0  0  0  0
M  END
$$$$
default_name
  -OEChem-02102213163D

 25 24  0     1  0  0  0  0  0999 V2000
   -2.7826   -3.8464    0.7821 H   0  0  0  0  0  0  0  0  0  0  0  0
   -2.8156   -2.8034    0.4711 C   0  0  0  0  0  0  0  0  0  0  0  0
   -3.4336   -2.2354    1.1641 H   0  0  0  0  0  0  0  0  0  0  0  0
   -3.2256   -2.7344   -0.5349 H   0  0  0  0  0  0  0  0  0  0  0  0
   -1.4126   -2.2444    0.4801 C   0  0  0  0  0  0  0  0  0  0  0  0
   -0.4686   -2.9534    0.8001 O   0  0  0  0  0  0  0  0  0  0  0  0
   -1.2736   -0.9704    0.1241 N   0  0  0  0  0  0  0  0  0  0  0  0
   -2.0996   -0.4354   -0.1019 H   0  0  0  0  0  0  0  0  0  0  0  0
   -0.0016   -0.2394    0.1271 C   0  0  1  0  0  0  0  0  0  0  0  0
    0.6995   -0.7619   -0.5275 H   0  0  0  0  0  0  0  0  0  0  0  0
   -0.2283    1.1832   -0.4215 C   0  0  0  0  0  0  0  0  0  0  0  0
   -0.6018    1.1225   -1.4445 H   0  0  0  0  0  0  0  0  0  0  0  0
   -0.9812    1.6932    0.1804 H   0  0  0  0  0  0  0  0  0  0  0  0
    1.0413    2.0285   -0.4594 C   0  0  0  0  0  0  0  0  0  0  0  0
    2.0572    1.7606   -1.0874 O   0  0  0  0  0  0  0  0  0  0  0  0
    0.9947    3.1507    0.2826 O   0  0  0  0  0  0  0  0  0  0  0  0
    1.8372    3.5869    0.1520 H   0  0  0  0  0  0  0  0  0  0  0  0
    0.5920   -0.2154    1.5497 C   0  0  0  0  0  0  0  0  0  0  0  0
    1.7860   -0.4596    1.7183 O   0  0  0  0  0  0  0  0  0  0  0  0
   -0.2294    0.0669    2.5672 N   0  0  0  0  0  0  0  0  0  0  0  0
   -1.2130    0.1938    2.3518 H   0  0  0  0  0  0  0  0  0  0  0  0
    0.1836    0.1337    3.9673 C   0  0  0  0  0  0  0  0  0  0  0  0
    1.0451    0.7976    4.0666 H   0  0  0  0  0  0  0  0  0  0  0  0
   -0.6344    0.5115    4.5820 H   0  0  0  0  0  0  0  0  0  0  0  0
    0.4676   -0.8609    4.3157 H   0  0  0  0  0  0  0  0  0  0  0  0
  5  6  2  0  0  0  0
  5  7  1  0  0  0  0
  2  3  1  0  0  0  0
  2  4  1  0  0  0  0
  2  5  1  0  0  0  0
  1  2  1  0  0  0  0
 18 19  2  0  0  0  0
 18 20  1  0  0  0  0
 16 17  1  0  0  0  0
 14 15  2  0  0  0  0
 14 16  1  0  0  0  0
 11 12  1  0  0  0  0
 11 13  1  0  0  0  0
 11 14  1  0  0  0  0
  9 10  1  0  0  0  0
  9 11  1  0  0  0  0
  9 18  1  0  0  0  0
  7  8  1  0  0  0  0
  7  9  1  0  0  0  0
 22 23  1  0  0  0  0
 22 24  1  0  0  0  0
 22 25  1  0  0  0  0
 20 21  1  0  0  0  0
 20 22  1  0  0  0  0
M  END
$$$$
default_name
  -OEChem-02102213163D

 25 24  0     1  0  0  0  0  0999 V2000
   -2.7826   -3.8464    0.7821 H   0  0  0  0  0  0  0  0  0  0  0  0
   -2.8156   -2.8034    0.4711 C   0  0  0  0  0  0  0  0  0  0  0  0
   -3.4336   -2.2354    1.1641 H   0  0  0  0  0  0  0  0  0  0  0  0
   -3.2256   -2.7344   -0.5349 H   0  0  0  0  0  0  0  0  0  0  0  0
   -1.4126   -2.2444    0.4801 C   0  0  0  0  0  0  0  0  0  0  0  0
   -0.4686   -2.9534    0.8001 O   0  0  0  0  0  0  0  0  0  0  0  0
   -1.2736   -0.9704    0.1241 N   0  0  0  0  0  0  0  0  0  0  0  0
   -2.0996   -0.4354   -0.1019 H   0  0  0  0  0  0  0  0  0  0  0  0
   -0.0016   -0.2394    0.1271 C   0  0  1  0  0  0  0  0  0  0  0  0
    0.6995   -0.7619   -0.5275 H   0  0  0  0  0  0  0  0  0  0  0  0
   -0.2283    1.1832   -0.4215 C   0  0  0  0  0  0  0  0  0  0  0  0
   -0.6018    1.1225   -1.4445 H   0  0  0  0  0  0  0  0  0  0  0  0
   -0.9812    1.6932    0.1804 H   0  0  0  0  0  0  0  0  0  0  0  0
    1.0413    2.0285   -0.4594 C   0  0  0  0  0  0  0  0  0  0  0  0
    1.9510    1.9119   -1.2699 O   0  0  0  0  0  0  0  0  0  0  0  0
    1.1259    2.9636    0.5052 O   0  0  0  0  0  0  0  0  0  0  0  0
    1.9506    3.4255    0.3514 H   0  0  0  0  0  0  0  0  0  0  0  0
    0.5920   -0.2154    1.5497 C   0  0  0  0  0  0  0  0  0  0  0  0
    1.7860   -0.4596    1.7183 O   0  0  0  0  0  0  0  0  0  0  0  0
   -0.2294    0.0669    2.5672 N   0  0  0  0  0  0  0  0  0  0  0  0
   -1.2130    0.1938    2.3518 H   0  0  0  0  0  0  0  0  0  0  0  0
    0.1836    0.1337    3.9673 C   0  0  0  0  0  0  0  0  0  0  0  0
    1.0451    0.7976    4.0666 H   0  0  0  0  0  0  0  0  0  0  0  0
   -0.6344    0.5115    4.5820 H   0  0  0  0  0  0  0  0  0  0  0  0
    0.4676   -0.8609    4.3157 H   0  0  0  0  0  0  0  0  0  0  0  0
  5  6  2  0  0  0  0
  5  7  1  0  0  0  0
  2  3  1  0  0  0  0
  2  4  1  0  0  0  0
  2  5  1  0  0  0  0
  1  2  1  0  0  0  0
 18 19  2  0  0  0  0
 18 20  1  0  0  0  0
 16 17  1  0  0  0  0
 14 15  2  0  0  0  0
 14 16  1  0  0  0  0
 11 12  1  0  0  0  0
 11 13  1  0  0  0  0
 11 14  1  0  0  0  0
  9 10  1  0  0  0  0
  9 11  1  0  0  0  0
  9 18  1  0  0  0  0
  7  8  1  0  0  0  0
  7  9  1  0  0  0  0
 22 23  1  0  0  0  0
 22 24  1  0  0  0  0
 22 25  1  0  0  0  0
 20 21  1  0  0  0  0
 20 22  1  0  0  0  0
M  END
$$$$
default_name
  -OEChem-02102213163D

 25 24  0     1  0  0  0  0  0999 V2000
   -2.7826   -3.8464    0.7821 H   0  0  0  0  0  0  0  0  0  0  0  0
   -2.8156   -2.8034    0.4711 C   0  0  0  0  0  0  0  0  0  0  0  0
   -3.4336   -2.2354    1.1641 H   0  0  0  0  0  0  0  0  0  0  0  0
   -3.2256   -2.7344   -0.5349 H   0  0  0  0  0  0  0  0  0  0  0  0
   -1.4126   -2.2444    0.4801 C   0  0  0  0  0  0  0  0  0  0  0  0
   -0.4686   -2.9534    0.8001 O   0  0  0  0  0  0  0  0  0  0  0  0
   -1.2736   -0.9704    0.1241 N   0  0  0  0  0  0  0  0  0  0  0  0
   -2.0996   -0.4354   -0.1019 H   0  0  0  0  0  0  0  0  0  0  0  0
   -0.0016   -0.2394    0.1271 C   0  0  1  0  0  0  0  0  0  0  0  0
    0.6995   -0.7619   -0.5275 H   0  0  0  0  0  0  0  0  0  0  0  0
   -0.2283    1.1832   -0.4215 C   0  0  0  0  0  0  0  0  0  0  0  0
   -0.6018    1.1225   -1.4445 H   0  0  0  0  0  0  0  0  0  0  0  0
   -0.9812    1.6932    0.1804 H   0  0  0  0  0  0  0  0  0  0  0  0
    1.0413    2.0285   -0.4594 C   0  0  0  0  0  0  0  0  0  0  0  0
    1.8233    2.0981   -1.3985 O   0  0  0  0  0  0  0  0  0  0  0  0
    1.2833    2.7341    0.6611 O   0  0  0  0  0  0  0  0  0  0  0  0
    2.0877    3.2260    0.4930 H   0  0  0  0  0  0  0  0  0  0  0  0
    0.5920   -0.2154    1.5497 C   0  0  0  0  0  0  0  0  0  0  0  0
    1.7860   -0.4596    1.7183 O   0  0  0  0  0  0  0  0  0  0  0  0
   -0.2294    0.0669    2.5672 N   0  0  0  0  0  0  0  0  0  0  0  0
   -1.2130    0.1938    2.3518 H   0  0  0  0  0  0  0  0  0  0  0  0
    0.1836    0.1337    3.9673 C   0  0  0  0  0  0  0  0  0  0  0  0
    1.0451    0.7976    4.0666 H   0  0  0  0  0  0  0  0  0  0  0  0
   -0.6344    0.5115    4.5820 H   0  0  0  0  0  0  0  0  0  0  0  0
    0.4676   -0.8609    4.3157 H   0  0  0  0  0  0  0  0  0  0  0  0
  5  6  2  0  0  0  0
  5  7  1  0  0  0  0
  2  3  1  0  0  0  0
  2  4  1  0  0  0  0
  2  5  1  0  0  0  0
  1  2  1  0  0  0  0
 18 19  2  0  0  0  0
 18 20  1  0  0  0  0
 16 17  1  0  0  0  0
 14 15  2  0  0  0  0
 14 16  1  0  0  0  0
 11 12  1  0  0  0  0
 11 13  1  0  0  0  0
 11 14  1  0  0  0  0
  9 10  1  0  0  0  0
  9 11  1  0  0  0  0
  9 18  1  0  0  0  0
  7  8  1  0  0  0  0
  7  9  1  0  0  0  0
 22 23  1  0  0  0  0
 22 24  1  0  0  0  0
 22 25  1  0  0  0  0
 20 21  1  0  0  0  0
 20 22  1  0  0  0  0
M  END
$$$$
default_name
  -OEChem-02102213163D

 25 24  0     1  0  0  0  0  0999 V2000
   -2.7826   -3.8464    0.7821 H   0  0  0  0  0  0  0  0  0  0  0  0
   -2.8156   -2.8034    0.4711 C   0  0  0  0  0  0  0  0  0  0  0  0
   -3.4336   -2.2354    1.1641 H   0  0  0  0  0  0  0  0  0  0  0  0
   -3.2256   -2.7344   -0.5349 H   0  0  0  0  0  0  0  0  0  0  0  0
   -1.4126   -2.2444    0.4801 C   0  0  0  0  0  0  0  0  0  0  0  0
   -0.4686   -2.9534    0.8001 O   0  0  0  0  0  0  0  0  0  0  0  0
   -1.2736   -0.9704    0.1241 N   0  0  0  0  0  0  0  0  0  0  0  0
   -2.0996   -0.4354   -0.1019 H   0  0  0  0  0  0  0  0  0  0  0  0
   -0.0016   -0.2394    0.1271 C   0  0  1  0  0  0  0  0  0  0  0  0
    0.6995   -0.7619   -0.5275 H   0  0  0  0  0  0  0  0  0  0  0  0
   -0.2283    1.1832   -0.4215 C   0  0  0  0  0  0  0  0  0  0  0  0
   -0.6018    1.1225   -1.4445 H   0  0  0  0  0  0  0  0  0  0  0  0
   -0.9812    1.6932    0.1804 H   0  0  0  0  0  0  0  0  0  0  0  0
    1.0413    2.0285   -0.4594 C   0  0  0  0  0  0  0  0  0  0  0  0
    1.6826    2.3064   -1.4642 O   0  0  0  0  0  0  0  0  0  0  0  0
    1.4563    2.4778    0.7397 O   0  0  0  0  0  0  0  0  0  0  0  0
    2.2391    3.0019    0.5671 H   0  0  0  0  0  0  0  0  0  0  0  0
    0.5920   -0.2154    1.5497 C   0  0  0  0  0  0  0  0  0  0  0  0
    1.7860   -0.4596    1.7183 O   0  0  0  0  0  0  0  0  0  0  0  0
   -0.2294    0.0669    2.5672 N   0  0  0  0  0  0  0  0  0  0  0  0
   -1.2130    0.1938    2.3518 H   0  0  0  0  0  0  0  0  0  0  0  0
    0.1836    0.1337    3.9673 C   0  0  0  0  0  0  0  0  0  0  0  0
    1.0451    0.7976    4.0666 H   0  0  0  0  0  0  0  0  0  0  0  0
   -0.6344    0.5115    4.5820 H   0  0  0  0  0  0  0  0  0  0  0  0
    0.4676   -0.8609    4.3157 H   0  0  0  0  0  0  0  0  0  0  0  0
  5  6  2  0  0  0  0
  5  7  1  0  0  0  0
  2  3  1  0  0  0  0
  2  4  1  0  0  0  0
  2  5  1  0  0  0  0
  1  2  1  0  0  0  0
 18 19  2  0  0  0  0
 18 20  1  0  0  0  0
 16 17  1  0  0  0  0
 14 15  2  0  0  0  0
 14 16  1  0  0  0  0
 11 12  1  0  0  0  0
 11 13  1  0  0  0  0
 11 14  1  0  0  0  0
  9 10  1  0  0  0  0
  9 11  1  0  0  0  0
  9 18  1  0  0  0  0
  7  8  1  0  0  0  0
  7  9  1  0  0  0  0
 22 23  1  0  0  0  0
 22 24  1  0  0  0  0
 22 25  1  0  0  0  0
 20 21  1  0  0  0  0
 20 22  1  0  0  0  0
M  END
$$$$
default_name
  -OEChem-02102213163D

 25 24  0     1  0  0  0  0  0999 V2000
   -2.7826   -3.8464    0.7821 H   0  0  0  0  0  0  0  0  0  0  0  0
   -2.8156   -2.8034    0.4711 C   0  0  0  0  0  0  0  0  0  0  0  0
   -3.4336   -2.2354    1.1641 H   0  0  0  0  0  0  0  0  0  0  0  0
   -3.2256   -2.7344   -0.5349 H   0  0  0  0  0  0  0  0  0  0  0  0
   -1.4126   -2.2444    0.4801 C   0  0  0  0  0  0  0  0  0  0  0  0
   -0.4686   -2.9534    0.8001 O   0  0  0  0  0  0  0  0  0  0  0  0
   -1.2736   -0.9704    0.1241 N   0  0  0  0  0  0  0  0  0  0  0  0
   -2.0996   -0.4354   -0.1019 H   0  0  0  0  0  0  0  0  0  0  0  0
   -0.0016   -0.2394    0.1271 C   0  0  1  0  0  0  0  0  0  0  0  0
    0.6995   -0.7619   -0.5275 H   0  0  0  0  0  0  0  0  0  0  0  0
   -0.2283    1.1832   -0.4215 C   0  0  0  0  0  0  0  0  0  0  0  0
   -0.6018    1.1225   -1.4445 H   0  0  0  0  0  0  0  0  0  0  0  0
   -0.9812    1.6932    0.1804 H   0  0  0  0  0  0  0  0  0  0  0  0
    1.0413    2.0285   -0.4594 C   0  0  0  0  0  0  0  0  0  0  0  0
    1.5386    2.5227   -1.4627 O   0  0  0  0  0  0  0  0  0  0  0  0
    1.6330    2.2123    0.7357 O   0  0  0  0  0  0  0  0  0  0  0  0
    2.3945    2.7685    0.5687 H   0  0  0  0  0  0  0  0  0  0  0  0
    0.5920   -0.2154    1.5497 C   0  0  0  0  0  0  0  0  0  0  0  0
    1.7860   -0.4596    1.7183 O   0  0  0  0  0  0  0  0  0  0  0  0
   -0.2294    0.0669    2.5672 N   0  0  0  0  0  0  0  0  0  0  0  0
   -1.2130    0.1938    2.3518 H   0  0  0  0  0  0  0  0  0  0  0  0
    0.1836    0.1337    3.9673 C   0  0  0  0  0  0  0  0  0  0  0  0
    1.0451    0.7976    4.0666 H   0  0  0  0  0  0  0  0  0  0  0  0
   -0.6344    0.5115    4.5820 H   0  0  0  0  0  0  0  0  0  0  0  0
    0.4676   -0.8609    4.3157 H   0  0  0  0  0  0  0  0  0  0  0  0
  5  6  2  0  0  0  0
  5  7  1  0  0  0  0
  2  3  1  0  0  0  0
  2  4  1  0  0  0  0
  2  5  1  0  0  0  0
  1  2  1  0  0  0  0
 18 19  2  0  0  0  0
 18 20  1  0  0  0  0
 16 17  1  0  0  0  0
 14 15  2  0  0  0  0
 14 16  1  0  0  0  0
 11 12  1  0  0  0  0
 11 13  1  0  0  0  0
 11 14  1  0  0  0  0
  9 10  1  0  0  0  0
  9 11  1  0  0  0  0
  9 18  1  0  0  0  0
  7  8  1  0  0  0  0
  7  9  1  0  0  0  0
 22 23  1  0  0  0  0
 22 24  1  0  0  0  0
 22 25  1  0  0  0  0
 20 21  1  0  0  0  0
 20 22  1  0  0  0  0
M  END
$$$$
default_name
  -OEChem-02102213163D

 25 24  0     1  0  0  0  0  0999 V2000
   -2.7826   -3.8464    0.7821 H   0  0  0  0  0  0  0  0  0  0  0  0
   -2.8156   -2.8034    0.4711 C   0  0  0  0  0  0  0  0  0  0  0  0
   -3.4336   -2.2354    1.1641 H   0  0  0  0  0  0  0  0  0  0  0  0
   -3.2256   -2.7344   -0.5349 H   0  0  0  0  0  0  0  0  0  0  0  0
   -1.4126   -2.2444    0.4801 C   0  0  0  0  0  0  0  0  0  0  0  0
   -0.4686   -2.9534    0.8001 O   0  0  0  0  0  0  0  0  0  0  0  0
   -1.2736   -0.9704    0.1241 N   0  0  0  0  0  0  0  0  0  0  0  0
   -2.0996   -0.4354   -0.1019 H   0  0  0  0  0  0  0  0  0  0  0  0
   -0.0016   -0.2394    0.1271 C   0  0  1  0  0  0  0  0  0  0  0  0
    0.6995   -0.7619   -0.5275 H   0  0  0  0  0  0  0  0  0  0  0  0
   -0.2283    1.1832   -0.4215 C   0  0  0  0  0  0  0  0  0  0  0  0
   -0.6018    1.1225   -1.4445 H   0  0  0  0  0  0  0  0  0  0  0  0
   -0.9812    1.6932    0.1804 H   0  0  0  0  0  0  0  0  0  0  0  0
    1.0413    2.0285   -0.4594 C   0  0  0  0  0  0  0  0  0  0  0  0
    1.4012    2.7322   -1.3940 O   0  0  0  0  0  0  0  0  0  0  0  0
    1.8014    1.9555    0.6492 O   0  0  0  0  0  0  0  0  0  0  0  0
    2.5434    2.5417    0.4977 H   0  0  0  0  0  0  0  0  0  0  0  0
    0.5920   -0.2154    1.5497 C   0  0  0  0  0  0  0  0  0  0  0  0
    1.7860   -0.4596    1.7183 O   0  0  0  0  0  0  0  0  0  0  0  0
   -0.2294    0.0669    2.5672 N   0  0  0  0  0  0  0  0  0  0  0  0
   -1.2130    0.1938    2.3518 H   0  0  0  0  0  0  0  0  0  0  0  0
    0.1836    0.1337    3.9673 C   0  0  0  0  0  0  0  0  0  0  0  0
    1.0451    0.7976    4.0666 H   0  0  0  0  0  0  0  0  0  0  0  0
   -0.6344    0.5115    4.5820 H   0  0  0  0  0  0  0  0  0  0  0  0
    0.4676   -0.8609    4.3157 H   0  0  0  0  0  0  0  0  0  0  0  0
  5  6  2  0  0  0  0
  5  7  1  0  0  0  0
  2  3  1  0  0  0  0
  2  4  1  0  0  0  0
  2  5  1  0  0  0  0
  1  2  1  0  0  0  0
 18 19  2  0  0  0  0
 18 20  1  0  0  0  0
 16 17  1  0  0  0  0
 14 15  2  0  0  0  0
 14 16  1  0  0  0  0
 11 12  1  0  0  0  0
 11 13  1  0  0  0  0
 11 14  1  0  0  0  0
  9 10  1  0  0  0  0
  9 11  1  0  0  0  0
  9 18  1  0  0  0  0
  7  8  1  0  0  0  0
  7  9  1  0  0  0  0
 22 23  1  0  0  0  0
 22 24  1  0  0  0  0
 22 25  1  0  0  0  0
 20 21  1  0  0  0  0
 20 22  1  0  0  0  0
M  END
$$$$
default_name
  -OEChem-02102213163D

 25 24  0     1  0  0  0  0  0999 V2000
   -2.7826   -3.8464    0.7821 H   0  0  0  0  0  0  0  0  0  0  0  0
   -2.8156   -2.8034    0.4711 C   0  0  0  0  0  0  0  0  0  0  0  0
   -3.4336   -2.2354    1.1641 H   0  0  0  0  0  0  0  0  0  0  0  0
   -3.2256   -2.7344   -0.5349 H   0  0  0  0  0  0  0  0  0  0  0  0
   -1.4126   -2.2444    0.4801 C   0  0  0  0  0  0  0  0  0  0  0  0
   -0.4686   -2.9534    0.8001 O   0  0  0  0  0  0  0  0  0  0  0  0
   -1.2736   -0.9704    0.1241 N   0  0  0  0  0  0  0  0  0  0  0  0
   -2.0996   -0.4354   -0.1019 H   0  0  0  0  0  0  0  0  0  0  0  0
   -0.0016   -0.2394    0.1271 C   0  0  1  0  0  0  0  0  0  0  0  0
    0.6995   -0.7619   -0.5275 H   0  0  0  0  0  0  0  0  0  0  0  0
   -0.2283    1.1832   -0.4215 C   0  0  0  0  0  0  0  0  0  0  0  0
   -0.6018    1.1225   -1.4445 H   0  0  0  0  0  0  0  0  0  0  0  0
   -0.9812    1.6932    0.1804 H   0  0  0  0  0  0  0  0  0  0  0  0
    1.0413    2.0285   -0.4594 C   0  0  0  0  0  0  0  0  0  0  0  0
    1.2796    2.9206   -1.2628 O   0  0  0  0  0  0  0  0  0  0  0  0
    1.9500    1.7250    0.4862 O   0  0  0  0  0  0  0  0  0  0  0  0
    2.6756    2.3369    0.3589 H   0  0  0  0  0  0  0  0  0  0  0  0
    0.5920   -0.2154    1.5497 C   0  0  0  0  0  0  0  0  0  0  0  0
    1.7860   -0.4596    1.7183 O   0  0  0  0  0  0  0  0  0  0  0  0
   -0.2294    0.0669    2.5672 N   0  0  0  0  0  0  0  0  0  0  0  0
   -1.2130    0.1938    2.3518 H   0  0  0  0  0  0  0  0  0  0  0  0
    0.1836    0.1337    3.9673 C   0  0  0  0  0  0  0  0  0  0  0  0
    1.0451    0.7976    4.0666 H   0  0  0  0  0  0  0  0  0  0  0  0
   -0.6344    0.5115    4.5820 H   0  0  0  0  0  0  0  0  0  0  0  0
    0.4676   -0.8609    4.3157 H   0  0  0  0  0  0  0  0  0  0  0  0
  5  6  2  0  0  0  0
  5  7  1  0  0  0  0
  2  3  1  0  0  0  0
  2  4  1  0  0  0  0
  2  5  1  0  0  0  0
  1  2  1  0  0  0  0
 18 19  2  0  0  0  0
 18 20  1  0  0  0  0
 16 17  1  0  0  0  0
 14 15  2  0  0  0  0
 14 16  1  0  0  0  0
 11 12  1  0  0  0  0
 11 13  1  0  0  0  0
 11 14  1  0  0  0  0
  9 10  1  0  0  0  0
  9 11  1  0  0  0  0
  9 18  1  0  0  0  0
  7  8  1  0  0  0  0
  7  9  1  0  0  0  0
 22 23  1  0  0  0  0
 22 24  1  0  0  0  0
 22 25  1  0  0  0  0
 20 21  1  0  0  0  0
 20 22  1  0  0  0  0
M  END
$$$$
default_name
  -OEChem-02102213163D

 25 24  0     1  0  0  0  0  0999 V2000
   -2.7826   -3.8464    0.7821 H   0  0  0  0  0  0  0  0  0  0  0  0
   -2.8156   -2.8034    0.4711 C   0  0  0  0  0  0  0  0  0  0  0  0
   -3.4336   -2.2354    1.1641 H   0  0  0  0  0  0  0  0  0  0  0  0
   -3.2256   -2.7344   -0.5349 H   0  0  0  0  0  0  0  0  0  0  0  0
   -1.4126   -2.2444    0.4801 C   0  0  0  0  0  0  0  0  0  0  0  0
   -0.4686   -2.9534    0.8001 O   0  0  0  0  0  0  0  0  0  0  0  0
   -1.2736   -0.9704    0.1241 N   0  0  0  0  0  0  0  0  0  0  0  0
   -2.0996   -0.4354   -0.1019 H   0  0  0  0  0  0  0  0  0  0  0  0
   -0.0016   -0.2394    0.1271 C   0  0  1  0  0  0  0  0  0  0  0  0
    0.6995   -0.7619   -0.5275 H   0  0  0  0  0  0  0  0  0  0  0  0
   -0.2283    1.1832   -0.4215 C   0  0  0  0  0  0  0  0  0  0  0  0
   -0.6018    1.1225   -1.4445 H   0  0  0  0  0  0  0  0  0  0  0  0
   -0.9812    1.6932    0.1804 H   0  0  0  0  0  0  0  0  0  0  0  0
    1.0413    2.0285   -0.4594 C   0  0  0  0  0  0  0  0  0  0  0  0
    1.1822    3.0752   -1.0781 O   0  0  0  0  0  0  0  0  0  0  0  0
    2.0687    1.5365    0.2579 O   0  0  0  0  0  0  0  0  0  0  0  0
    2.7821    2.1682    0.1618 H   0  0  0  0  0  0  0  0  0  0  0  0
    0.5920   -0.2154    1.5497 C   0  0  0  0  0  0  0  0  0  0  0  0
    1.7860   -0.4596    1.7183 O   0  0  0  0  0  0  0  0  0  0  0  0
   -0.2294    0.0669    2.5672 N   0  0  0  0  0  0  0  0  0  0  0  0
   -1.2130    0.1938    2.3518 H   0  0  0  0  0  0  0  0  0  0  0  0
    0.1836    0.1337    3.9673 C   0  0  0  0  0  0  0  0  0  0  0  0
    1.0451    0.7976    4.0666 H   0  0  0  0  0  0  0  0  0  0  0  0
   -0.6344    0.5115    4.5820 H   0  0  0  0  0  0  0  0  0  0  0  0
    0.4676   -0.8609    4.3157 H   0  0  0  0  0  0  0  0  0  0  0  0
  5  6  2  0  0  0  0
  5  7  1  0  0  0  0
  2  3  1  0  0  0  0
  2  4  1  0  0  0  0
  2  5  1  0  0  0  0
  1  2  1  0  0  0  0
 18 19  2  0  0  0  0
 18 20  1  0  0  0  0
 16 17  1  0  0  0  0
 14 15  2  0  0  0  0
 14 16  1  0  0  0  0
 11 12  1  0  0  0  0
 11 13  1  0  0  0  0
 11 14  1  0  0  0  0
  9 10  1  0  0  0  0
  9 11  1  0  0  0  0
  9 18  1  0  0  0  0
  7  8  1  0  0  0  0
  7  9  1  0  0  0  0
 22 23  1  0  0  0  0
 22 24  1  0  0  0  0
 22 25  1  0  0  0  0
 20 21  1  0  0  0  0
 20 22  1  0  0  0  0
M  END
$$$$
default_name
  -OEChem-02102213163D

 25 24  0     1  0  0  0  0  0999 V2000
   -2.7826   -3.8464    0.7821 H   0  0  0  0  0  0  0  0  0  0  0  0
   -2.8156   -2.8034    0.4711 C   0  0  0  0  0  0  0  0  0  0  0  0
   -3.4336   -2.2354    1.1641 H   0  0  0  0  0  0  0  0  0  0  0  0
   -3.2256   -2.7344   -0.5349 H   0  0  0  0  0  0  0  0  0  0  0  0
   -1.4126   -2.2444    0.4801 C   0  0  0  0  0  0  0  0  0  0  0  0
   -0.4686   -2.9534    0.8001 O   0  0  0  0  0  0  0  0  0  0  0  0
   -1.2736   -0.9704    0.1241 N   0  0  0  0  0  0  0  0  0  0  0  0
   -2.0996   -0.4354   -0.1019 H   0  0  0  0  0  0  0  0  0  0  0  0
   -0.0016   -0.2394    0.1271 C   0  0  1  0  0  0  0  0  0  0  0  0
    0.6995   -0.7619   -0.5275 H   0  0  0  0  0  0  0  0  0  0  0  0
   -0.2283    1.1832   -0.4215 C   0  0  0  0  0  0  0  0  0  0  0  0
   -0.8408    1.1314   -1.3225 H   0  0  0  0  0  0  0  0  0  0  0  0
   -0.7667    1.7797    0.3158 H   0  0  0  0  0  0  0  0  0  0  0  0
    1.0638    1.9004   -0.8009 C   0  0  0  0  0  0  0  0  0  0  0  0
    1.1423    3.0336   -1.2568 O   0  0  0  0  0  0  0  0  0  0  0  0
    2.1858    1.1825   -0.6068 O   0  0  0  0  0  0  0  0  0  0  0  0
    2.9105    1.7535   -0.8640 H   0  0  0  0  0  0  0  0  0  0  0  0
    0.5920   -0.2154    1.5497 C   0  0  0  0  0  0  0  0  0  0  0  0
    1.7860   -0.4596    1.7183 O   0  0  0  0  0  0  0  0  0  0  0  0
   -0.2294    0.0669    2.5672 N   0  0  0  0  0  0  0  0  0  0  0  0
   -1.2130    0.1938    2.3518 H   0  0  0  0  0  0  0  0  0  0  0  0
    0.1836    0.1337    3.9673 C   0  0  0  0  0  0  0  0  0  0  0  0
    1.0451    0.7976    4.0666 H   0  0  0  0  0  0  0  0  0  0  0  0
   -0.6344    0.5115    4.5820 H   0  0  0  0  0  0  0  0  0  0  0  0
    0.4676   -0.8609    4.3157 H   0  0  0  0  0  0  0  0  0  0  0  0
  5  6  2  0  0  0  0
  5  7  1  0  0  0  0
  2  3  1  0  0  0  0
  2  4  1  0  0  0  0
  2  5  1  0  0  0  0
  1  2  1  0  0  0  0
 18 19  2  0  0  0  0
 18 20  1  0  0  0  0
 16 17  1  0  0  0  0
 14 15  2  0  0  0  0
 14 16  1  0  0  0  0
 11 12  1  0  0  0  0
 11 13  1  0  0  0  0
 11 14  1  0  0  0  0
  9 10  1  0  0  0  0
  9 11  1  0  0  0  0
  9 18  1  0  0  0  0
  7  8  1  0  0  0  0
  7  9  1  0  0  0  0
 22 23  1  0  0  0  0
 22 24  1  0  0  0  0
 22 25  1  0  0  0  0
 20 21  1  0  0  0  0
 20 22  1  0  0  0  0
M  END
$$$$
default_name
  -OEChem-02102213163D

 25 24  0     1  0  0  0  0  0999 V2000
   -2.7826   -3.8464    0.7821 H   0  0  0  0  0  0  0  0  0  0  0  0
   -2.8156   -2.8034    0.4711 C   0  0  0  0  0  0  0  0  0  0  0  0
   -3.4336   -2.2354    1.1641 H   0  0  0  0  0  0  0  0  0  0  0  0
   -3.2256   -2.7344   -0.5349 H   0  0  0  0  0  0  0  0  0  0  0  0
   -1.4126   -2.2444    0.4801 C   0  0  0  0  0  0  0  0  0  0  0  0
   -0.4686   -2.9534    0.8001 O   0  0  0  0  0  0  0  0  0  0  0  0
   -1.2736   -0.9704    0.1241 N   0  0  0  0  0  0  0  0  0  0  0  0
   -2.0996   -0.4354   -0.1019 H   0  0  0  0  0  0  0  0  0  0  0  0
   -0.0016   -0.2394    0.1271 C   0  0  1  0  0  0  0  0  0  0  0  0
    0.6995   -0.7619   -0.5275 H   0  0  0  0  0  0  0  0  0  0  0  0
   -0.2283    1.1832   -0.4215 C   0  0  0  0  0  0  0  0  0  0  0  0
   -0.8408    1.1314   -1.3225 H   0  0  0  0  0  0  0  0  0  0  0  0
   -0.7667    1.7797    0.3158 H   0  0  0  0  0  0  0  0  0  0  0  0
    1.0638    1.9004   -0.8009 C   0  0  0  0  0  0  0  0  0  0  0  0
    1.1776    3.1013   -1.0084 O   0  0  0  0  0  0  0  0  0  0  0  0
    2.1413    1.1013   -0.9120 O   0  0  0  0  0  0  0  0  0  0  0  0
    2.8740    1.6777   -1.1315 H   0  0  0  0  0  0  0  0  0  0  0  0
    0.5920   -0.2154    1.5497 C   0  0  0  0  0  0  0  0  0  0  0  0
    1.7860   -0.4596    1.7183 O   0  0  0  0  0  0  0  0  0  0  0  0
   -0.2294    0.0669    2.5672 N   0  0  0  0  0  0  0  0  0  0  0  0
   -1.2130    0.1938    2.3518 H   0  0  0  0  0  0  0  0  0  0  0  0
    0.1836    0.1337    3.9673 C   0  0  0  0  0  0  0  0  0  0  0  0
    1.0451    0.7976    4.0666 H   0  0  0  0  0  0  0  0  0  0  0  0
   -0.6344    0.5115    4.5820 H   0  0  0  0  0  0  0  0  0  0  0  0
    0.4676   -0.8609    4.3157 H   0  0  0  0  0  0  0  0  0  0  0  0
  5  6  2  0  0  0  0
  5  7  1  0  0  0  0
  2  3  1  0  0  0  0
  2  4  1  0  0  0  0
  2  5  1  0  0  0  0
  1  2  1  0  0  0  0
 18 19  2  0  0  0  0
 18 20  1  0  0  0  0
 16 17  1  0  0  0  0
 14 15  2  0  0  0  0
 14 16  1  0  0  0  0
 11 12  1  0  0  0  0
 11 13  1  0  0  0  0
 11 14  1  0  0  0  0
  9 10  1  0  0  0  0
  9 11  1  0  0  0  0
  9 18  1  0  0  0  0
  7  8  1  0  0  0  0
  7  9  1  0  0  0  0
 22 23  1  0  0  0  0
 22 24  1  0  0  0  0
 22 25  1  0  0  0  0
 20 21  1  0  0  0  0
 20 22  1  0  0  0  0
M  END
$$$$
default_name
  -OEChem-02102213163D

 25 24  0     1  0  0  0  0  0999 V2000
   -2.7826   -3.8464    0.7821 H   0  0  0  0  0  0  0  0  0  0  0  0
   -2.8156   -2.8034    0.4711 C   0  0  0  0  0  0  0  0  0  0  0  0
   -3.4336   -2.2354    1.1641 H   0  0  0  0  0  0  0  0  0  0  0  0
   -3.2256   -2.7344   -0.5349 H   0  0  0  0  0  0  0  0  0  0  0  0
   -1.4126   -2.2444    0.4801 C   0  0  0  0  0  0  0  0  0  0  0  0
   -0.4686   -2.9534    0.8001 O   0  0  0  0  0  0  0  0  0  0  0  0
   -1.2736   -0.9704    0.1241 N   0  0  0  0  0  0  0  0  0  0  0  0
   -2.0996   -0.4354   -0.1019 H   0  0  0  0  0  0  0  0  0  0  0  0
   -0.0016   -0.2394    0.1271 C   0  0  1  0  0  0  0  0  0  0  0  0
    0.6995   -0.7619   -0.5275 H   0  0  0  0  0  0  0  0  0  0  0  0
   -0.2283    1.1832   -0.4215 C   0  0  0  0  0  0  0  0  0  0  0  0
   -0.8408    1.1314   -1.3225 H   0  0  0  0  0  0  0  0  0  0  0  0
   -0.7667    1.7797    0.3158 H   0  0  0  0  0  0  0  0  0  0  0  0
    1.0638    1.9004   -0.8009 C   0  0  0  0  0  0  0  0  0  0  0  0
    1.2463    3.1100   -0.7580 O   0  0  0  0  0  0  0  0  0  0  0  0
    2.0560    1.0926   -1.2193 O   0  0  0  0  0  0  0  0  0  0  0  0
    2.8014    1.6655   -1.4021 H   0  0  0  0  0  0  0  0  0  0  0  0
    0.5920   -0.2154    1.5497 C   0  0  0  0  0  0  0  0  0  0  0  0
    1.7860   -0.4596    1.7183 O   0  0  0  0  0  0  0  0  0  0  0  0
   -0.2294    0.0669    2.5672 N   0  0  0  0  0  0  0  0  0  0  0  0
   -1.2130    0.1938    2.3518 H   0  0  0  0  0  0  0  0  0  0  0  0
    0.1836    0.1337    3.9673 C   0  0  0  0  0  0  0  0  0  0  0  0
    1.0451    0.7976    4.0666 H   0  0  0  0  0  0  0  0  0  0  0  0
   -0.6344    0.5115    4.5820 H   0  0  0  0  0  0  0  0  0  0  0  0
    0.4676   -0.8609    4.3157 H   0  0  0  0  0  0  0  0  0  0  0  0
  5  6  2  0  0  0  0
  5  7  1  0  0  0  0
  2  3  1  0  0  0  0
  2  4  1  0  0  0  0
  2  5  1  0  0  0  0
  1  2  1  0  0  0  0
 18 19  2  0  0  0  0
 18 20  1  0  0  0  0
 16 17  1  0  0  0  0
 14 15  2  0  0  0  0
 14 16  1  0  0  0  0
 11 12  1  0  0  0  0
 11 13  1  0  0  0  0
 11 14  1  0  0  0  0
  9 10  1  0  0  0  0
  9 11  1  0  0  0  0
  9 18  1  0  0  0  0
  7  8  1  0  0  0  0
  7  9  1  0  0  0  0
 22 23  1  0  0  0  0
 22 24  1  0  0  0  0
 22 25  1  0  0  0  0
 20 21  1  0  0  0  0
 20 22  1  0  0  0  0
M  END
$$$$
default_name
  -OEChem-02102213163D

 25 24  0     1  0  0  0  0  0999 V2000
   -2.7826   -3.8464    0.7821 H   0  0  0  0  0  0  0  0  0  0  0  0
   -2.8156   -2.8034    0.4711 C   0  0  0  0  0  0  0  0  0  0  0  0
   -3.4336   -2.2354    1.1641 H   0  0  0  0  0  0  0  0  0  0  0  0
   -3.2256   -2.7344   -0.5349 H   0  0  0  0  0  0  0  0  0  0  0  0
   -1.4126   -2.2444    0.4801 C   0  0  0  0  0  0  0  0  0  0  0  0
   -0.4686   -2.9534    0.8001 O   0  0  0  0  0  0  0  0  0  0  0  0
   -1.2736   -0.9704    0.1241 N   0  0  0  0  0  0  0  0  0  0  0  0
   -2.0996   -0.4354   -0.1019 H   0  0  0  0  0  0  0  0  0  0  0  0
   -0.0016   -0.2394    0.1271 C   0  0  1  0  0  0  0  0  0  0  0  0
    0.6995   -0.7619   -0.5275 H   0  0  0  0  0  0  0  0  0  0  0  0
   -0.2283    1.1832   -0.4215 C   0  0  0  0  0  0  0  0  0  0  0  0
   -0.8408    1.1314   -1.3225 H   0  0  0  0  0  0  0  0  0  0  0  0
   -0.7667    1.7797    0.3158 H   0  0  0  0  0  0  0  0  0  0  0  0
    1.0638    1.9004   -0.8009 C   0  0  0  0  0  0  0  0  0  0  0  0
    1.3437    3.0591   -0.5226 O   0  0  0  0  0  0  0  0  0  0  0  0
    1.9355    1.1570   -1.5076 O   0  0  0  0  0  0  0  0  0  0  0  0
    2.6975    1.7176   -1.6573 H   0  0  0  0  0  0  0  0  0  0  0  0
    0.5920   -0.2154    1.5497 C   0  0  0  0  0  0  0  0  0  0  0  0
    1.7860   -0.4596    1.7183 O   0  0  0  0  0  0  0  0  0  0  0  0
   -0.2294    0.0669    2.5672 N   0  0  0  0  0  0  0  0  0  0  0  0
   -1.2130    0.1938    2.3518 H   0  0  0  0  0  0  0  0  0  0  0  0
    0.1836    0.1337    3.9673 C   0  0  0  0  0  0  0  0  0  0  0  0
    1.0451    0.7976    4.0666 H   0  0  0  0  0  0  0  0  0  0  0  0
   -0.6344    0.5115    4.5820 H   0  0  0  0  0  0  0  0  0  0  0  0
    0.4676   -0.8609    4.3157 H   0  0  0  0  0  0  0  0  0  0  0  0
  5  6  2  0  0  0  0
  5  7  1  0  0  0  0
  2  3  1  0  0  0  0
  2  4  1  0  0  0  0
  2  5  1  0  0  0  0
  1  2  1  0  0  0  0
 18 19  2  0  0  0  0
 18 20  1  0  0  0  0
 16 17  1  0  0  0  0
 14 15  2  0  0  0  0
 14 16  1  0  0  0  0
 11 12  1  0  0  0  0
 11 13  1  0  0  0  0
 11 14  1  0  0  0  0
  9 10  1  0  0  0  0
  9 11  1  0  0  0  0
  9 18  1  0  0  0  0
  7  8  1  0  0  0  0
  7  9  1  0  0  0  0
 22 23  1  0  0  0  0
 22 24  1  0  0  0  0
 22 25  1  0  0  0  0
 20 21  1  0  0  0  0
 20 22  1  0  0  0  0
M  END
$$$$
default_name
  -OEChem-02102213163D

 25 24  0     1  0  0  0  0  0999 V2000
   -2.7826   -3.8464    0.7821 H   0  0  0  0  0  0  0  0  0  0  0  0
   -2.8156   -2.8034    0.4711 C   0  0  0  0  0  0  0  0  0  0  0  0
   -3.4336   -2.2354    1.1641 H   0  0  0  0  0  0  0  0  0  0  0  0
   -3.2256   -2.7344   -0.5349 H   0  0  0  0  0  0  0  0  0  0  0  0
   -1.4126   -2.2444    0.4801 C   0  0  0  0  0  0  0  0  0  0  0  0
   -0.4686   -2.9534    0.8001 O   0  0  0  0  0  0  0  0  0  0  0  0
   -1.2736   -0.9704    0.1241 N   0  0  0  0  0  0  0  0  0  0  0  0
   -2.0996   -0.4354   -0.1019 H   0  0  0  0  0  0  0  0  0  0  0  0
   -0.0016   -0.2394    0.1271 C   0  0  1  0  0  0  0  0  0  0  0  0
    0.6995   -0.7619   -0.5275 H   0  0  0  0  0  0  0  0  0  0  0  0
   -0.2283    1.1832   -0.4215 C   0  0  0  0  0  0  0  0  0  0  0  0
   -0.8408    1.1314   -1.3225 H   0  0  0  0  0  0  0  0  0  0  0  0
   -0.7667    1.7797    0.3158 H   0  0  0  0  0  0  0  0  0  0  0  0
    1.0638    1.9004   -0.8009 C   0  0  0  0  0  0  0  0  0  0  0  0
    1.4631    2.9520   -0.3182 O   0  0  0  0  0  0  0  0  0  0  0  0
    1.7883    1.2902   -1.7573 O   0  0  0  0  0  0  0  0  0  0  0  0
    2.5694    1.8307   -1.8797 H   0  0  0  0  0  0  0  0  0  0  0  0
    0.5920   -0.2154    1.5497 C   0  0  0  0  0  0  0  0  0  0  0  0
    1.7860   -0.4596    1.7183 O   0  0  0  0  0  0  0  0  0  0  0  0
   -0.2294    0.0669    2.5672 N   0  0  0  0  0  0  0  0  0  0  0  0
   -1.2130    0.1938    2.3518 H   0  0  0  0  0  0  0  0  0  0  0  0
    0.1836    0.1337    3.9673 C   0  0  0  0  0  0  0  0  0  0  0  0
    1.0451    0.7976    4.0666 H   0  0  0  0  0  0  0  0  0  0  0  0
   -0.6344    0.5115    4.5820 H   0  0  0  0  0  0  0  0  0  0  0  0
    0.4676   -0.8609    4.3157 H   0  0  0  0  0  0  0  0  0  0  0  0
  5  6  2  0  0  0  0
  5  7  1  0  0  0  0
  2  3  1  0  0  0  0
  2  4  1  0  0  0  0
  2  5  1  0  0  0  0
  1  2  1  0  0  0  0
 18 19  2  0  0  0  0
 18 20  1  0  0  0  0
 16 17  1  0  0  0  0
 14 15  2  0  0  0  0
 14 16  1  0  0  0  0
 11 12  1  0  0  0  0
 11 13  1  0  0  0  0
 11 14  1  0  0  0  0
  9 10  1  0  0  0  0
  9 11  1  0  0  0  0
  9 18  1  0  0  0  0
  7  8  1  0  0  0  0
  7  9  1  0  0  0  0
 22 23  1  0  0  0  0
 22 24  1  0  0  0  0
 22 25  1  0  0  0  0
 20 21  1  0  0  0  0
 20 22  1  0  0  0  0
M  END
$$$$
default_name
  -OEChem-02102213163D

 25 24  0     1  0  0  0  0  0999 V2000
   -2.7826   -3.8464    0.7821 H   0  0  0  0  0  0  0  0  0  0  0  0
   -2.8156   -2.8034    0.4711 C   0  0  0  0  0  0  0  0  0  0  0  0
   -3.4336   -2.2354    1.1641 H   0  0  0  0  0  0  0  0  0  0  0  0
   -3.2256   -2.7344   -0.5349 H   0  0  0  0  0  0  0  0  0  0  0  0
   -1.4126   -2.2444    0.4801 C   0  0  0  0  0  0  0  0  0  0  0  0
   -0.4686   -2.9534    0.8001 O   0  0  0  0  0  0  0  0  0  0  0  0
   -1.2736   -0.9704    0.1241 N   0  0  0  0  0  0  0  0  0  0  0  0
   -2.0996   -0.4354   -0.1019 H   0  0  0  0  0  0  0  0  0  0  0  0
   -0.0016   -0.2394    0.1271 C   0  0  1  0  0  0  0  0  0  0  0  0
    0.6995   -0.7619   -0.5275 H   0  0  0  0  0  0  0  0  0  0  0  0
   -0.2283    1.1832   -0.4215 C   0  0  0  0  0  0  0  0  0  0  0  0
   -0.8408    1.1314   -1.3225 H   0  0  0  0  0  0  0  0  0  0  0  0
   -0.7667    1.7797    0.3158 H   0  0  0  0  0  0  0  0  0  0  0  0
    1.0638    1.9004   -0.8009 C   0  0  0  0  0  0  0  0  0  0  0  0
    1.5965    2.7961   -0.1588 O   0  0  0  0  0  0  0  0  0  0  0  0
    1.6243    1.4831   -1.9514 O   0  0  0  0  0  0  0  0  0  0  0  0
    2.4260    1.9968   -2.0542 H   0  0  0  0  0  0  0  0  0  0  0  0
    0.5920   -0.2154    1.5497 C   0  0  0  0  0  0  0  0  0  0  0  0
    1.7860   -0.4596    1.7183 O   0  0  0  0  0  0  0  0  0  0  0  0
   -0.2294    0.0669    2.5672 N   0  0  0  0  0  0  0  0  0  0  0  0
   -1.2130    0.1938    2.3518 H   0  0  0  0  0  0  0  0  0  0  0  0
    0.1836    0.1337    3.9673 C   0  0  0  0  0  0  0  0  0  0  0  0
    1.0451    0.7976    4.0666 H   0  0  0  0  0  0  0  0  0  0  0  0
   -0.6344    0.5115    4.5820 H   0  0  0  0  0  0  0  0  0  0  0  0
    0.4676   -0.8609    4.3157 H   0  0  0  0  0  0  0  0  0  0  0  0
  5  6  2  0  0  0  0
  5  7  1  0  0  0  0
  2  3  1  0  0  0  0
  2  4  1  0  0  0  0
  2  5  1  0  0  0  0
  1  2  1  0  0  0  0
 18 19  2  0  0  0  0
 18 20  1  0  0  0  0
 16 17  1  0  0  0  0
 14 15  2  0  0  0  0
 14 16  1  0  0  0  0
 11 12  1  0  0  0  0
 11 13  1  0  0  0  0
 11 14  1  0  0  0  0
  9 10  1  0  0  0  0
  9 11  1  0  0  0  0
  9 18  1  0  0  0  0
  7  8  1  0  0  0  0
  7  9  1  0  0  0  0
 22 23  1  0  0  0  0
 22 24  1  0  0  0  0
 22 25  1  0  0  0  0
 20 21  1  0  0  0  0
 20 22  1  0  0  0  0
M  END
$$$$
default_name
  -OEChem-02102213163D

 25 24  0     1  0  0  0  0  0999 V2000
   -2.7826   -3.8464    0.7821 H   0  0  0  0  0  0  0  0  0  0  0  0
   -2.8156   -2.8034    0.4711 C   0  0  0  0  0  0  0  0  0  0  0  0
   -3.4336   -2.2354    1.1641 H   0  0  0  0  0  0  0  0  0  0  0  0
   -3.2256   -2.7344   -0.5349 H   0  0  0  0  0  0  0  0  0  0  0  0
   -1.4126   -2.2444    0.4801 C   0  0  0  0  0  0  0  0  0  0  0  0
   -0.4686   -2.9534    0.8001 O   0  0  0  0  0  0  0  0  0  0  0  0
   -1.2736   -0.9704    0.1241 N   0  0  0  0  0  0  0  0  0  0  0  0
   -2.0996   -0.4354   -0.1019 H   0  0  0  0  0  0  0  0  0  0  0  0
   -0.0016   -0.2394    0.1271 C   0  0  1  0  0  0  0  0  0  0  0  0
    0.6995   -0.7619   -0.5275 H   0  0  0  0  0  0  0  0  0  0  0  0
   -0.2283    1.1832   -0.4215 C   0  0  0  0  0  0  0  0  0  0  0  0
   -0.8408    1.1314   -1.3225 H   0  0  0  0  0  0  0  0  0  0  0  0
   -0.7667    1.7797    0.3158 H   0  0  0  0  0  0  0  0  0  0  0  0
    1.0638    1.9004   -0.8009 C   0  0  0  0  0  0  0  0  0  0  0  0
    1.7347    2.6020   -0.0552 O   0  0  0  0  0  0  0  0  0  0  0  0
    1.4547    1.7224   -2.0766 O   0  0  0  0  0  0  0  0  0  0  0  0
    2.2769    2.2048   -2.1689 H   0  0  0  0  0  0  0  0  0  0  0  0
    0.5920   -0.2154    1.5497 C   0  0  0  0  0  0  0  0  0  0  0  0
    1.7860   -0.4596    1.7183 O   0  0  0  0  0  0  0  0  0  0  0  0
   -0.2294    0.0669    2.5672 N   0  0  0  0  0  0  0  0  0  0  0  0
   -1.2130    0.1938    2.3518 H   0  0  0  0  0  0  0  0  0  0  0  0
    0.1836    0.1337    3.9673 C   0  0  0  0  0  0  0  0  0  0  0  0
    1.0451    0.7976    4.0666 H   0  0  0  0  0  0  0  0  0  0  0  0
   -0.6344    0.5115    4.5820 H   0  0  0  0  0  0  0  0  0  0  0  0
    0.4676   -0.8609    4.3157 H   0  0  0  0  0  0  0  0  0  0  0  0
  5  6  2  0  0  0  0
  5  7  1  0  0  0  0
  2  3  1  0  0  0  0
  2  4  1  0  0  0  0
  2  5  1  0  0  0  0
  1  2  1  0  0  0  0
 18 19  2  0  0  0  0
 18 20  1  0  0  0  0
 16 17  1  0  0  0  0
 14 15  2  0  0  0  0
 14 16  1  0  0  0  0
 11 12  1  0  0  0  0
 11 13  1  0  0  0  0
 11 14  1  0  0  0  0
  9 10  1  0  0  0  0
  9 11  1  0  0  0  0
  9 18  1  0  0  0  0
  7  8  1  0  0  0  0
  7  9  1  0  0  0  0
 22 23  1  0  0  0  0
 22 24  1  0  0  0  0
 22 25  1  0  0  0  0
 20 21  1  0  0  0  0
 20 22  1  0  0  0  0
M  END
$$$$
default_name
  -OEChem-02102213163D

 25 24  0     1  0  0  0  0  0999 V2000
   -2.7826   -3.8464    0.7821 H   0  0  0  0  0  0  0  0  0  0  0  0
   -2.8156   -2.8034    0.4711 C   0  0  0  0  0  0  0  0  0  0  0  0
   -3.4336   -2.2354    1.1641 H   0  0  0  0  0  0  0  0  0  0  0  0
   -3.2256   -2.7344   -0.5349 H   0  0  0  0  0  0  0  0  0  0  0  0
   -1.4126   -2.2444    0.4801 C   0  0  0  0  0  0  0  0  0  0  0  0
   -0.4686   -2.9534    0.8001 O   0  0  0  0  0  0  0  0  0  0  0  0
   -1.2736   -0.9704    0.1241 N   0  0  0  0  0  0  0  0  0  0  0  0
   -2.0996   -0.4354   -0.1019 H   0  0  0  0  0  0  0  0  0  0  0  0
   -0.0016   -0.2394    0.1271 C   0  0  1  0  0  0  0  0  0  0  0  0
    0.6995   -0.7619   -0.5275 H   0  0  0  0  0  0  0  0  0  0  0  0
   -0.2283    1.1832   -0.4215 C   0  0  0  0  0  0  0  0  0  0  0  0
   -0.8408    1.1314   -1.3225 H   0  0  0  0  0  0  0  0  0  0  0  0
   -0.7667    1.7797    0.3158 H   0  0  0  0  0  0  0  0  0  0  0  0
    1.0638    1.9004   -0.8009 C   0  0  0  0  0  0  0  0  0  0  0  0
    1.8682    2.3829   -0.0145 O   0  0  0  0  0  0  0  0  0  0  0  0
    1.2910    1.9920   -2.1245 O   0  0  0  0  0  0  0  0  0  0  0  0
    2.1323    2.4404   -2.2160 H   0  0  0  0  0  0  0  0  0  0  0  0
    0.5920   -0.2154    1.5497 C   0  0  0  0  0  0  0  0  0  0  0  0
    1.7860   -0.4596    1.7183 O   0  0  0  0  0  0  0  0  0  0  0  0
   -0.2294    0.0669    2.5672 N   0  0  0  0  0  0  0  0  0  0  0  0
   -1.2130    0.1938    2.3518 H   0  0  0  0  0  0  0  0  0  0  0  0
    0.1836    0.1337    3.9673 C   0  0  0  0  0  0  0  0  0  0  0  0
    1.0451    0.7976    4.0666 H   0  0  0  0  0  0  0  0  0  0  0  0
   -0.6344    0.5115    4.5820 H   0  0  0  0  0  0  0  0  0  0  0  0
    0.4676   -0.8609    4.3157 H   0  0  0  0  0  0  0  0  0  0  0  0
  5  6  2  0  0  0  0
  5  7  1  0  0  0  0
  2  3  1  0  0  0  0
  2  4  1  0  0  0  0
  2  5  1  0  0  0  0
  1  2  1  0  0  0  0
 18 19  2  0  0  0  0
 18 20  1  0  0  0  0
 16 17  1  0  0  0  0
 14 15  2  0  0  0  0
 14 16  1  0  0  0  0
 11 12  1  0  0  0  0
 11 13  1  0  0  0  0
 11 14  1  0  0  0  0
  9 10  1  0  0  0  0
  9 11  1  0  0  0  0
  9 18  1  0  0  0  0
  7  8  1  0  0  0  0
  7  9  1  0  0  0  0
 22 23  1  0  0  0  0
 22 24  1  0  0  0  0
 22 25  1  0  0  0  0
 20 21  1  0  0  0  0
 20 22  1  0  0  0  0
M  END
$$$$
default_name
  -OEChem-02102213163D

 25 24  0     1  0  0  0  0  0999 V2000
   -2.7826   -3.8464    0.7821 H   0  0  0  0  0  0  0  0  0  0  0  0
   -2.8156   -2.8034    0.4711 C   0  0  0  0  0  0  0  0  0  0  0  0
   -3.4336   -2.2354    1.1641 H   0  0  0  0  0  0  0  0  0  0  0  0
   -3.2256   -2.7344   -0.5349 H   0  0  0  0  0  0  0  0  0  0  0  0
   -1.4126   -2.2444    0.4801 C   0  0  0  0  0  0  0  0  0  0  0  0
   -0.4686   -2.9534    0.8001 O   0  0  0  0  0  0  0  0  0  0  0  0
   -1.2736   -0.9704    0.1241 N   0  0  0  0  0  0  0  0  0  0  0  0
   -2.0996   -0.4354   -0.1019 H   0  0  0  0  0  0  0  0  0  0  0  0
   -0.0016   -0.2394    0.1271 C   0  0  1  0  0  0  0  0  0  0  0  0
    0.6995   -0.7619   -0.5275 H   0  0  0  0  0  0  0  0  0  0  0  0
   -0.2283    1.1832   -0.4215 C   0  0  0  0  0  0  0  0  0  0  0  0
   -0.8408    1.1314   -1.3225 H   0  0  0  0  0  0  0  0  0  0  0  0
   -0.7667    1.7797    0.3158 H   0  0  0  0  0  0  0  0  0  0  0  0
    1.0638    1.9004   -0.8009 C   0  0  0  0  0  0  0  0  0  0  0  0
    1.9881    2.1537   -0.0394 O   0  0  0  0  0  0  0  0  0  0  0  0
    1.1444    2.2734   -2.0917 O   0  0  0  0  0  0  0  0  0  0  0  0
    2.0020    2.6876   -2.1922 H   0  0  0  0  0  0  0  0  0  0  0  0
    0.5920   -0.2154    1.5497 C   0  0  0  0  0  0  0  0  0  0  0  0
    1.7860   -0.4596    1.7183 O   0  0  0  0  0  0  0  0  0  0  0  0
   -0.2294    0.0669    2.5672 N   0  0  0  0  0  0  0  0  0  0  0  0
   -1.2130    0.1938    2.3518 H   0  0  0  0  0  0  0  0  0  0  0  0
    0.1836    0.1337    3.9673 C   0  0  0  0  0  0  0  0  0  0  0  0
    1.0451    0.7976    4.0666 H   0  0  0  0  0  0  0  0  0  0  0  0
   -0.6344    0.5115    4.5820 H   0  0  0  0  0  0  0  0  0  0  0  0
    0.4676   -0.8609    4.3157 H   0  0  0  0  0  0  0  0  0  0  0  0
  5  6  2  0  0  0  0
  5  7  1  0  0  0  0
  2  3  1  0  0  0  0
  2  4  1  0  0  0  0
  2  5  1  0  0  0  0
  1  2  1  0  0  0  0
 18 19  2  0  0  0  0
 18 20  1  0  0  0  0
 16 17  1  0  0  0  0
 14 15  2  0  0  0  0
 14 16  1  0  0  0  0
 11 12  1  0  0  0  0
 11 13  1  0  0  0  0
 11 14  1  0  0  0  0
  9 10  1  0  0  0  0
  9 11  1  0  0  0  0
  9 18  1  0  0  0  0
  7  8  1  0  0  0  0
  7  9  1  0  0  0  0
 22 23  1  0  0  0  0
 22 24  1  0  0  0  0
 22 25  1  0  0  0  0
 20 21  1  0  0  0  0
 20 22  1  0  0  0  0
M  END
$$$$
default_name
  -OEChem-02102213163D

 25 24  0     1  0  0  0  0  0999 V2000
   -2.7826   -3.8464    0.7821 H   0  0  0  0  0  0  0  0  0  0  0  0
   -2.8156   -2.8034    0.4711 C   0  0  0  0  0  0  0  0  0  0  0  0
   -3.4336   -2.2354    1.1641 H   0  0  0  0  0  0  0  0  0  0  0  0
   -3.2256   -2.7344   -0.5349 H   0  0  0  0  0  0  0  0  0  0  0  0
   -1.4126   -2.2444    0.4801 C   0  0  0  0  0  0  0  0  0  0  0  0
   -0.4686   -2.9534    0.8001 O   0  0  0  0  0  0  0  0  0  0  0  0
   -1.2736   -0.9704    0.1241 N   0  0  0  0  0  0  0  0  0  0  0  0
   -2.0996   -0.4354   -0.1019 H   0  0  0  0  0  0  0  0  0  0  0  0
   -0.0016   -0.2394    0.1271 C   0  0  1  0  0  0  0  0  0  0  0  0
    0.6995   -0.7619   -0.5275 H   0  0  0  0  0  0  0  0  0  0  0  0
   -0.2283    1.1832   -0.4215 C   0  0  0  0  0  0  0  0  0  0  0  0
   -0.8408    1.1314   -1.3225 H   0  0  0  0  0  0  0  0  0  0  0  0
   -0.7667    1.7797    0.3158 H   0  0  0  0  0  0  0  0  0  0  0  0
    1.0638    1.9004   -0.8009 C   0  0  0  0  0  0  0  0  0  0  0  0
    2.0861    1.9301   -0.1283 O   0  0  0  0  0  0  0  0  0  0  0  0
    1.0249    2.5475   -1.9805 O   0  0  0  0  0  0  0  0  0  0  0  0
    1.8950    2.9296   -2.0992 H   0  0  0  0  0  0  0  0  0  0  0  0
    0.5920   -0.2154    1.5497 C   0  0  0  0  0  0  0  0  0  0  0  0
    1.7860   -0.4596    1.7183 O   0  0  0  0  0  0  0  0  0  0  0  0
   -0.2294    0.0669    2.5672 N   0  0  0  0  0  0  0  0  0  0  0  0
   -1.2130    0.1938    2.3518 H   0  0  0  0  0  0  0  0  0  0  0  0
    0.1836    0.1337    3.9673 C   0  0  0  0  0  0  0  0  0  0  0  0
    1.0451    0.7976    4.0666 H   0  0  0  0  0  0  0  0  0  0  0  0
   -0.6344    0.5115    4.5820 H   0  0  0  0  0  0  0  0  0  0  0  0
    0.4676   -0.8609    4.3157 H   0  0  0  0  0  0  0  0  0  0  0  0
  5  6  2  0  0  0  0
  5  7  1  0  0  0  0
  2  3  1  0  0  0  0
  2  4  1  0  0  0  0
  2  5  1  0  0  0  0
  1  2  1  0  0  0  0
 18 19  2  0  0  0  0
 18 20  1  0  0  0  0
 16 17  1  0  0  0  0
 14 15  2  0  0  0  0
 14 16  1  0  0  0  0
 11 12  1  0  0  0  0
 11 13  1  0  0  0  0
 11 14  1  0  0  0  0
  9 10  1  0  0  0  0
  9 11  1  0  0  0  0
  9 18  1  0  0  0  0
  7  8  1  0  0  0  0
  7  9  1  0  0  0  0
 22 23  1  0  0  0  0
 22 24  1  0  0  0  0
 22 25  1  0  0  0  0
 20 21  1  0  0  0  0
 20 22  1  0  0  0  0
M  END
$$$$
default_name
  -OEChem-02102213163D

 25 24  0     1  0  0  0  0  0999 V2000
   -2.7826   -3.8464    0.7821 H   0  0  0  0  0  0  0  0  0  0  0  0
   -2.8156   -2.8034    0.4711 C   0  0  0  0  0  0  0  0  0  0  0  0
   -3.4336   -2.2354    1.1641 H   0  0  0  0  0  0  0  0  0  0  0  0
   -3.2256   -2.7344   -0.5349 H   0  0  0  0  0  0  0  0  0  0  0  0
   -1.4126   -2.2444    0.4801 C   0  0  0  0  0  0  0  0  0  0  0  0
   -0.4686   -2.9534    0.8001 O   0  0  0  0  0  0  0  0  0  0  0  0
   -1.2736   -0.9704    0.1241 N   0  0  0  0  0  0  0  0  0  0  0  0
   -2.0996   -0.4354   -0.1019 H   0  0  0  0  0  0  0  0  0  0  0  0
   -0.0016   -0.2394    0.1271 C   0  0  1  0  0  0  0  0  0  0  0  0
    0.6995   -0.7619   -0.5275 H   0  0  0  0  0  0  0  0  0  0  0  0
   -0.2283    1.1832   -0.4215 C   0  0  0  0  0  0  0  0  0  0  0  0
   -0.8408    1.1314   -1.3225 H   0  0  0  0  0  0  0  0  0  0  0  0
   -0.7667    1.7797    0.3158 H   0  0  0  0  0  0  0  0  0  0  0  0
    1.0638    1.9004   -0.8009 C   0  0  0  0  0  0  0  0  0  0  0  0
    2.1556    1.7273   -0.2752 O   0  0  0  0  0  0  0  0  0  0  0  0
    0.9406    2.7956   -1.7985 O   0  0  0  0  0  0  0  0  0  0  0  0
    1.8186    3.1498   -1.9433 H   0  0  0  0  0  0  0  0  0  0  0  0
    0.5920   -0.2154    1.5497 C   0  0  0  0  0  0  0  0  0  0  0  0
    1.7860   -0.4596    1.7183 O   0  0  0  0  0  0  0  0  0  0  0  0
   -0.2294    0.0669    2.5672 N   0  0  0  0  0  0  0  0  0  0  0  0
   -1.2130    0.1938    2.3518 H   0  0  0  0  0  0  0  0  0  0  0  0
    0.1836    0.1337    3.9673 C   0  0  0  0  0  0  0  0  0  0  0  0
    1.0451    0.7976    4.0666 H   0  0  0  0  0  0  0  0  0  0  0  0
   -0.6344    0.5115    4.5820 H   0  0  0  0  0  0  0  0  0  0  0  0
    0.4676   -0.8609    4.3157 H   0  0  0  0  0  0  0  0  0  0  0  0
  5  6  2  0  0  0  0
  5  7  1  0  0  0  0
  2  3  1  0  0  0  0
  2  4  1  0  0  0  0
  2  5  1  0  0  0  0
  1  2  1  0  0  0  0
 18 19  2  0  0  0  0
 18 20  1  0  0  0  0
 16 17  1  0  0  0  0
 14 15  2  0  0  0  0
 14 16  1  0  0  0  0
 11 12  1  0  0  0  0
 11 13  1  0  0  0  0
 11 14  1  0  0  0  0
  9 10  1  0  0  0  0
  9 11  1  0  0  0  0
  9 18  1  0  0  0  0
  7  8  1  0  0  0  0
  7  9  1  0  0  0  0
 22 23  1  0  0  0  0
 22 24  1  0  0  0  0
 22 25  1  0  0  0  0
 20 21  1  0  0  0  0
 20 22  1  0  0  0  0
M  END
$$$$
default_name
  -OEChem-02102213163D

 25 24  0     1  0  0  0  0  0999 V2000
   -2.7826   -3.8464    0.7821 H   0  0  0  0  0  0  0  0  0  0  0  0
   -2.8156   -2.8034    0.4711 C   0  0  0  0  0  0  0  0  0  0  0  0
   -3.4336   -2.2354    1.1641 H   0  0  0  0  0  0  0  0  0  0  0  0
   -3.2256   -2.7344   -0.5349 H   0  0  0  0  0  0  0  0  0  0  0  0
   -1.4126   -2.2444    0.4801 C   0  0  0  0  0  0  0  0  0  0  0  0
   -0.4686   -2.9534    0.8001 O   0  0  0  0  0  0  0  0  0  0  0  0
   -1.2736   -0.9704    0.1241 N   0  0  0  0  0  0  0  0  0  0  0  0
   -2.0996   -0.4354   -0.1019 H   0  0  0  0  0  0  0  0  0  0  0  0
   -0.0016   -0.2394    0.1271 C   0  0  1  0  0  0  0  0  0  0  0  0
    0.6995   -0.7619   -0.5275 H   0  0  0  0  0  0  0  0  0  0  0  0
   -0.2283    1.1832   -0.4215 C   0  0  0  0  0  0  0  0  0  0  0  0
   -0.8408    1.1314   -1.3225 H   0  0  0  0  0  0  0  0  0  0  0  0
   -0.7667    1.7797    0.3158 H   0  0  0  0  0  0  0  0  0  0  0  0
    1.0638    1.9004   -0.8009 C   0  0  0  0  0  0  0  0  0  0  0  0
    2.1918    1.5591   -0.4699 O   0  0  0  0  0  0  0  0  0  0  0  0
    0.8973    3.0008   -1.5581 O   0  0  0  0  0  0  0  0  0  0  0  0
    1.7778    3.3333   -1.7351 H   0  0  0  0  0  0  0  0  0  0  0  0
    0.5920   -0.2154    1.5497 C   0  0  0  0  0  0  0  0  0  0  0  0
    1.7860   -0.4596    1.7183 O   0  0  0  0  0  0  0  0  0  0  0  0
   -0.2294    0.0669    2.5672 N   0  0  0  0  0  0  0  0  0  0  0  0
   -1.2130    0.1938    2.3518 H   0  0  0  0  0  0  0  0  0  0  0  0
    0.1836    0.1337    3.9673 C   0  0  0  0  0  0  0  0  0  0  0  0
    1.0451    0.7976    4.0666 H   0  0  0  0  0  0  0  0  0  0  0  0
   -0.6344    0.5115    4.5820 H   0  0  0  0  0  0  0  0  0  0  0  0
    0.4676   -0.8609    4.3157 H   0  0  0  0  0  0  0  0  0  0  0  0
  5  6  2  0  0  0  0
  5  7  1  0  0  0  0
  2  3  1  0  0  0  0
  2  4  1  0  0  0  0
  2  5  1  0  0  0  0
  1  2  1  0  0  0  0
 18 19  2  0  0  0  0
 18 20  1  0  0  0  0
 16 17  1  0  0  0  0
 14 15  2  0  0  0  0
 14 16  1  0  0  0  0
 11 12  1  0  0  0  0
 11 13  1  0  0  0  0
 11 14  1  0  0  0  0
  9 10  1  0  0  0  0
  9 11  1  0  0  0  0
  9 18  1  0  0  0  0
  7  8  1  0  0  0  0
  7  9  1  0  0  0  0
 22 23  1  0  0  0  0
 22 24  1  0  0  0  0
 22 25  1  0  0  0  0
 20 21  1  0  0  0  0
 20 22  1  0  0  0  0
M  END
$$$$
default_name
  -OEChem-02102213163D

 25 24  0     1  0  0  0  0  0999 V2000
   -2.7826   -3.8464    0.7821 H   0  0  0  0  0  0  0  0  0  0  0  0
   -2.8156   -2.8034    0.4711 C   0  0  0  0  0  0  0  0  0  0  0  0
   -3.4336   -2.2354    1.1641 H   0  0  0  0  0  0  0  0  0  0  0  0
   -3.2256   -2.7344   -0.5349 H   0  0  0  0  0  0  0  0  0  0  0  0
   -1.4126   -2.2444    0.4801 C   0  0  0  0  0  0  0  0  0  0  0  0
   -0.4686   -2.9534    0.8001 O   0  0  0  0  0  0  0  0  0  0  0  0
   -1.2736   -0.9704    0.1241 N   0  0  0  0  0  0  0  0  0  0  0  0
   -2.0996   -0.4354   -0.1019 H   0  0  0  0  0  0  0  0  0  0  0  0
   -0.0016   -0.2394    0.1271 C   0  0  1  0  0  0  0  0  0  0  0  0
    0.6995   -0.7619   -0.5275 H   0  0  0  0  0  0  0  0  0  0  0  0
   -0.2283    1.1832   -0.4215 C   0  0  0  0  0  0  0  0  0  0  0  0
   -0.8408    1.1314   -1.3225 H   0  0  0  0  0  0  0  0  0  0  0  0
   -0.7667    1.7797    0.3158 H   0  0  0  0  0  0  0  0  0  0  0  0
    1.0638    1.9004   -0.8009 C   0  0  0  0  0  0  0  0  0  0  0  0
    2.1922    1.4371   -0.6992 O   0  0  0  0  0  0  0  0  0  0  0  0
    0.8979    3.1490   -1.2757 O   0  0  0  0  0  0  0  0  0  0  0  0
    1.7756    3.4675   -1.4889 H   0  0  0  0  0  0  0  0  0  0  0  0
    0.5920   -0.2154    1.5497 C   0  0  0  0  0  0  0  0  0  0  0  0
    1.7860   -0.4596    1.7183 O   0  0  0  0  0  0  0  0  0  0  0  0
   -0.2294    0.0669    2.5672 N   0  0  0  0  0  0  0  0  0  0  0  0
   -1.2130    0.1938    2.3518 H   0  0  0  0  0  0  0  0  0  0  0  0
    0.1836    0.1337    3.9673 C   0  0  0  0  0  0  0  0  0  0  0  0
    1.0451    0.7976    4.0666 H   0  0  0  0  0  0  0  0  0  0  0  0
   -0.6344    0.5115    4.5820 H   0  0  0  0  0  0  0  0  0  0  0  0
    0.4676   -0.8609    4.3157 H   0  0  0  0  0  0  0  0  0  0  0  0
  5  6  2  0  0  0  0
  5  7  1  0  0  0  0
  2  3  1  0  0  0  0
  2  4  1  0  0  0  0
  2  5  1  0  0  0  0
  1  2  1  0  0  0  0
 18 19  2  0  0  0  0
 18 20  1  0  0  0  0
 16 17  1  0  0  0  0
 14 15  2  0  0  0  0
 14 16  1  0  0  0  0
 11 12  1  0  0  0  0
 11 13  1  0  0  0  0
 11 14  1  0  0  0  0
  9 10  1  0  0  0  0
  9 11  1  0  0  0  0
  9 18  1  0  0  0  0
  7  8  1  0  0  0  0
  7  9  1  0  0  0  0
 22 23  1  0  0  0  0
 22 24  1  0  0  0  0
 22 25  1  0  0  0  0
 20 21  1  0  0  0  0
 20 22  1  0  0  0  0
M  END
$$$$
default_name
  -OEChem-02102213163D

 25 24  0     1  0  0  0  0  0999 V2000
   -2.7826   -3.8464    0.7821 H   0  0  0  0  0  0  0  0  0  0  0  0
   -2.8156   -2.8034    0.4711 C   0  0  0  0  0  0  0  0  0  0  0  0
   -3.4336   -2.2354    1.1641 H   0  0  0  0  0  0  0  0  0  0  0  0
   -3.2256   -2.7344   -0.5349 H   0  0  0  0  0  0  0  0  0  0  0  0
   -1.4126   -2.2444    0.4801 C   0  0  0  0  0  0  0  0  0  0  0  0
   -0.4686   -2.9534    0.8001 O   0  0  0  0  0  0  0  0  0  0  0  0
   -1.2736   -0.9704    0.1241 N   0  0  0  0  0  0  0  0  0  0  0  0
   -2.0996   -0.4354   -0.1019 H   0  0  0  0  0  0  0  0  0  0  0  0
   -0.0016   -0.2394    0.1271 C   0  0  1  0  0  0  0  0  0  0  0  0
    0.6995   -0.7619   -0.5275 H   0  0  0  0  0  0  0  0  0  0  0  0
   -0.2283    1.1832   -0.4215 C   0  0  0  0  0  0  0  0  0  0  0  0
   -0.8408    1.1314   -1.3225 H   0  0  0  0  0  0  0  0  0  0  0  0
   -0.7667    1.7797    0.3158 H   0  0  0  0  0  0  0  0  0  0  0  0
    1.0638    1.9004   -0.8009 C   0  0  0  0  0  0  0  0  0  0  0  0
    2.1569    1.3694   -0.9476 O   0  0  0  0  0  0  0  0  0  0  0  0
    0.9425    3.2302   -0.9704 O   0  0  0  0  0  0  0  0  0  0  0  0
    1.8121    3.5433   -1.2213 H   0  0  0  0  0  0  0  0  0  0  0  0
    0.5920   -0.2154    1.5497 C   0  0  0  0  0  0  0  0  0  0  0  0
    1.7860   -0.4596    1.7183 O   0  0  0  0  0  0  0  0  0  0  0  0
   -0.2294    0.0669    2.5672 N   0  0  0  0  0  0  0  0  0  0  0  0
   -1.2130    0.1938    2.3518 H   0  0  0  0  0  0  0  0  0  0  0  0
    0.1836    0.1337    3.9673 C   0  0  0  0  0  0  0  0  0  0  0  0
    1.0451    0.7976    4.0666 H   0  0  0  0  0  0  0  0  0  0  0  0
   -0.6344    0.5115    4.5820 H   0  0  0  0  0  0  0  0  0  0  0  0
    0.4676   -0.8609    4.3157 H   0  0  0  0  0  0  0  0  0  0  0  0
  5  6  2  0  0  0  0
  5  7  1  0  0  0  0
  2  3  1  0  0  0  0
  2  4  1  0  0  0  0
  2  5  1  0  0  0  0
  1  2  1  0  0  0  0
 18 19  2  0  0  0  0
 18 20  1  0  0  0  0
 16 17  1  0  0  0  0
 14 15  2  0  0  0  0
 14 16  1  0  0  0  0
 11 12  1  0  0  0  0
 11 13  1  0  0  0  0
 11 14  1  0  0  0  0
  9 10  1  0  0  0  0
  9 11  1  0  0  0  0
  9 18  1  0  0  0  0
  7  8  1  0  0  0  0
  7  9  1  0  0  0  0
 22 23  1  0  0  0  0
 22 24  1  0  0  0  0
 22 25  1  0  0  0  0
 20 21  1  0  0  0  0
 20 22  1  0  0  0  0
M  END
$$$$
default_name
  -OEChem-02102213163D

 25 24  0     1  0  0  0  0  0999 V2000
   -2.7826   -3.8464    0.7821 H   0  0  0  0  0  0  0  0  0  0  0  0
   -2.8156   -2.8034    0.4711 C   0  0  0  0  0  0  0  0  0  0  0  0
   -3.4336   -2.2354    1.1641 H   0  0  0  0  0  0  0  0  0  0  0  0
   -3.2256   -2.7344   -0.5349 H   0  0  0  0  0  0  0  0  0  0  0  0
   -1.4126   -2.2444    0.4801 C   0  0  0  0  0  0  0  0  0  0  0  0
   -0.4686   -2.9534    0.8001 O   0  0  0  0  0  0  0  0  0  0  0  0
   -1.2736   -0.9704    0.1241 N   0  0  0  0  0  0  0  0  0  0  0  0
   -2.0996   -0.4354   -0.1019 H   0  0  0  0  0  0  0  0  0  0  0  0
   -0.0016   -0.2394    0.1271 C   0  0  1  0  0  0  0  0  0  0  0  0
    0.6995   -0.7619   -0.5275 H   0  0  0  0  0  0  0  0  0  0  0  0
   -0.2283    1.1832   -0.4215 C   0  0  0  0  0  0  0  0  0  0  0  0
   -0.8408    1.1314   -1.3225 H   0  0  0  0  0  0  0  0  0  0  0  0
   -0.7667    1.7797    0.3158 H   0  0  0  0  0  0  0  0  0  0  0  0
    1.0638    1.9004   -0.8009 C   0  0  0  0  0  0  0  0  0  0  0  0
    2.0881    1.3607   -1.1980 O   0  0  0  0  0  0  0  0  0  0  0  0
    1.0278    3.2389   -0.6632 O   0  0  0  0  0  0  0  0  0  0  0  0
    1.8847    3.5555   -0.9508 H   0  0  0  0  0  0  0  0  0  0  0  0
    0.5920   -0.2154    1.5497 C   0  0  0  0  0  0  0  0  0  0  0  0
    1.7860   -0.4596    1.7183 O   0  0  0  0  0  0  0  0  0  0  0  0
   -0.2294    0.0669    2.5672 N   0  0  0  0  0  0  0  0  0  0  0  0
   -1.2130    0.1938    2.3518 H   0  0  0  0  0  0  0  0  0  0  0  0
    0.1836    0.1337    3.9673 C   0  0  0  0  0  0  0  0  0  0  0  0
    1.0451    0.7976    4.0666 H   0  0  0  0  0  0  0  0  0  0  0  0
   -0.6344    0.5115    4.5820 H   0  0  0  0  0  0  0  0  0  0  0  0
    0.4676   -0.8609    4.3157 H   0  0  0  0  0  0  0  0  0  0  0  0
  5  6  2  0  0  0  0
  5  7  1  0  0  0  0
  2  3  1  0  0  0  0
  2  4  1  0  0  0  0
  2  5  1  0  0  0  0
  1  2  1  0  0  0  0
 18 19  2  0  0  0  0
 18 20  1  0  0  0  0
 16 17  1  0  0  0  0
 14 15  2  0  0  0  0
 14 16  1  0  0  0  0
 11 12  1  0  0  0  0
 11 13  1  0  0  0  0
 11 14  1  0  0  0  0
  9 10  1  0  0  0  0
  9 11  1  0  0  0  0
  9 18  1  0  0  0  0
  7  8  1  0  0  0  0
  7  9  1  0  0  0  0
 22 23  1  0  0  0  0
 22 24  1  0  0  0  0
 22 25  1  0  0  0  0
 20 21  1  0  0  0  0
 20 22  1  0  0  0  0
M  END
$$$$
default_name
  -OEChem-02102213163D

 25 24  0     1  0  0  0  0  0999 V2000
   -2.7826   -3.8464    0.7821 H   0  0  0  0  0  0  0  0  0  0  0  0
   -2.8156   -2.8034    0.4711 C   0  0  0  0  0  0  0  0  0  0  0  0
   -3.4336   -2.2354    1.1641 H   0  0  0  0  0  0  0  0  0  0  0  0
   -3.2256   -2.7344   -0.5349 H   0  0  0  0  0  0  0  0  0  0  0  0
   -1.4126   -2.2444    0.4801 C   0  0  0  0  0  0  0  0  0  0  0  0
   -0.4686   -2.9534    0.8001 O   0  0  0  0  0  0  0  0  0  0  0  0
   -1.2736   -0.9704    0.1241 N   0  0  0  0  0  0  0  0  0  0  0  0
   -2.0996   -0.4354   -0.1019 H   0  0  0  0  0  0  0  0  0  0  0  0
   -0.0016   -0.2394    0.1271 C   0  0  1  0  0  0  0  0  0  0  0  0
    0.6995   -0.7619   -0.5275 H   0  0  0  0  0  0  0  0  0  0  0  0
   -0.2283    1.1832   -0.4215 C   0  0  0  0  0  0  0  0  0  0  0  0
   -0.8408    1.1314   -1.3225 H   0  0  0  0  0  0  0  0  0  0  0  0
   -0.7667    1.7797    0.3158 H   0  0  0  0  0  0  0  0  0  0  0  0
    1.0638    1.9004   -0.8009 C   0  0  0  0  0  0  0  0  0  0  0  0
    1.9908    1.4116   -1.4334 O   0  0  0  0  0  0  0  0  0  0  0  0
    1.1482    3.1745   -0.3749 O   0  0  0  0  0  0  0  0  0  0  0  0
    1.9886    3.5033   -0.6956 H   0  0  0  0  0  0  0  0  0  0  0  0
    0.5920   -0.2154    1.5497 C   0  0  0  0  0  0  0  0  0  0  0  0
    1.7860   -0.4596    1.7183 O   0  0  0  0  0  0  0  0  0  0  0  0
   -0.2294    0.0669    2.5672 N   0  0  0  0  0  0  0  0  0  0  0  0
   -1.2130    0.1938    2.3518 H   0  0  0  0  0  0  0  0  0  0  0  0
    0.1836    0.1337    3.9673 C   0  0  0  0  0  0  0  0  0  0  0  0
    1.0451    0.7976    4.0666 H   0  0  0  0  0  0  0  0  0  0  0  0
   -0.6344    0.5115    4.5820 H   0  0  0  0  0  0  0  0  0  0  0  0
    0.4676   -0.8609    4.3157 H   0  0  0  0  0  0  0  0  0  0  0  0
  5  6  2  0  0  0  0
  5  7  1  0  0  0  0
  2  3  1  0  0  0  0
  2  4  1  0  0  0  0
  2  5  1  0  0  0  0
  1  2  1  0  0  0  0
 18 19  2  0  0  0  0
 18 20  1  0  0  0  0
 16 17  1  0  0  0  0
 14 15  2  0  0  0  0
 14 16  1  0  0  0  0
 11 12  1  0  0  0  0
 11 13  1  0  0  0  0
 11 14  1  0  0  0  0
  9 10  1  0  0  0  0
  9 11  1  0  0  0  0
  9 18  1  0  0  0  0
  7  8  1  0  0  0  0
  7  9  1  0  0  0  0
 22 23  1  0  0  0  0
 22 24  1  0  0  0  0
 22 25  1  0  0  0  0
 20 21  1  0  0  0  0
 20 22  1  0  0  0  0
M  END
$$$$
default_name
  -OEChem-02102213163D

 25 24  0     1  0  0  0  0  0999 V2000
   -2.7826   -3.8464    0.7821 H   0  0  0  0  0  0  0  0  0  0  0  0
   -2.8156   -2.8034    0.4711 C   0  0  0  0  0  0  0  0  0  0  0  0
   -3.4336   -2.2354    1.1641 H   0  0  0  0  0  0  0  0  0  0  0  0
   -3.2256   -2.7344   -0.5349 H   0  0  0  0  0  0  0  0  0  0  0  0
   -1.4126   -2.2444    0.4801 C   0  0  0  0  0  0  0  0  0  0  0  0
   -0.4686   -2.9534    0.8001 O   0  0  0  0  0  0  0  0  0  0  0  0
   -1.2736   -0.9704    0.1241 N   0  0  0  0  0  0  0  0  0  0  0  0
   -2.0996   -0.4354   -0.1019 H   0  0  0  0  0  0  0  0  0  0  0  0
   -0.0016   -0.2394    0.1271 C   0  0  1  0  0  0  0  0  0  0  0  0
    0.6995   -0.7619   -0.5275 H   0  0  0  0  0  0  0  0  0  0  0  0
   -0.2283    1.1832   -0.4215 C   0  0  0  0  0  0  0  0  0  0  0  0
   -0.8408    1.1314   -1.3225 H   0  0  0  0  0  0  0  0  0  0  0  0
   -0.7667    1.7797    0.3158 H   0  0  0  0  0  0  0  0  0  0  0  0
    1.0638    1.9004   -0.8009 C   0  0  0  0  0  0  0  0  0  0  0  0
    1.8713    1.5187   -1.6378 O   0  0  0  0  0  0  0  0  0  0  0  0
    1.2955    3.0413   -0.1252 O   0  0  0  0  0  0  0  0  0  0  0  0
    2.1167    3.3903   -0.4731 H   0  0  0  0  0  0  0  0  0  0  0  0
    0.5920   -0.2154    1.5497 C   0  0  0  0  0  0  0  0  0  0  0  0
    1.7860   -0.4596    1.7183 O   0  0  0  0  0  0  0  0  0  0  0  0
   -0.2294    0.0669    2.5672 N   0  0  0  0  0  0  0  0  0  0  0  0
   -1.2130    0.1938    2.3518 H   0  0  0  0  0  0  0  0  0  0  0  0
    0.1836    0.1337    3.9673 C   0  0  0  0  0  0  0  0  0  0  0  0
    1.0451    0.7976    4.0666 H   0  0  0  0  0  0  0  0  0  0  0  0
   -0.6344    0.5115    4.5820 H   0  0  0  0  0  0  0  0  0  0  0  0
    0.4676   -0.8609    4.3157 H   0  0  0  0  0  0  0  0  0  0  0  0
  5  6  2  0  0  0  0
  5  7  1  0  0  0  0
  2  3  1  0  0  0  0
  2  4  1  0  0  0  0
  2  5  1  0  0  0  0
  1  2  1  0  0  0  0
 18 19  2  0  0  0  0
 18 20  1  0  0  0  0
 16 17  1  0  0  0  0
 14 15  2  0  0  0  0
 14 16  1  0  0  0  0
 11 12  1  0  0  0  0
 11 13  1  0  0  0  0
 11 14  1  0  0  0  0
  9 10  1  0  0  0  0
  9 11  1  0  0  0  0
  9 18  1  0  0  0  0
  7  8  1  0  0  0  0
  7  9  1  0  0  0  0
 22 23  1  0  0  0  0
 22 24  1  0  0  0  0
 22 25  1  0  0  0  0
 20 21  1  0  0  0  0
 20 22  1  0  0  0  0
M  END
$$$$
default_name
  -OEChem-02102213163D

 25 24  0     1  0  0  0  0  0999 V2000
   -2.7826   -3.8464    0.7821 H   0  0  0  0  0  0  0  0  0  0  0  0
   -2.8156   -2.8034    0.4711 C   0  0  0  0  0  0  0  0  0  0  0  0
   -3.4336   -2.2354    1.1641 H   0  0  0  0  0  0  0  0  0  0  0  0
   -3.2256   -2.7344   -0.5349 H   0  0  0  0  0  0  0  0  0  0  0  0
   -1.4126   -2.2444    0.4801 C   0  0  0  0  0  0  0  0  0  0  0  0
   -0.4686   -2.9534    0.8001 O   0  0  0  0  0  0  0  0  0  0  0  0
   -1.2736   -0.9704    0.1241 N   0  0  0  0  0  0  0  0  0  0  0  0
   -2.0996   -0.4354   -0.1019 H   0  0  0  0  0  0  0  0  0  0  0  0
   -0.0016   -0.2394    0.1271 C   0  0  1  0  0  0  0  0  0  0  0  0
    0.6995   -0.7619   -0.5275 H   0  0  0  0  0  0  0  0  0  0  0  0
   -0.2283    1.1832   -0.4215 C   0  0  0  0  0  0  0  0  0  0  0  0
   -0.8408    1.1314   -1.3225 H   0  0  0  0  0  0  0  0  0  0  0  0
   -0.7667    1.7797    0.3158 H   0  0  0  0  0  0  0  0  0  0  0  0
    1.0638    1.9004   -0.8009 C   0  0  0  0  0  0  0  0  0  0  0  0
    1.7380    1.6746   -1.7972 O   0  0  0  0  0  0  0  0  0  0  0  0
    1.4595    2.8485    0.0689 O   0  0  0  0  0  0  0  0  0  0  0  0
    2.2601    3.2241   -0.2986 H   0  0  0  0  0  0  0  0  0  0  0  0
    0.5920   -0.2154    1.5497 C   0  0  0  0  0  0  0  0  0  0  0  0
    1.7860   -0.4596    1.7183 O   0  0  0  0  0  0  0  0  0  0  0  0
   -0.2294    0.0669    2.5672 N   0  0  0  0  0  0  0  0  0  0  0  0
   -1.2130    0.1938    2.3518 H   0  0  0  0  0  0  0  0  0  0  0  0
    0.1836    0.1337    3.9673 C   0  0  0  0  0  0  0  0  0  0  0  0
    1.0451    0.7976    4.0666 H   0  0  0  0  0  0  0  0  0  0  0  0
   -0.6344    0.5115    4.5820 H   0  0  0  0  0  0  0  0  0  0  0  0
    0.4676   -0.8609    4.3157 H   0  0  0  0  0  0  0  0  0  0  0  0
  5  6  2  0  0  0  0
  5  7  1  0  0  0  0
  2  3  1  0  0  0  0
  2  4  1  0  0  0  0
  2  5  1  0  0  0  0
  1  2  1  0  0  0  0
 18 19  2  0  0  0  0
 18 20  1  0  0  0  0
 16 17  1  0  0  0  0
 14 15  2  0  0  0  0
 14 16  1  0  0  0  0
 11 12  1  0  0  0  0
 11 13  1  0  0  0  0
 11 14  1  0  0  0  0
  9 10  1  0  0  0  0
  9 11  1  0  0  0  0
  9 18  1  0  0  0  0
  7  8  1  0  0  0  0
  7  9  1  0  0  0  0
 22 23  1  0  0  0  0
 22 24  1  0  0  0  0
 22 25  1  0  0  0  0
 20 21  1  0  0  0  0
 20 22  1  0  0  0  0
M  END
$$$$
default_name
  -OEChem-02102213163D

 25 24  0     1  0  0  0  0  0999 V2000
   -2.7826   -3.8464    0.7821 H   0  0  0  0  0  0  0  0  0  0  0  0
   -2.8156   -2.8034    0.4711 C   0  0  0  0  0  0  0  0  0  0  0  0
   -3.4336   -2.2354    1.1641 H   0  0  0  0  0  0  0  0  0  0  0  0
   -3.2256   -2.7344   -0.5349 H   0  0  0  0  0  0  0  0  0  0  0  0
   -1.4126   -2.2444    0.4801 C   0  0  0  0  0  0  0  0  0  0  0  0
   -0.4686   -2.9534    0.8001 O   0  0  0  0  0  0  0  0  0  0  0  0
   -1.2736   -0.9704    0.1241 N   0  0  0  0  0  0  0  0  0  0  0  0
   -2.0996   -0.4354   -0.1019 H   0  0  0  0  0  0  0  0  0  0  0  0
   -0.0016   -0.2394    0.1271 C   0  0  1  0  0  0  0  0  0  0  0  0
    0.6995   -0.7619   -0.5275 H   0  0  0  0  0  0  0  0  0  0  0  0
   -0.2283    1.1832   -0.4215 C   0  0  0  0  0  0  0  0  0  0  0  0
   -0.8408    1.1314   -1.3225 H   0  0  0  0  0  0  0  0  0  0  0  0
   -0.7667    1.7797    0.3158 H   0  0  0  0  0  0  0  0  0  0  0  0
    1.0638    1.9004   -0.8009 C   0  0  0  0  0  0  0  0  0  0  0  0
    1.5998    1.8687   -1.9008 O   0  0  0  0  0  0  0  0  0  0  0  0
    1.6291    2.6091    0.1942 O   0  0  0  0  0  0  0  0  0  0  0  0
    2.4092    3.0162   -0.1839 H   0  0  0  0  0  0  0  0  0  0  0  0
    0.5920   -0.2154    1.5497 C   0  0  0  0  0  0  0  0  0  0  0  0
    1.7860   -0.4596    1.7183 O   0  0  0  0  0  0  0  0  0  0  0  0
   -0.2294    0.0669    2.5672 N   0  0  0  0  0  0  0  0  0  0  0  0
   -1.2130    0.1938    2.3518 H   0  0  0  0  0  0  0  0  0  0  0  0
    0.1836    0.1337    3.9673 C   0  0  0  0  0  0  0  0  0  0  0  0
    1.0451    0.7976    4.0666 H   0  0  0  0  0  0  0  0  0  0  0  0
   -0.6344    0.5115    4.5820 H   0  0  0  0  0  0  0  0  0  0  0  0
    0.4676   -0.8609    4.3157 H   0  0  0  0  0  0  0  0  0  0  0  0
  5  6  2  0  0  0  0
  5  7  1  0  0  0  0
  2  3  1  0  0  0  0
  2  4  1  0  0  0  0
  2  5  1  0  0  0  0
  1  2  1  0  0  0  0
 18 19  2  0  0  0  0
 18 20  1  0  0  0  0
 16 17  1  0  0  0  0
 14 15  2  0  0  0  0
 14 16  1  0  0  0  0
 11 12  1  0  0  0  0
 11 13  1  0  0  0  0
 11 14  1  0  0  0  0
  9 10  1  0  0  0  0
  9 11  1  0  0  0  0
  9 18  1  0  0  0  0
  7  8  1  0  0  0  0
  7  9  1  0  0  0  0
 22 23  1  0  0  0  0
 22 24  1  0  0  0  0
 22 25  1  0  0  0  0
 20 21  1  0  0  0  0
 20 22  1  0  0  0  0
M  END
$$$$
default_name
  -OEChem-02102213163D

 25 24  0     1  0  0  0  0  0999 V2000
   -2.7826   -3.8464    0.7821 H   0  0  0  0  0  0  0  0  0  0  0  0
   -2.8156   -2.8034    0.4711 C   0  0  0  0  0  0  0  0  0  0  0  0
   -3.4336   -2.2354    1.1641 H   0  0  0  0  0  0  0  0  0  0  0  0
   -3.2256   -2.7344   -0.5349 H   0  0  0  0  0  0  0  0  0  0  0  0
   -1.4126   -2.2444    0.4801 C   0  0  0  0  0  0  0  0  0  0  0  0
   -0.4686   -2.9534    0.8001 O   0  0  0  0  0  0  0  0  0  0  0  0
   -1.2736   -0.9704    0.1241 N   0  0  0  0  0  0  0  0  0  0  0  0
   -2.0996   -0.4354   -0.1019 H   0  0  0  0  0  0  0  0  0  0  0  0
   -0.0016   -0.2394    0.1271 C   0  0  1  0  0  0  0  0  0  0  0  0
    0.6995   -0.7619   -0.5275 H   0  0  0  0  0  0  0  0  0  0  0  0
   -0.2283    1.1832   -0.4215 C   0  0  0  0  0  0  0  0  0  0  0  0
   -0.8408    1.1314   -1.3225 H   0  0  0  0  0  0  0  0  0  0  0  0
   -0.7667    1.7797    0.3158 H   0  0  0  0  0  0  0  0  0  0  0  0
    1.0638    1.9004   -0.8009 C   0  0  0  0  0  0  0  0  0  0  0  0
    1.4662    2.0878   -1.9416 O   0  0  0  0  0  0  0  0  0  0  0  0
    1.7928    2.3395    0.2420 O   0  0  0  0  0  0  0  0  0  0  0  0
    2.5538    2.7805   -0.1369 H   0  0  0  0  0  0  0  0  0  0  0  0
    0.5920   -0.2154    1.5497 C   0  0  0  0  0  0  0  0  0  0  0  0
    1.7860   -0.4596    1.7183 O   0  0  0  0  0  0  0  0  0  0  0  0
   -0.2294    0.0669    2.5672 N   0  0  0  0  0  0  0  0  0  0  0  0
   -1.2130    0.1938    2.3518 H   0  0  0  0  0  0  0  0  0  0  0  0
    0.1836    0.1337    3.9673 C   0  0  0  0  0  0  0  0  0  0  0  0
    1.0451    0.7976    4.0666 H   0  0  0  0  0  0  0  0  0  0  0  0
   -0.6344    0.5115    4.5820 H   0  0  0  0  0  0  0  0  0  0  0  0
    0.4676   -0.8609    4.3157 H   0  0  0  0  0  0  0  0  0  0  0  0
  5  6  2  0  0  0  0
  5  7  1  0  0  0  0
  2  3  1  0  0  0  0
  2  4  1  0  0  0  0
  2  5  1  0  0  0  0
  1  2  1  0  0  0  0
 18 19  2  0  0  0  0
 18 20  1  0  0  0  0
 16 17  1  0  0  0  0
 14 15  2  0  0  0  0
 14 16  1  0  0  0  0
 11 12  1  0  0  0  0
 11 13  1  0  0  0  0
 11 14  1  0  0  0  0
  9 10  1  0  0  0  0
  9 11  1  0  0  0  0
  9 18  1  0  0  0  0
  7  8  1  0  0  0  0
  7  9  1  0  0  0  0
 22 23  1  0  0  0  0
 22 24  1  0  0  0  0
 22 25  1  0  0  0  0
 20 21  1  0  0  0  0
 20 22  1  0  0  0  0
M  END
$$$$
default_name
  -OEChem-02102213163D

 25 24  0     1  0  0  0  0  0999 V2000
   -2.7826   -3.8464    0.7821 H   0  0  0  0  0  0  0  0  0  0  0  0
   -2.8156   -2.8034    0.4711 C   0  0  0  0  0  0  0  0  0  0  0  0
   -3.4336   -2.2354    1.1641 H   0  0  0  0  0  0  0  0  0  0  0  0
   -3.2256   -2.7344   -0.5349 H   0  0  0  0  0  0  0  0  0  0  0  0
   -1.4126   -2.2444    0.4801 C   0  0  0  0  0  0  0  0  0  0  0  0
   -0.4686   -2.9534    0.8001 O   0  0  0  0  0  0  0  0  0  0  0  0
   -1.2736   -0.9704    0.1241 N   0  0  0  0  0  0  0  0  0  0  0  0
   -2.0996   -0.4354   -0.1019 H   0  0  0  0  0  0  0  0  0  0  0  0
   -0.0016   -0.2394    0.1271 C   0  0  1  0  0  0  0  0  0  0  0  0
    0.6995   -0.7619   -0.5275 H   0  0  0  0  0  0  0  0  0  0  0  0
   -0.2283    1.1832   -0.4215 C   0  0  0  0  0  0  0  0  0  0  0  0
   -0.8408    1.1314   -1.3225 H   0  0  0  0  0  0  0  0  0  0  0  0
   -0.7667    1.7797    0.3158 H   0  0  0  0  0  0  0  0  0  0  0  0
    1.0638    1.9004   -0.8009 C   0  0  0  0  0  0  0  0  0  0  0  0
    1.3464    2.3170   -1.9166 O   0  0  0  0  0  0  0  0  0  0  0  0
    1.9394    2.0581    0.2093 O   0  0  0  0  0  0  0  0  0  0  0  0
    2.6841    2.5333   -0.1607 H   0  0  0  0  0  0  0  0  0  0  0  0
    0.5920   -0.2154    1.5497 C   0  0  0  0  0  0  0  0  0  0  0  0
    1.7860   -0.4596    1.7183 O   0  0  0  0  0  0  0  0  0  0  0  0
   -0.2294    0.0669    2.5672 N   0  0  0  0  0  0  0  0  0  0  0  0
   -1.2130    0.1938    2.3518 H   0  0  0  0  0  0  0  0  0  0  0  0
    0.1836    0.1337    3.9673 C   0  0  0  0  0  0  0  0  0  0  0  0
    1.0451    0.7976    4.0666 H   0  0  0  0  0  0  0  0  0  0  0  0
   -0.6344    0.5115    4.5820 H   0  0  0  0  0  0  0  0  0  0  0  0
    0.4676   -0.8609    4.3157 H   0  0  0  0  0  0  0  0  0  0  0  0
  5  6  2  0  0  0  0
  5  7  1  0  0  0  0
  2  3  1  0  0  0  0
  2  4  1  0  0  0  0
  2  5  1  0  0  0  0
  1  2  1  0  0  0  0
 18 19  2  0  0  0  0
 18 20  1  0  0  0  0
 16 17  1  0  0  0  0
 14 15  2  0  0  0  0
 14 16  1  0  0  0  0
 11 12  1  0  0  0  0
 11 13  1  0  0  0  0
 11 14  1  0  0  0  0
  9 10  1  0  0  0  0
  9 11  1  0  0  0  0
  9 18  1  0  0  0  0
  7  8  1  0  0  0  0
  7  9  1  0  0  0  0
 22 23  1  0  0  0  0
 22 24  1  0  0  0  0
 22 25  1  0  0  0  0
 20 21  1  0  0  0  0
 20 22  1  0  0  0  0
M  END
$$$$
default_name
  -OEChem-02102213163D

 25 24  0     1  0  0  0  0  0999 V2000
   -2.7826   -3.8464    0.7821 H   0  0  0  0  0  0  0  0  0  0  0  0
   -2.8156   -2.8034    0.4711 C   0  0  0  0  0  0  0  0  0  0  0  0
   -3.4336   -2.2354    1.1641 H   0  0  0  0  0  0  0  0  0  0  0  0
   -3.2256   -2.7344   -0.5349 H   0  0  0  0  0  0  0  0  0  0  0  0
   -1.4126   -2.2444    0.4801 C   0  0  0  0  0  0  0  0  0  0  0  0
   -0.4686   -2.9534    0.8001 O   0  0  0  0  0  0  0  0  0  0  0  0
   -1.2736   -0.9704    0.1241 N   0  0  0  0  0  0  0  0  0  0  0  0
   -2.0996   -0.4354   -0.1019 H   0  0  0  0  0  0  0  0  0  0  0  0
   -0.0016   -0.2394    0.1271 C   0  0  1  0  0  0  0  0  0  0  0  0
    0.6995   -0.7619   -0.5275 H   0  0  0  0  0  0  0  0  0  0  0  0
   -0.2283    1.1832   -0.4215 C   0  0  0  0  0  0  0  0  0  0  0  0
   -0.8408    1.1314   -1.3225 H   0  0  0  0  0  0  0  0  0  0  0  0
   -0.7667    1.7797    0.3158 H   0  0  0  0  0  0  0  0  0  0  0  0
    1.0638    1.9004   -0.8009 C   0  0  0  0  0  0  0  0  0  0  0  0
    1.2484    2.5406   -1.8277 O   0  0  0  0  0  0  0  0  0  0  0  0
    2.0589    1.7840    0.0981 O   0  0  0  0  0  0  0  0  0  0  0  0
    2.7911    2.2914   -0.2537 H   0  0  0  0  0  0  0  0  0  0  0  0
    0.5920   -0.2154    1.5497 C   0  0  0  0  0  0  0  0  0  0  0  0
    1.7860   -0.4596    1.7183 O   0  0  0  0  0  0  0  0  0  0  0  0
   -0.2294    0.0669    2.5672 N   0  0  0  0  0  0  0  0  0  0  0  0
   -1.2130    0.1938    2.3518 H   0  0  0  0  0  0  0  0  0  0  0  0
    0.1836    0.1337    3.9673 C   0  0  0  0  0  0  0  0  0  0  0  0
    1.0451    0.7976    4.0666 H   0  0  0  0  0  0  0  0  0  0  0  0
   -0.6344    0.5115    4.5820 H   0  0  0  0  0  0  0  0  0  0  0  0
    0.4676   -0.8609    4.3157 H   0  0  0  0  0  0  0  0  0  0  0  0
  5  6  2  0  0  0  0
  5  7  1  0  0  0  0
  2  3  1  0  0  0  0
  2  4  1  0  0  0  0
  2  5  1  0  0  0  0
  1  2  1  0  0  0  0
 18 19  2  0  0  0  0
 18 20  1  0  0  0  0
 16 17  1  0  0  0  0
 14 15  2  0  0  0  0
 14 16  1  0  0  0  0
 11 12  1  0  0  0  0
 11 13  1  0  0  0  0
 11 14  1  0  0  0  0
  9 10  1  0  0  0  0
  9 11  1  0  0  0  0
  9 18  1  0  0  0  0
  7  8  1  0  0  0  0
  7  9  1  0  0  0  0
 22 23  1  0  0  0  0
 22 24  1  0  0  0  0
 22 25  1  0  0  0  0
 20 21  1  0  0  0  0
 20 22  1  0  0  0  0
M  END
$$$$
default_name
  -OEChem-02102213163D

 25 24  0     1  0  0  0  0  0999 V2000
   -2.7826   -3.8464    0.7821 H   0  0  0  0  0  0  0  0  0  0  0  0
   -2.8156   -2.8034    0.4711 C   0  0  0  0  0  0  0  0  0  0  0  0
   -3.4336   -2.2354    1.1641 H   0  0  0  0  0  0  0  0  0  0  0  0
   -3.2256   -2.7344   -0.5349 H   0  0  0  0  0  0  0  0  0  0  0  0
   -1.4126   -2.2444    0.4801 C   0  0  0  0  0  0  0  0  0  0  0  0
   -0.4686   -2.9534    0.8001 O   0  0  0  0  0  0  0  0  0  0  0  0
   -1.2736   -0.9704    0.1241 N   0  0  0  0  0  0  0  0  0  0  0  0
   -2.0996   -0.4354   -0.1019 H   0  0  0  0  0  0  0  0  0  0  0  0
   -0.0016   -0.2394    0.1271 C   0  0  1  0  0  0  0  0  0  0  0  0
    0.6995   -0.7619   -0.5275 H   0  0  0  0  0  0  0  0  0  0  0  0
   -0.2283    1.1832   -0.4215 C   0  0  0  0  0  0  0  0  0  0  0  0
   -0.8408    1.1314   -1.3225 H   0  0  0  0  0  0  0  0  0  0  0  0
   -0.7667    1.7797    0.3158 H   0  0  0  0  0  0  0  0  0  0  0  0
    1.0638    1.9004   -0.8009 C   0  0  0  0  0  0  0  0  0  0  0  0
    1.1789    2.7434   -1.6809 O   0  0  0  0  0  0  0  0  0  0  0  0
    2.1432    1.5359   -0.0839 O   0  0  0  0  0  0  0  0  0  0  0  0
    2.8676    2.0712   -0.4096 H   0  0  0  0  0  0  0  0  0  0  0  0
    0.5920   -0.2154    1.5497 C   0  0  0  0  0  0  0  0  0  0  0  0
    1.7860   -0.4596    1.7183 O   0  0  0  0  0  0  0  0  0  0  0  0
   -0.2294    0.0669    2.5672 N   0  0  0  0  0  0  0  0  0  0  0  0
   -1.2130    0.1938    2.3518 H   0  0  0  0  0  0  0  0  0  0  0  0
    0.1836    0.1337    3.9673 C   0  0  0  0  0  0  0  0  0  0  0  0
    1.0451    0.7976    4.0666 H   0  0  0  0  0  0  0  0  0  0  0  0
   -0.6344    0.5115    4.5820 H   0  0  0  0  0  0  0  0  0  0  0  0
    0.4676   -0.8609    4.3157 H   0  0  0  0  0  0  0  0  0  0  0  0
  5  6  2  0  0  0  0
  5  7  1  0  0  0  0
  2  3  1  0  0  0  0
  2  4  1  0  0  0  0
  2  5  1  0  0  0  0
  1  2  1  0  0  0  0
 18 19  2  0  0  0  0
 18 20  1  0  0  0  0
 16 17  1  0  0  0  0
 14 15  2  0  0  0  0
 14 16  1  0  0  0  0
 11 12  1  0  0  0  0
 11 13  1  0  0  0  0
 11 14  1  0  0  0  0
  9 10  1  0  0  0  0
  9 11  1  0  0  0  0
  9 18  1  0  0  0  0
  7  8  1  0  0  0  0
  7  9  1  0  0  0  0
 22 23  1  0  0  0  0
 22 24  1  0  0  0  0
 22 25  1  0  0  0  0
 20 21  1  0  0  0  0
 20 22  1  0  0  0  0
M  END
$$$$
default_name
  -OEChem-02102213163D

 25 24  0     1  0  0  0  0  0999 V2000
   -2.7826   -3.8464    0.7821 H   0  0  0  0  0  0  0  0  0  0  0  0
   -2.8156   -2.8034    0.4711 C   0  0  0  0  0  0  0  0  0  0  0  0
   -3.4336   -2.2354    1.1641 H   0  0  0  0  0  0  0  0  0  0  0  0
   -3.2256   -2.7344   -0.5349 H   0  0  0  0  0  0  0  0  0  0  0  0
   -1.4126   -2.2444    0.4801 C   0  0  0  0  0  0  0  0  0  0  0  0
   -0.4686   -2.9534    0.8001 O   0  0  0  0  0  0  0  0  0  0  0  0
   -1.2736   -0.9704    0.1241 N   0  0  0  0  0  0  0  0  0  0  0  0
   -2.0996   -0.4354   -0.1019 H   0  0  0  0  0  0  0  0  0  0  0  0
   -0.0016   -0.2394    0.1271 C   0  0  1  0  0  0  0  0  0  0  0  0
    0.6995   -0.7619   -0.5275 H   0  0  0  0  0  0  0  0  0  0  0  0
   -0.2283    1.1832   -0.4215 C   0  0  0  0  0  0  0  0  0  0  0  0
   -0.8408    1.1314   -1.3225 H   0  0  0  0  0  0  0  0  0  0  0  0
   -0.7667    1.7797    0.3158 H   0  0  0  0  0  0  0  0  0  0  0  0
    1.0638    1.9004   -0.8009 C   0  0  0  0  0  0  0  0  0  0  0  0
    1.1427    2.9116   -1.4861 O   0  0  0  0  0  0  0  0  0  0  0  0
    2.1865    1.3308   -0.3243 O   0  0  0  0  0  0  0  0  0  0  0  0
    2.9083    1.8877   -0.6177 H   0  0  0  0  0  0  0  0  0  0  0  0
    0.5920   -0.2154    1.5497 C   0  0  0  0  0  0  0  0  0  0  0  0
    1.7860   -0.4596    1.7183 O   0  0  0  0  0  0  0  0  0  0  0  0
   -0.2294    0.0669    2.5672 N   0  0  0  0  0  0  0  0  0  0  0  0
   -1.2130    0.1938    2.3518 H   0  0  0  0  0  0  0  0  0  0  0  0
    0.1836    0.1337    3.9673 C   0  0  0  0  0  0  0  0  0  0  0  0
    1.0451    0.7976    4.0666 H   0  0  0  0  0  0  0  0  0  0  0  0
   -0.6344    0.5115    4.5820 H   0  0  0  0  0  0  0  0  0  0  0  0
    0.4676   -0.8609    4.3157 H   0  0  0  0  0  0  0  0  0  0  0  0
  5  6  2  0  0  0  0
  5  7  1  0  0  0  0
  2  3  1  0  0  0  0
  2  4  1  0  0  0  0
  2  5  1  0  0  0  0
  1  2  1  0  0  0  0
 18 19  2  0  0  0  0
 18 20  1  0  0  0  0
 16 17  1  0  0  0  0
 14 15  2  0  0  0  0
 14 16  1  0  0  0  0
 11 12  1  0  0  0  0
 11 13  1  0  0  0  0
 11 14  1  0  0  0  0
  9 10  1  0  0  0  0
  9 11  1  0  0  0  0
  9 18  1  0  0  0  0
  7  8  1  0  0  0  0
  7  9  1  0  0  0  0
 22 23  1  0  0  0  0
 22 24  1  0  0  0  0
 22 25  1  0  0  0  0
 20 21  1  0  0  0  0
 20 22  1  0  0  0  0
M  END
$$$$
default_name
  -OEChem-02102213163D

 25 24  0     1  0  0  0  0  0999 V2000
   -2.7826   -3.8464    0.7821 H   0  0  0  0  0  0  0  0  0  0  0  0
   -2.8156   -2.8034    0.4711 C   0  0  0  0  0  0  0  0  0  0  0  0
   -3.4336   -2.2354    1.1641 H   0  0  0  0  0  0  0  0  0  0  0  0
   -3.2256   -2.7344   -0.5349 H   0  0  0  0  0  0  0  0  0  0  0  0
   -1.4126   -2.2444    0.4801 C   0  0  0  0  0  0  0  0  0  0  0  0
   -0.4686   -2.9534    0.8001 O   0  0  0  0  0  0  0  0  0  0  0  0
   -1.2736   -0.9704    0.1241 N   0  0  0  0  0  0  0  0  0  0  0  0
   -2.0996   -0.4354   -0.1019 H   0  0  0  0  0  0  0  0  0  0  0  0
   -0.0016   -0.2394    0.1271 C   0  0  1  0  0  0  0  0  0  0  0  0
    0.6995   -0.7619   -0.5275 H   0  0  0  0  0  0  0  0  0  0  0  0
   -0.2283    1.1832   -0.4215 C   0  0  0  0  0  0  0  0  0  0  0  0
   -1.0418    1.1667   -1.1479 H   0  0  0  0  0  0  0  0  0  0  0  0
   -0.5191    1.8485    0.3922 H   0  0  0  0  0  0  0  0  0  0  0  0
    0.9922    1.7616   -1.1312 C   0  0  0  0  0  0  0  0  0  0  0  0
    1.0575    2.8693   -1.6480 O   0  0  0  0  0  0  0  0  0  0  0  0
    2.0607    0.9440   -1.1736 O   0  0  0  0  0  0  0  0  0  0  0  0
    2.7493    1.4351   -1.6230 H   0  0  0  0  0  0  0  0  0  0  0  0
    0.5920   -0.2154    1.5497 C   0  0  0  0  0  0  0  0  0  0  0  0
    1.7860   -0.4596    1.7183 O   0  0  0  0  0  0  0  0  0  0  0  0
   -0.2294    0.0669    2.5672 N   0  0  0  0  0  0  0  0  0  0  0  0
   -1.2130    0.1938    2.3518 H   0  0  0  0  0  0  0  0  0  0  0  0
    0.1836    0.1337    3.9673 C   0  0  0  0  0  0  0  0  0  0  0  0
    1.0451    0.7976    4.0666 H   0  0  0  0  0  0  0  0  0  0  0  0
   -0.6344    0.5115    4.5820 H   0  0  0  0  0  0  0  0  0  0  0  0
    0.4676   -0.8609    4.3157 H   0  0  0  0  0  0  0  0  0  0  0  0
  5  6  2  0  0  0  0
  5  7  1  0  0  0  0
  2  3  1  0  0  0  0
  2  4  1  0  0  0  0
  2  5  1  0  0  0  0
  1  2  1  0  0  0  0
 18 19  2  0  0  0  0
 18 20  1  0  0  0  0
 16 17  1  0  0  0  0
 14 15  2  0  0  0  0
 14 16  1  0  0  0  0
 11 12  1  0  0  0  0
 11 13  1  0  0  0  0
 11 14  1  0  0  0  0
  9 10  1  0  0  0  0
  9 11  1  0  0  0  0
  9 18  1  0  0  0  0
  7  8  1  0  0  0  0
  7  9  1  0  0  0  0
 22 23  1  0  0  0  0
 22 24  1  0  0  0  0
 22 25  1  0  0  0  0
 20 21  1  0  0  0  0
 20 22  1  0  0  0  0
M  END
$$$$
default_name
  -OEChem-02102213163D

 25 24  0     1  0  0  0  0  0999 V2000
   -2.7826   -3.8464    0.7821 H   0  0  0  0  0  0  0  0  0  0  0  0
   -2.8156   -2.8034    0.4711 C   0  0  0  0  0  0  0  0  0  0  0  0
   -3.4336   -2.2354    1.1641 H   0  0  0  0  0  0  0  0  0  0  0  0
   -3.2256   -2.7344   -0.5349 H   0  0  0  0  0  0  0  0  0  0  0  0
   -1.4126   -2.2444    0.4801 C   0  0  0  0  0  0  0  0  0  0  0  0
   -0.4686   -2.9534    0.8001 O   0  0  0  0  0  0  0  0  0  0  0  0
   -1.2736   -0.9704    0.1241 N   0  0  0  0  0  0  0  0  0  0  0  0
   -2.0996   -0.4354   -0.1019 H   0  0  0  0  0  0  0  0  0  0  0  0
   -0.0016   -0.2394    0.1271 C   0  0  1  0  0  0  0  0  0  0  0  0
    0.6995   -0.7619   -0.5275 H   0  0  0  0  0  0  0  0  0  0  0  0
   -0.2283    1.1832   -0.4215 C   0  0  0  0  0  0  0  0  0  0  0  0
   -1.0418    1.1667   -1.1479 H   0  0  0  0  0  0  0  0  0  0  0  0
   -0.5191    1.8485    0.3922 H   0  0  0  0  0  0  0  0  0  0  0  0
    0.9922    1.7616   -1.1312 C   0  0  0  0  0  0  0  0  0  0  0  0
    1.1573    2.9399   -1.4188 O   0  0  0  0  0  0  0  0  0  0  0  0
    1.9371    0.8593   -1.4552 O   0  0  0  0  0  0  0  0  0  0  0  0
    2.6430    1.3560   -1.8702 H   0  0  0  0  0  0  0  0  0  0  0  0
    0.5920   -0.2154    1.5497 C   0  0  0  0  0  0  0  0  0  0  0  0
    1.7860   -0.4596    1.7183 O   0  0  0  0  0  0  0  0  0  0  0  0
   -0.2294    0.0669    2.5672 N   0  0  0  0  0  0  0  0  0  0  0  0
   -1.2130    0.1938    2.3518 H   0  0  0  0  0  0  0  0  0  0  0  0
    0.1836    0.1337    3.9673 C   0  0  0  0  0  0  0  0  0  0  0  0
    1.0451    0.7976    4.0666 H   0  0  0  0  0  0  0  0  0  0  0  0
   -0.6344    0.5115    4.5820 H   0  0  0  0  0  0  0  0  0  0  0  0
    0.4676   -0.8609    4.3157 H   0  0  0  0  0  0  0  0  0  0  0  0
  5  6  2  0  0  0  0
  5  7  1  0  0  0  0
  2  3  1  0  0  0  0
  2  4  1  0  0  0  0
  2  5  1  0  0  0  0
  1  2  1  0  0  0  0
 18 19  2  0  0  0  0
 18 20  1  0  0  0  0
 16 17  1  0  0  0  0
 14 15  2  0  0  0  0
 14 16  1  0  0  0  0
 11 12  1  0  0  0  0
 11 13  1  0  0  0  0
 11 14  1  0  0  0  0
  9 10  1  0  0  0  0
  9 11  1  0  0  0  0
  9 18  1  0  0  0  0
  7  8  1  0  0  0  0
  7  9  1  0  0  0  0
 22 23  1  0  0  0  0
 22 24  1  0  0  0  0
 22 25  1  0  0  0  0
 20 21  1  0  0  0  0
 20 22  1  0  0  0  0
M  END
$$$$
default_name
  -OEChem-02102213163D

 25 24  0     1  0  0  0  0  0999 V2000
   -2.7826   -3.8464    0.7821 H   0  0  0  0  0  0  0  0  0  0  0  0
   -2.8156   -2.8034    0.4711 C   0  0  0  0  0  0  0  0  0  0  0  0
   -3.4336   -2.2354    1.1641 H   0  0  0  0  0  0  0  0  0  0  0  0
   -3.2256   -2.7344   -0.5349 H   0  0  0  0  0  0  0  0  0  0  0  0
   -1.4126   -2.2444    0.4801 C   0  0  0  0  0  0  0  0  0  0  0  0
   -0.4686   -2.9534    0.8001 O   0  0  0  0  0  0  0  0  0  0  0  0
   -1.2736   -0.9704    0.1241 N   0  0  0  0  0  0  0  0  0  0  0  0
   -2.0996   -0.4354   -0.1019 H   0  0  0  0  0  0  0  0  0  0  0  0
   -0.0016   -0.2394    0.1271 C   0  0  1  0  0  0  0  0  0  0  0  0
    0.6995   -0.7619   -0.5275 H   0  0  0  0  0  0  0  0  0  0  0  0
   -0.2283    1.1832   -0.4215 C   0  0  0  0  0  0  0  0  0  0  0  0
   -1.0418    1.1667   -1.1479 H   0  0  0  0  0  0  0  0  0  0  0  0
   -0.5191    1.8485    0.3922 H   0  0  0  0  0  0  0  0  0  0  0  0
    0.9922    1.7616   -1.1312 C   0  0  0  0  0  0  0  0  0  0  0  0
    1.2848    2.9486   -1.1925 O   0  0  0  0  0  0  0  0  0  0  0  0
    1.7799    0.8507   -1.7326 O   0  0  0  0  0  0  0  0  0  0  0  0
    2.5066    1.3436   -2.1149 H   0  0  0  0  0  0  0  0  0  0  0  0
    0.5920   -0.2154    1.5497 C   0  0  0  0  0  0  0  0  0  0  0  0
    1.7860   -0.4596    1.7183 O   0  0  0  0  0  0  0  0  0  0  0  0
   -0.2294    0.0669    2.5672 N   0  0  0  0  0  0  0  0  0  0  0  0
   -1.2130    0.1938    2.3518 H   0  0  0  0  0  0  0  0  0  0  0  0
    0.1836    0.1337    3.9673 C   0  0  0  0  0  0  0  0  0  0  0  0
    1.0451    0.7976    4.0666 H   0  0  0  0  0  0  0  0  0  0  0  0
   -0.6344    0.5115    4.5820 H   0  0  0  0  0  0  0  0  0  0  0  0
    0.4676   -0.8609    4.3157 H   0  0  0  0  0  0  0  0  0  0  0  0
  5  6  2  0  0  0  0
  5  7  1  0  0  0  0
  2  3  1  0  0  0  0
  2  4  1  0  0  0  0
  2  5  1  0  0  0  0
  1  2  1  0  0  0  0
 18 19  2  0  0  0  0
 18 20  1  0  0  0  0
 16 17  1  0  0  0  0
 14 15  2  0  0  0  0
 14 16  1  0  0  0  0
 11 12  1  0  0  0  0
 11 13  1  0  0  0  0
 11 14  1  0  0  0  0
  9 10  1  0  0  0  0
  9 11  1  0  0  0  0
  9 18  1  0  0  0  0
  7  8  1  0  0  0  0
  7  9  1  0  0  0  0
 22 23  1  0  0  0  0
 22 24  1  0  0  0  0
 22 25  1  0  0  0  0
 20 21  1  0  0  0  0
 20 22  1  0  0  0  0
M  END
$$$$
default_name
  -OEChem-02102213163D

 25 24  0     1  0  0  0  0  0999 V2000
   -2.7826   -3.8464    0.7821 H   0  0  0  0  0  0  0  0  0  0  0  0
   -2.8156   -2.8034    0.4711 C   0  0  0  0  0  0  0  0  0  0  0  0
   -3.4336   -2.2354    1.1641 H   0  0  0  0  0  0  0  0  0  0  0  0
   -3.2256   -2.7344   -0.5349 H   0  0  0  0  0  0  0  0  0  0  0  0
   -1.4126   -2.2444    0.4801 C   0  0  0  0  0  0  0  0  0  0  0  0
   -0.4686   -2.9534    0.8001 O   0  0  0  0  0  0  0  0  0  0  0  0
   -1.2736   -0.9704    0.1241 N   0  0  0  0  0  0  0  0  0  0  0  0
   -2.0996   -0.4354   -0.1019 H   0  0  0  0  0  0  0  0  0  0  0  0
   -0.0016   -0.2394    0.1271 C   0  0  1  0  0  0  0  0  0  0  0  0
    0.6995   -0.7619   -0.5275 H   0  0  0  0  0  0  0  0  0  0  0  0
   -0.2283    1.1832   -0.4215 C   0  0  0  0  0  0  0  0  0  0  0  0
   -1.0418    1.1667   -1.1479 H   0  0  0  0  0  0  0  0  0  0  0  0
   -0.5191    1.8485    0.3922 H   0  0  0  0  0  0  0  0  0  0  0  0
    0.9922    1.7616   -1.1312 C   0  0  0  0  0  0  0  0  0  0  0  0
    1.4311    2.8948   -0.9847 O   0  0  0  0  0  0  0  0  0  0  0  0
    1.5998    0.9187   -1.9870 O   0  0  0  0  0  0  0  0  0  0  0  0
    2.3493    1.3987   -2.3405 H   0  0  0  0  0  0  0  0  0  0  0  0
    0.5920   -0.2154    1.5497 C   0  0  0  0  0  0  0  0  0  0  0  0
    1.7860   -0.4596    1.7183 O   0  0  0  0  0  0  0  0  0  0  0  0
   -0.2294    0.0669    2.5672 N   0  0  0  0  0  0  0  0  0  0  0  0
   -1.2130    0.1938    2.3518 H   0  0  0  0  0  0  0  0  0  0  0  0
    0.1836    0.1337    3.9673 C   0  0  0  0  0  0  0  0  0  0  0  0
    1.0451    0.7976    4.0666 H   0  0  0  0  0  0  0  0  0  0  0  0
   -0.6344    0.5115    4.5820 H   0  0  0  0  0  0  0  0  0  0  0  0
    0.4676   -0.8609    4.3157 H   0  0  0  0  0  0  0  0  0  0  0  0
  5  6  2  0  0  0  0
  5  7  1  0  0  0  0
  2  3  1  0  0  0  0
  2  4  1  0  0  0  0
  2  5  1  0  0  0  0
  1  2  1  0  0  0  0
 18 19  2  0  0  0  0
 18 20  1  0  0  0  0
 16 17  1  0  0  0  0
 14 15  2  0  0  0  0
 14 16  1  0  0  0  0
 11 12  1  0  0  0  0
 11 13  1  0  0  0  0
 11 14  1  0  0  0  0
  9 10  1  0  0  0  0
  9 11  1  0  0  0  0
  9 18  1  0  0  0  0
  7  8  1  0  0  0  0
  7  9  1  0  0  0  0
 22 23  1  0  0  0  0
 22 24  1  0  0  0  0
 22 25  1  0  0  0  0
 20 21  1  0  0  0  0
 20 22  1  0  0  0  0
M  END
$$$$
default_name
  -OEChem-02102213163D

 25 24  0     1  0  0  0  0  0999 V2000
   -2.7826   -3.8464    0.7821 H   0  0  0  0  0  0  0  0  0  0  0  0
   -2.8156   -2.8034    0.4711 C   0  0  0  0  0  0  0  0  0  0  0  0
   -3.4336   -2.2354    1.1641 H   0  0  0  0  0  0  0  0  0  0  0  0
   -3.2256   -2.7344   -0.5349 H   0  0  0  0  0  0  0  0  0  0  0  0
   -1.4126   -2.2444    0.4801 C   0  0  0  0  0  0  0  0  0  0  0  0
   -0.4686   -2.9534    0.8001 O   0  0  0  0  0  0  0  0  0  0  0  0
   -1.2736   -0.9704    0.1241 N   0  0  0  0  0  0  0  0  0  0  0  0
   -2.0996   -0.4354   -0.1019 H   0  0  0  0  0  0  0  0  0  0  0  0
   -0.0016   -0.2394    0.1271 C   0  0  1  0  0  0  0  0  0  0  0  0
    0.6995   -0.7619   -0.5275 H   0  0  0  0  0  0  0  0  0  0  0  0
   -0.2283    1.1832   -0.4215 C   0  0  0  0  0  0  0  0  0  0  0  0
   -1.0418    1.1667   -1.1479 H   0  0  0  0  0  0  0  0  0  0  0  0
   -0.5191    1.8485    0.3922 H   0  0  0  0  0  0  0  0  0  0  0  0
    0.9922    1.7616   -1.1312 C   0  0  0  0  0  0  0  0  0  0  0  0
    1.5864    2.7822   -0.8094 O   0  0  0  0  0  0  0  0  0  0  0  0
    1.4090    1.0587   -2.2009 O   0  0  0  0  0  0  0  0  0  0  0  0
    2.1819    1.5176   -2.5315 H   0  0  0  0  0  0  0  0  0  0  0  0
    0.5920   -0.2154    1.5497 C   0  0  0  0  0  0  0  0  0  0  0  0
    1.7860   -0.4596    1.7183 O   0  0  0  0  0  0  0  0  0  0  0  0
   -0.2294    0.0669    2.5672 N   0  0  0  0  0  0  0  0  0  0  0  0
   -1.2130    0.1938    2.3518 H   0  0  0  0  0  0  0  0  0  0  0  0
    0.1836    0.1337    3.9673 C   0  0  0  0  0  0  0  0  0  0  0  0
    1.0451    0.7976    4.0666 H   0  0  0  0  0  0  0  0  0  0  0  0
   -0.6344    0.5115    4.5820 H   0  0  0  0  0  0  0  0  0  0  0  0
    0.4676   -0.8609    4.3157 H   0  0  0  0  0  0  0  0  0  0  0  0
  5  6  2  0  0  0  0
  5  7  1  0  0  0  0
  2  3  1  0  0  0  0
  2  4  1  0  0  0  0
  2  5  1  0  0  0  0
  1  2  1  0  0  0  0
 18 19  2  0  0  0  0
 18 20  1  0  0  0  0
 16 17  1  0  0  0  0
 14 15  2  0  0  0  0
 14 16  1  0  0  0  0
 11 12  1  0  0  0  0
 11 13  1  0  0  0  0
 11 14  1  0  0  0  0
  9 10  1  0  0  0  0
  9 11  1  0  0  0  0
  9 18  1  0  0  0  0
  7  8  1  0  0  0  0
  7  9  1  0  0  0  0
 22 23  1  0  0  0  0
 22 24  1  0  0  0  0
 22 25  1  0  0  0  0
 20 21  1  0  0  0  0
 20 22  1  0  0  0  0
M  END
$$$$
default_name
  -OEChem-02102213163D

 25 24  0     1  0  0  0  0  0999 V2000
   -2.7826   -3.8464    0.7821 H   0  0  0  0  0  0  0  0  0  0  0  0
   -2.8156   -2.8034    0.4711 C   0  0  0  0  0  0  0  0  0  0  0  0
   -3.4336   -2.2354    1.1641 H   0  0  0  0  0  0  0  0  0  0  0  0
   -3.2256   -2.7344   -0.5349 H   0  0  0  0  0  0  0  0  0  0  0  0
   -1.4126   -2.2444    0.4801 C   0  0  0  0  0  0  0  0  0  0  0  0
   -0.4686   -2.9534    0.8001 O   0  0  0  0  0  0  0  0  0  0  0  0
   -1.2736   -0.9704    0.1241 N   0  0  0  0  0  0  0  0  0  0  0  0
   -2.0996   -0.4354   -0.1019 H   0  0  0  0  0  0  0  0  0  0  0  0
   -0.0016   -0.2394    0.1271 C   0  0  1  0  0  0  0  0  0  0  0  0
    0.6995   -0.7619   -0.5275 H   0  0  0  0  0  0  0  0  0  0  0  0
   -0.2283    1.1832   -0.4215 C   0  0  0  0  0  0  0  0  0  0  0  0
   -1.0418    1.1667   -1.1479 H   0  0  0  0  0  0  0  0  0  0  0  0
   -0.5191    1.8485    0.3922 H   0  0  0  0  0  0  0  0  0  0  0  0
    0.9922    1.7616   -1.1312 C   0  0  0  0  0  0  0  0  0  0  0  0
    1.7400    2.6185   -0.6786 O   0  0  0  0  0  0  0  0  0  0  0  0
    1.2206    1.2612   -2.3598 O   0  0  0  0  0  0  0  0  0  0  0  0
    2.0158    1.6921   -2.6750 H   0  0  0  0  0  0  0  0  0  0  0  0
    0.5920   -0.2154    1.5497 C   0  0  0  0  0  0  0  0  0  0  0  0
    1.7860   -0.4596    1.7183 O   0  0  0  0  0  0  0  0  0  0  0  0
   -0.2294    0.0669    2.5672 N   0  0  0  0  0  0  0  0  0  0  0  0
   -1.2130    0.1938    2.3518 H   0  0  0  0  0  0  0  0  0  0  0  0
    0.1836    0.1337    3.9673 C   0  0  0  0  0  0  0  0  0  0  0  0
    1.0451    0.7976    4.0666 H   0  0  0  0  0  0  0  0  0  0  0  0
   -0.6344    0.5115    4.5820 H   0  0  0  0  0  0  0  0  0  0  0  0
    0.4676   -0.8609    4.3157 H   0  0  0  0  0  0  0  0  0  0  0  0
  5  6  2  0  0  0  0
  5  7  1  0  0  0  0
  2  3  1  0  0  0  0
  2  4  1  0  0  0  0
  2  5  1  0  0  0  0
  1  2  1  0  0  0  0
 18 19  2  0  0  0  0
 18 20  1  0  0  0  0
 16 17  1  0  0  0  0
 14 15  2  0  0  0  0
 14 16  1  0  0  0  0
 11 12  1  0  0  0  0
 11 13  1  0  0  0  0
 11 14  1  0  0  0  0
  9 10  1  0  0  0  0
  9 11  1  0  0  0  0
  9 18  1  0  0  0  0
  7  8  1  0  0  0  0
  7  9  1  0  0  0  0
 22 23  1  0  0  0  0
 22 24  1  0  0  0  0
 22 25  1  0  0  0  0
 20 21  1  0  0  0  0
 20 22  1  0  0  0  0
M  END
$$$$
default_name
  -OEChem-02102213163D

 25 24  0     1  0  0  0  0  0999 V2000
   -2.7826   -3.8464    0.7821 H   0  0  0  0  0  0  0  0  0  0  0  0
   -2.8156   -2.8034    0.4711 C   0  0  0  0  0  0  0  0  0  0  0  0
   -3.4336   -2.2354    1.1641 H   0  0  0  0  0  0  0  0  0  0  0  0
   -3.2256   -2.7344   -0.5349 H   0  0  0  0  0  0  0  0  0  0  0  0
   -1.4126   -2.2444    0.4801 C   0  0  0  0  0  0  0  0  0  0  0  0
   -0.4686   -2.9534    0.8001 O   0  0  0  0  0  0  0  0  0  0  0  0
   -1.2736   -0.9704    0.1241 N   0  0  0  0  0  0  0  0  0  0  0  0
   -2.0996   -0.4354   -0.1019 H   0  0  0  0  0  0  0  0  0  0  0  0
   -0.0016   -0.2394    0.1271 C   0  0  1  0  0  0  0  0  0  0  0  0
    0.6995   -0.7619   -0.5275 H   0  0  0  0  0  0  0  0  0  0  0  0
   -0.2283    1.1832   -0.4215 C   0  0  0  0  0  0  0  0  0  0  0  0
   -1.0418    1.1667   -1.1479 H   0  0  0  0  0  0  0  0  0  0  0  0
   -0.5191    1.8485    0.3922 H   0  0  0  0  0  0  0  0  0  0  0  0
    0.9922    1.7616   -1.1312 C   0  0  0  0  0  0  0  0  0  0  0  0
    1.8815    2.4147   -0.6013 O   0  0  0  0  0  0  0  0  0  0  0  0
    1.0474    1.5125   -2.4529 O   0  0  0  0  0  0  0  0  0  0  0  0
    1.8622    1.9104   -2.7612 H   0  0  0  0  0  0  0  0  0  0  0  0
    0.5920   -0.2154    1.5497 C   0  0  0  0  0  0  0  0  0  0  0  0
    1.7860   -0.4596    1.7183 O   0  0  0  0  0  0  0  0  0  0  0  0
   -0.2294    0.0669    2.5672 N   0  0  0  0  0  0  0  0  0  0  0  0
   -1.2130    0.1938    2.3518 H   0  0  0  0  0  0  0  0  0  0  0  0
    0.1836    0.1337    3.9673 C   0  0  0  0  0  0  0  0  0  0  0  0
    1.0451    0.7976    4.0666 H   0  0  0  0  0  0  0  0  0  0  0  0
   -0.6344    0.5115    4.5820 H   0  0  0  0  0  0  0  0  0  0  0  0
    0.4676   -0.8609    4.3157 H   0  0  0  0  0  0  0  0  0  0  0  0
  5  6  2  0  0  0  0
  5  7  1  0  0  0  0
  2  3  1  0  0  0  0
  2  4  1  0  0  0  0
  2  5  1  0  0  0  0
  1  2  1  0  0  0  0
 18 19  2  0  0  0  0
 18 20  1  0  0  0  0
 16 17  1  0  0  0  0
 14 15  2  0  0  0  0
 14 16  1  0  0  0  0
 11 12  1  0  0  0  0
 11 13  1  0  0  0  0
 11 14  1  0  0  0  0
  9 10  1  0  0  0  0
  9 11  1  0  0  0  0
  9 18  1  0  0  0  0
  7  8  1  0  0  0  0
  7  9  1  0  0  0  0
 22 23  1  0  0  0  0
 22 24  1  0  0  0  0
 22 25  1  0  0  0  0
 20 21  1  0  0  0  0
 20 22  1  0  0  0  0
M  END
$$$$
default_name
  -OEChem-02102213163D

 25 24  0     1  0  0  0  0  0999 V2000
   -2.7826   -3.8464    0.7821 H   0  0  0  0  0  0  0  0  0  0  0  0
   -2.8156   -2.8034    0.4711 C   0  0  0  0  0  0  0  0  0  0  0  0
   -3.4336   -2.2354    1.1641 H   0  0  0  0  0  0  0  0  0  0  0  0
   -3.2256   -2.7344   -0.5349 H   0  0  0  0  0  0  0  0  0  0  0  0
   -1.4126   -2.2444    0.4801 C   0  0  0  0  0  0  0  0  0  0  0  0
   -0.4686   -2.9534    0.8001 O   0  0  0  0  0  0  0  0  0  0  0  0
   -1.2736   -0.9704    0.1241 N   0  0  0  0  0  0  0  0  0  0  0  0
   -2.0996   -0.4354   -0.1019 H   0  0  0  0  0  0  0  0  0  0  0  0
   -0.0016   -0.2394    0.1271 C   0  0  1  0  0  0  0  0  0  0  0  0
    0.6995   -0.7619   -0.5275 H   0  0  0  0  0  0  0  0  0  0  0  0
   -0.2283    1.1832   -0.4215 C   0  0  0  0  0  0  0  0  0  0  0  0
   -1.0418    1.1667   -1.1479 H   0  0  0  0  0  0  0  0  0  0  0  0
   -0.5191    1.8485    0.3922 H   0  0  0  0  0  0  0  0  0  0  0  0
    0.9922    1.7616   -1.1312 C   0  0  0  0  0  0  0  0  0  0  0  0
    2.0012    2.1849   -0.5827 O   0  0  0  0  0  0  0  0  0  0  0  0
    0.9013    1.7952   -2.4738 O   0  0  0  0  0  0  0  0  0  0  0  0
    1.7317    2.1575   -2.7841 H   0  0  0  0  0  0  0  0  0  0  0  0
    0.5920   -0.2154    1.5497 C   0  0  0  0  0  0  0  0  0  0  0  0
    1.7860   -0.4596    1.7183 O   0  0  0  0  0  0  0  0  0  0  0  0
   -0.2294    0.0669    2.5672 N   0  0  0  0  0  0  0  0  0  0  0  0
   -1.2130    0.1938    2.3518 H   0  0  0  0  0  0  0  0  0  0  0  0
    0.1836    0.1337    3.9673 C   0  0  0  0  0  0  0  0  0  0  0  0
    1.0451    0.7976    4.0666 H   0  0  0  0  0  0  0  0  0  0  0  0
   -0.6344    0.5115    4.5820 H   0  0  0  0  0  0  0  0  0  0  0  0
    0.4676   -0.8609    4.3157 H   0  0  0  0  0  0  0  0  0  0  0  0
  5  6  2  0  0  0  0
  5  7  1  0  0  0  0
  2  3  1  0  0  0  0
  2  4  1  0  0  0  0
  2  5  1  0  0  0  0
  1  2  1  0  0  0  0
 18 19  2  0  0  0  0
 18 20  1  0  0  0  0
 16 17  1  0  0  0  0
 14 15  2  0  0  0  0
 14 16  1  0  0  0  0
 11 12  1  0  0  0  0
 11 13  1  0  0  0  0
 11 14  1  0  0  0  0
  9 10  1  0  0  0  0
  9 11  1  0  0  0  0
  9 18  1  0  0  0  0
  7  8  1  0  0  0  0
  7  9  1  0  0  0  0
 22 23  1  0  0  0  0
 22 24  1  0  0  0  0
 22 25  1  0  0  0  0
 20 21  1  0  0  0  0
 20 22  1  0  0  0  0
M  END
$$$$
default_name
  -OEChem-02102213163D

 25 24  0     1  0  0  0  0  0999 V2000
   -2.7826   -3.8464    0.7821 H   0  0  0  0  0  0  0  0  0  0  0  0
   -2.8156   -2.8034    0.4711 C   0  0  0  0  0  0  0  0  0  0  0  0
   -3.4336   -2.2354    1.1641 H   0  0  0  0  0  0  0  0  0  0  0  0
   -3.2256   -2.7344   -0.5349 H   0  0  0  0  0  0  0  0  0  0  0  0
   -1.4126   -2.2444    0.4801 C   0  0  0  0  0  0  0  0  0  0  0  0
   -0.4686   -2.9534    0.8001 O   0  0  0  0  0  0  0  0  0  0  0  0
   -1.2736   -0.9704    0.1241 N   0  0  0  0  0  0  0  0  0  0  0  0
   -2.0996   -0.4354   -0.1019 H   0  0  0  0  0  0  0  0  0  0  0  0
   -0.0016   -0.2394    0.1271 C   0  0  1  0  0  0  0  0  0  0  0  0
    0.6995   -0.7619   -0.5275 H   0  0  0  0  0  0  0  0  0  0  0  0
   -0.2283    1.1832   -0.4215 C   0  0  0  0  0  0  0  0  0  0  0  0
   -1.0418    1.1667   -1.1479 H   0  0  0  0  0  0  0  0  0  0  0  0
   -0.5191    1.8485    0.3922 H   0  0  0  0  0  0  0  0  0  0  0  0
    0.9922    1.7616   -1.1312 C   0  0  0  0  0  0  0  0  0  0  0  0
    2.0911    1.9447   -0.6241 O   0  0  0  0  0  0  0  0  0  0  0  0
    0.7921    2.0903   -2.4211 O   0  0  0  0  0  0  0  0  0  0  0  0
    1.6332    2.4167   -2.7423 H   0  0  0  0  0  0  0  0  0  0  0  0
    0.5920   -0.2154    1.5497 C   0  0  0  0  0  0  0  0  0  0  0  0
    1.7860   -0.4596    1.7183 O   0  0  0  0  0  0  0  0  0  0  0  0
   -0.2294    0.0669    2.5672 N   0  0  0  0  0  0  0  0  0  0  0  0
   -1.2130    0.1938    2.3518 H   0  0  0  0  0  0  0  0  0  0  0  0
    0.1836    0.1337    3.9673 C   0  0  0  0  0  0  0  0  0  0  0  0
    1.0451    0.7976    4.0666 H   0  0  0  0  0  0  0  0  0  0  0  0
   -0.6344    0.5115    4.5820 H   0  0  0  0  0  0  0  0  0  0  0  0
    0.4676   -0.8609    4.3157 H   0  0  0  0  0  0  0  0  0  0  0  0
  5  6  2  0  0  0  0
  5  7  1  0  0  0  0
  2  3  1  0  0  0  0
  2  4  1  0  0  0  0
  2  5  1  0  0  0  0
  1  2  1  0  0  0  0
 18 19  2  0  0  0  0
 18 20  1  0  0  0  0
 16 17  1  0  0  0  0
 14 15  2  0  0  0  0
 14 16  1  0  0  0  0
 11 12  1  0  0  0  0
 11 13  1  0  0  0  0
 11 14  1  0  0  0  0
  9 10  1  0  0  0  0
  9 11  1  0  0  0  0
  9 18  1  0  0  0  0
  7  8  1  0  0  0  0
  7  9  1  0  0  0  0
 22 23  1  0  0  0  0
 22 24  1  0  0  0  0
 22 25  1  0  0  0  0
 20 21  1  0  0  0  0
 20 22  1  0  0  0  0
M  END
$$$$
default_name
  -OEChem-02102213163D

 25 24  0     1  0  0  0  0  0999 V2000
   -2.7826   -3.8464    0.7821 H   0  0  0  0  0  0  0  0  0  0  0  0
   -2.8156   -2.8034    0.4711 C   0  0  0  0  0  0  0  0  0  0  0  0
   -3.4336   -2.2354    1.1641 H   0  0  0  0  0  0  0  0  0  0  0  0
   -3.2256   -2.7344   -0.5349 H   0  0  0  0  0  0  0  0  0  0  0  0
   -1.4126   -2.2444    0.4801 C   0  0  0  0  0  0  0  0  0  0  0  0
   -0.4686   -2.9534    0.8001 O   0  0  0  0  0  0  0  0  0  0  0  0
   -1.2736   -0.9704    0.1241 N   0  0  0  0  0  0  0  0  0  0  0  0
   -2.0996   -0.4354   -0.1019 H   0  0  0  0  0  0  0  0  0  0  0  0
   -0.0016   -0.2394    0.1271 C   0  0  1  0  0  0  0  0  0  0  0  0
    0.6995   -0.7619   -0.5275 H   0  0  0  0  0  0  0  0  0  0  0  0
   -0.2283    1.1832   -0.4215 C   0  0  0  0  0  0  0  0  0  0  0  0
   -1.0418    1.1667   -1.1479 H   0  0  0  0  0  0  0  0  0  0  0  0
   -0.5191    1.8485    0.3922 H   0  0  0  0  0  0  0  0  0  0  0  0
    0.9922    1.7616   -1.1312 C   0  0  0  0  0  0  0  0  0  0  0  0
    2.1449    1.7103   -0.7226 O   0  0  0  0  0  0  0  0  0  0  0  0
    0.7273    2.3775   -2.2984 O   0  0  0  0  0  0  0  0  0  0  0  0
    1.5733    2.6703   -2.6386 H   0  0  0  0  0  0  0  0  0  0  0  0
    0.5920   -0.2154    1.5497 C   0  0  0  0  0  0  0  0  0  0  0  0
    1.7860   -0.4596    1.7183 O   0  0  0  0  0  0  0  0  0  0  0  0
   -0.2294    0.0669    2.5672 N   0  0  0  0  0  0  0  0  0  0  0  0
   -1.2130    0.1938    2.3518 H   0  0  0  0  0  0  0  0  0  0  0  0
    0.1836    0.1337    3.9673 C   0  0  0  0  0  0  0  0  0  0  0  0
    1.0451    0.7976    4.0666 H   0  0  0  0  0  0  0  0  0  0  0  0
   -0.6344    0.5115    4.5820 H   0  0  0  0  0  0  0  0  0  0  0  0
    0.4676   -0.8609    4.3157 H   0  0  0  0  0  0  0  0  0  0  0  0
  5  6  2  0  0  0  0
  5  7  1  0  0  0  0
  2  3  1  0  0  0  0
  2  4  1  0  0  0  0
  2  5  1  0  0  0  0
  1  2  1  0  0  0  0
 18 19  2  0  0  0  0
 18 20  1  0  0  0  0
 16 17  1  0  0  0  0
 14 15  2  0  0  0  0
 14 16  1  0  0  0  0
 11 12  1  0  0  0  0
 11 13  1  0  0  0  0
 11 14  1  0  0  0  0
  9 10  1  0  0  0  0
  9 11  1  0  0  0  0
  9 18  1  0  0  0  0
  7  8  1  0  0  0  0
  7  9  1  0  0  0  0
 22 23  1  0  0  0  0
 22 24  1  0  0  0  0
 22 25  1  0  0  0  0
 20 21  1  0  0  0  0
 20 22  1  0  0  0  0
M  END
$$$$
default_name
  -OEChem-02102213163D

 25 24  0     1  0  0  0  0  0999 V2000
   -2.7826   -3.8464    0.7821 H   0  0  0  0  0  0  0  0  0  0  0  0
   -2.8156   -2.8034    0.4711 C   0  0  0  0  0  0  0  0  0  0  0  0
   -3.4336   -2.2354    1.1641 H   0  0  0  0  0  0  0  0  0  0  0  0
   -3.2256   -2.7344   -0.5349 H   0  0  0  0  0  0  0  0  0  0  0  0
   -1.4126   -2.2444    0.4801 C   0  0  0  0  0  0  0  0  0  0  0  0
   -0.4686   -2.9534    0.8001 O   0  0  0  0  0  0  0  0  0  0  0  0
   -1.2736   -0.9704    0.1241 N   0  0  0  0  0  0  0  0  0  0  0  0
   -2.0996   -0.4354   -0.1019 H   0  0  0  0  0  0  0  0  0  0  0  0
   -0.0016   -0.2394    0.1271 C   0  0  1  0  0  0  0  0  0  0  0  0
    0.6995   -0.7619   -0.5275 H   0  0  0  0  0  0  0  0  0  0  0  0
   -0.2283    1.1832   -0.4215 C   0  0  0  0  0  0  0  0  0  0  0  0
   -1.0418    1.1667   -1.1479 H   0  0  0  0  0  0  0  0  0  0  0  0
   -0.5191    1.8485    0.3922 H   0  0  0  0  0  0  0  0  0  0  0  0
    0.9922    1.7616   -1.1312 C   0  0  0  0  0  0  0  0  0  0  0  0
    2.1589    1.4979   -0.8715 O   0  0  0  0  0  0  0  0  0  0  0  0
    0.7113    2.6374   -2.1141 O   0  0  0  0  0  0  0  0  0  0  0  0
    1.5562    2.9010   -2.4801 H   0  0  0  0  0  0  0  0  0  0  0  0
    0.5920   -0.2154    1.5497 C   0  0  0  0  0  0  0  0  0  0  0  0
    1.7860   -0.4596    1.7183 O   0  0  0  0  0  0  0  0  0  0  0  0
   -0.2294    0.0669    2.5672 N   0  0  0  0  0  0  0  0  0  0  0  0
   -1.2130    0.1938    2.3518 H   0  0  0  0  0  0  0  0  0  0  0  0
    0.1836    0.1337    3.9673 C   0  0  0  0  0  0  0  0  0  0  0  0
    1.0451    0.7976    4.0666 H   0  0  0  0  0  0  0  0  0  0  0  0
   -0.6344    0.5115    4.5820 H   0  0  0  0  0  0  0  0  0  0  0  0
    0.4676   -0.8609    4.3157 H   0  0  0  0  0  0  0  0  0  0  0  0
  5  6  2  0  0  0  0
  5  7  1  0  0  0  0
  2  3  1  0  0  0  0
  2  4  1  0  0  0  0
  2  5  1  0  0  0  0
  1  2  1  0  0  0  0
 18 19  2  0  0  0  0
 18 20  1  0  0  0  0
 16 17  1  0  0  0  0
 14 15  2  0  0  0  0
 14 16  1  0  0  0  0
 11 12  1  0  0  0  0
 11 13  1  0  0  0  0
 11 14  1  0  0  0  0
  9 10  1  0  0  0  0
  9 11  1  0  0  0  0
  9 18  1  0  0  0  0
  7  8  1  0  0  0  0
  7  9  1  0  0  0  0
 22 23  1  0  0  0  0
 22 24  1  0  0  0  0
 22 25  1  0  0  0  0
 20 21  1  0  0  0  0
 20 22  1  0  0  0  0
M  END
$$$$
default_name
  -OEChem-02102213163D

 25 24  0     1  0  0  0  0  0999 V2000
   -2.7826   -3.8464    0.7821 H   0  0  0  0  0  0  0  0  0  0  0  0
   -2.8156   -2.8034    0.4711 C   0  0  0  0  0  0  0  0  0  0  0  0
   -3.4336   -2.2354    1.1641 H   0  0  0  0  0  0  0  0  0  0  0  0
   -3.2256   -2.7344   -0.5349 H   0  0  0  0  0  0  0  0  0  0  0  0
   -1.4126   -2.2444    0.4801 C   0  0  0  0  0  0  0  0  0  0  0  0
   -0.4686   -2.9534    0.8001 O   0  0  0  0  0  0  0  0  0  0  0  0
   -1.2736   -0.9704    0.1241 N   0  0  0  0  0  0  0  0  0  0  0  0
   -2.0996   -0.4354   -0.1019 H   0  0  0  0  0  0  0  0  0  0  0  0
   -0.0016   -0.2394    0.1271 C   0  0  1  0  0  0  0  0  0  0  0  0
    0.6995   -0.7619   -0.5275 H   0  0  0  0  0  0  0  0  0  0  0  0
   -0.2283    1.1832   -0.4215 C   0  0  0  0  0  0  0  0  0  0  0  0
   -1.0418    1.1667   -1.1479 H   0  0  0  0  0  0  0  0  0  0  0  0
   -0.5191    1.8485    0.3922 H   0  0  0  0  0  0  0  0  0  0  0  0
    0.9922    1.7616   -1.1312 C   0  0  0  0  0  0  0  0  0  0  0  0
    2.1323    1.3218   -1.0607 O   0  0  0  0  0  0  0  0  0  0  0  0
    0.7453    2.8522   -1.8807 O   0  0  0  0  0  0  0  0  0  0  0  0
    1.5830    3.0931   -2.2775 H   0  0  0  0  0  0  0  0  0  0  0  0
    0.5920   -0.2154    1.5497 C   0  0  0  0  0  0  0  0  0  0  0  0
    1.7860   -0.4596    1.7183 O   0  0  0  0  0  0  0  0  0  0  0  0
   -0.2294    0.0669    2.5672 N   0  0  0  0  0  0  0  0  0  0  0  0
   -1.2130    0.1938    2.3518 H   0  0  0  0  0  0  0  0  0  0  0  0
    0.1836    0.1337    3.9673 C   0  0  0  0  0  0  0  0  0  0  0  0
    1.0451    0.7976    4.0666 H   0  0  0  0  0  0  0  0  0  0  0  0
   -0.6344    0.5115    4.5820 H   0  0  0  0  0  0  0  0  0  0  0  0
    0.4676   -0.8609    4.3157 H   0  0  0  0  0  0  0  0  0  0  0  0
  5  6  2  0  0  0  0
  5  7  1  0  0  0  0
  2  3  1  0  0  0  0
  2  4  1  0  0  0  0
  2  5  1  0  0  0  0
  1  2  1  0  0  0  0
 18 19  2  0  0  0  0
 18 20  1  0  0  0  0
 16 17  1  0  0  0  0
 14 15  2  0  0  0  0
 14 16  1  0  0  0  0
 11 12  1  0  0  0  0
 11 13  1  0  0  0  0
 11 14  1  0  0  0  0
  9 10  1  0  0  0  0
  9 11  1  0  0  0  0
  9 18  1  0  0  0  0
  7  8  1  0  0  0  0
  7  9  1  0  0  0  0
 22 23  1  0  0  0  0
 22 24  1  0  0  0  0
 22 25  1  0  0  0  0
 20 21  1  0  0  0  0
 20 22  1  0  0  0  0
M  END
$$$$
default_name
  -OEChem-02102213163D

 25 24  0     1  0  0  0  0  0999 V2000
   -2.7826   -3.8464    0.7821 H   0  0  0  0  0  0  0  0  0  0  0  0
   -2.8156   -2.8034    0.4711 C   0  0  0  0  0  0  0  0  0  0  0  0
   -3.4336   -2.2354    1.1641 H   0  0  0  0  0  0  0  0  0  0  0  0
   -3.2256   -2.7344   -0.5349 H   0  0  0  0  0  0  0  0  0  0  0  0
   -1.4126   -2.2444    0.4801 C   0  0  0  0  0  0  0  0  0  0  0  0
   -0.4686   -2.9534    0.8001 O   0  0  0  0  0  0  0  0  0  0  0  0
   -1.2736   -0.9704    0.1241 N   0  0  0  0  0  0  0  0  0  0  0  0
   -2.0996   -0.4354   -0.1019 H   0  0  0  0  0  0  0  0  0  0  0  0
   -0.0016   -0.2394    0.1271 C   0  0  1  0  0  0  0  0  0  0  0  0
    0.6995   -0.7619   -0.5275 H   0  0  0  0  0  0  0  0  0  0  0  0
   -0.2283    1.1832   -0.4215 C   0  0  0  0  0  0  0  0  0  0  0  0
   -1.0418    1.1667   -1.1479 H   0  0  0  0  0  0  0  0  0  0  0  0
   -0.5191    1.8485    0.3922 H   0  0  0  0  0  0  0  0  0  0  0  0
    0.9922    1.7616   -1.1312 C   0  0  0  0  0  0  0  0  0  0  0  0
    2.0669    1.1942   -1.2773 O   0  0  0  0  0  0  0  0  0  0  0  0
    0.8268    3.0072   -1.6141 O   0  0  0  0  0  0  0  0  0  0  0  0
    1.6518    3.2334   -2.0447 H   0  0  0  0  0  0  0  0  0  0  0  0
    0.5920   -0.2154    1.5497 C   0  0  0  0  0  0  0  0  0  0  0  0
    1.7860   -0.4596    1.7183 O   0  0  0  0  0  0  0  0  0  0  0  0
   -0.2294    0.0669    2.5672 N   0  0  0  0  0  0  0  0  0  0  0  0
   -1.2130    0.1938    2.3518 H   0  0  0  0  0  0  0  0  0  0  0  0
    0.1836    0.1337    3.9673 C   0  0  0  0  0  0  0  0  0  0  0  0
    1.0451    0.7976    4.0666 H   0  0  0  0  0  0  0  0  0  0  0  0
   -0.6344    0.5115    4.5820 H   0  0  0  0  0  0  0  0  0  0  0  0
    0.4676   -0.8609    4.3157 H   0  0  0  0  0  0  0  0  0  0  0  0
  5  6  2  0  0  0  0
  5  7  1  0  0  0  0
  2  3  1  0  0  0  0
  2  4  1  0  0  0  0
  2  5  1  0  0  0  0
  1  2  1  0  0  0  0
 18 19  2  0  0  0  0
 18 20  1  0  0  0  0
 16 17  1  0  0  0  0
 14 15  2  0  0  0  0
 14 16  1  0  0  0  0
 11 12  1  0  0  0  0
 11 13  1  0  0  0  0
 11 14  1  0  0  0  0
  9 10  1  0  0  0  0
  9 11  1  0  0  0  0
  9 18  1  0  0  0  0
  7  8  1  0  0  0  0
  7  9  1  0  0  0  0
 22 23  1  0  0  0  0
 22 24  1  0  0  0  0
 22 25  1  0  0  0  0
 20 21  1  0  0  0  0
 20 22  1  0  0  0  0
M  END
$$$$
default_name
  -OEChem-02102213163D

 25 24  0     1  0  0  0  0  0999 V2000
   -2.7826   -3.8464    0.7821 H   0  0  0  0  0  0  0  0  0  0  0  0
   -2.8156   -2.8034    0.4711 C   0  0  0  0  0  0  0  0  0  0  0  0
   -3.4336   -2.2354    1.1641 H   0  0  0  0  0  0  0  0  0  0  0  0
   -3.2256   -2.7344   -0.5349 H   0  0  0  0  0  0  0  0  0  0  0  0
   -1.4126   -2.2444    0.4801 C   0  0  0  0  0  0  0  0  0  0  0  0
   -0.4686   -2.9534    0.8001 O   0  0  0  0  0  0  0  0  0  0  0  0
   -1.2736   -0.9704    0.1241 N   0  0  0  0  0  0  0  0  0  0  0  0
   -2.0996   -0.4354   -0.1019 H   0  0  0  0  0  0  0  0  0  0  0  0
   -0.0016   -0.2394    0.1271 C   0  0  1  0  0  0  0  0  0  0  0  0
    0.6995   -0.7619   -0.5275 H   0  0  0  0  0  0  0  0  0  0  0  0
   -0.2283    1.1832   -0.4215 C   0  0  0  0  0  0  0  0  0  0  0  0
   -1.0418    1.1667   -1.1479 H   0  0  0  0  0  0  0  0  0  0  0  0
   -0.5191    1.8485    0.3922 H   0  0  0  0  0  0  0  0  0  0  0  0
    0.9922    1.7616   -1.1312 C   0  0  0  0  0  0  0  0  0  0  0  0
    1.9670    1.1236   -1.5066 O   0  0  0  0  0  0  0  0  0  0  0  0
    0.9504    3.0919   -1.3324 O   0  0  0  0  0  0  0  0  0  0  0  0
    1.7581    3.3125   -1.7975 H   0  0  0  0  0  0  0  0  0  0  0  0
    0.5920   -0.2154    1.5497 C   0  0  0  0  0  0  0  0  0  0  0  0
    1.7860   -0.4596    1.7183 O   0  0  0  0  0  0  0  0  0  0  0  0
   -0.2294    0.0669    2.5672 N   0  0  0  0  0  0  0  0  0  0  0  0
   -1.2130    0.1938    2.3518 H   0  0  0  0  0  0  0  0  0  0  0  0
    0.1836    0.1337    3.9673 C   0  0  0  0  0  0  0  0  0  0  0  0
    1.0451    0.7976    4.0666 H   0  0  0  0  0  0  0  0  0  0  0  0
   -0.6344    0.5115    4.5820 H   0  0  0  0  0  0  0  0  0  0  0  0
    0.4676   -0.8609    4.3157 H   0  0  0  0  0  0  0  0  0  0  0  0
  5  6  2  0  0  0  0
  5  7  1  0  0  0  0
  2  3  1  0  0  0  0
  2  4  1  0  0  0  0
  2  5  1  0  0  0  0
  1  2  1  0  0  0  0
 18 19  2  0  0  0  0
 18 20  1  0  0  0  0
 16 17  1  0  0  0  0
 14 15  2  0  0  0  0
 14 16  1  0  0  0  0
 11 12  1  0  0  0  0
 11 13  1  0  0  0  0
 11 14  1  0  0  0  0
  9 10  1  0  0  0  0
  9 11  1  0  0  0  0
  9 18  1  0  0  0  0
  7  8  1  0  0  0  0
  7  9  1  0  0  0  0
 22 23  1  0  0  0  0
 22 24  1  0  0  0  0
 22 25  1  0  0  0  0
 20 21  1  0  0  0  0
 20 22  1  0  0  0  0
M  END
$$$$
default_name
  -OEChem-02102213163D

 25 24  0     1  0  0  0  0  0999 V2000
   -2.7826   -3.8464    0.7821 H   0  0  0  0  0  0  0  0  0  0  0  0
   -2.8156   -2.8034    0.4711 C   0  0  0  0  0  0  0  0  0  0  0  0
   -3.4336   -2.2354    1.1641 H   0  0  0  0  0  0  0  0  0  0  0  0
   -3.2256   -2.7344   -0.5349 H   0  0  0  0  0  0  0  0  0  0  0  0
   -1.4126   -2.2444    0.4801 C   0  0  0  0  0  0  0  0  0  0  0  0
   -0.4686   -2.9534    0.8001 O   0  0  0  0  0  0  0  0  0  0  0  0
   -1.2736   -0.9704    0.1241 N   0  0  0  0  0  0  0  0  0  0  0  0
   -2.0996   -0.4354   -0.1019 H   0  0  0  0  0  0  0  0  0  0  0  0
   -0.0016   -0.2394    0.1271 C   0  0  1  0  0  0  0  0  0  0  0  0
    0.6995   -0.7619   -0.5275 H   0  0  0  0  0  0  0  0  0  0  0  0
   -0.2283    1.1832   -0.4215 C   0  0  0  0  0  0  0  0  0  0  0  0
   -1.0418    1.1667   -1.1479 H   0  0  0  0  0  0  0  0  0  0  0  0
   -0.5191    1.8485    0.3922 H   0  0  0  0  0  0  0  0  0  0  0  0
    0.9922    1.7616   -1.1312 C   0  0  0  0  0  0  0  0  0  0  0  0
    1.8396    1.1149   -1.7328 O   0  0  0  0  0  0  0  0  0  0  0  0
    1.1077    3.1006   -1.0550 O   0  0  0  0  0  0  0  0  0  0  0  0
    1.8945    3.3249   -1.5528 H   0  0  0  0  0  0  0  0  0  0  0  0
    0.5920   -0.2154    1.5497 C   0  0  0  0  0  0  0  0  0  0  0  0
    1.7860   -0.4596    1.7183 O   0  0  0  0  0  0  0  0  0  0  0  0
   -0.2294    0.0669    2.5672 N   0  0  0  0  0  0  0  0  0  0  0  0
   -1.2130    0.1938    2.3518 H   0  0  0  0  0  0  0  0  0  0  0  0
    0.1836    0.1337    3.9673 C   0  0  0  0  0  0  0  0  0  0  0  0
    1.0451    0.7976    4.0666 H   0  0  0  0  0  0  0  0  0  0  0  0
   -0.6344    0.5115    4.5820 H   0  0  0  0  0  0  0  0  0  0  0  0
    0.4676   -0.8609    4.3157 H   0  0  0  0  0  0  0  0  0  0  0  0
  5  6  2  0  0  0  0
  5  7  1  0  0  0  0
  2  3  1  0  0  0  0
  2  4  1  0  0  0  0
  2  5  1  0  0  0  0
  1  2  1  0  0  0  0
 18 19  2  0  0  0  0
 18 20  1  0  0  0  0
 16 17  1  0  0  0  0
 14 15  2  0  0  0  0
 14 16  1  0  0  0  0
 11 12  1  0  0  0  0
 11 13  1  0  0  0  0
 11 14  1  0  0  0  0
  9 10  1  0  0  0  0
  9 11  1  0  0  0  0
  9 18  1  0  0  0  0
  7  8  1  0  0  0  0
  7  9  1  0  0  0  0
 22 23  1  0  0  0  0
 22 24  1  0  0  0  0
 22 25  1  0  0  0  0
 20 21  1  0  0  0  0
 20 22  1  0  0  0  0
M  END
$$$$
default_name
  -OEChem-02102213163D

 25 24  0     1  0  0  0  0  0999 V2000
   -2.7826   -3.8464    0.7821 H   0  0  0  0  0  0  0  0  0  0  0  0
   -2.8156   -2.8034    0.4711 C   0  0  0  0  0  0  0  0  0  0  0  0
   -3.4336   -2.2354    1.1641 H   0  0  0  0  0  0  0  0  0  0  0  0
   -3.2256   -2.7344   -0.5349 H   0  0  0  0  0  0  0  0  0  0  0  0
   -1.4126   -2.2444    0.4801 C   0  0  0  0  0  0  0  0  0  0  0  0
   -0.4686   -2.9534    0.8001 O   0  0  0  0  0  0  0  0  0  0  0  0
   -1.2736   -0.9704    0.1241 N   0  0  0  0  0  0  0  0  0  0  0  0
   -2.0996   -0.4354   -0.1019 H   0  0  0  0  0  0  0  0  0  0  0  0
   -0.0016   -0.2394    0.1271 C   0  0  1  0  0  0  0  0  0  0  0  0
    0.6995   -0.7619   -0.5275 H   0  0  0  0  0  0  0  0  0  0  0  0
   -0.2283    1.1832   -0.4215 C   0  0  0  0  0  0  0  0  0  0  0  0
   -1.0418    1.1667   -1.1479 H   0  0  0  0  0  0  0  0  0  0  0  0
   -0.5191    1.8485    0.3922 H   0  0  0  0  0  0  0  0  0  0  0  0
    0.9922    1.7616   -1.1312 C   0  0  0  0  0  0  0  0  0  0  0  0
    1.6933    1.1686   -1.9407 O   0  0  0  0  0  0  0  0  0  0  0  0
    1.2878    3.0325   -0.8007 O   0  0  0  0  0  0  0  0  0  0  0  0
    2.0518    3.2698   -1.3272 H   0  0  0  0  0  0  0  0  0  0  0  0
    0.5920   -0.2154    1.5497 C   0  0  0  0  0  0  0  0  0  0  0  0
    1.7860   -0.4596    1.7183 O   0  0  0  0  0  0  0  0  0  0  0  0
   -0.2294    0.0669    2.5672 N   0  0  0  0  0  0  0  0  0  0  0  0
   -1.2130    0.1938    2.3518 H   0  0  0  0  0  0  0  0  0  0  0  0
    0.1836    0.1337    3.9673 C   0  0  0  0  0  0  0  0  0  0  0  0
    1.0451    0.7976    4.0666 H   0  0  0  0  0  0  0  0  0  0  0  0
   -0.6344    0.5115    4.5820 H   0  0  0  0  0  0  0  0  0  0  0  0
    0.4676   -0.8609    4.3157 H   0  0  0  0  0  0  0  0  0  0  0  0
  5  6  2  0  0  0  0
  5  7  1  0  0  0  0
  2  3  1  0  0  0  0
  2  4  1  0  0  0  0
  2  5  1  0  0  0  0
  1  2  1  0  0  0  0
 18 19  2  0  0  0  0
 18 20  1  0  0  0  0
 16 17  1  0  0  0  0
 14 15  2  0  0  0  0
 14 16  1  0  0  0  0
 11 12  1  0  0  0  0
 11 13  1  0  0  0  0
 11 14  1  0  0  0  0
  9 10  1  0  0  0  0
  9 11  1  0  0  0  0
  9 18  1  0  0  0  0
  7  8  1  0  0  0  0
  7  9  1  0  0  0  0
 22 23  1  0  0  0  0
 22 24  1  0  0  0  0
 22 25  1  0  0  0  0
 20 21  1  0  0  0  0
 20 22  1  0  0  0  0
M  END
$$$$
default_name
  -OEChem-02102213163D

 25 24  0     1  0  0  0  0  0999 V2000
   -2.7826   -3.8464    0.7821 H   0  0  0  0  0  0  0  0  0  0  0  0
   -2.8156   -2.8034    0.4711 C   0  0  0  0  0  0  0  0  0  0  0  0
   -3.4336   -2.2354    1.1641 H   0  0  0  0  0  0  0  0  0  0  0  0
   -3.2256   -2.7344   -0.5349 H   0  0  0  0  0  0  0  0  0  0  0  0
   -1.4126   -2.2444    0.4801 C   0  0  0  0  0  0  0  0  0  0  0  0
   -0.4686   -2.9534    0.8001 O   0  0  0  0  0  0  0  0  0  0  0  0
   -1.2736   -0.9704    0.1241 N   0  0  0  0  0  0  0  0  0  0  0  0
   -2.0996   -0.4354   -0.1019 H   0  0  0  0  0  0  0  0  0  0  0  0
   -0.0016   -0.2394    0.1271 C   0  0  1  0  0  0  0  0  0  0  0  0
    0.6995   -0.7619   -0.5275 H   0  0  0  0  0  0  0  0  0  0  0  0
   -0.2283    1.1832   -0.4215 C   0  0  0  0  0  0  0  0  0  0  0  0
   -1.0418    1.1667   -1.1479 H   0  0  0  0  0  0  0  0  0  0  0  0
   -0.5191    1.8485    0.3922 H   0  0  0  0  0  0  0  0  0  0  0  0
    0.9922    1.7616   -1.1312 C   0  0  0  0  0  0  0  0  0  0  0  0
    1.5380    1.2812   -2.1159 O   0  0  0  0  0  0  0  0  0  0  0  0
    1.4786    2.8925   -0.5867 O   0  0  0  0  0  0  0  0  0  0  0  0
    2.2192    3.1509   -1.1362 H   0  0  0  0  0  0  0  0  0  0  0  0
    0.5920   -0.2154    1.5497 C   0  0  0  0  0  0  0  0  0  0  0  0
    1.7860   -0.4596    1.7183 O   0  0  0  0  0  0  0  0  0  0  0  0
   -0.2294    0.0669    2.5672 N   0  0  0  0  0  0  0  0  0  0  0  0
   -1.2130    0.1938    2.3518 H   0  0  0  0  0  0  0  0  0  0  0  0
    0.1836    0.1337    3.9673 C   0  0  0  0  0  0  0  0  0  0  0  0
    1.0451    0.7976    4.0666 H   0  0  0  0  0  0  0  0  0  0  0  0
   -0.6344    0.5115    4.5820 H   0  0  0  0  0  0  0  0  0  0  0  0
    0.4676   -0.8609    4.3157 H   0  0  0  0  0  0  0  0  0  0  0  0
  5  6  2  0  0  0  0
  5  7  1  0  0  0  0
  2  3  1  0  0  0  0
  2  4  1  0  0  0  0
  2  5  1  0  0  0  0
  1  2  1  0  0  0  0
 18 19  2  0  0  0  0
 18 20  1  0  0  0  0
 16 17  1  0  0  0  0
 14 15  2  0  0  0  0
 14 16  1  0  0  0  0
 11 12  1  0  0  0  0
 11 13  1  0  0  0  0
 11 14  1  0  0  0  0
  9 10  1  0  0  0  0
  9 11  1  0  0  0  0
  9 18  1  0  0  0  0
  7  8  1  0  0  0  0
  7  9  1  0  0  0  0
 22 23  1  0  0  0  0
 22 24  1  0  0  0  0
 22 25  1  0  0  0  0
 20 21  1  0  0  0  0
 20 22  1  0  0  0  0
M  END
$$$$
default_name
  -OEChem-02102213163D

 25 24  0     1  0  0  0  0  0999 V2000
   -2.7826   -3.8464    0.7821 H   0  0  0  0  0  0  0  0  0  0  0  0
   -2.8156   -2.8034    0.4711 C   0  0  0  0  0  0  0  0  0  0  0  0
   -3.4336   -2.2354    1.1641 H   0  0  0  0  0  0  0  0  0  0  0  0
   -3.2256   -2.7344   -0.5349 H   0  0  0  0  0  0  0  0  0  0  0  0
   -1.4126   -2.2444    0.4801 C   0  0  0  0  0  0  0  0  0  0  0  0
   -0.4686   -2.9534    0.8001 O   0  0  0  0  0  0  0  0  0  0  0  0
   -1.2736   -0.9704    0.1241 N   0  0  0  0  0  0  0  0  0  0  0  0
   -2.0996   -0.4354   -0.1019 H   0  0  0  0  0  0  0  0  0  0  0  0
   -0.0016   -0.2394    0.1271 C   0  0  1  0  0  0  0  0  0  0  0  0
    0.6995   -0.7619   -0.5275 H   0  0  0  0  0  0  0  0  0  0  0  0
   -0.2283    1.1832   -0.4215 C   0  0  0  0  0  0  0  0  0  0  0  0
   -1.0418    1.1667   -1.1479 H   0  0  0  0  0  0  0  0  0  0  0  0
   -0.5191    1.8485    0.3922 H   0  0  0  0  0  0  0  0  0  0  0  0
    0.9922    1.7616   -1.1312 C   0  0  0  0  0  0  0  0  0  0  0  0
    1.3844    1.4450   -2.2467 O   0  0  0  0  0  0  0  0  0  0  0  0
    1.6669    2.6900   -0.4278 O   0  0  0  0  0  0  0  0  0  0  0  0
    2.3853    2.9764   -0.9927 H   0  0  0  0  0  0  0  0  0  0  0  0
    0.5920   -0.2154    1.5497 C   0  0  0  0  0  0  0  0  0  0  0  0
    1.7860   -0.4596    1.7183 O   0  0  0  0  0  0  0  0  0  0  0  0
   -0.2294    0.0669    2.5672 N   0  0  0  0  0  0  0  0  0  0  0  0
   -1.2130    0.1938    2.3518 H   0  0  0  0  0  0  0  0  0  0  0  0
    0.1836    0.1337    3.9673 C   0  0  0  0  0  0  0  0  0  0  0  0
    1.0451    0.7976    4.0666 H   0  0  0  0  0  0  0  0  0  0  0  0
   -0.6344    0.5115    4.5820 H   0  0  0  0  0  0  0  0  0  0  0  0
    0.4676   -0.8609    4.3157 H   0  0  0  0  0  0  0  0  0  0  0  0
  5  6  2  0  0  0  0
  5  7  1  0  0  0  0
  2  3  1  0  0  0  0
  2  4  1  0  0  0  0
  2  5  1  0  0  0  0
  1  2  1  0  0  0  0
 18 19  2  0  0  0  0
 18 20  1  0  0  0  0
 16 17  1  0  0  0  0
 14 15  2  0  0  0  0
 14 16  1  0  0  0  0
 11 12  1  0  0  0  0
 11 13  1  0  0  0  0
 11 14  1  0  0  0  0
  9 10  1  0  0  0  0
  9 11  1  0  0  0  0
  9 18  1  0  0  0  0
  7  8  1  0  0  0  0
  7  9  1  0  0  0  0
 22 23  1  0  0  0  0
 22 24  1  0  0  0  0
 22 25  1  0  0  0  0
 20 21  1  0  0  0  0
 20 22  1  0  0  0  0
M  END
$$$$
default_name
  -OEChem-02102213163D

 25 24  0     1  0  0  0  0  0999 V2000
   -2.7826   -3.8464    0.7821 H   0  0  0  0  0  0  0  0  0  0  0  0
   -2.8156   -2.8034    0.4711 C   0  0  0  0  0  0  0  0  0  0  0  0
   -3.4336   -2.2354    1.1641 H   0  0  0  0  0  0  0  0  0  0  0  0
   -3.2256   -2.7344   -0.5349 H   0  0  0  0  0  0  0  0  0  0  0  0
   -1.4126   -2.2444    0.4801 C   0  0  0  0  0  0  0  0  0  0  0  0
   -0.4686   -2.9534    0.8001 O   0  0  0  0  0  0  0  0  0  0  0  0
   -1.2736   -0.9704    0.1241 N   0  0  0  0  0  0  0  0  0  0  0  0
   -2.0996   -0.4354   -0.1019 H   0  0  0  0  0  0  0  0  0  0  0  0
   -0.0016   -0.2394    0.1271 C   0  0  1  0  0  0  0  0  0  0  0  0
    0.6995   -0.7619   -0.5275 H   0  0  0  0  0  0  0  0  0  0  0  0
   -0.2283    1.1832   -0.4215 C   0  0  0  0  0  0  0  0  0  0  0  0
   -1.0418    1.1667   -1.1479 H   0  0  0  0  0  0  0  0  0  0  0  0
   -0.5191    1.8485    0.3922 H   0  0  0  0  0  0  0  0  0  0  0  0
    0.9922    1.7616   -1.1312 C   0  0  0  0  0  0  0  0  0  0  0  0
    1.2428    1.6487   -2.3240 O   0  0  0  0  0  0  0  0  0  0  0  0
    1.8401    2.4388   -0.3347 O   0  0  0  0  0  0  0  0  0  0  0  0
    2.5389    2.7581   -0.9066 H   0  0  0  0  0  0  0  0  0  0  0  0
    0.5920   -0.2154    1.5497 C   0  0  0  0  0  0  0  0  0  0  0  0
    1.7860   -0.4596    1.7183 O   0  0  0  0  0  0  0  0  0  0  0  0
   -0.2294    0.0669    2.5672 N   0  0  0  0  0  0  0  0  0  0  0  0
   -1.2130    0.1938    2.3518 H   0  0  0  0  0  0  0  0  0  0  0  0
    0.1836    0.1337    3.9673 C   0  0  0  0  0  0  0  0  0  0  0  0
    1.0451    0.7976    4.0666 H   0  0  0  0  0  0  0  0  0  0  0  0
   -0.6344    0.5115    4.5820 H   0  0  0  0  0  0  0  0  0  0  0  0
    0.4676   -0.8609    4.3157 H   0  0  0  0  0  0  0  0  0  0  0  0
  5  6  2  0  0  0  0
  5  7  1  0  0  0  0
  2  3  1  0  0  0  0
  2  4  1  0  0  0  0
  2  5  1  0  0  0  0
  1  2  1  0  0  0  0
 18 19  2  0  0  0  0
 18 20  1  0  0  0  0
 16 17  1  0  0  0  0
 14 15  2  0  0  0  0
 14 16  1  0  0  0  0
 11 12  1  0  0  0  0
 11 13  1  0  0  0  0
 11 14  1  0  0  0  0
  9 10  1  0  0  0  0
  9 11  1  0  0  0  0
  9 18  1  0  0  0  0
  7  8  1  0  0  0  0
  7  9  1  0  0  0  0
 22 23  1  0  0  0  0
 22 24  1  0  0  0  0
 22 25  1  0  0  0  0
 20 21  1  0  0  0  0
 20 22  1  0  0  0  0
M  END
$$$$
default_name
  -OEChem-02102213163D

 25 24  0     1  0  0  0  0  0999 V2000
   -2.7826   -3.8464    0.7821 H   0  0  0  0  0  0  0  0  0  0  0  0
   -2.8156   -2.8034    0.4711 C   0  0  0  0  0  0  0  0  0  0  0  0
   -3.4336   -2.2354    1.1641 H   0  0  0  0  0  0  0  0  0  0  0  0
   -3.2256   -2.7344   -0.5349 H   0  0  0  0  0  0  0  0  0  0  0  0
   -1.4126   -2.2444    0.4801 C   0  0  0  0  0  0  0  0  0  0  0  0
   -0.4686   -2.9534    0.8001 O   0  0  0  0  0  0  0  0  0  0  0  0
   -1.2736   -0.9704    0.1241 N   0  0  0  0  0  0  0  0  0  0  0  0
   -2.0996   -0.4354   -0.1019 H   0  0  0  0  0  0  0  0  0  0  0  0
   -0.0016   -0.2394    0.1271 C   0  0  1  0  0  0  0  0  0  0  0  0
    0.6995   -0.7619   -0.5275 H   0  0  0  0  0  0  0  0  0  0  0  0
   -0.2283    1.1832   -0.4215 C   0  0  0  0  0  0  0  0  0  0  0  0
   -1.0418    1.1667   -1.1479 H   0  0  0  0  0  0  0  0  0  0  0  0
   -0.5191    1.8485    0.3922 H   0  0  0  0  0  0  0  0  0  0  0  0
    0.9922    1.7616   -1.1312 C   0  0  0  0  0  0  0  0  0  0  0  0
    1.1231    1.8785   -2.3426 O   0  0  0  0  0  0  0  0  0  0  0  0
    1.9863    2.1560   -0.3138 O   0  0  0  0  0  0  0  0  0  0  0  0
    2.6693    2.5110   -0.8836 H   0  0  0  0  0  0  0  0  0  0  0  0
    0.5920   -0.2154    1.5497 C   0  0  0  0  0  0  0  0  0  0  0  0
    1.7860   -0.4596    1.7183 O   0  0  0  0  0  0  0  0  0  0  0  0
   -0.2294    0.0669    2.5672 N   0  0  0  0  0  0  0  0  0  0  0  0
   -1.2130    0.1938    2.3518 H   0  0  0  0  0  0  0  0  0  0  0  0
    0.1836    0.1337    3.9673 C   0  0  0  0  0  0  0  0  0  0  0  0
    1.0451    0.7976    4.0666 H   0  0  0  0  0  0  0  0  0  0  0  0
   -0.6344    0.5115    4.5820 H   0  0  0  0  0  0  0  0  0  0  0  0
    0.4676   -0.8609    4.3157 H   0  0  0  0  0  0  0  0  0  0  0  0
  5  6  2  0  0  0  0
  5  7  1  0  0  0  0
  2  3  1  0  0  0  0
  2  4  1  0  0  0  0
  2  5  1  0  0  0  0
  1  2  1  0  0  0  0
 18 19  2  0  0  0  0
 18 20  1  0  0  0  0
 16 17  1  0  0  0  0
 14 15  2  0  0  0  0
 14 16  1  0  0  0  0
 11 12  1  0  0  0  0
 11 13  1  0  0  0  0
 11 14  1  0  0  0  0
  9 10  1  0  0  0  0
  9 11  1  0  0  0  0
  9 18  1  0  0  0  0
  7  8  1  0  0  0  0
  7  9  1  0  0  0  0
 22 23  1  0  0  0  0
 22 24  1  0  0  0  0
 22 25  1  0  0  0  0
 20 21  1  0  0  0  0
 20 22  1  0  0  0  0
M  END
$$$$
default_name
  -OEChem-02102213163D

 25 24  0     1  0  0  0  0  0999 V2000
   -2.7826   -3.8464    0.7821 H   0  0  0  0  0  0  0  0  0  0  0  0
   -2.8156   -2.8034    0.4711 C   0  0  0  0  0  0  0  0  0  0  0  0
   -3.4336   -2.2354    1.1641 H   0  0  0  0  0  0  0  0  0  0  0  0
   -3.2256   -2.7344   -0.5349 H   0  0  0  0  0  0  0  0  0  0  0  0
   -1.4126   -2.2444    0.4801 C   0  0  0  0  0  0  0  0  0  0  0  0
   -0.4686   -2.9534    0.8001 O   0  0  0  0  0  0  0  0  0  0  0  0
   -1.2736   -0.9704    0.1241 N   0  0  0  0  0  0  0  0  0  0  0  0
   -2.0996   -0.4354   -0.1019 H   0  0  0  0  0  0  0  0  0  0  0  0
   -0.0016   -0.2394    0.1271 C   0  0  1  0  0  0  0  0  0  0  0  0
    0.6995   -0.7619   -0.5275 H   0  0  0  0  0  0  0  0  0  0  0  0
   -0.2283    1.1832   -0.4215 C   0  0  0  0  0  0  0  0  0  0  0  0
   -1.0418    1.1667   -1.1479 H   0  0  0  0  0  0  0  0  0  0  0  0
   -0.5191    1.8485    0.3922 H   0  0  0  0  0  0  0  0  0  0  0  0
    0.9922    1.7616   -1.1312 C   0  0  0  0  0  0  0  0  0  0  0  0
    1.0333    2.1188   -2.3013 O   0  0  0  0  0  0  0  0  0  0  0  0
    2.0955    1.8609   -0.3665 O   0  0  0  0  0  0  0  0  0  0  0  0
    2.7679    2.2518   -0.9254 H   0  0  0  0  0  0  0  0  0  0  0  0
    0.5920   -0.2154    1.5497 C   0  0  0  0  0  0  0  0  0  0  0  0
    1.7860   -0.4596    1.7183 O   0  0  0  0  0  0  0  0  0  0  0  0
   -0.2294    0.0669    2.5672 N   0  0  0  0  0  0  0  0  0  0  0  0
   -1.2130    0.1938    2.3518 H   0  0  0  0  0  0  0  0  0  0  0  0
    0.1836    0.1337    3.9673 C   0  0  0  0  0  0  0  0  0  0  0  0
    1.0451    0.7976    4.0666 H   0  0  0  0  0  0  0  0  0  0  0  0
   -0.6344    0.5115    4.5820 H   0  0  0  0  0  0  0  0  0  0  0  0
    0.4676   -0.8609    4.3157 H   0  0  0  0  0  0  0  0  0  0  0  0
  5  6  2  0  0  0  0
  5  7  1  0  0  0  0
  2  3  1  0  0  0  0
  2  4  1  0  0  0  0
  2  5  1  0  0  0  0
  1  2  1  0  0  0  0
 18 19  2  0  0  0  0
 18 20  1  0  0  0  0
 16 17  1  0  0  0  0
 14 15  2  0  0  0  0
 14 16  1  0  0  0  0
 11 12  1  0  0  0  0
 11 13  1  0  0  0  0
 11 14  1  0  0  0  0
  9 10  1  0  0  0  0
  9 11  1  0  0  0  0
  9 18  1  0  0  0  0
  7  8  1  0  0  0  0
  7  9  1  0  0  0  0
 22 23  1  0  0  0  0
 22 24  1  0  0  0  0
 22 25  1  0  0  0  0
 20 21  1  0  0  0  0
 20 22  1  0  0  0  0
M  END
$$$$
default_name
  -OEChem-02102213163D

 25 24  0     1  0  0  0  0  0999 V2000
   -2.7826   -3.8464    0.7821 H   0  0  0  0  0  0  0  0  0  0  0  0
   -2.8156   -2.8034    0.4711 C   0  0  0  0  0  0  0  0  0  0  0  0
   -3.4336   -2.2354    1.1641 H   0  0  0  0  0  0  0  0  0  0  0  0
   -3.2256   -2.7344   -0.5349 H   0  0  0  0  0  0  0  0  0  0  0  0
   -1.4126   -2.2444    0.4801 C   0  0  0  0  0  0  0  0  0  0  0  0
   -0.4686   -2.9534    0.8001 O   0  0  0  0  0  0  0  0  0  0  0  0
   -1.2736   -0.9704    0.1241 N   0  0  0  0  0  0  0  0  0  0  0  0
   -2.0996   -0.4354   -0.1019 H   0  0  0  0  0  0  0  0  0  0  0  0
   -0.0016   -0.2394    0.1271 C   0  0  1  0  0  0  0  0  0  0  0  0
    0.6995   -0.7619   -0.5275 H   0  0  0  0  0  0  0  0  0  0  0  0
   -0.2283    1.1832   -0.4215 C   0  0  0  0  0  0  0  0  0  0  0  0
   -1.0418    1.1667   -1.1479 H   0  0  0  0  0  0  0  0  0  0  0  0
   -0.5191    1.8485    0.3922 H   0  0  0  0  0  0  0  0  0  0  0  0
    0.9922    1.7616   -1.1312 C   0  0  0  0  0  0  0  0  0  0  0  0
    0.9795    2.3531   -2.2028 O   0  0  0  0  0  0  0  0  0  0  0  0
    2.1603    1.5737   -0.4892 O   0  0  0  0  0  0  0  0  0  0  0  0
    2.8278    1.9982   -1.0291 H   0  0  0  0  0  0  0  0  0  0  0  0
    0.5920   -0.2154    1.5497 C   0  0  0  0  0  0  0  0  0  0  0  0
    1.7860   -0.4596    1.7183 O   0  0  0  0  0  0  0  0  0  0  0  0
   -0.2294    0.0669    2.5672 N   0  0  0  0  0  0  0  0  0  0  0  0
   -1.2130    0.1938    2.3518 H   0  0  0  0  0  0  0  0  0  0  0  0
    0.1836    0.1337    3.9673 C   0  0  0  0  0  0  0  0  0  0  0  0
    1.0451    0.7976    4.0666 H   0  0  0  0  0  0  0  0  0  0  0  0
   -0.6344    0.5115    4.5820 H   0  0  0  0  0  0  0  0  0  0  0  0
    0.4676   -0.8609    4.3157 H   0  0  0  0  0  0  0  0  0  0  0  0
  5  6  2  0  0  0  0
  5  7  1  0  0  0  0
  2  3  1  0  0  0  0
  2  4  1  0  0  0  0
  2  5  1  0  0  0  0
  1  2  1  0  0  0  0
 18 19  2  0  0  0  0
 18 20  1  0  0  0  0
 16 17  1  0  0  0  0
 14 15  2  0  0  0  0
 14 16  1  0  0  0  0
 11 12  1  0  0  0  0
 11 13  1  0  0  0  0
 11 14  1  0  0  0  0
  9 10  1  0  0  0  0
  9 11  1  0  0  0  0
  9 18  1  0  0  0  0
  7  8  1  0  0  0  0
  7  9  1  0  0  0  0
 22 23  1  0  0  0  0
 22 24  1  0  0  0  0
 22 25  1  0  0  0  0
 20 21  1  0  0  0  0
 20 22  1  0  0  0  0
M  END
$$$$
default_name
  -OEChem-02102213163D

 25 24  0     1  0  0  0  0  0999 V2000
   -2.7826   -3.8464    0.7821 H   0  0  0  0  0  0  0  0  0  0  0  0
   -2.8156   -2.8034    0.4711 C   0  0  0  0  0  0  0  0  0  0  0  0
   -3.4336   -2.2354    1.1641 H   0  0  0  0  0  0  0  0  0  0  0  0
   -3.2256   -2.7344   -0.5349 H   0  0  0  0  0  0  0  0  0  0  0  0
   -1.4126   -2.2444    0.4801 C   0  0  0  0  0  0  0  0  0  0  0  0
   -0.4686   -2.9534    0.8001 O   0  0  0  0  0  0  0  0  0  0  0  0
   -1.2736   -0.9704    0.1241 N   0  0  0  0  0  0  0  0  0  0  0  0
   -2.0996   -0.4354   -0.1019 H   0  0  0  0  0  0  0  0  0  0  0  0
   -0.0016   -0.2394    0.1271 C   0  0  1  0  0  0  0  0  0  0  0  0
    0.6995   -0.7619   -0.5275 H   0  0  0  0  0  0  0  0  0  0  0  0
   -0.2283    1.1832   -0.4215 C   0  0  0  0  0  0  0  0  0  0  0  0
   -1.0418    1.1667   -1.1479 H   0  0  0  0  0  0  0  0  0  0  0  0
   -0.5191    1.8485    0.3922 H   0  0  0  0  0  0  0  0  0  0  0  0
    0.9922    1.7616   -1.1312 C   0  0  0  0  0  0  0  0  0  0  0  0
    0.9654    2.5655   -2.0538 O   0  0  0  0  0  0  0  0  0  0  0  0
    2.1762    1.3138   -0.6735 O   0  0  0  0  0  0  0  0  0  0  0  0
    2.8449    1.7675   -1.1876 H   0  0  0  0  0  0  0  0  0  0  0  0
    0.5920   -0.2154    1.5497 C   0  0  0  0  0  0  0  0  0  0  0  0
    1.7860   -0.4596    1.7183 O   0  0  0  0  0  0  0  0  0  0  0  0
   -0.2294    0.0669    2.5672 N   0  0  0  0  0  0  0  0  0  0  0  0
   -1.2130    0.1938    2.3518 H   0  0  0  0  0  0  0  0  0  0  0  0
    0.1836    0.1337    3.9673 C   0  0  0  0  0  0  0  0  0  0  0  0
    1.0451    0.7976    4.0666 H   0  0  0  0  0  0  0  0  0  0  0  0
   -0.6344    0.5115    4.5820 H   0  0  0  0  0  0  0  0  0  0  0  0
    0.4676   -0.8609    4.3157 H   0  0  0  0  0  0  0  0  0  0  0  0
  5  6  2  0  0  0  0
  5  7  1  0  0  0  0
  2  3  1  0  0  0  0
  2  4  1  0  0  0  0
  2  5  1  0  0  0  0
  1  2  1  0  0  0  0
 18 19  2  0  0  0  0
 18 20  1  0  0  0  0
 16 17  1  0  0  0  0
 14 15  2  0  0  0  0
 14 16  1  0  0  0  0
 11 12  1  0  0  0  0
 11 13  1  0  0  0  0
 11 14  1  0  0  0  0
  9 10  1  0  0  0  0
  9 11  1  0  0  0  0
  9 18  1  0  0  0  0
  7  8  1  0  0  0  0
  7  9  1  0  0  0  0
 22 23  1  0  0  0  0
 22 24  1  0  0  0  0
 22 25  1  0  0  0  0
 20 21  1  0  0  0  0
 20 22  1  0  0  0  0
M  END
$$$$
default_name
  -OEChem-02102213163D

 25 24  0     1  0  0  0  0  0999 V2000
   -2.7826   -3.8464    0.7821 H   0  0  0  0  0  0  0  0  0  0  0  0
   -2.8156   -2.8034    0.4711 C   0  0  0  0  0  0  0  0  0  0  0  0
   -3.4336   -2.2354    1.1641 H   0  0  0  0  0  0  0  0  0  0  0  0
   -3.2256   -2.7344   -0.5349 H   0  0  0  0  0  0  0  0  0  0  0  0
   -1.4126   -2.2444    0.4801 C   0  0  0  0  0  0  0  0  0  0  0  0
   -0.4686   -2.9534    0.8001 O   0  0  0  0  0  0  0  0  0  0  0  0
   -1.2736   -0.9704    0.1241 N   0  0  0  0  0  0  0  0  0  0  0  0
   -2.0996   -0.4354   -0.1019 H   0  0  0  0  0  0  0  0  0  0  0  0
   -0.0016   -0.2394    0.1271 C   0  0  1  0  0  0  0  0  0  0  0  0
    0.6995   -0.7619   -0.5275 H   0  0  0  0  0  0  0  0  0  0  0  0
   -0.2283    1.1832   -0.4215 C   0  0  0  0  0  0  0  0  0  0  0  0
   -1.0418    1.1667   -1.1479 H   0  0  0  0  0  0  0  0  0  0  0  0
   -0.5191    1.8485    0.3922 H   0  0  0  0  0  0  0  0  0  0  0  0
    0.9922    1.7616   -1.1312 C   0  0  0  0  0  0  0  0  0  0  0  0
    0.9920    2.7416   -1.8646 O   0  0  0  0  0  0  0  0  0  0  0  0
    2.1423    1.0991   -0.9070 O   0  0  0  0  0  0  0  0  0  0  0  0
    2.8181    1.5755   -1.3902 H   0  0  0  0  0  0  0  0  0  0  0  0
    0.5920   -0.2154    1.5497 C   0  0  0  0  0  0  0  0  0  0  0  0
    1.7860   -0.4596    1.7183 O   0  0  0  0  0  0  0  0  0  0  0  0
   -0.2294    0.0669    2.5672 N   0  0  0  0  0  0  0  0  0  0  0  0
   -1.2130    0.1938    2.3518 H   0  0  0  0  0  0  0  0  0  0  0  0
    0.1836    0.1337    3.9673 C   0  0  0  0  0  0  0  0  0  0  0  0
    1.0451    0.7976    4.0666 H   0  0  0  0  0  0  0  0  0  0  0  0
   -0.6344    0.5115    4.5820 H   0  0  0  0  0  0  0  0  0  0  0  0
    0.4676   -0.8609    4.3157 H   0  0  0  0  0  0  0  0  0  0  0  0
  5  6  2  0  0  0  0
  5  7  1  0  0  0  0
  2  3  1  0  0  0  0
  2  4  1  0  0  0  0
  2  5  1  0  0  0  0
  1  2  1  0  0  0  0
 18 19  2  0  0  0  0
 18 20  1  0  0  0  0
 16 17  1  0  0  0  0
 14 15  2  0  0  0  0
 14 16  1  0  0  0  0
 11 12  1  0  0  0  0
 11 13  1  0  0  0  0
 11 14  1  0  0  0  0
  9 10  1  0  0  0  0
  9 11  1  0  0  0  0
  9 18  1  0  0  0  0
  7  8  1  0  0  0  0
  7  9  1  0  0  0  0
 22 23  1  0  0  0  0
 22 24  1  0  0  0  0
 22 25  1  0  0  0  0
 20 21  1  0  0  0  0
 20 22  1  0  0  0  0
M  END
$$$$
default_name
  -OEChem-02102213163D

 25 24  0     1  0  0  0  0  0999 V2000
   -2.7826   -3.8464    0.7821 H   0  0  0  0  0  0  0  0  0  0  0  0
   -2.8156   -2.8034    0.4711 C   0  0  0  0  0  0  0  0  0  0  0  0
   -3.4336   -2.2354    1.1641 H   0  0  0  0  0  0  0  0  0  0  0  0
   -3.2256   -2.7344   -0.5349 H   0  0  0  0  0  0  0  0  0  0  0  0
   -1.4126   -2.2444    0.4801 C   0  0  0  0  0  0  0  0  0  0  0  0
   -0.4686   -2.9534    0.8001 O   0  0  0  0  0  0  0  0  0  0  0  0
   -1.2736   -0.9704    0.1241 N   0  0  0  0  0  0  0  0  0  0  0  0
   -2.0996   -0.4354   -0.1019 H   0  0  0  0  0  0  0  0  0  0  0  0
   -0.0016   -0.2394    0.1271 C   0  0  1  0  0  0  0  0  0  0  0  0
    0.6995   -0.7619   -0.5275 H   0  0  0  0  0  0  0  0  0  0  0  0
   -0.2283    1.1832   -0.4215 C   0  0  0  0  0  0  0  0  0  0  0  0
   -1.1909    1.2260   -0.9326 H   0  0  0  0  0  0  0  0  0  0  0  0
   -0.2554    1.8952    0.4041 H   0  0  0  0  0  0  0  0  0  0  0  0
    0.8313    1.6215   -1.4279 C   0  0  0  0  0  0  0  0  0  0  0  0
    0.8670    2.7034   -1.9994 O   0  0  0  0  0  0  0  0  0  0  0  0
    1.7825    0.7036   -1.6821 O   0  0  0  0  0  0  0  0  0  0  0  0
    2.3829    1.1135   -2.3056 H   0  0  0  0  0  0  0  0  0  0  0  0
    0.5920   -0.2154    1.5497 C   0  0  0  0  0  0  0  0  0  0  0  0
    1.7860   -0.4596    1.7183 O   0  0  0  0  0  0  0  0  0  0  0  0
   -0.2294    0.0669    2.5672 N   0  0  0  0  0  0  0  0  0  0  0  0
   -1.2130    0.1938    2.3518 H   0  0  0  0  0  0  0  0  0  0  0  0
    0.1836    0.1337    3.9673 C   0  0  0  0  0  0  0  0  0  0  0  0
    1.0451    0.7976    4.0666 H   0  0  0  0  0  0  0  0  0  0  0  0
   -0.6344    0.5115    4.5820 H   0  0  0  0  0  0  0  0  0  0  0  0
    0.4676   -0.8609    4.3157 H   0  0  0  0  0  0  0  0  0  0  0  0
  5  6  2  0  0  0  0
  5  7  1  0  0  0  0
  2  3  1  0  0  0  0
  2  4  1  0  0  0  0
  2  5  1  0  0  0  0
  1  2  1  0  0  0  0
 18 19  2  0  0  0  0
 18 20  1  0  0  0  0
 16 17  1  0  0  0  0
 14 15  2  0  0  0  0
 14 16  1  0  0  0  0
 11 12  1  0  0  0  0
 11 13  1  0  0  0  0
 11 14  1  0  0  0  0
  9 10  1  0  0  0  0
  9 11  1  0  0  0  0
  9 18  1  0  0  0  0
  7  8  1  0  0  0  0
  7  9  1  0  0  0  0
 22 23  1  0  0  0  0
 22 24  1  0  0  0  0
 22 25  1  0  0  0  0
 20 21  1  0  0  0  0
 20 22  1  0  0  0  0
M  END
$$$$
default_name
  -OEChem-02102213163D

 25 24  0     1  0  0  0  0  0999 V2000
   -2.7826   -3.8464    0.7821 H   0  0  0  0  0  0  0  0  0  0  0  0
   -2.8156   -2.8034    0.4711 C   0  0  0  0  0  0  0  0  0  0  0  0
   -3.4336   -2.2354    1.1641 H   0  0  0  0  0  0  0  0  0  0  0  0
   -3.2256   -2.7344   -0.5349 H   0  0  0  0  0  0  0  0  0  0  0  0
   -1.4126   -2.2444    0.4801 C   0  0  0  0  0  0  0  0  0  0  0  0
   -0.4686   -2.9534    0.8001 O   0  0  0  0  0  0  0  0  0  0  0  0
   -1.2736   -0.9704    0.1241 N   0  0  0  0  0  0  0  0  0  0  0  0
   -2.0996   -0.4354   -0.1019 H   0  0  0  0  0  0  0  0  0  0  0  0
   -0.0016   -0.2394    0.1271 C   0  0  1  0  0  0  0  0  0  0  0  0
    0.6995   -0.7619   -0.5275 H   0  0  0  0  0  0  0  0  0  0  0  0
   -0.2283    1.1832   -0.4215 C   0  0  0  0  0  0  0  0  0  0  0  0
   -1.1909    1.2260   -0.9326 H   0  0  0  0  0  0  0  0  0  0  0  0
   -0.2554    1.8952    0.4041 H   0  0  0  0  0  0  0  0  0  0  0  0
    0.8313    1.6215   -1.4279 C   0  0  0  0  0  0  0  0  0  0  0  0
    1.0248    2.7702   -1.8041 O   0  0  0  0  0  0  0  0  0  0  0  0
    1.5879    0.6237   -1.9218 O   0  0  0  0  0  0  0  0  0  0  0  0
    2.2138    1.0385   -2.5163 H   0  0  0  0  0  0  0  0  0  0  0  0
    0.5920   -0.2154    1.5497 C   0  0  0  0  0  0  0  0  0  0  0  0
    1.7860   -0.4596    1.7183 O   0  0  0  0  0  0  0  0  0  0  0  0
   -0.2294    0.0669    2.5672 N   0  0  0  0  0  0  0  0  0  0  0  0
   -1.2130    0.1938    2.3518 H   0  0  0  0  0  0  0  0  0  0  0  0
    0.1836    0.1337    3.9673 C   0  0  0  0  0  0  0  0  0  0  0  0
    1.0451    0.7976    4.0666 H   0  0  0  0  0  0  0  0  0  0  0  0
   -0.6344    0.5115    4.5820 H   0  0  0  0  0  0  0  0  0  0  0  0
    0.4676   -0.8609    4.3157 H   0  0  0  0  0  0  0  0  0  0  0  0
  5  6  2  0  0  0  0
  5  7  1  0  0  0  0
  2  3  1  0  0  0  0
  2  4  1  0  0  0  0
  2  5  1  0  0  0  0
  1  2  1  0  0  0  0
 18 19  2  0  0  0  0
 18 20  1  0  0  0  0
 16 17  1  0  0  0  0
 14 15  2  0  0  0  0
 14 16  1  0  0  0  0
 11 12  1  0  0  0  0
 11 13  1  0  0  0  0
 11 14  1  0  0  0  0
  9 10  1  0  0  0  0
  9 11  1  0  0  0  0
  9 18  1  0  0  0  0
  7  8  1  0  0  0  0
  7  9  1  0  0  0  0
 22 23  1  0  0  0  0
 22 24  1  0  0  0  0
 22 25  1  0  0  0  0
 20 21  1  0  0  0  0
 20 22  1  0  0  0  0
M  END
$$$$
default_name
  -OEChem-02102213163D

 25 24  0     1  0  0  0  0  0999 V2000
   -2.7826   -3.8464    0.7821 H   0  0  0  0  0  0  0  0  0  0  0  0
   -2.8156   -2.8034    0.4711 C   0  0  0  0  0  0  0  0  0  0  0  0
   -3.4336   -2.2354    1.1641 H   0  0  0  0  0  0  0  0  0  0  0  0
   -3.2256   -2.7344   -0.5349 H   0  0  0  0  0  0  0  0  0  0  0  0
   -1.4126   -2.2444    0.4801 C   0  0  0  0  0  0  0  0  0  0  0  0
   -0.4686   -2.9534    0.8001 O   0  0  0  0  0  0  0  0  0  0  0  0
   -1.2736   -0.9704    0.1241 N   0  0  0  0  0  0  0  0  0  0  0  0
   -2.0996   -0.4354   -0.1019 H   0  0  0  0  0  0  0  0  0  0  0  0
   -0.0016   -0.2394    0.1271 C   0  0  1  0  0  0  0  0  0  0  0  0
    0.6995   -0.7619   -0.5275 H   0  0  0  0  0  0  0  0  0  0  0  0
   -0.2283    1.1832   -0.4215 C   0  0  0  0  0  0  0  0  0  0  0  0
   -1.1909    1.2260   -0.9326 H   0  0  0  0  0  0  0  0  0  0  0  0
   -0.2554    1.8952    0.4041 H   0  0  0  0  0  0  0  0  0  0  0  0
    0.8313    1.6215   -1.4279 C   0  0  0  0  0  0  0  0  0  0  0  0
    1.2032    2.7726   -1.6152 O   0  0  0  0  0  0  0  0  0  0  0  0
    1.3684    0.6229   -2.1533 O   0  0  0  0  0  0  0  0  0  0  0  0
    2.0219    1.0328   -2.7208 H   0  0  0  0  0  0  0  0  0  0  0  0
    0.5920   -0.2154    1.5497 C   0  0  0  0  0  0  0  0  0  0  0  0
    1.7860   -0.4596    1.7183 O   0  0  0  0  0  0  0  0  0  0  0  0
   -0.2294    0.0669    2.5672 N   0  0  0  0  0  0  0  0  0  0  0  0
   -1.2130    0.1938    2.3518 H   0  0  0  0  0  0  0  0  0  0  0  0
    0.1836    0.1337    3.9673 C   0  0  0  0  0  0  0  0  0  0  0  0
    1.0451    0.7976    4.0666 H   0  0  0  0  0  0  0  0  0  0  0  0
   -0.6344    0.5115    4.5820 H   0  0  0  0  0  0  0  0  0  0  0  0
    0.4676   -0.8609    4.3157 H   0  0  0  0  0  0  0  0  0  0  0  0
  5  6  2  0  0  0  0
  5  7  1  0  0  0  0
  2  3  1  0  0  0  0
  2  4  1  0  0  0  0
  2  5  1  0  0  0  0
  1  2  1  0  0  0  0
 18 19  2  0  0  0  0
 18 20  1  0  0  0  0
 16 17  1  0  0  0  0
 14 15  2  0  0  0  0
 14 16  1  0  0  0  0
 11 12  1  0  0  0  0
 11 13  1  0  0  0  0
 11 14  1  0  0  0  0
  9 10  1  0  0  0  0
  9 11  1  0  0  0  0
  9 18  1  0  0  0  0
  7  8  1  0  0  0  0
  7  9  1  0  0  0  0
 22 23  1  0  0  0  0
 22 24  1  0  0  0  0
 22 25  1  0  0  0  0
 20 21  1  0  0  0  0
 20 22  1  0  0  0  0
M  END
$$$$
default_name
  -OEChem-02102213163D

 25 24  0     1  0  0  0  0  0999 V2000
   -2.7826   -3.8464    0.7821 H   0  0  0  0  0  0  0  0  0  0  0  0
   -2.8156   -2.8034    0.4711 C   0  0  0  0  0  0  0  0  0  0  0  0
   -3.4336   -2.2354    1.1641 H   0  0  0  0  0  0  0  0  0  0  0  0
   -3.2256   -2.7344   -0.5349 H   0  0  0  0  0  0  0  0  0  0  0  0
   -1.4126   -2.2444    0.4801 C   0  0  0  0  0  0  0  0  0  0  0  0
   -0.4686   -2.9534    0.8001 O   0  0  0  0  0  0  0  0  0  0  0  0
   -1.2736   -0.9704    0.1241 N   0  0  0  0  0  0  0  0  0  0  0  0
   -2.0996   -0.4354   -0.1019 H   0  0  0  0  0  0  0  0  0  0  0  0
   -0.0016   -0.2394    0.1271 C   0  0  1  0  0  0  0  0  0  0  0  0
    0.6995   -0.7619   -0.5275 H   0  0  0  0  0  0  0  0  0  0  0  0
   -0.2283    1.1832   -0.4215 C   0  0  0  0  0  0  0  0  0  0  0  0
   -1.1909    1.2260   -0.9326 H   0  0  0  0  0  0  0  0  0  0  0  0
   -0.2554    1.8952    0.4041 H   0  0  0  0  0  0  0  0  0  0  0  0
    0.8313    1.6215   -1.4279 C   0  0  0  0  0  0  0  0  0  0  0  0
    1.3900    2.7105   -1.4456 O   0  0  0  0  0  0  0  0  0  0  0  0
    1.1390    0.7011   -2.3607 O   0  0  0  0  0  0  0  0  0  0  0  0
    1.8205    1.0967   -2.9051 H   0  0  0  0  0  0  0  0  0  0  0  0
    0.5920   -0.2154    1.5497 C   0  0  0  0  0  0  0  0  0  0  0  0
    1.7860   -0.4596    1.7183 O   0  0  0  0  0  0  0  0  0  0  0  0
   -0.2294    0.0669    2.5672 N   0  0  0  0  0  0  0  0  0  0  0  0
   -1.2130    0.1938    2.3518 H   0  0  0  0  0  0  0  0  0  0  0  0
    0.1836    0.1337    3.9673 C   0  0  0  0  0  0  0  0  0  0  0  0
    1.0451    0.7976    4.0666 H   0  0  0  0  0  0  0  0  0  0  0  0
   -0.6344    0.5115    4.5820 H   0  0  0  0  0  0  0  0  0  0  0  0
    0.4676   -0.8609    4.3157 H   0  0  0  0  0  0  0  0  0  0  0  0
  5  6  2  0  0  0  0
  5  7  1  0  0  0  0
  2  3  1  0  0  0  0
  2  4  1  0  0  0  0
  2  5  1  0  0  0  0
  1  2  1  0  0  0  0
 18 19  2  0  0  0  0
 18 20  1  0  0  0  0
 16 17  1  0  0  0  0
 14 15  2  0  0  0  0
 14 16  1  0  0  0  0
 11 12  1  0  0  0  0
 11 13  1  0  0  0  0
 11 14  1  0  0  0  0
  9 10  1  0  0  0  0
  9 11  1  0  0  0  0
  9 18  1  0  0  0  0
  7  8  1  0  0  0  0
  7  9  1  0  0  0  0
 22 23  1  0  0  0  0
 22 24  1  0  0  0  0
 22 25  1  0  0  0  0
 20 21  1  0  0  0  0
 20 22  1  0  0  0  0
M  END
$$$$
default_name
  -OEChem-02102213163D

 25 24  0     1  0  0  0  0  0999 V2000
   -2.7826   -3.8464    0.7821 H   0  0  0  0  0  0  0  0  0  0  0  0
   -2.8156   -2.8034    0.4711 C   0  0  0  0  0  0  0  0  0  0  0  0
   -3.4336   -2.2354    1.1641 H   0  0  0  0  0  0  0  0  0  0  0  0
   -3.2256   -2.7344   -0.5349 H   0  0  0  0  0  0  0  0  0  0  0  0
   -1.4126   -2.2444    0.4801 C   0  0  0  0  0  0  0  0  0  0  0  0
   -0.4686   -2.9534    0.8001 O   0  0  0  0  0  0  0  0  0  0  0  0
   -1.2736   -0.9704    0.1241 N   0  0  0  0  0  0  0  0  0  0  0  0
   -2.0996   -0.4354   -0.1019 H   0  0  0  0  0  0  0  0  0  0  0  0
   -0.0016   -0.2394    0.1271 C   0  0  1  0  0  0  0  0  0  0  0  0
    0.6995   -0.7619   -0.5275 H   0  0  0  0  0  0  0  0  0  0  0  0
   -0.2283    1.1832   -0.4215 C   0  0  0  0  0  0  0  0  0  0  0  0
   -1.1909    1.2260   -0.9326 H   0  0  0  0  0  0  0  0  0  0  0  0
   -0.2554    1.8952    0.4041 H   0  0  0  0  0  0  0  0  0  0  0  0
    0.8313    1.6215   -1.4279 C   0  0  0  0  0  0  0  0  0  0  0  0
    1.5724    2.5882   -1.3068 O   0  0  0  0  0  0  0  0  0  0  0  0
    0.9153    0.8532   -2.5300 O   0  0  0  0  0  0  0  0  0  0  0  0
    1.6231    1.2261   -3.0566 H   0  0  0  0  0  0  0  0  0  0  0  0
    0.5920   -0.2154    1.5497 C   0  0  0  0  0  0  0  0  0  0  0  0
    1.7860   -0.4596    1.7183 O   0  0  0  0  0  0  0  0  0  0  0  0
   -0.2294    0.0669    2.5672 N   0  0  0  0  0  0  0  0  0  0  0  0
   -1.2130    0.1938    2.3518 H   0  0  0  0  0  0  0  0  0  0  0  0
    0.1836    0.1337    3.9673 C   0  0  0  0  0  0  0  0  0  0  0  0
    1.0451    0.7976    4.0666 H   0  0  0  0  0  0  0  0  0  0  0  0
   -0.6344    0.5115    4.5820 H   0  0  0  0  0  0  0  0  0  0  0  0
    0.4676   -0.8609    4.3157 H   0  0  0  0  0  0  0  0  0  0  0  0
  5  6  2  0  0  0  0
  5  7  1  0  0  0  0
  2  3  1  0  0  0  0
  2  4  1  0  0  0  0
  2  5  1  0  0  0  0
  1  2  1  0  0  0  0
 18 19  2  0  0  0  0
 18 20  1  0  0  0  0
 16 17  1  0  0  0  0
 14 15  2  0  0  0  0
 14 16  1  0  0  0  0
 11 12  1  0  0  0  0
 11 13  1  0  0  0  0
 11 14  1  0  0  0  0
  9 10  1  0  0  0  0
  9 11  1  0  0  0  0
  9 18  1  0  0  0  0
  7  8  1  0  0  0  0
  7  9  1  0  0  0  0
 22 23  1  0  0  0  0
 22 24  1  0  0  0  0
 22 25  1  0  0  0  0
 20 21  1  0  0  0  0
 20 22  1  0  0  0  0
M  END
$$$$
default_name
  -OEChem-02102213163D

 25 24  0     1  0  0  0  0  0999 V2000
   -2.7826   -3.8464    0.7821 H   0  0  0  0  0  0  0  0  0  0  0  0
   -2.8156   -2.8034    0.4711 C   0  0  0  0  0  0  0  0  0  0  0  0
   -3.4336   -2.2354    1.1641 H   0  0  0  0  0  0  0  0  0  0  0  0
   -3.2256   -2.7344   -0.5349 H   0  0  0  0  0  0  0  0  0  0  0  0
   -1.4126   -2.2444    0.4801 C   0  0  0  0  0  0  0  0  0  0  0  0
   -0.4686   -2.9534    0.8001 O   0  0  0  0  0  0  0  0  0  0  0  0
   -1.2736   -0.9704    0.1241 N   0  0  0  0  0  0  0  0  0  0  0  0
   -2.0996   -0.4354   -0.1019 H   0  0  0  0  0  0  0  0  0  0  0  0
   -0.0016   -0.2394    0.1271 C   0  0  1  0  0  0  0  0  0  0  0  0
    0.6995   -0.7619   -0.5275 H   0  0  0  0  0  0  0  0  0  0  0  0
   -0.2283    1.1832   -0.4215 C   0  0  0  0  0  0  0  0  0  0  0  0
   -1.1909    1.2260   -0.9326 H   0  0  0  0  0  0  0  0  0  0  0  0
   -0.2554    1.8952    0.4041 H   0  0  0  0  0  0  0  0  0  0  0  0
    0.8313    1.6215   -1.4279 C   0  0  0  0  0  0  0  0  0  0  0  0
    1.7381    2.4139   -1.2083 O   0  0  0  0  0  0  0  0  0  0  0  0
    0.7127    1.0686   -2.6495 O   0  0  0  0  0  0  0  0  0  0  0  0
    1.4432    1.4119   -3.1650 H   0  0  0  0  0  0  0  0  0  0  0  0
    0.5920   -0.2154    1.5497 C   0  0  0  0  0  0  0  0  0  0  0  0
    1.7860   -0.4596    1.7183 O   0  0  0  0  0  0  0  0  0  0  0  0
   -0.2294    0.0669    2.5672 N   0  0  0  0  0  0  0  0  0  0  0  0
   -1.2130    0.1938    2.3518 H   0  0  0  0  0  0  0  0  0  0  0  0
    0.1836    0.1337    3.9673 C   0  0  0  0  0  0  0  0  0  0  0  0
    1.0451    0.7976    4.0666 H   0  0  0  0  0  0  0  0  0  0  0  0
   -0.6344    0.5115    4.5820 H   0  0  0  0  0  0  0  0  0  0  0  0
    0.4676   -0.8609    4.3157 H   0  0  0  0  0  0  0  0  0  0  0  0
  5  6  2  0  0  0  0
  5  7  1  0  0  0  0
  2  3  1  0  0  0  0
  2  4  1  0  0  0  0
  2  5  1  0  0  0  0
  1  2  1  0  0  0  0
 18 19  2  0  0  0  0
 18 20  1  0  0  0  0
 16 17  1  0  0  0  0
 14 15  2  0  0  0  0
 14 16  1  0  0  0  0
 11 12  1  0  0  0  0
 11 13  1  0  0  0  0
 11 14  1  0  0  0  0
  9 10  1  0  0  0  0
  9 11  1  0  0  0  0
  9 18  1  0  0  0  0
  7  8  1  0  0  0  0
  7  9  1  0  0  0  0
 22 23  1  0  0  0  0
 22 24  1  0  0  0  0
 22 25  1  0  0  0  0
 20 21  1  0  0  0  0
 20 22  1  0  0  0  0
M  END
$$$$
default_name
  -OEChem-02102213163D

 25 24  0     1  0  0  0  0  0999 V2000
   -2.7826   -3.8464    0.7821 H   0  0  0  0  0  0  0  0  0  0  0  0
   -2.8156   -2.8034    0.4711 C   0  0  0  0  0  0  0  0  0  0  0  0
   -3.4336   -2.2354    1.1641 H   0  0  0  0  0  0  0  0  0  0  0  0
   -3.2256   -2.7344   -0.5349 H   0  0  0  0  0  0  0  0  0  0  0  0
   -1.4126   -2.2444    0.4801 C   0  0  0  0  0  0  0  0  0  0  0  0
   -0.4686   -2.9534    0.8001 O   0  0  0  0  0  0  0  0  0  0  0  0
   -1.2736   -0.9704    0.1241 N   0  0  0  0  0  0  0  0  0  0  0  0
   -2.0996   -0.4354   -0.1019 H   0  0  0  0  0  0  0  0  0  0  0  0
   -0.0016   -0.2394    0.1271 C   0  0  1  0  0  0  0  0  0  0  0  0
    0.6995   -0.7619   -0.5275 H   0  0  0  0  0  0  0  0  0  0  0  0
   -0.2283    1.1832   -0.4215 C   0  0  0  0  0  0  0  0  0  0  0  0
   -1.1909    1.2260   -0.9326 H   0  0  0  0  0  0  0  0  0  0  0  0
   -0.2554    1.8952    0.4041 H   0  0  0  0  0  0  0  0  0  0  0  0
    0.8313    1.6215   -1.4279 C   0  0  0  0  0  0  0  0  0  0  0  0
    1.8756    2.1996   -1.1568 O   0  0  0  0  0  0  0  0  0  0  0  0
    0.5449    1.3328   -2.7111 O   0  0  0  0  0  0  0  0  0  0  0  0
    1.2931    1.6416   -3.2230 H   0  0  0  0  0  0  0  0  0  0  0  0
    0.5920   -0.2154    1.5497 C   0  0  0  0  0  0  0  0  0  0  0  0
    1.7860   -0.4596    1.7183 O   0  0  0  0  0  0  0  0  0  0  0  0
   -0.2294    0.0669    2.5672 N   0  0  0  0  0  0  0  0  0  0  0  0
   -1.2130    0.1938    2.3518 H   0  0  0  0  0  0  0  0  0  0  0  0
    0.1836    0.1337    3.9673 C   0  0  0  0  0  0  0  0  0  0  0  0
    1.0451    0.7976    4.0666 H   0  0  0  0  0  0  0  0  0  0  0  0
   -0.6344    0.5115    4.5820 H   0  0  0  0  0  0  0  0  0  0  0  0
    0.4676   -0.8609    4.3157 H   0  0  0  0  0  0  0  0  0  0  0  0
  5  6  2  0  0  0  0
  5  7  1  0  0  0  0
  2  3  1  0  0  0  0
  2  4  1  0  0  0  0
  2  5  1  0  0  0  0
  1  2  1  0  0  0  0
 18 19  2  0  0  0  0
 18 20  1  0  0  0  0
 16 17  1  0  0  0  0
 14 15  2  0  0  0  0
 14 16  1  0  0  0  0
 11 12  1  0  0  0  0
 11 13  1  0  0  0  0
 11 14  1  0  0  0  0
  9 10  1  0  0  0  0
  9 11  1  0  0  0  0
  9 18  1  0  0  0  0
  7  8  1  0  0  0  0
  7  9  1  0  0  0  0
 22 23  1  0  0  0  0
 22 24  1  0  0  0  0
 22 25  1  0  0  0  0
 20 21  1  0  0  0  0
 20 22  1  0  0  0  0
M  END
$$$$
default_name
  -OEChem-02102213163D

 25 24  0     1  0  0  0  0  0999 V2000
   -2.7826   -3.8464    0.7821 H   0  0  0  0  0  0  0  0  0  0  0  0
   -2.8156   -2.8034    0.4711 C   0  0  0  0  0  0  0  0  0  0  0  0
   -3.4336   -2.2354    1.1641 H   0  0  0  0  0  0  0  0  0  0  0  0
   -3.2256   -2.7344   -0.5349 H   0  0  0  0  0  0  0  0  0  0  0  0
   -1.4126   -2.2444    0.4801 C   0  0  0  0  0  0  0  0  0  0  0  0
   -0.4686   -2.9534    0.8001 O   0  0  0  0  0  0  0  0  0  0  0  0
   -1.2736   -0.9704    0.1241 N   0  0  0  0  0  0  0  0  0  0  0  0
   -2.0996   -0.4354   -0.1019 H   0  0  0  0  0  0  0  0  0  0  0  0
   -0.0016   -0.2394    0.1271 C   0  0  1  0  0  0  0  0  0  0  0  0
    0.6995   -0.7619   -0.5275 H   0  0  0  0  0  0  0  0  0  0  0  0
   -0.2283    1.1832   -0.4215 C   0  0  0  0  0  0  0  0  0  0  0  0
   -1.1909    1.2260   -0.9326 H   0  0  0  0  0  0  0  0  0  0  0  0
   -0.2554    1.8952    0.4041 H   0  0  0  0  0  0  0  0  0  0  0  0
    0.8313    1.6215   -1.4279 C   0  0  0  0  0  0  0  0  0  0  0  0
    1.9758    1.9599   -1.1558 O   0  0  0  0  0  0  0  0  0  0  0  0
    0.4233    1.6277   -2.7107 O   0  0  0  0  0  0  0  0  0  0  0  0
    1.1831    1.8995   -3.2265 H   0  0  0  0  0  0  0  0  0  0  0  0
    0.5920   -0.2154    1.5497 C   0  0  0  0  0  0  0  0  0  0  0  0
    1.7860   -0.4596    1.7183 O   0  0  0  0  0  0  0  0  0  0  0  0
   -0.2294    0.0669    2.5672 N   0  0  0  0  0  0  0  0  0  0  0  0
   -1.2130    0.1938    2.3518 H   0  0  0  0  0  0  0  0  0  0  0  0
    0.1836    0.1337    3.9673 C   0  0  0  0  0  0  0  0  0  0  0  0
    1.0451    0.7976    4.0666 H   0  0  0  0  0  0  0  0  0  0  0  0
   -0.6344    0.5115    4.5820 H   0  0  0  0  0  0  0  0  0  0  0  0
    0.4676   -0.8609    4.3157 H   0  0  0  0  0  0  0  0  0  0  0  0
  5  6  2  0  0  0  0
  5  7  1  0  0  0  0
  2  3  1  0  0  0  0
  2  4  1  0  0  0  0
  2  5  1  0  0  0  0
  1  2  1  0  0  0  0
 18 19  2  0  0  0  0
 18 20  1  0  0  0  0
 16 17  1  0  0  0  0
 14 15  2  0  0  0  0
 14 16  1  0  0  0  0
 11 12  1  0  0  0  0
 11 13  1  0  0  0  0
 11 14  1  0  0  0  0
  9 10  1  0  0  0  0
  9 11  1  0  0  0  0
  9 18  1  0  0  0  0
  7  8  1  0  0  0  0
  7  9  1  0  0  0  0
 22 23  1  0  0  0  0
 22 24  1  0  0  0  0
 22 25  1  0  0  0  0
 20 21  1  0  0  0  0
 20 22  1  0  0  0  0
M  END
$$$$
default_name
  -OEChem-02102213163D

 25 24  0     1  0  0  0  0  0999 V2000
   -2.7826   -3.8464    0.7821 H   0  0  0  0  0  0  0  0  0  0  0  0
   -2.8156   -2.8034    0.4711 C   0  0  0  0  0  0  0  0  0  0  0  0
   -3.4336   -2.2354    1.1641 H   0  0  0  0  0  0  0  0  0  0  0  0
   -3.2256   -2.7344   -0.5349 H   0  0  0  0  0  0  0  0  0  0  0  0
   -1.4126   -2.2444    0.4801 C   0  0  0  0  0  0  0  0  0  0  0  0
   -0.4686   -2.9534    0.8001 O   0  0  0  0  0  0  0  0  0  0  0  0
   -1.2736   -0.9704    0.1241 N   0  0  0  0  0  0  0  0  0  0  0  0
   -2.0996   -0.4354   -0.1019 H   0  0  0  0  0  0  0  0  0  0  0  0
   -0.0016   -0.2394    0.1271 C   0  0  1  0  0  0  0  0  0  0  0  0
    0.6995   -0.7619   -0.5275 H   0  0  0  0  0  0  0  0  0  0  0  0
   -0.2283    1.1832   -0.4215 C   0  0  0  0  0  0  0  0  0  0  0  0
   -1.1909    1.2260   -0.9326 H   0  0  0  0  0  0  0  0  0  0  0  0
   -0.2554    1.8952    0.4041 H   0  0  0  0  0  0  0  0  0  0  0  0
    0.8313    1.6215   -1.4279 C   0  0  0  0  0  0  0  0  0  0  0  0
    2.0316    1.7110   -1.2054 O   0  0  0  0  0  0  0  0  0  0  0  0
    0.3562    1.9333   -2.6482 O   0  0  0  0  0  0  0  0  0  0  0  0
    1.1206    2.1681   -3.1753 H   0  0  0  0  0  0  0  0  0  0  0  0
    0.5920   -0.2154    1.5497 C   0  0  0  0  0  0  0  0  0  0  0  0
    1.7860   -0.4596    1.7183 O   0  0  0  0  0  0  0  0  0  0  0  0
   -0.2294    0.0669    2.5672 N   0  0  0  0  0  0  0  0  0  0  0  0
   -1.2130    0.1938    2.3518 H   0  0  0  0  0  0  0  0  0  0  0  0
    0.1836    0.1337    3.9673 C   0  0  0  0  0  0  0  0  0  0  0  0
    1.0451    0.7976    4.0666 H   0  0  0  0  0  0  0  0  0  0  0  0
   -0.6344    0.5115    4.5820 H   0  0  0  0  0  0  0  0  0  0  0  0
    0.4676   -0.8609    4.3157 H   0  0  0  0  0  0  0  0  0  0  0  0
  5  6  2  0  0  0  0
  5  7  1  0  0  0  0
  2  3  1  0  0  0  0
  2  4  1  0  0  0  0
  2  5  1  0  0  0  0
  1  2  1  0  0  0  0
 18 19  2  0  0  0  0
 18 20  1  0  0  0  0
 16 17  1  0  0  0  0
 14 15  2  0  0  0  0
 14 16  1  0  0  0  0
 11 12  1  0  0  0  0
 11 13  1  0  0  0  0
 11 14  1  0  0  0  0
  9 10  1  0  0  0  0
  9 11  1  0  0  0  0
  9 18  1  0  0  0  0
  7  8  1  0  0  0  0
  7  9  1  0  0  0  0
 22 23  1  0  0  0  0
 22 24  1  0  0  0  0
 22 25  1  0  0  0  0
 20 21  1  0  0  0  0
 20 22  1  0  0  0  0
M  END
$$$$
default_name
  -OEChem-02102213163D

 25 24  0     1  0  0  0  0  0999 V2000
   -2.7826   -3.8464    0.7821 H   0  0  0  0  0  0  0  0  0  0  0  0
   -2.8156   -2.8034    0.4711 C   0  0  0  0  0  0  0  0  0  0  0  0
   -3.4336   -2.2354    1.1641 H   0  0  0  0  0  0  0  0  0  0  0  0
   -3.2256   -2.7344   -0.5349 H   0  0  0  0  0  0  0  0  0  0  0  0
   -1.4126   -2.2444    0.4801 C   0  0  0  0  0  0  0  0  0  0  0  0
   -0.4686   -2.9534    0.8001 O   0  0  0  0  0  0  0  0  0  0  0  0
   -1.2736   -0.9704    0.1241 N   0  0  0  0  0  0  0  0  0  0  0  0
   -2.0996   -0.4354   -0.1019 H   0  0  0  0  0  0  0  0  0  0  0  0
   -0.0016   -0.2394    0.1271 C   0  0  1  0  0  0  0  0  0  0  0  0
    0.6995   -0.7619   -0.5275 H   0  0  0  0  0  0  0  0  0  0  0  0
   -0.2283    1.1832   -0.4215 C   0  0  0  0  0  0  0  0  0  0  0  0
   -1.1909    1.2260   -0.9326 H   0  0  0  0  0  0  0  0  0  0  0  0
   -0.2554    1.8952    0.4041 H   0  0  0  0  0  0  0  0  0  0  0  0
    0.8313    1.6215   -1.4279 C   0  0  0  0  0  0  0  0  0  0  0  0
    2.0394    1.4700   -1.3022 O   0  0  0  0  0  0  0  0  0  0  0  0
    0.3482    2.2286   -2.5279 O   0  0  0  0  0  0  0  0  0  0  0  0
    1.1098    2.4290   -3.0730 H   0  0  0  0  0  0  0  0  0  0  0  0
    0.5920   -0.2154    1.5497 C   0  0  0  0  0  0  0  0  0  0  0  0
    1.7860   -0.4596    1.7183 O   0  0  0  0  0  0  0  0  0  0  0  0
   -0.2294    0.0669    2.5672 N   0  0  0  0  0  0  0  0  0  0  0  0
   -1.2130    0.1938    2.3518 H   0  0  0  0  0  0  0  0  0  0  0  0
    0.1836    0.1337    3.9673 C   0  0  0  0  0  0  0  0  0  0  0  0
    1.0451    0.7976    4.0666 H   0  0  0  0  0  0  0  0  0  0  0  0
   -0.6344    0.5115    4.5820 H   0  0  0  0  0  0  0  0  0  0  0  0
    0.4676   -0.8609    4.3157 H   0  0  0  0  0  0  0  0  0  0  0  0
  5  6  2  0  0  0  0
  5  7  1  0  0  0  0
  2  3  1  0  0  0  0
  2  4  1  0  0  0  0
  2  5  1  0  0  0  0
  1  2  1  0  0  0  0
 18 19  2  0  0  0  0
 18 20  1  0  0  0  0
 16 17  1  0  0  0  0
 14 15  2  0  0  0  0
 14 16  1  0  0  0  0
 11 12  1  0  0  0  0
 11 13  1  0  0  0  0
 11 14  1  0  0  0  0
  9 10  1  0  0  0  0
  9 11  1  0  0  0  0
  9 18  1  0  0  0  0
  7  8  1  0  0  0  0
  7  9  1  0  0  0  0
 22 23  1  0  0  0  0
 22 24  1  0  0  0  0
 22 25  1  0  0  0  0
 20 21  1  0  0  0  0
 20 22  1  0  0  0  0
M  END
$$$$
default_name
  -OEChem-02102213163D

 25 24  0     1  0  0  0  0  0999 V2000
   -2.7826   -3.8464    0.7821 H   0  0  0  0  0  0  0  0  0  0  0  0
   -2.8156   -2.8034    0.4711 C   0  0  0  0  0  0  0  0  0  0  0  0
   -3.4336   -2.2354    1.1641 H   0  0  0  0  0  0  0  0  0  0  0  0
   -3.2256   -2.7344   -0.5349 H   0  0  0  0  0  0  0  0  0  0  0  0
   -1.4126   -2.2444    0.4801 C   0  0  0  0  0  0  0  0  0  0  0  0
   -0.4686   -2.9534    0.8001 O   0  0  0  0  0  0  0  0  0  0  0  0
   -1.2736   -0.9704    0.1241 N   0  0  0  0  0  0  0  0  0  0  0  0
   -2.0996   -0.4354   -0.1019 H   0  0  0  0  0  0  0  0  0  0  0  0
   -0.0016   -0.2394    0.1271 C   0  0  1  0  0  0  0  0  0  0  0  0
    0.6995   -0.7619   -0.5275 H   0  0  0  0  0  0  0  0  0  0  0  0
   -0.2283    1.1832   -0.4215 C   0  0  0  0  0  0  0  0  0  0  0  0
   -1.1909    1.2260   -0.9326 H   0  0  0  0  0  0  0  0  0  0  0  0
   -0.2554    1.8952    0.4041 H   0  0  0  0  0  0  0  0  0  0  0  0
    0.8313    1.6215   -1.4279 C   0  0  0  0  0  0  0  0  0  0  0  0
    1.9986    1.2533   -1.4395 O   0  0  0  0  0  0  0  0  0  0  0  0
    0.3999    2.4937   -2.3581 O   0  0  0  0  0  0  0  0  0  0  0  0
    1.1516    2.6644   -2.9265 H   0  0  0  0  0  0  0  0  0  0  0  0
    0.5920   -0.2154    1.5497 C   0  0  0  0  0  0  0  0  0  0  0  0
    1.7860   -0.4596    1.7183 O   0  0  0  0  0  0  0  0  0  0  0  0
   -0.2294    0.0669    2.5672 N   0  0  0  0  0  0  0  0  0  0  0  0
   -1.2130    0.1938    2.3518 H   0  0  0  0  0  0  0  0  0  0  0  0
    0.1836    0.1337    3.9673 C   0  0  0  0  0  0  0  0  0  0  0  0
    1.0451    0.7976    4.0666 H   0  0  0  0  0  0  0  0  0  0  0  0
   -0.6344    0.5115    4.5820 H   0  0  0  0  0  0  0  0  0  0  0  0
    0.4676   -0.8609    4.3157 H   0  0  0  0  0  0  0  0  0  0  0  0
  5  6  2  0  0  0  0
  5  7  1  0  0  0  0
  2  3  1  0  0  0  0
  2  4  1  0  0  0  0
  2  5  1  0  0  0  0
  1  2  1  0  0  0  0
 18 19  2  0  0  0  0
 18 20  1  0  0  0  0
 16 17  1  0  0  0  0
 14 15  2  0  0  0  0
 14 16  1  0  0  0  0
 11 12  1  0  0  0  0
 11 13  1  0  0  0  0
 11 14  1  0  0  0  0
  9 10  1  0  0  0  0
  9 11  1  0  0  0  0
  9 18  1  0  0  0  0
  7  8  1  0  0  0  0
  7  9  1  0  0  0  0
 22 23  1  0  0  0  0
 22 24  1  0  0  0  0
 22 25  1  0  0  0  0
 20 21  1  0  0  0  0
 20 22  1  0  0  0  0
M  END
$$$$
default_name
  -OEChem-02102213163D

 25 24  0     1  0  0  0  0  0999 V2000
   -2.7826   -3.8464    0.7821 H   0  0  0  0  0  0  0  0  0  0  0  0
   -2.8156   -2.8034    0.4711 C   0  0  0  0  0  0  0  0  0  0  0  0
   -3.4336   -2.2354    1.1641 H   0  0  0  0  0  0  0  0  0  0  0  0
   -3.2256   -2.7344   -0.5349 H   0  0  0  0  0  0  0  0  0  0  0  0
   -1.4126   -2.2444    0.4801 C   0  0  0  0  0  0  0  0  0  0  0  0
   -0.4686   -2.9534    0.8001 O   0  0  0  0  0  0  0  0  0  0  0  0
   -1.2736   -0.9704    0.1241 N   0  0  0  0  0  0  0  0  0  0  0  0
   -2.0996   -0.4354   -0.1019 H   0  0  0  0  0  0  0  0  0  0  0  0
   -0.0016   -0.2394    0.1271 C   0  0  1  0  0  0  0  0  0  0  0  0
    0.6995   -0.7619   -0.5275 H   0  0  0  0  0  0  0  0  0  0  0  0
   -0.2283    1.1832   -0.4215 C   0  0  0  0  0  0  0  0  0  0  0  0
   -1.1909    1.2260   -0.9326 H   0  0  0  0  0  0  0  0  0  0  0  0
   -0.2554    1.8952    0.4041 H   0  0  0  0  0  0  0  0  0  0  0  0
    0.8313    1.6215   -1.4279 C   0  0  0  0  0  0  0  0  0  0  0  0
    1.9119    1.0756   -1.6082 O   0  0  0  0  0  0  0  0  0  0  0  0
    0.5077    2.7103   -2.1502 O   0  0  0  0  0  0  0  0  0  0  0  0
    1.2430    2.8583   -2.7457 H   0  0  0  0  0  0  0  0  0  0  0  0
    0.5920   -0.2154    1.5497 C   0  0  0  0  0  0  0  0  0  0  0  0
    1.7860   -0.4596    1.7183 O   0  0  0  0  0  0  0  0  0  0  0  0
   -0.2294    0.0669    2.5672 N   0  0  0  0  0  0  0  0  0  0  0  0
   -1.2130    0.1938    2.3518 H   0  0  0  0  0  0  0  0  0  0  0  0
    0.1836    0.1337    3.9673 C   0  0  0  0  0  0  0  0  0  0  0  0
    1.0451    0.7976    4.0666 H   0  0  0  0  0  0  0  0  0  0  0  0
   -0.6344    0.5115    4.5820 H   0  0  0  0  0  0  0  0  0  0  0  0
    0.4676   -0.8609    4.3157 H   0  0  0  0  0  0  0  0  0  0  0  0
  5  6  2  0  0  0  0
  5  7  1  0  0  0  0
  2  3  1  0  0  0  0
  2  4  1  0  0  0  0
  2  5  1  0  0  0  0
  1  2  1  0  0  0  0
 18 19  2  0  0  0  0
 18 20  1  0  0  0  0
 16 17  1  0  0  0  0
 14 15  2  0  0  0  0
 14 16  1  0  0  0  0
 11 12  1  0  0  0  0
 11 13  1  0  0  0  0
 11 14  1  0  0  0  0
  9 10  1  0  0  0  0
  9 11  1  0  0  0  0
  9 18  1  0  0  0  0
  7  8  1  0  0  0  0
  7  9  1  0  0  0  0
 22 23  1  0  0  0  0
 22 24  1  0  0  0  0
 22 25  1  0  0  0  0
 20 21  1  0  0  0  0
 20 22  1  0  0  0  0
M  END
$$$$
default_name
  -OEChem-02102213163D

 25 24  0     1  0  0  0  0  0999 V2000
   -2.7826   -3.8464    0.7821 H   0  0  0  0  0  0  0  0  0  0  0  0
   -2.8156   -2.8034    0.4711 C   0  0  0  0  0  0  0  0  0  0  0  0
   -3.4336   -2.2354    1.1641 H   0  0  0  0  0  0  0  0  0  0  0  0
   -3.2256   -2.7344   -0.5349 H   0  0  0  0  0  0  0  0  0  0  0  0
   -1.4126   -2.2444    0.4801 C   0  0  0  0  0  0  0  0  0  0  0  0
   -0.4686   -2.9534    0.8001 O   0  0  0  0  0  0  0  0  0  0  0  0
   -1.2736   -0.9704    0.1241 N   0  0  0  0  0  0  0  0  0  0  0  0
   -2.0996   -0.4354   -0.1019 H   0  0  0  0  0  0  0  0  0  0  0  0
   -0.0016   -0.2394    0.1271 C   0  0  1  0  0  0  0  0  0  0  0  0
    0.6995   -0.7619   -0.5275 H   0  0  0  0  0  0  0  0  0  0  0  0
   -0.2283    1.1832   -0.4215 C   0  0  0  0  0  0  0  0  0  0  0  0
   -1.1909    1.2260   -0.9326 H   0  0  0  0  0  0  0  0  0  0  0  0
   -0.2554    1.8952    0.4041 H   0  0  0  0  0  0  0  0  0  0  0  0
    0.8313    1.6215   -1.4279 C   0  0  0  0  0  0  0  0  0  0  0  0
    1.7854    0.9491   -1.7965 O   0  0  0  0  0  0  0  0  0  0  0  0
    0.6643    2.8639   -1.9185 O   0  0  0  0  0  0  0  0  0  0  0  0
    1.3779    2.9976   -2.5431 H   0  0  0  0  0  0  0  0  0  0  0  0
    0.5920   -0.2154    1.5497 C   0  0  0  0  0  0  0  0  0  0  0  0
    1.7860   -0.4596    1.7183 O   0  0  0  0  0  0  0  0  0  0  0  0
   -0.2294    0.0669    2.5672 N   0  0  0  0  0  0  0  0  0  0  0  0
   -1.2130    0.1938    2.3518 H   0  0  0  0  0  0  0  0  0  0  0  0
    0.1836    0.1337    3.9673 C   0  0  0  0  0  0  0  0  0  0  0  0
    1.0451    0.7976    4.0666 H   0  0  0  0  0  0  0  0  0  0  0  0
   -0.6344    0.5115    4.5820 H   0  0  0  0  0  0  0  0  0  0  0  0
    0.4676   -0.8609    4.3157 H   0  0  0  0  0  0  0  0  0  0  0  0
  5  6  2  0  0  0  0
  5  7  1  0  0  0  0
  2  3  1  0  0  0  0
  2  4  1  0  0  0  0
  2  5  1  0  0  0  0
  1  2  1  0  0  0  0
 18 19  2  0  0  0  0
 18 20  1  0  0  0  0
 16 17  1  0  0  0  0
 14 15  2  0  0  0  0
 14 16  1  0  0  0  0
 11 12  1  0  0  0  0
 11 13  1  0  0  0  0
 11 14  1  0  0  0  0
  9 10  1  0  0  0  0
  9 11  1  0  0  0  0
  9 18  1  0  0  0  0
  7  8  1  0  0  0  0
  7  9  1  0  0  0  0
 22 23  1  0  0  0  0
 22 24  1  0  0  0  0
 22 25  1  0  0  0  0
 20 21  1  0  0  0  0
 20 22  1  0  0  0  0
M  END
$$$$
default_name
  -OEChem-02102213163D

 25 24  0     1  0  0  0  0  0999 V2000
   -2.7826   -3.8464    0.7821 H   0  0  0  0  0  0  0  0  0  0  0  0
   -2.8156   -2.8034    0.4711 C   0  0  0  0  0  0  0  0  0  0  0  0
   -3.4336   -2.2354    1.1641 H   0  0  0  0  0  0  0  0  0  0  0  0
   -3.2256   -2.7344   -0.5349 H   0  0  0  0  0  0  0  0  0  0  0  0
   -1.4126   -2.2444    0.4801 C   0  0  0  0  0  0  0  0  0  0  0  0
   -0.4686   -2.9534    0.8001 O   0  0  0  0  0  0  0  0  0  0  0  0
   -1.2736   -0.9704    0.1241 N   0  0  0  0  0  0  0  0  0  0  0  0
   -2.0996   -0.4354   -0.1019 H   0  0  0  0  0  0  0  0  0  0  0  0
   -0.0016   -0.2394    0.1271 C   0  0  1  0  0  0  0  0  0  0  0  0
    0.6995   -0.7619   -0.5275 H   0  0  0  0  0  0  0  0  0  0  0  0
   -0.2283    1.1832   -0.4215 C   0  0  0  0  0  0  0  0  0  0  0  0
   -1.1909    1.2260   -0.9326 H   0  0  0  0  0  0  0  0  0  0  0  0
   -0.2554    1.8952    0.4041 H   0  0  0  0  0  0  0  0  0  0  0  0
    0.8313    1.6215   -1.4279 C   0  0  0  0  0  0  0  0  0  0  0  0
    1.6275    0.8824   -1.9918 O   0  0  0  0  0  0  0  0  0  0  0  0
    0.8589    2.9438   -1.6788 O   0  0  0  0  0  0  0  0  0  0  0  0
    1.5470    3.0726   -2.3323 H   0  0  0  0  0  0  0  0  0  0  0  0
    0.5920   -0.2154    1.5497 C   0  0  0  0  0  0  0  0  0  0  0  0
    1.7860   -0.4596    1.7183 O   0  0  0  0  0  0  0  0  0  0  0  0
   -0.2294    0.0669    2.5672 N   0  0  0  0  0  0  0  0  0  0  0  0
   -1.2130    0.1938    2.3518 H   0  0  0  0  0  0  0  0  0  0  0  0
    0.1836    0.1337    3.9673 C   0  0  0  0  0  0  0  0  0  0  0  0
    1.0451    0.7976    4.0666 H   0  0  0  0  0  0  0  0  0  0  0  0
   -0.6344    0.5115    4.5820 H   0  0  0  0  0  0  0  0  0  0  0  0
    0.4676   -0.8609    4.3157 H   0  0  0  0  0  0  0  0  0  0  0  0
  5  6  2  0  0  0  0
  5  7  1  0  0  0  0
  2  3  1  0  0  0  0
  2  4  1  0  0  0  0
  2  5  1  0  0  0  0
  1  2  1  0  0  0  0
 18 19  2  0  0  0  0
 18 20  1  0  0  0  0
 16 17  1  0  0  0  0
 14 15  2  0  0  0  0
 14 16  1  0  0  0  0
 11 12  1  0  0  0  0
 11 13  1  0  0  0  0
 11 14  1  0  0  0  0
  9 10  1  0  0  0  0
  9 11  1  0  0  0  0
  9 18  1  0  0  0  0
  7  8  1  0  0  0  0
  7  9  1  0  0  0  0
 22 23  1  0  0  0  0
 22 24  1  0  0  0  0
 22 25  1  0  0  0  0
 20 21  1  0  0  0  0
 20 22  1  0  0  0  0
M  END
$$$$
default_name
  -OEChem-02102213163D

 25 24  0     1  0  0  0  0  0999 V2000
   -2.7826   -3.8464    0.7821 H   0  0  0  0  0  0  0  0  0  0  0  0
   -2.8156   -2.8034    0.4711 C   0  0  0  0  0  0  0  0  0  0  0  0
   -3.4336   -2.2354    1.1641 H   0  0  0  0  0  0  0  0  0  0  0  0
   -3.2256   -2.7344   -0.5349 H   0  0  0  0  0  0  0  0  0  0  0  0
   -1.4126   -2.2444    0.4801 C   0  0  0  0  0  0  0  0  0  0  0  0
   -0.4686   -2.9534    0.8001 O   0  0  0  0  0  0  0  0  0  0  0  0
   -1.2736   -0.9704    0.1241 N   0  0  0  0  0  0  0  0  0  0  0  0
   -2.0996   -0.4354   -0.1019 H   0  0  0  0  0  0  0  0  0  0  0  0
   -0.0016   -0.2394    0.1271 C   0  0  1  0  0  0  0  0  0  0  0  0
    0.6995   -0.7619   -0.5275 H   0  0  0  0  0  0  0  0  0  0  0  0
   -0.2283    1.1832   -0.4215 C   0  0  0  0  0  0  0  0  0  0  0  0
   -1.1909    1.2260   -0.9326 H   0  0  0  0  0  0  0  0  0  0  0  0
   -0.2554    1.8952    0.4041 H   0  0  0  0  0  0  0  0  0  0  0  0
    0.8313    1.6215   -1.4279 C   0  0  0  0  0  0  0  0  0  0  0  0
    1.4491    0.8799   -2.1807 O   0  0  0  0  0  0  0  0  0  0  0  0
    1.0784    2.9446   -1.4473 O   0  0  0  0  0  0  0  0  0  0  0  0
    1.7389    3.0783   -2.1279 H   0  0  0  0  0  0  0  0  0  0  0  0
    0.5920   -0.2154    1.5497 C   0  0  0  0  0  0  0  0  0  0  0  0
    1.7860   -0.4596    1.7183 O   0  0  0  0  0  0  0  0  0  0  0  0
   -0.2294    0.0669    2.5672 N   0  0  0  0  0  0  0  0  0  0  0  0
   -1.2130    0.1938    2.3518 H   0  0  0  0  0  0  0  0  0  0  0  0
    0.1836    0.1337    3.9673 C   0  0  0  0  0  0  0  0  0  0  0  0
    1.0451    0.7976    4.0666 H   0  0  0  0  0  0  0  0  0  0  0  0
   -0.6344    0.5115    4.5820 H   0  0  0  0  0  0  0  0  0  0  0  0
    0.4676   -0.8609    4.3157 H   0  0  0  0  0  0  0  0  0  0  0  0
  5  6  2  0  0  0  0
  5  7  1  0  0  0  0
  2  3  1  0  0  0  0
  2  4  1  0  0  0  0
  2  5  1  0  0  0  0
  1  2  1  0  0  0  0
 18 19  2  0  0  0  0
 18 20  1  0  0  0  0
 16 17  1  0  0  0  0
 14 15  2  0  0  0  0
 14 16  1  0  0  0  0
 11 12  1  0  0  0  0
 11 13  1  0  0  0  0
 11 14  1  0  0  0  0
  9 10  1  0  0  0  0
  9 11  1  0  0  0  0
  9 18  1  0  0  0  0
  7  8  1  0  0  0  0
  7  9  1  0  0  0  0
 22 23  1  0  0  0  0
 22 24  1  0  0  0  0
 22 25  1  0  0  0  0
 20 21  1  0  0  0  0
 20 22  1  0  0  0  0
M  END
$$$$
default_name
  -OEChem-02102213163D

 25 24  0     1  0  0  0  0  0999 V2000
   -2.7826   -3.8464    0.7821 H   0  0  0  0  0  0  0  0  0  0  0  0
   -2.8156   -2.8034    0.4711 C   0  0  0  0  0  0  0  0  0  0  0  0
   -3.4336   -2.2354    1.1641 H   0  0  0  0  0  0  0  0  0  0  0  0
   -3.2256   -2.7344   -0.5349 H   0  0  0  0  0  0  0  0  0  0  0  0
   -1.4126   -2.2444    0.4801 C   0  0  0  0  0  0  0  0  0  0  0  0
   -0.4686   -2.9534    0.8001 O   0  0  0  0  0  0  0  0  0  0  0  0
   -1.2736   -0.9704    0.1241 N   0  0  0  0  0  0  0  0  0  0  0  0
   -2.0996   -0.4354   -0.1019 H   0  0  0  0  0  0  0  0  0  0  0  0
   -0.0016   -0.2394    0.1271 C   0  0  1  0  0  0  0  0  0  0  0  0
    0.6995   -0.7619   -0.5275 H   0  0  0  0  0  0  0  0  0  0  0  0
   -0.2283    1.1832   -0.4215 C   0  0  0  0  0  0  0  0  0  0  0  0
   -1.1909    1.2260   -0.9326 H   0  0  0  0  0  0  0  0  0  0  0  0
   -0.2554    1.8952    0.4041 H   0  0  0  0  0  0  0  0  0  0  0  0
    0.8313    1.6215   -1.4279 C   0  0  0  0  0  0  0  0  0  0  0  0
    1.2624    0.9420   -2.3503 O   0  0  0  0  0  0  0  0  0  0  0  0
    1.3078    2.8664   -1.2399 O   0  0  0  0  0  0  0  0  0  0  0  0
    1.9403    3.0144   -1.9436 H   0  0  0  0  0  0  0  0  0  0  0  0
    0.5920   -0.2154    1.5497 C   0  0  0  0  0  0  0  0  0  0  0  0
    1.7860   -0.4596    1.7183 O   0  0  0  0  0  0  0  0  0  0  0  0
   -0.2294    0.0669    2.5672 N   0  0  0  0  0  0  0  0  0  0  0  0
   -1.2130    0.1938    2.3518 H   0  0  0  0  0  0  0  0  0  0  0  0
    0.1836    0.1337    3.9673 C   0  0  0  0  0  0  0  0  0  0  0  0
    1.0451    0.7976    4.0666 H   0  0  0  0  0  0  0  0  0  0  0  0
   -0.6344    0.5115    4.5820 H   0  0  0  0  0  0  0  0  0  0  0  0
    0.4676   -0.8609    4.3157 H   0  0  0  0  0  0  0  0  0  0  0  0
  5  6  2  0  0  0  0
  5  7  1  0  0  0  0
  2  3  1  0  0  0  0
  2  4  1  0  0  0  0
  2  5  1  0  0  0  0
  1  2  1  0  0  0  0
 18 19  2  0  0  0  0
 18 20  1  0  0  0  0
 16 17  1  0  0  0  0
 14 15  2  0  0  0  0
 14 16  1  0  0  0  0
 11 12  1  0  0  0  0
 11 13  1  0  0  0  0
 11 14  1  0  0  0  0
  9 10  1  0  0  0  0
  9 11  1  0  0  0  0
  9 18  1  0  0  0  0
  7  8  1  0  0  0  0
  7  9  1  0  0  0  0
 22 23  1  0  0  0  0
 22 24  1  0  0  0  0
 22 25  1  0  0  0  0
 20 21  1  0  0  0  0
 20 22  1  0  0  0  0
M  END
$$$$
default_name
  -OEChem-02102213163D

 25 24  0     1  0  0  0  0  0999 V2000
   -2.7826   -3.8464    0.7821 H   0  0  0  0  0  0  0  0  0  0  0  0
   -2.8156   -2.8034    0.4711 C   0  0  0  0  0  0  0  0  0  0  0  0
   -3.4336   -2.2354    1.1641 H   0  0  0  0  0  0  0  0  0  0  0  0
   -3.2256   -2.7344   -0.5349 H   0  0  0  0  0  0  0  0  0  0  0  0
   -1.4126   -2.2444    0.4801 C   0  0  0  0  0  0  0  0  0  0  0  0
   -0.4686   -2.9534    0.8001 O   0  0  0  0  0  0  0  0  0  0  0  0
   -1.2736   -0.9704    0.1241 N   0  0  0  0  0  0  0  0  0  0  0  0
   -2.0996   -0.4354   -0.1019 H   0  0  0  0  0  0  0  0  0  0  0  0
   -0.0016   -0.2394    0.1271 C   0  0  1  0  0  0  0  0  0  0  0  0
    0.6995   -0.7619   -0.5275 H   0  0  0  0  0  0  0  0  0  0  0  0
   -0.2283    1.1832   -0.4215 C   0  0  0  0  0  0  0  0  0  0  0  0
   -1.1909    1.2260   -0.9326 H   0  0  0  0  0  0  0  0  0  0  0  0
   -0.2554    1.8952    0.4041 H   0  0  0  0  0  0  0  0  0  0  0  0
    0.8313    1.6215   -1.4279 C   0  0  0  0  0  0  0  0  0  0  0  0
    1.0799    1.0644   -2.4891 O   0  0  0  0  0  0  0  0  0  0  0  0
    1.5314    2.7143   -1.0707 O   0  0  0  0  0  0  0  0  0  0  0  0
    2.1377    2.8850   -1.7921 H   0  0  0  0  0  0  0  0  0  0  0  0
    0.5920   -0.2154    1.5497 C   0  0  0  0  0  0  0  0  0  0  0  0
    1.7860   -0.4596    1.7183 O   0  0  0  0  0  0  0  0  0  0  0  0
   -0.2294    0.0669    2.5672 N   0  0  0  0  0  0  0  0  0  0  0  0
   -1.2130    0.1938    2.3518 H   0  0  0  0  0  0  0  0  0  0  0  0
    0.1836    0.1337    3.9673 C   0  0  0  0  0  0  0  0  0  0  0  0
    1.0451    0.7976    4.0666 H   0  0  0  0  0  0  0  0  0  0  0  0
   -0.6344    0.5115    4.5820 H   0  0  0  0  0  0  0  0  0  0  0  0
    0.4676   -0.8609    4.3157 H   0  0  0  0  0  0  0  0  0  0  0  0
  5  6  2  0  0  0  0
  5  7  1  0  0  0  0
  2  3  1  0  0  0  0
  2  4  1  0  0  0  0
  2  5  1  0  0  0  0
  1  2  1  0  0  0  0
 18 19  2  0  0  0  0
 18 20  1  0  0  0  0
 16 17  1  0  0  0  0
 14 15  2  0  0  0  0
 14 16  1  0  0  0  0
 11 12  1  0  0  0  0
 11 13  1  0  0  0  0
 11 14  1  0  0  0  0
  9 10  1  0  0  0  0
  9 11  1  0  0  0  0
  9 18  1  0  0  0  0
  7  8  1  0  0  0  0
  7  9  1  0  0  0  0
 22 23  1  0  0  0  0
 22 24  1  0  0  0  0
 22 25  1  0  0  0  0
 20 21  1  0  0  0  0
 20 22  1  0  0  0  0
M  END
$$$$
default_name
  -OEChem-02102213163D

 25 24  0     1  0  0  0  0  0999 V2000
   -2.7826   -3.8464    0.7821 H   0  0  0  0  0  0  0  0  0  0  0  0
   -2.8156   -2.8034    0.4711 C   0  0  0  0  0  0  0  0  0  0  0  0
   -3.4336   -2.2354    1.1641 H   0  0  0  0  0  0  0  0  0  0  0  0
   -3.2256   -2.7344   -0.5349 H   0  0  0  0  0  0  0  0  0  0  0  0
   -1.4126   -2.2444    0.4801 C   0  0  0  0  0  0  0  0  0  0  0  0
   -0.4686   -2.9534    0.8001 O   0  0  0  0  0  0  0  0  0  0  0  0
   -1.2736   -0.9704    0.1241 N   0  0  0  0  0  0  0  0  0  0  0  0
   -2.0996   -0.4354   -0.1019 H   0  0  0  0  0  0  0  0  0  0  0  0
   -0.0016   -0.2394    0.1271 C   0  0  1  0  0  0  0  0  0  0  0  0
    0.6995   -0.7619   -0.5275 H   0  0  0  0  0  0  0  0  0  0  0  0
   -0.2283    1.1832   -0.4215 C   0  0  0  0  0  0  0  0  0  0  0  0
   -1.1909    1.2260   -0.9326 H   0  0  0  0  0  0  0  0  0  0  0  0
   -0.2554    1.8952    0.4041 H   0  0  0  0  0  0  0  0  0  0  0  0
    0.8313    1.6215   -1.4279 C   0  0  0  0  0  0  0  0  0  0  0  0
    0.9143    1.2386   -2.5876 O   0  0  0  0  0  0  0  0  0  0  0  0
    1.7341    2.4989   -0.9512 O   0  0  0  0  0  0  0  0  0  0  0  0
    2.3176    2.6992   -1.6837 H   0  0  0  0  0  0  0  0  0  0  0  0
    0.5920   -0.2154    1.5497 C   0  0  0  0  0  0  0  0  0  0  0  0
    1.7860   -0.4596    1.7183 O   0  0  0  0  0  0  0  0  0  0  0  0
   -0.2294    0.0669    2.5672 N   0  0  0  0  0  0  0  0  0  0  0  0
   -1.2130    0.1938    2.3518 H   0  0  0  0  0  0  0  0  0  0  0  0
    0.1836    0.1337    3.9673 C   0  0  0  0  0  0  0  0  0  0  0  0
    1.0451    0.7976    4.0666 H   0  0  0  0  0  0  0  0  0  0  0  0
   -0.6344    0.5115    4.5820 H   0  0  0  0  0  0  0  0  0  0  0  0
    0.4676   -0.8609    4.3157 H   0  0  0  0  0  0  0  0  0  0  0  0
  5  6  2  0  0  0  0
  5  7  1  0  0  0  0
  2  3  1  0  0  0  0
  2  4  1  0  0  0  0
  2  5  1  0  0  0  0
  1  2  1  0  0  0  0
 18 19  2  0  0  0  0
 18 20  1  0  0  0  0
 16 17  1  0  0  0  0
 14 15  2  0  0  0  0
 14 16  1  0  0  0  0
 11 12  1  0  0  0  0
 11 13  1  0  0  0  0
 11 14  1  0  0  0  0
  9 10  1  0  0  0  0
  9 11  1  0  0  0  0
  9 18  1  0  0  0  0
  7  8  1  0  0  0  0
  7  9  1  0  0  0  0
 22 23  1  0  0  0  0
 22 24  1  0  0  0  0
 22 25  1  0  0  0  0
 20 21  1  0  0  0  0
 20 22  1  0  0  0  0
M  END
$$$$
default_name
  -OEChem-02102213163D

 25 24  0     1  0  0  0  0  0999 V2000
   -2.7826   -3.8464    0.7821 H   0  0  0  0  0  0  0  0  0  0  0  0
   -2.8156   -2.8034    0.4711 C   0  0  0  0  0  0  0  0  0  0  0  0
   -3.4336   -2.2354    1.1641 H   0  0  0  0  0  0  0  0  0  0  0  0
   -3.2256   -2.7344   -0.5349 H   0  0  0  0  0  0  0  0  0  0  0  0
   -1.4126   -2.2444    0.4801 C   0  0  0  0  0  0  0  0  0  0  0  0
   -0.4686   -2.9534    0.8001 O   0  0  0  0  0  0  0  0  0  0  0  0
   -1.2736   -0.9704    0.1241 N   0  0  0  0  0  0  0  0  0  0  0  0
   -2.0996   -0.4354   -0.1019 H   0  0  0  0  0  0  0  0  0  0  0  0
   -0.0016   -0.2394    0.1271 C   0  0  1  0  0  0  0  0  0  0  0  0
    0.6995   -0.7619   -0.5275 H   0  0  0  0  0  0  0  0  0  0  0  0
   -0.2283    1.1832   -0.4215 C   0  0  0  0  0  0  0  0  0  0  0  0
   -1.1909    1.2260   -0.9326 H   0  0  0  0  0  0  0  0  0  0  0  0
   -0.2554    1.8952    0.4041 H   0  0  0  0  0  0  0  0  0  0  0  0
    0.8313    1.6215   -1.4279 C   0  0  0  0  0  0  0  0  0  0  0  0
    0.7767    1.4529   -2.6391 O   0  0  0  0  0  0  0  0  0  0  0  0
    1.9019    2.2347   -0.8895 O   0  0  0  0  0  0  0  0  0  0  0  0
    2.4677    2.4695   -1.6257 H   0  0  0  0  0  0  0  0  0  0  0  0
    0.5920   -0.2154    1.5497 C   0  0  0  0  0  0  0  0  0  0  0  0
    1.7860   -0.4596    1.7183 O   0  0  0  0  0  0  0  0  0  0  0  0
   -0.2294    0.0669    2.5672 N   0  0  0  0  0  0  0  0  0  0  0  0
   -1.2130    0.1938    2.3518 H   0  0  0  0  0  0  0  0  0  0  0  0
    0.1836    0.1337    3.9673 C   0  0  0  0  0  0  0  0  0  0  0  0
    1.0451    0.7976    4.0666 H   0  0  0  0  0  0  0  0  0  0  0  0
   -0.6344    0.5115    4.5820 H   0  0  0  0  0  0  0  0  0  0  0  0
    0.4676   -0.8609    4.3157 H   0  0  0  0  0  0  0  0  0  0  0  0
  5  6  2  0  0  0  0
  5  7  1  0  0  0  0
  2  3  1  0  0  0  0
  2  4  1  0  0  0  0
  2  5  1  0  0  0  0
  1  2  1  0  0  0  0
 18 19  2  0  0  0  0
 18 20  1  0  0  0  0
 16 17  1  0  0  0  0
 14 15  2  0  0  0  0
 14 16  1  0  0  0  0
 11 12  1  0  0  0  0
 11 13  1  0  0  0  0
 11 14  1  0  0  0  0
  9 10  1  0  0  0  0
  9 11  1  0  0  0  0
  9 18  1  0  0  0  0
  7  8  1  0  0  0  0
  7  9  1  0  0  0  0
 22 23  1  0  0  0  0
 22 24  1  0  0  0  0
 22 25  1  0  0  0  0
 20 21  1  0  0  0  0
 20 22  1  0  0  0  0
M  END
$$$$
default_name
  -OEChem-02102213163D

 25 24  0     1  0  0  0  0  0999 V2000
   -2.7826   -3.8464    0.7821 H   0  0  0  0  0  0  0  0  0  0  0  0
   -2.8156   -2.8034    0.4711 C   0  0  0  0  0  0  0  0  0  0  0  0
   -3.4336   -2.2354    1.1641 H   0  0  0  0  0  0  0  0  0  0  0  0
   -3.2256   -2.7344   -0.5349 H   0  0  0  0  0  0  0  0  0  0  0  0
   -1.4126   -2.2444    0.4801 C   0  0  0  0  0  0  0  0  0  0  0  0
   -0.4686   -2.9534    0.8001 O   0  0  0  0  0  0  0  0  0  0  0  0
   -1.2736   -0.9704    0.1241 N   0  0  0  0  0  0  0  0  0  0  0  0
   -2.0996   -0.4354   -0.1019 H   0  0  0  0  0  0  0  0  0  0  0  0
   -0.0016   -0.2394    0.1271 C   0  0  1  0  0  0  0  0  0  0  0  0
    0.6995   -0.7619   -0.5275 H   0  0  0  0  0  0  0  0  0  0  0  0
   -0.2283    1.1832   -0.4215 C   0  0  0  0  0  0  0  0  0  0  0  0
   -1.1909    1.2260   -0.9326 H   0  0  0  0  0  0  0  0  0  0  0  0
   -0.2554    1.8952    0.4041 H   0  0  0  0  0  0  0  0  0  0  0  0
    0.8313    1.6215   -1.4279 C   0  0  0  0  0  0  0  0  0  0  0  0
    0.6766    1.6927   -2.6401 O   0  0  0  0  0  0  0  0  0  0  0  0
    2.0235    1.9397   -0.8900 O   0  0  0  0  0  0  0  0  0  0  0  0
    2.5777    2.2116   -1.6222 H   0  0  0  0  0  0  0  0  0  0  0  0
    0.5920   -0.2154    1.5497 C   0  0  0  0  0  0  0  0  0  0  0  0
    1.7860   -0.4596    1.7183 O   0  0  0  0  0  0  0  0  0  0  0  0
   -0.2294    0.0669    2.5672 N   0  0  0  0  0  0  0  0  0  0  0  0
   -1.2130    0.1938    2.3518 H   0  0  0  0  0  0  0  0  0  0  0  0
    0.1836    0.1337    3.9673 C   0  0  0  0  0  0  0  0  0  0  0  0
    1.0451    0.7976    4.0666 H   0  0  0  0  0  0  0  0  0  0  0  0
   -0.6344    0.5115    4.5820 H   0  0  0  0  0  0  0  0  0  0  0  0
    0.4676   -0.8609    4.3157 H   0  0  0  0  0  0  0  0  0  0  0  0
  5  6  2  0  0  0  0
  5  7  1  0  0  0  0
  2  3  1  0  0  0  0
  2  4  1  0  0  0  0
  2  5  1  0  0  0  0
  1  2  1  0  0  0  0
 18 19  2  0  0  0  0
 18 20  1  0  0  0  0
 16 17  1  0  0  0  0
 14 15  2  0  0  0  0
 14 16  1  0  0  0  0
 11 12  1  0  0  0  0
 11 13  1  0  0  0  0
 11 14  1  0  0  0  0
  9 10  1  0  0  0  0
  9 11  1  0  0  0  0
  9 18  1  0  0  0  0
  7  8  1  0  0  0  0
  7  9  1  0  0  0  0
 22 23  1  0  0  0  0
 22 24  1  0  0  0  0
 22 25  1  0  0  0  0
 20 21  1  0  0  0  0
 20 22  1  0  0  0  0
M  END
$$$$
default_name
  -OEChem-02102213163D

 25 24  0     1  0  0  0  0  0999 V2000
   -2.7826   -3.8464    0.7821 H   0  0  0  0  0  0  0  0  0  0  0  0
   -2.8156   -2.8034    0.4711 C   0  0  0  0  0  0  0  0  0  0  0  0
   -3.4336   -2.2354    1.1641 H   0  0  0  0  0  0  0  0  0  0  0  0
   -3.2256   -2.7344   -0.5349 H   0  0  0  0  0  0  0  0  0  0  0  0
   -1.4126   -2.2444    0.4801 C   0  0  0  0  0  0  0  0  0  0  0  0
   -0.4686   -2.9534    0.8001 O   0  0  0  0  0  0  0  0  0  0  0  0
   -1.2736   -0.9704    0.1241 N   0  0  0  0  0  0  0  0  0  0  0  0
   -2.0996   -0.4354   -0.1019 H   0  0  0  0  0  0  0  0  0  0  0  0
   -0.0016   -0.2394    0.1271 C   0  0  1  0  0  0  0  0  0  0  0  0
    0.6995   -0.7619   -0.5275 H   0  0  0  0  0  0  0  0  0  0  0  0
   -0.2283    1.1832   -0.4215 C   0  0  0  0  0  0  0  0  0  0  0  0
   -1.1909    1.2260   -0.9326 H   0  0  0  0  0  0  0  0  0  0  0  0
   -0.2554    1.8952    0.4041 H   0  0  0  0  0  0  0  0  0  0  0  0
    0.8313    1.6215   -1.4279 C   0  0  0  0  0  0  0  0  0  0  0  0
    0.6207    1.9415   -2.5905 O   0  0  0  0  0  0  0  0  0  0  0  0
    2.0906    1.6342   -0.9524 O   0  0  0  0  0  0  0  0  0  0  0  0
    2.6402    1.9430   -1.6733 H   0  0  0  0  0  0  0  0  0  0  0  0
    0.5920   -0.2154    1.5497 C   0  0  0  0  0  0  0  0  0  0  0  0
    1.7860   -0.4596    1.7183 O   0  0  0  0  0  0  0  0  0  0  0  0
   -0.2294    0.0669    2.5672 N   0  0  0  0  0  0  0  0  0  0  0  0
   -1.2130    0.1938    2.3518 H   0  0  0  0  0  0  0  0  0  0  0  0
    0.1836    0.1337    3.9673 C   0  0  0  0  0  0  0  0  0  0  0  0
    1.0451    0.7976    4.0666 H   0  0  0  0  0  0  0  0  0  0  0  0
   -0.6344    0.5115    4.5820 H   0  0  0  0  0  0  0  0  0  0  0  0
    0.4676   -0.8609    4.3157 H   0  0  0  0  0  0  0  0  0  0  0  0
  5  6  2  0  0  0  0
  5  7  1  0  0  0  0
  2  3  1  0  0  0  0
  2  4  1  0  0  0  0
  2  5  1  0  0  0  0
  1  2  1  0  0  0  0
 18 19  2  0  0  0  0
 18 20  1  0  0  0  0
 16 17  1  0  0  0  0
 14 15  2  0  0  0  0
 14 16  1  0  0  0  0
 11 12  1  0  0  0  0
 11 13  1  0  0  0  0
 11 14  1  0  0  0  0
  9 10  1  0  0  0  0
  9 11  1  0  0  0  0
  9 18  1  0  0  0  0
  7  8  1  0  0  0  0
  7  9  1  0  0  0  0
 22 23  1  0  0  0  0
 22 24  1  0  0  0  0
 22 25  1  0  0  0  0
 20 21  1  0  0  0  0
 20 22  1  0  0  0  0
M  END
$$$$
default_name
  -OEChem-02102213163D

 25 24  0     1  0  0  0  0  0999 V2000
   -2.7826   -3.8464    0.7821 H   0  0  0  0  0  0  0  0  0  0  0  0
   -2.8156   -2.8034    0.4711 C   0  0  0  0  0  0  0  0  0  0  0  0
   -3.4336   -2.2354    1.1641 H   0  0  0  0  0  0  0  0  0  0  0  0
   -3.2256   -2.7344   -0.5349 H   0  0  0  0  0  0  0  0  0  0  0  0
   -1.4126   -2.2444    0.4801 C   0  0  0  0  0  0  0  0  0  0  0  0
   -0.4686   -2.9534    0.8001 O   0  0  0  0  0  0  0  0  0  0  0  0
   -1.2736   -0.9704    0.1241 N   0  0  0  0  0  0  0  0  0  0  0  0
   -2.0996   -0.4354   -0.1019 H   0  0  0  0  0  0  0  0  0  0  0  0
   -0.0016   -0.2394    0.1271 C   0  0  1  0  0  0  0  0  0  0  0  0
    0.6995   -0.7619   -0.5275 H   0  0  0  0  0  0  0  0  0  0  0  0
   -0.2283    1.1832   -0.4215 C   0  0  0  0  0  0  0  0  0  0  0  0
   -1.1909    1.2260   -0.9326 H   0  0  0  0  0  0  0  0  0  0  0  0
   -0.2554    1.8952    0.4041 H   0  0  0  0  0  0  0  0  0  0  0  0
    0.8313    1.6215   -1.4279 C   0  0  0  0  0  0  0  0  0  0  0  0
    0.6129    2.1825   -2.4937 O   0  0  0  0  0  0  0  0  0  0  0  0
    2.0985    1.3388   -1.0727 O   0  0  0  0  0  0  0  0  0  0  0  0
    2.6510    1.6821   -1.7757 H   0  0  0  0  0  0  0  0  0  0  0  0
    0.5920   -0.2154    1.5497 C   0  0  0  0  0  0  0  0  0  0  0  0
    1.7860   -0.4596    1.7183 O   0  0  0  0  0  0  0  0  0  0  0  0
   -0.2294    0.0669    2.5672 N   0  0  0  0  0  0  0  0  0  0  0  0
   -1.2130    0.1938    2.3518 H   0  0  0  0  0  0  0  0  0  0  0  0
    0.1836    0.1337    3.9673 C   0  0  0  0  0  0  0  0  0  0  0  0
    1.0451    0.7976    4.0666 H   0  0  0  0  0  0  0  0  0  0  0  0
   -0.6344    0.5115    4.5820 H   0  0  0  0  0  0  0  0  0  0  0  0
    0.4676   -0.8609    4.3157 H   0  0  0  0  0  0  0  0  0  0  0  0
  5  6  2  0  0  0  0
  5  7  1  0  0  0  0
  2  3  1  0  0  0  0
  2  4  1  0  0  0  0
  2  5  1  0  0  0  0
  1  2  1  0  0  0  0
 18 19  2  0  0  0  0
 18 20  1  0  0  0  0
 16 17  1  0  0  0  0
 14 15  2  0  0  0  0
 14 16  1  0  0  0  0
 11 12  1  0  0  0  0
 11 13  1  0  0  0  0
 11 14  1  0  0  0  0
  9 10  1  0  0  0  0
  9 11  1  0  0  0  0
  9 18  1  0  0  0  0
  7  8  1  0  0  0  0
  7  9  1  0  0  0  0
 22 23  1  0  0  0  0
 22 24  1  0  0  0  0
 22 25  1  0  0  0  0
 20 21  1  0  0  0  0
 20 22  1  0  0  0  0
M  END
$$$$
default_name
  -OEChem-02102213163D

 25 24  0     1  0  0  0  0  0999 V2000
   -2.7826   -3.8464    0.7821 H   0  0  0  0  0  0  0  0  0  0  0  0
   -2.8156   -2.8034    0.4711 C   0  0  0  0  0  0  0  0  0  0  0  0
   -3.4336   -2.2354    1.1641 H   0  0  0  0  0  0  0  0  0  0  0  0
   -3.2256   -2.7344   -0.5349 H   0  0  0  0  0  0  0  0  0  0  0  0
   -1.4126   -2.2444    0.4801 C   0  0  0  0  0  0  0  0  0  0  0  0
   -0.4686   -2.9534    0.8001 O   0  0  0  0  0  0  0  0  0  0  0  0
   -1.2736   -0.9704    0.1241 N   0  0  0  0  0  0  0  0  0  0  0  0
   -2.0996   -0.4354   -0.1019 H   0  0  0  0  0  0  0  0  0  0  0  0
   -0.0016   -0.2394    0.1271 C   0  0  1  0  0  0  0  0  0  0  0  0
    0.6995   -0.7619   -0.5275 H   0  0  0  0  0  0  0  0  0  0  0  0
   -0.2283    1.1832   -0.4215 C   0  0  0  0  0  0  0  0  0  0  0  0
   -1.1909    1.2260   -0.9326 H   0  0  0  0  0  0  0  0  0  0  0  0
   -0.2554    1.8952    0.4041 H   0  0  0  0  0  0  0  0  0  0  0  0
    0.8313    1.6215   -1.4279 C   0  0  0  0  0  0  0  0  0  0  0  0
    0.6538    2.3992   -2.3563 O   0  0  0  0  0  0  0  0  0  0  0  0
    2.0469    1.0738   -1.2425 O   0  0  0  0  0  0  0  0  0  0  0  0
    2.6092    1.4467   -1.9222 H   0  0  0  0  0  0  0  0  0  0  0  0
    0.5920   -0.2154    1.5497 C   0  0  0  0  0  0  0  0  0  0  0  0
    1.7860   -0.4596    1.7183 O   0  0  0  0  0  0  0  0  0  0  0  0
   -0.2294    0.0669    2.5672 N   0  0  0  0  0  0  0  0  0  0  0  0
   -1.2130    0.1938    2.3518 H   0  0  0  0  0  0  0  0  0  0  0  0
    0.1836    0.1337    3.9673 C   0  0  0  0  0  0  0  0  0  0  0  0
    1.0451    0.7976    4.0666 H   0  0  0  0  0  0  0  0  0  0  0  0
   -0.6344    0.5115    4.5820 H   0  0  0  0  0  0  0  0  0  0  0  0
    0.4676   -0.8609    4.3157 H   0  0  0  0  0  0  0  0  0  0  0  0
  5  6  2  0  0  0  0
  5  7  1  0  0  0  0
  2  3  1  0  0  0  0
  2  4  1  0  0  0  0
  2  5  1  0  0  0  0
  1  2  1  0  0  0  0
 18 19  2  0  0  0  0
 18 20  1  0  0  0  0
 16 17  1  0  0  0  0
 14 15  2  0  0  0  0
 14 16  1  0  0  0  0
 11 12  1  0  0  0  0
 11 13  1  0  0  0  0
 11 14  1  0  0  0  0
  9 10  1  0  0  0  0
  9 11  1  0  0  0  0
  9 18  1  0  0  0  0
  7  8  1  0  0  0  0
  7  9  1  0  0  0  0
 22 23  1  0  0  0  0
 22 24  1  0  0  0  0
 22 25  1  0  0  0  0
 20 21  1  0  0  0  0
 20 22  1  0  0  0  0
M  END
$$$$
default_name
  -OEChem-02102213163D

 25 24  0     1  0  0  0  0  0999 V2000
   -2.7826   -3.8464    0.7821 H   0  0  0  0  0  0  0  0  0  0  0  0
   -2.8156   -2.8034    0.4711 C   0  0  0  0  0  0  0  0  0  0  0  0
   -3.4336   -2.2354    1.1641 H   0  0  0  0  0  0  0  0  0  0  0  0
   -3.2256   -2.7344   -0.5349 H   0  0  0  0  0  0  0  0  0  0  0  0
   -1.4126   -2.2444    0.4801 C   0  0  0  0  0  0  0  0  0  0  0  0
   -0.4686   -2.9534    0.8001 O   0  0  0  0  0  0  0  0  0  0  0  0
   -1.2736   -0.9704    0.1241 N   0  0  0  0  0  0  0  0  0  0  0  0
   -2.0996   -0.4354   -0.1019 H   0  0  0  0  0  0  0  0  0  0  0  0
   -0.0016   -0.2394    0.1271 C   0  0  1  0  0  0  0  0  0  0  0  0
    0.6995   -0.7619   -0.5275 H   0  0  0  0  0  0  0  0  0  0  0  0
   -0.2283    1.1832   -0.4215 C   0  0  0  0  0  0  0  0  0  0  0  0
   -1.1909    1.2260   -0.9326 H   0  0  0  0  0  0  0  0  0  0  0  0
   -0.2554    1.8952    0.4041 H   0  0  0  0  0  0  0  0  0  0  0  0
    0.8313    1.6215   -1.4279 C   0  0  0  0  0  0  0  0  0  0  0  0
    0.7404    2.5769   -2.1877 O   0  0  0  0  0  0  0  0  0  0  0  0
    1.9391    0.8571   -1.4504 O   0  0  0  0  0  0  0  0  0  0  0  0
    2.5178    1.2527   -2.1029 H   0  0  0  0  0  0  0  0  0  0  0  0
    0.5920   -0.2154    1.5497 C   0  0  0  0  0  0  0  0  0  0  0  0
    1.7860   -0.4596    1.7183 O   0  0  0  0  0  0  0  0  0  0  0  0
   -0.2294    0.0669    2.5672 N   0  0  0  0  0  0  0  0  0  0  0  0
   -1.2130    0.1938    2.3518 H   0  0  0  0  0  0  0  0  0  0  0  0
    0.1836    0.1337    3.9673 C   0  0  0  0  0  0  0  0  0  0  0  0
    1.0451    0.7976    4.0666 H   0  0  0  0  0  0  0  0  0  0  0  0
   -0.6344    0.5115    4.5820 H   0  0  0  0  0  0  0  0  0  0  0  0
    0.4676   -0.8609    4.3157 H   0  0  0  0  0  0  0  0  0  0  0  0
  5  6  2  0  0  0  0
  5  7  1  0  0  0  0
  2  3  1  0  0  0  0
  2  4  1  0  0  0  0
  2  5  1  0  0  0  0
  1  2  1  0  0  0  0
 18 19  2  0  0  0  0
 18 20  1  0  0  0  0
 16 17  1  0  0  0  0
 14 15  2  0  0  0  0
 14 16  1  0  0  0  0
 11 12  1  0  0  0  0
 11 13  1  0  0  0  0
 11 14  1  0  0  0  0
  9 10  1  0  0  0  0
  9 11  1  0  0  0  0
  9 18  1  0  0  0  0
  7  8  1  0  0  0  0
  7  9  1  0  0  0  0
 22 23  1  0  0  0  0
 22 24  1  0  0  0  0
 22 25  1  0  0  0  0
 20 21  1  0  0  0  0
 20 22  1  0  0  0  0
M  END
$$$$
default_name
  -OEChem-02102213163D

 25 24  0     1  0  0  0  0  0999 V2000
   -2.7826   -3.8464    0.7821 H   0  0  0  0  0  0  0  0  0  0  0  0
   -2.8156   -2.8034    0.4711 C   0  0  0  0  0  0  0  0  0  0  0  0
   -3.4336   -2.2354    1.1641 H   0  0  0  0  0  0  0  0  0  0  0  0
   -3.2256   -2.7344   -0.5349 H   0  0  0  0  0  0  0  0  0  0  0  0
   -1.4126   -2.2444    0.4801 C   0  0  0  0  0  0  0  0  0  0  0  0
   -0.4686   -2.9534    0.8001 O   0  0  0  0  0  0  0  0  0  0  0  0
   -1.2736   -0.9704    0.1241 N   0  0  0  0  0  0  0  0  0  0  0  0
   -2.0996   -0.4354   -0.1019 H   0  0  0  0  0  0  0  0  0  0  0  0
   -0.0016   -0.2394    0.1271 C   0  0  1  0  0  0  0  0  0  0  0  0
    0.6995   -0.7619   -0.5275 H   0  0  0  0  0  0  0  0  0  0  0  0
   -0.2283    1.1832   -0.4215 C   0  0  0  0  0  0  0  0  0  0  0  0
   -1.2780    1.3052   -0.6913 H   0  0  0  0  0  0  0  0  0  0  0  0
    0.0065    1.9164    0.3509 H   0  0  0  0  0  0  0  0  0  0  0  0
    0.5922    1.4898   -1.6708 C   0  0  0  0  0  0  0  0  0  0  0  0
    0.5838    2.5474   -2.2869 O   0  0  0  0  0  0  0  0  0  0  0  0
    1.3702    0.4777   -2.0977 O   0  0  0  0  0  0  0  0  0  0  0  0
    1.8364    0.8107   -2.8651 H   0  0  0  0  0  0  0  0  0  0  0  0
    0.5920   -0.2154    1.5497 C   0  0  0  0  0  0  0  0  0  0  0  0
    1.7860   -0.4596    1.7183 O   0  0  0  0  0  0  0  0  0  0  0  0
   -0.2294    0.0669    2.5672 N   0  0  0  0  0  0  0  0  0  0  0  0
   -1.2130    0.1938    2.3518 H   0  0  0  0  0  0  0  0  0  0  0  0
    0.1836    0.1337    3.9673 C   0  0  0  0  0  0  0  0  0  0  0  0
    1.0451    0.7976    4.0666 H   0  0  0  0  0  0  0  0  0  0  0  0
   -0.6344    0.5115    4.5820 H   0  0  0  0  0  0  0  0  0  0  0  0
    0.4676   -0.8609    4.3157 H   0  0  0  0  0  0  0  0  0  0  0  0
  5  6  2  0  0  0  0
  5  7  1  0  0  0  0
  2  3  1  0  0  0  0
  2  4  1  0  0  0  0
  2  5  1  0  0  0  0
  1  2  1  0  0  0  0
 18 19  2  0  0  0  0
 18 20  1  0  0  0  0
 16 17  1  0  0  0  0
 14 15  2  0  0  0  0
 14 16  1  0  0  0  0
 11 12  1  0  0  0  0
 11 13  1  0  0  0  0
 11 14  1  0  0  0  0
  9 10  1  0  0  0  0
  9 11  1  0  0  0  0
  9 18  1  0  0  0  0
  7  8  1  0  0  0  0
  7  9  1  0  0  0  0
 22 23  1  0  0  0  0
 22 24  1  0  0  0  0
 22 25  1  0  0  0  0
 20 21  1  0  0  0  0
 20 22  1  0  0  0  0
M  END
$$$$
default_name
  -OEChem-02102213163D

 25 24  0     1  0  0  0  0  0999 V2000
   -2.7826   -3.8464    0.7821 H   0  0  0  0  0  0  0  0  0  0  0  0
   -2.8156   -2.8034    0.4711 C   0  0  0  0  0  0  0  0  0  0  0  0
   -3.4336   -2.2354    1.1641 H   0  0  0  0  0  0  0  0  0  0  0  0
   -3.2256   -2.7344   -0.5349 H   0  0  0  0  0  0  0  0  0  0  0  0
   -1.4126   -2.2444    0.4801 C   0  0  0  0  0  0  0  0  0  0  0  0
   -0.4686   -2.9534    0.8001 O   0  0  0  0  0  0  0  0  0  0  0  0
   -1.2736   -0.9704    0.1241 N   0  0  0  0  0  0  0  0  0  0  0  0
   -2.0996   -0.4354   -0.1019 H   0  0  0  0  0  0  0  0  0  0  0  0
   -0.0016   -0.2394    0.1271 C   0  0  1  0  0  0  0  0  0  0  0  0
    0.6995   -0.7619   -0.5275 H   0  0  0  0  0  0  0  0  0  0  0  0
   -0.2283    1.1832   -0.4215 C   0  0  0  0  0  0  0  0  0  0  0  0
   -1.2780    1.3052   -0.6913 H   0  0  0  0  0  0  0  0  0  0  0  0
    0.0065    1.9164    0.3509 H   0  0  0  0  0  0  0  0  0  0  0  0
    0.5922    1.4898   -1.6708 C   0  0  0  0  0  0  0  0  0  0  0  0
    0.7892    2.6038   -2.1382 O   0  0  0  0  0  0  0  0  0  0  0  0
    1.1173    0.4105   -2.2802 O   0  0  0  0  0  0  0  0  0  0  0  0
    1.6156    0.7467   -3.0258 H   0  0  0  0  0  0  0  0  0  0  0  0
    0.5920   -0.2154    1.5497 C   0  0  0  0  0  0  0  0  0  0  0  0
    1.7860   -0.4596    1.7183 O   0  0  0  0  0  0  0  0  0  0  0  0
   -0.2294    0.0669    2.5672 N   0  0  0  0  0  0  0  0  0  0  0  0
   -1.2130    0.1938    2.3518 H   0  0  0  0  0  0  0  0  0  0  0  0
    0.1836    0.1337    3.9673 C   0  0  0  0  0  0  0  0  0  0  0  0
    1.0451    0.7976    4.0666 H   0  0  0  0  0  0  0  0  0  0  0  0
   -0.6344    0.5115    4.5820 H   0  0  0  0  0  0  0  0  0  0  0  0
    0.4676   -0.8609    4.3157 H   0  0  0  0  0  0  0  0  0  0  0  0
  5  6  2  0  0  0  0
  5  7  1  0  0  0  0
  2  3  1  0  0  0  0
  2  4  1  0  0  0  0
  2  5  1  0  0  0  0
  1  2  1  0  0  0  0
 18 19  2  0  0  0  0
 18 20  1  0  0  0  0
 16 17  1  0  0  0  0
 14 15  2  0  0  0  0
 14 16  1  0  0  0  0
 11 12  1  0  0  0  0
 11 13  1  0  0  0  0
 11 14  1  0  0  0  0
  9 10  1  0  0  0  0
  9 11  1  0  0  0  0
  9 18  1  0  0  0  0
  7  8  1  0  0  0  0
  7  9  1  0  0  0  0
 22 23  1  0  0  0  0
 22 24  1  0  0  0  0
 22 25  1  0  0  0  0
 20 21  1  0  0  0  0
 20 22  1  0  0  0  0
M  END
$$$$
default_name
  -OEChem-02102213163D

 25 24  0     1  0  0  0  0  0999 V2000
   -2.7826   -3.8464    0.7821 H   0  0  0  0  0  0  0  0  0  0  0  0
   -2.8156   -2.8034    0.4711 C   0  0  0  0  0  0  0  0  0  0  0  0
   -3.4336   -2.2354    1.1641 H   0  0  0  0  0  0  0  0  0  0  0  0
   -3.2256   -2.7344   -0.5349 H   0  0  0  0  0  0  0  0  0  0  0  0
   -1.4126   -2.2444    0.4801 C   0  0  0  0  0  0  0  0  0  0  0  0
   -0.4686   -2.9534    0.8001 O   0  0  0  0  0  0  0  0  0  0  0  0
   -1.2736   -0.9704    0.1241 N   0  0  0  0  0  0  0  0  0  0  0  0
   -2.0996   -0.4354   -0.1019 H   0  0  0  0  0  0  0  0  0  0  0  0
   -0.0016   -0.2394    0.1271 C   0  0  1  0  0  0  0  0  0  0  0  0
    0.6995   -0.7619   -0.5275 H   0  0  0  0  0  0  0  0  0  0  0  0
   -0.2283    1.1832   -0.4215 C   0  0  0  0  0  0  0  0  0  0  0  0
   -1.2780    1.3052   -0.6913 H   0  0  0  0  0  0  0  0  0  0  0  0
    0.0065    1.9164    0.3509 H   0  0  0  0  0  0  0  0  0  0  0  0
    0.5922    1.4898   -1.6708 C   0  0  0  0  0  0  0  0  0  0  0  0
    1.0073    2.5940   -1.9973 O   0  0  0  0  0  0  0  0  0  0  0  0
    0.8494    0.4247   -2.4527 O   0  0  0  0  0  0  0  0  0  0  0  0
    1.3805    0.7541   -3.1785 H   0  0  0  0  0  0  0  0  0  0  0  0
    0.5920   -0.2154    1.5497 C   0  0  0  0  0  0  0  0  0  0  0  0
    1.7860   -0.4596    1.7183 O   0  0  0  0  0  0  0  0  0  0  0  0
   -0.2294    0.0669    2.5672 N   0  0  0  0  0  0  0  0  0  0  0  0
   -1.2130    0.1938    2.3518 H   0  0  0  0  0  0  0  0  0  0  0  0
    0.1836    0.1337    3.9673 C   0  0  0  0  0  0  0  0  0  0  0  0
    1.0451    0.7976    4.0666 H   0  0  0  0  0  0  0  0  0  0  0  0
   -0.6344    0.5115    4.5820 H   0  0  0  0  0  0  0  0  0  0  0  0
    0.4676   -0.8609    4.3157 H   0  0  0  0  0  0  0  0  0  0  0  0
  5  6  2  0  0  0  0
  5  7  1  0  0  0  0
  2  3  1  0  0  0  0
  2  4  1  0  0  0  0
  2  5  1  0  0  0  0
  1  2  1  0  0  0  0
 18 19  2  0  0  0  0
 18 20  1  0  0  0  0
 16 17  1  0  0  0  0
 14 15  2  0  0  0  0
 14 16  1  0  0  0  0
 11 12  1  0  0  0  0
 11 13  1  0  0  0  0
 11 14  1  0  0  0  0
  9 10  1  0  0  0  0
  9 11  1  0  0  0  0
  9 18  1  0  0  0  0
  7  8  1  0  0  0  0
  7  9  1  0  0  0  0
 22 23  1  0  0  0  0
 22 24  1  0  0  0  0
 22 25  1  0  0  0  0
 20 21  1  0  0  0  0
 20 22  1  0  0  0  0
M  END
$$$$
default_name
  -OEChem-02102213163D

 25 24  0     1  0  0  0  0  0999 V2000
   -2.7826   -3.8464    0.7821 H   0  0  0  0  0  0  0  0  0  0  0  0
   -2.8156   -2.8034    0.4711 C   0  0  0  0  0  0  0  0  0  0  0  0
   -3.4336   -2.2354    1.1641 H   0  0  0  0  0  0  0  0  0  0  0  0
   -3.2256   -2.7344   -0.5349 H   0  0  0  0  0  0  0  0  0  0  0  0
   -1.4126   -2.2444    0.4801 C   0  0  0  0  0  0  0  0  0  0  0  0
   -0.4686   -2.9534    0.8001 O   0  0  0  0  0  0  0  0  0  0  0  0
   -1.2736   -0.9704    0.1241 N   0  0  0  0  0  0  0  0  0  0  0  0
   -2.0996   -0.4354   -0.1019 H   0  0  0  0  0  0  0  0  0  0  0  0
   -0.0016   -0.2394    0.1271 C   0  0  1  0  0  0  0  0  0  0  0  0
    0.6995   -0.7619   -0.5275 H   0  0  0  0  0  0  0  0  0  0  0  0
   -0.2283    1.1832   -0.4215 C   0  0  0  0  0  0  0  0  0  0  0  0
   -1.2780    1.3052   -0.6913 H   0  0  0  0  0  0  0  0  0  0  0  0
    0.0065    1.9164    0.3509 H   0  0  0  0  0  0  0  0  0  0  0  0
    0.5922    1.4898   -1.6708 C   0  0  0  0  0  0  0  0  0  0  0  0
    1.2232    2.5187   -1.8740 O   0  0  0  0  0  0  0  0  0  0  0  0
    0.5846    0.5192   -2.6034 O   0  0  0  0  0  0  0  0  0  0  0  0
    1.1469    0.8323   -3.3126 H   0  0  0  0  0  0  0  0  0  0  0  0
    0.5920   -0.2154    1.5497 C   0  0  0  0  0  0  0  0  0  0  0  0
    1.7860   -0.4596    1.7183 O   0  0  0  0  0  0  0  0  0  0  0  0
   -0.2294    0.0669    2.5672 N   0  0  0  0  0  0  0  0  0  0  0  0
   -1.2130    0.1938    2.3518 H   0  0  0  0  0  0  0  0  0  0  0  0
    0.1836    0.1337    3.9673 C   0  0  0  0  0  0  0  0  0  0  0  0
    1.0451    0.7976    4.0666 H   0  0  0  0  0  0  0  0  0  0  0  0
   -0.6344    0.5115    4.5820 H   0  0  0  0  0  0  0  0  0  0  0  0
    0.4676   -0.8609    4.3157 H   0  0  0  0  0  0  0  0  0  0  0  0
  5  6  2  0  0  0  0
  5  7  1  0  0  0  0
  2  3  1  0  0  0  0
  2  4  1  0  0  0  0
  2  5  1  0  0  0  0
  1  2  1  0  0  0  0
 18 19  2  0  0  0  0
 18 20  1  0  0  0  0
 16 17  1  0  0  0  0
 14 15  2  0  0  0  0
 14 16  1  0  0  0  0
 11 12  1  0  0  0  0
 11 13  1  0  0  0  0
 11 14  1  0  0  0  0
  9 10  1  0  0  0  0
  9 11  1  0  0  0  0
  9 18  1  0  0  0  0
  7  8  1  0  0  0  0
  7  9  1  0  0  0  0
 22 23  1  0  0  0  0
 22 24  1  0  0  0  0
 22 25  1  0  0  0  0
 20 21  1  0  0  0  0
 20 22  1  0  0  0  0
M  END
$$$$
default_name
  -OEChem-02102213163D

 25 24  0     1  0  0  0  0  0999 V2000
   -2.7826   -3.8464    0.7821 H   0  0  0  0  0  0  0  0  0  0  0  0
   -2.8156   -2.8034    0.4711 C   0  0  0  0  0  0  0  0  0  0  0  0
   -3.4336   -2.2354    1.1641 H   0  0  0  0  0  0  0  0  0  0  0  0
   -3.2256   -2.7344   -0.5349 H   0  0  0  0  0  0  0  0  0  0  0  0
   -1.4126   -2.2444    0.4801 C   0  0  0  0  0  0  0  0  0  0  0  0
   -0.4686   -2.9534    0.8001 O   0  0  0  0  0  0  0  0  0  0  0  0
   -1.2736   -0.9704    0.1241 N   0  0  0  0  0  0  0  0  0  0  0  0
   -2.0996   -0.4354   -0.1019 H   0  0  0  0  0  0  0  0  0  0  0  0
   -0.0016   -0.2394    0.1271 C   0  0  1  0  0  0  0  0  0  0  0  0
    0.6995   -0.7619   -0.5275 H   0  0  0  0  0  0  0  0  0  0  0  0
   -0.2283    1.1832   -0.4215 C   0  0  0  0  0  0  0  0  0  0  0  0
   -1.2780    1.3052   -0.6913 H   0  0  0  0  0  0  0  0  0  0  0  0
    0.0065    1.9164    0.3509 H   0  0  0  0  0  0  0  0  0  0  0  0
    0.5922    1.4898   -1.6708 C   0  0  0  0  0  0  0  0  0  0  0  0
    1.4223    2.3831   -1.7766 O   0  0  0  0  0  0  0  0  0  0  0  0
    0.3410    0.6876   -2.7221 O   0  0  0  0  0  0  0  0  0  0  0  0
    0.9310    0.9760   -3.4192 H   0  0  0  0  0  0  0  0  0  0  0  0
    0.5920   -0.2154    1.5497 C   0  0  0  0  0  0  0  0  0  0  0  0
    1.7860   -0.4596    1.7183 O   0  0  0  0  0  0  0  0  0  0  0  0
   -0.2294    0.0669    2.5672 N   0  0  0  0  0  0  0  0  0  0  0  0
   -1.2130    0.1938    2.3518 H   0  0  0  0  0  0  0  0  0  0  0  0
    0.1836    0.1337    3.9673 C   0  0  0  0  0  0  0  0  0  0  0  0
    1.0451    0.7976    4.0666 H   0  0  0  0  0  0  0  0  0  0  0  0
   -0.6344    0.5115    4.5820 H   0  0  0  0  0  0  0  0  0  0  0  0
    0.4676   -0.8609    4.3157 H   0  0  0  0  0  0  0  0  0  0  0  0
  5  6  2  0  0  0  0
  5  7  1  0  0  0  0
  2  3  1  0  0  0  0
  2  4  1  0  0  0  0
  2  5  1  0  0  0  0
  1  2  1  0  0  0  0
 18 19  2  0  0  0  0
 18 20  1  0  0  0  0
 16 17  1  0  0  0  0
 14 15  2  0  0  0  0
 14 16  1  0  0  0  0
 11 12  1  0  0  0  0
 11 13  1  0  0  0  0
 11 14  1  0  0  0  0
  9 10  1  0  0  0  0
  9 11  1  0  0  0  0
  9 18  1  0  0  0  0
  7  8  1  0  0  0  0
  7  9  1  0  0  0  0
 22 23  1  0  0  0  0
 22 24  1  0  0  0  0
 22 25  1  0  0  0  0
 20 21  1  0  0  0  0
 20 22  1  0  0  0  0
M  END
$$$$
default_name
  -OEChem-02102213163D

 25 24  0     1  0  0  0  0  0999 V2000
   -2.7826   -3.8464    0.7821 H   0  0  0  0  0  0  0  0  0  0  0  0
   -2.8156   -2.8034    0.4711 C   0  0  0  0  0  0  0  0  0  0  0  0
   -3.4336   -2.2354    1.1641 H   0  0  0  0  0  0  0  0  0  0  0  0
   -3.2256   -2.7344   -0.5349 H   0  0  0  0  0  0  0  0  0  0  0  0
   -1.4126   -2.2444    0.4801 C   0  0  0  0  0  0  0  0  0  0  0  0
   -0.4686   -2.9534    0.8001 O   0  0  0  0  0  0  0  0  0  0  0  0
   -1.2736   -0.9704    0.1241 N   0  0  0  0  0  0  0  0  0  0  0  0
   -2.0996   -0.4354   -0.1019 H   0  0  0  0  0  0  0  0  0  0  0  0
   -0.0016   -0.2394    0.1271 C   0  0  1  0  0  0  0  0  0  0  0  0
    0.6995   -0.7619   -0.5275 H   0  0  0  0  0  0  0  0  0  0  0  0
   -0.2283    1.1832   -0.4215 C   0  0  0  0  0  0  0  0  0  0  0  0
   -1.2780    1.3052   -0.6913 H   0  0  0  0  0  0  0  0  0  0  0  0
    0.0065    1.9164    0.3509 H   0  0  0  0  0  0  0  0  0  0  0  0
    0.5922    1.4898   -1.6708 C   0  0  0  0  0  0  0  0  0  0  0  0
    1.5909    2.1963   -1.7117 O   0  0  0  0  0  0  0  0  0  0  0  0
    0.1352    0.9183   -2.8006 O   0  0  0  0  0  0  0  0  0  0  0  0
    0.7473    1.1753   -3.4909 H   0  0  0  0  0  0  0  0  0  0  0  0
    0.5920   -0.2154    1.5497 C   0  0  0  0  0  0  0  0  0  0  0  0
    1.7860   -0.4596    1.7183 O   0  0  0  0  0  0  0  0  0  0  0  0
   -0.2294    0.0669    2.5672 N   0  0  0  0  0  0  0  0  0  0  0  0
   -1.2130    0.1938    2.3518 H   0  0  0  0  0  0  0  0  0  0  0  0
    0.1836    0.1337    3.9673 C   0  0  0  0  0  0  0  0  0  0  0  0
    1.0451    0.7976    4.0666 H   0  0  0  0  0  0  0  0  0  0  0  0
   -0.6344    0.5115    4.5820 H   0  0  0  0  0  0  0  0  0  0  0  0
    0.4676   -0.8609    4.3157 H   0  0  0  0  0  0  0  0  0  0  0  0
  5  6  2  0  0  0  0
  5  7  1  0  0  0  0
  2  3  1  0  0  0  0
  2  4  1  0  0  0  0
  2  5  1  0  0  0  0
  1  2  1  0  0  0  0
 18 19  2  0  0  0  0
 18 20  1  0  0  0  0
 16 17  1  0  0  0  0
 14 15  2  0  0  0  0
 14 16  1  0  0  0  0
 11 12  1  0  0  0  0
 11 13  1  0  0  0  0
 11 14  1  0  0  0  0
  9 10  1  0  0  0  0
  9 11  1  0  0  0  0
  9 18  1  0  0  0  0
  7  8  1  0  0  0  0
  7  9  1  0  0  0  0
 22 23  1  0  0  0  0
 22 24  1  0  0  0  0
 22 25  1  0  0  0  0
 20 21  1  0  0  0  0
 20 22  1  0  0  0  0
M  END
$$$$
default_name
  -OEChem-02102213163D

 25 24  0     1  0  0  0  0  0999 V2000
   -2.7826   -3.8464    0.7821 H   0  0  0  0  0  0  0  0  0  0  0  0
   -2.8156   -2.8034    0.4711 C   0  0  0  0  0  0  0  0  0  0  0  0
   -3.4336   -2.2354    1.1641 H   0  0  0  0  0  0  0  0  0  0  0  0
   -3.2256   -2.7344   -0.5349 H   0  0  0  0  0  0  0  0  0  0  0  0
   -1.4126   -2.2444    0.4801 C   0  0  0  0  0  0  0  0  0  0  0  0
   -0.4686   -2.9534    0.8001 O   0  0  0  0  0  0  0  0  0  0  0  0
   -1.2736   -0.9704    0.1241 N   0  0  0  0  0  0  0  0  0  0  0  0
   -2.0996   -0.4354   -0.1019 H   0  0  0  0  0  0  0  0  0  0  0  0
   -0.0016   -0.2394    0.1271 C   0  0  1  0  0  0  0  0  0  0  0  0
    0.6995   -0.7619   -0.5275 H   0  0  0  0  0  0  0  0  0  0  0  0
   -0.2283    1.1832   -0.4215 C   0  0  0  0  0  0  0  0  0  0  0  0
   -1.2780    1.3052   -0.6913 H   0  0  0  0  0  0  0  0  0  0  0  0
    0.0065    1.9164    0.3509 H   0  0  0  0  0  0  0  0  0  0  0  0
    0.5922    1.4898   -1.6708 C   0  0  0  0  0  0  0  0  0  0  0  0
    1.7175    1.9712   -1.6838 O   0  0  0  0  0  0  0  0  0  0  0  0
   -0.0188    1.1958   -2.8336 O   0  0  0  0  0  0  0  0  0  0  0  0
    0.6084    1.4169   -3.5229 H   0  0  0  0  0  0  0  0  0  0  0  0
    0.5920   -0.2154    1.5497 C   0  0  0  0  0  0  0  0  0  0  0  0
    1.7860   -0.4596    1.7183 O   0  0  0  0  0  0  0  0  0  0  0  0
   -0.2294    0.0669    2.5672 N   0  0  0  0  0  0  0  0  0  0  0  0
   -1.2130    0.1938    2.3518 H   0  0  0  0  0  0  0  0  0  0  0  0
    0.1836    0.1337    3.9673 C   0  0  0  0  0  0  0  0  0  0  0  0
    1.0451    0.7976    4.0666 H   0  0  0  0  0  0  0  0  0  0  0  0
   -0.6344    0.5115    4.5820 H   0  0  0  0  0  0  0  0  0  0  0  0
    0.4676   -0.8609    4.3157 H   0  0  0  0  0  0  0  0  0  0  0  0
  5  6  2  0  0  0  0
  5  7  1  0  0  0  0
  2  3  1  0  0  0  0
  2  4  1  0  0  0  0
  2  5  1  0  0  0  0
  1  2  1  0  0  0  0
 18 19  2  0  0  0  0
 18 20  1  0  0  0  0
 16 17  1  0  0  0  0
 14 15  2  0  0  0  0
 14 16  1  0  0  0  0
 11 12  1  0  0  0  0
 11 13  1  0  0  0  0
 11 14  1  0  0  0  0
  9 10  1  0  0  0  0
  9 11  1  0  0  0  0
  9 18  1  0  0  0  0
  7  8  1  0  0  0  0
  7  9  1  0  0  0  0
 22 23  1  0  0  0  0
 22 24  1  0  0  0  0
 22 25  1  0  0  0  0
 20 21  1  0  0  0  0
 20 22  1  0  0  0  0
M  END
$$$$
default_name
  -OEChem-02102213163D

 25 24  0     1  0  0  0  0  0999 V2000
   -2.7826   -3.8464    0.7821 H   0  0  0  0  0  0  0  0  0  0  0  0
   -2.8156   -2.8034    0.4711 C   0  0  0  0  0  0  0  0  0  0  0  0
   -3.4336   -2.2354    1.1641 H   0  0  0  0  0  0  0  0  0  0  0  0
   -3.2256   -2.7344   -0.5349 H   0  0  0  0  0  0  0  0  0  0  0  0
   -1.4126   -2.2444    0.4801 C   0  0  0  0  0  0  0  0  0  0  0  0
   -0.4686   -2.9534    0.8001 O   0  0  0  0  0  0  0  0  0  0  0  0
   -1.2736   -0.9704    0.1241 N   0  0  0  0  0  0  0  0  0  0  0  0
   -2.0996   -0.4354   -0.1019 H   0  0  0  0  0  0  0  0  0  0  0  0
   -0.0016   -0.2394    0.1271 C   0  0  1  0  0  0  0  0  0  0  0  0
    0.6995   -0.7619   -0.5275 H   0  0  0  0  0  0  0  0  0  0  0  0
   -0.2283    1.1832   -0.4215 C   0  0  0  0  0  0  0  0  0  0  0  0
   -1.2780    1.3052   -0.6913 H   0  0  0  0  0  0  0  0  0  0  0  0
    0.0065    1.9164    0.3509 H   0  0  0  0  0  0  0  0  0  0  0  0
    0.5922    1.4898   -1.6708 C   0  0  0  0  0  0  0  0  0  0  0  0
    1.7935    1.7230   -1.6948 O   0  0  0  0  0  0  0  0  0  0  0  0
   -0.1104    1.5010   -2.8189 O   0  0  0  0  0  0  0  0  0  0  0  0
    0.5237    1.6840   -3.5129 H   0  0  0  0  0  0  0  0  0  0  0  0
    0.5920   -0.2154    1.5497 C   0  0  0  0  0  0  0  0  0  0  0  0
    1.7860   -0.4596    1.7183 O   0  0  0  0  0  0  0  0  0  0  0  0
   -0.2294    0.0669    2.5672 N   0  0  0  0  0  0  0  0  0  0  0  0
   -1.2130    0.1938    2.3518 H   0  0  0  0  0  0  0  0  0  0  0  0
    0.1836    0.1337    3.9673 C   0  0  0  0  0  0  0  0  0  0  0  0
    1.0451    0.7976    4.0666 H   0  0  0  0  0  0  0  0  0  0  0  0
   -0.6344    0.5115    4.5820 H   0  0  0  0  0  0  0  0  0  0  0  0
    0.4676   -0.8609    4.3157 H   0  0  0  0  0  0  0  0  0  0  0  0
  5  6  2  0  0  0  0
  5  7  1  0  0  0  0
  2  3  1  0  0  0  0
  2  4  1  0  0  0  0
  2  5  1  0  0  0  0
  1  2  1  0  0  0  0
 18 19  2  0  0  0  0
 18 20  1  0  0  0  0
 16 17  1  0  0  0  0
 14 15  2  0  0  0  0
 14 16  1  0  0  0  0
 11 12  1  0  0  0  0
 11 13  1  0  0  0  0
 11 14  1  0  0  0  0
  9 10  1  0  0  0  0
  9 11  1  0  0  0  0
  9 18  1  0  0  0  0
  7  8  1  0  0  0  0
  7  9  1  0  0  0  0
 22 23  1  0  0  0  0
 22 24  1  0  0  0  0
 22 25  1  0  0  0  0
 20 21  1  0  0  0  0
 20 22  1  0  0  0  0
M  END
$$$$
default_name
  -OEChem-02102213163D

 25 24  0     1  0  0  0  0  0999 V2000
   -2.7826   -3.8464    0.7821 H   0  0  0  0  0  0  0  0  0  0  0  0
   -2.8156   -2.8034    0.4711 C   0  0  0  0  0  0  0  0  0  0  0  0
   -3.4336   -2.2354    1.1641 H   0  0  0  0  0  0  0  0  0  0  0  0
   -3.2256   -2.7344   -0.5349 H   0  0  0  0  0  0  0  0  0  0  0  0
   -1.4126   -2.2444    0.4801 C   0  0  0  0  0  0  0  0  0  0  0  0
   -0.4686   -2.9534    0.8001 O   0  0  0  0  0  0  0  0  0  0  0  0
   -1.2736   -0.9704    0.1241 N   0  0  0  0  0  0  0  0  0  0  0  0
   -2.0996   -0.4354   -0.1019 H   0  0  0  0  0  0  0  0  0  0  0  0
   -0.0016   -0.2394    0.1271 C   0  0  1  0  0  0  0  0  0  0  0  0
    0.6995   -0.7619   -0.5275 H   0  0  0  0  0  0  0  0  0  0  0  0
   -0.2283    1.1832   -0.4215 C   0  0  0  0  0  0  0  0  0  0  0  0
   -1.2780    1.3052   -0.6913 H   0  0  0  0  0  0  0  0  0  0  0  0
    0.0065    1.9164    0.3509 H   0  0  0  0  0  0  0  0  0  0  0  0
    0.5922    1.4898   -1.6708 C   0  0  0  0  0  0  0  0  0  0  0  0
    1.8138    1.4687   -1.7438 O   0  0  0  0  0  0  0  0  0  0  0  0
   -0.1335    1.8131   -2.7575 O   0  0  0  0  0  0  0  0  0  0  0  0
    0.4991    1.9586   -3.4617 H   0  0  0  0  0  0  0  0  0  0  0  0
    0.5920   -0.2154    1.5497 C   0  0  0  0  0  0  0  0  0  0  0  0
    1.7860   -0.4596    1.7183 O   0  0  0  0  0  0  0  0  0  0  0  0
   -0.2294    0.0669    2.5672 N   0  0  0  0  0  0  0  0  0  0  0  0
   -1.2130    0.1938    2.3518 H   0  0  0  0  0  0  0  0  0  0  0  0
    0.1836    0.1337    3.9673 C   0  0  0  0  0  0  0  0  0  0  0  0
    1.0451    0.7976    4.0666 H   0  0  0  0  0  0  0  0  0  0  0  0
   -0.6344    0.5115    4.5820 H   0  0  0  0  0  0  0  0  0  0  0  0
    0.4676   -0.8609    4.3157 H   0  0  0  0  0  0  0  0  0  0  0  0
  5  6  2  0  0  0  0
  5  7  1  0  0  0  0
  2  3  1  0  0  0  0
  2  4  1  0  0  0  0
  2  5  1  0  0  0  0
  1  2  1  0  0  0  0
 18 19  2  0  0  0  0
 18 20  1  0  0  0  0
 16 17  1  0  0  0  0
 14 15  2  0  0  0  0
 14 16  1  0  0  0  0
 11 12  1  0  0  0  0
 11 13  1  0  0  0  0
 11 14  1  0  0  0  0
  9 10  1  0  0  0  0
  9 11  1  0  0  0  0
  9 18  1  0  0  0  0
  7  8  1  0  0  0  0
  7  9  1  0  0  0  0
 22 23  1  0  0  0  0
 22 24  1  0  0  0  0
 22 25  1  0  0  0  0
 20 21  1  0  0  0  0
 20 22  1  0  0  0  0
M  END
$$$$
default_name
  -OEChem-02102213163D

 25 24  0     1  0  0  0  0  0999 V2000
   -2.7826   -3.8464    0.7821 H   0  0  0  0  0  0  0  0  0  0  0  0
   -2.8156   -2.8034    0.4711 C   0  0  0  0  0  0  0  0  0  0  0  0
   -3.4336   -2.2354    1.1641 H   0  0  0  0  0  0  0  0  0  0  0  0
   -3.2256   -2.7344   -0.5349 H   0  0  0  0  0  0  0  0  0  0  0  0
   -1.4126   -2.2444    0.4801 C   0  0  0  0  0  0  0  0  0  0  0  0
   -0.4686   -2.9534    0.8001 O   0  0  0  0  0  0  0  0  0  0  0  0
   -1.2736   -0.9704    0.1241 N   0  0  0  0  0  0  0  0  0  0  0  0
   -2.0996   -0.4354   -0.1019 H   0  0  0  0  0  0  0  0  0  0  0  0
   -0.0016   -0.2394    0.1271 C   0  0  1  0  0  0  0  0  0  0  0  0
    0.6995   -0.7619   -0.5275 H   0  0  0  0  0  0  0  0  0  0  0  0
   -0.2283    1.1832   -0.4215 C   0  0  0  0  0  0  0  0  0  0  0  0
   -1.2780    1.3052   -0.6913 H   0  0  0  0  0  0  0  0  0  0  0  0
    0.0065    1.9164    0.3509 H   0  0  0  0  0  0  0  0  0  0  0  0
    0.5922    1.4898   -1.6708 C   0  0  0  0  0  0  0  0  0  0  0  0
    1.7770    1.2255   -1.8277 O   0  0  0  0  0  0  0  0  0  0  0  0
   -0.0864    2.1110   -2.6534 O   0  0  0  0  0  0  0  0  0  0  0  0
    0.5361    2.2220   -3.3727 H   0  0  0  0  0  0  0  0  0  0  0  0
    0.5920   -0.2154    1.5497 C   0  0  0  0  0  0  0  0  0  0  0  0
    1.7860   -0.4596    1.7183 O   0  0  0  0  0  0  0  0  0  0  0  0
   -0.2294    0.0669    2.5672 N   0  0  0  0  0  0  0  0  0  0  0  0
   -1.2130    0.1938    2.3518 H   0  0  0  0  0  0  0  0  0  0  0  0
    0.1836    0.1337    3.9673 C   0  0  0  0  0  0  0  0  0  0  0  0
    1.0451    0.7976    4.0666 H   0  0  0  0  0  0  0  0  0  0  0  0
   -0.6344    0.5115    4.5820 H   0  0  0  0  0  0  0  0  0  0  0  0
    0.4676   -0.8609    4.3157 H   0  0  0  0  0  0  0  0  0  0  0  0
  5  6  2  0  0  0  0
  5  7  1  0  0  0  0
  2  3  1  0  0  0  0
  2  4  1  0  0  0  0
  2  5  1  0  0  0  0
  1  2  1  0  0  0  0
 18 19  2  0  0  0  0
 18 20  1  0  0  0  0
 16 17  1  0  0  0  0
 14 15  2  0  0  0  0
 14 16  1  0  0  0  0
 11 12  1  0  0  0  0
 11 13  1  0  0  0  0
 11 14  1  0  0  0  0
  9 10  1  0  0  0  0
  9 11  1  0  0  0  0
  9 18  1  0  0  0  0
  7  8  1  0  0  0  0
  7  9  1  0  0  0  0
 22 23  1  0  0  0  0
 22 24  1  0  0  0  0
 22 25  1  0  0  0  0
 20 21  1  0  0  0  0
 20 22  1  0  0  0  0
M  END
$$$$
default_name
  -OEChem-02102213163D

 25 24  0     1  0  0  0  0  0999 V2000
   -2.7826   -3.8464    0.7821 H   0  0  0  0  0  0  0  0  0  0  0  0
   -2.8156   -2.8034    0.4711 C   0  0  0  0  0  0  0  0  0  0  0  0
   -3.4336   -2.2354    1.1641 H   0  0  0  0  0  0  0  0  0  0  0  0
   -3.2256   -2.7344   -0.5349 H   0  0  0  0  0  0  0  0  0  0  0  0
   -1.4126   -2.2444    0.4801 C   0  0  0  0  0  0  0  0  0  0  0  0
   -0.4686   -2.9534    0.8001 O   0  0  0  0  0  0  0  0  0  0  0  0
   -1.2736   -0.9704    0.1241 N   0  0  0  0  0  0  0  0  0  0  0  0
   -2.0996   -0.4354   -0.1019 H   0  0  0  0  0  0  0  0  0  0  0  0
   -0.0016   -0.2394    0.1271 C   0  0  1  0  0  0  0  0  0  0  0  0
    0.6995   -0.7619   -0.5275 H   0  0  0  0  0  0  0  0  0  0  0  0
   -0.2283    1.1832   -0.4215 C   0  0  0  0  0  0  0  0  0  0  0  0
   -1.2780    1.3052   -0.6913 H   0  0  0  0  0  0  0  0  0  0  0  0
    0.0065    1.9164    0.3509 H   0  0  0  0  0  0  0  0  0  0  0  0
    0.5922    1.4898   -1.6708 C   0  0  0  0  0  0  0  0  0  0  0  0
    1.6855    1.0102   -1.9407 O   0  0  0  0  0  0  0  0  0  0  0  0
    0.0276    2.3743   -2.5139 O   0  0  0  0  0  0  0  0  0  0  0  0
    0.6324    2.4561   -3.2520 H   0  0  0  0  0  0  0  0  0  0  0  0
    0.5920   -0.2154    1.5497 C   0  0  0  0  0  0  0  0  0  0  0  0
    1.7860   -0.4596    1.7183 O   0  0  0  0  0  0  0  0  0  0  0  0
   -0.2294    0.0669    2.5672 N   0  0  0  0  0  0  0  0  0  0  0  0
   -1.2130    0.1938    2.3518 H   0  0  0  0  0  0  0  0  0  0  0  0
    0.1836    0.1337    3.9673 C   0  0  0  0  0  0  0  0  0  0  0  0
    1.0451    0.7976    4.0666 H   0  0  0  0  0  0  0  0  0  0  0  0
   -0.6344    0.5115    4.5820 H   0  0  0  0  0  0  0  0  0  0  0  0
    0.4676   -0.8609    4.3157 H   0  0  0  0  0  0  0  0  0  0  0  0
  5  6  2  0  0  0  0
  5  7  1  0  0  0  0
  2  3  1  0  0  0  0
  2  4  1  0  0  0  0
  2  5  1  0  0  0  0
  1  2  1  0  0  0  0
 18 19  2  0  0  0  0
 18 20  1  0  0  0  0
 16 17  1  0  0  0  0
 14 15  2  0  0  0  0
 14 16  1  0  0  0  0
 11 12  1  0  0  0  0
 11 13  1  0  0  0  0
 11 14  1  0  0  0  0
  9 10  1  0  0  0  0
  9 11  1  0  0  0  0
  9 18  1  0  0  0  0
  7  8  1  0  0  0  0
  7  9  1  0  0  0  0
 22 23  1  0  0  0  0
 22 24  1  0  0  0  0
 22 25  1  0  0  0  0
 20 21  1  0  0  0  0
 20 22  1  0  0  0  0
M  END
$$$$
default_name
  -OEChem-02102213163D

 25 24  0     1  0  0  0  0  0999 V2000
   -2.7826   -3.8464    0.7821 H   0  0  0  0  0  0  0  0  0  0  0  0
   -2.8156   -2.8034    0.4711 C   0  0  0  0  0  0  0  0  0  0  0  0
   -3.4336   -2.2354    1.1641 H   0  0  0  0  0  0  0  0  0  0  0  0
   -3.2256   -2.7344   -0.5349 H   0  0  0  0  0  0  0  0  0  0  0  0
   -1.4126   -2.2444    0.4801 C   0  0  0  0  0  0  0  0  0  0  0  0
   -0.4686   -2.9534    0.8001 O   0  0  0  0  0  0  0  0  0  0  0  0
   -1.2736   -0.9704    0.1241 N   0  0  0  0  0  0  0  0  0  0  0  0
   -2.0996   -0.4354   -0.1019 H   0  0  0  0  0  0  0  0  0  0  0  0
   -0.0016   -0.2394    0.1271 C   0  0  1  0  0  0  0  0  0  0  0  0
    0.6995   -0.7619   -0.5275 H   0  0  0  0  0  0  0  0  0  0  0  0
   -0.2283    1.1832   -0.4215 C   0  0  0  0  0  0  0  0  0  0  0  0
   -1.2780    1.3052   -0.6913 H   0  0  0  0  0  0  0  0  0  0  0  0
    0.0065    1.9164    0.3509 H   0  0  0  0  0  0  0  0  0  0  0  0
    0.5922    1.4898   -1.6708 C   0  0  0  0  0  0  0  0  0  0  0  0
    1.5456    0.8372   -2.0750 O   0  0  0  0  0  0  0  0  0  0  0  0
    0.2008    2.5850   -2.3485 O   0  0  0  0  0  0  0  0  0  0  0  0
    0.7812    2.6451   -3.1079 H   0  0  0  0  0  0  0  0  0  0  0  0
    0.5920   -0.2154    1.5497 C   0  0  0  0  0  0  0  0  0  0  0  0
    1.7860   -0.4596    1.7183 O   0  0  0  0  0  0  0  0  0  0  0  0
   -0.2294    0.0669    2.5672 N   0  0  0  0  0  0  0  0  0  0  0  0
   -1.2130    0.1938    2.3518 H   0  0  0  0  0  0  0  0  0  0  0  0
    0.1836    0.1337    3.9673 C   0  0  0  0  0  0  0  0  0  0  0  0
    1.0451    0.7976    4.0666 H   0  0  0  0  0  0  0  0  0  0  0  0
   -0.6344    0.5115    4.5820 H   0  0  0  0  0  0  0  0  0  0  0  0
    0.4676   -0.8609    4.3157 H   0  0  0  0  0  0  0  0  0  0  0  0
  5  6  2  0  0  0  0
  5  7  1  0  0  0  0
  2  3  1  0  0  0  0
  2  4  1  0  0  0  0
  2  5  1  0  0  0  0
  1  2  1  0  0  0  0
 18 19  2  0  0  0  0
 18 20  1  0  0  0  0
 16 17  1  0  0  0  0
 14 15  2  0  0  0  0
 14 16  1  0  0  0  0
 11 12  1  0  0  0  0
 11 13  1  0  0  0  0
 11 14  1  0  0  0  0
  9 10  1  0  0  0  0
  9 11  1  0  0  0  0
  9 18  1  0  0  0  0
  7  8  1  0  0  0  0
  7  9  1  0  0  0  0
 22 23  1  0  0  0  0
 22 24  1  0  0  0  0
 22 25  1  0  0  0  0
 20 21  1  0  0  0  0
 20 22  1  0  0  0  0
M  END
$$$$
default_name
  -OEChem-02102213163D

 25 24  0     1  0  0  0  0  0999 V2000
   -2.7826   -3.8464    0.7821 H   0  0  0  0  0  0  0  0  0  0  0  0
   -2.8156   -2.8034    0.4711 C   0  0  0  0  0  0  0  0  0  0  0  0
   -3.4336   -2.2354    1.1641 H   0  0  0  0  0  0  0  0  0  0  0  0
   -3.2256   -2.7344   -0.5349 H   0  0  0  0  0  0  0  0  0  0  0  0
   -1.4126   -2.2444    0.4801 C   0  0  0  0  0  0  0  0  0  0  0  0
   -0.4686   -2.9534    0.8001 O   0  0  0  0  0  0  0  0  0  0  0  0
   -1.2736   -0.9704    0.1241 N   0  0  0  0  0  0  0  0  0  0  0  0
   -2.0996   -0.4354   -0.1019 H   0  0  0  0  0  0  0  0  0  0  0  0
   -0.0016   -0.2394    0.1271 C   0  0  1  0  0  0  0  0  0  0  0  0
    0.6995   -0.7619   -0.5275 H   0  0  0  0  0  0  0  0  0  0  0  0
   -0.2283    1.1832   -0.4215 C   0  0  0  0  0  0  0  0  0  0  0  0
   -1.2780    1.3052   -0.6913 H   0  0  0  0  0  0  0  0  0  0  0  0
    0.0065    1.9164    0.3509 H   0  0  0  0  0  0  0  0  0  0  0  0
    0.5922    1.4898   -1.6708 C   0  0  0  0  0  0  0  0  0  0  0  0
    1.3669    0.7186   -2.2215 O   0  0  0  0  0  0  0  0  0  0  0  0
    0.4213    2.7288   -2.1684 O   0  0  0  0  0  0  0  0  0  0  0  0
    0.9726    2.7760   -2.9501 H   0  0  0  0  0  0  0  0  0  0  0  0
    0.5920   -0.2154    1.5497 C   0  0  0  0  0  0  0  0  0  0  0  0
    1.7860   -0.4596    1.7183 O   0  0  0  0  0  0  0  0  0  0  0  0
   -0.2294    0.0669    2.5672 N   0  0  0  0  0  0  0  0  0  0  0  0
   -1.2130    0.1938    2.3518 H   0  0  0  0  0  0  0  0  0  0  0  0
    0.1836    0.1337    3.9673 C   0  0  0  0  0  0  0  0  0  0  0  0
    1.0451    0.7976    4.0666 H   0  0  0  0  0  0  0  0  0  0  0  0
   -0.6344    0.5115    4.5820 H   0  0  0  0  0  0  0  0  0  0  0  0
    0.4676   -0.8609    4.3157 H   0  0  0  0  0  0  0  0  0  0  0  0
  5  6  2  0  0  0  0
  5  7  1  0  0  0  0
  2  3  1  0  0  0  0
  2  4  1  0  0  0  0
  2  5  1  0  0  0  0
  1  2  1  0  0  0  0
 18 19  2  0  0  0  0
 18 20  1  0  0  0  0
 16 17  1  0  0  0  0
 14 15  2  0  0  0  0
 14 16  1  0  0  0  0
 11 12  1  0  0  0  0
 11 13  1  0  0  0  0
 11 14  1  0  0  0  0
  9 10  1  0  0  0  0
  9 11  1  0  0  0  0
  9 18  1  0  0  0  0
  7  8  1  0  0  0  0
  7  9  1  0  0  0  0
 22 23  1  0  0  0  0
 22 24  1  0  0  0  0
 22 25  1  0  0  0  0
 20 21  1  0  0  0  0
 20 22  1  0  0  0  0
M  END
$$$$
default_name
  -OEChem-02102213163D

 25 24  0     1  0  0  0  0  0999 V2000
   -2.7826   -3.8464    0.7821 H   0  0  0  0  0  0  0  0  0  0  0  0
   -2.8156   -2.8034    0.4711 C   0  0  0  0  0  0  0  0  0  0  0  0
   -3.4336   -2.2354    1.1641 H   0  0  0  0  0  0  0  0  0  0  0  0
   -3.2256   -2.7344   -0.5349 H   0  0  0  0  0  0  0  0  0  0  0  0
   -1.4126   -2.2444    0.4801 C   0  0  0  0  0  0  0  0  0  0  0  0
   -0.4686   -2.9534    0.8001 O   0  0  0  0  0  0  0  0  0  0  0  0
   -1.2736   -0.9704    0.1241 N   0  0  0  0  0  0  0  0  0  0  0  0
   -2.0996   -0.4354   -0.1019 H   0  0  0  0  0  0  0  0  0  0  0  0
   -0.0016   -0.2394    0.1271 C   0  0  1  0  0  0  0  0  0  0  0  0
    0.6995   -0.7619   -0.5275 H   0  0  0  0  0  0  0  0  0  0  0  0
   -0.2283    1.1832   -0.4215 C   0  0  0  0  0  0  0  0  0  0  0  0
   -1.2780    1.3052   -0.6913 H   0  0  0  0  0  0  0  0  0  0  0  0
    0.0065    1.9164    0.3509 H   0  0  0  0  0  0  0  0  0  0  0  0
    0.5922    1.4898   -1.6708 C   0  0  0  0  0  0  0  0  0  0  0  0
    1.1615    0.6622   -2.3702 O   0  0  0  0  0  0  0  0  0  0  0  0
    0.6742    2.7959   -1.9858 O   0  0  0  0  0  0  0  0  0  0  0  0
    1.1933    2.8400   -2.7894 H   0  0  0  0  0  0  0  0  0  0  0  0
    0.5920   -0.2154    1.5497 C   0  0  0  0  0  0  0  0  0  0  0  0
    1.7860   -0.4596    1.7183 O   0  0  0  0  0  0  0  0  0  0  0  0
   -0.2294    0.0669    2.5672 N   0  0  0  0  0  0  0  0  0  0  0  0
   -1.2130    0.1938    2.3518 H   0  0  0  0  0  0  0  0  0  0  0  0
    0.1836    0.1337    3.9673 C   0  0  0  0  0  0  0  0  0  0  0  0
    1.0451    0.7976    4.0666 H   0  0  0  0  0  0  0  0  0  0  0  0
   -0.6344    0.5115    4.5820 H   0  0  0  0  0  0  0  0  0  0  0  0
    0.4676   -0.8609    4.3157 H   0  0  0  0  0  0  0  0  0  0  0  0
  5  6  2  0  0  0  0
  5  7  1  0  0  0  0
  2  3  1  0  0  0  0
  2  4  1  0  0  0  0
  2  5  1  0  0  0  0
  1  2  1  0  0  0  0
 18 19  2  0  0  0  0
 18 20  1  0  0  0  0
 16 17  1  0  0  0  0
 14 15  2  0  0  0  0
 14 16  1  0  0  0  0
 11 12  1  0  0  0  0
 11 13  1  0  0  0  0
 11 14  1  0  0  0  0
  9 10  1  0  0  0  0
  9 11  1  0  0  0  0
  9 18  1  0  0  0  0
  7  8  1  0  0  0  0
  7  9  1  0  0  0  0
 22 23  1  0  0  0  0
 22 24  1  0  0  0  0
 22 25  1  0  0  0  0
 20 21  1  0  0  0  0
 20 22  1  0  0  0  0
M  END
$$$$
default_name
  -OEChem-02102213163D

 25 24  0     1  0  0  0  0  0999 V2000
   -2.7826   -3.8464    0.7821 H   0  0  0  0  0  0  0  0  0  0  0  0
   -2.8156   -2.8034    0.4711 C   0  0  0  0  0  0  0  0  0  0  0  0
   -3.4336   -2.2354    1.1641 H   0  0  0  0  0  0  0  0  0  0  0  0
   -3.2256   -2.7344   -0.5349 H   0  0  0  0  0  0  0  0  0  0  0  0
   -1.4126   -2.2444    0.4801 C   0  0  0  0  0  0  0  0  0  0  0  0
   -0.4686   -2.9534    0.8001 O   0  0  0  0  0  0  0  0  0  0  0  0
   -1.2736   -0.9704    0.1241 N   0  0  0  0  0  0  0  0  0  0  0  0
   -2.0996   -0.4354   -0.1019 H   0  0  0  0  0  0  0  0  0  0  0  0
   -0.0016   -0.2394    0.1271 C   0  0  1  0  0  0  0  0  0  0  0  0
    0.6995   -0.7619   -0.5275 H   0  0  0  0  0  0  0  0  0  0  0  0
   -0.2283    1.1832   -0.4215 C   0  0  0  0  0  0  0  0  0  0  0  0
   -1.2780    1.3052   -0.6913 H   0  0  0  0  0  0  0  0  0  0  0  0
    0.0065    1.9164    0.3509 H   0  0  0  0  0  0  0  0  0  0  0  0
    0.5922    1.4898   -1.6708 C   0  0  0  0  0  0  0  0  0  0  0  0
    0.9434    0.6720   -2.5111 O   0  0  0  0  0  0  0  0  0  0  0  0
    0.9421    2.7818   -1.8133 O   0  0  0  0  0  0  0  0  0  0  0  0
    1.4285    2.8326   -2.6368 H   0  0  0  0  0  0  0  0  0  0  0  0
    0.5920   -0.2154    1.5497 C   0  0  0  0  0  0  0  0  0  0  0  0
    1.7860   -0.4596    1.7183 O   0  0  0  0  0  0  0  0  0  0  0  0
   -0.2294    0.0669    2.5672 N   0  0  0  0  0  0  0  0  0  0  0  0
   -1.2130    0.1938    2.3518 H   0  0  0  0  0  0  0  0  0  0  0  0
    0.1836    0.1337    3.9673 C   0  0  0  0  0  0  0  0  0  0  0  0
    1.0451    0.7976    4.0666 H   0  0  0  0  0  0  0  0  0  0  0  0
   -0.6344    0.5115    4.5820 H   0  0  0  0  0  0  0  0  0  0  0  0
    0.4676   -0.8609    4.3157 H   0  0  0  0  0  0  0  0  0  0  0  0
  5  6  2  0  0  0  0
  5  7  1  0  0  0  0
  2  3  1  0  0  0  0
  2  4  1  0  0  0  0
  2  5  1  0  0  0  0
  1  2  1  0  0  0  0
 18 19  2  0  0  0  0
 18 20  1  0  0  0  0
 16 17  1  0  0  0  0
 14 15  2  0  0  0  0
 14 16  1  0  0  0  0
 11 12  1  0  0  0  0
 11 13  1  0  0  0  0
 11 14  1  0  0  0  0
  9 10  1  0  0  0  0
  9 11  1  0  0  0  0
  9 18  1  0  0  0  0
  7  8  1  0  0  0  0
  7  9  1  0  0  0  0
 22 23  1  0  0  0  0
 22 24  1  0  0  0  0
 22 25  1  0  0  0  0
 20 21  1  0  0  0  0
 20 22  1  0  0  0  0
M  END
$$$$
default_name
  -OEChem-02102213163D

 25 24  0     1  0  0  0  0  0999 V2000
   -2.7826   -3.8464    0.7821 H   0  0  0  0  0  0  0  0  0  0  0  0
   -2.8156   -2.8034    0.4711 C   0  0  0  0  0  0  0  0  0  0  0  0
   -3.4336   -2.2354    1.1641 H   0  0  0  0  0  0  0  0  0  0  0  0
   -3.2256   -2.7344   -0.5349 H   0  0  0  0  0  0  0  0  0  0  0  0
   -1.4126   -2.2444    0.4801 C   0  0  0  0  0  0  0  0  0  0  0  0
   -0.4686   -2.9534    0.8001 O   0  0  0  0  0  0  0  0  0  0  0  0
   -1.2736   -0.9704    0.1241 N   0  0  0  0  0  0  0  0  0  0  0  0
   -2.0996   -0.4354   -0.1019 H   0  0  0  0  0  0  0  0  0  0  0  0
   -0.0016   -0.2394    0.1271 C   0  0  1  0  0  0  0  0  0  0  0  0
    0.6995   -0.7619   -0.5275 H   0  0  0  0  0  0  0  0  0  0  0  0
   -0.2283    1.1832   -0.4215 C   0  0  0  0  0  0  0  0  0  0  0  0
   -1.2780    1.3052   -0.6913 H   0  0  0  0  0  0  0  0  0  0  0  0
    0.0065    1.9164    0.3509 H   0  0  0  0  0  0  0  0  0  0  0  0
    0.5922    1.4898   -1.6708 C   0  0  0  0  0  0  0  0  0  0  0  0
    0.7274    0.7472   -2.6344 O   0  0  0  0  0  0  0  0  0  0  0  0
    1.2069    2.6873   -1.6626 O   0  0  0  0  0  0  0  0  0  0  0  0
    1.6620    2.7544   -2.5026 H   0  0  0  0  0  0  0  0  0  0  0  0
    0.5920   -0.2154    1.5497 C   0  0  0  0  0  0  0  0  0  0  0  0
    1.7860   -0.4596    1.7183 O   0  0  0  0  0  0  0  0  0  0  0  0
   -0.2294    0.0669    2.5672 N   0  0  0  0  0  0  0  0  0  0  0  0
   -1.2130    0.1938    2.3518 H   0  0  0  0  0  0  0  0  0  0  0  0
    0.1836    0.1337    3.9673 C   0  0  0  0  0  0  0  0  0  0  0  0
    1.0451    0.7976    4.0666 H   0  0  0  0  0  0  0  0  0  0  0  0
   -0.6344    0.5115    4.5820 H   0  0  0  0  0  0  0  0  0  0  0  0
    0.4676   -0.8609    4.3157 H   0  0  0  0  0  0  0  0  0  0  0  0
  5  6  2  0  0  0  0
  5  7  1  0  0  0  0
  2  3  1  0  0  0  0
  2  4  1  0  0  0  0
  2  5  1  0  0  0  0
  1  2  1  0  0  0  0
 18 19  2  0  0  0  0
 18 20  1  0  0  0  0
 16 17  1  0  0  0  0
 14 15  2  0  0  0  0
 14 16  1  0  0  0  0
 11 12  1  0  0  0  0
 11 13  1  0  0  0  0
 11 14  1  0  0  0  0
  9 10  1  0  0  0  0
  9 11  1  0  0  0  0
  9 18  1  0  0  0  0
  7  8  1  0  0  0  0
  7  9  1  0  0  0  0
 22 23  1  0  0  0  0
 22 24  1  0  0  0  0
 22 25  1  0  0  0  0
 20 21  1  0  0  0  0
 20 22  1  0  0  0  0
M  END
$$$$
default_name
  -OEChem-02102213163D

 25 24  0     1  0  0  0  0  0999 V2000
   -2.7826   -3.8464    0.7821 H   0  0  0  0  0  0  0  0  0  0  0  0
   -2.8156   -2.8034    0.4711 C   0  0  0  0  0  0  0  0  0  0  0  0
   -3.4336   -2.2354    1.1641 H   0  0  0  0  0  0  0  0  0  0  0  0
   -3.2256   -2.7344   -0.5349 H   0  0  0  0  0  0  0  0  0  0  0  0
   -1.4126   -2.2444    0.4801 C   0  0  0  0  0  0  0  0  0  0  0  0
   -0.4686   -2.9534    0.8001 O   0  0  0  0  0  0  0  0  0  0  0  0
   -1.2736   -0.9704    0.1241 N   0  0  0  0  0  0  0  0  0  0  0  0
   -2.0996   -0.4354   -0.1019 H   0  0  0  0  0  0  0  0  0  0  0  0
   -0.0016   -0.2394    0.1271 C   0  0  1  0  0  0  0  0  0  0  0  0
    0.6995   -0.7619   -0.5275 H   0  0  0  0  0  0  0  0  0  0  0  0
   -0.2283    1.1832   -0.4215 C   0  0  0  0  0  0  0  0  0  0  0  0
   -1.2780    1.3052   -0.6913 H   0  0  0  0  0  0  0  0  0  0  0  0
    0.0065    1.9164    0.3509 H   0  0  0  0  0  0  0  0  0  0  0  0
    0.5922    1.4898   -1.6708 C   0  0  0  0  0  0  0  0  0  0  0  0
    0.5284    0.8829   -2.7318 O   0  0  0  0  0  0  0  0  0  0  0  0
    1.4505    2.5189   -1.5439 O   0  0  0  0  0  0  0  0  0  0  0  0
    1.8779    2.6107   -2.3961 H   0  0  0  0  0  0  0  0  0  0  0  0
    0.5920   -0.2154    1.5497 C   0  0  0  0  0  0  0  0  0  0  0  0
    1.7860   -0.4596    1.7183 O   0  0  0  0  0  0  0  0  0  0  0  0
   -0.2294    0.0669    2.5672 N   0  0  0  0  0  0  0  0  0  0  0  0
   -1.2130    0.1938    2.3518 H   0  0  0  0  0  0  0  0  0  0  0  0
    0.1836    0.1337    3.9673 C   0  0  0  0  0  0  0  0  0  0  0  0
    1.0451    0.7976    4.0666 H   0  0  0  0  0  0  0  0  0  0  0  0
   -0.6344    0.5115    4.5820 H   0  0  0  0  0  0  0  0  0  0  0  0
    0.4676   -0.8609    4.3157 H   0  0  0  0  0  0  0  0  0  0  0  0
  5  6  2  0  0  0  0
  5  7  1  0  0  0  0
  2  3  1  0  0  0  0
  2  4  1  0  0  0  0
  2  5  1  0  0  0  0
  1  2  1  0  0  0  0
 18 19  2  0  0  0  0
 18 20  1  0  0  0  0
 16 17  1  0  0  0  0
 14 15  2  0  0  0  0
 14 16  1  0  0  0  0
 11 12  1  0  0  0  0
 11 13  1  0  0  0  0
 11 14  1  0  0  0  0
  9 10  1  0  0  0  0
  9 11  1  0  0  0  0
  9 18  1  0  0  0  0
  7  8  1  0  0  0  0
  7  9  1  0  0  0  0
 22 23  1  0  0  0  0
 22 24  1  0  0  0  0
 22 25  1  0  0  0  0
 20 21  1  0  0  0  0
 20 22  1  0  0  0  0
M  END
$$$$
default_name
  -OEChem-02102213163D

 25 24  0     1  0  0  0  0  0999 V2000
   -2.7826   -3.8464    0.7821 H   0  0  0  0  0  0  0  0  0  0  0  0
   -2.8156   -2.8034    0.4711 C   0  0  0  0  0  0  0  0  0  0  0  0
   -3.4336   -2.2354    1.1641 H   0  0  0  0  0  0  0  0  0  0  0  0
   -3.2256   -2.7344   -0.5349 H   0  0  0  0  0  0  0  0  0  0  0  0
   -1.4126   -2.2444    0.4801 C   0  0  0  0  0  0  0  0  0  0  0  0
   -0.4686   -2.9534    0.8001 O   0  0  0  0  0  0  0  0  0  0  0  0
   -1.2736   -0.9704    0.1241 N   0  0  0  0  0  0  0  0  0  0  0  0
   -2.0996   -0.4354   -0.1019 H   0  0  0  0  0  0  0  0  0  0  0  0
   -0.0016   -0.2394    0.1271 C   0  0  1  0  0  0  0  0  0  0  0  0
    0.6995   -0.7619   -0.5275 H   0  0  0  0  0  0  0  0  0  0  0  0
   -0.2283    1.1832   -0.4215 C   0  0  0  0  0  0  0  0  0  0  0  0
   -1.2780    1.3052   -0.6913 H   0  0  0  0  0  0  0  0  0  0  0  0
    0.0065    1.9164    0.3509 H   0  0  0  0  0  0  0  0  0  0  0  0
    0.5922    1.4898   -1.6708 C   0  0  0  0  0  0  0  0  0  0  0  0
    0.3598    1.0696   -2.7967 O   0  0  0  0  0  0  0  0  0  0  0  0
    1.6563    2.2882   -1.4654 O   0  0  0  0  0  0  0  0  0  0  0  0
    2.0616    2.4113   -2.3243 H   0  0  0  0  0  0  0  0  0  0  0  0
    0.5920   -0.2154    1.5497 C   0  0  0  0  0  0  0  0  0  0  0  0
    1.7860   -0.4596    1.7183 O   0  0  0  0  0  0  0  0  0  0  0  0
   -0.2294    0.0669    2.5672 N   0  0  0  0  0  0  0  0  0  0  0  0
   -1.2130    0.1938    2.3518 H   0  0  0  0  0  0  0  0  0  0  0  0
    0.1836    0.1337    3.9673 C   0  0  0  0  0  0  0  0  0  0  0  0
    1.0451    0.7976    4.0666 H   0  0  0  0  0  0  0  0  0  0  0  0
   -0.6344    0.5115    4.5820 H   0  0  0  0  0  0  0  0  0  0  0  0
    0.4676   -0.8609    4.3157 H   0  0  0  0  0  0  0  0  0  0  0  0
  5  6  2  0  0  0  0
  5  7  1  0  0  0  0
  2  3  1  0  0  0  0
  2  4  1  0  0  0  0
  2  5  1  0  0  0  0
  1  2  1  0  0  0  0
 18 19  2  0  0  0  0
 18 20  1  0  0  0  0
 16 17  1  0  0  0  0
 14 15  2  0  0  0  0
 14 16  1  0  0  0  0
 11 12  1  0  0  0  0
 11 13  1  0  0  0  0
 11 14  1  0  0  0  0
  9 10  1  0  0  0  0
  9 11  1  0  0  0  0
  9 18  1  0  0  0  0
  7  8  1  0  0  0  0
  7  9  1  0  0  0  0
 22 23  1  0  0  0  0
 22 24  1  0  0  0  0
 22 25  1  0  0  0  0
 20 21  1  0  0  0  0
 20 22  1  0  0  0  0
M  END
$$$$
default_name
  -OEChem-02102213163D

 25 24  0     1  0  0  0  0  0999 V2000
   -2.7826   -3.8464    0.7821 H   0  0  0  0  0  0  0  0  0  0  0  0
   -2.8156   -2.8034    0.4711 C   0  0  0  0  0  0  0  0  0  0  0  0
   -3.4336   -2.2354    1.1641 H   0  0  0  0  0  0  0  0  0  0  0  0
   -3.2256   -2.7344   -0.5349 H   0  0  0  0  0  0  0  0  0  0  0  0
   -1.4126   -2.2444    0.4801 C   0  0  0  0  0  0  0  0  0  0  0  0
   -0.4686   -2.9534    0.8001 O   0  0  0  0  0  0  0  0  0  0  0  0
   -1.2736   -0.9704    0.1241 N   0  0  0  0  0  0  0  0  0  0  0  0
   -2.0996   -0.4354   -0.1019 H   0  0  0  0  0  0  0  0  0  0  0  0
   -0.0016   -0.2394    0.1271 C   0  0  1  0  0  0  0  0  0  0  0  0
    0.6995   -0.7619   -0.5275 H   0  0  0  0  0  0  0  0  0  0  0  0
   -0.2283    1.1832   -0.4215 C   0  0  0  0  0  0  0  0  0  0  0  0
   -1.2780    1.3052   -0.6913 H   0  0  0  0  0  0  0  0  0  0  0  0
    0.0065    1.9164    0.3509 H   0  0  0  0  0  0  0  0  0  0  0  0
    0.5922    1.4898   -1.6708 C   0  0  0  0  0  0  0  0  0  0  0  0
    0.2332    1.2948   -2.8246 O   0  0  0  0  0  0  0  0  0  0  0  0
    1.8103    2.0107   -1.4324 O   0  0  0  0  0  0  0  0  0  0  0  0
    2.2005    2.1698   -2.2924 H   0  0  0  0  0  0  0  0  0  0  0  0
    0.5920   -0.2154    1.5497 C   0  0  0  0  0  0  0  0  0  0  0  0
    1.7860   -0.4596    1.7183 O   0  0  0  0  0  0  0  0  0  0  0  0
   -0.2294    0.0669    2.5672 N   0  0  0  0  0  0  0  0  0  0  0  0
   -1.2130    0.1938    2.3518 H   0  0  0  0  0  0  0  0  0  0  0  0
    0.1836    0.1337    3.9673 C   0  0  0  0  0  0  0  0  0  0  0  0
    1.0451    0.7976    4.0666 H   0  0  0  0  0  0  0  0  0  0  0  0
   -0.6344    0.5115    4.5820 H   0  0  0  0  0  0  0  0  0  0  0  0
    0.4676   -0.8609    4.3157 H   0  0  0  0  0  0  0  0  0  0  0  0
  5  6  2  0  0  0  0
  5  7  1  0  0  0  0
  2  3  1  0  0  0  0
  2  4  1  0  0  0  0
  2  5  1  0  0  0  0
  1  2  1  0  0  0  0
 18 19  2  0  0  0  0
 18 20  1  0  0  0  0
 16 17  1  0  0  0  0
 14 15  2  0  0  0  0
 14 16  1  0  0  0  0
 11 12  1  0  0  0  0
 11 13  1  0  0  0  0
 11 14  1  0  0  0  0
  9 10  1  0  0  0  0
  9 11  1  0  0  0  0
  9 18  1  0  0  0  0
  7  8  1  0  0  0  0
  7  9  1  0  0  0  0
 22 23  1  0  0  0  0
 22 24  1  0  0  0  0
 22 25  1  0  0  0  0
 20 21  1  0  0  0  0
 20 22  1  0  0  0  0
M  END
$$$$
default_name
  -OEChem-02102213163D

 25 24  0     1  0  0  0  0  0999 V2000
   -2.7826   -3.8464    0.7821 H   0  0  0  0  0  0  0  0  0  0  0  0
   -2.8156   -2.8034    0.4711 C   0  0  0  0  0  0  0  0  0  0  0  0
   -3.4336   -2.2354    1.1641 H   0  0  0  0  0  0  0  0  0  0  0  0
   -3.2256   -2.7344   -0.5349 H   0  0  0  0  0  0  0  0  0  0  0  0
   -1.4126   -2.2444    0.4801 C   0  0  0  0  0  0  0  0  0  0  0  0
   -0.4686   -2.9534    0.8001 O   0  0  0  0  0  0  0  0  0  0  0  0
   -1.2736   -0.9704    0.1241 N   0  0  0  0  0  0  0  0  0  0  0  0
   -2.0996   -0.4354   -0.1019 H   0  0  0  0  0  0  0  0  0  0  0  0
   -0.0016   -0.2394    0.1271 C   0  0  1  0  0  0  0  0  0  0  0  0
    0.6995   -0.7619   -0.5275 H   0  0  0  0  0  0  0  0  0  0  0  0
   -0.2283    1.1832   -0.4215 C   0  0  0  0  0  0  0  0  0  0  0  0
   -1.2780    1.3052   -0.6913 H   0  0  0  0  0  0  0  0  0  0  0  0
    0.0065    1.9164    0.3509 H   0  0  0  0  0  0  0  0  0  0  0  0
    0.5922    1.4898   -1.6708 C   0  0  0  0  0  0  0  0  0  0  0  0
    0.1571    1.5430   -2.8137 O   0  0  0  0  0  0  0  0  0  0  0  0
    1.9019    1.7055   -1.4471 O   0  0  0  0  0  0  0  0  0  0  0  0
    2.2852    1.9027   -2.3024 H   0  0  0  0  0  0  0  0  0  0  0  0
    0.5920   -0.2154    1.5497 C   0  0  0  0  0  0  0  0  0  0  0  0
    1.7860   -0.4596    1.7183 O   0  0  0  0  0  0  0  0  0  0  0  0
   -0.2294    0.0669    2.5672 N   0  0  0  0  0  0  0  0  0  0  0  0
   -1.2130    0.1938    2.3518 H   0  0  0  0  0  0  0  0  0  0  0  0
    0.1836    0.1337    3.9673 C   0  0  0  0  0  0  0  0  0  0  0  0
    1.0451    0.7976    4.0666 H   0  0  0  0  0  0  0  0  0  0  0  0
   -0.6344    0.5115    4.5820 H   0  0  0  0  0  0  0  0  0  0  0  0
    0.4676   -0.8609    4.3157 H   0  0  0  0  0  0  0  0  0  0  0  0
  5  6  2  0  0  0  0
  5  7  1  0  0  0  0
  2  3  1  0  0  0  0
  2  4  1  0  0  0  0
  2  5  1  0  0  0  0
  1  2  1  0  0  0  0
 18 19  2  0  0  0  0
 18 20  1  0  0  0  0
 16 17  1  0  0  0  0
 14 15  2  0  0  0  0
 14 16  1  0  0  0  0
 11 12  1  0  0  0  0
 11 13  1  0  0  0  0
 11 14  1  0  0  0  0
  9 10  1  0  0  0  0
  9 11  1  0  0  0  0
  9 18  1  0  0  0  0
  7  8  1  0  0  0  0
  7  9  1  0  0  0  0
 22 23  1  0  0  0  0
 22 24  1  0  0  0  0
 22 25  1  0  0  0  0
 20 21  1  0  0  0  0
 20 22  1  0  0  0  0
M  END
$$$$
default_name
  -OEChem-02102213163D

 25 24  0     1  0  0  0  0  0999 V2000
   -2.7826   -3.8464    0.7821 H   0  0  0  0  0  0  0  0  0  0  0  0
   -2.8156   -2.8034    0.4711 C   0  0  0  0  0  0  0  0  0  0  0  0
   -3.4336   -2.2354    1.1641 H   0  0  0  0  0  0  0  0  0  0  0  0
   -3.2256   -2.7344   -0.5349 H   0  0  0  0  0  0  0  0  0  0  0  0
   -1.4126   -2.2444    0.4801 C   0  0  0  0  0  0  0  0  0  0  0  0
   -0.4686   -2.9534    0.8001 O   0  0  0  0  0  0  0  0  0  0  0  0
   -1.2736   -0.9704    0.1241 N   0  0  0  0  0  0  0  0  0  0  0  0
   -2.0996   -0.4354   -0.1019 H   0  0  0  0  0  0  0  0  0  0  0  0
   -0.0016   -0.2394    0.1271 C   0  0  1  0  0  0  0  0  0  0  0  0
    0.6995   -0.7619   -0.5275 H   0  0  0  0  0  0  0  0  0  0  0  0
   -0.2283    1.1832   -0.4215 C   0  0  0  0  0  0  0  0  0  0  0  0
   -1.2780    1.3052   -0.6913 H   0  0  0  0  0  0  0  0  0  0  0  0
    0.0065    1.9164    0.3509 H   0  0  0  0  0  0  0  0  0  0  0  0
    0.5922    1.4898   -1.6708 C   0  0  0  0  0  0  0  0  0  0  0  0
    0.1368    1.7973   -2.7646 O   0  0  0  0  0  0  0  0  0  0  0  0
    1.9250    1.3933   -1.5086 O   0  0  0  0  0  0  0  0  0  0  0  0
    2.3098    1.6281   -2.3536 H   0  0  0  0  0  0  0  0  0  0  0  0
    0.5920   -0.2154    1.5497 C   0  0  0  0  0  0  0  0  0  0  0  0
    1.7860   -0.4596    1.7183 O   0  0  0  0  0  0  0  0  0  0  0  0
   -0.2294    0.0669    2.5672 N   0  0  0  0  0  0  0  0  0  0  0  0
   -1.2130    0.1938    2.3518 H   0  0  0  0  0  0  0  0  0  0  0  0
    0.1836    0.1337    3.9673 C   0  0  0  0  0  0  0  0  0  0  0  0
    1.0451    0.7976    4.0666 H   0  0  0  0  0  0  0  0  0  0  0  0
   -0.6344    0.5115    4.5820 H   0  0  0  0  0  0  0  0  0  0  0  0
    0.4676   -0.8609    4.3157 H   0  0  0  0  0  0  0  0  0  0  0  0
  5  6  2  0  0  0  0
  5  7  1  0  0  0  0
  2  3  1  0  0  0  0
  2  4  1  0  0  0  0
  2  5  1  0  0  0  0
  1  2  1  0  0  0  0
 18 19  2  0  0  0  0
 18 20  1  0  0  0  0
 16 17  1  0  0  0  0
 14 15  2  0  0  0  0
 14 16  1  0  0  0  0
 11 12  1  0  0  0  0
 11 13  1  0  0  0  0
 11 14  1  0  0  0  0
  9 10  1  0  0  0  0
  9 11  1  0  0  0  0
  9 18  1  0  0  0  0
  7  8  1  0  0  0  0
  7  9  1  0  0  0  0
 22 23  1  0  0  0  0
 22 24  1  0  0  0  0
 22 25  1  0  0  0  0
 20 21  1  0  0  0  0
 20 22  1  0  0  0  0
M  END
$$$$
default_name
  -OEChem-02102213163D

 25 24  0     1  0  0  0  0  0999 V2000
   -2.7826   -3.8464    0.7821 H   0  0  0  0  0  0  0  0  0  0  0  0
   -2.8156   -2.8034    0.4711 C   0  0  0  0  0  0  0  0  0  0  0  0
   -3.4336   -2.2354    1.1641 H   0  0  0  0  0  0  0  0  0  0  0  0
   -3.2256   -2.7344   -0.5349 H   0  0  0  0  0  0  0  0  0  0  0  0
   -1.4126   -2.2444    0.4801 C   0  0  0  0  0  0  0  0  0  0  0  0
   -0.4686   -2.9534    0.8001 O   0  0  0  0  0  0  0  0  0  0  0  0
   -1.2736   -0.9704    0.1241 N   0  0  0  0  0  0  0  0  0  0  0  0
   -2.0996   -0.4354   -0.1019 H   0  0  0  0  0  0  0  0  0  0  0  0
   -0.0016   -0.2394    0.1271 C   0  0  1  0  0  0  0  0  0  0  0  0
    0.6995   -0.7619   -0.5275 H   0  0  0  0  0  0  0  0  0  0  0  0
   -0.2283    1.1832   -0.4215 C   0  0  0  0  0  0  0  0  0  0  0  0
   -1.2780    1.3052   -0.6913 H   0  0  0  0  0  0  0  0  0  0  0  0
    0.0065    1.9164    0.3509 H   0  0  0  0  0  0  0  0  0  0  0  0
    0.5922    1.4898   -1.6708 C   0  0  0  0  0  0  0  0  0  0  0  0
    0.1737    2.0404   -2.6807 O   0  0  0  0  0  0  0  0  0  0  0  0
    1.8779    1.0955   -1.6126 O   0  0  0  0  0  0  0  0  0  0  0  0
    2.2728    1.3647   -2.4426 H   0  0  0  0  0  0  0  0  0  0  0  0
    0.5920   -0.2154    1.5497 C   0  0  0  0  0  0  0  0  0  0  0  0
    1.7860   -0.4596    1.7183 O   0  0  0  0  0  0  0  0  0  0  0  0
   -0.2294    0.0669    2.5672 N   0  0  0  0  0  0  0  0  0  0  0  0
   -1.2130    0.1938    2.3518 H   0  0  0  0  0  0  0  0  0  0  0  0
    0.1836    0.1337    3.9673 C   0  0  0  0  0  0  0  0  0  0  0  0
    1.0451    0.7976    4.0666 H   0  0  0  0  0  0  0  0  0  0  0  0
   -0.6344    0.5115    4.5820 H   0  0  0  0  0  0  0  0  0  0  0  0
    0.4676   -0.8609    4.3157 H   0  0  0  0  0  0  0  0  0  0  0  0
  5  6  2  0  0  0  0
  5  7  1  0  0  0  0
  2  3  1  0  0  0  0
  2  4  1  0  0  0  0
  2  5  1  0  0  0  0
  1  2  1  0  0  0  0
 18 19  2  0  0  0  0
 18 20  1  0  0  0  0
 16 17  1  0  0  0  0
 14 15  2  0  0  0  0
 14 16  1  0  0  0  0
 11 12  1  0  0  0  0
 11 13  1  0  0  0  0
 11 14  1  0  0  0  0
  9 10  1  0  0  0  0
  9 11  1  0  0  0  0
  9 18  1  0  0  0  0
  7  8  1  0  0  0  0
  7  9  1  0  0  0  0
 22 23  1  0  0  0  0
 22 24  1  0  0  0  0
 22 25  1  0  0  0  0
 20 21  1  0  0  0  0
 20 22  1  0  0  0  0
M  END
$$$$
default_name
  -OEChem-02102213163D

 25 24  0     1  0  0  0  0  0999 V2000
   -2.7826   -3.8464    0.7821 H   0  0  0  0  0  0  0  0  0  0  0  0
   -2.8156   -2.8034    0.4711 C   0  0  0  0  0  0  0  0  0  0  0  0
   -3.4336   -2.2354    1.1641 H   0  0  0  0  0  0  0  0  0  0  0  0
   -3.2256   -2.7344   -0.5349 H   0  0  0  0  0  0  0  0  0  0  0  0
   -1.4126   -2.2444    0.4801 C   0  0  0  0  0  0  0  0  0  0  0  0
   -0.4686   -2.9534    0.8001 O   0  0  0  0  0  0  0  0  0  0  0  0
   -1.2736   -0.9704    0.1241 N   0  0  0  0  0  0  0  0  0  0  0  0
   -2.0996   -0.4354   -0.1019 H   0  0  0  0  0  0  0  0  0  0  0  0
   -0.0016   -0.2394    0.1271 C   0  0  1  0  0  0  0  0  0  0  0  0
    0.6995   -0.7619   -0.5275 H   0  0  0  0  0  0  0  0  0  0  0  0
   -0.2283    1.1832   -0.4215 C   0  0  0  0  0  0  0  0  0  0  0  0
   -1.2780    1.3052   -0.6913 H   0  0  0  0  0  0  0  0  0  0  0  0
    0.0065    1.9164    0.3509 H   0  0  0  0  0  0  0  0  0  0  0  0
    0.5922    1.4898   -1.6708 C   0  0  0  0  0  0  0  0  0  0  0  0
    0.2651    2.2558   -2.5678 O   0  0  0  0  0  0  0  0  0  0  0  0
    1.7639    0.8322   -1.7521 O   0  0  0  0  0  0  0  0  0  0  0  0
    2.1765    1.1306   -2.5632 H   0  0  0  0  0  0  0  0  0  0  0  0
    0.5920   -0.2154    1.5497 C   0  0  0  0  0  0  0  0  0  0  0  0
    1.7860   -0.4596    1.7183 O   0  0  0  0  0  0  0  0  0  0  0  0
   -0.2294    0.0669    2.5672 N   0  0  0  0  0  0  0  0  0  0  0  0
   -1.2130    0.1938    2.3518 H   0  0  0  0  0  0  0  0  0  0  0  0
    0.1836    0.1337    3.9673 C   0  0  0  0  0  0  0  0  0  0  0  0
    1.0451    0.7976    4.0666 H   0  0  0  0  0  0  0  0  0  0  0  0
   -0.6344    0.5115    4.5820 H   0  0  0  0  0  0  0  0  0  0  0  0
    0.4676   -0.8609    4.3157 H   0  0  0  0  0  0  0  0  0  0  0  0
  5  6  2  0  0  0  0
  5  7  1  0  0  0  0
  2  3  1  0  0  0  0
  2  4  1  0  0  0  0
  2  5  1  0  0  0  0
  1  2  1  0  0  0  0
 18 19  2  0  0  0  0
 18 20  1  0  0  0  0
 16 17  1  0  0  0  0
 14 15  2  0  0  0  0
 14 16  1  0  0  0  0
 11 12  1  0  0  0  0
 11 13  1  0  0  0  0
 11 14  1  0  0  0  0
  9 10  1  0  0  0  0
  9 11  1  0  0  0  0
  9 18  1  0  0  0  0
  7  8  1  0  0  0  0
  7  9  1  0  0  0  0
 22 23  1  0  0  0  0
 22 24  1  0  0  0  0
 22 25  1  0  0  0  0
 20 21  1  0  0  0  0
 20 22  1  0  0  0  0
M  END
$$$$
default_name
  -OEChem-02102213163D

 25 24  0     1  0  0  0  0  0999 V2000
   -2.7826   -3.8464    0.7821 H   0  0  0  0  0  0  0  0  0  0  0  0
   -2.8156   -2.8034    0.4711 C   0  0  0  0  0  0  0  0  0  0  0  0
   -3.4336   -2.2354    1.1641 H   0  0  0  0  0  0  0  0  0  0  0  0
   -3.2256   -2.7344   -0.5349 H   0  0  0  0  0  0  0  0  0  0  0  0
   -1.4126   -2.2444    0.4801 C   0  0  0  0  0  0  0  0  0  0  0  0
   -0.4686   -2.9534    0.8001 O   0  0  0  0  0  0  0  0  0  0  0  0
   -1.2736   -0.9704    0.1241 N   0  0  0  0  0  0  0  0  0  0  0  0
   -2.0996   -0.4354   -0.1019 H   0  0  0  0  0  0  0  0  0  0  0  0
   -0.0016   -0.2394    0.1271 C   0  0  1  0  0  0  0  0  0  0  0  0
    0.6995   -0.7619   -0.5275 H   0  0  0  0  0  0  0  0  0  0  0  0
   -0.2283    1.1832   -0.4215 C   0  0  0  0  0  0  0  0  0  0  0  0
   -1.2780    1.3052   -0.6913 H   0  0  0  0  0  0  0  0  0  0  0  0
    0.0065    1.9164    0.3509 H   0  0  0  0  0  0  0  0  0  0  0  0
    0.5922    1.4898   -1.6708 C   0  0  0  0  0  0  0  0  0  0  0  0
    0.4050    2.4287   -2.4335 O   0  0  0  0  0  0  0  0  0  0  0  0
    1.5907    0.6215   -1.9175 O   0  0  0  0  0  0  0  0  0  0  0  0
    2.0277    0.9416   -2.7074 H   0  0  0  0  0  0  0  0  0  0  0  0
    0.5920   -0.2154    1.5497 C   0  0  0  0  0  0  0  0  0  0  0  0
    1.7860   -0.4596    1.7183 O   0  0  0  0  0  0  0  0  0  0  0  0
   -0.2294    0.0669    2.5672 N   0  0  0  0  0  0  0  0  0  0  0  0
   -1.2130    0.1938    2.3518 H   0  0  0  0  0  0  0  0  0  0  0  0
    0.1836    0.1337    3.9673 C   0  0  0  0  0  0  0  0  0  0  0  0
    1.0451    0.7976    4.0666 H   0  0  0  0  0  0  0  0  0  0  0  0
   -0.6344    0.5115    4.5820 H   0  0  0  0  0  0  0  0  0  0  0  0
    0.4676   -0.8609    4.3157 H   0  0  0  0  0  0  0  0  0  0  0  0
  5  6  2  0  0  0  0
  5  7  1  0  0  0  0
  2  3  1  0  0  0  0
  2  4  1  0  0  0  0
  2  5  1  0  0  0  0
  1  2  1  0  0  0  0
 18 19  2  0  0  0  0
 18 20  1  0  0  0  0
 16 17  1  0  0  0  0
 14 15  2  0  0  0  0
 14 16  1  0  0  0  0
 11 12  1  0  0  0  0
 11 13  1  0  0  0  0
 11 14  1  0  0  0  0
  9 10  1  0  0  0  0
  9 11  1  0  0  0  0
  9 18  1  0  0  0  0
  7  8  1  0  0  0  0
  7  9  1  0  0  0  0
 22 23  1  0  0  0  0
 22 24  1  0  0  0  0
 22 25  1  0  0  0  0
 20 21  1  0  0  0  0
 20 22  1  0  0  0  0
M  END
$$$$
default_name
  -OEChem-02102213163D

 25 24  0     1  0  0  0  0  0999 V2000
   -2.7826   -3.8464    0.7821 H   0  0  0  0  0  0  0  0  0  0  0  0
   -2.8156   -2.8034    0.4711 C   0  0  0  0  0  0  0  0  0  0  0  0
   -3.4336   -2.2354    1.1641 H   0  0  0  0  0  0  0  0  0  0  0  0
   -3.2256   -2.7344   -0.5349 H   0  0  0  0  0  0  0  0  0  0  0  0
   -1.4126   -2.2444    0.4801 C   0  0  0  0  0  0  0  0  0  0  0  0
   -0.4686   -2.9534    0.8001 O   0  0  0  0  0  0  0  0  0  0  0  0
   -1.2736   -0.9704    0.1241 N   0  0  0  0  0  0  0  0  0  0  0  0
   -2.0996   -0.4354   -0.1019 H   0  0  0  0  0  0  0  0  0  0  0  0
   -0.0016   -0.2394    0.1271 C   0  0  1  0  0  0  0  0  0  0  0  0
    0.6995   -0.7619   -0.5275 H   0  0  0  0  0  0  0  0  0  0  0  0
   -0.2283    1.1832   -0.4215 C   0  0  0  0  0  0  0  0  0  0  0  0
   -1.2973    1.3988   -0.4404 H   0  0  0  0  0  0  0  0  0  0  0  0
    0.2487    1.9107    0.2361 H   0  0  0  0  0  0  0  0  0  0  0  0
    0.2910    1.3753   -1.8432 C   0  0  0  0  0  0  0  0  0  0  0  0
    0.2271    2.4118   -2.4911 O   0  0  0  0  0  0  0  0  0  0  0  0
    0.8518    0.2816   -2.3920 O   0  0  0  0  0  0  0  0  0  0  0  0
    1.1469    0.5472   -3.2636 H   0  0  0  0  0  0  0  0  0  0  0  0
    0.5920   -0.2154    1.5497 C   0  0  0  0  0  0  0  0  0  0  0  0
    1.7860   -0.4596    1.7183 O   0  0  0  0  0  0  0  0  0  0  0  0
   -0.2294    0.0669    2.5672 N   0  0  0  0  0  0  0  0  0  0  0  0
   -1.2130    0.1938    2.3518 H   0  0  0  0  0  0  0  0  0  0  0  0
    0.1836    0.1337    3.9673 C   0  0  0  0  0  0  0  0  0  0  0  0
    1.0451    0.7976    4.0666 H   0  0  0  0  0  0  0  0  0  0  0  0
   -0.6344    0.5115    4.5820 H   0  0  0  0  0  0  0  0  0  0  0  0
    0.4676   -0.8609    4.3157 H   0  0  0  0  0  0  0  0  0  0  0  0
  5  6  2  0  0  0  0
  5  7  1  0  0  0  0
  2  3  1  0  0  0  0
  2  4  1  0  0  0  0
  2  5  1  0  0  0  0
  1  2  1  0  0  0  0
 18 19  2  0  0  0  0
 18 20  1  0  0  0  0
 16 17  1  0  0  0  0
 14 15  2  0  0  0  0
 14 16  1  0  0  0  0
 11 12  1  0  0  0  0
 11 13  1  0  0  0  0
 11 14  1  0  0  0  0
  9 10  1  0  0  0  0
  9 11  1  0  0  0  0
  9 18  1  0  0  0  0
  7  8  1  0  0  0  0
  7  9  1  0  0  0  0
 22 23  1  0  0  0  0
 22 24  1  0  0  0  0
 22 25  1  0  0  0  0
 20 21  1  0  0  0  0
 20 22  1  0  0  0  0
M  END
$$$$
default_name
  -OEChem-02102213163D

 25 24  0     1  0  0  0  0  0999 V2000
   -2.7826   -3.8464    0.7821 H   0  0  0  0  0  0  0  0  0  0  0  0
   -2.8156   -2.8034    0.4711 C   0  0  0  0  0  0  0  0  0  0  0  0
   -3.4336   -2.2354    1.1641 H   0  0  0  0  0  0  0  0  0  0  0  0
   -3.2256   -2.7344   -0.5349 H   0  0  0  0  0  0  0  0  0  0  0  0
   -1.4126   -2.2444    0.4801 C   0  0  0  0  0  0  0  0  0  0  0  0
   -0.4686   -2.9534    0.8001 O   0  0  0  0  0  0  0  0  0  0  0  0
   -1.2736   -0.9704    0.1241 N   0  0  0  0  0  0  0  0  0  0  0  0
   -2.0996   -0.4354   -0.1019 H   0  0  0  0  0  0  0  0  0  0  0  0
   -0.0016   -0.2394    0.1271 C   0  0  1  0  0  0  0  0  0  0  0  0
    0.6995   -0.7619   -0.5275 H   0  0  0  0  0  0  0  0  0  0  0  0
   -0.2283    1.1832   -0.4215 C   0  0  0  0  0  0  0  0  0  0  0  0
   -1.2973    1.3988   -0.4404 H   0  0  0  0  0  0  0  0  0  0  0  0
    0.2487    1.9107    0.2361 H   0  0  0  0  0  0  0  0  0  0  0  0
    0.2910    1.3753   -1.8432 C   0  0  0  0  0  0  0  0  0  0  0  0
    0.4665    2.4521   -2.3983 O   0  0  0  0  0  0  0  0  0  0  0  0
    0.5576    0.2344   -2.5059 O   0  0  0  0  0  0  0  0  0  0  0  0
    0.8892    0.5006   -3.3640 H   0  0  0  0  0  0  0  0  0  0  0  0
    0.5920   -0.2154    1.5497 C   0  0  0  0  0  0  0  0  0  0  0  0
    1.7860   -0.4596    1.7183 O   0  0  0  0  0  0  0  0  0  0  0  0
   -0.2294    0.0669    2.5672 N   0  0  0  0  0  0  0  0  0  0  0  0
   -1.2130    0.1938    2.3518 H   0  0  0  0  0  0  0  0  0  0  0  0
    0.1836    0.1337    3.9673 C   0  0  0  0  0  0  0  0  0  0  0  0
    1.0451    0.7976    4.0666 H   0  0  0  0  0  0  0  0  0  0  0  0
   -0.6344    0.5115    4.5820 H   0  0  0  0  0  0  0  0  0  0  0  0
    0.4676   -0.8609    4.3157 H   0  0  0  0  0  0  0  0  0  0  0  0
  5  6  2  0  0  0  0
  5  7  1  0  0  0  0
  2  3  1  0  0  0  0
  2  4  1  0  0  0  0
  2  5  1  0  0  0  0
  1  2  1  0  0  0  0
 18 19  2  0  0  0  0
 18 20  1  0  0  0  0
 16 17  1  0  0  0  0
 14 15  2  0  0  0  0
 14 16  1  0  0  0  0
 11 12  1  0  0  0  0
 11 13  1  0  0  0  0
 11 14  1  0  0  0  0
  9 10  1  0  0  0  0
  9 11  1  0  0  0  0
  9 18  1  0  0  0  0
  7  8  1  0  0  0  0
  7  9  1  0  0  0  0
 22 23  1  0  0  0  0
 22 24  1  0  0  0  0
 22 25  1  0  0  0  0
 20 21  1  0  0  0  0
 20 22  1  0  0  0  0
M  END
$$$$
default_name
  -OEChem-02102213163D

 25 24  0     1  0  0  0  0  0999 V2000
   -2.7826   -3.8464    0.7821 H   0  0  0  0  0  0  0  0  0  0  0  0
   -2.8156   -2.8034    0.4711 C   0  0  0  0  0  0  0  0  0  0  0  0
   -3.4336   -2.2354    1.1641 H   0  0  0  0  0  0  0  0  0  0  0  0
   -3.2256   -2.7344   -0.5349 H   0  0  0  0  0  0  0  0  0  0  0  0
   -1.4126   -2.2444    0.4801 C   0  0  0  0  0  0  0  0  0  0  0  0
   -0.4686   -2.9534    0.8001 O   0  0  0  0  0  0  0  0  0  0  0  0
   -1.2736   -0.9704    0.1241 N   0  0  0  0  0  0  0  0  0  0  0  0
   -2.0996   -0.4354   -0.1019 H   0  0  0  0  0  0  0  0  0  0  0  0
   -0.0016   -0.2394    0.1271 C   0  0  1  0  0  0  0  0  0  0  0  0
    0.6995   -0.7619   -0.5275 H   0  0  0  0  0  0  0  0  0  0  0  0
   -0.2283    1.1832   -0.4215 C   0  0  0  0  0  0  0  0  0  0  0  0
   -1.2973    1.3988   -0.4404 H   0  0  0  0  0  0  0  0  0  0  0  0
    0.2487    1.9107    0.2361 H   0  0  0  0  0  0  0  0  0  0  0  0
    0.2910    1.3753   -1.8432 C   0  0  0  0  0  0  0  0  0  0  0  0
    0.7103    2.4250   -2.3129 O   0  0  0  0  0  0  0  0  0  0  0  0
    0.2583    0.2697   -2.6104 O   0  0  0  0  0  0  0  0  0  0  0  0
    0.6258    0.5266   -3.4567 H   0  0  0  0  0  0  0  0  0  0  0  0
    0.5920   -0.2154    1.5497 C   0  0  0  0  0  0  0  0  0  0  0  0
    1.7860   -0.4596    1.7183 O   0  0  0  0  0  0  0  0  0  0  0  0
   -0.2294    0.0669    2.5672 N   0  0  0  0  0  0  0  0  0  0  0  0
   -1.2130    0.1938    2.3518 H   0  0  0  0  0  0  0  0  0  0  0  0
    0.1836    0.1337    3.9673 C   0  0  0  0  0  0  0  0  0  0  0  0
    1.0451    0.7976    4.0666 H   0  0  0  0  0  0  0  0  0  0  0  0
   -0.6344    0.5115    4.5820 H   0  0  0  0  0  0  0  0  0  0  0  0
    0.4676   -0.8609    4.3157 H   0  0  0  0  0  0  0  0  0  0  0  0
  5  6  2  0  0  0  0
  5  7  1  0  0  0  0
  2  3  1  0  0  0  0
  2  4  1  0  0  0  0
  2  5  1  0  0  0  0
  1  2  1  0  0  0  0
 18 19  2  0  0  0  0
 18 20  1  0  0  0  0
 16 17  1  0  0  0  0
 14 15  2  0  0  0  0
 14 16  1  0  0  0  0
 11 12  1  0  0  0  0
 11 13  1  0  0  0  0
 11 14  1  0  0  0  0
  9 10  1  0  0  0  0
  9 11  1  0  0  0  0
  9 18  1  0  0  0  0
  7  8  1  0  0  0  0
  7  9  1  0  0  0  0
 22 23  1  0  0  0  0
 22 24  1  0  0  0  0
 22 25  1  0  0  0  0
 20 21  1  0  0  0  0
 20 22  1  0  0  0  0
M  END
$$$$
default_name
  -OEChem-02102213163D

 25 24  0     1  0  0  0  0  0999 V2000
   -2.7826   -3.8464    0.7821 H   0  0  0  0  0  0  0  0  0  0  0  0
   -2.8156   -2.8034    0.4711 C   0  0  0  0  0  0  0  0  0  0  0  0
   -3.4336   -2.2354    1.1641 H   0  0  0  0  0  0  0  0  0  0  0  0
   -3.2256   -2.7344   -0.5349 H   0  0  0  0  0  0  0  0  0  0  0  0
   -1.4126   -2.2444    0.4801 C   0  0  0  0  0  0  0  0  0  0  0  0
   -0.4686   -2.9534    0.8001 O   0  0  0  0  0  0  0  0  0  0  0  0
   -1.2736   -0.9704    0.1241 N   0  0  0  0  0  0  0  0  0  0  0  0
   -2.0996   -0.4354   -0.1019 H   0  0  0  0  0  0  0  0  0  0  0  0
   -0.0016   -0.2394    0.1271 C   0  0  1  0  0  0  0  0  0  0  0  0
    0.6995   -0.7619   -0.5275 H   0  0  0  0  0  0  0  0  0  0  0  0
   -0.2283    1.1832   -0.4215 C   0  0  0  0  0  0  0  0  0  0  0  0
   -1.2973    1.3988   -0.4404 H   0  0  0  0  0  0  0  0  0  0  0  0
    0.2487    1.9107    0.2361 H   0  0  0  0  0  0  0  0  0  0  0  0
    0.2910    1.3753   -1.8432 C   0  0  0  0  0  0  0  0  0  0  0  0
    0.9422    2.3325   -2.2407 O   0  0  0  0  0  0  0  0  0  0  0  0
   -0.0257    0.3853   -2.6985 O   0  0  0  0  0  0  0  0  0  0  0  0
    0.3747    0.6233   -3.5353 H   0  0  0  0  0  0  0  0  0  0  0  0
    0.5920   -0.2154    1.5497 C   0  0  0  0  0  0  0  0  0  0  0  0
    1.7860   -0.4596    1.7183 O   0  0  0  0  0  0  0  0  0  0  0  0
   -0.2294    0.0669    2.5672 N   0  0  0  0  0  0  0  0  0  0  0  0
   -1.2130    0.1938    2.3518 H   0  0  0  0  0  0  0  0  0  0  0  0
    0.1836    0.1337    3.9673 C   0  0  0  0  0  0  0  0  0  0  0  0
    1.0451    0.7976    4.0666 H   0  0  0  0  0  0  0  0  0  0  0  0
   -0.6344    0.5115    4.5820 H   0  0  0  0  0  0  0  0  0  0  0  0
    0.4676   -0.8609    4.3157 H   0  0  0  0  0  0  0  0  0  0  0  0
  5  6  2  0  0  0  0
  5  7  1  0  0  0  0
  2  3  1  0  0  0  0
  2  4  1  0  0  0  0
  2  5  1  0  0  0  0
  1  2  1  0  0  0  0
 18 19  2  0  0  0  0
 18 20  1  0  0  0  0
 16 17  1  0  0  0  0
 14 15  2  0  0  0  0
 14 16  1  0  0  0  0
 11 12  1  0  0  0  0
 11 13  1  0  0  0  0
 11 14  1  0  0  0  0
  9 10  1  0  0  0  0
  9 11  1  0  0  0  0
  9 18  1  0  0  0  0
  7  8  1  0  0  0  0
  7  9  1  0  0  0  0
 22 23  1  0  0  0  0
 22 24  1  0  0  0  0
 22 25  1  0  0  0  0
 20 21  1  0  0  0  0
 20 22  1  0  0  0  0
M  END
$$$$
default_name
  -OEChem-02102213163D

 25 24  0     1  0  0  0  0  0999 V2000
   -2.7826   -3.8464    0.7821 H   0  0  0  0  0  0  0  0  0  0  0  0
   -2.8156   -2.8034    0.4711 C   0  0  0  0  0  0  0  0  0  0  0  0
   -3.4336   -2.2354    1.1641 H   0  0  0  0  0  0  0  0  0  0  0  0
   -3.2256   -2.7344   -0.5349 H   0  0  0  0  0  0  0  0  0  0  0  0
   -1.4126   -2.2444    0.4801 C   0  0  0  0  0  0  0  0  0  0  0  0
   -0.4686   -2.9534    0.8001 O   0  0  0  0  0  0  0  0  0  0  0  0
   -1.2736   -0.9704    0.1241 N   0  0  0  0  0  0  0  0  0  0  0  0
   -2.0996   -0.4354   -0.1019 H   0  0  0  0  0  0  0  0  0  0  0  0
   -0.0016   -0.2394    0.1271 C   0  0  1  0  0  0  0  0  0  0  0  0
    0.6995   -0.7619   -0.5275 H   0  0  0  0  0  0  0  0  0  0  0  0
   -0.2283    1.1832   -0.4215 C   0  0  0  0  0  0  0  0  0  0  0  0
   -1.2973    1.3988   -0.4404 H   0  0  0  0  0  0  0  0  0  0  0  0
    0.2487    1.9107    0.2361 H   0  0  0  0  0  0  0  0  0  0  0  0
    0.2910    1.3753   -1.8432 C   0  0  0  0  0  0  0  0  0  0  0  0
    1.1461    2.1810   -2.1867 O   0  0  0  0  0  0  0  0  0  0  0  0
   -0.2750    0.5732   -2.7642 O   0  0  0  0  0  0  0  0  0  0  0  0
    0.1528    0.7843   -3.5946 H   0  0  0  0  0  0  0  0  0  0  0  0
    0.5920   -0.2154    1.5497 C   0  0  0  0  0  0  0  0  0  0  0  0
    1.7860   -0.4596    1.7183 O   0  0  0  0  0  0  0  0  0  0  0  0
   -0.2294    0.0669    2.5672 N   0  0  0  0  0  0  0  0  0  0  0  0
   -1.2130    0.1938    2.3518 H   0  0  0  0  0  0  0  0  0  0  0  0
    0.1836    0.1337    3.9673 C   0  0  0  0  0  0  0  0  0  0  0  0
    1.0451    0.7976    4.0666 H   0  0  0  0  0  0  0  0  0  0  0  0
   -0.6344    0.5115    4.5820 H   0  0  0  0  0  0  0  0  0  0  0  0
    0.4676   -0.8609    4.3157 H   0  0  0  0  0  0  0  0  0  0  0  0
  5  6  2  0  0  0  0
  5  7  1  0  0  0  0
  2  3  1  0  0  0  0
  2  4  1  0  0  0  0
  2  5  1  0  0  0  0
  1  2  1  0  0  0  0
 18 19  2  0  0  0  0
 18 20  1  0  0  0  0
 16 17  1  0  0  0  0
 14 15  2  0  0  0  0
 14 16  1  0  0  0  0
 11 12  1  0  0  0  0
 11 13  1  0  0  0  0
 11 14  1  0  0  0  0
  9 10  1  0  0  0  0
  9 11  1  0  0  0  0
  9 18  1  0  0  0  0
  7  8  1  0  0  0  0
  7  9  1  0  0  0  0
 22 23  1  0  0  0  0
 22 24  1  0  0  0  0
 22 25  1  0  0  0  0
 20 21  1  0  0  0  0
 20 22  1  0  0  0  0
M  END
$$$$
default_name
  -OEChem-02102213163D

 25 24  0     1  0  0  0  0  0999 V2000
   -2.7826   -3.8464    0.7821 H   0  0  0  0  0  0  0  0  0  0  0  0
   -2.8156   -2.8034    0.4711 C   0  0  0  0  0  0  0  0  0  0  0  0
   -3.4336   -2.2354    1.1641 H   0  0  0  0  0  0  0  0  0  0  0  0
   -3.2256   -2.7344   -0.5349 H   0  0  0  0  0  0  0  0  0  0  0  0
   -1.4126   -2.2444    0.4801 C   0  0  0  0  0  0  0  0  0  0  0  0
   -0.4686   -2.9534    0.8001 O   0  0  0  0  0  0  0  0  0  0  0  0
   -1.2736   -0.9704    0.1241 N   0  0  0  0  0  0  0  0  0  0  0  0
   -2.0996   -0.4354   -0.1019 H   0  0  0  0  0  0  0  0  0  0  0  0
   -0.0016   -0.2394    0.1271 C   0  0  1  0  0  0  0  0  0  0  0  0
    0.6995   -0.7619   -0.5275 H   0  0  0  0  0  0  0  0  0  0  0  0
   -0.2283    1.1832   -0.4215 C   0  0  0  0  0  0  0  0  0  0  0  0
   -1.2973    1.3988   -0.4404 H   0  0  0  0  0  0  0  0  0  0  0  0
    0.2487    1.9107    0.2361 H   0  0  0  0  0  0  0  0  0  0  0  0
    0.2910    1.3753   -1.8432 C   0  0  0  0  0  0  0  0  0  0  0  0
    1.3084    1.9806   -2.1545 O   0  0  0  0  0  0  0  0  0  0  0  0
   -0.4726    0.8206   -2.8030 O   0  0  0  0  0  0  0  0  0  0  0  0
   -0.0246    0.9986   -3.6305 H   0  0  0  0  0  0  0  0  0  0  0  0
    0.5920   -0.2154    1.5497 C   0  0  0  0  0  0  0  0  0  0  0  0
    1.7860   -0.4596    1.7183 O   0  0  0  0  0  0  0  0  0  0  0  0
   -0.2294    0.0669    2.5672 N   0  0  0  0  0  0  0  0  0  0  0  0
   -1.2130    0.1938    2.3518 H   0  0  0  0  0  0  0  0  0  0  0  0
    0.1836    0.1337    3.9673 C   0  0  0  0  0  0  0  0  0  0  0  0
    1.0451    0.7976    4.0666 H   0  0  0  0  0  0  0  0  0  0  0  0
   -0.6344    0.5115    4.5820 H   0  0  0  0  0  0  0  0  0  0  0  0
    0.4676   -0.8609    4.3157 H   0  0  0  0  0  0  0  0  0  0  0  0
  5  6  2  0  0  0  0
  5  7  1  0  0  0  0
  2  3  1  0  0  0  0
  2  4  1  0  0  0  0
  2  5  1  0  0  0  0
  1  2  1  0  0  0  0
 18 19  2  0  0  0  0
 18 20  1  0  0  0  0
 16 17  1  0  0  0  0
 14 15  2  0  0  0  0
 14 16  1  0  0  0  0
 11 12  1  0  0  0  0
 11 13  1  0  0  0  0
 11 14  1  0  0  0  0
  9 10  1  0  0  0  0
  9 11  1  0  0  0  0
  9 18  1  0  0  0  0
  7  8  1  0  0  0  0
  7  9  1  0  0  0  0
 22 23  1  0  0  0  0
 22 24  1  0  0  0  0
 22 25  1  0  0  0  0
 20 21  1  0  0  0  0
 20 22  1  0  0  0  0
M  END
$$$$
default_name
  -OEChem-02102213163D

 25 24  0     1  0  0  0  0  0999 V2000
   -2.7826   -3.8464    0.7821 H   0  0  0  0  0  0  0  0  0  0  0  0
   -2.8156   -2.8034    0.4711 C   0  0  0  0  0  0  0  0  0  0  0  0
   -3.4336   -2.2354    1.1641 H   0  0  0  0  0  0  0  0  0  0  0  0
   -3.2256   -2.7344   -0.5349 H   0  0  0  0  0  0  0  0  0  0  0  0
   -1.4126   -2.2444    0.4801 C   0  0  0  0  0  0  0  0  0  0  0  0
   -0.4686   -2.9534    0.8001 O   0  0  0  0  0  0  0  0  0  0  0  0
   -1.2736   -0.9704    0.1241 N   0  0  0  0  0  0  0  0  0  0  0  0
   -2.0996   -0.4354   -0.1019 H   0  0  0  0  0  0  0  0  0  0  0  0
   -0.0016   -0.2394    0.1271 C   0  0  1  0  0  0  0  0  0  0  0  0
    0.6995   -0.7619   -0.5275 H   0  0  0  0  0  0  0  0  0  0  0  0
   -0.2283    1.1832   -0.4215 C   0  0  0  0  0  0  0  0  0  0  0  0
   -1.2973    1.3988   -0.4404 H   0  0  0  0  0  0  0  0  0  0  0  0
    0.2487    1.9107    0.2361 H   0  0  0  0  0  0  0  0  0  0  0  0
    0.2910    1.3753   -1.8432 C   0  0  0  0  0  0  0  0  0  0  0  0
    1.4178    1.7451   -2.1463 O   0  0  0  0  0  0  0  0  0  0  0  0
   -0.6051    1.1106   -2.8122 O   0  0  0  0  0  0  0  0  0  0  0  0
   -0.1454    1.2514   -3.6404 H   0  0  0  0  0  0  0  0  0  0  0  0
    0.5920   -0.2154    1.5497 C   0  0  0  0  0  0  0  0  0  0  0  0
    1.7860   -0.4596    1.7183 O   0  0  0  0  0  0  0  0  0  0  0  0
   -0.2294    0.0669    2.5672 N   0  0  0  0  0  0  0  0  0  0  0  0
   -1.2130    0.1938    2.3518 H   0  0  0  0  0  0  0  0  0  0  0  0
    0.1836    0.1337    3.9673 C   0  0  0  0  0  0  0  0  0  0  0  0
    1.0451    0.7976    4.0666 H   0  0  0  0  0  0  0  0  0  0  0  0
   -0.6344    0.5115    4.5820 H   0  0  0  0  0  0  0  0  0  0  0  0
    0.4676   -0.8609    4.3157 H   0  0  0  0  0  0  0  0  0  0  0  0
  5  6  2  0  0  0  0
  5  7  1  0  0  0  0
  2  3  1  0  0  0  0
  2  4  1  0  0  0  0
  2  5  1  0  0  0  0
  1  2  1  0  0  0  0
 18 19  2  0  0  0  0
 18 20  1  0  0  0  0
 16 17  1  0  0  0  0
 14 15  2  0  0  0  0
 14 16  1  0  0  0  0
 11 12  1  0  0  0  0
 11 13  1  0  0  0  0
 11 14  1  0  0  0  0
  9 10  1  0  0  0  0
  9 11  1  0  0  0  0
  9 18  1  0  0  0  0
  7  8  1  0  0  0  0
  7  9  1  0  0  0  0
 22 23  1  0  0  0  0
 22 24  1  0  0  0  0
 22 25  1  0  0  0  0
 20 21  1  0  0  0  0
 20 22  1  0  0  0  0
M  END
$$$$
default_name
  -OEChem-02102213163D

 25 24  0     1  0  0  0  0  0999 V2000
   -2.7826   -3.8464    0.7821 H   0  0  0  0  0  0  0  0  0  0  0  0
   -2.8156   -2.8034    0.4711 C   0  0  0  0  0  0  0  0  0  0  0  0
   -3.4336   -2.2354    1.1641 H   0  0  0  0  0  0  0  0  0  0  0  0
   -3.2256   -2.7344   -0.5349 H   0  0  0  0  0  0  0  0  0  0  0  0
   -1.4126   -2.2444    0.4801 C   0  0  0  0  0  0  0  0  0  0  0  0
   -0.4686   -2.9534    0.8001 O   0  0  0  0  0  0  0  0  0  0  0  0
   -1.2736   -0.9704    0.1241 N   0  0  0  0  0  0  0  0  0  0  0  0
   -2.0996   -0.4354   -0.1019 H   0  0  0  0  0  0  0  0  0  0  0  0
   -0.0016   -0.2394    0.1271 C   0  0  1  0  0  0  0  0  0  0  0  0
    0.6995   -0.7619   -0.5275 H   0  0  0  0  0  0  0  0  0  0  0  0
   -0.2283    1.1832   -0.4215 C   0  0  0  0  0  0  0  0  0  0  0  0
   -1.2973    1.3988   -0.4404 H   0  0  0  0  0  0  0  0  0  0  0  0
    0.2487    1.9107    0.2361 H   0  0  0  0  0  0  0  0  0  0  0  0
    0.2910    1.3753   -1.8432 C   0  0  0  0  0  0  0  0  0  0  0  0
    1.4670    1.4905   -2.1628 O   0  0  0  0  0  0  0  0  0  0  0  0
   -0.6635    1.4235   -2.7912 O   0  0  0  0  0  0  0  0  0  0  0  0
   -0.2015    1.5257   -3.6238 H   0  0  0  0  0  0  0  0  0  0  0  0
    0.5920   -0.2154    1.5497 C   0  0  0  0  0  0  0  0  0  0  0  0
    1.7860   -0.4596    1.7183 O   0  0  0  0  0  0  0  0  0  0  0  0
   -0.2294    0.0669    2.5672 N   0  0  0  0  0  0  0  0  0  0  0  0
   -1.2130    0.1938    2.3518 H   0  0  0  0  0  0  0  0  0  0  0  0
    0.1836    0.1337    3.9673 C   0  0  0  0  0  0  0  0  0  0  0  0
    1.0451    0.7976    4.0666 H   0  0  0  0  0  0  0  0  0  0  0  0
   -0.6344    0.5115    4.5820 H   0  0  0  0  0  0  0  0  0  0  0  0
    0.4676   -0.8609    4.3157 H   0  0  0  0  0  0  0  0  0  0  0  0
  5  6  2  0  0  0  0
  5  7  1  0  0  0  0
  2  3  1  0  0  0  0
  2  4  1  0  0  0  0
  2  5  1  0  0  0  0
  1  2  1  0  0  0  0
 18 19  2  0  0  0  0
 18 20  1  0  0  0  0
 16 17  1  0  0  0  0
 14 15  2  0  0  0  0
 14 16  1  0  0  0  0
 11 12  1  0  0  0  0
 11 13  1  0  0  0  0
 11 14  1  0  0  0  0
  9 10  1  0  0  0  0
  9 11  1  0  0  0  0
  9 18  1  0  0  0  0
  7  8  1  0  0  0  0
  7  9  1  0  0  0  0
 22 23  1  0  0  0  0
 22 24  1  0  0  0  0
 22 25  1  0  0  0  0
 20 21  1  0  0  0  0
 20 22  1  0  0  0  0
M  END
$$$$
default_name
  -OEChem-02102213163D

 25 24  0     1  0  0  0  0  0999 V2000
   -2.7826   -3.8464    0.7821 H   0  0  0  0  0  0  0  0  0  0  0  0
   -2.8156   -2.8034    0.4711 C   0  0  0  0  0  0  0  0  0  0  0  0
   -3.4336   -2.2354    1.1641 H   0  0  0  0  0  0  0  0  0  0  0  0
   -3.2256   -2.7344   -0.5349 H   0  0  0  0  0  0  0  0  0  0  0  0
   -1.4126   -2.2444    0.4801 C   0  0  0  0  0  0  0  0  0  0  0  0
   -0.4686   -2.9534    0.8001 O   0  0  0  0  0  0  0  0  0  0  0  0
   -1.2736   -0.9704    0.1241 N   0  0  0  0  0  0  0  0  0  0  0  0
   -2.0996   -0.4354   -0.1019 H   0  0  0  0  0  0  0  0  0  0  0  0
   -0.0016   -0.2394    0.1271 C   0  0  1  0  0  0  0  0  0  0  0  0
    0.6995   -0.7619   -0.5275 H   0  0  0  0  0  0  0  0  0  0  0  0
   -0.2283    1.1832   -0.4215 C   0  0  0  0  0  0  0  0  0  0  0  0
   -1.2973    1.3988   -0.4404 H   0  0  0  0  0  0  0  0  0  0  0  0
    0.2487    1.9107    0.2361 H   0  0  0  0  0  0  0  0  0  0  0  0
    0.2910    1.3753   -1.8432 C   0  0  0  0  0  0  0  0  0  0  0  0
    1.4525    1.2342   -2.2027 O   0  0  0  0  0  0  0  0  0  0  0  0
   -0.6437    1.7380   -2.7414 O   0  0  0  0  0  0  0  0  0  0  0  0
   -0.1889    1.8027   -3.5818 H   0  0  0  0  0  0  0  0  0  0  0  0
    0.5920   -0.2154    1.5497 C   0  0  0  0  0  0  0  0  0  0  0  0
    1.7860   -0.4596    1.7183 O   0  0  0  0  0  0  0  0  0  0  0  0
   -0.2294    0.0669    2.5672 N   0  0  0  0  0  0  0  0  0  0  0  0
   -1.2130    0.1938    2.3518 H   0  0  0  0  0  0  0  0  0  0  0  0
    0.1836    0.1337    3.9673 C   0  0  0  0  0  0  0  0  0  0  0  0
    1.0451    0.7976    4.0666 H   0  0  0  0  0  0  0  0  0  0  0  0
   -0.6344    0.5115    4.5820 H   0  0  0  0  0  0  0  0  0  0  0  0
    0.4676   -0.8609    4.3157 H   0  0  0  0  0  0  0  0  0  0  0  0
  5  6  2  0  0  0  0
  5  7  1  0  0  0  0
  2  3  1  0  0  0  0
  2  4  1  0  0  0  0
  2  5  1  0  0  0  0
  1  2  1  0  0  0  0
 18 19  2  0  0  0  0
 18 20  1  0  0  0  0
 16 17  1  0  0  0  0
 14 15  2  0  0  0  0
 14 16  1  0  0  0  0
 11 12  1  0  0  0  0
 11 13  1  0  0  0  0
 11 14  1  0  0  0  0
  9 10  1  0  0  0  0
  9 11  1  0  0  0  0
  9 18  1  0  0  0  0
  7  8  1  0  0  0  0
  7  9  1  0  0  0  0
 22 23  1  0  0  0  0
 22 24  1  0  0  0  0
 22 25  1  0  0  0  0
 20 21  1  0  0  0  0
 20 22  1  0  0  0  0
M  END
$$$$
default_name
  -OEChem-02102213163D

 25 24  0     1  0  0  0  0  0999 V2000
   -2.7826   -3.8464    0.7821 H   0  0  0  0  0  0  0  0  0  0  0  0
   -2.8156   -2.8034    0.4711 C   0  0  0  0  0  0  0  0  0  0  0  0
   -3.4336   -2.2354    1.1641 H   0  0  0  0  0  0  0  0  0  0  0  0
   -3.2256   -2.7344   -0.5349 H   0  0  0  0  0  0  0  0  0  0  0  0
   -1.4126   -2.2444    0.4801 C   0  0  0  0  0  0  0  0  0  0  0  0
   -0.4686   -2.9534    0.8001 O   0  0  0  0  0  0  0  0  0  0  0  0
   -1.2736   -0.9704    0.1241 N   0  0  0  0  0  0  0  0  0  0  0  0
   -2.0996   -0.4354   -0.1019 H   0  0  0  0  0  0  0  0  0  0  0  0
   -0.0016   -0.2394    0.1271 C   0  0  1  0  0  0  0  0  0  0  0  0
    0.6995   -0.7619   -0.5275 H   0  0  0  0  0  0  0  0  0  0  0  0
   -0.2283    1.1832   -0.4215 C   0  0  0  0  0  0  0  0  0  0  0  0
   -1.2973    1.3988   -0.4404 H   0  0  0  0  0  0  0  0  0  0  0  0
    0.2487    1.9107    0.2361 H   0  0  0  0  0  0  0  0  0  0  0  0
    0.2910    1.3753   -1.8432 C   0  0  0  0  0  0  0  0  0  0  0  0
    1.3754    0.9936   -2.2634 O   0  0  0  0  0  0  0  0  0  0  0  0
   -0.5471    2.0326   -2.6663 O   0  0  0  0  0  0  0  0  0  0  0  0
   -0.1086    2.0635   -3.5173 H   0  0  0  0  0  0  0  0  0  0  0  0
    0.5920   -0.2154    1.5497 C   0  0  0  0  0  0  0  0  0  0  0  0
    1.7860   -0.4596    1.7183 O   0  0  0  0  0  0  0  0  0  0  0  0
   -0.2294    0.0669    2.5672 N   0  0  0  0  0  0  0  0  0  0  0  0
   -1.2130    0.1938    2.3518 H   0  0  0  0  0  0  0  0  0  0  0  0
    0.1836    0.1337    3.9673 C   0  0  0  0  0  0  0  0  0  0  0  0
    1.0451    0.7976    4.0666 H   0  0  0  0  0  0  0  0  0  0  0  0
   -0.6344    0.5115    4.5820 H   0  0  0  0  0  0  0  0  0  0  0  0
    0.4676   -0.8609    4.3157 H   0  0  0  0  0  0  0  0  0  0  0  0
  5  6  2  0  0  0  0
  5  7  1  0  0  0  0
  2  3  1  0  0  0  0
  2  4  1  0  0  0  0
  2  5  1  0  0  0  0
  1  2  1  0  0  0  0
 18 19  2  0  0  0  0
 18 20  1  0  0  0  0
 16 17  1  0  0  0  0
 14 15  2  0  0  0  0
 14 16  1  0  0  0  0
 11 12  1  0  0  0  0
 11 13  1  0  0  0  0
 11 14  1  0  0  0  0
  9 10  1  0  0  0  0
  9 11  1  0  0  0  0
  9 18  1  0  0  0  0
  7  8  1  0  0  0  0
  7  9  1  0  0  0  0
 22 23  1  0  0  0  0
 22 24  1  0  0  0  0
 22 25  1  0  0  0  0
 20 21  1  0  0  0  0
 20 22  1  0  0  0  0
M  END
$$$$
default_name
  -OEChem-02102213163D

 25 24  0     1  0  0  0  0  0999 V2000
   -2.7826   -3.8464    0.7821 H   0  0  0  0  0  0  0  0  0  0  0  0
   -2.8156   -2.8034    0.4711 C   0  0  0  0  0  0  0  0  0  0  0  0
   -3.4336   -2.2354    1.1641 H   0  0  0  0  0  0  0  0  0  0  0  0
   -3.2256   -2.7344   -0.5349 H   0  0  0  0  0  0  0  0  0  0  0  0
   -1.4126   -2.2444    0.4801 C   0  0  0  0  0  0  0  0  0  0  0  0
   -0.4686   -2.9534    0.8001 O   0  0  0  0  0  0  0  0  0  0  0  0
   -1.2736   -0.9704    0.1241 N   0  0  0  0  0  0  0  0  0  0  0  0
   -2.0996   -0.4354   -0.1019 H   0  0  0  0  0  0  0  0  0  0  0  0
   -0.0016   -0.2394    0.1271 C   0  0  1  0  0  0  0  0  0  0  0  0
    0.6995   -0.7619   -0.5275 H   0  0  0  0  0  0  0  0  0  0  0  0
   -0.2283    1.1832   -0.4215 C   0  0  0  0  0  0  0  0  0  0  0  0
   -1.2973    1.3988   -0.4404 H   0  0  0  0  0  0  0  0  0  0  0  0
    0.2487    1.9107    0.2361 H   0  0  0  0  0  0  0  0  0  0  0  0
    0.2910    1.3753   -1.8432 C   0  0  0  0  0  0  0  0  0  0  0  0
    1.2410    0.7851   -2.3406 O   0  0  0  0  0  0  0  0  0  0  0  0
   -0.3803    2.2873   -2.5710 O   0  0  0  0  0  0  0  0  0  0  0  0
    0.0339    2.2904   -3.4345 H   0  0  0  0  0  0  0  0  0  0  0  0
    0.5920   -0.2154    1.5497 C   0  0  0  0  0  0  0  0  0  0  0  0
    1.7860   -0.4596    1.7183 O   0  0  0  0  0  0  0  0  0  0  0  0
   -0.2294    0.0669    2.5672 N   0  0  0  0  0  0  0  0  0  0  0  0
   -1.2130    0.1938    2.3518 H   0  0  0  0  0  0  0  0  0  0  0  0
    0.1836    0.1337    3.9673 C   0  0  0  0  0  0  0  0  0  0  0  0
    1.0451    0.7976    4.0666 H   0  0  0  0  0  0  0  0  0  0  0  0
   -0.6344    0.5115    4.5820 H   0  0  0  0  0  0  0  0  0  0  0  0
    0.4676   -0.8609    4.3157 H   0  0  0  0  0  0  0  0  0  0  0  0
  5  6  2  0  0  0  0
  5  7  1  0  0  0  0
  2  3  1  0  0  0  0
  2  4  1  0  0  0  0
  2  5  1  0  0  0  0
  1  2  1  0  0  0  0
 18 19  2  0  0  0  0
 18 20  1  0  0  0  0
 16 17  1  0  0  0  0
 14 15  2  0  0  0  0
 14 16  1  0  0  0  0
 11 12  1  0  0  0  0
 11 13  1  0  0  0  0
 11 14  1  0  0  0  0
  9 10  1  0  0  0  0
  9 11  1  0  0  0  0
  9 18  1  0  0  0  0
  7  8  1  0  0  0  0
  7  9  1  0  0  0  0
 22 23  1  0  0  0  0
 22 24  1  0  0  0  0
 22 25  1  0  0  0  0
 20 21  1  0  0  0  0
 20 22  1  0  0  0  0
M  END
$$$$
default_name
  -OEChem-02102213163D

 25 24  0     1  0  0  0  0  0999 V2000
   -2.7826   -3.8464    0.7821 H   0  0  0  0  0  0  0  0  0  0  0  0
   -2.8156   -2.8034    0.4711 C   0  0  0  0  0  0  0  0  0  0  0  0
   -3.4336   -2.2354    1.1641 H   0  0  0  0  0  0  0  0  0  0  0  0
   -3.2256   -2.7344   -0.5349 H   0  0  0  0  0  0  0  0  0  0  0  0
   -1.4126   -2.2444    0.4801 C   0  0  0  0  0  0  0  0  0  0  0  0
   -0.4686   -2.9534    0.8001 O   0  0  0  0  0  0  0  0  0  0  0  0
   -1.2736   -0.9704    0.1241 N   0  0  0  0  0  0  0  0  0  0  0  0
   -2.0996   -0.4354   -0.1019 H   0  0  0  0  0  0  0  0  0  0  0  0
   -0.0016   -0.2394    0.1271 C   0  0  1  0  0  0  0  0  0  0  0  0
    0.6995   -0.7619   -0.5275 H   0  0  0  0  0  0  0  0  0  0  0  0
   -0.2283    1.1832   -0.4215 C   0  0  0  0  0  0  0  0  0  0  0  0
   -1.2973    1.3988   -0.4404 H   0  0  0  0  0  0  0  0  0  0  0  0
    0.2487    1.9107    0.2361 H   0  0  0  0  0  0  0  0  0  0  0  0
    0.2910    1.3753   -1.8432 C   0  0  0  0  0  0  0  0  0  0  0  0
    1.0583    0.6230   -2.4293 O   0  0  0  0  0  0  0  0  0  0  0  0
   -0.1546    2.4846   -2.4619 O   0  0  0  0  0  0  0  0  0  0  0  0
    0.2290    2.4679   -3.3393 H   0  0  0  0  0  0  0  0  0  0  0  0
    0.5920   -0.2154    1.5497 C   0  0  0  0  0  0  0  0  0  0  0  0
    1.7860   -0.4596    1.7183 O   0  0  0  0  0  0  0  0  0  0  0  0
   -0.2294    0.0669    2.5672 N   0  0  0  0  0  0  0  0  0  0  0  0
   -1.2130    0.1938    2.3518 H   0  0  0  0  0  0  0  0  0  0  0  0
    0.1836    0.1337    3.9673 C   0  0  0  0  0  0  0  0  0  0  0  0
    1.0451    0.7976    4.0666 H   0  0  0  0  0  0  0  0  0  0  0  0
   -0.6344    0.5115    4.5820 H   0  0  0  0  0  0  0  0  0  0  0  0
    0.4676   -0.8609    4.3157 H   0  0  0  0  0  0  0  0  0  0  0  0
  5  6  2  0  0  0  0
  5  7  1  0  0  0  0
  2  3  1  0  0  0  0
  2  4  1  0  0  0  0
  2  5  1  0  0  0  0
  1  2  1  0  0  0  0
 18 19  2  0  0  0  0
 18 20  1  0  0  0  0
 16 17  1  0  0  0  0
 14 15  2  0  0  0  0
 14 16  1  0  0  0  0
 11 12  1  0  0  0  0
 11 13  1  0  0  0  0
 11 14  1  0  0  0  0
  9 10  1  0  0  0  0
  9 11  1  0  0  0  0
  9 18  1  0  0  0  0
  7  8  1  0  0  0  0
  7  9  1  0  0  0  0
 22 23  1  0  0  0  0
 22 24  1  0  0  0  0
 22 25  1  0  0  0  0
 20 21  1  0  0  0  0
 20 22  1  0  0  0  0
M  END
$$$$
default_name
  -OEChem-02102213163D

 25 24  0     1  0  0  0  0  0999 V2000
   -2.7826   -3.8464    0.7821 H   0  0  0  0  0  0  0  0  0  0  0  0
   -2.8156   -2.8034    0.4711 C   0  0  0  0  0  0  0  0  0  0  0  0
   -3.4336   -2.2354    1.1641 H   0  0  0  0  0  0  0  0  0  0  0  0
   -3.2256   -2.7344   -0.5349 H   0  0  0  0  0  0  0  0  0  0  0  0
   -1.4126   -2.2444    0.4801 C   0  0  0  0  0  0  0  0  0  0  0  0
   -0.4686   -2.9534    0.8001 O   0  0  0  0  0  0  0  0  0  0  0  0
   -1.2736   -0.9704    0.1241 N   0  0  0  0  0  0  0  0  0  0  0  0
   -2.0996   -0.4354   -0.1019 H   0  0  0  0  0  0  0  0  0  0  0  0
   -0.0016   -0.2394    0.1271 C   0  0  1  0  0  0  0  0  0  0  0  0
    0.6995   -0.7619   -0.5275 H   0  0  0  0  0  0  0  0  0  0  0  0
   -0.2283    1.1832   -0.4215 C   0  0  0  0  0  0  0  0  0  0  0  0
   -1.2973    1.3988   -0.4404 H   0  0  0  0  0  0  0  0  0  0  0  0
    0.2487    1.9107    0.2361 H   0  0  0  0  0  0  0  0  0  0  0  0
    0.2910    1.3753   -1.8432 C   0  0  0  0  0  0  0  0  0  0  0  0
    0.8399    0.5182   -2.5232 O   0  0  0  0  0  0  0  0  0  0  0  0
    0.1145    2.6112   -2.3465 O   0  0  0  0  0  0  0  0  0  0  0  0
    0.4634    2.5839   -3.2380 H   0  0  0  0  0  0  0  0  0  0  0  0
    0.5920   -0.2154    1.5497 C   0  0  0  0  0  0  0  0  0  0  0  0
    1.7860   -0.4596    1.7183 O   0  0  0  0  0  0  0  0  0  0  0  0
   -0.2294    0.0669    2.5672 N   0  0  0  0  0  0  0  0  0  0  0  0
   -1.2130    0.1938    2.3518 H   0  0  0  0  0  0  0  0  0  0  0  0
    0.1836    0.1337    3.9673 C   0  0  0  0  0  0  0  0  0  0  0  0
    1.0451    0.7976    4.0666 H   0  0  0  0  0  0  0  0  0  0  0  0
   -0.6344    0.5115    4.5820 H   0  0  0  0  0  0  0  0  0  0  0  0
    0.4676   -0.8609    4.3157 H   0  0  0  0  0  0  0  0  0  0  0  0
  5  6  2  0  0  0  0
  5  7  1  0  0  0  0
  2  3  1  0  0  0  0
  2  4  1  0  0  0  0
  2  5  1  0  0  0  0
  1  2  1  0  0  0  0
 18 19  2  0  0  0  0
 18 20  1  0  0  0  0
 16 17  1  0  0  0  0
 14 15  2  0  0  0  0
 14 16  1  0  0  0  0
 11 12  1  0  0  0  0
 11 13  1  0  0  0  0
 11 14  1  0  0  0  0
  9 10  1  0  0  0  0
  9 11  1  0  0  0  0
  9 18  1  0  0  0  0
  7  8  1  0  0  0  0
  7  9  1  0  0  0  0
 22 23  1  0  0  0  0
 22 24  1  0  0  0  0
 22 25  1  0  0  0  0
 20 21  1  0  0  0  0
 20 22  1  0  0  0  0
M  END
$$$$
default_name
  -OEChem-02102213163D

 25 24  0     1  0  0  0  0  0999 V2000
   -2.7826   -3.8464    0.7821 H   0  0  0  0  0  0  0  0  0  0  0  0
   -2.8156   -2.8034    0.4711 C   0  0  0  0  0  0  0  0  0  0  0  0
   -3.4336   -2.2354    1.1641 H   0  0  0  0  0  0  0  0  0  0  0  0
   -3.2256   -2.7344   -0.5349 H   0  0  0  0  0  0  0  0  0  0  0  0
   -1.4126   -2.2444    0.4801 C   0  0  0  0  0  0  0  0  0  0  0  0
   -0.4686   -2.9534    0.8001 O   0  0  0  0  0  0  0  0  0  0  0  0
   -1.2736   -0.9704    0.1241 N   0  0  0  0  0  0  0  0  0  0  0  0
   -2.0996   -0.4354   -0.1019 H   0  0  0  0  0  0  0  0  0  0  0  0
   -0.0016   -0.2394    0.1271 C   0  0  1  0  0  0  0  0  0  0  0  0
    0.6995   -0.7619   -0.5275 H   0  0  0  0  0  0  0  0  0  0  0  0
   -0.2283    1.1832   -0.4215 C   0  0  0  0  0  0  0  0  0  0  0  0
   -1.2973    1.3988   -0.4404 H   0  0  0  0  0  0  0  0  0  0  0  0
    0.2487    1.9107    0.2361 H   0  0  0  0  0  0  0  0  0  0  0  0
    0.2910    1.3753   -1.8432 C   0  0  0  0  0  0  0  0  0  0  0  0
    0.6006    0.4780   -2.6161 O   0  0  0  0  0  0  0  0  0  0  0  0
    0.4087    2.6585   -2.2326 O   0  0  0  0  0  0  0  0  0  0  0  0
    0.7211    2.6305   -3.1376 H   0  0  0  0  0  0  0  0  0  0  0  0
    0.5920   -0.2154    1.5497 C   0  0  0  0  0  0  0  0  0  0  0  0
    1.7860   -0.4596    1.7183 O   0  0  0  0  0  0  0  0  0  0  0  0
   -0.2294    0.0669    2.5672 N   0  0  0  0  0  0  0  0  0  0  0  0
   -1.2130    0.1938    2.3518 H   0  0  0  0  0  0  0  0  0  0  0  0
    0.1836    0.1337    3.9673 C   0  0  0  0  0  0  0  0  0  0  0  0
    1.0451    0.7976    4.0666 H   0  0  0  0  0  0  0  0  0  0  0  0
   -0.6344    0.5115    4.5820 H   0  0  0  0  0  0  0  0  0  0  0  0
    0.4676   -0.8609    4.3157 H   0  0  0  0  0  0  0  0  0  0  0  0
  5  6  2  0  0  0  0
  5  7  1  0  0  0  0
  2  3  1  0  0  0  0
  2  4  1  0  0  0  0
  2  5  1  0  0  0  0
  1  2  1  0  0  0  0
 18 19  2  0  0  0  0
 18 20  1  0  0  0  0
 16 17  1  0  0  0  0
 14 15  2  0  0  0  0
 14 16  1  0  0  0  0
 11 12  1  0  0  0  0
 11 13  1  0  0  0  0
 11 14  1  0  0  0  0
  9 10  1  0  0  0  0
  9 11  1  0  0  0  0
  9 18  1  0  0  0  0
  7  8  1  0  0  0  0
  7  9  1  0  0  0  0
 22 23  1  0  0  0  0
 22 24  1  0  0  0  0
 22 25  1  0  0  0  0
 20 21  1  0  0  0  0
 20 22  1  0  0  0  0
M  END
$$$$
default_name
  -OEChem-02102213163D

 25 24  0     1  0  0  0  0  0999 V2000
   -2.7826   -3.8464    0.7821 H   0  0  0  0  0  0  0  0  0  0  0  0
   -2.8156   -2.8034    0.4711 C   0  0  0  0  0  0  0  0  0  0  0  0
   -3.4336   -2.2354    1.1641 H   0  0  0  0  0  0  0  0  0  0  0  0
   -3.2256   -2.7344   -0.5349 H   0  0  0  0  0  0  0  0  0  0  0  0
   -1.4126   -2.2444    0.4801 C   0  0  0  0  0  0  0  0  0  0  0  0
   -0.4686   -2.9534    0.8001 O   0  0  0  0  0  0  0  0  0  0  0  0
   -1.2736   -0.9704    0.1241 N   0  0  0  0  0  0  0  0  0  0  0  0
   -2.0996   -0.4354   -0.1019 H   0  0  0  0  0  0  0  0  0  0  0  0
   -0.0016   -0.2394    0.1271 C   0  0  1  0  0  0  0  0  0  0  0  0
    0.6995   -0.7619   -0.5275 H   0  0  0  0  0  0  0  0  0  0  0  0
   -0.2283    1.1832   -0.4215 C   0  0  0  0  0  0  0  0  0  0  0  0
   -1.2973    1.3988   -0.4404 H   0  0  0  0  0  0  0  0  0  0  0  0
    0.2487    1.9107    0.2361 H   0  0  0  0  0  0  0  0  0  0  0  0
    0.2910    1.3753   -1.8432 C   0  0  0  0  0  0  0  0  0  0  0  0
    0.3567    0.5051   -2.7015 O   0  0  0  0  0  0  0  0  0  0  0  0
    0.7080    2.6231   -2.1281 O   0  0  0  0  0  0  0  0  0  0  0  0
    0.9844    2.6045   -3.0449 H   0  0  0  0  0  0  0  0  0  0  0  0
    0.5920   -0.2154    1.5497 C   0  0  0  0  0  0  0  0  0  0  0  0
    1.7860   -0.4596    1.7183 O   0  0  0  0  0  0  0  0  0  0  0  0
   -0.2294    0.0669    2.5672 N   0  0  0  0  0  0  0  0  0  0  0  0
   -1.2130    0.1938    2.3518 H   0  0  0  0  0  0  0  0  0  0  0  0
    0.1836    0.1337    3.9673 C   0  0  0  0  0  0  0  0  0  0  0  0
    1.0451    0.7976    4.0666 H   0  0  0  0  0  0  0  0  0  0  0  0
   -0.6344    0.5115    4.5820 H   0  0  0  0  0  0  0  0  0  0  0  0
    0.4676   -0.8609    4.3157 H   0  0  0  0  0  0  0  0  0  0  0  0
  5  6  2  0  0  0  0
  5  7  1  0  0  0  0
  2  3  1  0  0  0  0
  2  4  1  0  0  0  0
  2  5  1  0  0  0  0
  1  2  1  0  0  0  0
 18 19  2  0  0  0  0
 18 20  1  0  0  0  0
 16 17  1  0  0  0  0
 14 15  2  0  0  0  0
 14 16  1  0  0  0  0
 11 12  1  0  0  0  0
 11 13  1  0  0  0  0
 11 14  1  0  0  0  0
  9 10  1  0  0  0  0
  9 11  1  0  0  0  0
  9 18  1  0  0  0  0
  7  8  1  0  0  0  0
  7  9  1  0  0  0  0
 22 23  1  0  0  0  0
 22 24  1  0  0  0  0
 22 25  1  0  0  0  0
 20 21  1  0  0  0  0
 20 22  1  0  0  0  0
M  END
$$$$
default_name
  -OEChem-02102213163D

 25 24  0     1  0  0  0  0  0999 V2000
   -2.7826   -3.8464    0.7821 H   0  0  0  0  0  0  0  0  0  0  0  0
   -2.8156   -2.8034    0.4711 C   0  0  0  0  0  0  0  0  0  0  0  0
   -3.4336   -2.2354    1.1641 H   0  0  0  0  0  0  0  0  0  0  0  0
   -3.2256   -2.7344   -0.5349 H   0  0  0  0  0  0  0  0  0  0  0  0
   -1.4126   -2.2444    0.4801 C   0  0  0  0  0  0  0  0  0  0  0  0
   -0.4686   -2.9534    0.8001 O   0  0  0  0  0  0  0  0  0  0  0  0
   -1.2736   -0.9704    0.1241 N   0  0  0  0  0  0  0  0  0  0  0  0
   -2.0996   -0.4354   -0.1019 H   0  0  0  0  0  0  0  0  0  0  0  0
   -0.0016   -0.2394    0.1271 C   0  0  1  0  0  0  0  0  0  0  0  0
    0.6995   -0.7619   -0.5275 H   0  0  0  0  0  0  0  0  0  0  0  0
   -0.2283    1.1832   -0.4215 C   0  0  0  0  0  0  0  0  0  0  0  0
   -1.2973    1.3988   -0.4404 H   0  0  0  0  0  0  0  0  0  0  0  0
    0.2487    1.9107    0.2361 H   0  0  0  0  0  0  0  0  0  0  0  0
    0.2910    1.3753   -1.8432 C   0  0  0  0  0  0  0  0  0  0  0  0
    0.1249    0.5975   -2.7737 O   0  0  0  0  0  0  0  0  0  0  0  0
    0.9920    2.5075   -2.0400 O   0  0  0  0  0  0  0  0  0  0  0  0
    1.2356    2.5077   -2.9662 H   0  0  0  0  0  0  0  0  0  0  0  0
    0.5920   -0.2154    1.5497 C   0  0  0  0  0  0  0  0  0  0  0  0
    1.7860   -0.4596    1.7183 O   0  0  0  0  0  0  0  0  0  0  0  0
   -0.2294    0.0669    2.5672 N   0  0  0  0  0  0  0  0  0  0  0  0
   -1.2130    0.1938    2.3518 H   0  0  0  0  0  0  0  0  0  0  0  0
    0.1836    0.1337    3.9673 C   0  0  0  0  0  0  0  0  0  0  0  0
    1.0451    0.7976    4.0666 H   0  0  0  0  0  0  0  0  0  0  0  0
   -0.6344    0.5115    4.5820 H   0  0  0  0  0  0  0  0  0  0  0  0
    0.4676   -0.8609    4.3157 H   0  0  0  0  0  0  0  0  0  0  0  0
  5  6  2  0  0  0  0
  5  7  1  0  0  0  0
  2  3  1  0  0  0  0
  2  4  1  0  0  0  0
  2  5  1  0  0  0  0
  1  2  1  0  0  0  0
 18 19  2  0  0  0  0
 18 20  1  0  0  0  0
 16 17  1  0  0  0  0
 14 15  2  0  0  0  0
 14 16  1  0  0  0  0
 11 12  1  0  0  0  0
 11 13  1  0  0  0  0
 11 14  1  0  0  0  0
  9 10  1  0  0  0  0
  9 11  1  0  0  0  0
  9 18  1  0  0  0  0
  7  8  1  0  0  0  0
  7  9  1  0  0  0  0
 22 23  1  0  0  0  0
 22 24  1  0  0  0  0
 22 25  1  0  0  0  0
 20 21  1  0  0  0  0
 20 22  1  0  0  0  0
M  END
$$$$
default_name
  -OEChem-02102213163D

 25 24  0     1  0  0  0  0  0999 V2000
   -2.7826   -3.8464    0.7821 H   0  0  0  0  0  0  0  0  0  0  0  0
   -2.8156   -2.8034    0.4711 C   0  0  0  0  0  0  0  0  0  0  0  0
   -3.4336   -2.2354    1.1641 H   0  0  0  0  0  0  0  0  0  0  0  0
   -3.2256   -2.7344   -0.5349 H   0  0  0  0  0  0  0  0  0  0  0  0
   -1.4126   -2.2444    0.4801 C   0  0  0  0  0  0  0  0  0  0  0  0
   -0.4686   -2.9534    0.8001 O   0  0  0  0  0  0  0  0  0  0  0  0
   -1.2736   -0.9704    0.1241 N   0  0  0  0  0  0  0  0  0  0  0  0
   -2.0996   -0.4354   -0.1019 H   0  0  0  0  0  0  0  0  0  0  0  0
   -0.0016   -0.2394    0.1271 C   0  0  1  0  0  0  0  0  0  0  0  0
    0.6995   -0.7619   -0.5275 H   0  0  0  0  0  0  0  0  0  0  0  0
   -0.2283    1.1832   -0.4215 C   0  0  0  0  0  0  0  0  0  0  0  0
   -1.2973    1.3988   -0.4404 H   0  0  0  0  0  0  0  0  0  0  0  0
    0.2487    1.9107    0.2361 H   0  0  0  0  0  0  0  0  0  0  0  0
    0.2910    1.3753   -1.8432 C   0  0  0  0  0  0  0  0  0  0  0  0
   -0.0791    0.7491   -2.8277 O   0  0  0  0  0  0  0  0  0  0  0  0
    1.2413    2.3196   -1.9743 O   0  0  0  0  0  0  0  0  0  0  0  0
    1.4575    2.3467   -2.9069 H   0  0  0  0  0  0  0  0  0  0  0  0
    0.5920   -0.2154    1.5497 C   0  0  0  0  0  0  0  0  0  0  0  0
    1.7860   -0.4596    1.7183 O   0  0  0  0  0  0  0  0  0  0  0  0
   -0.2294    0.0669    2.5672 N   0  0  0  0  0  0  0  0  0  0  0  0
   -1.2130    0.1938    2.3518 H   0  0  0  0  0  0  0  0  0  0  0  0
    0.1836    0.1337    3.9673 C   0  0  0  0  0  0  0  0  0  0  0  0
    1.0451    0.7976    4.0666 H   0  0  0  0  0  0  0  0  0  0  0  0
   -0.6344    0.5115    4.5820 H   0  0  0  0  0  0  0  0  0  0  0  0
    0.4676   -0.8609    4.3157 H   0  0  0  0  0  0  0  0  0  0  0  0
  5  6  2  0  0  0  0
  5  7  1  0  0  0  0
  2  3  1  0  0  0  0
  2  4  1  0  0  0  0
  2  5  1  0  0  0  0
  1  2  1  0  0  0  0
 18 19  2  0  0  0  0
 18 20  1  0  0  0  0
 16 17  1  0  0  0  0
 14 15  2  0  0  0  0
 14 16  1  0  0  0  0
 11 12  1  0  0  0  0
 11 13  1  0  0  0  0
 11 14  1  0  0  0  0
  9 10  1  0  0  0  0
  9 11  1  0  0  0  0
  9 18  1  0  0  0  0
  7  8  1  0  0  0  0
  7  9  1  0  0  0  0
 22 23  1  0  0  0  0
 22 24  1  0  0  0  0
 22 25  1  0  0  0  0
 20 21  1  0  0  0  0
 20 22  1  0  0  0  0
M  END
$$$$
default_name
  -OEChem-02102213163D

 25 24  0     1  0  0  0  0  0999 V2000
   -2.7826   -3.8464    0.7821 H   0  0  0  0  0  0  0  0  0  0  0  0
   -2.8156   -2.8034    0.4711 C   0  0  0  0  0  0  0  0  0  0  0  0
   -3.4336   -2.2354    1.1641 H   0  0  0  0  0  0  0  0  0  0  0  0
   -3.2256   -2.7344   -0.5349 H   0  0  0  0  0  0  0  0  0  0  0  0
   -1.4126   -2.2444    0.4801 C   0  0  0  0  0  0  0  0  0  0  0  0
   -0.4686   -2.9534    0.8001 O   0  0  0  0  0  0  0  0  0  0  0  0
   -1.2736   -0.9704    0.1241 N   0  0  0  0  0  0  0  0  0  0  0  0
   -2.0996   -0.4354   -0.1019 H   0  0  0  0  0  0  0  0  0  0  0  0
   -0.0016   -0.2394    0.1271 C   0  0  1  0  0  0  0  0  0  0  0  0
    0.6995   -0.7619   -0.5275 H   0  0  0  0  0  0  0  0  0  0  0  0
   -0.2283    1.1832   -0.4215 C   0  0  0  0  0  0  0  0  0  0  0  0
   -1.2973    1.3988   -0.4404 H   0  0  0  0  0  0  0  0  0  0  0  0
    0.2487    1.9107    0.2361 H   0  0  0  0  0  0  0  0  0  0  0  0
    0.2910    1.3753   -1.8432 C   0  0  0  0  0  0  0  0  0  0  0  0
   -0.2413    0.9495   -2.8599 O   0  0  0  0  0  0  0  0  0  0  0  0
    1.4389    2.0722   -1.9356 O   0  0  0  0  0  0  0  0  0  0  0  0
    1.6348    2.1325   -2.8711 H   0  0  0  0  0  0  0  0  0  0  0  0
    0.5920   -0.2154    1.5497 C   0  0  0  0  0  0  0  0  0  0  0  0
    1.7860   -0.4596    1.7183 O   0  0  0  0  0  0  0  0  0  0  0  0
   -0.2294    0.0669    2.5672 N   0  0  0  0  0  0  0  0  0  0  0  0
   -1.2130    0.1938    2.3518 H   0  0  0  0  0  0  0  0  0  0  0  0
    0.1836    0.1337    3.9673 C   0  0  0  0  0  0  0  0  0  0  0  0
    1.0451    0.7976    4.0666 H   0  0  0  0  0  0  0  0  0  0  0  0
   -0.6344    0.5115    4.5820 H   0  0  0  0  0  0  0  0  0  0  0  0
    0.4676   -0.8609    4.3157 H   0  0  0  0  0  0  0  0  0  0  0  0
  5  6  2  0  0  0  0
  5  7  1  0  0  0  0
  2  3  1  0  0  0  0
  2  4  1  0  0  0  0
  2  5  1  0  0  0  0
  1  2  1  0  0  0  0
 18 19  2  0  0  0  0
 18 20  1  0  0  0  0
 16 17  1  0  0  0  0
 14 15  2  0  0  0  0
 14 16  1  0  0  0  0
 11 12  1  0  0  0  0
 11 13  1  0  0  0  0
 11 14  1  0  0  0  0
  9 10  1  0  0  0  0
  9 11  1  0  0  0  0
  9 18  1  0  0  0  0
  7  8  1  0  0  0  0
  7  9  1  0  0  0  0
 22 23  1  0  0  0  0
 22 24  1  0  0  0  0
 22 25  1  0  0  0  0
 20 21  1  0  0  0  0
 20 22  1  0  0  0  0
M  END
$$$$
default_name
  -OEChem-02102213163D

 25 24  0     1  0  0  0  0  0999 V2000
   -2.7826   -3.8464    0.7821 H   0  0  0  0  0  0  0  0  0  0  0  0
   -2.8156   -2.8034    0.4711 C   0  0  0  0  0  0  0  0  0  0  0  0
   -3.4336   -2.2354    1.1641 H   0  0  0  0  0  0  0  0  0  0  0  0
   -3.2256   -2.7344   -0.5349 H   0  0  0  0  0  0  0  0  0  0  0  0
   -1.4126   -2.2444    0.4801 C   0  0  0  0  0  0  0  0  0  0  0  0
   -0.4686   -2.9534    0.8001 O   0  0  0  0  0  0  0  0  0  0  0  0
   -1.2736   -0.9704    0.1241 N   0  0  0  0  0  0  0  0  0  0  0  0
   -2.0996   -0.4354   -0.1019 H   0  0  0  0  0  0  0  0  0  0  0  0
   -0.0016   -0.2394    0.1271 C   0  0  1  0  0  0  0  0  0  0  0  0
    0.6995   -0.7619   -0.5275 H   0  0  0  0  0  0  0  0  0  0  0  0
   -0.2283    1.1832   -0.4215 C   0  0  0  0  0  0  0  0  0  0  0  0
   -1.2973    1.3988   -0.4404 H   0  0  0  0  0  0  0  0  0  0  0  0
    0.2487    1.9107    0.2361 H   0  0  0  0  0  0  0  0  0  0  0  0
    0.2910    1.3753   -1.8432 C   0  0  0  0  0  0  0  0  0  0  0  0
   -0.3507    1.1850   -2.8680 O   0  0  0  0  0  0  0  0  0  0  0  0
    1.5714    1.7822   -1.9264 O   0  0  0  0  0  0  0  0  0  0  0  0
    1.7557    1.8796   -2.8611 H   0  0  0  0  0  0  0  0  0  0  0  0
    0.5920   -0.2154    1.5497 C   0  0  0  0  0  0  0  0  0  0  0  0
    1.7860   -0.4596    1.7183 O   0  0  0  0  0  0  0  0  0  0  0  0
   -0.2294    0.0669    2.5672 N   0  0  0  0  0  0  0  0  0  0  0  0
   -1.2130    0.1938    2.3518 H   0  0  0  0  0  0  0  0  0  0  0  0
    0.1836    0.1337    3.9673 C   0  0  0  0  0  0  0  0  0  0  0  0
    1.0451    0.7976    4.0666 H   0  0  0  0  0  0  0  0  0  0  0  0
   -0.6344    0.5115    4.5820 H   0  0  0  0  0  0  0  0  0  0  0  0
    0.4676   -0.8609    4.3157 H   0  0  0  0  0  0  0  0  0  0  0  0
  5  6  2  0  0  0  0
  5  7  1  0  0  0  0
  2  3  1  0  0  0  0
  2  4  1  0  0  0  0
  2  5  1  0  0  0  0
  1  2  1  0  0  0  0
 18 19  2  0  0  0  0
 18 20  1  0  0  0  0
 16 17  1  0  0  0  0
 14 15  2  0  0  0  0
 14 16  1  0  0  0  0
 11 12  1  0  0  0  0
 11 13  1  0  0  0  0
 11 14  1  0  0  0  0
  9 10  1  0  0  0  0
  9 11  1  0  0  0  0
  9 18  1  0  0  0  0
  7  8  1  0  0  0  0
  7  9  1  0  0  0  0
 22 23  1  0  0  0  0
 22 24  1  0  0  0  0
 22 25  1  0  0  0  0
 20 21  1  0  0  0  0
 20 22  1  0  0  0  0
M  END
$$$$
default_name
  -OEChem-02102213163D

 25 24  0     1  0  0  0  0  0999 V2000
   -2.7826   -3.8464    0.7821 H   0  0  0  0  0  0  0  0  0  0  0  0
   -2.8156   -2.8034    0.4711 C   0  0  0  0  0  0  0  0  0  0  0  0
   -3.4336   -2.2354    1.1641 H   0  0  0  0  0  0  0  0  0  0  0  0
   -3.2256   -2.7344   -0.5349 H   0  0  0  0  0  0  0  0  0  0  0  0
   -1.4126   -2.2444    0.4801 C   0  0  0  0  0  0  0  0  0  0  0  0
   -0.4686   -2.9534    0.8001 O   0  0  0  0  0  0  0  0  0  0  0  0
   -1.2736   -0.9704    0.1241 N   0  0  0  0  0  0  0  0  0  0  0  0
   -2.0996   -0.4354   -0.1019 H   0  0  0  0  0  0  0  0  0  0  0  0
   -0.0016   -0.2394    0.1271 C   0  0  1  0  0  0  0  0  0  0  0  0
    0.6995   -0.7619   -0.5275 H   0  0  0  0  0  0  0  0  0  0  0  0
   -0.2283    1.1832   -0.4215 C   0  0  0  0  0  0  0  0  0  0  0  0
   -1.2973    1.3988   -0.4404 H   0  0  0  0  0  0  0  0  0  0  0  0
    0.2487    1.9107    0.2361 H   0  0  0  0  0  0  0  0  0  0  0  0
    0.2910    1.3753   -1.8432 C   0  0  0  0  0  0  0  0  0  0  0  0
   -0.3999    1.4396   -2.8516 O   0  0  0  0  0  0  0  0  0  0  0  0
    1.6298    1.4693   -1.9473 O   0  0  0  0  0  0  0  0  0  0  0  0
    1.8118    1.6054   -2.8777 H   0  0  0  0  0  0  0  0  0  0  0  0
    0.5920   -0.2154    1.5497 C   0  0  0  0  0  0  0  0  0  0  0  0
    1.7860   -0.4596    1.7183 O   0  0  0  0  0  0  0  0  0  0  0  0
   -0.2294    0.0669    2.5672 N   0  0  0  0  0  0  0  0  0  0  0  0
   -1.2130    0.1938    2.3518 H   0  0  0  0  0  0  0  0  0  0  0  0
    0.1836    0.1337    3.9673 C   0  0  0  0  0  0  0  0  0  0  0  0
    1.0451    0.7976    4.0666 H   0  0  0  0  0  0  0  0  0  0  0  0
   -0.6344    0.5115    4.5820 H   0  0  0  0  0  0  0  0  0  0  0  0
    0.4676   -0.8609    4.3157 H   0  0  0  0  0  0  0  0  0  0  0  0
  5  6  2  0  0  0  0
  5  7  1  0  0  0  0
  2  3  1  0  0  0  0
  2  4  1  0  0  0  0
  2  5  1  0  0  0  0
  1  2  1  0  0  0  0
 18 19  2  0  0  0  0
 18 20  1  0  0  0  0
 16 17  1  0  0  0  0
 14 15  2  0  0  0  0
 14 16  1  0  0  0  0
 11 12  1  0  0  0  0
 11 13  1  0  0  0  0
 11 14  1  0  0  0  0
  9 10  1  0  0  0  0
  9 11  1  0  0  0  0
  9 18  1  0  0  0  0
  7  8  1  0  0  0  0
  7  9  1  0  0  0  0
 22 23  1  0  0  0  0
 22 24  1  0  0  0  0
 22 25  1  0  0  0  0
 20 21  1  0  0  0  0
 20 22  1  0  0  0  0
M  END
$$$$
default_name
  -OEChem-02102213163D

 25 24  0     1  0  0  0  0  0999 V2000
   -2.7826   -3.8464    0.7821 H   0  0  0  0  0  0  0  0  0  0  0  0
   -2.8156   -2.8034    0.4711 C   0  0  0  0  0  0  0  0  0  0  0  0
   -3.4336   -2.2354    1.1641 H   0  0  0  0  0  0  0  0  0  0  0  0
   -3.2256   -2.7344   -0.5349 H   0  0  0  0  0  0  0  0  0  0  0  0
   -1.4126   -2.2444    0.4801 C   0  0  0  0  0  0  0  0  0  0  0  0
   -0.4686   -2.9534    0.8001 O   0  0  0  0  0  0  0  0  0  0  0  0
   -1.2736   -0.9704    0.1241 N   0  0  0  0  0  0  0  0  0  0  0  0
   -2.0996   -0.4354   -0.1019 H   0  0  0  0  0  0  0  0  0  0  0  0
   -0.0016   -0.2394    0.1271 C   0  0  1  0  0  0  0  0  0  0  0  0
    0.6995   -0.7619   -0.5275 H   0  0  0  0  0  0  0  0  0  0  0  0
   -0.2283    1.1832   -0.4215 C   0  0  0  0  0  0  0  0  0  0  0  0
   -1.2973    1.3988   -0.4404 H   0  0  0  0  0  0  0  0  0  0  0  0
    0.2487    1.9107    0.2361 H   0  0  0  0  0  0  0  0  0  0  0  0
    0.2910    1.3753   -1.8432 C   0  0  0  0  0  0  0  0  0  0  0  0
   -0.3855    1.6959   -2.8117 O   0  0  0  0  0  0  0  0  0  0  0  0
    1.6100    1.1548   -1.9971 O   0  0  0  0  0  0  0  0  0  0  0  0
    1.7992    1.3284   -2.9197 H   0  0  0  0  0  0  0  0  0  0  0  0
    0.5920   -0.2154    1.5497 C   0  0  0  0  0  0  0  0  0  0  0  0
    1.7860   -0.4596    1.7183 O   0  0  0  0  0  0  0  0  0  0  0  0
   -0.2294    0.0669    2.5672 N   0  0  0  0  0  0  0  0  0  0  0  0
   -1.2130    0.1938    2.3518 H   0  0  0  0  0  0  0  0  0  0  0  0
    0.1836    0.1337    3.9673 C   0  0  0  0  0  0  0  0  0  0  0  0
    1.0451    0.7976    4.0666 H   0  0  0  0  0  0  0  0  0  0  0  0
   -0.6344    0.5115    4.5820 H   0  0  0  0  0  0  0  0  0  0  0  0
    0.4676   -0.8609    4.3157 H   0  0  0  0  0  0  0  0  0  0  0  0
  5  6  2  0  0  0  0
  5  7  1  0  0  0  0
  2  3  1  0  0  0  0
  2  4  1  0  0  0  0
  2  5  1  0  0  0  0
  1  2  1  0  0  0  0
 18 19  2  0  0  0  0
 18 20  1  0  0  0  0
 16 17  1  0  0  0  0
 14 15  2  0  0  0  0
 14 16  1  0  0  0  0
 11 12  1  0  0  0  0
 11 13  1  0  0  0  0
 11 14  1  0  0  0  0
  9 10  1  0  0  0  0
  9 11  1  0  0  0  0
  9 18  1  0  0  0  0
  7  8  1  0  0  0  0
  7  9  1  0  0  0  0
 22 23  1  0  0  0  0
 22 24  1  0  0  0  0
 22 25  1  0  0  0  0
 20 21  1  0  0  0  0
 20 22  1  0  0  0  0
M  END
$$$$
default_name
  -OEChem-02102213163D

 25 24  0     1  0  0  0  0  0999 V2000
   -2.7826   -3.8464    0.7821 H   0  0  0  0  0  0  0  0  0  0  0  0
   -2.8156   -2.8034    0.4711 C   0  0  0  0  0  0  0  0  0  0  0  0
   -3.4336   -2.2354    1.1641 H   0  0  0  0  0  0  0  0  0  0  0  0
   -3.2256   -2.7344   -0.5349 H   0  0  0  0  0  0  0  0  0  0  0  0
   -1.4126   -2.2444    0.4801 C   0  0  0  0  0  0  0  0  0  0  0  0
   -0.4686   -2.9534    0.8001 O   0  0  0  0  0  0  0  0  0  0  0  0
   -1.2736   -0.9704    0.1241 N   0  0  0  0  0  0  0  0  0  0  0  0
   -2.0996   -0.4354   -0.1019 H   0  0  0  0  0  0  0  0  0  0  0  0
   -0.0016   -0.2394    0.1271 C   0  0  1  0  0  0  0  0  0  0  0  0
    0.6995   -0.7619   -0.5275 H   0  0  0  0  0  0  0  0  0  0  0  0
   -0.2283    1.1832   -0.4215 C   0  0  0  0  0  0  0  0  0  0  0  0
   -1.2973    1.3988   -0.4404 H   0  0  0  0  0  0  0  0  0  0  0  0
    0.2487    1.9107    0.2361 H   0  0  0  0  0  0  0  0  0  0  0  0
    0.2910    1.3753   -1.8432 C   0  0  0  0  0  0  0  0  0  0  0  0
   -0.3084    1.9365   -2.7510 O   0  0  0  0  0  0  0  0  0  0  0  0
    1.5134    0.8602   -2.0722 O   0  0  0  0  0  0  0  0  0  0  0  0
    1.7189    1.0675   -2.9843 H   0  0  0  0  0  0  0  0  0  0  0  0
    0.5920   -0.2154    1.5497 C   0  0  0  0  0  0  0  0  0  0  0  0
    1.7860   -0.4596    1.7183 O   0  0  0  0  0  0  0  0  0  0  0  0
   -0.2294    0.0669    2.5672 N   0  0  0  0  0  0  0  0  0  0  0  0
   -1.2130    0.1938    2.3518 H   0  0  0  0  0  0  0  0  0  0  0  0
    0.1836    0.1337    3.9673 C   0  0  0  0  0  0  0  0  0  0  0  0
    1.0451    0.7976    4.0666 H   0  0  0  0  0  0  0  0  0  0  0  0
   -0.6344    0.5115    4.5820 H   0  0  0  0  0  0  0  0  0  0  0  0
    0.4676   -0.8609    4.3157 H   0  0  0  0  0  0  0  0  0  0  0  0
  5  6  2  0  0  0  0
  5  7  1  0  0  0  0
  2  3  1  0  0  0  0
  2  4  1  0  0  0  0
  2  5  1  0  0  0  0
  1  2  1  0  0  0  0
 18 19  2  0  0  0  0
 18 20  1  0  0  0  0
 16 17  1  0  0  0  0
 14 15  2  0  0  0  0
 14 16  1  0  0  0  0
 11 12  1  0  0  0  0
 11 13  1  0  0  0  0
 11 14  1  0  0  0  0
  9 10  1  0  0  0  0
  9 11  1  0  0  0  0
  9 18  1  0  0  0  0
  7  8  1  0  0  0  0
  7  9  1  0  0  0  0
 22 23  1  0  0  0  0
 22 24  1  0  0  0  0
 22 25  1  0  0  0  0
 20 21  1  0  0  0  0
 20 22  1  0  0  0  0
M  END
$$$$
default_name
  -OEChem-02102213163D

 25 24  0     1  0  0  0  0  0999 V2000
   -2.7826   -3.8464    0.7821 H   0  0  0  0  0  0  0  0  0  0  0  0
   -2.8156   -2.8034    0.4711 C   0  0  0  0  0  0  0  0  0  0  0  0
   -3.4336   -2.2354    1.1641 H   0  0  0  0  0  0  0  0  0  0  0  0
   -3.2256   -2.7344   -0.5349 H   0  0  0  0  0  0  0  0  0  0  0  0
   -1.4126   -2.2444    0.4801 C   0  0  0  0  0  0  0  0  0  0  0  0
   -0.4686   -2.9534    0.8001 O   0  0  0  0  0  0  0  0  0  0  0  0
   -1.2736   -0.9704    0.1241 N   0  0  0  0  0  0  0  0  0  0  0  0
   -2.0996   -0.4354   -0.1019 H   0  0  0  0  0  0  0  0  0  0  0  0
   -0.0016   -0.2394    0.1271 C   0  0  1  0  0  0  0  0  0  0  0  0
    0.6995   -0.7619   -0.5275 H   0  0  0  0  0  0  0  0  0  0  0  0
   -0.2283    1.1832   -0.4215 C   0  0  0  0  0  0  0  0  0  0  0  0
   -1.2973    1.3988   -0.4404 H   0  0  0  0  0  0  0  0  0  0  0  0
    0.2487    1.9107    0.2361 H   0  0  0  0  0  0  0  0  0  0  0  0
    0.2910    1.3753   -1.8432 C   0  0  0  0  0  0  0  0  0  0  0  0
   -0.1739    2.1450   -2.6737 O   0  0  0  0  0  0  0  0  0  0  0  0
    1.3466    0.6055   -2.1675 O   0  0  0  0  0  0  0  0  0  0  0  0
    1.5764    0.8407   -3.0670 H   0  0  0  0  0  0  0  0  0  0  0  0
    0.5920   -0.2154    1.5497 C   0  0  0  0  0  0  0  0  0  0  0  0
    1.7860   -0.4596    1.7183 O   0  0  0  0  0  0  0  0  0  0  0  0
   -0.2294    0.0669    2.5672 N   0  0  0  0  0  0  0  0  0  0  0  0
   -1.2130    0.1938    2.3518 H   0  0  0  0  0  0  0  0  0  0  0  0
    0.1836    0.1337    3.9673 C   0  0  0  0  0  0  0  0  0  0  0  0
    1.0451    0.7976    4.0666 H   0  0  0  0  0  0  0  0  0  0  0  0
   -0.6344    0.5115    4.5820 H   0  0  0  0  0  0  0  0  0  0  0  0
    0.4676   -0.8609    4.3157 H   0  0  0  0  0  0  0  0  0  0  0  0
  5  6  2  0  0  0  0
  5  7  1  0  0  0  0
  2  3  1  0  0  0  0
  2  4  1  0  0  0  0
  2  5  1  0  0  0  0
  1  2  1  0  0  0  0
 18 19  2  0  0  0  0
 18 20  1  0  0  0  0
 16 17  1  0  0  0  0
 14 15  2  0  0  0  0
 14 16  1  0  0  0  0
 11 12  1  0  0  0  0
 11 13  1  0  0  0  0
 11 14  1  0  0  0  0
  9 10  1  0  0  0  0
  9 11  1  0  0  0  0
  9 18  1  0  0  0  0
  7  8  1  0  0  0  0
  7  9  1  0  0  0  0
 22 23  1  0  0  0  0
 22 24  1  0  0  0  0
 22 25  1  0  0  0  0
 20 21  1  0  0  0  0
 20 22  1  0  0  0  0
M  END
$$$$
default_name
  -OEChem-02102213163D

 25 24  0     1  0  0  0  0  0999 V2000
   -2.7826   -3.8464    0.7821 H   0  0  0  0  0  0  0  0  0  0  0  0
   -2.8156   -2.8034    0.4711 C   0  0  0  0  0  0  0  0  0  0  0  0
   -3.4336   -2.2354    1.1641 H   0  0  0  0  0  0  0  0  0  0  0  0
   -3.2256   -2.7344   -0.5349 H   0  0  0  0  0  0  0  0  0  0  0  0
   -1.4126   -2.2444    0.4801 C   0  0  0  0  0  0  0  0  0  0  0  0
   -0.4686   -2.9534    0.8001 O   0  0  0  0  0  0  0  0  0  0  0  0
   -1.2736   -0.9704    0.1241 N   0  0  0  0  0  0  0  0  0  0  0  0
   -2.0996   -0.4354   -0.1019 H   0  0  0  0  0  0  0  0  0  0  0  0
   -0.0016   -0.2394    0.1271 C   0  0  1  0  0  0  0  0  0  0  0  0
    0.6995   -0.7619   -0.5275 H   0  0  0  0  0  0  0  0  0  0  0  0
   -0.2283    1.1832   -0.4215 C   0  0  0  0  0  0  0  0  0  0  0  0
   -1.2973    1.3988   -0.4404 H   0  0  0  0  0  0  0  0  0  0  0  0
    0.2487    1.9107    0.2361 H   0  0  0  0  0  0  0  0  0  0  0  0
    0.2910    1.3753   -1.8432 C   0  0  0  0  0  0  0  0  0  0  0  0
    0.0087    2.3071   -2.5851 O   0  0  0  0  0  0  0  0  0  0  0  0
    1.1209    0.4082   -2.2766 O   0  0  0  0  0  0  0  0  0  0  0  0
    1.3813    0.6632   -3.1623 H   0  0  0  0  0  0  0  0  0  0  0  0
    0.5920   -0.2154    1.5497 C   0  0  0  0  0  0  0  0  0  0  0  0
    1.7860   -0.4596    1.7183 O   0  0  0  0  0  0  0  0  0  0  0  0
   -0.2294    0.0669    2.5672 N   0  0  0  0  0  0  0  0  0  0  0  0
   -1.2130    0.1938    2.3518 H   0  0  0  0  0  0  0  0  0  0  0  0
    0.1836    0.1337    3.9673 C   0  0  0  0  0  0  0  0  0  0  0  0
    1.0451    0.7976    4.0666 H   0  0  0  0  0  0  0  0  0  0  0  0
   -0.6344    0.5115    4.5820 H   0  0  0  0  0  0  0  0  0  0  0  0
    0.4676   -0.8609    4.3157 H   0  0  0  0  0  0  0  0  0  0  0  0
  5  6  2  0  0  0  0
  5  7  1  0  0  0  0
  2  3  1  0  0  0  0
  2  4  1  0  0  0  0
  2  5  1  0  0  0  0
  1  2  1  0  0  0  0
 18 19  2  0  0  0  0
 18 20  1  0  0  0  0
 16 17  1  0  0  0  0
 14 15  2  0  0  0  0
 14 16  1  0  0  0  0
 11 12  1  0  0  0  0
 11 13  1  0  0  0  0
 11 14  1  0  0  0  0
  9 10  1  0  0  0  0
  9 11  1  0  0  0  0
  9 18  1  0  0  0  0
  7  8  1  0  0  0  0
  7  9  1  0  0  0  0
 22 23  1  0  0  0  0
 22 24  1  0  0  0  0
 22 25  1  0  0  0  0
 20 21  1  0  0  0  0
 20 22  1  0  0  0  0
M  END
$$$$
default_name
  -OEChem-02102213163D

 25 24  0     1  0  0  0  0  0999 V2000
   -2.7826   -3.8464    0.7821 H   0  0  0  0  0  0  0  0  0  0  0  0
   -2.8156   -2.8034    0.4711 C   0  0  0  0  0  0  0  0  0  0  0  0
   -3.4336   -2.2354    1.1641 H   0  0  0  0  0  0  0  0  0  0  0  0
   -3.2256   -2.7344   -0.5349 H   0  0  0  0  0  0  0  0  0  0  0  0
   -1.4126   -2.2444    0.4801 C   0  0  0  0  0  0  0  0  0  0  0  0
   -0.4686   -2.9534    0.8001 O   0  0  0  0  0  0  0  0  0  0  0  0
   -1.2736   -0.9704    0.1241 N   0  0  0  0  0  0  0  0  0  0  0  0
   -2.0996   -0.4354   -0.1019 H   0  0  0  0  0  0  0  0  0  0  0  0
   -0.0016   -0.2394    0.1271 C   0  0  1  0  0  0  0  0  0  0  0  0
    0.6995   -0.7619   -0.5275 H   0  0  0  0  0  0  0  0  0  0  0  0
   -0.2283    1.1832   -0.4215 C   0  0  0  0  0  0  0  0  0  0  0  0
   -1.2473    1.5007   -0.1970 H   0  0  0  0  0  0  0  0  0  0  0  0
    0.4547    1.8785    0.0677 H   0  0  0  0  0  0  0  0  0  0  0  0
   -0.0516    1.2859   -1.9335 C   0  0  0  0  0  0  0  0  0  0  0  0
   -0.1786    2.3060   -2.5980 O   0  0  0  0  0  0  0  0  0  0  0  0
    0.2627    0.1287   -2.5450 O   0  0  0  0  0  0  0  0  0  0  0  0
    0.3615    0.3410   -3.4737 H   0  0  0  0  0  0  0  0  0  0  0  0
    0.5920   -0.2154    1.5497 C   0  0  0  0  0  0  0  0  0  0  0  0
    1.7860   -0.4596    1.7183 O   0  0  0  0  0  0  0  0  0  0  0  0
   -0.2294    0.0669    2.5672 N   0  0  0  0  0  0  0  0  0  0  0  0
   -1.2130    0.1938    2.3518 H   0  0  0  0  0  0  0  0  0  0  0  0
    0.1836    0.1337    3.9673 C   0  0  0  0  0  0  0  0  0  0  0  0
    1.0451    0.7976    4.0666 H   0  0  0  0  0  0  0  0  0  0  0  0
   -0.6344    0.5115    4.5820 H   0  0  0  0  0  0  0  0  0  0  0  0
    0.4676   -0.8609    4.3157 H   0  0  0  0  0  0  0  0  0  0  0  0
  5  6  2  0  0  0  0
  5  7  1  0  0  0  0
  2  3  1  0  0  0  0
  2  4  1  0  0  0  0
  2  5  1  0  0  0  0
  1  2  1  0  0  0  0
 18 19  2  0  0  0  0
 18 20  1  0  0  0  0
 16 17  1  0  0  0  0
 14 15  2  0  0  0  0
 14 16  1  0  0  0  0
 11 12  1  0  0  0  0
 11 13  1  0  0  0  0
 11 14  1  0  0  0  0
  9 10  1  0  0  0  0
  9 11  1  0  0  0  0
  9 18  1  0  0  0  0
  7  8  1  0  0  0  0
  7  9  1  0  0  0  0
 22 23  1  0  0  0  0
 22 24  1  0  0  0  0
 22 25  1  0  0  0  0
 20 21  1  0  0  0  0
 20 22  1  0  0  0  0
M  END
$$$$
default_name
  -OEChem-02102213163D

 25 24  0     1  0  0  0  0  0999 V2000
   -2.7826   -3.8464    0.7821 H   0  0  0  0  0  0  0  0  0  0  0  0
   -2.8156   -2.8034    0.4711 C   0  0  0  0  0  0  0  0  0  0  0  0
   -3.4336   -2.2354    1.1641 H   0  0  0  0  0  0  0  0  0  0  0  0
   -3.2256   -2.7344   -0.5349 H   0  0  0  0  0  0  0  0  0  0  0  0
   -1.4126   -2.2444    0.4801 C   0  0  0  0  0  0  0  0  0  0  0  0
   -0.4686   -2.9534    0.8001 O   0  0  0  0  0  0  0  0  0  0  0  0
   -1.2736   -0.9704    0.1241 N   0  0  0  0  0  0  0  0  0  0  0  0
   -2.0996   -0.4354   -0.1019 H   0  0  0  0  0  0  0  0  0  0  0  0
   -0.0016   -0.2394    0.1271 C   0  0  1  0  0  0  0  0  0  0  0  0
    0.6995   -0.7619   -0.5275 H   0  0  0  0  0  0  0  0  0  0  0  0
   -0.2283    1.1832   -0.4215 C   0  0  0  0  0  0  0  0  0  0  0  0
   -1.2473    1.5007   -0.1970 H   0  0  0  0  0  0  0  0  0  0  0  0
    0.4547    1.8785    0.0677 H   0  0  0  0  0  0  0  0  0  0  0  0
   -0.0516    1.2859   -1.9335 C   0  0  0  0  0  0  0  0  0  0  0  0
    0.0786    2.3253   -2.5667 O   0  0  0  0  0  0  0  0  0  0  0  0
   -0.0532    0.1071   -2.5834 O   0  0  0  0  0  0  0  0  0  0  0  0
    0.0842    0.3169   -3.5077 H   0  0  0  0  0  0  0  0  0  0  0  0
    0.5920   -0.2154    1.5497 C   0  0  0  0  0  0  0  0  0  0  0  0
    1.7860   -0.4596    1.7183 O   0  0  0  0  0  0  0  0  0  0  0  0
   -0.2294    0.0669    2.5672 N   0  0  0  0  0  0  0  0  0  0  0  0
   -1.2130    0.1938    2.3518 H   0  0  0  0  0  0  0  0  0  0  0  0
    0.1836    0.1337    3.9673 C   0  0  0  0  0  0  0  0  0  0  0  0
    1.0451    0.7976    4.0666 H   0  0  0  0  0  0  0  0  0  0  0  0
   -0.6344    0.5115    4.5820 H   0  0  0  0  0  0  0  0  0  0  0  0
    0.4676   -0.8609    4.3157 H   0  0  0  0  0  0  0  0  0  0  0  0
  5  6  2  0  0  0  0
  5  7  1  0  0  0  0
  2  3  1  0  0  0  0
  2  4  1  0  0  0  0
  2  5  1  0  0  0  0
  1  2  1  0  0  0  0
 18 19  2  0  0  0  0
 18 20  1  0  0  0  0
 16 17  1  0  0  0  0
 14 15  2  0  0  0  0
 14 16  1  0  0  0  0
 11 12  1  0  0  0  0
 11 13  1  0  0  0  0
 11 14  1  0  0  0  0
  9 10  1  0  0  0  0
  9 11  1  0  0  0  0
  9 18  1  0  0  0  0
  7  8  1  0  0  0  0
  7  9  1  0  0  0  0
 22 23  1  0  0  0  0
 22 24  1  0  0  0  0
 22 25  1  0  0  0  0
 20 21  1  0  0  0  0
 20 22  1  0  0  0  0
M  END
$$$$
default_name
  -OEChem-02102213163D

 25 24  0     1  0  0  0  0  0999 V2000
   -2.7826   -3.8464    0.7821 H   0  0  0  0  0  0  0  0  0  0  0  0
   -2.8156   -2.8034    0.4711 C   0  0  0  0  0  0  0  0  0  0  0  0
   -3.4336   -2.2354    1.1641 H   0  0  0  0  0  0  0  0  0  0  0  0
   -3.2256   -2.7344   -0.5349 H   0  0  0  0  0  0  0  0  0  0  0  0
   -1.4126   -2.2444    0.4801 C   0  0  0  0  0  0  0  0  0  0  0  0
   -0.4686   -2.9534    0.8001 O   0  0  0  0  0  0  0  0  0  0  0  0
   -1.2736   -0.9704    0.1241 N   0  0  0  0  0  0  0  0  0  0  0  0
   -2.0996   -0.4354   -0.1019 H   0  0  0  0  0  0  0  0  0  0  0  0
   -0.0016   -0.2394    0.1271 C   0  0  1  0  0  0  0  0  0  0  0  0
    0.6995   -0.7619   -0.5275 H   0  0  0  0  0  0  0  0  0  0  0  0
   -0.2283    1.1832   -0.4215 C   0  0  0  0  0  0  0  0  0  0  0  0
   -1.2473    1.5007   -0.1970 H   0  0  0  0  0  0  0  0  0  0  0  0
    0.4547    1.8785    0.0677 H   0  0  0  0  0  0  0  0  0  0  0  0
   -0.0516    1.2859   -1.9335 C   0  0  0  0  0  0  0  0  0  0  0  0
    0.3325    2.2771   -2.5403 O   0  0  0  0  0  0  0  0  0  0  0  0
   -0.3646    0.1685   -2.6156 O   0  0  0  0  0  0  0  0  0  0  0  0
   -0.1905    0.3657   -3.5365 H   0  0  0  0  0  0  0  0  0  0  0  0
    0.5920   -0.2154    1.5497 C   0  0  0  0  0  0  0  0  0  0  0  0
    1.7860   -0.4596    1.7183 O   0  0  0  0  0  0  0  0  0  0  0  0
   -0.2294    0.0669    2.5672 N   0  0  0  0  0  0  0  0  0  0  0  0
   -1.2130    0.1938    2.3518 H   0  0  0  0  0  0  0  0  0  0  0  0
    0.1836    0.1337    3.9673 C   0  0  0  0  0  0  0  0  0  0  0  0
    1.0451    0.7976    4.0666 H   0  0  0  0  0  0  0  0  0  0  0  0
   -0.6344    0.5115    4.5820 H   0  0  0  0  0  0  0  0  0  0  0  0
    0.4676   -0.8609    4.3157 H   0  0  0  0  0  0  0  0  0  0  0  0
  5  6  2  0  0  0  0
  5  7  1  0  0  0  0
  2  3  1  0  0  0  0
  2  4  1  0  0  0  0
  2  5  1  0  0  0  0
  1  2  1  0  0  0  0
 18 19  2  0  0  0  0
 18 20  1  0  0  0  0
 16 17  1  0  0  0  0
 14 15  2  0  0  0  0
 14 16  1  0  0  0  0
 11 12  1  0  0  0  0
 11 13  1  0  0  0  0
 11 14  1  0  0  0  0
  9 10  1  0  0  0  0
  9 11  1  0  0  0  0
  9 18  1  0  0  0  0
  7  8  1  0  0  0  0
  7  9  1  0  0  0  0
 22 23  1  0  0  0  0
 22 24  1  0  0  0  0
 22 25  1  0  0  0  0
 20 21  1  0  0  0  0
 20 22  1  0  0  0  0
M  END
$$$$
default_name
  -OEChem-02102213163D

 25 24  0     1  0  0  0  0  0999 V2000
   -2.7826   -3.8464    0.7821 H   0  0  0  0  0  0  0  0  0  0  0  0
   -2.8156   -2.8034    0.4711 C   0  0  0  0  0  0  0  0  0  0  0  0
   -3.4336   -2.2354    1.1641 H   0  0  0  0  0  0  0  0  0  0  0  0
   -3.2256   -2.7344   -0.5349 H   0  0  0  0  0  0  0  0  0  0  0  0
   -1.4126   -2.2444    0.4801 C   0  0  0  0  0  0  0  0  0  0  0  0
   -0.4686   -2.9534    0.8001 O   0  0  0  0  0  0  0  0  0  0  0  0
   -1.2736   -0.9704    0.1241 N   0  0  0  0  0  0  0  0  0  0  0  0
   -2.0996   -0.4354   -0.1019 H   0  0  0  0  0  0  0  0  0  0  0  0
   -0.0016   -0.2394    0.1271 C   0  0  1  0  0  0  0  0  0  0  0  0
    0.6995   -0.7619   -0.5275 H   0  0  0  0  0  0  0  0  0  0  0  0
   -0.2283    1.1832   -0.4215 C   0  0  0  0  0  0  0  0  0  0  0  0
   -1.2473    1.5007   -0.1970 H   0  0  0  0  0  0  0  0  0  0  0  0
    0.4547    1.8785    0.0677 H   0  0  0  0  0  0  0  0  0  0  0  0
   -0.0516    1.2859   -1.9335 C   0  0  0  0  0  0  0  0  0  0  0  0
    0.5659    2.1646   -2.5206 O   0  0  0  0  0  0  0  0  0  0  0  0
   -0.6502    0.3086   -2.6395 O   0  0  0  0  0  0  0  0  0  0  0  0
   -0.4437    0.4842   -3.5581 H   0  0  0  0  0  0  0  0  0  0  0  0
    0.5920   -0.2154    1.5497 C   0  0  0  0  0  0  0  0  0  0  0  0
    1.7860   -0.4596    1.7183 O   0  0  0  0  0  0  0  0  0  0  0  0
   -0.2294    0.0669    2.5672 N   0  0  0  0  0  0  0  0  0  0  0  0
   -1.2130    0.1938    2.3518 H   0  0  0  0  0  0  0  0  0  0  0  0
    0.1836    0.1337    3.9673 C   0  0  0  0  0  0  0  0  0  0  0  0
    1.0451    0.7976    4.0666 H   0  0  0  0  0  0  0  0  0  0  0  0
   -0.6344    0.5115    4.5820 H   0  0  0  0  0  0  0  0  0  0  0  0
    0.4676   -0.8609    4.3157 H   0  0  0  0  0  0  0  0  0  0  0  0
  5  6  2  0  0  0  0
  5  7  1  0  0  0  0
  2  3  1  0  0  0  0
  2  4  1  0  0  0  0
  2  5  1  0  0  0  0
  1  2  1  0  0  0  0
 18 19  2  0  0  0  0
 18 20  1  0  0  0  0
 16 17  1  0  0  0  0
 14 15  2  0  0  0  0
 14 16  1  0  0  0  0
 11 12  1  0  0  0  0
 11 13  1  0  0  0  0
 11 14  1  0  0  0  0
  9 10  1  0  0  0  0
  9 11  1  0  0  0  0
  9 18  1  0  0  0  0
  7  8  1  0  0  0  0
  7  9  1  0  0  0  0
 22 23  1  0  0  0  0
 22 24  1  0  0  0  0
 22 25  1  0  0  0  0
 20 21  1  0  0  0  0
 20 22  1  0  0  0  0
M  END
$$$$
default_name
  -OEChem-02102213163D

 25 24  0     1  0  0  0  0  0999 V2000
   -2.7826   -3.8464    0.7821 H   0  0  0  0  0  0  0  0  0  0  0  0
   -2.8156   -2.8034    0.4711 C   0  0  0  0  0  0  0  0  0  0  0  0
   -3.4336   -2.2354    1.1641 H   0  0  0  0  0  0  0  0  0  0  0  0
   -3.2256   -2.7344   -0.5349 H   0  0  0  0  0  0  0  0  0  0  0  0
   -1.4126   -2.2444    0.4801 C   0  0  0  0  0  0  0  0  0  0  0  0
   -0.4686   -2.9534    0.8001 O   0  0  0  0  0  0  0  0  0  0  0  0
   -1.2736   -0.9704    0.1241 N   0  0  0  0  0  0  0  0  0  0  0  0
   -2.0996   -0.4354   -0.1019 H   0  0  0  0  0  0  0  0  0  0  0  0
   -0.0016   -0.2394    0.1271 C   0  0  1  0  0  0  0  0  0  0  0  0
    0.6995   -0.7619   -0.5275 H   0  0  0  0  0  0  0  0  0  0  0  0
   -0.2283    1.1832   -0.4215 C   0  0  0  0  0  0  0  0  0  0  0  0
   -1.2473    1.5007   -0.1970 H   0  0  0  0  0  0  0  0  0  0  0  0
    0.4547    1.8785    0.0677 H   0  0  0  0  0  0  0  0  0  0  0  0
   -0.0516    1.2859   -1.9335 C   0  0  0  0  0  0  0  0  0  0  0  0
    0.7628    1.9955   -2.5091 O   0  0  0  0  0  0  0  0  0  0  0  0
   -0.8906    0.5179   -2.6534 O   0  0  0  0  0  0  0  0  0  0  0  0
   -0.6584    0.6642   -3.5709 H   0  0  0  0  0  0  0  0  0  0  0  0
    0.5920   -0.2154    1.5497 C   0  0  0  0  0  0  0  0  0  0  0  0
    1.7860   -0.4596    1.7183 O   0  0  0  0  0  0  0  0  0  0  0  0
   -0.2294    0.0669    2.5672 N   0  0  0  0  0  0  0  0  0  0  0  0
   -1.2130    0.1938    2.3518 H   0  0  0  0  0  0  0  0  0  0  0  0
    0.1836    0.1337    3.9673 C   0  0  0  0  0  0  0  0  0  0  0  0
    1.0451    0.7976    4.0666 H   0  0  0  0  0  0  0  0  0  0  0  0
   -0.6344    0.5115    4.5820 H   0  0  0  0  0  0  0  0  0  0  0  0
    0.4676   -0.8609    4.3157 H   0  0  0  0  0  0  0  0  0  0  0  0
  5  6  2  0  0  0  0
  5  7  1  0  0  0  0
  2  3  1  0  0  0  0
  2  4  1  0  0  0  0
  2  5  1  0  0  0  0
  1  2  1  0  0  0  0
 18 19  2  0  0  0  0
 18 20  1  0  0  0  0
 16 17  1  0  0  0  0
 14 15  2  0  0  0  0
 14 16  1  0  0  0  0
 11 12  1  0  0  0  0
 11 13  1  0  0  0  0
 11 14  1  0  0  0  0
  9 10  1  0  0  0  0
  9 11  1  0  0  0  0
  9 18  1  0  0  0  0
  7  8  1  0  0  0  0
  7  9  1  0  0  0  0
 22 23  1  0  0  0  0
 22 24  1  0  0  0  0
 22 25  1  0  0  0  0
 20 21  1  0  0  0  0
 20 22  1  0  0  0  0
M  END
$$$$
default_name
  -OEChem-02102213163D

 25 24  0     1  0  0  0  0  0999 V2000
   -2.7826   -3.8464    0.7821 H   0  0  0  0  0  0  0  0  0  0  0  0
   -2.8156   -2.8034    0.4711 C   0  0  0  0  0  0  0  0  0  0  0  0
   -3.4336   -2.2354    1.1641 H   0  0  0  0  0  0  0  0  0  0  0  0
   -3.2256   -2.7344   -0.5349 H   0  0  0  0  0  0  0  0  0  0  0  0
   -1.4126   -2.2444    0.4801 C   0  0  0  0  0  0  0  0  0  0  0  0
   -0.4686   -2.9534    0.8001 O   0  0  0  0  0  0  0  0  0  0  0  0
   -1.2736   -0.9704    0.1241 N   0  0  0  0  0  0  0  0  0  0  0  0
   -2.0996   -0.4354   -0.1019 H   0  0  0  0  0  0  0  0  0  0  0  0
   -0.0016   -0.2394    0.1271 C   0  0  1  0  0  0  0  0  0  0  0  0
    0.6995   -0.7619   -0.5275 H   0  0  0  0  0  0  0  0  0  0  0  0
   -0.2283    1.1832   -0.4215 C   0  0  0  0  0  0  0  0  0  0  0  0
   -1.2473    1.5007   -0.1970 H   0  0  0  0  0  0  0  0  0  0  0  0
    0.4547    1.8785    0.0677 H   0  0  0  0  0  0  0  0  0  0  0  0
   -0.0516    1.2859   -1.9335 C   0  0  0  0  0  0  0  0  0  0  0  0
    0.9099    1.7813   -2.5065 O   0  0  0  0  0  0  0  0  0  0  0  0
   -1.0693    0.7821   -2.6563 O   0  0  0  0  0  0  0  0  0  0  0  0
   -0.8197    0.8936   -3.5742 H   0  0  0  0  0  0  0  0  0  0  0  0
    0.5920   -0.2154    1.5497 C   0  0  0  0  0  0  0  0  0  0  0  0
    1.7860   -0.4596    1.7183 O   0  0  0  0  0  0  0  0  0  0  0  0
   -0.2294    0.0669    2.5672 N   0  0  0  0  0  0  0  0  0  0  0  0
   -1.2130    0.1938    2.3518 H   0  0  0  0  0  0  0  0  0  0  0  0
    0.1836    0.1337    3.9673 C   0  0  0  0  0  0  0  0  0  0  0  0
    1.0451    0.7976    4.0666 H   0  0  0  0  0  0  0  0  0  0  0  0
   -0.6344    0.5115    4.5820 H   0  0  0  0  0  0  0  0  0  0  0  0
    0.4676   -0.8609    4.3157 H   0  0  0  0  0  0  0  0  0  0  0  0
  5  6  2  0  0  0  0
  5  7  1  0  0  0  0
  2  3  1  0  0  0  0
  2  4  1  0  0  0  0
  2  5  1  0  0  0  0
  1  2  1  0  0  0  0
 18 19  2  0  0  0  0
 18 20  1  0  0  0  0
 16 17  1  0  0  0  0
 14 15  2  0  0  0  0
 14 16  1  0  0  0  0
 11 12  1  0  0  0  0
 11 13  1  0  0  0  0
 11 14  1  0  0  0  0
  9 10  1  0  0  0  0
  9 11  1  0  0  0  0
  9 18  1  0  0  0  0
  7  8  1  0  0  0  0
  7  9  1  0  0  0  0
 22 23  1  0  0  0  0
 22 24  1  0  0  0  0
 22 25  1  0  0  0  0
 20 21  1  0  0  0  0
 20 22  1  0  0  0  0
M  END
$$$$
default_name
  -OEChem-02102213163D

 25 24  0     1  0  0  0  0  0999 V2000
   -2.7826   -3.8464    0.7821 H   0  0  0  0  0  0  0  0  0  0  0  0
   -2.8156   -2.8034    0.4711 C   0  0  0  0  0  0  0  0  0  0  0  0
   -3.4336   -2.2354    1.1641 H   0  0  0  0  0  0  0  0  0  0  0  0
   -3.2256   -2.7344   -0.5349 H   0  0  0  0  0  0  0  0  0  0  0  0
   -1.4126   -2.2444    0.4801 C   0  0  0  0  0  0  0  0  0  0  0  0
   -0.4686   -2.9534    0.8001 O   0  0  0  0  0  0  0  0  0  0  0  0
   -1.2736   -0.9704    0.1241 N   0  0  0  0  0  0  0  0  0  0  0  0
   -2.0996   -0.4354   -0.1019 H   0  0  0  0  0  0  0  0  0  0  0  0
   -0.0016   -0.2394    0.1271 C   0  0  1  0  0  0  0  0  0  0  0  0
    0.6995   -0.7619   -0.5275 H   0  0  0  0  0  0  0  0  0  0  0  0
   -0.2283    1.1832   -0.4215 C   0  0  0  0  0  0  0  0  0  0  0  0
   -1.2473    1.5007   -0.1970 H   0  0  0  0  0  0  0  0  0  0  0  0
    0.4547    1.8785    0.0677 H   0  0  0  0  0  0  0  0  0  0  0  0
   -0.0516    1.2859   -1.9335 C   0  0  0  0  0  0  0  0  0  0  0  0
    0.9970    1.5367   -2.5129 O   0  0  0  0  0  0  0  0  0  0  0  0
   -1.1742    1.0832   -2.6481 O   0  0  0  0  0  0  0  0  0  0  0  0
   -0.9168    1.1566   -3.5677 H   0  0  0  0  0  0  0  0  0  0  0  0
    0.5920   -0.2154    1.5497 C   0  0  0  0  0  0  0  0  0  0  0  0
    1.7860   -0.4596    1.7183 O   0  0  0  0  0  0  0  0  0  0  0  0
   -0.2294    0.0669    2.5672 N   0  0  0  0  0  0  0  0  0  0  0  0
   -1.2130    0.1938    2.3518 H   0  0  0  0  0  0  0  0  0  0  0  0
    0.1836    0.1337    3.9673 C   0  0  0  0  0  0  0  0  0  0  0  0
    1.0451    0.7976    4.0666 H   0  0  0  0  0  0  0  0  0  0  0  0
   -0.6344    0.5115    4.5820 H   0  0  0  0  0  0  0  0  0  0  0  0
    0.4676   -0.8609    4.3157 H   0  0  0  0  0  0  0  0  0  0  0  0
  5  6  2  0  0  0  0
  5  7  1  0  0  0  0
  2  3  1  0  0  0  0
  2  4  1  0  0  0  0
  2  5  1  0  0  0  0
  1  2  1  0  0  0  0
 18 19  2  0  0  0  0
 18 20  1  0  0  0  0
 16 17  1  0  0  0  0
 14 15  2  0  0  0  0
 14 16  1  0  0  0  0
 11 12  1  0  0  0  0
 11 13  1  0  0  0  0
 11 14  1  0  0  0  0
  9 10  1  0  0  0  0
  9 11  1  0  0  0  0
  9 18  1  0  0  0  0
  7  8  1  0  0  0  0
  7  9  1  0  0  0  0
 22 23  1  0  0  0  0
 22 24  1  0  0  0  0
 22 25  1  0  0  0  0
 20 21  1  0  0  0  0
 20 22  1  0  0  0  0
M  END
$$$$
default_name
  -OEChem-02102213163D

 25 24  0     1  0  0  0  0  0999 V2000
   -2.7826   -3.8464    0.7821 H   0  0  0  0  0  0  0  0  0  0  0  0
   -2.8156   -2.8034    0.4711 C   0  0  0  0  0  0  0  0  0  0  0  0
   -3.4336   -2.2354    1.1641 H   0  0  0  0  0  0  0  0  0  0  0  0
   -3.2256   -2.7344   -0.5349 H   0  0  0  0  0  0  0  0  0  0  0  0
   -1.4126   -2.2444    0.4801 C   0  0  0  0  0  0  0  0  0  0  0  0
   -0.4686   -2.9534    0.8001 O   0  0  0  0  0  0  0  0  0  0  0  0
   -1.2736   -0.9704    0.1241 N   0  0  0  0  0  0  0  0  0  0  0  0
   -2.0996   -0.4354   -0.1019 H   0  0  0  0  0  0  0  0  0  0  0  0
   -0.0016   -0.2394    0.1271 C   0  0  1  0  0  0  0  0  0  0  0  0
    0.6995   -0.7619   -0.5275 H   0  0  0  0  0  0  0  0  0  0  0  0
   -0.2283    1.1832   -0.4215 C   0  0  0  0  0  0  0  0  0  0  0  0
   -1.2473    1.5007   -0.1970 H   0  0  0  0  0  0  0  0  0  0  0  0
    0.4547    1.8785    0.0677 H   0  0  0  0  0  0  0  0  0  0  0  0
   -0.0516    1.2859   -1.9335 C   0  0  0  0  0  0  0  0  0  0  0  0
    1.0183    1.2782   -2.5280 O   0  0  0  0  0  0  0  0  0  0  0  0
   -1.1982    1.4008   -2.6293 O   0  0  0  0  0  0  0  0  0  0  0  0
   -0.9430    1.4353   -3.5518 H   0  0  0  0  0  0  0  0  0  0  0  0
    0.5920   -0.2154    1.5497 C   0  0  0  0  0  0  0  0  0  0  0  0
    1.7860   -0.4596    1.7183 O   0  0  0  0  0  0  0  0  0  0  0  0
   -0.2294    0.0669    2.5672 N   0  0  0  0  0  0  0  0  0  0  0  0
   -1.2130    0.1938    2.3518 H   0  0  0  0  0  0  0  0  0  0  0  0
    0.1836    0.1337    3.9673 C   0  0  0  0  0  0  0  0  0  0  0  0
    1.0451    0.7976    4.0666 H   0  0  0  0  0  0  0  0  0  0  0  0
   -0.6344    0.5115    4.5820 H   0  0  0  0  0  0  0  0  0  0  0  0
    0.4676   -0.8609    4.3157 H   0  0  0  0  0  0  0  0  0  0  0  0
  5  6  2  0  0  0  0
  5  7  1  0  0  0  0
  2  3  1  0  0  0  0
  2  4  1  0  0  0  0
  2  5  1  0  0  0  0
  1  2  1  0  0  0  0
 18 19  2  0  0  0  0
 18 20  1  0  0  0  0
 16 17  1  0  0  0  0
 14 15  2  0  0  0  0
 14 16  1  0  0  0  0
 11 12  1  0  0  0  0
 11 13  1  0  0  0  0
 11 14  1  0  0  0  0
  9 10  1  0  0  0  0
  9 11  1  0  0  0  0
  9 18  1  0  0  0  0
  7  8  1  0  0  0  0
  7  9  1  0  0  0  0
 22 23  1  0  0  0  0
 22 24  1  0  0  0  0
 22 25  1  0  0  0  0
 20 21  1  0  0  0  0
 20 22  1  0  0  0  0
M  END
$$$$
default_name
  -OEChem-02102213163D

 25 24  0     1  0  0  0  0  0999 V2000
   -2.7826   -3.8464    0.7821 H   0  0  0  0  0  0  0  0  0  0  0  0
   -2.8156   -2.8034    0.4711 C   0  0  0  0  0  0  0  0  0  0  0  0
   -3.4336   -2.2354    1.1641 H   0  0  0  0  0  0  0  0  0  0  0  0
   -3.2256   -2.7344   -0.5349 H   0  0  0  0  0  0  0  0  0  0  0  0
   -1.4126   -2.2444    0.4801 C   0  0  0  0  0  0  0  0  0  0  0  0
   -0.4686   -2.9534    0.8001 O   0  0  0  0  0  0  0  0  0  0  0  0
   -1.2736   -0.9704    0.1241 N   0  0  0  0  0  0  0  0  0  0  0  0
   -2.0996   -0.4354   -0.1019 H   0  0  0  0  0  0  0  0  0  0  0  0
   -0.0016   -0.2394    0.1271 C   0  0  1  0  0  0  0  0  0  0  0  0
    0.6995   -0.7619   -0.5275 H   0  0  0  0  0  0  0  0  0  0  0  0
   -0.2283    1.1832   -0.4215 C   0  0  0  0  0  0  0  0  0  0  0  0
   -1.2473    1.5007   -0.1970 H   0  0  0  0  0  0  0  0  0  0  0  0
    0.4547    1.8785    0.0677 H   0  0  0  0  0  0  0  0  0  0  0  0
   -0.0516    1.2859   -1.9335 C   0  0  0  0  0  0  0  0  0  0  0  0
    0.9723    1.0235   -2.5507 O   0  0  0  0  0  0  0  0  0  0  0  0
   -1.1395    1.7131   -2.6013 O   0  0  0  0  0  0  0  0  0  0  0  0
   -0.8965    1.7109   -3.5276 H   0  0  0  0  0  0  0  0  0  0  0  0
    0.5920   -0.2154    1.5497 C   0  0  0  0  0  0  0  0  0  0  0  0
    1.7860   -0.4596    1.7183 O   0  0  0  0  0  0  0  0  0  0  0  0
   -0.2294    0.0669    2.5672 N   0  0  0  0  0  0  0  0  0  0  0  0
   -1.2130    0.1938    2.3518 H   0  0  0  0  0  0  0  0  0  0  0  0
    0.1836    0.1337    3.9673 C   0  0  0  0  0  0  0  0  0  0  0  0
    1.0451    0.7976    4.0666 H   0  0  0  0  0  0  0  0  0  0  0  0
   -0.6344    0.5115    4.5820 H   0  0  0  0  0  0  0  0  0  0  0  0
    0.4676   -0.8609    4.3157 H   0  0  0  0  0  0  0  0  0  0  0  0
  5  6  2  0  0  0  0
  5  7  1  0  0  0  0
  2  3  1  0  0  0  0
  2  4  1  0  0  0  0
  2  5  1  0  0  0  0
  1  2  1  0  0  0  0
 18 19  2  0  0  0  0
 18 20  1  0  0  0  0
 16 17  1  0  0  0  0
 14 15  2  0  0  0  0
 14 16  1  0  0  0  0
 11 12  1  0  0  0  0
 11 13  1  0  0  0  0
 11 14  1  0  0  0  0
  9 10  1  0  0  0  0
  9 11  1  0  0  0  0
  9 18  1  0  0  0  0
  7  8  1  0  0  0  0
  7  9  1  0  0  0  0
 22 23  1  0  0  0  0
 22 24  1  0  0  0  0
 22 25  1  0  0  0  0
 20 21  1  0  0  0  0
 20 22  1  0  0  0  0
M  END
$$$$
default_name
  -OEChem-02102213163D

 25 24  0     1  0  0  0  0  0999 V2000
   -2.7826   -3.8464    0.7821 H   0  0  0  0  0  0  0  0  0  0  0  0
   -2.8156   -2.8034    0.4711 C   0  0  0  0  0  0  0  0  0  0  0  0
   -3.4336   -2.2354    1.1641 H   0  0  0  0  0  0  0  0  0  0  0  0
   -3.2256   -2.7344   -0.5349 H   0  0  0  0  0  0  0  0  0  0  0  0
   -1.4126   -2.2444    0.4801 C   0  0  0  0  0  0  0  0  0  0  0  0
   -0.4686   -2.9534    0.8001 O   0  0  0  0  0  0  0  0  0  0  0  0
   -1.2736   -0.9704    0.1241 N   0  0  0  0  0  0  0  0  0  0  0  0
   -2.0996   -0.4354   -0.1019 H   0  0  0  0  0  0  0  0  0  0  0  0
   -0.0016   -0.2394    0.1271 C   0  0  1  0  0  0  0  0  0  0  0  0
    0.6995   -0.7619   -0.5275 H   0  0  0  0  0  0  0  0  0  0  0  0
   -0.2283    1.1832   -0.4215 C   0  0  0  0  0  0  0  0  0  0  0  0
   -1.2473    1.5007   -0.1970 H   0  0  0  0  0  0  0  0  0  0  0  0
    0.4547    1.8785    0.0677 H   0  0  0  0  0  0  0  0  0  0  0  0
   -0.0516    1.2859   -1.9335 C   0  0  0  0  0  0  0  0  0  0  0  0
    0.8622    0.7899   -2.5794 O   0  0  0  0  0  0  0  0  0  0  0  0
   -1.0023    1.9989   -2.5658 O   0  0  0  0  0  0  0  0  0  0  0  0
   -0.7806    1.9643   -3.4969 H   0  0  0  0  0  0  0  0  0  0  0  0
    0.5920   -0.2154    1.5497 C   0  0  0  0  0  0  0  0  0  0  0  0
    1.7860   -0.4596    1.7183 O   0  0  0  0  0  0  0  0  0  0  0  0
   -0.2294    0.0669    2.5672 N   0  0  0  0  0  0  0  0  0  0  0  0
   -1.2130    0.1938    2.3518 H   0  0  0  0  0  0  0  0  0  0  0  0
    0.1836    0.1337    3.9673 C   0  0  0  0  0  0  0  0  0  0  0  0
    1.0451    0.7976    4.0666 H   0  0  0  0  0  0  0  0  0  0  0  0
   -0.6344    0.5115    4.5820 H   0  0  0  0  0  0  0  0  0  0  0  0
    0.4676   -0.8609    4.3157 H   0  0  0  0  0  0  0  0  0  0  0  0
  5  6  2  0  0  0  0
  5  7  1  0  0  0  0
  2  3  1  0  0  0  0
  2  4  1  0  0  0  0
  2  5  1  0  0  0  0
  1  2  1  0  0  0  0
 18 19  2  0  0  0  0
 18 20  1  0  0  0  0
 16 17  1  0  0  0  0
 14 15  2  0  0  0  0
 14 16  1  0  0  0  0
 11 12  1  0  0  0  0
 11 13  1  0  0  0  0
 11 14  1  0  0  0  0
  9 10  1  0  0  0  0
  9 11  1  0  0  0  0
  9 18  1  0  0  0  0
  7  8  1  0  0  0  0
  7  9  1  0  0  0  0
 22 23  1  0  0  0  0
 22 24  1  0  0  0  0
 22 25  1  0  0  0  0
 20 21  1  0  0  0  0
 20 22  1  0  0  0  0
M  END
$$$$
default_name
  -OEChem-02102213163D

 25 24  0     1  0  0  0  0  0999 V2000
   -2.7826   -3.8464    0.7821 H   0  0  0  0  0  0  0  0  0  0  0  0
   -2.8156   -2.8034    0.4711 C   0  0  0  0  0  0  0  0  0  0  0  0
   -3.4336   -2.2354    1.1641 H   0  0  0  0  0  0  0  0  0  0  0  0
   -3.2256   -2.7344   -0.5349 H   0  0  0  0  0  0  0  0  0  0  0  0
   -1.4126   -2.2444    0.4801 C   0  0  0  0  0  0  0  0  0  0  0  0
   -0.4686   -2.9534    0.8001 O   0  0  0  0  0  0  0  0  0  0  0  0
   -1.2736   -0.9704    0.1241 N   0  0  0  0  0  0  0  0  0  0  0  0
   -2.0996   -0.4354   -0.1019 H   0  0  0  0  0  0  0  0  0  0  0  0
   -0.0016   -0.2394    0.1271 C   0  0  1  0  0  0  0  0  0  0  0  0
    0.6995   -0.7619   -0.5275 H   0  0  0  0  0  0  0  0  0  0  0  0
   -0.2283    1.1832   -0.4215 C   0  0  0  0  0  0  0  0  0  0  0  0
   -1.2473    1.5007   -0.1970 H   0  0  0  0  0  0  0  0  0  0  0  0
    0.4547    1.8785    0.0677 H   0  0  0  0  0  0  0  0  0  0  0  0
   -0.0516    1.2859   -1.9335 C   0  0  0  0  0  0  0  0  0  0  0  0
    0.6954    0.5934   -2.6123 O   0  0  0  0  0  0  0  0  0  0  0  0
   -0.7959    2.2387   -2.5254 O   0  0  0  0  0  0  0  0  0  0  0  0
   -0.6030    2.1785   -3.4616 H   0  0  0  0  0  0  0  0  0  0  0  0
    0.5920   -0.2154    1.5497 C   0  0  0  0  0  0  0  0  0  0  0  0
    1.7860   -0.4596    1.7183 O   0  0  0  0  0  0  0  0  0  0  0  0
   -0.2294    0.0669    2.5672 N   0  0  0  0  0  0  0  0  0  0  0  0
   -1.2130    0.1938    2.3518 H   0  0  0  0  0  0  0  0  0  0  0  0
    0.1836    0.1337    3.9673 C   0  0  0  0  0  0  0  0  0  0  0  0
    1.0451    0.7976    4.0666 H   0  0  0  0  0  0  0  0  0  0  0  0
   -0.6344    0.5115    4.5820 H   0  0  0  0  0  0  0  0  0  0  0  0
    0.4676   -0.8609    4.3157 H   0  0  0  0  0  0  0  0  0  0  0  0
  5  6  2  0  0  0  0
  5  7  1  0  0  0  0
  2  3  1  0  0  0  0
  2  4  1  0  0  0  0
  2  5  1  0  0  0  0
  1  2  1  0  0  0  0
 18 19  2  0  0  0  0
 18 20  1  0  0  0  0
 16 17  1  0  0  0  0
 14 15  2  0  0  0  0
 14 16  1  0  0  0  0
 11 12  1  0  0  0  0
 11 13  1  0  0  0  0
 11 14  1  0  0  0  0
  9 10  1  0  0  0  0
  9 11  1  0  0  0  0
  9 18  1  0  0  0  0
  7  8  1  0  0  0  0
  7  9  1  0  0  0  0
 22 23  1  0  0  0  0
 22 24  1  0  0  0  0
 22 25  1  0  0  0  0
 20 21  1  0  0  0  0
 20 22  1  0  0  0  0
M  END
$$$$
default_name
  -OEChem-02102213163D

 25 24  0     1  0  0  0  0  0999 V2000
   -2.7826   -3.8464    0.7821 H   0  0  0  0  0  0  0  0  0  0  0  0
   -2.8156   -2.8034    0.4711 C   0  0  0  0  0  0  0  0  0  0  0  0
   -3.4336   -2.2354    1.1641 H   0  0  0  0  0  0  0  0  0  0  0  0
   -3.2256   -2.7344   -0.5349 H   0  0  0  0  0  0  0  0  0  0  0  0
   -1.4126   -2.2444    0.4801 C   0  0  0  0  0  0  0  0  0  0  0  0
   -0.4686   -2.9534    0.8001 O   0  0  0  0  0  0  0  0  0  0  0  0
   -1.2736   -0.9704    0.1241 N   0  0  0  0  0  0  0  0  0  0  0  0
   -2.0996   -0.4354   -0.1019 H   0  0  0  0  0  0  0  0  0  0  0  0
   -0.0016   -0.2394    0.1271 C   0  0  1  0  0  0  0  0  0  0  0  0
    0.6995   -0.7619   -0.5275 H   0  0  0  0  0  0  0  0  0  0  0  0
   -0.2283    1.1832   -0.4215 C   0  0  0  0  0  0  0  0  0  0  0  0
   -1.2473    1.5007   -0.1970 H   0  0  0  0  0  0  0  0  0  0  0  0
    0.4547    1.8785    0.0677 H   0  0  0  0  0  0  0  0  0  0  0  0
   -0.0516    1.2859   -1.9335 C   0  0  0  0  0  0  0  0  0  0  0  0
    0.4833    0.4474   -2.6470 O   0  0  0  0  0  0  0  0  0  0  0  0
   -0.5342    2.4161   -2.4828 O   0  0  0  0  0  0  0  0  0  0  0  0
   -0.3760    2.3388   -3.4241 H   0  0  0  0  0  0  0  0  0  0  0  0
    0.5920   -0.2154    1.5497 C   0  0  0  0  0  0  0  0  0  0  0  0
    1.7860   -0.4596    1.7183 O   0  0  0  0  0  0  0  0  0  0  0  0
   -0.2294    0.0669    2.5672 N   0  0  0  0  0  0  0  0  0  0  0  0
   -1.2130    0.1938    2.3518 H   0  0  0  0  0  0  0  0  0  0  0  0
    0.1836    0.1337    3.9673 C   0  0  0  0  0  0  0  0  0  0  0  0
    1.0451    0.7976    4.0666 H   0  0  0  0  0  0  0  0  0  0  0  0
   -0.6344    0.5115    4.5820 H   0  0  0  0  0  0  0  0  0  0  0  0
    0.4676   -0.8609    4.3157 H   0  0  0  0  0  0  0  0  0  0  0  0
  5  6  2  0  0  0  0
  5  7  1  0  0  0  0
  2  3  1  0  0  0  0
  2  4  1  0  0  0  0
  2  5  1  0  0  0  0
  1  2  1  0  0  0  0
 18 19  2  0  0  0  0
 18 20  1  0  0  0  0
 16 17  1  0  0  0  0
 14 15  2  0  0  0  0
 14 16  1  0  0  0  0
 11 12  1  0  0  0  0
 11 13  1  0  0  0  0
 11 14  1  0  0  0  0
  9 10  1  0  0  0  0
  9 11  1  0  0  0  0
  9 18  1  0  0  0  0
  7  8  1  0  0  0  0
  7  9  1  0  0  0  0
 22 23  1  0  0  0  0
 22 24  1  0  0  0  0
 22 25  1  0  0  0  0
 20 21  1  0  0  0  0
 20 22  1  0  0  0  0
M  END
$$$$
default_name
  -OEChem-02102213163D

 25 24  0     1  0  0  0  0  0999 V2000
   -2.7826   -3.8464    0.7821 H   0  0  0  0  0  0  0  0  0  0  0  0
   -2.8156   -2.8034    0.4711 C   0  0  0  0  0  0  0  0  0  0  0  0
   -3.4336   -2.2354    1.1641 H   0  0  0  0  0  0  0  0  0  0  0  0
   -3.2256   -2.7344   -0.5349 H   0  0  0  0  0  0  0  0  0  0  0  0
   -1.4126   -2.2444    0.4801 C   0  0  0  0  0  0  0  0  0  0  0  0
   -0.4686   -2.9534    0.8001 O   0  0  0  0  0  0  0  0  0  0  0  0
   -1.2736   -0.9704    0.1241 N   0  0  0  0  0  0  0  0  0  0  0  0
   -2.0996   -0.4354   -0.1019 H   0  0  0  0  0  0  0  0  0  0  0  0
   -0.0016   -0.2394    0.1271 C   0  0  1  0  0  0  0  0  0  0  0  0
    0.6995   -0.7619   -0.5275 H   0  0  0  0  0  0  0  0  0  0  0  0
   -0.2283    1.1832   -0.4215 C   0  0  0  0  0  0  0  0  0  0  0  0
   -1.2473    1.5007   -0.1970 H   0  0  0  0  0  0  0  0  0  0  0  0
    0.4547    1.8785    0.0677 H   0  0  0  0  0  0  0  0  0  0  0  0
   -0.0516    1.2859   -1.9335 C   0  0  0  0  0  0  0  0  0  0  0  0
    0.2404    0.3618   -2.6812 O   0  0  0  0  0  0  0  0  0  0  0  0
   -0.2352    2.5191   -2.4408 O   0  0  0  0  0  0  0  0  0  0  0  0
   -0.1149    2.4342   -3.3871 H   0  0  0  0  0  0  0  0  0  0  0  0
    0.5920   -0.2154    1.5497 C   0  0  0  0  0  0  0  0  0  0  0  0
    1.7860   -0.4596    1.7183 O   0  0  0  0  0  0  0  0  0  0  0  0
   -0.2294    0.0669    2.5672 N   0  0  0  0  0  0  0  0  0  0  0  0
   -1.2130    0.1938    2.3518 H   0  0  0  0  0  0  0  0  0  0  0  0
    0.1836    0.1337    3.9673 C   0  0  0  0  0  0  0  0  0  0  0  0
    1.0451    0.7976    4.0666 H   0  0  0  0  0  0  0  0  0  0  0  0
   -0.6344    0.5115    4.5820 H   0  0  0  0  0  0  0  0  0  0  0  0
    0.4676   -0.8609    4.3157 H   0  0  0  0  0  0  0  0  0  0  0  0
  5  6  2  0  0  0  0
  5  7  1  0  0  0  0
  2  3  1  0  0  0  0
  2  4  1  0  0  0  0
  2  5  1  0  0  0  0
  1  2  1  0  0  0  0
 18 19  2  0  0  0  0
 18 20  1  0  0  0  0
 16 17  1  0  0  0  0
 14 15  2  0  0  0  0
 14 16  1  0  0  0  0
 11 12  1  0  0  0  0
 11 13  1  0  0  0  0
 11 14  1  0  0  0  0
  9 10  1  0  0  0  0
  9 11  1  0  0  0  0
  9 18  1  0  0  0  0
  7  8  1  0  0  0  0
  7  9  1  0  0  0  0
 22 23  1  0  0  0  0
 22 24  1  0  0  0  0
 22 25  1  0  0  0  0
 20 21  1  0  0  0  0
 20 22  1  0  0  0  0
M  END
$$$$
default_name
  -OEChem-02102213163D

 25 24  0     1  0  0  0  0  0999 V2000
   -2.7826   -3.8464    0.7821 H   0  0  0  0  0  0  0  0  0  0  0  0
   -2.8156   -2.8034    0.4711 C   0  0  0  0  0  0  0  0  0  0  0  0
   -3.4336   -2.2354    1.1641 H   0  0  0  0  0  0  0  0  0  0  0  0
   -3.2256   -2.7344   -0.5349 H   0  0  0  0  0  0  0  0  0  0  0  0
   -1.4126   -2.2444    0.4801 C   0  0  0  0  0  0  0  0  0  0  0  0
   -0.4686   -2.9534    0.8001 O   0  0  0  0  0  0  0  0  0  0  0  0
   -1.2736   -0.9704    0.1241 N   0  0  0  0  0  0  0  0  0  0  0  0
   -2.0996   -0.4354   -0.1019 H   0  0  0  0  0  0  0  0  0  0  0  0
   -0.0016   -0.2394    0.1271 C   0  0  1  0  0  0  0  0  0  0  0  0
    0.6995   -0.7619   -0.5275 H   0  0  0  0  0  0  0  0  0  0  0  0
   -0.2283    1.1832   -0.4215 C   0  0  0  0  0  0  0  0  0  0  0  0
   -1.2473    1.5007   -0.1970 H   0  0  0  0  0  0  0  0  0  0  0  0
    0.4547    1.8785    0.0677 H   0  0  0  0  0  0  0  0  0  0  0  0
   -0.0516    1.2859   -1.9335 C   0  0  0  0  0  0  0  0  0  0  0  0
   -0.0168    0.3424   -2.7125 O   0  0  0  0  0  0  0  0  0  0  0  0
    0.0807    2.5407   -2.4024 O   0  0  0  0  0  0  0  0  0  0  0  0
    0.1624    2.4584   -3.3531 H   0  0  0  0  0  0  0  0  0  0  0  0
    0.5920   -0.2154    1.5497 C   0  0  0  0  0  0  0  0  0  0  0  0
    1.7860   -0.4596    1.7183 O   0  0  0  0  0  0  0  0  0  0  0  0
   -0.2294    0.0669    2.5672 N   0  0  0  0  0  0  0  0  0  0  0  0
   -1.2130    0.1938    2.3518 H   0  0  0  0  0  0  0  0  0  0  0  0
    0.1836    0.1337    3.9673 C   0  0  0  0  0  0  0  0  0  0  0  0
    1.0451    0.7976    4.0666 H   0  0  0  0  0  0  0  0  0  0  0  0
   -0.6344    0.5115    4.5820 H   0  0  0  0  0  0  0  0  0  0  0  0
    0.4676   -0.8609    4.3157 H   0  0  0  0  0  0  0  0  0  0  0  0
  5  6  2  0  0  0  0
  5  7  1  0  0  0  0
  2  3  1  0  0  0  0
  2  4  1  0  0  0  0
  2  5  1  0  0  0  0
  1  2  1  0  0  0  0
 18 19  2  0  0  0  0
 18 20  1  0  0  0  0
 16 17  1  0  0  0  0
 14 15  2  0  0  0  0
 14 16  1  0  0  0  0
 11 12  1  0  0  0  0
 11 13  1  0  0  0  0
 11 14  1  0  0  0  0
  9 10  1  0  0  0  0
  9 11  1  0  0  0  0
  9 18  1  0  0  0  0
  7  8  1  0  0  0  0
  7  9  1  0  0  0  0
 22 23  1  0  0  0  0
 22 24  1  0  0  0  0
 22 25  1  0  0  0  0
 20 21  1  0  0  0  0
 20 22  1  0  0  0  0
M  END
$$$$
default_name
  -OEChem-02102213163D

 25 24  0     1  0  0  0  0  0999 V2000
   -2.7826   -3.8464    0.7821 H   0  0  0  0  0  0  0  0  0  0  0  0
   -2.8156   -2.8034    0.4711 C   0  0  0  0  0  0  0  0  0  0  0  0
   -3.4336   -2.2354    1.1641 H   0  0  0  0  0  0  0  0  0  0  0  0
   -3.2256   -2.7344   -0.5349 H   0  0  0  0  0  0  0  0  0  0  0  0
   -1.4126   -2.2444    0.4801 C   0  0  0  0  0  0  0  0  0  0  0  0
   -0.4686   -2.9534    0.8001 O   0  0  0  0  0  0  0  0  0  0  0  0
   -1.2736   -0.9704    0.1241 N   0  0  0  0  0  0  0  0  0  0  0  0
   -2.0996   -0.4354   -0.1019 H   0  0  0  0  0  0  0  0  0  0  0  0
   -0.0016   -0.2394    0.1271 C   0  0  1  0  0  0  0  0  0  0  0  0
    0.6995   -0.7619   -0.5275 H   0  0  0  0  0  0  0  0  0  0  0  0
   -0.2283    1.1832   -0.4215 C   0  0  0  0  0  0  0  0  0  0  0  0
   -1.2473    1.5007   -0.1970 H   0  0  0  0  0  0  0  0  0  0  0  0
    0.4547    1.8785    0.0677 H   0  0  0  0  0  0  0  0  0  0  0  0
   -0.0516    1.2859   -1.9335 C   0  0  0  0  0  0  0  0  0  0  0  0
   -0.2708    0.3907   -2.7389 O   0  0  0  0  0  0  0  0  0  0  0  0
    0.3921    2.4794   -2.3702 O   0  0  0  0  0  0  0  0  0  0  0  0
    0.4371    2.4095   -3.3243 H   0  0  0  0  0  0  0  0  0  0  0  0
    0.5920   -0.2154    1.5497 C   0  0  0  0  0  0  0  0  0  0  0  0
    1.7860   -0.4596    1.7183 O   0  0  0  0  0  0  0  0  0  0  0  0
   -0.2294    0.0669    2.5672 N   0  0  0  0  0  0  0  0  0  0  0  0
   -1.2130    0.1938    2.3518 H   0  0  0  0  0  0  0  0  0  0  0  0
    0.1836    0.1337    3.9673 C   0  0  0  0  0  0  0  0  0  0  0  0
    1.0451    0.7976    4.0666 H   0  0  0  0  0  0  0  0  0  0  0  0
   -0.6344    0.5115    4.5820 H   0  0  0  0  0  0  0  0  0  0  0  0
    0.4676   -0.8609    4.3157 H   0  0  0  0  0  0  0  0  0  0  0  0
  5  6  2  0  0  0  0
  5  7  1  0  0  0  0
  2  3  1  0  0  0  0
  2  4  1  0  0  0  0
  2  5  1  0  0  0  0
  1  2  1  0  0  0  0
 18 19  2  0  0  0  0
 18 20  1  0  0  0  0
 16 17  1  0  0  0  0
 14 15  2  0  0  0  0
 14 16  1  0  0  0  0
 11 12  1  0  0  0  0
 11 13  1  0  0  0  0
 11 14  1  0  0  0  0
  9 10  1  0  0  0  0
  9 11  1  0  0  0  0
  9 18  1  0  0  0  0
  7  8  1  0  0  0  0
  7  9  1  0  0  0  0
 22 23  1  0  0  0  0
 22 24  1  0  0  0  0
 22 25  1  0  0  0  0
 20 21  1  0  0  0  0
 20 22  1  0  0  0  0
M  END
$$$$
default_name
  -OEChem-02102213163D

 25 24  0     1  0  0  0  0  0999 V2000
   -2.7826   -3.8464    0.7821 H   0  0  0  0  0  0  0  0  0  0  0  0
   -2.8156   -2.8034    0.4711 C   0  0  0  0  0  0  0  0  0  0  0  0
   -3.4336   -2.2354    1.1641 H   0  0  0  0  0  0  0  0  0  0  0  0
   -3.2256   -2.7344   -0.5349 H   0  0  0  0  0  0  0  0  0  0  0  0
   -1.4126   -2.2444    0.4801 C   0  0  0  0  0  0  0  0  0  0  0  0
   -0.4686   -2.9534    0.8001 O   0  0  0  0  0  0  0  0  0  0  0  0
   -1.2736   -0.9704    0.1241 N   0  0  0  0  0  0  0  0  0  0  0  0
   -2.0996   -0.4354   -0.1019 H   0  0  0  0  0  0  0  0  0  0  0  0
   -0.0016   -0.2394    0.1271 C   0  0  1  0  0  0  0  0  0  0  0  0
    0.6995   -0.7619   -0.5275 H   0  0  0  0  0  0  0  0  0  0  0  0
   -0.2283    1.1832   -0.4215 C   0  0  0  0  0  0  0  0  0  0  0  0
   -1.2473    1.5007   -0.1970 H   0  0  0  0  0  0  0  0  0  0  0  0
    0.4547    1.8785    0.0677 H   0  0  0  0  0  0  0  0  0  0  0  0
   -0.0516    1.2859   -1.9335 C   0  0  0  0  0  0  0  0  0  0  0  0
   -0.5041    0.5031   -2.7586 O   0  0  0  0  0  0  0  0  0  0  0  0
    0.6777    2.3393   -2.3464 O   0  0  0  0  0  0  0  0  0  0  0  0
    0.6903    2.2911   -3.3028 H   0  0  0  0  0  0  0  0  0  0  0  0
    0.5920   -0.2154    1.5497 C   0  0  0  0  0  0  0  0  0  0  0  0
    1.7860   -0.4596    1.7183 O   0  0  0  0  0  0  0  0  0  0  0  0
   -0.2294    0.0669    2.5672 N   0  0  0  0  0  0  0  0  0  0  0  0
   -1.2130    0.1938    2.3518 H   0  0  0  0  0  0  0  0  0  0  0  0
    0.1836    0.1337    3.9673 C   0  0  0  0  0  0  0  0  0  0  0  0
    1.0451    0.7976    4.0666 H   0  0  0  0  0  0  0  0  0  0  0  0
   -0.6344    0.5115    4.5820 H   0  0  0  0  0  0  0  0  0  0  0  0
    0.4676   -0.8609    4.3157 H   0  0  0  0  0  0  0  0  0  0  0  0
  5  6  2  0  0  0  0
  5  7  1  0  0  0  0
  2  3  1  0  0  0  0
  2  4  1  0  0  0  0
  2  5  1  0  0  0  0
  1  2  1  0  0  0  0
 18 19  2  0  0  0  0
 18 20  1  0  0  0  0
 16 17  1  0  0  0  0
 14 15  2  0  0  0  0
 14 16  1  0  0  0  0
 11 12  1  0  0  0  0
 11 13  1  0  0  0  0
 11 14  1  0  0  0  0
  9 10  1  0  0  0  0
  9 11  1  0  0  0  0
  9 18  1  0  0  0  0
  7  8  1  0  0  0  0
  7  9  1  0  0  0  0
 22 23  1  0  0  0  0
 22 24  1  0  0  0  0
 22 25  1  0  0  0  0
 20 21  1  0  0  0  0
 20 22  1  0  0  0  0
M  END
$$$$
default_name
  -OEChem-02102213163D

 25 24  0     1  0  0  0  0  0999 V2000
   -2.7826   -3.8464    0.7821 H   0  0  0  0  0  0  0  0  0  0  0  0
   -2.8156   -2.8034    0.4711 C   0  0  0  0  0  0  0  0  0  0  0  0
   -3.4336   -2.2354    1.1641 H   0  0  0  0  0  0  0  0  0  0  0  0
   -3.2256   -2.7344   -0.5349 H   0  0  0  0  0  0  0  0  0  0  0  0
   -1.4126   -2.2444    0.4801 C   0  0  0  0  0  0  0  0  0  0  0  0
   -0.4686   -2.9534    0.8001 O   0  0  0  0  0  0  0  0  0  0  0  0
   -1.2736   -0.9704    0.1241 N   0  0  0  0  0  0  0  0  0  0  0  0
   -2.0996   -0.4354   -0.1019 H   0  0  0  0  0  0  0  0  0  0  0  0
   -0.0016   -0.2394    0.1271 C   0  0  1  0  0  0  0  0  0  0  0  0
    0.6995   -0.7619   -0.5275 H   0  0  0  0  0  0  0  0  0  0  0  0
   -0.2283    1.1832   -0.4215 C   0  0  0  0  0  0  0  0  0  0  0  0
   -1.2473    1.5007   -0.1970 H   0  0  0  0  0  0  0  0  0  0  0  0
    0.4547    1.8785    0.0677 H   0  0  0  0  0  0  0  0  0  0  0  0
   -0.0516    1.2859   -1.9335 C   0  0  0  0  0  0  0  0  0  0  0  0
   -0.7011    0.6722   -2.7701 O   0  0  0  0  0  0  0  0  0  0  0  0
    0.9181    2.1300   -2.3325 O   0  0  0  0  0  0  0  0  0  0  0  0
    0.9050    2.1110   -3.2899 H   0  0  0  0  0  0  0  0  0  0  0  0
    0.5920   -0.2154    1.5497 C   0  0  0  0  0  0  0  0  0  0  0  0
    1.7860   -0.4596    1.7183 O   0  0  0  0  0  0  0  0  0  0  0  0
   -0.2294    0.0669    2.5672 N   0  0  0  0  0  0  0  0  0  0  0  0
   -1.2130    0.1938    2.3518 H   0  0  0  0  0  0  0  0  0  0  0  0
    0.1836    0.1337    3.9673 C   0  0  0  0  0  0  0  0  0  0  0  0
    1.0451    0.7976    4.0666 H   0  0  0  0  0  0  0  0  0  0  0  0
   -0.6344    0.5115    4.5820 H   0  0  0  0  0  0  0  0  0  0  0  0
    0.4676   -0.8609    4.3157 H   0  0  0  0  0  0  0  0  0  0  0  0
  5  6  2  0  0  0  0
  5  7  1  0  0  0  0
  2  3  1  0  0  0  0
  2  4  1  0  0  0  0
  2  5  1  0  0  0  0
  1  2  1  0  0  0  0
 18 19  2  0  0  0  0
 18 20  1  0  0  0  0
 16 17  1  0  0  0  0
 14 15  2  0  0  0  0
 14 16  1  0  0  0  0
 11 12  1  0  0  0  0
 11 13  1  0  0  0  0
 11 14  1  0  0  0  0
  9 10  1  0  0  0  0
  9 11  1  0  0  0  0
  9 18  1  0  0  0  0
  7  8  1  0  0  0  0
  7  9  1  0  0  0  0
 22 23  1  0  0  0  0
 22 24  1  0  0  0  0
 22 25  1  0  0  0  0
 20 21  1  0  0  0  0
 20 22  1  0  0  0  0
M  END
$$$$
default_name
  -OEChem-02102213163D

 25 24  0     1  0  0  0  0  0999 V2000
   -2.7826   -3.8464    0.7821 H   0  0  0  0  0  0  0  0  0  0  0  0
   -2.8156   -2.8034    0.4711 C   0  0  0  0  0  0  0  0  0  0  0  0
   -3.4336   -2.2354    1.1641 H   0  0  0  0  0  0  0  0  0  0  0  0
   -3.2256   -2.7344   -0.5349 H   0  0  0  0  0  0  0  0  0  0  0  0
   -1.4126   -2.2444    0.4801 C   0  0  0  0  0  0  0  0  0  0  0  0
   -0.4686   -2.9534    0.8001 O   0  0  0  0  0  0  0  0  0  0  0  0
   -1.2736   -0.9704    0.1241 N   0  0  0  0  0  0  0  0  0  0  0  0
   -2.0996   -0.4354   -0.1019 H   0  0  0  0  0  0  0  0  0  0  0  0
   -0.0016   -0.2394    0.1271 C   0  0  1  0  0  0  0  0  0  0  0  0
    0.6995   -0.7619   -0.5275 H   0  0  0  0  0  0  0  0  0  0  0  0
   -0.2283    1.1832   -0.4215 C   0  0  0  0  0  0  0  0  0  0  0  0
   -1.2473    1.5007   -0.1970 H   0  0  0  0  0  0  0  0  0  0  0  0
    0.4547    1.8785    0.0677 H   0  0  0  0  0  0  0  0  0  0  0  0
   -0.0516    1.2859   -1.9335 C   0  0  0  0  0  0  0  0  0  0  0  0
   -0.8481    0.8864   -2.7727 O   0  0  0  0  0  0  0  0  0  0  0  0
    1.0968    1.8658   -2.3296 O   0  0  0  0  0  0  0  0  0  0  0  0
    1.0663    1.8817   -3.2867 H   0  0  0  0  0  0  0  0  0  0  0  0
    0.5920   -0.2154    1.5497 C   0  0  0  0  0  0  0  0  0  0  0  0
    1.7860   -0.4596    1.7183 O   0  0  0  0  0  0  0  0  0  0  0  0
   -0.2294    0.0669    2.5672 N   0  0  0  0  0  0  0  0  0  0  0  0
   -1.2130    0.1938    2.3518 H   0  0  0  0  0  0  0  0  0  0  0  0
    0.1836    0.1337    3.9673 C   0  0  0  0  0  0  0  0  0  0  0  0
    1.0451    0.7976    4.0666 H   0  0  0  0  0  0  0  0  0  0  0  0
   -0.6344    0.5115    4.5820 H   0  0  0  0  0  0  0  0  0  0  0  0
    0.4676   -0.8609    4.3157 H   0  0  0  0  0  0  0  0  0  0  0  0
  5  6  2  0  0  0  0
  5  7  1  0  0  0  0
  2  3  1  0  0  0  0
  2  4  1  0  0  0  0
  2  5  1  0  0  0  0
  1  2  1  0  0  0  0
 18 19  2  0  0  0  0
 18 20  1  0  0  0  0
 16 17  1  0  0  0  0
 14 15  2  0  0  0  0
 14 16  1  0  0  0  0
 11 12  1  0  0  0  0
 11 13  1  0  0  0  0
 11 14  1  0  0  0  0
  9 10  1  0  0  0  0
  9 11  1  0  0  0  0
  9 18  1  0  0  0  0
  7  8  1  0  0  0  0
  7  9  1  0  0  0  0
 22 23  1  0  0  0  0
 22 24  1  0  0  0  0
 22 25  1  0  0  0  0
 20 21  1  0  0  0  0
 20 22  1  0  0  0  0
M  END
$$$$
default_name
  -OEChem-02102213163D

 25 24  0     1  0  0  0  0  0999 V2000
   -2.7826   -3.8464    0.7821 H   0  0  0  0  0  0  0  0  0  0  0  0
   -2.8156   -2.8034    0.4711 C   0  0  0  0  0  0  0  0  0  0  0  0
   -3.4336   -2.2354    1.1641 H   0  0  0  0  0  0  0  0  0  0  0  0
   -3.2256   -2.7344   -0.5349 H   0  0  0  0  0  0  0  0  0  0  0  0
   -1.4126   -2.2444    0.4801 C   0  0  0  0  0  0  0  0  0  0  0  0
   -0.4686   -2.9534    0.8001 O   0  0  0  0  0  0  0  0  0  0  0  0
   -1.2736   -0.9704    0.1241 N   0  0  0  0  0  0  0  0  0  0  0  0
   -2.0996   -0.4354   -0.1019 H   0  0  0  0  0  0  0  0  0  0  0  0
   -0.0016   -0.2394    0.1271 C   0  0  1  0  0  0  0  0  0  0  0  0
    0.6995   -0.7619   -0.5275 H   0  0  0  0  0  0  0  0  0  0  0  0
   -0.2283    1.1832   -0.4215 C   0  0  0  0  0  0  0  0  0  0  0  0
   -1.2473    1.5007   -0.1970 H   0  0  0  0  0  0  0  0  0  0  0  0
    0.4547    1.8785    0.0677 H   0  0  0  0  0  0  0  0  0  0  0  0
   -0.0516    1.2859   -1.9335 C   0  0  0  0  0  0  0  0  0  0  0  0
   -0.9352    1.1311   -2.7663 O   0  0  0  0  0  0  0  0  0  0  0  0
    1.2017    1.5646   -2.3378 O   0  0  0  0  0  0  0  0  0  0  0  0
    1.1634    1.6187   -3.2932 H   0  0  0  0  0  0  0  0  0  0  0  0
    0.5920   -0.2154    1.5497 C   0  0  0  0  0  0  0  0  0  0  0  0
    1.7860   -0.4596    1.7183 O   0  0  0  0  0  0  0  0  0  0  0  0
   -0.2294    0.0669    2.5672 N   0  0  0  0  0  0  0  0  0  0  0  0
   -1.2130    0.1938    2.3518 H   0  0  0  0  0  0  0  0  0  0  0  0
    0.1836    0.1337    3.9673 C   0  0  0  0  0  0  0  0  0  0  0  0
    1.0451    0.7976    4.0666 H   0  0  0  0  0  0  0  0  0  0  0  0
   -0.6344    0.5115    4.5820 H   0  0  0  0  0  0  0  0  0  0  0  0
    0.4676   -0.8609    4.3157 H   0  0  0  0  0  0  0  0  0  0  0  0
  5  6  2  0  0  0  0
  5  7  1  0  0  0  0
  2  3  1  0  0  0  0
  2  4  1  0  0  0  0
  2  5  1  0  0  0  0
  1  2  1  0  0  0  0
 18 19  2  0  0  0  0
 18 20  1  0  0  0  0
 16 17  1  0  0  0  0
 14 15  2  0  0  0  0
 14 16  1  0  0  0  0
 11 12  1  0  0  0  0
 11 13  1  0  0  0  0
 11 14  1  0  0  0  0
  9 10  1  0  0  0  0
  9 11  1  0  0  0  0
  9 18  1  0  0  0  0
  7  8  1  0  0  0  0
  7  9  1  0  0  0  0
 22 23  1  0  0  0  0
 22 24  1  0  0  0  0
 22 25  1  0  0  0  0
 20 21  1  0  0  0  0
 20 22  1  0  0  0  0
M  END
$$$$
default_name
  -OEChem-02102213163D

 25 24  0     1  0  0  0  0  0999 V2000
   -2.7826   -3.8464    0.7821 H   0  0  0  0  0  0  0  0  0  0  0  0
   -2.8156   -2.8034    0.4711 C   0  0  0  0  0  0  0  0  0  0  0  0
   -3.4336   -2.2354    1.1641 H   0  0  0  0  0  0  0  0  0  0  0  0
   -3.2256   -2.7344   -0.5349 H   0  0  0  0  0  0  0  0  0  0  0  0
   -1.4126   -2.2444    0.4801 C   0  0  0  0  0  0  0  0  0  0  0  0
   -0.4686   -2.9534    0.8001 O   0  0  0  0  0  0  0  0  0  0  0  0
   -1.2736   -0.9704    0.1241 N   0  0  0  0  0  0  0  0  0  0  0  0
   -2.0996   -0.4354   -0.1019 H   0  0  0  0  0  0  0  0  0  0  0  0
   -0.0016   -0.2394    0.1271 C   0  0  1  0  0  0  0  0  0  0  0  0
    0.6995   -0.7619   -0.5275 H   0  0  0  0  0  0  0  0  0  0  0  0
   -0.2283    1.1832   -0.4215 C   0  0  0  0  0  0  0  0  0  0  0  0
   -1.2473    1.5007   -0.1970 H   0  0  0  0  0  0  0  0  0  0  0  0
    0.4547    1.8785    0.0677 H   0  0  0  0  0  0  0  0  0  0  0  0
   -0.0516    1.2859   -1.9335 C   0  0  0  0  0  0  0  0  0  0  0  0
   -0.9565    1.3896   -2.7512 O   0  0  0  0  0  0  0  0  0  0  0  0
    1.2257    1.2471   -2.3565 O   0  0  0  0  0  0  0  0  0  0  0  0
    1.1896    1.3399   -3.3091 H   0  0  0  0  0  0  0  0  0  0  0  0
    0.5920   -0.2154    1.5497 C   0  0  0  0  0  0  0  0  0  0  0  0
    1.7860   -0.4596    1.7183 O   0  0  0  0  0  0  0  0  0  0  0  0
   -0.2294    0.0669    2.5672 N   0  0  0  0  0  0  0  0  0  0  0  0
   -1.2130    0.1938    2.3518 H   0  0  0  0  0  0  0  0  0  0  0  0
    0.1836    0.1337    3.9673 C   0  0  0  0  0  0  0  0  0  0  0  0
    1.0451    0.7976    4.0666 H   0  0  0  0  0  0  0  0  0  0  0  0
   -0.6344    0.5115    4.5820 H   0  0  0  0  0  0  0  0  0  0  0  0
    0.4676   -0.8609    4.3157 H   0  0  0  0  0  0  0  0  0  0  0  0
  5  6  2  0  0  0  0
  5  7  1  0  0  0  0
  2  3  1  0  0  0  0
  2  4  1  0  0  0  0
  2  5  1  0  0  0  0
  1  2  1  0  0  0  0
 18 19  2  0  0  0  0
 18 20  1  0  0  0  0
 16 17  1  0  0  0  0
 14 15  2  0  0  0  0
 14 16  1  0  0  0  0
 11 12  1  0  0  0  0
 11 13  1  0  0  0  0
 11 14  1  0  0  0  0
  9 10  1  0  0  0  0
  9 11  1  0  0  0  0
  9 18  1  0  0  0  0
  7  8  1  0  0  0  0
  7  9  1  0  0  0  0
 22 23  1  0  0  0  0
 22 24  1  0  0  0  0
 22 25  1  0  0  0  0
 20 21  1  0  0  0  0
 20 22  1  0  0  0  0
M  END
$$$$
default_name
  -OEChem-02102213163D

 25 24  0     1  0  0  0  0  0999 V2000
   -2.7826   -3.8464    0.7821 H   0  0  0  0  0  0  0  0  0  0  0  0
   -2.8156   -2.8034    0.4711 C   0  0  0  0  0  0  0  0  0  0  0  0
   -3.4336   -2.2354    1.1641 H   0  0  0  0  0  0  0  0  0  0  0  0
   -3.2256   -2.7344   -0.5349 H   0  0  0  0  0  0  0  0  0  0  0  0
   -1.4126   -2.2444    0.4801 C   0  0  0  0  0  0  0  0  0  0  0  0
   -0.4686   -2.9534    0.8001 O   0  0  0  0  0  0  0  0  0  0  0  0
   -1.2736   -0.9704    0.1241 N   0  0  0  0  0  0  0  0  0  0  0  0
   -2.0996   -0.4354   -0.1019 H   0  0  0  0  0  0  0  0  0  0  0  0
   -0.0016   -0.2394    0.1271 C   0  0  1  0  0  0  0  0  0  0  0  0
    0.6995   -0.7619   -0.5275 H   0  0  0  0  0  0  0  0  0  0  0  0
   -0.2283    1.1832   -0.4215 C   0  0  0  0  0  0  0  0  0  0  0  0
   -1.2473    1.5007   -0.1970 H   0  0  0  0  0  0  0  0  0  0  0  0
    0.4547    1.8785    0.0677 H   0  0  0  0  0  0  0  0  0  0  0  0
   -0.0516    1.2859   -1.9335 C   0  0  0  0  0  0  0  0  0  0  0  0
   -0.9105    1.6443   -2.7285 O   0  0  0  0  0  0  0  0  0  0  0  0
    1.1670    0.9348   -2.3846 O   0  0  0  0  0  0  0  0  0  0  0  0
    1.1431    1.0644   -3.3332 H   0  0  0  0  0  0  0  0  0  0  0  0
    0.5920   -0.2154    1.5497 C   0  0  0  0  0  0  0  0  0  0  0  0
    1.7860   -0.4596    1.7183 O   0  0  0  0  0  0  0  0  0  0  0  0
   -0.2294    0.0669    2.5672 N   0  0  0  0  0  0  0  0  0  0  0  0
   -1.2130    0.1938    2.3518 H   0  0  0  0  0  0  0  0  0  0  0  0
    0.1836    0.1337    3.9673 C   0  0  0  0  0  0  0  0  0  0  0  0
    1.0451    0.7976    4.0666 H   0  0  0  0  0  0  0  0  0  0  0  0
   -0.6344    0.5115    4.5820 H   0  0  0  0  0  0  0  0  0  0  0  0
    0.4676   -0.8609    4.3157 H   0  0  0  0  0  0  0  0  0  0  0  0
  5  6  2  0  0  0  0
  5  7  1  0  0  0  0
  2  3  1  0  0  0  0
  2  4  1  0  0  0  0
  2  5  1  0  0  0  0
  1  2  1  0  0  0  0
 18 19  2  0  0  0  0
 18 20  1  0  0  0  0
 16 17  1  0  0  0  0
 14 15  2  0  0  0  0
 14 16  1  0  0  0  0
 11 12  1  0  0  0  0
 11 13  1  0  0  0  0
 11 14  1  0  0  0  0
  9 10  1  0  0  0  0
  9 11  1  0  0  0  0
  9 18  1  0  0  0  0
  7  8  1  0  0  0  0
  7  9  1  0  0  0  0
 22 23  1  0  0  0  0
 22 24  1  0  0  0  0
 22 25  1  0  0  0  0
 20 21  1  0  0  0  0
 20 22  1  0  0  0  0
M  END
$$$$
default_name
  -OEChem-02102213163D

 25 24  0     1  0  0  0  0  0999 V2000
   -2.7826   -3.8464    0.7821 H   0  0  0  0  0  0  0  0  0  0  0  0
   -2.8156   -2.8034    0.4711 C   0  0  0  0  0  0  0  0  0  0  0  0
   -3.4336   -2.2354    1.1641 H   0  0  0  0  0  0  0  0  0  0  0  0
   -3.2256   -2.7344   -0.5349 H   0  0  0  0  0  0  0  0  0  0  0  0
   -1.4126   -2.2444    0.4801 C   0  0  0  0  0  0  0  0  0  0  0  0
   -0.4686   -2.9534    0.8001 O   0  0  0  0  0  0  0  0  0  0  0  0
   -1.2736   -0.9704    0.1241 N   0  0  0  0  0  0  0  0  0  0  0  0
   -2.0996   -0.4354   -0.1019 H   0  0  0  0  0  0  0  0  0  0  0  0
   -0.0016   -0.2394    0.1271 C   0  0  1  0  0  0  0  0  0  0  0  0
    0.6995   -0.7619   -0.5275 H   0  0  0  0  0  0  0  0  0  0  0  0
   -0.2283    1.1832   -0.4215 C   0  0  0  0  0  0  0  0  0  0  0  0
   -1.2473    1.5007   -0.1970 H   0  0  0  0  0  0  0  0  0  0  0  0
    0.4547    1.8785    0.0677 H   0  0  0  0  0  0  0  0  0  0  0  0
   -0.0516    1.2859   -1.9335 C   0  0  0  0  0  0  0  0  0  0  0  0
   -0.8004    1.8779   -2.6998 O   0  0  0  0  0  0  0  0  0  0  0  0
    1.0298    0.6490   -2.4201 O   0  0  0  0  0  0  0  0  0  0  0  0
    1.0272    0.8109   -3.3640 H   0  0  0  0  0  0  0  0  0  0  0  0
    0.5920   -0.2154    1.5497 C   0  0  0  0  0  0  0  0  0  0  0  0
    1.7860   -0.4596    1.7183 O   0  0  0  0  0  0  0  0  0  0  0  0
   -0.2294    0.0669    2.5672 N   0  0  0  0  0  0  0  0  0  0  0  0
   -1.2130    0.1938    2.3518 H   0  0  0  0  0  0  0  0  0  0  0  0
    0.1836    0.1337    3.9673 C   0  0  0  0  0  0  0  0  0  0  0  0
    1.0451    0.7976    4.0666 H   0  0  0  0  0  0  0  0  0  0  0  0
   -0.6344    0.5115    4.5820 H   0  0  0  0  0  0  0  0  0  0  0  0
    0.4676   -0.8609    4.3157 H   0  0  0  0  0  0  0  0  0  0  0  0
  5  6  2  0  0  0  0
  5  7  1  0  0  0  0
  2  3  1  0  0  0  0
  2  4  1  0  0  0  0
  2  5  1  0  0  0  0
  1  2  1  0  0  0  0
 18 19  2  0  0  0  0
 18 20  1  0  0  0  0
 16 17  1  0  0  0  0
 14 15  2  0  0  0  0
 14 16  1  0  0  0  0
 11 12  1  0  0  0  0
 11 13  1  0  0  0  0
 11 14  1  0  0  0  0
  9 10  1  0  0  0  0
  9 11  1  0  0  0  0
  9 18  1  0  0  0  0
  7  8  1  0  0  0  0
  7  9  1  0  0  0  0
 22 23  1  0  0  0  0
 22 24  1  0  0  0  0
 22 25  1  0  0  0  0
 20 21  1  0  0  0  0
 20 22  1  0  0  0  0
M  END
$$$$
default_name
  -OEChem-02102213163D

 25 24  0     1  0  0  0  0  0999 V2000
   -2.7826   -3.8464    0.7821 H   0  0  0  0  0  0  0  0  0  0  0  0
   -2.8156   -2.8034    0.4711 C   0  0  0  0  0  0  0  0  0  0  0  0
   -3.4336   -2.2354    1.1641 H   0  0  0  0  0  0  0  0  0  0  0  0
   -3.2256   -2.7344   -0.5349 H   0  0  0  0  0  0  0  0  0  0  0  0
   -1.4126   -2.2444    0.4801 C   0  0  0  0  0  0  0  0  0  0  0  0
   -0.4686   -2.9534    0.8001 O   0  0  0  0  0  0  0  0  0  0  0  0
   -1.2736   -0.9704    0.1241 N   0  0  0  0  0  0  0  0  0  0  0  0
   -2.0996   -0.4354   -0.1019 H   0  0  0  0  0  0  0  0  0  0  0  0
   -0.0016   -0.2394    0.1271 C   0  0  1  0  0  0  0  0  0  0  0  0
    0.6995   -0.7619   -0.5275 H   0  0  0  0  0  0  0  0  0  0  0  0
   -0.2283    1.1832   -0.4215 C   0  0  0  0  0  0  0  0  0  0  0  0
   -1.2473    1.5007   -0.1970 H   0  0  0  0  0  0  0  0  0  0  0  0
    0.4547    1.8785    0.0677 H   0  0  0  0  0  0  0  0  0  0  0  0
   -0.0516    1.2859   -1.9335 C   0  0  0  0  0  0  0  0  0  0  0  0
   -0.6336    2.0744   -2.6669 O   0  0  0  0  0  0  0  0  0  0  0  0
    0.8234    0.4092   -2.4605 O   0  0  0  0  0  0  0  0  0  0  0  0
    0.8496    0.5967   -3.3993 H   0  0  0  0  0  0  0  0  0  0  0  0
    0.5920   -0.2154    1.5497 C   0  0  0  0  0  0  0  0  0  0  0  0
    1.7860   -0.4596    1.7183 O   0  0  0  0  0  0  0  0  0  0  0  0
   -0.2294    0.0669    2.5672 N   0  0  0  0  0  0  0  0  0  0  0  0
   -1.2130    0.1938    2.3518 H   0  0  0  0  0  0  0  0  0  0  0  0
    0.1836    0.1337    3.9673 C   0  0  0  0  0  0  0  0  0  0  0  0
    1.0451    0.7976    4.0666 H   0  0  0  0  0  0  0  0  0  0  0  0
   -0.6344    0.5115    4.5820 H   0  0  0  0  0  0  0  0  0  0  0  0
    0.4676   -0.8609    4.3157 H   0  0  0  0  0  0  0  0  0  0  0  0
  5  6  2  0  0  0  0
  5  7  1  0  0  0  0
  2  3  1  0  0  0  0
  2  4  1  0  0  0  0
  2  5  1  0  0  0  0
  1  2  1  0  0  0  0
 18 19  2  0  0  0  0
 18 20  1  0  0  0  0
 16 17  1  0  0  0  0
 14 15  2  0  0  0  0
 14 16  1  0  0  0  0
 11 12  1  0  0  0  0
 11 13  1  0  0  0  0
 11 14  1  0  0  0  0
  9 10  1  0  0  0  0
  9 11  1  0  0  0  0
  9 18  1  0  0  0  0
  7  8  1  0  0  0  0
  7  9  1  0  0  0  0
 22 23  1  0  0  0  0
 22 24  1  0  0  0  0
 22 25  1  0  0  0  0
 20 21  1  0  0  0  0
 20 22  1  0  0  0  0
M  END
$$$$
default_name
  -OEChem-02102213163D

 25 24  0     1  0  0  0  0  0999 V2000
   -2.7826   -3.8464    0.7821 H   0  0  0  0  0  0  0  0  0  0  0  0
   -2.8156   -2.8034    0.4711 C   0  0  0  0  0  0  0  0  0  0  0  0
   -3.4336   -2.2354    1.1641 H   0  0  0  0  0  0  0  0  0  0  0  0
   -3.2256   -2.7344   -0.5349 H   0  0  0  0  0  0  0  0  0  0  0  0
   -1.4126   -2.2444    0.4801 C   0  0  0  0  0  0  0  0  0  0  0  0
   -0.4686   -2.9534    0.8001 O   0  0  0  0  0  0  0  0  0  0  0  0
   -1.2736   -0.9704    0.1241 N   0  0  0  0  0  0  0  0  0  0  0  0
   -2.0996   -0.4354   -0.1019 H   0  0  0  0  0  0  0  0  0  0  0  0
   -0.0016   -0.2394    0.1271 C   0  0  1  0  0  0  0  0  0  0  0  0
    0.6995   -0.7619   -0.5275 H   0  0  0  0  0  0  0  0  0  0  0  0
   -0.2283    1.1832   -0.4215 C   0  0  0  0  0  0  0  0  0  0  0  0
   -1.2473    1.5007   -0.1970 H   0  0  0  0  0  0  0  0  0  0  0  0
    0.4547    1.8785    0.0677 H   0  0  0  0  0  0  0  0  0  0  0  0
   -0.0516    1.2859   -1.9335 C   0  0  0  0  0  0  0  0  0  0  0  0
   -0.4215    2.2204   -2.6322 O   0  0  0  0  0  0  0  0  0  0  0  0
    0.5617    0.2317   -2.5031 O   0  0  0  0  0  0  0  0  0  0  0  0
    0.6226    0.4365   -3.4367 H   0  0  0  0  0  0  0  0  0  0  0  0
    0.5920   -0.2154    1.5497 C   0  0  0  0  0  0  0  0  0  0  0  0
    1.7860   -0.4596    1.7183 O   0  0  0  0  0  0  0  0  0  0  0  0
   -0.2294    0.0669    2.5672 N   0  0  0  0  0  0  0  0  0  0  0  0
   -1.2130    0.1938    2.3518 H   0  0  0  0  0  0  0  0  0  0  0  0
    0.1836    0.1337    3.9673 C   0  0  0  0  0  0  0  0  0  0  0  0
    1.0451    0.7976    4.0666 H   0  0  0  0  0  0  0  0  0  0  0  0
   -0.6344    0.5115    4.5820 H   0  0  0  0  0  0  0  0  0  0  0  0
    0.4676   -0.8609    4.3157 H   0  0  0  0  0  0  0  0  0  0  0  0
  5  6  2  0  0  0  0
  5  7  1  0  0  0  0
  2  3  1  0  0  0  0
  2  4  1  0  0  0  0
  2  5  1  0  0  0  0
  1  2  1  0  0  0  0
 18 19  2  0  0  0  0
 18 20  1  0  0  0  0
 16 17  1  0  0  0  0
 14 15  2  0  0  0  0
 14 16  1  0  0  0  0
 11 12  1  0  0  0  0
 11 13  1  0  0  0  0
 11 14  1  0  0  0  0
  9 10  1  0  0  0  0
  9 11  1  0  0  0  0
  9 18  1  0  0  0  0
  7  8  1  0  0  0  0
  7  9  1  0  0  0  0
 22 23  1  0  0  0  0
 22 24  1  0  0  0  0
 22 25  1  0  0  0  0
 20 21  1  0  0  0  0
 20 22  1  0  0  0  0
M  END
$$$$
default_name
  -OEChem-02102213163D

 25 24  0     1  0  0  0  0  0999 V2000
   -2.7826   -3.8464    0.7821 H   0  0  0  0  0  0  0  0  0  0  0  0
   -2.8156   -2.8034    0.4711 C   0  0  0  0  0  0  0  0  0  0  0  0
   -3.4336   -2.2354    1.1641 H   0  0  0  0  0  0  0  0  0  0  0  0
   -3.2256   -2.7344   -0.5349 H   0  0  0  0  0  0  0  0  0  0  0  0
   -1.4126   -2.2444    0.4801 C   0  0  0  0  0  0  0  0  0  0  0  0
   -0.4686   -2.9534    0.8001 O   0  0  0  0  0  0  0  0  0  0  0  0
   -1.2736   -0.9704    0.1241 N   0  0  0  0  0  0  0  0  0  0  0  0
   -2.0996   -0.4354   -0.1019 H   0  0  0  0  0  0  0  0  0  0  0  0
   -0.0016   -0.2394    0.1271 C   0  0  1  0  0  0  0  0  0  0  0  0
    0.6995   -0.7619   -0.5275 H   0  0  0  0  0  0  0  0  0  0  0  0
   -0.2283    1.1832   -0.4215 C   0  0  0  0  0  0  0  0  0  0  0  0
   -1.1315    1.6037    0.0222 H   0  0  0  0  0  0  0  0  0  0  0  0
    0.6105    1.8221   -0.1431 H   0  0  0  0  0  0  0  0  0  0  0  0
   -0.4124    1.2277   -1.9355 C   0  0  0  0  0  0  0  0  0  0  0  0
   -0.6058    2.2370   -2.6003 O   0  0  0  0  0  0  0  0  0  0  0  0
   -0.3569    0.0295   -2.5463 O   0  0  0  0  0  0  0  0  0  0  0  0
   -0.4663    0.2062   -3.4812 H   0  0  0  0  0  0  0  0  0  0  0  0
    0.5920   -0.2154    1.5497 C   0  0  0  0  0  0  0  0  0  0  0  0
    1.7860   -0.4596    1.7183 O   0  0  0  0  0  0  0  0  0  0  0  0
   -0.2294    0.0669    2.5672 N   0  0  0  0  0  0  0  0  0  0  0  0
   -1.2130    0.1938    2.3518 H   0  0  0  0  0  0  0  0  0  0  0  0
    0.1836    0.1337    3.9673 C   0  0  0  0  0  0  0  0  0  0  0  0
    1.0451    0.7976    4.0666 H   0  0  0  0  0  0  0  0  0  0  0  0
   -0.6344    0.5115    4.5820 H   0  0  0  0  0  0  0  0  0  0  0  0
    0.4676   -0.8609    4.3157 H   0  0  0  0  0  0  0  0  0  0  0  0
  5  6  2  0  0  0  0
  5  7  1  0  0  0  0
  2  3  1  0  0  0  0
  2  4  1  0  0  0  0
  2  5  1  0  0  0  0
  1  2  1  0  0  0  0
 18 19  2  0  0  0  0
 18 20  1  0  0  0  0
 16 17  1  0  0  0  0
 14 15  2  0  0  0  0
 14 16  1  0  0  0  0
 11 12  1  0  0  0  0
 11 13  1  0  0  0  0
 11 14  1  0  0  0  0
  9 10  1  0  0  0  0
  9 11  1  0  0  0  0
  9 18  1  0  0  0  0
  7  8  1  0  0  0  0
  7  9  1  0  0  0  0
 22 23  1  0  0  0  0
 22 24  1  0  0  0  0
 22 25  1  0  0  0  0
 20 21  1  0  0  0  0
 20 22  1  0  0  0  0
M  END
$$$$
default_name
  -OEChem-02102213163D

 25 24  0     1  0  0  0  0  0999 V2000
   -2.7826   -3.8464    0.7821 H   0  0  0  0  0  0  0  0  0  0  0  0
   -2.8156   -2.8034    0.4711 C   0  0  0  0  0  0  0  0  0  0  0  0
   -3.4336   -2.2354    1.1641 H   0  0  0  0  0  0  0  0  0  0  0  0
   -3.2256   -2.7344   -0.5349 H   0  0  0  0  0  0  0  0  0  0  0  0
   -1.4126   -2.2444    0.4801 C   0  0  0  0  0  0  0  0  0  0  0  0
   -0.4686   -2.9534    0.8001 O   0  0  0  0  0  0  0  0  0  0  0  0
   -1.2736   -0.9704    0.1241 N   0  0  0  0  0  0  0  0  0  0  0  0
   -2.0996   -0.4354   -0.1019 H   0  0  0  0  0  0  0  0  0  0  0  0
   -0.0016   -0.2394    0.1271 C   0  0  1  0  0  0  0  0  0  0  0  0
    0.6995   -0.7619   -0.5275 H   0  0  0  0  0  0  0  0  0  0  0  0
   -0.2283    1.1832   -0.4215 C   0  0  0  0  0  0  0  0  0  0  0  0
   -1.1315    1.6037    0.0222 H   0  0  0  0  0  0  0  0  0  0  0  0
    0.6105    1.8221   -0.1431 H   0  0  0  0  0  0  0  0  0  0  0  0
   -0.4124    1.2277   -1.9355 C   0  0  0  0  0  0  0  0  0  0  0  0
   -0.3479    2.2323   -2.6318 O   0  0  0  0  0  0  0  0  0  0  0  0
   -0.6734    0.0376   -2.5076 O   0  0  0  0  0  0  0  0  0  0  0  0
   -0.7447    0.2081   -3.4473 H   0  0  0  0  0  0  0  0  0  0  0  0
    0.5920   -0.2154    1.5497 C   0  0  0  0  0  0  0  0  0  0  0  0
    1.7860   -0.4596    1.7183 O   0  0  0  0  0  0  0  0  0  0  0  0
   -0.2294    0.0669    2.5672 N   0  0  0  0  0  0  0  0  0  0  0  0
   -1.2130    0.1938    2.3518 H   0  0  0  0  0  0  0  0  0  0  0  0
    0.1836    0.1337    3.9673 C   0  0  0  0  0  0  0  0  0  0  0  0
    1.0451    0.7976    4.0666 H   0  0  0  0  0  0  0  0  0  0  0  0
   -0.6344    0.5115    4.5820 H   0  0  0  0  0  0  0  0  0  0  0  0
    0.4676   -0.8609    4.3157 H   0  0  0  0  0  0  0  0  0  0  0  0
  5  6  2  0  0  0  0
  5  7  1  0  0  0  0
  2  3  1  0  0  0  0
  2  4  1  0  0  0  0
  2  5  1  0  0  0  0
  1  2  1  0  0  0  0
 18 19  2  0  0  0  0
 18 20  1  0  0  0  0
 16 17  1  0  0  0  0
 14 15  2  0  0  0  0
 14 16  1  0  0  0  0
 11 12  1  0  0  0  0
 11 13  1  0  0  0  0
 11 14  1  0  0  0  0
  9 10  1  0  0  0  0
  9 11  1  0  0  0  0
  9 18  1  0  0  0  0
  7  8  1  0  0  0  0
  7  9  1  0  0  0  0
 22 23  1  0  0  0  0
 22 24  1  0  0  0  0
 22 25  1  0  0  0  0
 20 21  1  0  0  0  0
 20 22  1  0  0  0  0
M  END
$$$$
default_name
  -OEChem-02102213163D

 25 24  0     1  0  0  0  0  0999 V2000
   -2.7826   -3.8464    0.7821 H   0  0  0  0  0  0  0  0  0  0  0  0
   -2.8156   -2.8034    0.4711 C   0  0  0  0  0  0  0  0  0  0  0  0
   -3.4336   -2.2354    1.1641 H   0  0  0  0  0  0  0  0  0  0  0  0
   -3.2256   -2.7344   -0.5349 H   0  0  0  0  0  0  0  0  0  0  0  0
   -1.4126   -2.2444    0.4801 C   0  0  0  0  0  0  0  0  0  0  0  0
   -0.4686   -2.9534    0.8001 O   0  0  0  0  0  0  0  0  0  0  0  0
   -1.2736   -0.9704    0.1241 N   0  0  0  0  0  0  0  0  0  0  0  0
   -2.0996   -0.4354   -0.1019 H   0  0  0  0  0  0  0  0  0  0  0  0
   -0.0016   -0.2394    0.1271 C   0  0  1  0  0  0  0  0  0  0  0  0
    0.6995   -0.7619   -0.5275 H   0  0  0  0  0  0  0  0  0  0  0  0
   -0.2283    1.1832   -0.4215 C   0  0  0  0  0  0  0  0  0  0  0  0
   -1.1315    1.6037    0.0222 H   0  0  0  0  0  0  0  0  0  0  0  0
    0.6105    1.8221   -0.1431 H   0  0  0  0  0  0  0  0  0  0  0  0
   -0.4124    1.2277   -1.9355 C   0  0  0  0  0  0  0  0  0  0  0  0
   -0.1003    2.1604   -2.6640 O   0  0  0  0  0  0  0  0  0  0  0  0
   -0.9768    0.1279   -2.4681 O   0  0  0  0  0  0  0  0  0  0  0  0
   -1.0129    0.2825   -3.4125 H   0  0  0  0  0  0  0  0  0  0  0  0
    0.5920   -0.2154    1.5497 C   0  0  0  0  0  0  0  0  0  0  0  0
    1.7860   -0.4596    1.7183 O   0  0  0  0  0  0  0  0  0  0  0  0
   -0.2294    0.0669    2.5672 N   0  0  0  0  0  0  0  0  0  0  0  0
   -1.2130    0.1938    2.3518 H   0  0  0  0  0  0  0  0  0  0  0  0
    0.1836    0.1337    3.9673 C   0  0  0  0  0  0  0  0  0  0  0  0
    1.0451    0.7976    4.0666 H   0  0  0  0  0  0  0  0  0  0  0  0
   -0.6344    0.5115    4.5820 H   0  0  0  0  0  0  0  0  0  0  0  0
    0.4676   -0.8609    4.3157 H   0  0  0  0  0  0  0  0  0  0  0  0
  5  6  2  0  0  0  0
  5  7  1  0  0  0  0
  2  3  1  0  0  0  0
  2  4  1  0  0  0  0
  2  5  1  0  0  0  0
  1  2  1  0  0  0  0
 18 19  2  0  0  0  0
 18 20  1  0  0  0  0
 16 17  1  0  0  0  0
 14 15  2  0  0  0  0
 14 16  1  0  0  0  0
 11 12  1  0  0  0  0
 11 13  1  0  0  0  0
 11 14  1  0  0  0  0
  9 10  1  0  0  0  0
  9 11  1  0  0  0  0
  9 18  1  0  0  0  0
  7  8  1  0  0  0  0
  7  9  1  0  0  0  0
 22 23  1  0  0  0  0
 22 24  1  0  0  0  0
 22 25  1  0  0  0  0
 20 21  1  0  0  0  0
 20 22  1  0  0  0  0
M  END
$$$$
default_name
  -OEChem-02102213163D

 25 24  0     1  0  0  0  0  0999 V2000
   -2.7826   -3.8464    0.7821 H   0  0  0  0  0  0  0  0  0  0  0  0
   -2.8156   -2.8034    0.4711 C   0  0  0  0  0  0  0  0  0  0  0  0
   -3.4336   -2.2354    1.1641 H   0  0  0  0  0  0  0  0  0  0  0  0
   -3.2256   -2.7344   -0.5349 H   0  0  0  0  0  0  0  0  0  0  0  0
   -1.4126   -2.2444    0.4801 C   0  0  0  0  0  0  0  0  0  0  0  0
   -0.4686   -2.9534    0.8001 O   0  0  0  0  0  0  0  0  0  0  0  0
   -1.2736   -0.9704    0.1241 N   0  0  0  0  0  0  0  0  0  0  0  0
   -2.0996   -0.4354   -0.1019 H   0  0  0  0  0  0  0  0  0  0  0  0
   -0.0016   -0.2394    0.1271 C   0  0  1  0  0  0  0  0  0  0  0  0
    0.6995   -0.7619   -0.5275 H   0  0  0  0  0  0  0  0  0  0  0  0
   -0.2283    1.1832   -0.4215 C   0  0  0  0  0  0  0  0  0  0  0  0
   -1.1315    1.6037    0.0222 H   0  0  0  0  0  0  0  0  0  0  0  0
    0.6105    1.8221   -0.1431 H   0  0  0  0  0  0  0  0  0  0  0  0
   -0.4124    1.2277   -1.9355 C   0  0  0  0  0  0  0  0  0  0  0  0
    0.1202    2.0265   -2.6948 O   0  0  0  0  0  0  0  0  0  0  0  0
   -1.2464    0.2942   -2.4304 O   0  0  0  0  0  0  0  0  0  0  0  0
   -1.2525    0.4243   -3.3792 H   0  0  0  0  0  0  0  0  0  0  0  0
    0.5920   -0.2154    1.5497 C   0  0  0  0  0  0  0  0  0  0  0  0
    1.7860   -0.4596    1.7183 O   0  0  0  0  0  0  0  0  0  0  0  0
   -0.2294    0.0669    2.5672 N   0  0  0  0  0  0  0  0  0  0  0  0
   -1.2130    0.1938    2.3518 H   0  0  0  0  0  0  0  0  0  0  0  0
    0.1836    0.1337    3.9673 C   0  0  0  0  0  0  0  0  0  0  0  0
    1.0451    0.7976    4.0666 H   0  0  0  0  0  0  0  0  0  0  0  0
   -0.6344    0.5115    4.5820 H   0  0  0  0  0  0  0  0  0  0  0  0
    0.4676   -0.8609    4.3157 H   0  0  0  0  0  0  0  0  0  0  0  0
  5  6  2  0  0  0  0
  5  7  1  0  0  0  0
  2  3  1  0  0  0  0
  2  4  1  0  0  0  0
  2  5  1  0  0  0  0
  1  2  1  0  0  0  0
 18 19  2  0  0  0  0
 18 20  1  0  0  0  0
 16 17  1  0  0  0  0
 14 15  2  0  0  0  0
 14 16  1  0  0  0  0
 11 12  1  0  0  0  0
 11 13  1  0  0  0  0
 11 14  1  0  0  0  0
  9 10  1  0  0  0  0
  9 11  1  0  0  0  0
  9 18  1  0  0  0  0
  7  8  1  0  0  0  0
  7  9  1  0  0  0  0
 22 23  1  0  0  0  0
 22 24  1  0  0  0  0
 22 25  1  0  0  0  0
 20 21  1  0  0  0  0
 20 22  1  0  0  0  0
M  END
$$$$
default_name
  -OEChem-02102213163D

 25 24  0     1  0  0  0  0  0999 V2000
   -2.7826   -3.8464    0.7821 H   0  0  0  0  0  0  0  0  0  0  0  0
   -2.8156   -2.8034    0.4711 C   0  0  0  0  0  0  0  0  0  0  0  0
   -3.4336   -2.2354    1.1641 H   0  0  0  0  0  0  0  0  0  0  0  0
   -3.2256   -2.7344   -0.5349 H   0  0  0  0  0  0  0  0  0  0  0  0
   -1.4126   -2.2444    0.4801 C   0  0  0  0  0  0  0  0  0  0  0  0
   -0.4686   -2.9534    0.8001 O   0  0  0  0  0  0  0  0  0  0  0  0
   -1.2736   -0.9704    0.1241 N   0  0  0  0  0  0  0  0  0  0  0  0
   -2.0996   -0.4354   -0.1019 H   0  0  0  0  0  0  0  0  0  0  0  0
   -0.0016   -0.2394    0.1271 C   0  0  1  0  0  0  0  0  0  0  0  0
    0.6995   -0.7619   -0.5275 H   0  0  0  0  0  0  0  0  0  0  0  0
   -0.2283    1.1832   -0.4215 C   0  0  0  0  0  0  0  0  0  0  0  0
   -1.1315    1.6037    0.0222 H   0  0  0  0  0  0  0  0  0  0  0  0
    0.6105    1.8221   -0.1431 H   0  0  0  0  0  0  0  0  0  0  0  0
   -0.4124    1.2277   -1.9355 C   0  0  0  0  0  0  0  0  0  0  0  0
    0.2985    1.8395   -2.7220 O   0  0  0  0  0  0  0  0  0  0  0  0
   -1.4638    0.5253   -2.3972 O   0  0  0  0  0  0  0  0  0  0  0  0
   -1.4473    0.6239   -3.3497 H   0  0  0  0  0  0  0  0  0  0  0  0
    0.5920   -0.2154    1.5497 C   0  0  0  0  0  0  0  0  0  0  0  0
    1.7860   -0.4596    1.7183 O   0  0  0  0  0  0  0  0  0  0  0  0
   -0.2294    0.0669    2.5672 N   0  0  0  0  0  0  0  0  0  0  0  0
   -1.2130    0.1938    2.3518 H   0  0  0  0  0  0  0  0  0  0  0  0
    0.1836    0.1337    3.9673 C   0  0  0  0  0  0  0  0  0  0  0  0
    1.0451    0.7976    4.0666 H   0  0  0  0  0  0  0  0  0  0  0  0
   -0.6344    0.5115    4.5820 H   0  0  0  0  0  0  0  0  0  0  0  0
    0.4676   -0.8609    4.3157 H   0  0  0  0  0  0  0  0  0  0  0  0
  5  6  2  0  0  0  0
  5  7  1  0  0  0  0
  2  3  1  0  0  0  0
  2  4  1  0  0  0  0
  2  5  1  0  0  0  0
  1  2  1  0  0  0  0
 18 19  2  0  0  0  0
 18 20  1  0  0  0  0
 16 17  1  0  0  0  0
 14 15  2  0  0  0  0
 14 16  1  0  0  0  0
 11 12  1  0  0  0  0
 11 13  1  0  0  0  0
 11 14  1  0  0  0  0
  9 10  1  0  0  0  0
  9 11  1  0  0  0  0
  9 18  1  0  0  0  0
  7  8  1  0  0  0  0
  7  9  1  0  0  0  0
 22 23  1  0  0  0  0
 22 24  1  0  0  0  0
 22 25  1  0  0  0  0
 20 21  1  0  0  0  0
 20 22  1  0  0  0  0
M  END
$$$$
default_name
  -OEChem-02102213163D

 25 24  0     1  0  0  0  0  0999 V2000
   -2.7826   -3.8464    0.7821 H   0  0  0  0  0  0  0  0  0  0  0  0
   -2.8156   -2.8034    0.4711 C   0  0  0  0  0  0  0  0  0  0  0  0
   -3.4336   -2.2354    1.1641 H   0  0  0  0  0  0  0  0  0  0  0  0
   -3.2256   -2.7344   -0.5349 H   0  0  0  0  0  0  0  0  0  0  0  0
   -1.4126   -2.2444    0.4801 C   0  0  0  0  0  0  0  0  0  0  0  0
   -0.4686   -2.9534    0.8001 O   0  0  0  0  0  0  0  0  0  0  0  0
   -1.2736   -0.9704    0.1241 N   0  0  0  0  0  0  0  0  0  0  0  0
   -2.0996   -0.4354   -0.1019 H   0  0  0  0  0  0  0  0  0  0  0  0
   -0.0016   -0.2394    0.1271 C   0  0  1  0  0  0  0  0  0  0  0  0
    0.6995   -0.7619   -0.5275 H   0  0  0  0  0  0  0  0  0  0  0  0
   -0.2283    1.1832   -0.4215 C   0  0  0  0  0  0  0  0  0  0  0  0
   -1.1315    1.6037    0.0222 H   0  0  0  0  0  0  0  0  0  0  0  0
    0.6105    1.8221   -0.1431 H   0  0  0  0  0  0  0  0  0  0  0  0
   -0.4124    1.2277   -1.9355 C   0  0  0  0  0  0  0  0  0  0  0  0
    0.4225    1.6122   -2.7437 O   0  0  0  0  0  0  0  0  0  0  0  0
   -1.6141    0.8054   -2.3707 O   0  0  0  0  0  0  0  0  0  0  0  0
   -1.5840    0.8676   -3.3259 H   0  0  0  0  0  0  0  0  0  0  0  0
    0.5920   -0.2154    1.5497 C   0  0  0  0  0  0  0  0  0  0  0  0
    1.7860   -0.4596    1.7183 O   0  0  0  0  0  0  0  0  0  0  0  0
   -0.2294    0.0669    2.5672 N   0  0  0  0  0  0  0  0  0  0  0  0
   -1.2130    0.1938    2.3518 H   0  0  0  0  0  0  0  0  0  0  0  0
    0.1836    0.1337    3.9673 C   0  0  0  0  0  0  0  0  0  0  0  0
    1.0451    0.7976    4.0666 H   0  0  0  0  0  0  0  0  0  0  0  0
   -0.6344    0.5115    4.5820 H   0  0  0  0  0  0  0  0  0  0  0  0
    0.4676   -0.8609    4.3157 H   0  0  0  0  0  0  0  0  0  0  0  0
  5  6  2  0  0  0  0
  5  7  1  0  0  0  0
  2  3  1  0  0  0  0
  2  4  1  0  0  0  0
  2  5  1  0  0  0  0
  1  2  1  0  0  0  0
 18 19  2  0  0  0  0
 18 20  1  0  0  0  0
 16 17  1  0  0  0  0
 14 15  2  0  0  0  0
 14 16  1  0  0  0  0
 11 12  1  0  0  0  0
 11 13  1  0  0  0  0
 11 14  1  0  0  0  0
  9 10  1  0  0  0  0
  9 11  1  0  0  0  0
  9 18  1  0  0  0  0
  7  8  1  0  0  0  0
  7  9  1  0  0  0  0
 22 23  1  0  0  0  0
 22 24  1  0  0  0  0
 22 25  1  0  0  0  0
 20 21  1  0  0  0  0
 20 22  1  0  0  0  0
M  END
$$$$
default_name
  -OEChem-02102213163D

 25 24  0     1  0  0  0  0  0999 V2000
   -2.7826   -3.8464    0.7821 H   0  0  0  0  0  0  0  0  0  0  0  0
   -2.8156   -2.8034    0.4711 C   0  0  0  0  0  0  0  0  0  0  0  0
   -3.4336   -2.2354    1.1641 H   0  0  0  0  0  0  0  0  0  0  0  0
   -3.2256   -2.7344   -0.5349 H   0  0  0  0  0  0  0  0  0  0  0  0
   -1.4126   -2.2444    0.4801 C   0  0  0  0  0  0  0  0  0  0  0  0
   -0.4686   -2.9534    0.8001 O   0  0  0  0  0  0  0  0  0  0  0  0
   -1.2736   -0.9704    0.1241 N   0  0  0  0  0  0  0  0  0  0  0  0
   -2.0996   -0.4354   -0.1019 H   0  0  0  0  0  0  0  0  0  0  0  0
   -0.0016   -0.2394    0.1271 C   0  0  1  0  0  0  0  0  0  0  0  0
    0.6995   -0.7619   -0.5275 H   0  0  0  0  0  0  0  0  0  0  0  0
   -0.2283    1.1832   -0.4215 C   0  0  0  0  0  0  0  0  0  0  0  0
   -1.1315    1.6037    0.0222 H   0  0  0  0  0  0  0  0  0  0  0  0
    0.6105    1.8221   -0.1431 H   0  0  0  0  0  0  0  0  0  0  0  0
   -0.4124    1.2277   -1.9355 C   0  0  0  0  0  0  0  0  0  0  0  0
    0.4838    1.3602   -2.7586 O   0  0  0  0  0  0  0  0  0  0  0  0
   -1.6872    1.1154   -2.3527 O   0  0  0  0  0  0  0  0  0  0  0  0
   -1.6533    1.1388   -3.3095 H   0  0  0  0  0  0  0  0  0  0  0  0
    0.5920   -0.2154    1.5497 C   0  0  0  0  0  0  0  0  0  0  0  0
    1.7860   -0.4596    1.7183 O   0  0  0  0  0  0  0  0  0  0  0  0
   -0.2294    0.0669    2.5672 N   0  0  0  0  0  0  0  0  0  0  0  0
   -1.2130    0.1938    2.3518 H   0  0  0  0  0  0  0  0  0  0  0  0
    0.1836    0.1337    3.9673 C   0  0  0  0  0  0  0  0  0  0  0  0
    1.0451    0.7976    4.0666 H   0  0  0  0  0  0  0  0  0  0  0  0
   -0.6344    0.5115    4.5820 H   0  0  0  0  0  0  0  0  0  0  0  0
    0.4676   -0.8609    4.3157 H   0  0  0  0  0  0  0  0  0  0  0  0
  5  6  2  0  0  0  0
  5  7  1  0  0  0  0
  2  3  1  0  0  0  0
  2  4  1  0  0  0  0
  2  5  1  0  0  0  0
  1  2  1  0  0  0  0
 18 19  2  0  0  0  0
 18 20  1  0  0  0  0
 16 17  1  0  0  0  0
 14 15  2  0  0  0  0
 14 16  1  0  0  0  0
 11 12  1  0  0  0  0
 11 13  1  0  0  0  0
 11 14  1  0  0  0  0
  9 10  1  0  0  0  0
  9 11  1  0  0  0  0
  9 18  1  0  0  0  0
  7  8  1  0  0  0  0
  7  9  1  0  0  0  0
 22 23  1  0  0  0  0
 22 24  1  0  0  0  0
 22 25  1  0  0  0  0
 20 21  1  0  0  0  0
 20 22  1  0  0  0  0
M  END
$$$$
default_name
  -OEChem-02102213163D

 25 24  0     1  0  0  0  0  0999 V2000
   -2.7826   -3.8464    0.7821 H   0  0  0  0  0  0  0  0  0  0  0  0
   -2.8156   -2.8034    0.4711 C   0  0  0  0  0  0  0  0  0  0  0  0
   -3.4336   -2.2354    1.1641 H   0  0  0  0  0  0  0  0  0  0  0  0
   -3.2256   -2.7344   -0.5349 H   0  0  0  0  0  0  0  0  0  0  0  0
   -1.4126   -2.2444    0.4801 C   0  0  0  0  0  0  0  0  0  0  0  0
   -0.4686   -2.9534    0.8001 O   0  0  0  0  0  0  0  0  0  0  0  0
   -1.2736   -0.9704    0.1241 N   0  0  0  0  0  0  0  0  0  0  0  0
   -2.0996   -0.4354   -0.1019 H   0  0  0  0  0  0  0  0  0  0  0  0
   -0.0016   -0.2394    0.1271 C   0  0  1  0  0  0  0  0  0  0  0  0
    0.6995   -0.7619   -0.5275 H   0  0  0  0  0  0  0  0  0  0  0  0
   -0.2283    1.1832   -0.4215 C   0  0  0  0  0  0  0  0  0  0  0  0
   -1.1315    1.6037    0.0222 H   0  0  0  0  0  0  0  0  0  0  0  0
    0.6105    1.8221   -0.1431 H   0  0  0  0  0  0  0  0  0  0  0  0
   -0.4124    1.2277   -1.9355 C   0  0  0  0  0  0  0  0  0  0  0  0
    0.4782    1.1005   -2.7655 O   0  0  0  0  0  0  0  0  0  0  0  0
   -1.6781    1.4342   -2.3444 O   0  0  0  0  0  0  0  0  0  0  0  0
   -1.6504    1.4191   -3.3016 H   0  0  0  0  0  0  0  0  0  0  0  0
    0.5920   -0.2154    1.5497 C   0  0  0  0  0  0  0  0  0  0  0  0
    1.7860   -0.4596    1.7183 O   0  0  0  0  0  0  0  0  0  0  0  0
   -0.2294    0.0669    2.5672 N   0  0  0  0  0  0  0  0  0  0  0  0
   -1.2130    0.1938    2.3518 H   0  0  0  0  0  0  0  0  0  0  0  0
    0.1836    0.1337    3.9673 C   0  0  0  0  0  0  0  0  0  0  0  0
    1.0451    0.7976    4.0666 H   0  0  0  0  0  0  0  0  0  0  0  0
   -0.6344    0.5115    4.5820 H   0  0  0  0  0  0  0  0  0  0  0  0
    0.4676   -0.8609    4.3157 H   0  0  0  0  0  0  0  0  0  0  0  0
  5  6  2  0  0  0  0
  5  7  1  0  0  0  0
  2  3  1  0  0  0  0
  2  4  1  0  0  0  0
  2  5  1  0  0  0  0
  1  2  1  0  0  0  0
 18 19  2  0  0  0  0
 18 20  1  0  0  0  0
 16 17  1  0  0  0  0
 14 15  2  0  0  0  0
 14 16  1  0  0  0  0
 11 12  1  0  0  0  0
 11 13  1  0  0  0  0
 11 14  1  0  0  0  0
  9 10  1  0  0  0  0
  9 11  1  0  0  0  0
  9 18  1  0  0  0  0
  7  8  1  0  0  0  0
  7  9  1  0  0  0  0
 22 23  1  0  0  0  0
 22 24  1  0  0  0  0
 22 25  1  0  0  0  0
 20 21  1  0  0  0  0
 20 22  1  0  0  0  0
M  END
$$$$
default_name
  -OEChem-02102213163D

 25 24  0     1  0  0  0  0  0999 V2000
   -2.7826   -3.8464    0.7821 H   0  0  0  0  0  0  0  0  0  0  0  0
   -2.8156   -2.8034    0.4711 C   0  0  0  0  0  0  0  0  0  0  0  0
   -3.4336   -2.2354    1.1641 H   0  0  0  0  0  0  0  0  0  0  0  0
   -3.2256   -2.7344   -0.5349 H   0  0  0  0  0  0  0  0  0  0  0  0
   -1.4126   -2.2444    0.4801 C   0  0  0  0  0  0  0  0  0  0  0  0
   -0.4686   -2.9534    0.8001 O   0  0  0  0  0  0  0  0  0  0  0  0
   -1.2736   -0.9704    0.1241 N   0  0  0  0  0  0  0  0  0  0  0  0
   -2.0996   -0.4354   -0.1019 H   0  0  0  0  0  0  0  0  0  0  0  0
   -0.0016   -0.2394    0.1271 C   0  0  1  0  0  0  0  0  0  0  0  0
    0.6995   -0.7619   -0.5275 H   0  0  0  0  0  0  0  0  0  0  0  0
   -0.2283    1.1832   -0.4215 C   0  0  0  0  0  0  0  0  0  0  0  0
   -1.1315    1.6037    0.0222 H   0  0  0  0  0  0  0  0  0  0  0  0
    0.6105    1.8221   -0.1431 H   0  0  0  0  0  0  0  0  0  0  0  0
   -0.4124    1.2277   -1.9355 C   0  0  0  0  0  0  0  0  0  0  0  0
    0.4059    0.8509   -2.7641 O   0  0  0  0  0  0  0  0  0  0  0  0
   -1.5873    1.7400   -2.3464 O   0  0  0  0  0  0  0  0  0  0  0  0
   -1.5756    1.6894   -3.3028 H   0  0  0  0  0  0  0  0  0  0  0  0
    0.5920   -0.2154    1.5497 C   0  0  0  0  0  0  0  0  0  0  0  0
    1.7860   -0.4596    1.7183 O   0  0  0  0  0  0  0  0  0  0  0  0
   -0.2294    0.0669    2.5672 N   0  0  0  0  0  0  0  0  0  0  0  0
   -1.2130    0.1938    2.3518 H   0  0  0  0  0  0  0  0  0  0  0  0
    0.1836    0.1337    3.9673 C   0  0  0  0  0  0  0  0  0  0  0  0
    1.0451    0.7976    4.0666 H   0  0  0  0  0  0  0  0  0  0  0  0
   -0.6344    0.5115    4.5820 H   0  0  0  0  0  0  0  0  0  0  0  0
    0.4676   -0.8609    4.3157 H   0  0  0  0  0  0  0  0  0  0  0  0
  5  6  2  0  0  0  0
  5  7  1  0  0  0  0
  2  3  1  0  0  0  0
  2  4  1  0  0  0  0
  2  5  1  0  0  0  0
  1  2  1  0  0  0  0
 18 19  2  0  0  0  0
 18 20  1  0  0  0  0
 16 17  1  0  0  0  0
 14 15  2  0  0  0  0
 14 16  1  0  0  0  0
 11 12  1  0  0  0  0
 11 13  1  0  0  0  0
 11 14  1  0  0  0  0
  9 10  1  0  0  0  0
  9 11  1  0  0  0  0
  9 18  1  0  0  0  0
  7  8  1  0  0  0  0
  7  9  1  0  0  0  0
 22 23  1  0  0  0  0
 22 24  1  0  0  0  0
 22 25  1  0  0  0  0
 20 21  1  0  0  0  0
 20 22  1  0  0  0  0
M  END
$$$$
default_name
  -OEChem-02102213163D

 25 24  0     1  0  0  0  0  0999 V2000
   -2.7826   -3.8464    0.7821 H   0  0  0  0  0  0  0  0  0  0  0  0
   -2.8156   -2.8034    0.4711 C   0  0  0  0  0  0  0  0  0  0  0  0
   -3.4336   -2.2354    1.1641 H   0  0  0  0  0  0  0  0  0  0  0  0
   -3.2256   -2.7344   -0.5349 H   0  0  0  0  0  0  0  0  0  0  0  0
   -1.4126   -2.2444    0.4801 C   0  0  0  0  0  0  0  0  0  0  0  0
   -0.4686   -2.9534    0.8001 O   0  0  0  0  0  0  0  0  0  0  0  0
   -1.2736   -0.9704    0.1241 N   0  0  0  0  0  0  0  0  0  0  0  0
   -2.0996   -0.4354   -0.1019 H   0  0  0  0  0  0  0  0  0  0  0  0
   -0.0016   -0.2394    0.1271 C   0  0  1  0  0  0  0  0  0  0  0  0
    0.6995   -0.7619   -0.5275 H   0  0  0  0  0  0  0  0  0  0  0  0
   -0.2283    1.1832   -0.4215 C   0  0  0  0  0  0  0  0  0  0  0  0
   -1.1315    1.6037    0.0222 H   0  0  0  0  0  0  0  0  0  0  0  0
    0.6105    1.8221   -0.1431 H   0  0  0  0  0  0  0  0  0  0  0  0
   -0.4124    1.2277   -1.9355 C   0  0  0  0  0  0  0  0  0  0  0  0
    0.2721    0.6284   -2.7544 O   0  0  0  0  0  0  0  0  0  0  0  0
   -1.4212    2.0120   -2.3587 O   0  0  0  0  0  0  0  0  0  0  0  0
   -1.4339    1.9312   -3.3129 H   0  0  0  0  0  0  0  0  0  0  0  0
    0.5920   -0.2154    1.5497 C   0  0  0  0  0  0  0  0  0  0  0  0
    1.7860   -0.4596    1.7183 O   0  0  0  0  0  0  0  0  0  0  0  0
   -0.2294    0.0669    2.5672 N   0  0  0  0  0  0  0  0  0  0  0  0
   -1.2130    0.1938    2.3518 H   0  0  0  0  0  0  0  0  0  0  0  0
    0.1836    0.1337    3.9673 C   0  0  0  0  0  0  0  0  0  0  0  0
    1.0451    0.7976    4.0666 H   0  0  0  0  0  0  0  0  0  0  0  0
   -0.6344    0.5115    4.5820 H   0  0  0  0  0  0  0  0  0  0  0  0
    0.4676   -0.8609    4.3157 H   0  0  0  0  0  0  0  0  0  0  0  0
  5  6  2  0  0  0  0
  5  7  1  0  0  0  0
  2  3  1  0  0  0  0
  2  4  1  0  0  0  0
  2  5  1  0  0  0  0
  1  2  1  0  0  0  0
 18 19  2  0  0  0  0
 18 20  1  0  0  0  0
 16 17  1  0  0  0  0
 14 15  2  0  0  0  0
 14 16  1  0  0  0  0
 11 12  1  0  0  0  0
 11 13  1  0  0  0  0
 11 14  1  0  0  0  0
  9 10  1  0  0  0  0
  9 11  1  0  0  0  0
  9 18  1  0  0  0  0
  7  8  1  0  0  0  0
  7  9  1  0  0  0  0
 22 23  1  0  0  0  0
 22 24  1  0  0  0  0
 22 25  1  0  0  0  0
 20 21  1  0  0  0  0
 20 22  1  0  0  0  0
M  END
$$$$
default_name
  -OEChem-02102213163D

 25 24  0     1  0  0  0  0  0999 V2000
   -2.7826   -3.8464    0.7821 H   0  0  0  0  0  0  0  0  0  0  0  0
   -2.8156   -2.8034    0.4711 C   0  0  0  0  0  0  0  0  0  0  0  0
   -3.4336   -2.2354    1.1641 H   0  0  0  0  0  0  0  0  0  0  0  0
   -3.2256   -2.7344   -0.5349 H   0  0  0  0  0  0  0  0  0  0  0  0
   -1.4126   -2.2444    0.4801 C   0  0  0  0  0  0  0  0  0  0  0  0
   -0.4686   -2.9534    0.8001 O   0  0  0  0  0  0  0  0  0  0  0  0
   -1.2736   -0.9704    0.1241 N   0  0  0  0  0  0  0  0  0  0  0  0
   -2.0996   -0.4354   -0.1019 H   0  0  0  0  0  0  0  0  0  0  0  0
   -0.0016   -0.2394    0.1271 C   0  0  1  0  0  0  0  0  0  0  0  0
    0.6995   -0.7619   -0.5275 H   0  0  0  0  0  0  0  0  0  0  0  0
   -0.2283    1.1832   -0.4215 C   0  0  0  0  0  0  0  0  0  0  0  0
   -1.1315    1.6037    0.0222 H   0  0  0  0  0  0  0  0  0  0  0  0
    0.6105    1.8221   -0.1431 H   0  0  0  0  0  0  0  0  0  0  0  0
   -0.4124    1.2277   -1.9355 C   0  0  0  0  0  0  0  0  0  0  0  0
    0.0858    0.4482   -2.7370 O   0  0  0  0  0  0  0  0  0  0  0  0
   -1.1909    2.2317   -2.3802 O   0  0  0  0  0  0  0  0  0  0  0  0
   -1.2350    2.1281   -3.3313 H   0  0  0  0  0  0  0  0  0  0  0  0
    0.5920   -0.2154    1.5497 C   0  0  0  0  0  0  0  0  0  0  0  0
    1.7860   -0.4596    1.7183 O   0  0  0  0  0  0  0  0  0  0  0  0
   -0.2294    0.0669    2.5672 N   0  0  0  0  0  0  0  0  0  0  0  0
   -1.2130    0.1938    2.3518 H   0  0  0  0  0  0  0  0  0  0  0  0
    0.1836    0.1337    3.9673 C   0  0  0  0  0  0  0  0  0  0  0  0
    1.0451    0.7976    4.0666 H   0  0  0  0  0  0  0  0  0  0  0  0
   -0.6344    0.5115    4.5820 H   0  0  0  0  0  0  0  0  0  0  0  0
    0.4676   -0.8609    4.3157 H   0  0  0  0  0  0  0  0  0  0  0  0
  5  6  2  0  0  0  0
  5  7  1  0  0  0  0
  2  3  1  0  0  0  0
  2  4  1  0  0  0  0
  2  5  1  0  0  0  0
  1  2  1  0  0  0  0
 18 19  2  0  0  0  0
 18 20  1  0  0  0  0
 16 17  1  0  0  0  0
 14 15  2  0  0  0  0
 14 16  1  0  0  0  0
 11 12  1  0  0  0  0
 11 13  1  0  0  0  0
 11 14  1  0  0  0  0
  9 10  1  0  0  0  0
  9 11  1  0  0  0  0
  9 18  1  0  0  0  0
  7  8  1  0  0  0  0
  7  9  1  0  0  0  0
 22 23  1  0  0  0  0
 22 24  1  0  0  0  0
 22 25  1  0  0  0  0
 20 21  1  0  0  0  0
 20 22  1  0  0  0  0
M  END
$$$$
default_name
  -OEChem-02102213163D

 25 24  0     1  0  0  0  0  0999 V2000
   -2.7826   -3.8464    0.7821 H   0  0  0  0  0  0  0  0  0  0  0  0
   -2.8156   -2.8034    0.4711 C   0  0  0  0  0  0  0  0  0  0  0  0
   -3.4336   -2.2354    1.1641 H   0  0  0  0  0  0  0  0  0  0  0  0
   -3.2256   -2.7344   -0.5349 H   0  0  0  0  0  0  0  0  0  0  0  0
   -1.4126   -2.2444    0.4801 C   0  0  0  0  0  0  0  0  0  0  0  0
   -0.4686   -2.9534    0.8001 O   0  0  0  0  0  0  0  0  0  0  0  0
   -1.2736   -0.9704    0.1241 N   0  0  0  0  0  0  0  0  0  0  0  0
   -2.0996   -0.4354   -0.1019 H   0  0  0  0  0  0  0  0  0  0  0  0
   -0.0016   -0.2394    0.1271 C   0  0  1  0  0  0  0  0  0  0  0  0
    0.6995   -0.7619   -0.5275 H   0  0  0  0  0  0  0  0  0  0  0  0
   -0.2283    1.1832   -0.4215 C   0  0  0  0  0  0  0  0  0  0  0  0
   -1.1315    1.6037    0.0222 H   0  0  0  0  0  0  0  0  0  0  0  0
    0.6105    1.8221   -0.1431 H   0  0  0  0  0  0  0  0  0  0  0  0
   -0.4124    1.2277   -1.9355 C   0  0  0  0  0  0  0  0  0  0  0  0
   -0.1404    0.3225   -2.7132 O   0  0  0  0  0  0  0  0  0  0  0  0
   -0.9122    2.3841   -2.4096 O   0  0  0  0  0  0  0  0  0  0  0  0
   -0.9925    2.2666   -3.3567 H   0  0  0  0  0  0  0  0  0  0  0  0
    0.5920   -0.2154    1.5497 C   0  0  0  0  0  0  0  0  0  0  0  0
    1.7860   -0.4596    1.7183 O   0  0  0  0  0  0  0  0  0  0  0  0
   -0.2294    0.0669    2.5672 N   0  0  0  0  0  0  0  0  0  0  0  0
   -1.2130    0.1938    2.3518 H   0  0  0  0  0  0  0  0  0  0  0  0
    0.1836    0.1337    3.9673 C   0  0  0  0  0  0  0  0  0  0  0  0
    1.0451    0.7976    4.0666 H   0  0  0  0  0  0  0  0  0  0  0  0
   -0.6344    0.5115    4.5820 H   0  0  0  0  0  0  0  0  0  0  0  0
    0.4676   -0.8609    4.3157 H   0  0  0  0  0  0  0  0  0  0  0  0
  5  6  2  0  0  0  0
  5  7  1  0  0  0  0
  2  3  1  0  0  0  0
  2  4  1  0  0  0  0
  2  5  1  0  0  0  0
  1  2  1  0  0  0  0
 18 19  2  0  0  0  0
 18 20  1  0  0  0  0
 16 17  1  0  0  0  0
 14 15  2  0  0  0  0
 14 16  1  0  0  0  0
 11 12  1  0  0  0  0
 11 13  1  0  0  0  0
 11 14  1  0  0  0  0
  9 10  1  0  0  0  0
  9 11  1  0  0  0  0
  9 18  1  0  0  0  0
  7  8  1  0  0  0  0
  7  9  1  0  0  0  0
 22 23  1  0  0  0  0
 22 24  1  0  0  0  0
 22 25  1  0  0  0  0
 20 21  1  0  0  0  0
 20 22  1  0  0  0  0
M  END
$$$$
default_name
  -OEChem-02102213163D

 25 24  0     1  0  0  0  0  0999 V2000
   -2.7826   -3.8464    0.7821 H   0  0  0  0  0  0  0  0  0  0  0  0
   -2.8156   -2.8034    0.4711 C   0  0  0  0  0  0  0  0  0  0  0  0
   -3.4336   -2.2354    1.1641 H   0  0  0  0  0  0  0  0  0  0  0  0
   -3.2256   -2.7344   -0.5349 H   0  0  0  0  0  0  0  0  0  0  0  0
   -1.4126   -2.2444    0.4801 C   0  0  0  0  0  0  0  0  0  0  0  0
   -0.4686   -2.9534    0.8001 O   0  0  0  0  0  0  0  0  0  0  0  0
   -1.2736   -0.9704    0.1241 N   0  0  0  0  0  0  0  0  0  0  0  0
   -2.0996   -0.4354   -0.1019 H   0  0  0  0  0  0  0  0  0  0  0  0
   -0.0016   -0.2394    0.1271 C   0  0  1  0  0  0  0  0  0  0  0  0
    0.6995   -0.7619   -0.5275 H   0  0  0  0  0  0  0  0  0  0  0  0
   -0.2283    1.1832   -0.4215 C   0  0  0  0  0  0  0  0  0  0  0  0
   -1.1315    1.6037    0.0222 H   0  0  0  0  0  0  0  0  0  0  0  0
    0.6105    1.8221   -0.1431 H   0  0  0  0  0  0  0  0  0  0  0  0
   -0.4124    1.2277   -1.9355 C   0  0  0  0  0  0  0  0  0  0  0  0
   -0.3909    0.2599   -2.6846 O   0  0  0  0  0  0  0  0  0  0  0  0
   -0.6040    2.4588   -2.4449 O   0  0  0  0  0  0  0  0  0  0  0  0
   -0.7229    2.3373   -3.3874 H   0  0  0  0  0  0  0  0  0  0  0  0
    0.5920   -0.2154    1.5497 C   0  0  0  0  0  0  0  0  0  0  0  0
    1.7860   -0.4596    1.7183 O   0  0  0  0  0  0  0  0  0  0  0  0
   -0.2294    0.0669    2.5672 N   0  0  0  0  0  0  0  0  0  0  0  0
   -1.2130    0.1938    2.3518 H   0  0  0  0  0  0  0  0  0  0  0  0
    0.1836    0.1337    3.9673 C   0  0  0  0  0  0  0  0  0  0  0  0
    1.0451    0.7976    4.0666 H   0  0  0  0  0  0  0  0  0  0  0  0
   -0.6344    0.5115    4.5820 H   0  0  0  0  0  0  0  0  0  0  0  0
    0.4676   -0.8609    4.3157 H   0  0  0  0  0  0  0  0  0  0  0  0
  5  6  2  0  0  0  0
  5  7  1  0  0  0  0
  2  3  1  0  0  0  0
  2  4  1  0  0  0  0
  2  5  1  0  0  0  0
  1  2  1  0  0  0  0
 18 19  2  0  0  0  0
 18 20  1  0  0  0  0
 16 17  1  0  0  0  0
 14 15  2  0  0  0  0
 14 16  1  0  0  0  0
 11 12  1  0  0  0  0
 11 13  1  0  0  0  0
 11 14  1  0  0  0  0
  9 10  1  0  0  0  0
  9 11  1  0  0  0  0
  9 18  1  0  0  0  0
  7  8  1  0  0  0  0
  7  9  1  0  0  0  0
 22 23  1  0  0  0  0
 22 24  1  0  0  0  0
 22 25  1  0  0  0  0
 20 21  1  0  0  0  0
 20 22  1  0  0  0  0
M  END
$$$$
default_name
  -OEChem-02102213163D

 25 24  0     1  0  0  0  0  0999 V2000
   -2.7826   -3.8464    0.7821 H   0  0  0  0  0  0  0  0  0  0  0  0
   -2.8156   -2.8034    0.4711 C   0  0  0  0  0  0  0  0  0  0  0  0
   -3.4336   -2.2354    1.1641 H   0  0  0  0  0  0  0  0  0  0  0  0
   -3.2256   -2.7344   -0.5349 H   0  0  0  0  0  0  0  0  0  0  0  0
   -1.4126   -2.2444    0.4801 C   0  0  0  0  0  0  0  0  0  0  0  0
   -0.4686   -2.9534    0.8001 O   0  0  0  0  0  0  0  0  0  0  0  0
   -1.2736   -0.9704    0.1241 N   0  0  0  0  0  0  0  0  0  0  0  0
   -2.0996   -0.4354   -0.1019 H   0  0  0  0  0  0  0  0  0  0  0  0
   -0.0016   -0.2394    0.1271 C   0  0  1  0  0  0  0  0  0  0  0  0
    0.6995   -0.7619   -0.5275 H   0  0  0  0  0  0  0  0  0  0  0  0
   -0.2283    1.1832   -0.4215 C   0  0  0  0  0  0  0  0  0  0  0  0
   -1.1315    1.6037    0.0222 H   0  0  0  0  0  0  0  0  0  0  0  0
    0.6105    1.8221   -0.1431 H   0  0  0  0  0  0  0  0  0  0  0  0
   -0.4124    1.2277   -1.9355 C   0  0  0  0  0  0  0  0  0  0  0  0
   -0.6487    0.2647   -2.6531 O   0  0  0  0  0  0  0  0  0  0  0  0
   -0.2875    2.4508   -2.4836 O   0  0  0  0  0  0  0  0  0  0  0  0
   -0.4445    2.3354   -3.4213 H   0  0  0  0  0  0  0  0  0  0  0  0
    0.5920   -0.2154    1.5497 C   0  0  0  0  0  0  0  0  0  0  0  0
    1.7860   -0.4596    1.7183 O   0  0  0  0  0  0  0  0  0  0  0  0
   -0.2294    0.0669    2.5672 N   0  0  0  0  0  0  0  0  0  0  0  0
   -1.2130    0.1938    2.3518 H   0  0  0  0  0  0  0  0  0  0  0  0
    0.1836    0.1337    3.9673 C   0  0  0  0  0  0  0  0  0  0  0  0
    1.0451    0.7976    4.0666 H   0  0  0  0  0  0  0  0  0  0  0  0
   -0.6344    0.5115    4.5820 H   0  0  0  0  0  0  0  0  0  0  0  0
    0.4676   -0.8609    4.3157 H   0  0  0  0  0  0  0  0  0  0  0  0
  5  6  2  0  0  0  0
  5  7  1  0  0  0  0
  2  3  1  0  0  0  0
  2  4  1  0  0  0  0
  2  5  1  0  0  0  0
  1  2  1  0  0  0  0
 18 19  2  0  0  0  0
 18 20  1  0  0  0  0
 16 17  1  0  0  0  0
 14 15  2  0  0  0  0
 14 16  1  0  0  0  0
 11 12  1  0  0  0  0
 11 13  1  0  0  0  0
 11 14  1  0  0  0  0
  9 10  1  0  0  0  0
  9 11  1  0  0  0  0
  9 18  1  0  0  0  0
  7  8  1  0  0  0  0
  7  9  1  0  0  0  0
 22 23  1  0  0  0  0
 22 24  1  0  0  0  0
 22 25  1  0  0  0  0
 20 21  1  0  0  0  0
 20 22  1  0  0  0  0
M  END
$$$$
default_name
  -OEChem-02102213163D

 25 24  0     1  0  0  0  0  0999 V2000
   -2.7826   -3.8464    0.7821 H   0  0  0  0  0  0  0  0  0  0  0  0
   -2.8156   -2.8034    0.4711 C   0  0  0  0  0  0  0  0  0  0  0  0
   -3.4336   -2.2354    1.1641 H   0  0  0  0  0  0  0  0  0  0  0  0
   -3.2256   -2.7344   -0.5349 H   0  0  0  0  0  0  0  0  0  0  0  0
   -1.4126   -2.2444    0.4801 C   0  0  0  0  0  0  0  0  0  0  0  0
   -0.4686   -2.9534    0.8001 O   0  0  0  0  0  0  0  0  0  0  0  0
   -1.2736   -0.9704    0.1241 N   0  0  0  0  0  0  0  0  0  0  0  0
   -2.0996   -0.4354   -0.1019 H   0  0  0  0  0  0  0  0  0  0  0  0
   -0.0016   -0.2394    0.1271 C   0  0  1  0  0  0  0  0  0  0  0  0
    0.6995   -0.7619   -0.5275 H   0  0  0  0  0  0  0  0  0  0  0  0
   -0.2283    1.1832   -0.4215 C   0  0  0  0  0  0  0  0  0  0  0  0
   -1.1315    1.6037    0.0222 H   0  0  0  0  0  0  0  0  0  0  0  0
    0.6105    1.8221   -0.1431 H   0  0  0  0  0  0  0  0  0  0  0  0
   -0.4124    1.2277   -1.9355 C   0  0  0  0  0  0  0  0  0  0  0  0
   -0.8964    0.3365   -2.6209 O   0  0  0  0  0  0  0  0  0  0  0  0
    0.0159    2.3605   -2.5231 O   0  0  0  0  0  0  0  0  0  0  0  0
   -0.1764    2.2610   -3.4561 H   0  0  0  0  0  0  0  0  0  0  0  0
    0.5920   -0.2154    1.5497 C   0  0  0  0  0  0  0  0  0  0  0  0
    1.7860   -0.4596    1.7183 O   0  0  0  0  0  0  0  0  0  0  0  0
   -0.2294    0.0669    2.5672 N   0  0  0  0  0  0  0  0  0  0  0  0
   -1.2130    0.1938    2.3518 H   0  0  0  0  0  0  0  0  0  0  0  0
    0.1836    0.1337    3.9673 C   0  0  0  0  0  0  0  0  0  0  0  0
    1.0451    0.7976    4.0666 H   0  0  0  0  0  0  0  0  0  0  0  0
   -0.6344    0.5115    4.5820 H   0  0  0  0  0  0  0  0  0  0  0  0
    0.4676   -0.8609    4.3157 H   0  0  0  0  0  0  0  0  0  0  0  0
  5  6  2  0  0  0  0
  5  7  1  0  0  0  0
  2  3  1  0  0  0  0
  2  4  1  0  0  0  0
  2  5  1  0  0  0  0
  1  2  1  0  0  0  0
 18 19  2  0  0  0  0
 18 20  1  0  0  0  0
 16 17  1  0  0  0  0
 14 15  2  0  0  0  0
 14 16  1  0  0  0  0
 11 12  1  0  0  0  0
 11 13  1  0  0  0  0
 11 14  1  0  0  0  0
  9 10  1  0  0  0  0
  9 11  1  0  0  0  0
  9 18  1  0  0  0  0
  7  8  1  0  0  0  0
  7  9  1  0  0  0  0
 22 23  1  0  0  0  0
 22 24  1  0  0  0  0
 22 25  1  0  0  0  0
 20 21  1  0  0  0  0
 20 22  1  0  0  0  0
M  END
$$$$
default_name
  -OEChem-02102213163D

 25 24  0     1  0  0  0  0  0999 V2000
   -2.7826   -3.8464    0.7821 H   0  0  0  0  0  0  0  0  0  0  0  0
   -2.8156   -2.8034    0.4711 C   0  0  0  0  0  0  0  0  0  0  0  0
   -3.4336   -2.2354    1.1641 H   0  0  0  0  0  0  0  0  0  0  0  0
   -3.2256   -2.7344   -0.5349 H   0  0  0  0  0  0  0  0  0  0  0  0
   -1.4126   -2.2444    0.4801 C   0  0  0  0  0  0  0  0  0  0  0  0
   -0.4686   -2.9534    0.8001 O   0  0  0  0  0  0  0  0  0  0  0  0
   -1.2736   -0.9704    0.1241 N   0  0  0  0  0  0  0  0  0  0  0  0
   -2.0996   -0.4354   -0.1019 H   0  0  0  0  0  0  0  0  0  0  0  0
   -0.0016   -0.2394    0.1271 C   0  0  1  0  0  0  0  0  0  0  0  0
    0.6995   -0.7619   -0.5275 H   0  0  0  0  0  0  0  0  0  0  0  0
   -0.2283    1.1832   -0.4215 C   0  0  0  0  0  0  0  0  0  0  0  0
   -1.1315    1.6037    0.0222 H   0  0  0  0  0  0  0  0  0  0  0  0
    0.6105    1.8221   -0.1431 H   0  0  0  0  0  0  0  0  0  0  0  0
   -0.4124    1.2277   -1.9355 C   0  0  0  0  0  0  0  0  0  0  0  0
   -1.1168    0.4705   -2.5901 O   0  0  0  0  0  0  0  0  0  0  0  0
    0.2855    2.1941   -2.5608 O   0  0  0  0  0  0  0  0  0  0  0  0
    0.0633    2.1192   -3.4894 H   0  0  0  0  0  0  0  0  0  0  0  0
    0.5920   -0.2154    1.5497 C   0  0  0  0  0  0  0  0  0  0  0  0
    1.7860   -0.4596    1.7183 O   0  0  0  0  0  0  0  0  0  0  0  0
   -0.2294    0.0669    2.5672 N   0  0  0  0  0  0  0  0  0  0  0  0
   -1.2130    0.1938    2.3518 H   0  0  0  0  0  0  0  0  0  0  0  0
    0.1836    0.1337    3.9673 C   0  0  0  0  0  0  0  0  0  0  0  0
    1.0451    0.7976    4.0666 H   0  0  0  0  0  0  0  0  0  0  0  0
   -0.6344    0.5115    4.5820 H   0  0  0  0  0  0  0  0  0  0  0  0
    0.4676   -0.8609    4.3157 H   0  0  0  0  0  0  0  0  0  0  0  0
  5  6  2  0  0  0  0
  5  7  1  0  0  0  0
  2  3  1  0  0  0  0
  2  4  1  0  0  0  0
  2  5  1  0  0  0  0
  1  2  1  0  0  0  0
 18 19  2  0  0  0  0
 18 20  1  0  0  0  0
 16 17  1  0  0  0  0
 14 15  2  0  0  0  0
 14 16  1  0  0  0  0
 11 12  1  0  0  0  0
 11 13  1  0  0  0  0
 11 14  1  0  0  0  0
  9 10  1  0  0  0  0
  9 11  1  0  0  0  0
  9 18  1  0  0  0  0
  7  8  1  0  0  0  0
  7  9  1  0  0  0  0
 22 23  1  0  0  0  0
 22 24  1  0  0  0  0
 22 25  1  0  0  0  0
 20 21  1  0  0  0  0
 20 22  1  0  0  0  0
M  END
$$$$
default_name
  -OEChem-02102213163D

 25 24  0     1  0  0  0  0  0999 V2000
   -2.7826   -3.8464    0.7821 H   0  0  0  0  0  0  0  0  0  0  0  0
   -2.8156   -2.8034    0.4711 C   0  0  0  0  0  0  0  0  0  0  0  0
   -3.4336   -2.2354    1.1641 H   0  0  0  0  0  0  0  0  0  0  0  0
   -3.2256   -2.7344   -0.5349 H   0  0  0  0  0  0  0  0  0  0  0  0
   -1.4126   -2.2444    0.4801 C   0  0  0  0  0  0  0  0  0  0  0  0
   -0.4686   -2.9534    0.8001 O   0  0  0  0  0  0  0  0  0  0  0  0
   -1.2736   -0.9704    0.1241 N   0  0  0  0  0  0  0  0  0  0  0  0
   -2.0996   -0.4354   -0.1019 H   0  0  0  0  0  0  0  0  0  0  0  0
   -0.0016   -0.2394    0.1271 C   0  0  1  0  0  0  0  0  0  0  0  0
    0.6995   -0.7619   -0.5275 H   0  0  0  0  0  0  0  0  0  0  0  0
   -0.2283    1.1832   -0.4215 C   0  0  0  0  0  0  0  0  0  0  0  0
   -1.1315    1.6037    0.0222 H   0  0  0  0  0  0  0  0  0  0  0  0
    0.6105    1.8221   -0.1431 H   0  0  0  0  0  0  0  0  0  0  0  0
   -0.4124    1.2277   -1.9355 C   0  0  0  0  0  0  0  0  0  0  0  0
   -1.2952    0.6575   -2.5630 O   0  0  0  0  0  0  0  0  0  0  0  0
    0.5028    1.9630   -2.5940 O   0  0  0  0  0  0  0  0  0  0  0  0
    0.2581    1.9196   -3.5189 H   0  0  0  0  0  0  0  0  0  0  0  0
    0.5920   -0.2154    1.5497 C   0  0  0  0  0  0  0  0  0  0  0  0
    1.7860   -0.4596    1.7183 O   0  0  0  0  0  0  0  0  0  0  0  0
   -0.2294    0.0669    2.5672 N   0  0  0  0  0  0  0  0  0  0  0  0
   -1.2130    0.1938    2.3518 H   0  0  0  0  0  0  0  0  0  0  0  0
    0.1836    0.1337    3.9673 C   0  0  0  0  0  0  0  0  0  0  0  0
    1.0451    0.7976    4.0666 H   0  0  0  0  0  0  0  0  0  0  0  0
   -0.6344    0.5115    4.5820 H   0  0  0  0  0  0  0  0  0  0  0  0
    0.4676   -0.8609    4.3157 H   0  0  0  0  0  0  0  0  0  0  0  0
  5  6  2  0  0  0  0
  5  7  1  0  0  0  0
  2  3  1  0  0  0  0
  2  4  1  0  0  0  0
  2  5  1  0  0  0  0
  1  2  1  0  0  0  0
 18 19  2  0  0  0  0
 18 20  1  0  0  0  0
 16 17  1  0  0  0  0
 14 15  2  0  0  0  0
 14 16  1  0  0  0  0
 11 12  1  0  0  0  0
 11 13  1  0  0  0  0
 11 14  1  0  0  0  0
  9 10  1  0  0  0  0
  9 11  1  0  0  0  0
  9 18  1  0  0  0  0
  7  8  1  0  0  0  0
  7  9  1  0  0  0  0
 22 23  1  0  0  0  0
 22 24  1  0  0  0  0
 22 25  1  0  0  0  0
 20 21  1  0  0  0  0
 20 22  1  0  0  0  0
M  END
$$$$
default_name
  -OEChem-02102213163D

 25 24  0     1  0  0  0  0  0999 V2000
   -2.7826   -3.8464    0.7821 H   0  0  0  0  0  0  0  0  0  0  0  0
   -2.8156   -2.8034    0.4711 C   0  0  0  0  0  0  0  0  0  0  0  0
   -3.4336   -2.2354    1.1641 H   0  0  0  0  0  0  0  0  0  0  0  0
   -3.2256   -2.7344   -0.5349 H   0  0  0  0  0  0  0  0  0  0  0  0
   -1.4126   -2.2444    0.4801 C   0  0  0  0  0  0  0  0  0  0  0  0
   -0.4686   -2.9534    0.8001 O   0  0  0  0  0  0  0  0  0  0  0  0
   -1.2736   -0.9704    0.1241 N   0  0  0  0  0  0  0  0  0  0  0  0
   -2.0996   -0.4354   -0.1019 H   0  0  0  0  0  0  0  0  0  0  0  0
   -0.0016   -0.2394    0.1271 C   0  0  1  0  0  0  0  0  0  0  0  0
    0.6995   -0.7619   -0.5275 H   0  0  0  0  0  0  0  0  0  0  0  0
   -0.2283    1.1832   -0.4215 C   0  0  0  0  0  0  0  0  0  0  0  0
   -1.1315    1.6037    0.0222 H   0  0  0  0  0  0  0  0  0  0  0  0
    0.6105    1.8221   -0.1431 H   0  0  0  0  0  0  0  0  0  0  0  0
   -0.4124    1.2277   -1.9355 C   0  0  0  0  0  0  0  0  0  0  0  0
   -1.4192    0.8847   -2.5412 O   0  0  0  0  0  0  0  0  0  0  0  0
    0.6532    1.6829   -2.6205 O   0  0  0  0  0  0  0  0  0  0  0  0
    0.3948    1.6759   -3.5427 H   0  0  0  0  0  0  0  0  0  0  0  0
    0.5920   -0.2154    1.5497 C   0  0  0  0  0  0  0  0  0  0  0  0
    1.7860   -0.4596    1.7183 O   0  0  0  0  0  0  0  0  0  0  0  0
   -0.2294    0.0669    2.5672 N   0  0  0  0  0  0  0  0  0  0  0  0
   -1.2130    0.1938    2.3518 H   0  0  0  0  0  0  0  0  0  0  0  0
    0.1836    0.1337    3.9673 C   0  0  0  0  0  0  0  0  0  0  0  0
    1.0451    0.7976    4.0666 H   0  0  0  0  0  0  0  0  0  0  0  0
   -0.6344    0.5115    4.5820 H   0  0  0  0  0  0  0  0  0  0  0  0
    0.4676   -0.8609    4.3157 H   0  0  0  0  0  0  0  0  0  0  0  0
  5  6  2  0  0  0  0
  5  7  1  0  0  0  0
  2  3  1  0  0  0  0
  2  4  1  0  0  0  0
  2  5  1  0  0  0  0
  1  2  1  0  0  0  0
 18 19  2  0  0  0  0
 18 20  1  0  0  0  0
 16 17  1  0  0  0  0
 14 15  2  0  0  0  0
 14 16  1  0  0  0  0
 11 12  1  0  0  0  0
 11 13  1  0  0  0  0
 11 14  1  0  0  0  0
  9 10  1  0  0  0  0
  9 11  1  0  0  0  0
  9 18  1  0  0  0  0
  7  8  1  0  0  0  0
  7  9  1  0  0  0  0
 22 23  1  0  0  0  0
 22 24  1  0  0  0  0
 22 25  1  0  0  0  0
 20 21  1  0  0  0  0
 20 22  1  0  0  0  0
M  END
$$$$
default_name
  -OEChem-02102213163D

 25 24  0     1  0  0  0  0  0999 V2000
   -2.7826   -3.8464    0.7821 H   0  0  0  0  0  0  0  0  0  0  0  0
   -2.8156   -2.8034    0.4711 C   0  0  0  0  0  0  0  0  0  0  0  0
   -3.4336   -2.2354    1.1641 H   0  0  0  0  0  0  0  0  0  0  0  0
   -3.2256   -2.7344   -0.5349 H   0  0  0  0  0  0  0  0  0  0  0  0
   -1.4126   -2.2444    0.4801 C   0  0  0  0  0  0  0  0  0  0  0  0
   -0.4686   -2.9534    0.8001 O   0  0  0  0  0  0  0  0  0  0  0  0
   -1.2736   -0.9704    0.1241 N   0  0  0  0  0  0  0  0  0  0  0  0
   -2.0996   -0.4354   -0.1019 H   0  0  0  0  0  0  0  0  0  0  0  0
   -0.0016   -0.2394    0.1271 C   0  0  1  0  0  0  0  0  0  0  0  0
    0.6995   -0.7619   -0.5275 H   0  0  0  0  0  0  0  0  0  0  0  0
   -0.2283    1.1832   -0.4215 C   0  0  0  0  0  0  0  0  0  0  0  0
   -1.1315    1.6037    0.0222 H   0  0  0  0  0  0  0  0  0  0  0  0
    0.6105    1.8221   -0.1431 H   0  0  0  0  0  0  0  0  0  0  0  0
   -0.4124    1.2277   -1.9355 C   0  0  0  0  0  0  0  0  0  0  0  0
   -1.4805    1.1368   -2.5263 O   0  0  0  0  0  0  0  0  0  0  0  0
    0.7263    1.3729   -2.6385 O   0  0  0  0  0  0  0  0  0  0  0  0
    0.4641    1.4047   -3.5591 H   0  0  0  0  0  0  0  0  0  0  0  0
    0.5920   -0.2154    1.5497 C   0  0  0  0  0  0  0  0  0  0  0  0
    1.7860   -0.4596    1.7183 O   0  0  0  0  0  0  0  0  0  0  0  0
   -0.2294    0.0669    2.5672 N   0  0  0  0  0  0  0  0  0  0  0  0
   -1.2130    0.1938    2.3518 H   0  0  0  0  0  0  0  0  0  0  0  0
    0.1836    0.1337    3.9673 C   0  0  0  0  0  0  0  0  0  0  0  0
    1.0451    0.7976    4.0666 H   0  0  0  0  0  0  0  0  0  0  0  0
   -0.6344    0.5115    4.5820 H   0  0  0  0  0  0  0  0  0  0  0  0
    0.4676   -0.8609    4.3157 H   0  0  0  0  0  0  0  0  0  0  0  0
  5  6  2  0  0  0  0
  5  7  1  0  0  0  0
  2  3  1  0  0  0  0
  2  4  1  0  0  0  0
  2  5  1  0  0  0  0
  1  2  1  0  0  0  0
 18 19  2  0  0  0  0
 18 20  1  0  0  0  0
 16 17  1  0  0  0  0
 14 15  2  0  0  0  0
 14 16  1  0  0  0  0
 11 12  1  0  0  0  0
 11 13  1  0  0  0  0
 11 14  1  0  0  0  0
  9 10  1  0  0  0  0
  9 11  1  0  0  0  0
  9 18  1  0  0  0  0
  7  8  1  0  0  0  0
  7  9  1  0  0  0  0
 22 23  1  0  0  0  0
 22 24  1  0  0  0  0
 22 25  1  0  0  0  0
 20 21  1  0  0  0  0
 20 22  1  0  0  0  0
M  END
$$$$
default_name
  -OEChem-02102213163D

 25 24  0     1  0  0  0  0  0999 V2000
   -2.7826   -3.8464    0.7821 H   0  0  0  0  0  0  0  0  0  0  0  0
   -2.8156   -2.8034    0.4711 C   0  0  0  0  0  0  0  0  0  0  0  0
   -3.4336   -2.2354    1.1641 H   0  0  0  0  0  0  0  0  0  0  0  0
   -3.2256   -2.7344   -0.5349 H   0  0  0  0  0  0  0  0  0  0  0  0
   -1.4126   -2.2444    0.4801 C   0  0  0  0  0  0  0  0  0  0  0  0
   -0.4686   -2.9534    0.8001 O   0  0  0  0  0  0  0  0  0  0  0  0
   -1.2736   -0.9704    0.1241 N   0  0  0  0  0  0  0  0  0  0  0  0
   -2.0996   -0.4354   -0.1019 H   0  0  0  0  0  0  0  0  0  0  0  0
   -0.0016   -0.2394    0.1271 C   0  0  1  0  0  0  0  0  0  0  0  0
    0.6995   -0.7619   -0.5275 H   0  0  0  0  0  0  0  0  0  0  0  0
   -0.2283    1.1832   -0.4215 C   0  0  0  0  0  0  0  0  0  0  0  0
   -1.1315    1.6037    0.0222 H   0  0  0  0  0  0  0  0  0  0  0  0
    0.6105    1.8221   -0.1431 H   0  0  0  0  0  0  0  0  0  0  0  0
   -0.4124    1.2277   -1.9355 C   0  0  0  0  0  0  0  0  0  0  0  0
   -1.4748    1.3964   -2.5194 O   0  0  0  0  0  0  0  0  0  0  0  0
    0.7171    1.0541   -2.6468 O   0  0  0  0  0  0  0  0  0  0  0  0
    0.4612    1.1244   -3.5670 H   0  0  0  0  0  0  0  0  0  0  0  0
    0.5920   -0.2154    1.5497 C   0  0  0  0  0  0  0  0  0  0  0  0
    1.7860   -0.4596    1.7183 O   0  0  0  0  0  0  0  0  0  0  0  0
   -0.2294    0.0669    2.5672 N   0  0  0  0  0  0  0  0  0  0  0  0
   -1.2130    0.1938    2.3518 H   0  0  0  0  0  0  0  0  0  0  0  0
    0.1836    0.1337    3.9673 C   0  0  0  0  0  0  0  0  0  0  0  0
    1.0451    0.7976    4.0666 H   0  0  0  0  0  0  0  0  0  0  0  0
   -0.6344    0.5115    4.5820 H   0  0  0  0  0  0  0  0  0  0  0  0
    0.4676   -0.8609    4.3157 H   0  0  0  0  0  0  0  0  0  0  0  0
  5  6  2  0  0  0  0
  5  7  1  0  0  0  0
  2  3  1  0  0  0  0
  2  4  1  0  0  0  0
  2  5  1  0  0  0  0
  1  2  1  0  0  0  0
 18 19  2  0  0  0  0
 18 20  1  0  0  0  0
 16 17  1  0  0  0  0
 14 15  2  0  0  0  0
 14 16  1  0  0  0  0
 11 12  1  0  0  0  0
 11 13  1  0  0  0  0
 11 14  1  0  0  0  0
  9 10  1  0  0  0  0
  9 11  1  0  0  0  0
  9 18  1  0  0  0  0
  7  8  1  0  0  0  0
  7  9  1  0  0  0  0
 22 23  1  0  0  0  0
 22 24  1  0  0  0  0
 22 25  1  0  0  0  0
 20 21  1  0  0  0  0
 20 22  1  0  0  0  0
M  END
$$$$
default_name
  -OEChem-02102213163D

 25 24  0     1  0  0  0  0  0999 V2000
   -2.7826   -3.8464    0.7821 H   0  0  0  0  0  0  0  0  0  0  0  0
   -2.8156   -2.8034    0.4711 C   0  0  0  0  0  0  0  0  0  0  0  0
   -3.4336   -2.2354    1.1641 H   0  0  0  0  0  0  0  0  0  0  0  0
   -3.2256   -2.7344   -0.5349 H   0  0  0  0  0  0  0  0  0  0  0  0
   -1.4126   -2.2444    0.4801 C   0  0  0  0  0  0  0  0  0  0  0  0
   -0.4686   -2.9534    0.8001 O   0  0  0  0  0  0  0  0  0  0  0  0
   -1.2736   -0.9704    0.1241 N   0  0  0  0  0  0  0  0  0  0  0  0
   -2.0996   -0.4354   -0.1019 H   0  0  0  0  0  0  0  0  0  0  0  0
   -0.0016   -0.2394    0.1271 C   0  0  1  0  0  0  0  0  0  0  0  0
    0.6995   -0.7619   -0.5275 H   0  0  0  0  0  0  0  0  0  0  0  0
   -0.2283    1.1832   -0.4215 C   0  0  0  0  0  0  0  0  0  0  0  0
   -1.1315    1.6037    0.0222 H   0  0  0  0  0  0  0  0  0  0  0  0
    0.6105    1.8221   -0.1431 H   0  0  0  0  0  0  0  0  0  0  0  0
   -0.4124    1.2277   -1.9355 C   0  0  0  0  0  0  0  0  0  0  0  0
   -1.4026    1.6460   -2.5208 O   0  0  0  0  0  0  0  0  0  0  0  0
    0.6264    0.7483   -2.6448 O   0  0  0  0  0  0  0  0  0  0  0  0
    0.3864    0.8541   -3.5659 H   0  0  0  0  0  0  0  0  0  0  0  0
    0.5920   -0.2154    1.5497 C   0  0  0  0  0  0  0  0  0  0  0  0
    1.7860   -0.4596    1.7183 O   0  0  0  0  0  0  0  0  0  0  0  0
   -0.2294    0.0669    2.5672 N   0  0  0  0  0  0  0  0  0  0  0  0
   -1.2130    0.1938    2.3518 H   0  0  0  0  0  0  0  0  0  0  0  0
    0.1836    0.1337    3.9673 C   0  0  0  0  0  0  0  0  0  0  0  0
    1.0451    0.7976    4.0666 H   0  0  0  0  0  0  0  0  0  0  0  0
   -0.6344    0.5115    4.5820 H   0  0  0  0  0  0  0  0  0  0  0  0
    0.4676   -0.8609    4.3157 H   0  0  0  0  0  0  0  0  0  0  0  0
  5  6  2  0  0  0  0
  5  7  1  0  0  0  0
  2  3  1  0  0  0  0
  2  4  1  0  0  0  0
  2  5  1  0  0  0  0
  1  2  1  0  0  0  0
 18 19  2  0  0  0  0
 18 20  1  0  0  0  0
 16 17  1  0  0  0  0
 14 15  2  0  0  0  0
 14 16  1  0  0  0  0
 11 12  1  0  0  0  0
 11 13  1  0  0  0  0
 11 14  1  0  0  0  0
  9 10  1  0  0  0  0
  9 11  1  0  0  0  0
  9 18  1  0  0  0  0
  7  8  1  0  0  0  0
  7  9  1  0  0  0  0
 22 23  1  0  0  0  0
 22 24  1  0  0  0  0
 22 25  1  0  0  0  0
 20 21  1  0  0  0  0
 20 22  1  0  0  0  0
M  END
$$$$
default_name
  -OEChem-02102213163D

 25 24  0     1  0  0  0  0  0999 V2000
   -2.7826   -3.8464    0.7821 H   0  0  0  0  0  0  0  0  0  0  0  0
   -2.8156   -2.8034    0.4711 C   0  0  0  0  0  0  0  0  0  0  0  0
   -3.4336   -2.2354    1.1641 H   0  0  0  0  0  0  0  0  0  0  0  0
   -3.2256   -2.7344   -0.5349 H   0  0  0  0  0  0  0  0  0  0  0  0
   -1.4126   -2.2444    0.4801 C   0  0  0  0  0  0  0  0  0  0  0  0
   -0.4686   -2.9534    0.8001 O   0  0  0  0  0  0  0  0  0  0  0  0
   -1.2736   -0.9704    0.1241 N   0  0  0  0  0  0  0  0  0  0  0  0
   -2.0996   -0.4354   -0.1019 H   0  0  0  0  0  0  0  0  0  0  0  0
   -0.0016   -0.2394    0.1271 C   0  0  1  0  0  0  0  0  0  0  0  0
    0.6995   -0.7619   -0.5275 H   0  0  0  0  0  0  0  0  0  0  0  0
   -0.2283    1.1832   -0.4215 C   0  0  0  0  0  0  0  0  0  0  0  0
   -1.1315    1.6037    0.0222 H   0  0  0  0  0  0  0  0  0  0  0  0
    0.6105    1.8221   -0.1431 H   0  0  0  0  0  0  0  0  0  0  0  0
   -0.4124    1.2277   -1.9355 C   0  0  0  0  0  0  0  0  0  0  0  0
   -1.2688    1.8685   -2.5306 O   0  0  0  0  0  0  0  0  0  0  0  0
    0.4602    0.4763   -2.6326 O   0  0  0  0  0  0  0  0  0  0  0  0
    0.2447    0.6123   -3.5557 H   0  0  0  0  0  0  0  0  0  0  0  0
    0.5920   -0.2154    1.5497 C   0  0  0  0  0  0  0  0  0  0  0  0
    1.7860   -0.4596    1.7183 O   0  0  0  0  0  0  0  0  0  0  0  0
   -0.2294    0.0669    2.5672 N   0  0  0  0  0  0  0  0  0  0  0  0
   -1.2130    0.1938    2.3518 H   0  0  0  0  0  0  0  0  0  0  0  0
    0.1836    0.1337    3.9673 C   0  0  0  0  0  0  0  0  0  0  0  0
    1.0451    0.7976    4.0666 H   0  0  0  0  0  0  0  0  0  0  0  0
   -0.6344    0.5115    4.5820 H   0  0  0  0  0  0  0  0  0  0  0  0
    0.4676   -0.8609    4.3157 H   0  0  0  0  0  0  0  0  0  0  0  0
  5  6  2  0  0  0  0
  5  7  1  0  0  0  0
  2  3  1  0  0  0  0
  2  4  1  0  0  0  0
  2  5  1  0  0  0  0
  1  2  1  0  0  0  0
 18 19  2  0  0  0  0
 18 20  1  0  0  0  0
 16 17  1  0  0  0  0
 14 15  2  0  0  0  0
 14 16  1  0  0  0  0
 11 12  1  0  0  0  0
 11 13  1  0  0  0  0
 11 14  1  0  0  0  0
  9 10  1  0  0  0  0
  9 11  1  0  0  0  0
  9 18  1  0  0  0  0
  7  8  1  0  0  0  0
  7  9  1  0  0  0  0
 22 23  1  0  0  0  0
 22 24  1  0  0  0  0
 22 25  1  0  0  0  0
 20 21  1  0  0  0  0
 20 22  1  0  0  0  0
M  END
$$$$
default_name
  -OEChem-02102213163D

 25 24  0     1  0  0  0  0  0999 V2000
   -2.7826   -3.8464    0.7821 H   0  0  0  0  0  0  0  0  0  0  0  0
   -2.8156   -2.8034    0.4711 C   0  0  0  0  0  0  0  0  0  0  0  0
   -3.4336   -2.2354    1.1641 H   0  0  0  0  0  0  0  0  0  0  0  0
   -3.2256   -2.7344   -0.5349 H   0  0  0  0  0  0  0  0  0  0  0  0
   -1.4126   -2.2444    0.4801 C   0  0  0  0  0  0  0  0  0  0  0  0
   -0.4686   -2.9534    0.8001 O   0  0  0  0  0  0  0  0  0  0  0  0
   -1.2736   -0.9704    0.1241 N   0  0  0  0  0  0  0  0  0  0  0  0
   -2.0996   -0.4354   -0.1019 H   0  0  0  0  0  0  0  0  0  0  0  0
   -0.0016   -0.2394    0.1271 C   0  0  1  0  0  0  0  0  0  0  0  0
    0.6995   -0.7619   -0.5275 H   0  0  0  0  0  0  0  0  0  0  0  0
   -0.2283    1.1832   -0.4215 C   0  0  0  0  0  0  0  0  0  0  0  0
   -1.1315    1.6037    0.0222 H   0  0  0  0  0  0  0  0  0  0  0  0
    0.6105    1.8221   -0.1431 H   0  0  0  0  0  0  0  0  0  0  0  0
   -0.4124    1.2277   -1.9355 C   0  0  0  0  0  0  0  0  0  0  0  0
   -1.0824    2.0487   -2.5479 O   0  0  0  0  0  0  0  0  0  0  0  0
    0.2299    0.2566   -2.6110 O   0  0  0  0  0  0  0  0  0  0  0  0
    0.0458    0.4154   -3.5373 H   0  0  0  0  0  0  0  0  0  0  0  0
    0.5920   -0.2154    1.5497 C   0  0  0  0  0  0  0  0  0  0  0  0
    1.7860   -0.4596    1.7183 O   0  0  0  0  0  0  0  0  0  0  0  0
   -0.2294    0.0669    2.5672 N   0  0  0  0  0  0  0  0  0  0  0  0
   -1.2130    0.1938    2.3518 H   0  0  0  0  0  0  0  0  0  0  0  0
    0.1836    0.1337    3.9673 C   0  0  0  0  0  0  0  0  0  0  0  0
    1.0451    0.7976    4.0666 H   0  0  0  0  0  0  0  0  0  0  0  0
   -0.6344    0.5115    4.5820 H   0  0  0  0  0  0  0  0  0  0  0  0
    0.4676   -0.8609    4.3157 H   0  0  0  0  0  0  0  0  0  0  0  0
  5  6  2  0  0  0  0
  5  7  1  0  0  0  0
  2  3  1  0  0  0  0
  2  4  1  0  0  0  0
  2  5  1  0  0  0  0
  1  2  1  0  0  0  0
 18 19  2  0  0  0  0
 18 20  1  0  0  0  0
 16 17  1  0  0  0  0
 14 15  2  0  0  0  0
 14 16  1  0  0  0  0
 11 12  1  0  0  0  0
 11 13  1  0  0  0  0
 11 14  1  0  0  0  0
  9 10  1  0  0  0  0
  9 11  1  0  0  0  0
  9 18  1  0  0  0  0
  7  8  1  0  0  0  0
  7  9  1  0  0  0  0
 22 23  1  0  0  0  0
 22 24  1  0  0  0  0
 22 25  1  0  0  0  0
 20 21  1  0  0  0  0
 20 22  1  0  0  0  0
M  END
$$$$
default_name
  -OEChem-02102213163D

 25 24  0     1  0  0  0  0  0999 V2000
   -2.7826   -3.8464    0.7821 H   0  0  0  0  0  0  0  0  0  0  0  0
   -2.8156   -2.8034    0.4711 C   0  0  0  0  0  0  0  0  0  0  0  0
   -3.4336   -2.2354    1.1641 H   0  0  0  0  0  0  0  0  0  0  0  0
   -3.2256   -2.7344   -0.5349 H   0  0  0  0  0  0  0  0  0  0  0  0
   -1.4126   -2.2444    0.4801 C   0  0  0  0  0  0  0  0  0  0  0  0
   -0.4686   -2.9534    0.8001 O   0  0  0  0  0  0  0  0  0  0  0  0
   -1.2736   -0.9704    0.1241 N   0  0  0  0  0  0  0  0  0  0  0  0
   -2.0996   -0.4354   -0.1019 H   0  0  0  0  0  0  0  0  0  0  0  0
   -0.0016   -0.2394    0.1271 C   0  0  1  0  0  0  0  0  0  0  0  0
    0.6995   -0.7619   -0.5275 H   0  0  0  0  0  0  0  0  0  0  0  0
   -0.2283    1.1832   -0.4215 C   0  0  0  0  0  0  0  0  0  0  0  0
   -1.1315    1.6037    0.0222 H   0  0  0  0  0  0  0  0  0  0  0  0
    0.6105    1.8221   -0.1431 H   0  0  0  0  0  0  0  0  0  0  0  0
   -0.4124    1.2277   -1.9355 C   0  0  0  0  0  0  0  0  0  0  0  0
   -0.8563    2.1744   -2.5717 O   0  0  0  0  0  0  0  0  0  0  0  0
   -0.0488    0.1042   -2.5816 O   0  0  0  0  0  0  0  0  0  0  0  0
   -0.1967    0.2769   -3.5119 H   0  0  0  0  0  0  0  0  0  0  0  0
    0.5920   -0.2154    1.5497 C   0  0  0  0  0  0  0  0  0  0  0  0
    1.7860   -0.4596    1.7183 O   0  0  0  0  0  0  0  0  0  0  0  0
   -0.2294    0.0669    2.5672 N   0  0  0  0  0  0  0  0  0  0  0  0
   -1.2130    0.1938    2.3518 H   0  0  0  0  0  0  0  0  0  0  0  0
    0.1836    0.1337    3.9673 C   0  0  0  0  0  0  0  0  0  0  0  0
    1.0451    0.7976    4.0666 H   0  0  0  0  0  0  0  0  0  0  0  0
   -0.6344    0.5115    4.5820 H   0  0  0  0  0  0  0  0  0  0  0  0
    0.4676   -0.8609    4.3157 H   0  0  0  0  0  0  0  0  0  0  0  0
  5  6  2  0  0  0  0
  5  7  1  0  0  0  0
  2  3  1  0  0  0  0
  2  4  1  0  0  0  0
  2  5  1  0  0  0  0
  1  2  1  0  0  0  0
 18 19  2  0  0  0  0
 18 20  1  0  0  0  0
 16 17  1  0  0  0  0
 14 15  2  0  0  0  0
 14 16  1  0  0  0  0
 11 12  1  0  0  0  0
 11 13  1  0  0  0  0
 11 14  1  0  0  0  0
  9 10  1  0  0  0  0
  9 11  1  0  0  0  0
  9 18  1  0  0  0  0
  7  8  1  0  0  0  0
  7  9  1  0  0  0  0
 22 23  1  0  0  0  0
 22 24  1  0  0  0  0
 22 25  1  0  0  0  0
 20 21  1  0  0  0  0
 20 22  1  0  0  0  0
M  END
$$$$
default_name
  -OEChem-02102213163D

 25 24  0     1  0  0  0  0  0999 V2000
   -2.7826   -3.8464    0.7821 H   0  0  0  0  0  0  0  0  0  0  0  0
   -2.8156   -2.8034    0.4711 C   0  0  0  0  0  0  0  0  0  0  0  0
   -3.4336   -2.2354    1.1641 H   0  0  0  0  0  0  0  0  0  0  0  0
   -3.2256   -2.7344   -0.5349 H   0  0  0  0  0  0  0  0  0  0  0  0
   -1.4126   -2.2444    0.4801 C   0  0  0  0  0  0  0  0  0  0  0  0
   -0.4686   -2.9534    0.8001 O   0  0  0  0  0  0  0  0  0  0  0  0
   -1.2736   -0.9704    0.1241 N   0  0  0  0  0  0  0  0  0  0  0  0
   -2.0996   -0.4354   -0.1019 H   0  0  0  0  0  0  0  0  0  0  0  0
   -0.0016   -0.2394    0.1271 C   0  0  1  0  0  0  0  0  0  0  0  0
    0.6995   -0.7619   -0.5275 H   0  0  0  0  0  0  0  0  0  0  0  0
   -0.2283    1.1832   -0.4215 C   0  0  0  0  0  0  0  0  0  0  0  0
   -0.9579    1.7008    0.2025 H   0  0  0  0  0  0  0  0  0  0  0  0
    0.7055    1.7452   -0.3817 H   0  0  0  0  0  0  0  0  0  0  0  0
   -0.7667    1.2046   -1.8490 C   0  0  0  0  0  0  0  0  0  0  0  0
   -1.0253    2.2097   -2.4979 O   0  0  0  0  0  0  0  0  0  0  0  0
   -0.9649   -0.0093   -2.3958 O   0  0  0  0  0  0  0  0  0  0  0  0
   -1.2802    0.1520   -3.2856 H   0  0  0  0  0  0  0  0  0  0  0  0
    0.5920   -0.2154    1.5497 C   0  0  0  0  0  0  0  0  0  0  0  0
    1.7860   -0.4596    1.7183 O   0  0  0  0  0  0  0  0  0  0  0  0
   -0.2294    0.0669    2.5672 N   0  0  0  0  0  0  0  0  0  0  0  0
   -1.2130    0.1938    2.3518 H   0  0  0  0  0  0  0  0  0  0  0  0
    0.1836    0.1337    3.9673 C   0  0  0  0  0  0  0  0  0  0  0  0
    1.0451    0.7976    4.0666 H   0  0  0  0  0  0  0  0  0  0  0  0
   -0.6344    0.5115    4.5820 H   0  0  0  0  0  0  0  0  0  0  0  0
    0.4676   -0.8609    4.3157 H   0  0  0  0  0  0  0  0  0  0  0  0
  5  6  2  0  0  0  0
  5  7  1  0  0  0  0
  2  3  1  0  0  0  0
  2  4  1  0  0  0  0
  2  5  1  0  0  0  0
  1  2  1  0  0  0  0
 18 19  2  0  0  0  0
 18 20  1  0  0  0  0
 16 17  1  0  0  0  0
 14 15  2  0  0  0  0
 14 16  1  0  0  0  0
 11 12  1  0  0  0  0
 11 13  1  0  0  0  0
 11 14  1  0  0  0  0
  9 10  1  0  0  0  0
  9 11  1  0  0  0  0
  9 18  1  0  0  0  0
  7  8  1  0  0  0  0
  7  9  1  0  0  0  0
 22 23  1  0  0  0  0
 22 24  1  0  0  0  0
 22 25  1  0  0  0  0
 20 21  1  0  0  0  0
 20 22  1  0  0  0  0
M  END
$$$$
default_name
  -OEChem-02102213163D

 25 24  0     1  0  0  0  0  0999 V2000
   -2.7826   -3.8464    0.7821 H   0  0  0  0  0  0  0  0  0  0  0  0
   -2.8156   -2.8034    0.4711 C   0  0  0  0  0  0  0  0  0  0  0  0
   -3.4336   -2.2354    1.1641 H   0  0  0  0  0  0  0  0  0  0  0  0
   -3.2256   -2.7344   -0.5349 H   0  0  0  0  0  0  0  0  0  0  0  0
   -1.4126   -2.2444    0.4801 C   0  0  0  0  0  0  0  0  0  0  0  0
   -0.4686   -2.9534    0.8001 O   0  0  0  0  0  0  0  0  0  0  0  0
   -1.2736   -0.9704    0.1241 N   0  0  0  0  0  0  0  0  0  0  0  0
   -2.0996   -0.4354   -0.1019 H   0  0  0  0  0  0  0  0  0  0  0  0
   -0.0016   -0.2394    0.1271 C   0  0  1  0  0  0  0  0  0  0  0  0
    0.6995   -0.7619   -0.5275 H   0  0  0  0  0  0  0  0  0  0  0  0
   -0.2283    1.1832   -0.4215 C   0  0  0  0  0  0  0  0  0  0  0  0
   -0.9579    1.7008    0.2025 H   0  0  0  0  0  0  0  0  0  0  0  0
    0.7055    1.7452   -0.3817 H   0  0  0  0  0  0  0  0  0  0  0  0
   -0.7667    1.2046   -1.8490 C   0  0  0  0  0  0  0  0  0  0  0  0
   -0.7840    2.1791   -2.5894 O   0  0  0  0  0  0  0  0  0  0  0  0
   -1.2608    0.0304   -2.2836 O   0  0  0  0  0  0  0  0  0  0  0  0
   -1.5409    0.1817   -3.1868 H   0  0  0  0  0  0  0  0  0  0  0  0
    0.5920   -0.2154    1.5497 C   0  0  0  0  0  0  0  0  0  0  0  0
    1.7860   -0.4596    1.7183 O   0  0  0  0  0  0  0  0  0  0  0  0
   -0.2294    0.0669    2.5672 N   0  0  0  0  0  0  0  0  0  0  0  0
   -1.2130    0.1938    2.3518 H   0  0  0  0  0  0  0  0  0  0  0  0
    0.1836    0.1337    3.9673 C   0  0  0  0  0  0  0  0  0  0  0  0
    1.0451    0.7976    4.0666 H   0  0  0  0  0  0  0  0  0  0  0  0
   -0.6344    0.5115    4.5820 H   0  0  0  0  0  0  0  0  0  0  0  0
    0.4676   -0.8609    4.3157 H   0  0  0  0  0  0  0  0  0  0  0  0
  5  6  2  0  0  0  0
  5  7  1  0  0  0  0
  2  3  1  0  0  0  0
  2  4  1  0  0  0  0
  2  5  1  0  0  0  0
  1  2  1  0  0  0  0
 18 19  2  0  0  0  0
 18 20  1  0  0  0  0
 16 17  1  0  0  0  0
 14 15  2  0  0  0  0
 14 16  1  0  0  0  0
 11 12  1  0  0  0  0
 11 13  1  0  0  0  0
 11 14  1  0  0  0  0
  9 10  1  0  0  0  0
  9 11  1  0  0  0  0
  9 18  1  0  0  0  0
  7  8  1  0  0  0  0
  7  9  1  0  0  0  0
 22 23  1  0  0  0  0
 22 24  1  0  0  0  0
 22 25  1  0  0  0  0
 20 21  1  0  0  0  0
 20 22  1  0  0  0  0
M  END
$$$$
default_name
  -OEChem-02102213163D

 25 24  0     1  0  0  0  0  0999 V2000
   -2.7826   -3.8464    0.7821 H   0  0  0  0  0  0  0  0  0  0  0  0
   -2.8156   -2.8034    0.4711 C   0  0  0  0  0  0  0  0  0  0  0  0
   -3.4336   -2.2354    1.1641 H   0  0  0  0  0  0  0  0  0  0  0  0
   -3.2256   -2.7344   -0.5349 H   0  0  0  0  0  0  0  0  0  0  0  0
   -1.4126   -2.2444    0.4801 C   0  0  0  0  0  0  0  0  0  0  0  0
   -0.4686   -2.9534    0.8001 O   0  0  0  0  0  0  0  0  0  0  0  0
   -1.2736   -0.9704    0.1241 N   0  0  0  0  0  0  0  0  0  0  0  0
   -2.0996   -0.4354   -0.1019 H   0  0  0  0  0  0  0  0  0  0  0  0
   -0.0016   -0.2394    0.1271 C   0  0  1  0  0  0  0  0  0  0  0  0
    0.6995   -0.7619   -0.5275 H   0  0  0  0  0  0  0  0  0  0  0  0
   -0.2283    1.1832   -0.4215 C   0  0  0  0  0  0  0  0  0  0  0  0
   -0.9579    1.7008    0.2025 H   0  0  0  0  0  0  0  0  0  0  0  0
    0.7055    1.7452   -0.3817 H   0  0  0  0  0  0  0  0  0  0  0  0
   -0.7667    1.2046   -1.8490 C   0  0  0  0  0  0  0  0  0  0  0  0
   -0.5587    2.0829   -2.6758 O   0  0  0  0  0  0  0  0  0  0  0  0
   -1.5367    0.1506   -2.1777 O   0  0  0  0  0  0  0  0  0  0  0  0
   -1.7853    0.2826   -3.0932 H   0  0  0  0  0  0  0  0  0  0  0  0
    0.5920   -0.2154    1.5497 C   0  0  0  0  0  0  0  0  0  0  0  0
    1.7860   -0.4596    1.7183 O   0  0  0  0  0  0  0  0  0  0  0  0
   -0.2294    0.0669    2.5672 N   0  0  0  0  0  0  0  0  0  0  0  0
   -1.2130    0.1938    2.3518 H   0  0  0  0  0  0  0  0  0  0  0  0
    0.1836    0.1337    3.9673 C   0  0  0  0  0  0  0  0  0  0  0  0
    1.0451    0.7976    4.0666 H   0  0  0  0  0  0  0  0  0  0  0  0
   -0.6344    0.5115    4.5820 H   0  0  0  0  0  0  0  0  0  0  0  0
    0.4676   -0.8609    4.3157 H   0  0  0  0  0  0  0  0  0  0  0  0
  5  6  2  0  0  0  0
  5  7  1  0  0  0  0
  2  3  1  0  0  0  0
  2  4  1  0  0  0  0
  2  5  1  0  0  0  0
  1  2  1  0  0  0  0
 18 19  2  0  0  0  0
 18 20  1  0  0  0  0
 16 17  1  0  0  0  0
 14 15  2  0  0  0  0
 14 16  1  0  0  0  0
 11 12  1  0  0  0  0
 11 13  1  0  0  0  0
 11 14  1  0  0  0  0
  9 10  1  0  0  0  0
  9 11  1  0  0  0  0
  9 18  1  0  0  0  0
  7  8  1  0  0  0  0
  7  9  1  0  0  0  0
 22 23  1  0  0  0  0
 22 24  1  0  0  0  0
 22 25  1  0  0  0  0
 20 21  1  0  0  0  0
 20 22  1  0  0  0  0
M  END
$$$$
default_name
  -OEChem-02102213163D

 25 24  0     1  0  0  0  0  0999 V2000
   -2.7826   -3.8464    0.7821 H   0  0  0  0  0  0  0  0  0  0  0  0
   -2.8156   -2.8034    0.4711 C   0  0  0  0  0  0  0  0  0  0  0  0
   -3.4336   -2.2354    1.1641 H   0  0  0  0  0  0  0  0  0  0  0  0
   -3.2256   -2.7344   -0.5349 H   0  0  0  0  0  0  0  0  0  0  0  0
   -1.4126   -2.2444    0.4801 C   0  0  0  0  0  0  0  0  0  0  0  0
   -0.4686   -2.9534    0.8001 O   0  0  0  0  0  0  0  0  0  0  0  0
   -1.2736   -0.9704    0.1241 N   0  0  0  0  0  0  0  0  0  0  0  0
   -2.0996   -0.4354   -0.1019 H   0  0  0  0  0  0  0  0  0  0  0  0
   -0.0016   -0.2394    0.1271 C   0  0  1  0  0  0  0  0  0  0  0  0
    0.6995   -0.7619   -0.5275 H   0  0  0  0  0  0  0  0  0  0  0  0
   -0.2283    1.1832   -0.4215 C   0  0  0  0  0  0  0  0  0  0  0  0
   -0.9579    1.7008    0.2025 H   0  0  0  0  0  0  0  0  0  0  0  0
    0.7055    1.7452   -0.3817 H   0  0  0  0  0  0  0  0  0  0  0  0
   -0.7667    1.2046   -1.8490 C   0  0  0  0  0  0  0  0  0  0  0  0
   -0.3647    1.9274   -2.7513 O   0  0  0  0  0  0  0  0  0  0  0  0
   -1.7737    0.3432   -2.0855 O   0  0  0  0  0  0  0  0  0  0  0  0
   -1.9965    0.4478   -3.0110 H   0  0  0  0  0  0  0  0  0  0  0  0
    0.5920   -0.2154    1.5497 C   0  0  0  0  0  0  0  0  0  0  0  0
    1.7860   -0.4596    1.7183 O   0  0  0  0  0  0  0  0  0  0  0  0
   -0.2294    0.0669    2.5672 N   0  0  0  0  0  0  0  0  0  0  0  0
   -1.2130    0.1938    2.3518 H   0  0  0  0  0  0  0  0  0  0  0  0
    0.1836    0.1337    3.9673 C   0  0  0  0  0  0  0  0  0  0  0  0
    1.0451    0.7976    4.0666 H   0  0  0  0  0  0  0  0  0  0  0  0
   -0.6344    0.5115    4.5820 H   0  0  0  0  0  0  0  0  0  0  0  0
    0.4676   -0.8609    4.3157 H   0  0  0  0  0  0  0  0  0  0  0  0
  5  6  2  0  0  0  0
  5  7  1  0  0  0  0
  2  3  1  0  0  0  0
  2  4  1  0  0  0  0
  2  5  1  0  0  0  0
  1  2  1  0  0  0  0
 18 19  2  0  0  0  0
 18 20  1  0  0  0  0
 16 17  1  0  0  0  0
 14 15  2  0  0  0  0
 14 16  1  0  0  0  0
 11 12  1  0  0  0  0
 11 13  1  0  0  0  0
 11 14  1  0  0  0  0
  9 10  1  0  0  0  0
  9 11  1  0  0  0  0
  9 18  1  0  0  0  0
  7  8  1  0  0  0  0
  7  9  1  0  0  0  0
 22 23  1  0  0  0  0
 22 24  1  0  0  0  0
 22 25  1  0  0  0  0
 20 21  1  0  0  0  0
 20 22  1  0  0  0  0
M  END
$$$$
default_name
  -OEChem-02102213163D

 25 24  0     1  0  0  0  0  0999 V2000
   -2.7826   -3.8464    0.7821 H   0  0  0  0  0  0  0  0  0  0  0  0
   -2.8156   -2.8034    0.4711 C   0  0  0  0  0  0  0  0  0  0  0  0
   -3.4336   -2.2354    1.1641 H   0  0  0  0  0  0  0  0  0  0  0  0
   -3.2256   -2.7344   -0.5349 H   0  0  0  0  0  0  0  0  0  0  0  0
   -1.4126   -2.2444    0.4801 C   0  0  0  0  0  0  0  0  0  0  0  0
   -0.4686   -2.9534    0.8001 O   0  0  0  0  0  0  0  0  0  0  0  0
   -1.2736   -0.9704    0.1241 N   0  0  0  0  0  0  0  0  0  0  0  0
   -2.0996   -0.4354   -0.1019 H   0  0  0  0  0  0  0  0  0  0  0  0
   -0.0016   -0.2394    0.1271 C   0  0  1  0  0  0  0  0  0  0  0  0
    0.6995   -0.7619   -0.5275 H   0  0  0  0  0  0  0  0  0  0  0  0
   -0.2283    1.1832   -0.4215 C   0  0  0  0  0  0  0  0  0  0  0  0
   -0.9579    1.7008    0.2025 H   0  0  0  0  0  0  0  0  0  0  0  0
    0.7055    1.7452   -0.3817 H   0  0  0  0  0  0  0  0  0  0  0  0
   -0.7667    1.2046   -1.8490 C   0  0  0  0  0  0  0  0  0  0  0  0
   -0.2152    1.7234   -2.8107 O   0  0  0  0  0  0  0  0  0  0  0  0
   -1.9556    0.5951   -2.0131 O   0  0  0  0  0  0  0  0  0  0  0  0
   -2.1602    0.6659   -2.9460 H   0  0  0  0  0  0  0  0  0  0  0  0
    0.5920   -0.2154    1.5497 C   0  0  0  0  0  0  0  0  0  0  0  0
    1.7860   -0.4596    1.7183 O   0  0  0  0  0  0  0  0  0  0  0  0
   -0.2294    0.0669    2.5672 N   0  0  0  0  0  0  0  0  0  0  0  0
   -1.2130    0.1938    2.3518 H   0  0  0  0  0  0  0  0  0  0  0  0
    0.1836    0.1337    3.9673 C   0  0  0  0  0  0  0  0  0  0  0  0
    1.0451    0.7976    4.0666 H   0  0  0  0  0  0  0  0  0  0  0  0
   -0.6344    0.5115    4.5820 H   0  0  0  0  0  0  0  0  0  0  0  0
    0.4676   -0.8609    4.3157 H   0  0  0  0  0  0  0  0  0  0  0  0
  5  6  2  0  0  0  0
  5  7  1  0  0  0  0
  2  3  1  0  0  0  0
  2  4  1  0  0  0  0
  2  5  1  0  0  0  0
  1  2  1  0  0  0  0
 18 19  2  0  0  0  0
 18 20  1  0  0  0  0
 16 17  1  0  0  0  0
 14 15  2  0  0  0  0
 14 16  1  0  0  0  0
 11 12  1  0  0  0  0
 11 13  1  0  0  0  0
 11 14  1  0  0  0  0
  9 10  1  0  0  0  0
  9 11  1  0  0  0  0
  9 18  1  0  0  0  0
  7  8  1  0  0  0  0
  7  9  1  0  0  0  0
 22 23  1  0  0  0  0
 22 24  1  0  0  0  0
 22 25  1  0  0  0  0
 20 21  1  0  0  0  0
 20 22  1  0  0  0  0
M  END
$$$$
default_name
  -OEChem-02102213163D

 25 24  0     1  0  0  0  0  0999 V2000
   -2.7826   -3.8464    0.7821 H   0  0  0  0  0  0  0  0  0  0  0  0
   -2.8156   -2.8034    0.4711 C   0  0  0  0  0  0  0  0  0  0  0  0
   -3.4336   -2.2354    1.1641 H   0  0  0  0  0  0  0  0  0  0  0  0
   -3.2256   -2.7344   -0.5349 H   0  0  0  0  0  0  0  0  0  0  0  0
   -1.4126   -2.2444    0.4801 C   0  0  0  0  0  0  0  0  0  0  0  0
   -0.4686   -2.9534    0.8001 O   0  0  0  0  0  0  0  0  0  0  0  0
   -1.2736   -0.9704    0.1241 N   0  0  0  0  0  0  0  0  0  0  0  0
   -2.0996   -0.4354   -0.1019 H   0  0  0  0  0  0  0  0  0  0  0  0
   -0.0016   -0.2394    0.1271 C   0  0  1  0  0  0  0  0  0  0  0  0
    0.6995   -0.7619   -0.5275 H   0  0  0  0  0  0  0  0  0  0  0  0
   -0.2283    1.1832   -0.4215 C   0  0  0  0  0  0  0  0  0  0  0  0
   -0.9579    1.7008    0.2025 H   0  0  0  0  0  0  0  0  0  0  0  0
    0.7055    1.7452   -0.3817 H   0  0  0  0  0  0  0  0  0  0  0  0
   -0.7667    1.2046   -1.8490 C   0  0  0  0  0  0  0  0  0  0  0  0
   -0.1204    1.4847   -2.8501 O   0  0  0  0  0  0  0  0  0  0  0  0
   -2.0700    0.8890   -1.9655 O   0  0  0  0  0  0  0  0  0  0  0  0
   -2.2653    0.9223   -2.9025 H   0  0  0  0  0  0  0  0  0  0  0  0
    0.5920   -0.2154    1.5497 C   0  0  0  0  0  0  0  0  0  0  0  0
    1.7860   -0.4596    1.7183 O   0  0  0  0  0  0  0  0  0  0  0  0
   -0.2294    0.0669    2.5672 N   0  0  0  0  0  0  0  0  0  0  0  0
   -1.2130    0.1938    2.3518 H   0  0  0  0  0  0  0  0  0  0  0  0
    0.1836    0.1337    3.9673 C   0  0  0  0  0  0  0  0  0  0  0  0
    1.0451    0.7976    4.0666 H   0  0  0  0  0  0  0  0  0  0  0  0
   -0.6344    0.5115    4.5820 H   0  0  0  0  0  0  0  0  0  0  0  0
    0.4676   -0.8609    4.3157 H   0  0  0  0  0  0  0  0  0  0  0  0
  5  6  2  0  0  0  0
  5  7  1  0  0  0  0
  2  3  1  0  0  0  0
  2  4  1  0  0  0  0
  2  5  1  0  0  0  0
  1  2  1  0  0  0  0
 18 19  2  0  0  0  0
 18 20  1  0  0  0  0
 16 17  1  0  0  0  0
 14 15  2  0  0  0  0
 14 16  1  0  0  0  0
 11 12  1  0  0  0  0
 11 13  1  0  0  0  0
 11 14  1  0  0  0  0
  9 10  1  0  0  0  0
  9 11  1  0  0  0  0
  9 18  1  0  0  0  0
  7  8  1  0  0  0  0
  7  9  1  0  0  0  0
 22 23  1  0  0  0  0
 22 24  1  0  0  0  0
 22 25  1  0  0  0  0
 20 21  1  0  0  0  0
 20 22  1  0  0  0  0
M  END
$$$$
default_name
  -OEChem-02102213163D

 25 24  0     1  0  0  0  0  0999 V2000
   -2.7826   -3.8464    0.7821 H   0  0  0  0  0  0  0  0  0  0  0  0
   -2.8156   -2.8034    0.4711 C   0  0  0  0  0  0  0  0  0  0  0  0
   -3.4336   -2.2354    1.1641 H   0  0  0  0  0  0  0  0  0  0  0  0
   -3.2256   -2.7344   -0.5349 H   0  0  0  0  0  0  0  0  0  0  0  0
   -1.4126   -2.2444    0.4801 C   0  0  0  0  0  0  0  0  0  0  0  0
   -0.4686   -2.9534    0.8001 O   0  0  0  0  0  0  0  0  0  0  0  0
   -1.2736   -0.9704    0.1241 N   0  0  0  0  0  0  0  0  0  0  0  0
   -2.0996   -0.4354   -0.1019 H   0  0  0  0  0  0  0  0  0  0  0  0
   -0.0016   -0.2394    0.1271 C   0  0  1  0  0  0  0  0  0  0  0  0
    0.6995   -0.7619   -0.5275 H   0  0  0  0  0  0  0  0  0  0  0  0
   -0.2283    1.1832   -0.4215 C   0  0  0  0  0  0  0  0  0  0  0  0
   -0.9579    1.7008    0.2025 H   0  0  0  0  0  0  0  0  0  0  0  0
    0.7055    1.7452   -0.3817 H   0  0  0  0  0  0  0  0  0  0  0  0
   -0.7667    1.2046   -1.8490 C   0  0  0  0  0  0  0  0  0  0  0  0
   -0.0868    1.2276   -2.8666 O   0  0  0  0  0  0  0  0  0  0  0  0
   -2.1092    1.2050   -1.9460 O   0  0  0  0  0  0  0  0  0  0  0  0
   -2.3046    1.1993   -2.8835 H   0  0  0  0  0  0  0  0  0  0  0  0
    0.5920   -0.2154    1.5497 C   0  0  0  0  0  0  0  0  0  0  0  0
    1.7860   -0.4596    1.7183 O   0  0  0  0  0  0  0  0  0  0  0  0
   -0.2294    0.0669    2.5672 N   0  0  0  0  0  0  0  0  0  0  0  0
   -1.2130    0.1938    2.3518 H   0  0  0  0  0  0  0  0  0  0  0  0
    0.1836    0.1337    3.9673 C   0  0  0  0  0  0  0  0  0  0  0  0
    1.0451    0.7976    4.0666 H   0  0  0  0  0  0  0  0  0  0  0  0
   -0.6344    0.5115    4.5820 H   0  0  0  0  0  0  0  0  0  0  0  0
    0.4676   -0.8609    4.3157 H   0  0  0  0  0  0  0  0  0  0  0  0
  5  6  2  0  0  0  0
  5  7  1  0  0  0  0
  2  3  1  0  0  0  0
  2  4  1  0  0  0  0
  2  5  1  0  0  0  0
  1  2  1  0  0  0  0
 18 19  2  0  0  0  0
 18 20  1  0  0  0  0
 16 17  1  0  0  0  0
 14 15  2  0  0  0  0
 14 16  1  0  0  0  0
 11 12  1  0  0  0  0
 11 13  1  0  0  0  0
 11 14  1  0  0  0  0
  9 10  1  0  0  0  0
  9 11  1  0  0  0  0
  9 18  1  0  0  0  0
  7  8  1  0  0  0  0
  7  9  1  0  0  0  0
 22 23  1  0  0  0  0
 22 24  1  0  0  0  0
 22 25  1  0  0  0  0
 20 21  1  0  0  0  0
 20 22  1  0  0  0  0
M  END
$$$$
default_name
  -OEChem-02102213163D

 25 24  0     1  0  0  0  0  0999 V2000
   -2.7826   -3.8464    0.7821 H   0  0  0  0  0  0  0  0  0  0  0  0
   -2.8156   -2.8034    0.4711 C   0  0  0  0  0  0  0  0  0  0  0  0
   -3.4336   -2.2354    1.1641 H   0  0  0  0  0  0  0  0  0  0  0  0
   -3.2256   -2.7344   -0.5349 H   0  0  0  0  0  0  0  0  0  0  0  0
   -1.4126   -2.2444    0.4801 C   0  0  0  0  0  0  0  0  0  0  0  0
   -0.4686   -2.9534    0.8001 O   0  0  0  0  0  0  0  0  0  0  0  0
   -1.2736   -0.9704    0.1241 N   0  0  0  0  0  0  0  0  0  0  0  0
   -2.0996   -0.4354   -0.1019 H   0  0  0  0  0  0  0  0  0  0  0  0
   -0.0016   -0.2394    0.1271 C   0  0  1  0  0  0  0  0  0  0  0  0
    0.6995   -0.7619   -0.5275 H   0  0  0  0  0  0  0  0  0  0  0  0
   -0.2283    1.1832   -0.4215 C   0  0  0  0  0  0  0  0  0  0  0  0
   -0.9579    1.7008    0.2025 H   0  0  0  0  0  0  0  0  0  0  0  0
    0.7055    1.7452   -0.3817 H   0  0  0  0  0  0  0  0  0  0  0  0
   -0.7667    1.2046   -1.8490 C   0  0  0  0  0  0  0  0  0  0  0  0
   -0.1167    0.9696   -2.8592 O   0  0  0  0  0  0  0  0  0  0  0  0
   -2.0705    1.5215   -1.9558 O   0  0  0  0  0  0  0  0  0  0  0  0
   -2.2754    1.4781   -2.8904 H   0  0  0  0  0  0  0  0  0  0  0  0
    0.5920   -0.2154    1.5497 C   0  0  0  0  0  0  0  0  0  0  0  0
    1.7860   -0.4596    1.7183 O   0  0  0  0  0  0  0  0  0  0  0  0
   -0.2294    0.0669    2.5672 N   0  0  0  0  0  0  0  0  0  0  0  0
   -1.2130    0.1938    2.3518 H   0  0  0  0  0  0  0  0  0  0  0  0
    0.1836    0.1337    3.9673 C   0  0  0  0  0  0  0  0  0  0  0  0
    1.0451    0.7976    4.0666 H   0  0  0  0  0  0  0  0  0  0  0  0
   -0.6344    0.5115    4.5820 H   0  0  0  0  0  0  0  0  0  0  0  0
    0.4676   -0.8609    4.3157 H   0  0  0  0  0  0  0  0  0  0  0  0
  5  6  2  0  0  0  0
  5  7  1  0  0  0  0
  2  3  1  0  0  0  0
  2  4  1  0  0  0  0
  2  5  1  0  0  0  0
  1  2  1  0  0  0  0
 18 19  2  0  0  0  0
 18 20  1  0  0  0  0
 16 17  1  0  0  0  0
 14 15  2  0  0  0  0
 14 16  1  0  0  0  0
 11 12  1  0  0  0  0
 11 13  1  0  0  0  0
 11 14  1  0  0  0  0
  9 10  1  0  0  0  0
  9 11  1  0  0  0  0
  9 18  1  0  0  0  0
  7  8  1  0  0  0  0
  7  9  1  0  0  0  0
 22 23  1  0  0  0  0
 22 24  1  0  0  0  0
 22 25  1  0  0  0  0
 20 21  1  0  0  0  0
 20 22  1  0  0  0  0
M  END
$$$$
default_name
  -OEChem-02102213163D

 25 24  0     1  0  0  0  0  0999 V2000
   -2.7826   -3.8464    0.7821 H   0  0  0  0  0  0  0  0  0  0  0  0
   -2.8156   -2.8034    0.4711 C   0  0  0  0  0  0  0  0  0  0  0  0
   -3.4336   -2.2354    1.1641 H   0  0  0  0  0  0  0  0  0  0  0  0
   -3.2256   -2.7344   -0.5349 H   0  0  0  0  0  0  0  0  0  0  0  0
   -1.4126   -2.2444    0.4801 C   0  0  0  0  0  0  0  0  0  0  0  0
   -0.4686   -2.9534    0.8001 O   0  0  0  0  0  0  0  0  0  0  0  0
   -1.2736   -0.9704    0.1241 N   0  0  0  0  0  0  0  0  0  0  0  0
   -2.0996   -0.4354   -0.1019 H   0  0  0  0  0  0  0  0  0  0  0  0
   -0.0016   -0.2394    0.1271 C   0  0  1  0  0  0  0  0  0  0  0  0
    0.6995   -0.7619   -0.5275 H   0  0  0  0  0  0  0  0  0  0  0  0
   -0.2283    1.1832   -0.4215 C   0  0  0  0  0  0  0  0  0  0  0  0
   -0.9579    1.7008    0.2025 H   0  0  0  0  0  0  0  0  0  0  0  0
    0.7055    1.7452   -0.3817 H   0  0  0  0  0  0  0  0  0  0  0  0
   -0.7667    1.2046   -1.8490 C   0  0  0  0  0  0  0  0  0  0  0  0
   -0.2080    0.7283   -2.8284 O   0  0  0  0  0  0  0  0  0  0  0  0
   -1.9565    1.8169   -1.9944 O   0  0  0  0  0  0  0  0  0  0  0  0
   -2.1797    1.7398   -2.9225 H   0  0  0  0  0  0  0  0  0  0  0  0
    0.5920   -0.2154    1.5497 C   0  0  0  0  0  0  0  0  0  0  0  0
    1.7860   -0.4596    1.7183 O   0  0  0  0  0  0  0  0  0  0  0  0
   -0.2294    0.0669    2.5672 N   0  0  0  0  0  0  0  0  0  0  0  0
   -1.2130    0.1938    2.3518 H   0  0  0  0  0  0  0  0  0  0  0  0
    0.1836    0.1337    3.9673 C   0  0  0  0  0  0  0  0  0  0  0  0
    1.0451    0.7976    4.0666 H   0  0  0  0  0  0  0  0  0  0  0  0
   -0.6344    0.5115    4.5820 H   0  0  0  0  0  0  0  0  0  0  0  0
    0.4676   -0.8609    4.3157 H   0  0  0  0  0  0  0  0  0  0  0  0
  5  6  2  0  0  0  0
  5  7  1  0  0  0  0
  2  3  1  0  0  0  0
  2  4  1  0  0  0  0
  2  5  1  0  0  0  0
  1  2  1  0  0  0  0
 18 19  2  0  0  0  0
 18 20  1  0  0  0  0
 16 17  1  0  0  0  0
 14 15  2  0  0  0  0
 14 16  1  0  0  0  0
 11 12  1  0  0  0  0
 11 13  1  0  0  0  0
 11 14  1  0  0  0  0
  9 10  1  0  0  0  0
  9 11  1  0  0  0  0
  9 18  1  0  0  0  0
  7  8  1  0  0  0  0
  7  9  1  0  0  0  0
 22 23  1  0  0  0  0
 22 24  1  0  0  0  0
 22 25  1  0  0  0  0
 20 21  1  0  0  0  0
 20 22  1  0  0  0  0
M  END
$$$$
default_name
  -OEChem-02102213163D

 25 24  0     1  0  0  0  0  0999 V2000
   -2.7826   -3.8464    0.7821 H   0  0  0  0  0  0  0  0  0  0  0  0
   -2.8156   -2.8034    0.4711 C   0  0  0  0  0  0  0  0  0  0  0  0
   -3.4336   -2.2354    1.1641 H   0  0  0  0  0  0  0  0  0  0  0  0
   -3.2256   -2.7344   -0.5349 H   0  0  0  0  0  0  0  0  0  0  0  0
   -1.4126   -2.2444    0.4801 C   0  0  0  0  0  0  0  0  0  0  0  0
   -0.4686   -2.9534    0.8001 O   0  0  0  0  0  0  0  0  0  0  0  0
   -1.2736   -0.9704    0.1241 N   0  0  0  0  0  0  0  0  0  0  0  0
   -2.0996   -0.4354   -0.1019 H   0  0  0  0  0  0  0  0  0  0  0  0
   -0.0016   -0.2394    0.1271 C   0  0  1  0  0  0  0  0  0  0  0  0
    0.6995   -0.7619   -0.5275 H   0  0  0  0  0  0  0  0  0  0  0  0
   -0.2283    1.1832   -0.4215 C   0  0  0  0  0  0  0  0  0  0  0  0
   -0.9579    1.7008    0.2025 H   0  0  0  0  0  0  0  0  0  0  0  0
    0.7055    1.7452   -0.3817 H   0  0  0  0  0  0  0  0  0  0  0  0
   -0.7667    1.2046   -1.8490 C   0  0  0  0  0  0  0  0  0  0  0  0
   -0.3545    0.5202   -2.7763 O   0  0  0  0  0  0  0  0  0  0  0  0
   -1.7750    2.0712   -2.0590 O   0  0  0  0  0  0  0  0  0  0  0  0
   -2.0240    1.9664   -2.9778 H   0  0  0  0  0  0  0  0  0  0  0  0
    0.5920   -0.2154    1.5497 C   0  0  0  0  0  0  0  0  0  0  0  0
    1.7860   -0.4596    1.7183 O   0  0  0  0  0  0  0  0  0  0  0  0
   -0.2294    0.0669    2.5672 N   0  0  0  0  0  0  0  0  0  0  0  0
   -1.2130    0.1938    2.3518 H   0  0  0  0  0  0  0  0  0  0  0  0
    0.1836    0.1337    3.9673 C   0  0  0  0  0  0  0  0  0  0  0  0
    1.0451    0.7976    4.0666 H   0  0  0  0  0  0  0  0  0  0  0  0
   -0.6344    0.5115    4.5820 H   0  0  0  0  0  0  0  0  0  0  0  0
    0.4676   -0.8609    4.3157 H   0  0  0  0  0  0  0  0  0  0  0  0
  5  6  2  0  0  0  0
  5  7  1  0  0  0  0
  2  3  1  0  0  0  0
  2  4  1  0  0  0  0
  2  5  1  0  0  0  0
  1  2  1  0  0  0  0
 18 19  2  0  0  0  0
 18 20  1  0  0  0  0
 16 17  1  0  0  0  0
 14 15  2  0  0  0  0
 14 16  1  0  0  0  0
 11 12  1  0  0  0  0
 11 13  1  0  0  0  0
 11 14  1  0  0  0  0
  9 10  1  0  0  0  0
  9 11  1  0  0  0  0
  9 18  1  0  0  0  0
  7  8  1  0  0  0  0
  7  9  1  0  0  0  0
 22 23  1  0  0  0  0
 22 24  1  0  0  0  0
 22 25  1  0  0  0  0
 20 21  1  0  0  0  0
 20 22  1  0  0  0  0
M  END
$$$$
default_name
  -OEChem-02102213163D

 25 24  0     1  0  0  0  0  0999 V2000
   -2.7826   -3.8464    0.7821 H   0  0  0  0  0  0  0  0  0  0  0  0
   -2.8156   -2.8034    0.4711 C   0  0  0  0  0  0  0  0  0  0  0  0
   -3.4336   -2.2354    1.1641 H   0  0  0  0  0  0  0  0  0  0  0  0
   -3.2256   -2.7344   -0.5349 H   0  0  0  0  0  0  0  0  0  0  0  0
   -1.4126   -2.2444    0.4801 C   0  0  0  0  0  0  0  0  0  0  0  0
   -0.4686   -2.9534    0.8001 O   0  0  0  0  0  0  0  0  0  0  0  0
   -1.2736   -0.9704    0.1241 N   0  0  0  0  0  0  0  0  0  0  0  0
   -2.0996   -0.4354   -0.1019 H   0  0  0  0  0  0  0  0  0  0  0  0
   -0.0016   -0.2394    0.1271 C   0  0  1  0  0  0  0  0  0  0  0  0
    0.6995   -0.7619   -0.5275 H   0  0  0  0  0  0  0  0  0  0  0  0
   -0.2283    1.1832   -0.4215 C   0  0  0  0  0  0  0  0  0  0  0  0
   -0.9579    1.7008    0.2025 H   0  0  0  0  0  0  0  0  0  0  0  0
    0.7055    1.7452   -0.3817 H   0  0  0  0  0  0  0  0  0  0  0  0
   -0.7667    1.2046   -1.8490 C   0  0  0  0  0  0  0  0  0  0  0  0
   -0.5462    0.3593   -2.7064 O   0  0  0  0  0  0  0  0  0  0  0  0
   -1.5384    2.2669   -2.1453 O   0  0  0  0  0  0  0  0  0  0  0  0
   -1.8190    2.1425   -3.0525 H   0  0  0  0  0  0  0  0  0  0  0  0
    0.5920   -0.2154    1.5497 C   0  0  0  0  0  0  0  0  0  0  0  0
    1.7860   -0.4596    1.7183 O   0  0  0  0  0  0  0  0  0  0  0  0
   -0.2294    0.0669    2.5672 N   0  0  0  0  0  0  0  0  0  0  0  0
   -1.2130    0.1938    2.3518 H   0  0  0  0  0  0  0  0  0  0  0  0
    0.1836    0.1337    3.9673 C   0  0  0  0  0  0  0  0  0  0  0  0
    1.0451    0.7976    4.0666 H   0  0  0  0  0  0  0  0  0  0  0  0
   -0.6344    0.5115    4.5820 H   0  0  0  0  0  0  0  0  0  0  0  0
    0.4676   -0.8609    4.3157 H   0  0  0  0  0  0  0  0  0  0  0  0
  5  6  2  0  0  0  0
  5  7  1  0  0  0  0
  2  3  1  0  0  0  0
  2  4  1  0  0  0  0
  2  5  1  0  0  0  0
  1  2  1  0  0  0  0
 18 19  2  0  0  0  0
 18 20  1  0  0  0  0
 16 17  1  0  0  0  0
 14 15  2  0  0  0  0
 14 16  1  0  0  0  0
 11 12  1  0  0  0  0
 11 13  1  0  0  0  0
 11 14  1  0  0  0  0
  9 10  1  0  0  0  0
  9 11  1  0  0  0  0
  9 18  1  0  0  0  0
  7  8  1  0  0  0  0
  7  9  1  0  0  0  0
 22 23  1  0  0  0  0
 22 24  1  0  0  0  0
 22 25  1  0  0  0  0
 20 21  1  0  0  0  0
 20 22  1  0  0  0  0
M  END
$$$$
default_name
  -OEChem-02102213163D

 25 24  0     1  0  0  0  0  0999 V2000
   -2.7826   -3.8464    0.7821 H   0  0  0  0  0  0  0  0  0  0  0  0
   -2.8156   -2.8034    0.4711 C   0  0  0  0  0  0  0  0  0  0  0  0
   -3.4336   -2.2354    1.1641 H   0  0  0  0  0  0  0  0  0  0  0  0
   -3.2256   -2.7344   -0.5349 H   0  0  0  0  0  0  0  0  0  0  0  0
   -1.4126   -2.2444    0.4801 C   0  0  0  0  0  0  0  0  0  0  0  0
   -0.4686   -2.9534    0.8001 O   0  0  0  0  0  0  0  0  0  0  0  0
   -1.2736   -0.9704    0.1241 N   0  0  0  0  0  0  0  0  0  0  0  0
   -2.0996   -0.4354   -0.1019 H   0  0  0  0  0  0  0  0  0  0  0  0
   -0.0016   -0.2394    0.1271 C   0  0  1  0  0  0  0  0  0  0  0  0
    0.6995   -0.7619   -0.5275 H   0  0  0  0  0  0  0  0  0  0  0  0
   -0.2283    1.1832   -0.4215 C   0  0  0  0  0  0  0  0  0  0  0  0
   -0.9579    1.7008    0.2025 H   0  0  0  0  0  0  0  0  0  0  0  0
    0.7055    1.7452   -0.3817 H   0  0  0  0  0  0  0  0  0  0  0  0
   -0.7667    1.2046   -1.8490 C   0  0  0  0  0  0  0  0  0  0  0  0
   -0.7701    0.2568   -2.6235 O   0  0  0  0  0  0  0  0  0  0  0  0
   -1.2627    2.3908   -2.2475 O   0  0  0  0  0  0  0  0  0  0  0  0
   -1.5786    2.2562   -3.1415 H   0  0  0  0  0  0  0  0  0  0  0  0
    0.5920   -0.2154    1.5497 C   0  0  0  0  0  0  0  0  0  0  0  0
    1.7860   -0.4596    1.7183 O   0  0  0  0  0  0  0  0  0  0  0  0
   -0.2294    0.0669    2.5672 N   0  0  0  0  0  0  0  0  0  0  0  0
   -1.2130    0.1938    2.3518 H   0  0  0  0  0  0  0  0  0  0  0  0
    0.1836    0.1337    3.9673 C   0  0  0  0  0  0  0  0  0  0  0  0
    1.0451    0.7976    4.0666 H   0  0  0  0  0  0  0  0  0  0  0  0
   -0.6344    0.5115    4.5820 H   0  0  0  0  0  0  0  0  0  0  0  0
    0.4676   -0.8609    4.3157 H   0  0  0  0  0  0  0  0  0  0  0  0
  5  6  2  0  0  0  0
  5  7  1  0  0  0  0
  2  3  1  0  0  0  0
  2  4  1  0  0  0  0
  2  5  1  0  0  0  0
  1  2  1  0  0  0  0
 18 19  2  0  0  0  0
 18 20  1  0  0  0  0
 16 17  1  0  0  0  0
 14 15  2  0  0  0  0
 14 16  1  0  0  0  0
 11 12  1  0  0  0  0
 11 13  1  0  0  0  0
 11 14  1  0  0  0  0
  9 10  1  0  0  0  0
  9 11  1  0  0  0  0
  9 18  1  0  0  0  0
  7  8  1  0  0  0  0
  7  9  1  0  0  0  0
 22 23  1  0  0  0  0
 22 24  1  0  0  0  0
 22 25  1  0  0  0  0
 20 21  1  0  0  0  0
 20 22  1  0  0  0  0
M  END
$$$$
default_name
  -OEChem-02102213163D

 25 24  0     1  0  0  0  0  0999 V2000
   -2.7826   -3.8464    0.7821 H   0  0  0  0  0  0  0  0  0  0  0  0
   -2.8156   -2.8034    0.4711 C   0  0  0  0  0  0  0  0  0  0  0  0
   -3.4336   -2.2354    1.1641 H   0  0  0  0  0  0  0  0  0  0  0  0
   -3.2256   -2.7344   -0.5349 H   0  0  0  0  0  0  0  0  0  0  0  0
   -1.4126   -2.2444    0.4801 C   0  0  0  0  0  0  0  0  0  0  0  0
   -0.4686   -2.9534    0.8001 O   0  0  0  0  0  0  0  0  0  0  0  0
   -1.2736   -0.9704    0.1241 N   0  0  0  0  0  0  0  0  0  0  0  0
   -2.0996   -0.4354   -0.1019 H   0  0  0  0  0  0  0  0  0  0  0  0
   -0.0016   -0.2394    0.1271 C   0  0  1  0  0  0  0  0  0  0  0  0
    0.6995   -0.7619   -0.5275 H   0  0  0  0  0  0  0  0  0  0  0  0
   -0.2283    1.1832   -0.4215 C   0  0  0  0  0  0  0  0  0  0  0  0
   -0.9579    1.7008    0.2025 H   0  0  0  0  0  0  0  0  0  0  0  0
    0.7055    1.7452   -0.3817 H   0  0  0  0  0  0  0  0  0  0  0  0
   -0.7667    1.2046   -1.8490 C   0  0  0  0  0  0  0  0  0  0  0  0
   -1.0108    0.2195   -2.5332 O   0  0  0  0  0  0  0  0  0  0  0  0
   -0.9668    2.4344   -2.3584 O   0  0  0  0  0  0  0  0  0  0  0  0
   -1.3191    2.2996   -3.2387 H   0  0  0  0  0  0  0  0  0  0  0  0
    0.5920   -0.2154    1.5497 C   0  0  0  0  0  0  0  0  0  0  0  0
    1.7860   -0.4596    1.7183 O   0  0  0  0  0  0  0  0  0  0  0  0
   -0.2294    0.0669    2.5672 N   0  0  0  0  0  0  0  0  0  0  0  0
   -1.2130    0.1938    2.3518 H   0  0  0  0  0  0  0  0  0  0  0  0
    0.1836    0.1337    3.9673 C   0  0  0  0  0  0  0  0  0  0  0  0
    1.0451    0.7976    4.0666 H   0  0  0  0  0  0  0  0  0  0  0  0
   -0.6344    0.5115    4.5820 H   0  0  0  0  0  0  0  0  0  0  0  0
    0.4676   -0.8609    4.3157 H   0  0  0  0  0  0  0  0  0  0  0  0
  5  6  2  0  0  0  0
  5  7  1  0  0  0  0
  2  3  1  0  0  0  0
  2  4  1  0  0  0  0
  2  5  1  0  0  0  0
  1  2  1  0  0  0  0
 18 19  2  0  0  0  0
 18 20  1  0  0  0  0
 16 17  1  0  0  0  0
 14 15  2  0  0  0  0
 14 16  1  0  0  0  0
 11 12  1  0  0  0  0
 11 13  1  0  0  0  0
 11 14  1  0  0  0  0
  9 10  1  0  0  0  0
  9 11  1  0  0  0  0
  9 18  1  0  0  0  0
  7  8  1  0  0  0  0
  7  9  1  0  0  0  0
 22 23  1  0  0  0  0
 22 24  1  0  0  0  0
 22 25  1  0  0  0  0
 20 21  1  0  0  0  0
 20 22  1  0  0  0  0
M  END
$$$$
default_name
  -OEChem-02102213163D

 25 24  0     1  0  0  0  0  0999 V2000
   -2.7826   -3.8464    0.7821 H   0  0  0  0  0  0  0  0  0  0  0  0
   -2.8156   -2.8034    0.4711 C   0  0  0  0  0  0  0  0  0  0  0  0
   -3.4336   -2.2354    1.1641 H   0  0  0  0  0  0  0  0  0  0  0  0
   -3.2256   -2.7344   -0.5349 H   0  0  0  0  0  0  0  0  0  0  0  0
   -1.4126   -2.2444    0.4801 C   0  0  0  0  0  0  0  0  0  0  0  0
   -0.4686   -2.9534    0.8001 O   0  0  0  0  0  0  0  0  0  0  0  0
   -1.2736   -0.9704    0.1241 N   0  0  0  0  0  0  0  0  0  0  0  0
   -2.0996   -0.4354   -0.1019 H   0  0  0  0  0  0  0  0  0  0  0  0
   -0.0016   -0.2394    0.1271 C   0  0  1  0  0  0  0  0  0  0  0  0
    0.6995   -0.7619   -0.5275 H   0  0  0  0  0  0  0  0  0  0  0  0
   -0.2283    1.1832   -0.4215 C   0  0  0  0  0  0  0  0  0  0  0  0
   -0.9579    1.7008    0.2025 H   0  0  0  0  0  0  0  0  0  0  0  0
    0.7055    1.7452   -0.3817 H   0  0  0  0  0  0  0  0  0  0  0  0
   -0.7667    1.2046   -1.8490 C   0  0  0  0  0  0  0  0  0  0  0  0
   -1.2521    0.2501   -2.4418 O   0  0  0  0  0  0  0  0  0  0  0  0
   -0.6709    2.3947   -2.4706 O   0  0  0  0  0  0  0  0  0  0  0  0
   -1.0584    2.2699   -3.3375 H   0  0  0  0  0  0  0  0  0  0  0  0
    0.5920   -0.2154    1.5497 C   0  0  0  0  0  0  0  0  0  0  0  0
    1.7860   -0.4596    1.7183 O   0  0  0  0  0  0  0  0  0  0  0  0
   -0.2294    0.0669    2.5672 N   0  0  0  0  0  0  0  0  0  0  0  0
   -1.2130    0.1938    2.3518 H   0  0  0  0  0  0  0  0  0  0  0  0
    0.1836    0.1337    3.9673 C   0  0  0  0  0  0  0  0  0  0  0  0
    1.0451    0.7976    4.0666 H   0  0  0  0  0  0  0  0  0  0  0  0
   -0.6344    0.5115    4.5820 H   0  0  0  0  0  0  0  0  0  0  0  0
    0.4676   -0.8609    4.3157 H   0  0  0  0  0  0  0  0  0  0  0  0
  5  6  2  0  0  0  0
  5  7  1  0  0  0  0
  2  3  1  0  0  0  0
  2  4  1  0  0  0  0
  2  5  1  0  0  0  0
  1  2  1  0  0  0  0
 18 19  2  0  0  0  0
 18 20  1  0  0  0  0
 16 17  1  0  0  0  0
 14 15  2  0  0  0  0
 14 16  1  0  0  0  0
 11 12  1  0  0  0  0
 11 13  1  0  0  0  0
 11 14  1  0  0  0  0
  9 10  1  0  0  0  0
  9 11  1  0  0  0  0
  9 18  1  0  0  0  0
  7  8  1  0  0  0  0
  7  9  1  0  0  0  0
 22 23  1  0  0  0  0
 22 24  1  0  0  0  0
 22 25  1  0  0  0  0
 20 21  1  0  0  0  0
 20 22  1  0  0  0  0
M  END
$$$$
default_name
  -OEChem-02102213163D

 25 24  0     1  0  0  0  0  0999 V2000
   -2.7826   -3.8464    0.7821 H   0  0  0  0  0  0  0  0  0  0  0  0
   -2.8156   -2.8034    0.4711 C   0  0  0  0  0  0  0  0  0  0  0  0
   -3.4336   -2.2354    1.1641 H   0  0  0  0  0  0  0  0  0  0  0  0
   -3.2256   -2.7344   -0.5349 H   0  0  0  0  0  0  0  0  0  0  0  0
   -1.4126   -2.2444    0.4801 C   0  0  0  0  0  0  0  0  0  0  0  0
   -0.4686   -2.9534    0.8001 O   0  0  0  0  0  0  0  0  0  0  0  0
   -1.2736   -0.9704    0.1241 N   0  0  0  0  0  0  0  0  0  0  0  0
   -2.0996   -0.4354   -0.1019 H   0  0  0  0  0  0  0  0  0  0  0  0
   -0.0016   -0.2394    0.1271 C   0  0  1  0  0  0  0  0  0  0  0  0
    0.6995   -0.7619   -0.5275 H   0  0  0  0  0  0  0  0  0  0  0  0
   -0.2283    1.1832   -0.4215 C   0  0  0  0  0  0  0  0  0  0  0  0
   -0.9579    1.7008    0.2025 H   0  0  0  0  0  0  0  0  0  0  0  0
    0.7055    1.7452   -0.3817 H   0  0  0  0  0  0  0  0  0  0  0  0
   -0.7667    1.2046   -1.8490 C   0  0  0  0  0  0  0  0  0  0  0  0
   -1.4774    0.3463   -2.3553 O   0  0  0  0  0  0  0  0  0  0  0  0
   -0.3950    2.2744   -2.5765 O   0  0  0  0  0  0  0  0  0  0  0  0
   -0.8140    2.1690   -3.4312 H   0  0  0  0  0  0  0  0  0  0  0  0
    0.5920   -0.2154    1.5497 C   0  0  0  0  0  0  0  0  0  0  0  0
    1.7860   -0.4596    1.7183 O   0  0  0  0  0  0  0  0  0  0  0  0
   -0.2294    0.0669    2.5672 N   0  0  0  0  0  0  0  0  0  0  0  0
   -1.2130    0.1938    2.3518 H   0  0  0  0  0  0  0  0  0  0  0  0
    0.1836    0.1337    3.9673 C   0  0  0  0  0  0  0  0  0  0  0  0
    1.0451    0.7976    4.0666 H   0  0  0  0  0  0  0  0  0  0  0  0
   -0.6344    0.5115    4.5820 H   0  0  0  0  0  0  0  0  0  0  0  0
    0.4676   -0.8609    4.3157 H   0  0  0  0  0  0  0  0  0  0  0  0
  5  6  2  0  0  0  0
  5  7  1  0  0  0  0
  2  3  1  0  0  0  0
  2  4  1  0  0  0  0
  2  5  1  0  0  0  0
  1  2  1  0  0  0  0
 18 19  2  0  0  0  0
 18 20  1  0  0  0  0
 16 17  1  0  0  0  0
 14 15  2  0  0  0  0
 14 16  1  0  0  0  0
 11 12  1  0  0  0  0
 11 13  1  0  0  0  0
 11 14  1  0  0  0  0
  9 10  1  0  0  0  0
  9 11  1  0  0  0  0
  9 18  1  0  0  0  0
  7  8  1  0  0  0  0
  7  9  1  0  0  0  0
 22 23  1  0  0  0  0
 22 24  1  0  0  0  0
 22 25  1  0  0  0  0
 20 21  1  0  0  0  0
 20 22  1  0  0  0  0
M  END
$$$$
default_name
  -OEChem-02102213163D

 25 24  0     1  0  0  0  0  0999 V2000
   -2.7826   -3.8464    0.7821 H   0  0  0  0  0  0  0  0  0  0  0  0
   -2.8156   -2.8034    0.4711 C   0  0  0  0  0  0  0  0  0  0  0  0
   -3.4336   -2.2354    1.1641 H   0  0  0  0  0  0  0  0  0  0  0  0
   -3.2256   -2.7344   -0.5349 H   0  0  0  0  0  0  0  0  0  0  0  0
   -1.4126   -2.2444    0.4801 C   0  0  0  0  0  0  0  0  0  0  0  0
   -0.4686   -2.9534    0.8001 O   0  0  0  0  0  0  0  0  0  0  0  0
   -1.2736   -0.9704    0.1241 N   0  0  0  0  0  0  0  0  0  0  0  0
   -2.0996   -0.4354   -0.1019 H   0  0  0  0  0  0  0  0  0  0  0  0
   -0.0016   -0.2394    0.1271 C   0  0  1  0  0  0  0  0  0  0  0  0
    0.6995   -0.7619   -0.5275 H   0  0  0  0  0  0  0  0  0  0  0  0
   -0.2283    1.1832   -0.4215 C   0  0  0  0  0  0  0  0  0  0  0  0
   -0.9579    1.7008    0.2025 H   0  0  0  0  0  0  0  0  0  0  0  0
    0.7055    1.7452   -0.3817 H   0  0  0  0  0  0  0  0  0  0  0  0
   -0.7667    1.2046   -1.8490 C   0  0  0  0  0  0  0  0  0  0  0  0
   -1.6714    0.5018   -2.2798 O   0  0  0  0  0  0  0  0  0  0  0  0
   -0.1580    2.0818   -2.6687 O   0  0  0  0  0  0  0  0  0  0  0  0
   -0.6028    2.0038   -3.5133 H   0  0  0  0  0  0  0  0  0  0  0  0
    0.5920   -0.2154    1.5497 C   0  0  0  0  0  0  0  0  0  0  0  0
    1.7860   -0.4596    1.7183 O   0  0  0  0  0  0  0  0  0  0  0  0
   -0.2294    0.0669    2.5672 N   0  0  0  0  0  0  0  0  0  0  0  0
   -1.2130    0.1938    2.3518 H   0  0  0  0  0  0  0  0  0  0  0  0
    0.1836    0.1337    3.9673 C   0  0  0  0  0  0  0  0  0  0  0  0
    1.0451    0.7976    4.0666 H   0  0  0  0  0  0  0  0  0  0  0  0
   -0.6344    0.5115    4.5820 H   0  0  0  0  0  0  0  0  0  0  0  0
    0.4676   -0.8609    4.3157 H   0  0  0  0  0  0  0  0  0  0  0  0
  5  6  2  0  0  0  0
  5  7  1  0  0  0  0
  2  3  1  0  0  0  0
  2  4  1  0  0  0  0
  2  5  1  0  0  0  0
  1  2  1  0  0  0  0
 18 19  2  0  0  0  0
 18 20  1  0  0  0  0
 16 17  1  0  0  0  0
 14 15  2  0  0  0  0
 14 16  1  0  0  0  0
 11 12  1  0  0  0  0
 11 13  1  0  0  0  0
 11 14  1  0  0  0  0
  9 10  1  0  0  0  0
  9 11  1  0  0  0  0
  9 18  1  0  0  0  0
  7  8  1  0  0  0  0
  7  9  1  0  0  0  0
 22 23  1  0  0  0  0
 22 24  1  0  0  0  0
 22 25  1  0  0  0  0
 20 21  1  0  0  0  0
 20 22  1  0  0  0  0
M  END
$$$$
default_name
  -OEChem-02102213163D

 25 24  0     1  0  0  0  0  0999 V2000
   -2.7826   -3.8464    0.7821 H   0  0  0  0  0  0  0  0  0  0  0  0
   -2.8156   -2.8034    0.4711 C   0  0  0  0  0  0  0  0  0  0  0  0
   -3.4336   -2.2354    1.1641 H   0  0  0  0  0  0  0  0  0  0  0  0
   -3.2256   -2.7344   -0.5349 H   0  0  0  0  0  0  0  0  0  0  0  0
   -1.4126   -2.2444    0.4801 C   0  0  0  0  0  0  0  0  0  0  0  0
   -0.4686   -2.9534    0.8001 O   0  0  0  0  0  0  0  0  0  0  0  0
   -1.2736   -0.9704    0.1241 N   0  0  0  0  0  0  0  0  0  0  0  0
   -2.0996   -0.4354   -0.1019 H   0  0  0  0  0  0  0  0  0  0  0  0
   -0.0016   -0.2394    0.1271 C   0  0  1  0  0  0  0  0  0  0  0  0
    0.6995   -0.7619   -0.5275 H   0  0  0  0  0  0  0  0  0  0  0  0
   -0.2283    1.1832   -0.4215 C   0  0  0  0  0  0  0  0  0  0  0  0
   -0.9579    1.7008    0.2025 H   0  0  0  0  0  0  0  0  0  0  0  0
    0.7055    1.7452   -0.3817 H   0  0  0  0  0  0  0  0  0  0  0  0
   -0.7667    1.2046   -1.8490 C   0  0  0  0  0  0  0  0  0  0  0  0
   -1.8209    0.7058   -2.2204 O   0  0  0  0  0  0  0  0  0  0  0  0
    0.0239    1.8300   -2.7411 O   0  0  0  0  0  0  0  0  0  0  0  0
   -0.4391    1.7857   -3.5783 H   0  0  0  0  0  0  0  0  0  0  0  0
    0.5920   -0.2154    1.5497 C   0  0  0  0  0  0  0  0  0  0  0  0
    1.7860   -0.4596    1.7183 O   0  0  0  0  0  0  0  0  0  0  0  0
   -0.2294    0.0669    2.5672 N   0  0  0  0  0  0  0  0  0  0  0  0
   -1.2130    0.1938    2.3518 H   0  0  0  0  0  0  0  0  0  0  0  0
    0.1836    0.1337    3.9673 C   0  0  0  0  0  0  0  0  0  0  0  0
    1.0451    0.7976    4.0666 H   0  0  0  0  0  0  0  0  0  0  0  0
   -0.6344    0.5115    4.5820 H   0  0  0  0  0  0  0  0  0  0  0  0
    0.4676   -0.8609    4.3157 H   0  0  0  0  0  0  0  0  0  0  0  0
  5  6  2  0  0  0  0
  5  7  1  0  0  0  0
  2  3  1  0  0  0  0
  2  4  1  0  0  0  0
  2  5  1  0  0  0  0
  1  2  1  0  0  0  0
 18 19  2  0  0  0  0
 18 20  1  0  0  0  0
 16 17  1  0  0  0  0
 14 15  2  0  0  0  0
 14 16  1  0  0  0  0
 11 12  1  0  0  0  0
 11 13  1  0  0  0  0
 11 14  1  0  0  0  0
  9 10  1  0  0  0  0
  9 11  1  0  0  0  0
  9 18  1  0  0  0  0
  7  8  1  0  0  0  0
  7  9  1  0  0  0  0
 22 23  1  0  0  0  0
 22 24  1  0  0  0  0
 22 25  1  0  0  0  0
 20 21  1  0  0  0  0
 20 22  1  0  0  0  0
M  END
$$$$
default_name
  -OEChem-02102213163D

 25 24  0     1  0  0  0  0  0999 V2000
   -2.7826   -3.8464    0.7821 H   0  0  0  0  0  0  0  0  0  0  0  0
   -2.8156   -2.8034    0.4711 C   0  0  0  0  0  0  0  0  0  0  0  0
   -3.4336   -2.2354    1.1641 H   0  0  0  0  0  0  0  0  0  0  0  0
   -3.2256   -2.7344   -0.5349 H   0  0  0  0  0  0  0  0  0  0  0  0
   -1.4126   -2.2444    0.4801 C   0  0  0  0  0  0  0  0  0  0  0  0
   -0.4686   -2.9534    0.8001 O   0  0  0  0  0  0  0  0  0  0  0  0
   -1.2736   -0.9704    0.1241 N   0  0  0  0  0  0  0  0  0  0  0  0
   -2.0996   -0.4354   -0.1019 H   0  0  0  0  0  0  0  0  0  0  0  0
   -0.0016   -0.2394    0.1271 C   0  0  1  0  0  0  0  0  0  0  0  0
    0.6995   -0.7619   -0.5275 H   0  0  0  0  0  0  0  0  0  0  0  0
   -0.2283    1.1832   -0.4215 C   0  0  0  0  0  0  0  0  0  0  0  0
   -0.9579    1.7008    0.2025 H   0  0  0  0  0  0  0  0  0  0  0  0
    0.7055    1.7452   -0.3817 H   0  0  0  0  0  0  0  0  0  0  0  0
   -0.7667    1.2046   -1.8490 C   0  0  0  0  0  0  0  0  0  0  0  0
   -1.9157    0.9445   -2.1811 O   0  0  0  0  0  0  0  0  0  0  0  0
    0.1383    1.5360   -2.7887 O   0  0  0  0  0  0  0  0  0  0  0  0
   -0.3340    1.5293   -3.6218 H   0  0  0  0  0  0  0  0  0  0  0  0
    0.5920   -0.2154    1.5497 C   0  0  0  0  0  0  0  0  0  0  0  0
    1.7860   -0.4596    1.7183 O   0  0  0  0  0  0  0  0  0  0  0  0
   -0.2294    0.0669    2.5672 N   0  0  0  0  0  0  0  0  0  0  0  0
   -1.2130    0.1938    2.3518 H   0  0  0  0  0  0  0  0  0  0  0  0
    0.1836    0.1337    3.9673 C   0  0  0  0  0  0  0  0  0  0  0  0
    1.0451    0.7976    4.0666 H   0  0  0  0  0  0  0  0  0  0  0  0
   -0.6344    0.5115    4.5820 H   0  0  0  0  0  0  0  0  0  0  0  0
    0.4676   -0.8609    4.3157 H   0  0  0  0  0  0  0  0  0  0  0  0
  5  6  2  0  0  0  0
  5  7  1  0  0  0  0
  2  3  1  0  0  0  0
  2  4  1  0  0  0  0
  2  5  1  0  0  0  0
  1  2  1  0  0  0  0
 18 19  2  0  0  0  0
 18 20  1  0  0  0  0
 16 17  1  0  0  0  0
 14 15  2  0  0  0  0
 14 16  1  0  0  0  0
 11 12  1  0  0  0  0
 11 13  1  0  0  0  0
 11 14  1  0  0  0  0
  9 10  1  0  0  0  0
  9 11  1  0  0  0  0
  9 18  1  0  0  0  0
  7  8  1  0  0  0  0
  7  9  1  0  0  0  0
 22 23  1  0  0  0  0
 22 24  1  0  0  0  0
 22 25  1  0  0  0  0
 20 21  1  0  0  0  0
 20 22  1  0  0  0  0
M  END
$$$$
default_name
  -OEChem-02102213163D

 25 24  0     1  0  0  0  0  0999 V2000
   -2.7826   -3.8464    0.7821 H   0  0  0  0  0  0  0  0  0  0  0  0
   -2.8156   -2.8034    0.4711 C   0  0  0  0  0  0  0  0  0  0  0  0
   -3.4336   -2.2354    1.1641 H   0  0  0  0  0  0  0  0  0  0  0  0
   -3.2256   -2.7344   -0.5349 H   0  0  0  0  0  0  0  0  0  0  0  0
   -1.4126   -2.2444    0.4801 C   0  0  0  0  0  0  0  0  0  0  0  0
   -0.4686   -2.9534    0.8001 O   0  0  0  0  0  0  0  0  0  0  0  0
   -1.2736   -0.9704    0.1241 N   0  0  0  0  0  0  0  0  0  0  0  0
   -2.0996   -0.4354   -0.1019 H   0  0  0  0  0  0  0  0  0  0  0  0
   -0.0016   -0.2394    0.1271 C   0  0  1  0  0  0  0  0  0  0  0  0
    0.6995   -0.7619   -0.5275 H   0  0  0  0  0  0  0  0  0  0  0  0
   -0.2283    1.1832   -0.4215 C   0  0  0  0  0  0  0  0  0  0  0  0
   -0.9579    1.7008    0.2025 H   0  0  0  0  0  0  0  0  0  0  0  0
    0.7055    1.7452   -0.3817 H   0  0  0  0  0  0  0  0  0  0  0  0
   -0.7667    1.2046   -1.8490 C   0  0  0  0  0  0  0  0  0  0  0  0
   -1.9493    1.2016   -2.1645 O   0  0  0  0  0  0  0  0  0  0  0  0
    0.1775    1.2200   -2.8082 O   0  0  0  0  0  0  0  0  0  0  0  0
   -0.2947    1.2523   -3.6408 H   0  0  0  0  0  0  0  0  0  0  0  0
    0.5920   -0.2154    1.5497 C   0  0  0  0  0  0  0  0  0  0  0  0
    1.7860   -0.4596    1.7183 O   0  0  0  0  0  0  0  0  0  0  0  0
   -0.2294    0.0669    2.5672 N   0  0  0  0  0  0  0  0  0  0  0  0
   -1.2130    0.1938    2.3518 H   0  0  0  0  0  0  0  0  0  0  0  0
    0.1836    0.1337    3.9673 C   0  0  0  0  0  0  0  0  0  0  0  0
    1.0451    0.7976    4.0666 H   0  0  0  0  0  0  0  0  0  0  0  0
   -0.6344    0.5115    4.5820 H   0  0  0  0  0  0  0  0  0  0  0  0
    0.4676   -0.8609    4.3157 H   0  0  0  0  0  0  0  0  0  0  0  0
  5  6  2  0  0  0  0
  5  7  1  0  0  0  0
  2  3  1  0  0  0  0
  2  4  1  0  0  0  0
  2  5  1  0  0  0  0
  1  2  1  0  0  0  0
 18 19  2  0  0  0  0
 18 20  1  0  0  0  0
 16 17  1  0  0  0  0
 14 15  2  0  0  0  0
 14 16  1  0  0  0  0
 11 12  1  0  0  0  0
 11 13  1  0  0  0  0
 11 14  1  0  0  0  0
  9 10  1  0  0  0  0
  9 11  1  0  0  0  0
  9 18  1  0  0  0  0
  7  8  1  0  0  0  0
  7  9  1  0  0  0  0
 22 23  1  0  0  0  0
 22 24  1  0  0  0  0
 22 25  1  0  0  0  0
 20 21  1  0  0  0  0
 20 22  1  0  0  0  0
M  END
$$$$
default_name
  -OEChem-02102213163D

 25 24  0     1  0  0  0  0  0999 V2000
   -2.7826   -3.8464    0.7821 H   0  0  0  0  0  0  0  0  0  0  0  0
   -2.8156   -2.8034    0.4711 C   0  0  0  0  0  0  0  0  0  0  0  0
   -3.4336   -2.2354    1.1641 H   0  0  0  0  0  0  0  0  0  0  0  0
   -3.2256   -2.7344   -0.5349 H   0  0  0  0  0  0  0  0  0  0  0  0
   -1.4126   -2.2444    0.4801 C   0  0  0  0  0  0  0  0  0  0  0  0
   -0.4686   -2.9534    0.8001 O   0  0  0  0  0  0  0  0  0  0  0  0
   -1.2736   -0.9704    0.1241 N   0  0  0  0  0  0  0  0  0  0  0  0
   -2.0996   -0.4354   -0.1019 H   0  0  0  0  0  0  0  0  0  0  0  0
   -0.0016   -0.2394    0.1271 C   0  0  1  0  0  0  0  0  0  0  0  0
    0.6995   -0.7619   -0.5275 H   0  0  0  0  0  0  0  0  0  0  0  0
   -0.2283    1.1832   -0.4215 C   0  0  0  0  0  0  0  0  0  0  0  0
   -0.9579    1.7008    0.2025 H   0  0  0  0  0  0  0  0  0  0  0  0
    0.7055    1.7452   -0.3817 H   0  0  0  0  0  0  0  0  0  0  0  0
   -0.7667    1.2046   -1.8490 C   0  0  0  0  0  0  0  0  0  0  0  0
   -1.9194    1.4596   -2.1719 O   0  0  0  0  0  0  0  0  0  0  0  0
    0.1388    0.9035   -2.7984 O   0  0  0  0  0  0  0  0  0  0  0  0
   -0.3239    0.9735   -3.6340 H   0  0  0  0  0  0  0  0  0  0  0  0
    0.5920   -0.2154    1.5497 C   0  0  0  0  0  0  0  0  0  0  0  0
    1.7860   -0.4596    1.7183 O   0  0  0  0  0  0  0  0  0  0  0  0
   -0.2294    0.0669    2.5672 N   0  0  0  0  0  0  0  0  0  0  0  0
   -1.2130    0.1938    2.3518 H   0  0  0  0  0  0  0  0  0  0  0  0
    0.1836    0.1337    3.9673 C   0  0  0  0  0  0  0  0  0  0  0  0
    1.0451    0.7976    4.0666 H   0  0  0  0  0  0  0  0  0  0  0  0
   -0.6344    0.5115    4.5820 H   0  0  0  0  0  0  0  0  0  0  0  0
    0.4676   -0.8609    4.3157 H   0  0  0  0  0  0  0  0  0  0  0  0
  5  6  2  0  0  0  0
  5  7  1  0  0  0  0
  2  3  1  0  0  0  0
  2  4  1  0  0  0  0
  2  5  1  0  0  0  0
  1  2  1  0  0  0  0
 18 19  2  0  0  0  0
 18 20  1  0  0  0  0
 16 17  1  0  0  0  0
 14 15  2  0  0  0  0
 14 16  1  0  0  0  0
 11 12  1  0  0  0  0
 11 13  1  0  0  0  0
 11 14  1  0  0  0  0
  9 10  1  0  0  0  0
  9 11  1  0  0  0  0
  9 18  1  0  0  0  0
  7  8  1  0  0  0  0
  7  9  1  0  0  0  0
 22 23  1  0  0  0  0
 22 24  1  0  0  0  0
 22 25  1  0  0  0  0
 20 21  1  0  0  0  0
 20 22  1  0  0  0  0
M  END
$$$$
default_name
  -OEChem-02102213163D

 25 24  0     1  0  0  0  0  0999 V2000
   -2.7826   -3.8464    0.7821 H   0  0  0  0  0  0  0  0  0  0  0  0
   -2.8156   -2.8034    0.4711 C   0  0  0  0  0  0  0  0  0  0  0  0
   -3.4336   -2.2354    1.1641 H   0  0  0  0  0  0  0  0  0  0  0  0
   -3.2256   -2.7344   -0.5349 H   0  0  0  0  0  0  0  0  0  0  0  0
   -1.4126   -2.2444    0.4801 C   0  0  0  0  0  0  0  0  0  0  0  0
   -0.4686   -2.9534    0.8001 O   0  0  0  0  0  0  0  0  0  0  0  0
   -1.2736   -0.9704    0.1241 N   0  0  0  0  0  0  0  0  0  0  0  0
   -2.0996   -0.4354   -0.1019 H   0  0  0  0  0  0  0  0  0  0  0  0
   -0.0016   -0.2394    0.1271 C   0  0  1  0  0  0  0  0  0  0  0  0
    0.6995   -0.7619   -0.5275 H   0  0  0  0  0  0  0  0  0  0  0  0
   -0.2283    1.1832   -0.4215 C   0  0  0  0  0  0  0  0  0  0  0  0
   -0.9579    1.7008    0.2025 H   0  0  0  0  0  0  0  0  0  0  0  0
    0.7055    1.7452   -0.3817 H   0  0  0  0  0  0  0  0  0  0  0  0
   -0.7667    1.2046   -1.8490 C   0  0  0  0  0  0  0  0  0  0  0  0
   -1.8282    1.7009   -2.2027 O   0  0  0  0  0  0  0  0  0  0  0  0
    0.0248    0.6081   -2.7598 O   0  0  0  0  0  0  0  0  0  0  0  0
   -0.4196    0.7118   -3.6018 H   0  0  0  0  0  0  0  0  0  0  0  0
    0.5920   -0.2154    1.5497 C   0  0  0  0  0  0  0  0  0  0  0  0
    1.7860   -0.4596    1.7183 O   0  0  0  0  0  0  0  0  0  0  0  0
   -0.2294    0.0669    2.5672 N   0  0  0  0  0  0  0  0  0  0  0  0
   -1.2130    0.1938    2.3518 H   0  0  0  0  0  0  0  0  0  0  0  0
    0.1836    0.1337    3.9673 C   0  0  0  0  0  0  0  0  0  0  0  0
    1.0451    0.7976    4.0666 H   0  0  0  0  0  0  0  0  0  0  0  0
   -0.6344    0.5115    4.5820 H   0  0  0  0  0  0  0  0  0  0  0  0
    0.4676   -0.8609    4.3157 H   0  0  0  0  0  0  0  0  0  0  0  0
  5  6  2  0  0  0  0
  5  7  1  0  0  0  0
  2  3  1  0  0  0  0
  2  4  1  0  0  0  0
  2  5  1  0  0  0  0
  1  2  1  0  0  0  0
 18 19  2  0  0  0  0
 18 20  1  0  0  0  0
 16 17  1  0  0  0  0
 14 15  2  0  0  0  0
 14 16  1  0  0  0  0
 11 12  1  0  0  0  0
 11 13  1  0  0  0  0
 11 14  1  0  0  0  0
  9 10  1  0  0  0  0
  9 11  1  0  0  0  0
  9 18  1  0  0  0  0
  7  8  1  0  0  0  0
  7  9  1  0  0  0  0
 22 23  1  0  0  0  0
 22 24  1  0  0  0  0
 22 25  1  0  0  0  0
 20 21  1  0  0  0  0
 20 22  1  0  0  0  0
M  END
$$$$
default_name
  -OEChem-02102213163D

 25 24  0     1  0  0  0  0  0999 V2000
   -2.7826   -3.8464    0.7821 H   0  0  0  0  0  0  0  0  0  0  0  0
   -2.8156   -2.8034    0.4711 C   0  0  0  0  0  0  0  0  0  0  0  0
   -3.4336   -2.2354    1.1641 H   0  0  0  0  0  0  0  0  0  0  0  0
   -3.2256   -2.7344   -0.5349 H   0  0  0  0  0  0  0  0  0  0  0  0
   -1.4126   -2.2444    0.4801 C   0  0  0  0  0  0  0  0  0  0  0  0
   -0.4686   -2.9534    0.8001 O   0  0  0  0  0  0  0  0  0  0  0  0
   -1.2736   -0.9704    0.1241 N   0  0  0  0  0  0  0  0  0  0  0  0
   -2.0996   -0.4354   -0.1019 H   0  0  0  0  0  0  0  0  0  0  0  0
   -0.0016   -0.2394    0.1271 C   0  0  1  0  0  0  0  0  0  0  0  0
    0.6995   -0.7619   -0.5275 H   0  0  0  0  0  0  0  0  0  0  0  0
   -0.2283    1.1832   -0.4215 C   0  0  0  0  0  0  0  0  0  0  0  0
   -0.9579    1.7008    0.2025 H   0  0  0  0  0  0  0  0  0  0  0  0
    0.7055    1.7452   -0.3817 H   0  0  0  0  0  0  0  0  0  0  0  0
   -0.7667    1.2046   -1.8490 C   0  0  0  0  0  0  0  0  0  0  0  0
   -1.6817    1.9090   -2.2549 O   0  0  0  0  0  0  0  0  0  0  0  0
   -0.1567    0.3539   -2.6952 O   0  0  0  0  0  0  0  0  0  0  0  0
   -0.5753    0.4852   -3.5465 H   0  0  0  0  0  0  0  0  0  0  0  0
    0.5920   -0.2154    1.5497 C   0  0  0  0  0  0  0  0  0  0  0  0
    1.7860   -0.4596    1.7183 O   0  0  0  0  0  0  0  0  0  0  0  0
   -0.2294    0.0669    2.5672 N   0  0  0  0  0  0  0  0  0  0  0  0
   -1.2130    0.1938    2.3518 H   0  0  0  0  0  0  0  0  0  0  0  0
    0.1836    0.1337    3.9673 C   0  0  0  0  0  0  0  0  0  0  0  0
    1.0451    0.7976    4.0666 H   0  0  0  0  0  0  0  0  0  0  0  0
   -0.6344    0.5115    4.5820 H   0  0  0  0  0  0  0  0  0  0  0  0
    0.4676   -0.8609    4.3157 H   0  0  0  0  0  0  0  0  0  0  0  0
  5  6  2  0  0  0  0
  5  7  1  0  0  0  0
  2  3  1  0  0  0  0
  2  4  1  0  0  0  0
  2  5  1  0  0  0  0
  1  2  1  0  0  0  0
 18 19  2  0  0  0  0
 18 20  1  0  0  0  0
 16 17  1  0  0  0  0
 14 15  2  0  0  0  0
 14 16  1  0  0  0  0
 11 12  1  0  0  0  0
 11 13  1  0  0  0  0
 11 14  1  0  0  0  0
  9 10  1  0  0  0  0
  9 11  1  0  0  0  0
  9 18  1  0  0  0  0
  7  8  1  0  0  0  0
  7  9  1  0  0  0  0
 22 23  1  0  0  0  0
 22 24  1  0  0  0  0
 22 25  1  0  0  0  0
 20 21  1  0  0  0  0
 20 22  1  0  0  0  0
M  END
$$$$
default_name
  -OEChem-02102213163D

 25 24  0     1  0  0  0  0  0999 V2000
   -2.7826   -3.8464    0.7821 H   0  0  0  0  0  0  0  0  0  0  0  0
   -2.8156   -2.8034    0.4711 C   0  0  0  0  0  0  0  0  0  0  0  0
   -3.4336   -2.2354    1.1641 H   0  0  0  0  0  0  0  0  0  0  0  0
   -3.2256   -2.7344   -0.5349 H   0  0  0  0  0  0  0  0  0  0  0  0
   -1.4126   -2.2444    0.4801 C   0  0  0  0  0  0  0  0  0  0  0  0
   -0.4686   -2.9534    0.8001 O   0  0  0  0  0  0  0  0  0  0  0  0
   -1.2736   -0.9704    0.1241 N   0  0  0  0  0  0  0  0  0  0  0  0
   -2.0996   -0.4354   -0.1019 H   0  0  0  0  0  0  0  0  0  0  0  0
   -0.0016   -0.2394    0.1271 C   0  0  1  0  0  0  0  0  0  0  0  0
    0.6995   -0.7619   -0.5275 H   0  0  0  0  0  0  0  0  0  0  0  0
   -0.2283    1.1832   -0.4215 C   0  0  0  0  0  0  0  0  0  0  0  0
   -0.9579    1.7008    0.2025 H   0  0  0  0  0  0  0  0  0  0  0  0
    0.7055    1.7452   -0.3817 H   0  0  0  0  0  0  0  0  0  0  0  0
   -0.7667    1.2046   -1.8490 C   0  0  0  0  0  0  0  0  0  0  0  0
   -1.4899    2.0699   -2.3248 O   0  0  0  0  0  0  0  0  0  0  0  0
   -0.3933    0.1581   -2.6089 O   0  0  0  0  0  0  0  0  0  0  0  0
   -0.7803    0.3091   -3.4718 H   0  0  0  0  0  0  0  0  0  0  0  0
    0.5920   -0.2154    1.5497 C   0  0  0  0  0  0  0  0  0  0  0  0
    1.7860   -0.4596    1.7183 O   0  0  0  0  0  0  0  0  0  0  0  0
   -0.2294    0.0669    2.5672 N   0  0  0  0  0  0  0  0  0  0  0  0
   -1.2130    0.1938    2.3518 H   0  0  0  0  0  0  0  0  0  0  0  0
    0.1836    0.1337    3.9673 C   0  0  0  0  0  0  0  0  0  0  0  0
    1.0451    0.7976    4.0666 H   0  0  0  0  0  0  0  0  0  0  0  0
   -0.6344    0.5115    4.5820 H   0  0  0  0  0  0  0  0  0  0  0  0
    0.4676   -0.8609    4.3157 H   0  0  0  0  0  0  0  0  0  0  0  0
  5  6  2  0  0  0  0
  5  7  1  0  0  0  0
  2  3  1  0  0  0  0
  2  4  1  0  0  0  0
  2  5  1  0  0  0  0
  1  2  1  0  0  0  0
 18 19  2  0  0  0  0
 18 20  1  0  0  0  0
 16 17  1  0  0  0  0
 14 15  2  0  0  0  0
 14 16  1  0  0  0  0
 11 12  1  0  0  0  0
 11 13  1  0  0  0  0
 11 14  1  0  0  0  0
  9 10  1  0  0  0  0
  9 11  1  0  0  0  0
  9 18  1  0  0  0  0
  7  8  1  0  0  0  0
  7  9  1  0  0  0  0
 22 23  1  0  0  0  0
 22 24  1  0  0  0  0
 22 25  1  0  0  0  0
 20 21  1  0  0  0  0
 20 22  1  0  0  0  0
M  END
$$$$
default_name
  -OEChem-02102213163D

 25 24  0     1  0  0  0  0  0999 V2000
   -2.7826   -3.8464    0.7821 H   0  0  0  0  0  0  0  0  0  0  0  0
   -2.8156   -2.8034    0.4711 C   0  0  0  0  0  0  0  0  0  0  0  0
   -3.4336   -2.2354    1.1641 H   0  0  0  0  0  0  0  0  0  0  0  0
   -3.2256   -2.7344   -0.5349 H   0  0  0  0  0  0  0  0  0  0  0  0
   -1.4126   -2.2444    0.4801 C   0  0  0  0  0  0  0  0  0  0  0  0
   -0.4686   -2.9534    0.8001 O   0  0  0  0  0  0  0  0  0  0  0  0
   -1.2736   -0.9704    0.1241 N   0  0  0  0  0  0  0  0  0  0  0  0
   -2.0996   -0.4354   -0.1019 H   0  0  0  0  0  0  0  0  0  0  0  0
   -0.0016   -0.2394    0.1271 C   0  0  1  0  0  0  0  0  0  0  0  0
    0.6995   -0.7619   -0.5275 H   0  0  0  0  0  0  0  0  0  0  0  0
   -0.2283    1.1832   -0.4215 C   0  0  0  0  0  0  0  0  0  0  0  0
   -0.9579    1.7008    0.2025 H   0  0  0  0  0  0  0  0  0  0  0  0
    0.7055    1.7452   -0.3817 H   0  0  0  0  0  0  0  0  0  0  0  0
   -0.7667    1.2046   -1.8490 C   0  0  0  0  0  0  0  0  0  0  0  0
   -1.2661    2.1724   -2.4077 O   0  0  0  0  0  0  0  0  0  0  0  0
   -0.6690    0.0343   -2.5067 O   0  0  0  0  0  0  0  0  0  0  0  0
   -1.0207    0.1954   -3.3828 H   0  0  0  0  0  0  0  0  0  0  0  0
    0.5920   -0.2154    1.5497 C   0  0  0  0  0  0  0  0  0  0  0  0
    1.7860   -0.4596    1.7183 O   0  0  0  0  0  0  0  0  0  0  0  0
   -0.2294    0.0669    2.5672 N   0  0  0  0  0  0  0  0  0  0  0  0
   -1.2130    0.1938    2.3518 H   0  0  0  0  0  0  0  0  0  0  0  0
    0.1836    0.1337    3.9673 C   0  0  0  0  0  0  0  0  0  0  0  0
    1.0451    0.7976    4.0666 H   0  0  0  0  0  0  0  0  0  0  0  0
   -0.6344    0.5115    4.5820 H   0  0  0  0  0  0  0  0  0  0  0  0
    0.4676   -0.8609    4.3157 H   0  0  0  0  0  0  0  0  0  0  0  0
  5  6  2  0  0  0  0
  5  7  1  0  0  0  0
  2  3  1  0  0  0  0
  2  4  1  0  0  0  0
  2  5  1  0  0  0  0
  1  2  1  0  0  0  0
 18 19  2  0  0  0  0
 18 20  1  0  0  0  0
 16 17  1  0  0  0  0
 14 15  2  0  0  0  0
 14 16  1  0  0  0  0
 11 12  1  0  0  0  0
 11 13  1  0  0  0  0
 11 14  1  0  0  0  0
  9 10  1  0  0  0  0
  9 11  1  0  0  0  0
  9 18  1  0  0  0  0
  7  8  1  0  0  0  0
  7  9  1  0  0  0  0
 22 23  1  0  0  0  0
 22 24  1  0  0  0  0
 22 25  1  0  0  0  0
 20 21  1  0  0  0  0
 20 22  1  0  0  0  0
M  END
$$$$
default_name
  -OEChem-02102213163D

 25 24  0     1  0  0  0  0  0999 V2000
   -2.7826   -3.8464    0.7821 H   0  0  0  0  0  0  0  0  0  0  0  0
   -2.8156   -2.8034    0.4711 C   0  0  0  0  0  0  0  0  0  0  0  0
   -3.4336   -2.2354    1.1641 H   0  0  0  0  0  0  0  0  0  0  0  0
   -3.2256   -2.7344   -0.5349 H   0  0  0  0  0  0  0  0  0  0  0  0
   -1.4126   -2.2444    0.4801 C   0  0  0  0  0  0  0  0  0  0  0  0
   -0.4686   -2.9534    0.8001 O   0  0  0  0  0  0  0  0  0  0  0  0
   -1.2736   -0.9704    0.1241 N   0  0  0  0  0  0  0  0  0  0  0  0
   -2.0996   -0.4354   -0.1019 H   0  0  0  0  0  0  0  0  0  0  0  0
   -0.0016   -0.2394    0.1271 C   0  0  1  0  0  0  0  0  0  0  0  0
    0.6995   -0.7619   -0.5275 H   0  0  0  0  0  0  0  0  0  0  0  0
   -0.2283    1.1832   -0.4215 C   0  0  0  0  0  0  0  0  0  0  0  0
   -0.7381    1.7856    0.3314 H   0  0  0  0  0  0  0  0  0  0  0  0
    0.7331    1.6531   -0.6319 H   0  0  0  0  0  0  0  0  0  0  0  0
   -1.0903    1.2182   -1.6799 C   0  0  0  0  0  0  0  0  0  0  0  0
   -1.4086    2.2258   -2.2977 O   0  0  0  0  0  0  0  0  0  0  0  0
   -1.5197    0.0149   -2.1037 O   0  0  0  0  0  0  0  0  0  0  0  0
   -2.0246    0.1820   -2.9002 H   0  0  0  0  0  0  0  0  0  0  0  0
    0.5920   -0.2154    1.5497 C   0  0  0  0  0  0  0  0  0  0  0  0
    1.7860   -0.4596    1.7183 O   0  0  0  0  0  0  0  0  0  0  0  0
   -0.2294    0.0669    2.5672 N   0  0  0  0  0  0  0  0  0  0  0  0
   -1.2130    0.1938    2.3518 H   0  0  0  0  0  0  0  0  0  0  0  0
    0.1836    0.1337    3.9673 C   0  0  0  0  0  0  0  0  0  0  0  0
    1.0451    0.7976    4.0666 H   0  0  0  0  0  0  0  0  0  0  0  0
   -0.6344    0.5115    4.5820 H   0  0  0  0  0  0  0  0  0  0  0  0
    0.4676   -0.8609    4.3157 H   0  0  0  0  0  0  0  0  0  0  0  0
  5  6  2  0  0  0  0
  5  7  1  0  0  0  0
  2  3  1  0  0  0  0
  2  4  1  0  0  0  0
  2  5  1  0  0  0  0
  1  2  1  0  0  0  0
 18 19  2  0  0  0  0
 18 20  1  0  0  0  0
 16 17  1  0  0  0  0
 14 15  2  0  0  0  0
 14 16  1  0  0  0  0
 11 12  1  0  0  0  0
 11 13  1  0  0  0  0
 11 14  1  0  0  0  0
  9 10  1  0  0  0  0
  9 11  1  0  0  0  0
  9 18  1  0  0  0  0
  7  8  1  0  0  0  0
  7  9  1  0  0  0  0
 22 23  1  0  0  0  0
 22 24  1  0  0  0  0
 22 25  1  0  0  0  0
 20 21  1  0  0  0  0
 20 22  1  0  0  0  0
M  END
$$$$
default_name
  -OEChem-02102213163D

 25 24  0     1  0  0  0  0  0999 V2000
   -2.7826   -3.8464    0.7821 H   0  0  0  0  0  0  0  0  0  0  0  0
   -2.8156   -2.8034    0.4711 C   0  0  0  0  0  0  0  0  0  0  0  0
   -3.4336   -2.2354    1.1641 H   0  0  0  0  0  0  0  0  0  0  0  0
   -3.2256   -2.7344   -0.5349 H   0  0  0  0  0  0  0  0  0  0  0  0
   -1.4126   -2.2444    0.4801 C   0  0  0  0  0  0  0  0  0  0  0  0
   -0.4686   -2.9534    0.8001 O   0  0  0  0  0  0  0  0  0  0  0  0
   -1.2736   -0.9704    0.1241 N   0  0  0  0  0  0  0  0  0  0  0  0
   -2.0996   -0.4354   -0.1019 H   0  0  0  0  0  0  0  0  0  0  0  0
   -0.0016   -0.2394    0.1271 C   0  0  1  0  0  0  0  0  0  0  0  0
    0.6995   -0.7619   -0.5275 H   0  0  0  0  0  0  0  0  0  0  0  0
   -0.2283    1.1832   -0.4215 C   0  0  0  0  0  0  0  0  0  0  0  0
   -0.7381    1.7856    0.3314 H   0  0  0  0  0  0  0  0  0  0  0  0
    0.7331    1.6531   -0.6319 H   0  0  0  0  0  0  0  0  0  0  0  0
   -1.0903    1.2182   -1.6799 C   0  0  0  0  0  0  0  0  0  0  0  0
   -1.2001    2.1696   -2.4421 O   0  0  0  0  0  0  0  0  0  0  0  0
   -1.7754    0.0861   -1.9266 O   0  0  0  0  0  0  0  0  0  0  0  0
   -2.2503    0.2395   -2.7440 H   0  0  0  0  0  0  0  0  0  0  0  0
    0.5920   -0.2154    1.5497 C   0  0  0  0  0  0  0  0  0  0  0  0
    1.7860   -0.4596    1.7183 O   0  0  0  0  0  0  0  0  0  0  0  0
   -0.2294    0.0669    2.5672 N   0  0  0  0  0  0  0  0  0  0  0  0
   -1.2130    0.1938    2.3518 H   0  0  0  0  0  0  0  0  0  0  0  0
    0.1836    0.1337    3.9673 C   0  0  0  0  0  0  0  0  0  0  0  0
    1.0451    0.7976    4.0666 H   0  0  0  0  0  0  0  0  0  0  0  0
   -0.6344    0.5115    4.5820 H   0  0  0  0  0  0  0  0  0  0  0  0
    0.4676   -0.8609    4.3157 H   0  0  0  0  0  0  0  0  0  0  0  0
  5  6  2  0  0  0  0
  5  7  1  0  0  0  0
  2  3  1  0  0  0  0
  2  4  1  0  0  0  0
  2  5  1  0  0  0  0
  1  2  1  0  0  0  0
 18 19  2  0  0  0  0
 18 20  1  0  0  0  0
 16 17  1  0  0  0  0
 14 15  2  0  0  0  0
 14 16  1  0  0  0  0
 11 12  1  0  0  0  0
 11 13  1  0  0  0  0
 11 14  1  0  0  0  0
  9 10  1  0  0  0  0
  9 11  1  0  0  0  0
  9 18  1  0  0  0  0
  7  8  1  0  0  0  0
  7  9  1  0  0  0  0
 22 23  1  0  0  0  0
 22 24  1  0  0  0  0
 22 25  1  0  0  0  0
 20 21  1  0  0  0  0
 20 22  1  0  0  0  0
M  END
$$$$
default_name
  -OEChem-02102213163D

 25 24  0     1  0  0  0  0  0999 V2000
   -2.7826   -3.8464    0.7821 H   0  0  0  0  0  0  0  0  0  0  0  0
   -2.8156   -2.8034    0.4711 C   0  0  0  0  0  0  0  0  0  0  0  0
   -3.4336   -2.2354    1.1641 H   0  0  0  0  0  0  0  0  0  0  0  0
   -3.2256   -2.7344   -0.5349 H   0  0  0  0  0  0  0  0  0  0  0  0
   -1.4126   -2.2444    0.4801 C   0  0  0  0  0  0  0  0  0  0  0  0
   -0.4686   -2.9534    0.8001 O   0  0  0  0  0  0  0  0  0  0  0  0
   -1.2736   -0.9704    0.1241 N   0  0  0  0  0  0  0  0  0  0  0  0
   -2.0996   -0.4354   -0.1019 H   0  0  0  0  0  0  0  0  0  0  0  0
   -0.0016   -0.2394    0.1271 C   0  0  1  0  0  0  0  0  0  0  0  0
    0.6995   -0.7619   -0.5275 H   0  0  0  0  0  0  0  0  0  0  0  0
   -0.2283    1.1832   -0.4215 C   0  0  0  0  0  0  0  0  0  0  0  0
   -0.7381    1.7856    0.3314 H   0  0  0  0  0  0  0  0  0  0  0  0
    0.7331    1.6531   -0.6319 H   0  0  0  0  0  0  0  0  0  0  0  0
   -1.0903    1.2182   -1.6799 C   0  0  0  0  0  0  0  0  0  0  0  0
   -1.0115    2.0497   -2.5747 O   0  0  0  0  0  0  0  0  0  0  0  0
   -2.0060    0.2352   -1.7644 O   0  0  0  0  0  0  0  0  0  0  0  0
   -2.4551    0.3660   -2.6002 H   0  0  0  0  0  0  0  0  0  0  0  0
    0.5920   -0.2154    1.5497 C   0  0  0  0  0  0  0  0  0  0  0  0
    1.7860   -0.4596    1.7183 O   0  0  0  0  0  0  0  0  0  0  0  0
   -0.2294    0.0669    2.5672 N   0  0  0  0  0  0  0  0  0  0  0  0
   -1.2130    0.1938    2.3518 H   0  0  0  0  0  0  0  0  0  0  0  0
    0.1836    0.1337    3.9673 C   0  0  0  0  0  0  0  0  0  0  0  0
    1.0451    0.7976    4.0666 H   0  0  0  0  0  0  0  0  0  0  0  0
   -0.6344    0.5115    4.5820 H   0  0  0  0  0  0  0  0  0  0  0  0
    0.4676   -0.8609    4.3157 H   0  0  0  0  0  0  0  0  0  0  0  0
  5  6  2  0  0  0  0
  5  7  1  0  0  0  0
  2  3  1  0  0  0  0
  2  4  1  0  0  0  0
  2  5  1  0  0  0  0
  1  2  1  0  0  0  0
 18 19  2  0  0  0  0
 18 20  1  0  0  0  0
 16 17  1  0  0  0  0
 14 15  2  0  0  0  0
 14 16  1  0  0  0  0
 11 12  1  0  0  0  0
 11 13  1  0  0  0  0
 11 14  1  0  0  0  0
  9 10  1  0  0  0  0
  9 11  1  0  0  0  0
  9 18  1  0  0  0  0
  7  8  1  0  0  0  0
  7  9  1  0  0  0  0
 22 23  1  0  0  0  0
 22 24  1  0  0  0  0
 22 25  1  0  0  0  0
 20 21  1  0  0  0  0
 20 22  1  0  0  0  0
M  END
$$$$
default_name
  -OEChem-02102213163D

 25 24  0     1  0  0  0  0  0999 V2000
   -2.7826   -3.8464    0.7821 H   0  0  0  0  0  0  0  0  0  0  0  0
   -2.8156   -2.8034    0.4711 C   0  0  0  0  0  0  0  0  0  0  0  0
   -3.4336   -2.2354    1.1641 H   0  0  0  0  0  0  0  0  0  0  0  0
   -3.2256   -2.7344   -0.5349 H   0  0  0  0  0  0  0  0  0  0  0  0
   -1.4126   -2.2444    0.4801 C   0  0  0  0  0  0  0  0  0  0  0  0
   -0.4686   -2.9534    0.8001 O   0  0  0  0  0  0  0  0  0  0  0  0
   -1.2736   -0.9704    0.1241 N   0  0  0  0  0  0  0  0  0  0  0  0
   -2.0996   -0.4354   -0.1019 H   0  0  0  0  0  0  0  0  0  0  0  0
   -0.0016   -0.2394    0.1271 C   0  0  1  0  0  0  0  0  0  0  0  0
    0.6995   -0.7619   -0.5275 H   0  0  0  0  0  0  0  0  0  0  0  0
   -0.2283    1.1832   -0.4215 C   0  0  0  0  0  0  0  0  0  0  0  0
   -0.7381    1.7856    0.3314 H   0  0  0  0  0  0  0  0  0  0  0  0
    0.7331    1.6531   -0.6319 H   0  0  0  0  0  0  0  0  0  0  0  0
   -1.0903    1.2182   -1.6799 C   0  0  0  0  0  0  0  0  0  0  0  0
   -0.8557    1.8743   -2.6863 O   0  0  0  0  0  0  0  0  0  0  0  0
   -2.1960    0.4523   -1.6282 O   0  0  0  0  0  0  0  0  0  0  0  0
   -2.6250    0.5530   -2.4785 H   0  0  0  0  0  0  0  0  0  0  0  0
    0.5920   -0.2154    1.5497 C   0  0  0  0  0  0  0  0  0  0  0  0
    1.7860   -0.4596    1.7183 O   0  0  0  0  0  0  0  0  0  0  0  0
   -0.2294    0.0669    2.5672 N   0  0  0  0  0  0  0  0  0  0  0  0
   -1.2130    0.1938    2.3518 H   0  0  0  0  0  0  0  0  0  0  0  0
    0.1836    0.1337    3.9673 C   0  0  0  0  0  0  0  0  0  0  0  0
    1.0451    0.7976    4.0666 H   0  0  0  0  0  0  0  0  0  0  0  0
   -0.6344    0.5115    4.5820 H   0  0  0  0  0  0  0  0  0  0  0  0
    0.4676   -0.8609    4.3157 H   0  0  0  0  0  0  0  0  0  0  0  0
  5  6  2  0  0  0  0
  5  7  1  0  0  0  0
  2  3  1  0  0  0  0
  2  4  1  0  0  0  0
  2  5  1  0  0  0  0
  1  2  1  0  0  0  0
 18 19  2  0  0  0  0
 18 20  1  0  0  0  0
 16 17  1  0  0  0  0
 14 15  2  0  0  0  0
 14 16  1  0  0  0  0
 11 12  1  0  0  0  0
 11 13  1  0  0  0  0
 11 14  1  0  0  0  0
  9 10  1  0  0  0  0
  9 11  1  0  0  0  0
  9 18  1  0  0  0  0
  7  8  1  0  0  0  0
  7  9  1  0  0  0  0
 22 23  1  0  0  0  0
 22 24  1  0  0  0  0
 22 25  1  0  0  0  0
 20 21  1  0  0  0  0
 20 22  1  0  0  0  0
M  END
$$$$
default_name
  -OEChem-02102213163D

 25 24  0     1  0  0  0  0  0999 V2000
   -2.7826   -3.8464    0.7821 H   0  0  0  0  0  0  0  0  0  0  0  0
   -2.8156   -2.8034    0.4711 C   0  0  0  0  0  0  0  0  0  0  0  0
   -3.4336   -2.2354    1.1641 H   0  0  0  0  0  0  0  0  0  0  0  0
   -3.2256   -2.7344   -0.5349 H   0  0  0  0  0  0  0  0  0  0  0  0
   -1.4126   -2.2444    0.4801 C   0  0  0  0  0  0  0  0  0  0  0  0
   -0.4686   -2.9534    0.8001 O   0  0  0  0  0  0  0  0  0  0  0  0
   -1.2736   -0.9704    0.1241 N   0  0  0  0  0  0  0  0  0  0  0  0
   -2.0996   -0.4354   -0.1019 H   0  0  0  0  0  0  0  0  0  0  0  0
   -0.0016   -0.2394    0.1271 C   0  0  1  0  0  0  0  0  0  0  0  0
    0.6995   -0.7619   -0.5275 H   0  0  0  0  0  0  0  0  0  0  0  0
   -0.2283    1.1832   -0.4215 C   0  0  0  0  0  0  0  0  0  0  0  0
   -0.7381    1.7856    0.3314 H   0  0  0  0  0  0  0  0  0  0  0  0
    0.7331    1.6531   -0.6319 H   0  0  0  0  0  0  0  0  0  0  0  0
   -1.0903    1.2182   -1.6799 C   0  0  0  0  0  0  0  0  0  0  0  0
   -0.7433    1.6552   -2.7693 O   0  0  0  0  0  0  0  0  0  0  0  0
   -2.3324    0.7224   -1.5273 O   0  0  0  0  0  0  0  0  0  0  0  0
   -2.7486    0.7876   -2.3874 H   0  0  0  0  0  0  0  0  0  0  0  0
    0.5920   -0.2154    1.5497 C   0  0  0  0  0  0  0  0  0  0  0  0
    1.7860   -0.4596    1.7183 O   0  0  0  0  0  0  0  0  0  0  0  0
   -0.2294    0.0669    2.5672 N   0  0  0  0  0  0  0  0  0  0  0  0
   -1.2130    0.1938    2.3518 H   0  0  0  0  0  0  0  0  0  0  0  0
    0.1836    0.1337    3.9673 C   0  0  0  0  0  0  0  0  0  0  0  0
    1.0451    0.7976    4.0666 H   0  0  0  0  0  0  0  0  0  0  0  0
   -0.6344    0.5115    4.5820 H   0  0  0  0  0  0  0  0  0  0  0  0
    0.4676   -0.8609    4.3157 H   0  0  0  0  0  0  0  0  0  0  0  0
  5  6  2  0  0  0  0
  5  7  1  0  0  0  0
  2  3  1  0  0  0  0
  2  4  1  0  0  0  0
  2  5  1  0  0  0  0
  1  2  1  0  0  0  0
 18 19  2  0  0  0  0
 18 20  1  0  0  0  0
 16 17  1  0  0  0  0
 14 15  2  0  0  0  0
 14 16  1  0  0  0  0
 11 12  1  0  0  0  0
 11 13  1  0  0  0  0
 11 14  1  0  0  0  0
  9 10  1  0  0  0  0
  9 11  1  0  0  0  0
  9 18  1  0  0  0  0
  7  8  1  0  0  0  0
  7  9  1  0  0  0  0
 22 23  1  0  0  0  0
 22 24  1  0  0  0  0
 22 25  1  0  0  0  0
 20 21  1  0  0  0  0
 20 22  1  0  0  0  0
M  END
$$$$
default_name
  -OEChem-02102213163D

 25 24  0     1  0  0  0  0  0999 V2000
   -2.7826   -3.8464    0.7821 H   0  0  0  0  0  0  0  0  0  0  0  0
   -2.8156   -2.8034    0.4711 C   0  0  0  0  0  0  0  0  0  0  0  0
   -3.4336   -2.2354    1.1641 H   0  0  0  0  0  0  0  0  0  0  0  0
   -3.2256   -2.7344   -0.5349 H   0  0  0  0  0  0  0  0  0  0  0  0
   -1.4126   -2.2444    0.4801 C   0  0  0  0  0  0  0  0  0  0  0  0
   -0.4686   -2.9534    0.8001 O   0  0  0  0  0  0  0  0  0  0  0  0
   -1.2736   -0.9704    0.1241 N   0  0  0  0  0  0  0  0  0  0  0  0
   -2.0996   -0.4354   -0.1019 H   0  0  0  0  0  0  0  0  0  0  0  0
   -0.0016   -0.2394    0.1271 C   0  0  1  0  0  0  0  0  0  0  0  0
    0.6995   -0.7619   -0.5275 H   0  0  0  0  0  0  0  0  0  0  0  0
   -0.2283    1.1832   -0.4215 C   0  0  0  0  0  0  0  0  0  0  0  0
   -0.7381    1.7856    0.3314 H   0  0  0  0  0  0  0  0  0  0  0  0
    0.7331    1.6531   -0.6319 H   0  0  0  0  0  0  0  0  0  0  0  0
   -1.0903    1.2182   -1.6799 C   0  0  0  0  0  0  0  0  0  0  0  0
   -0.6821    1.4075   -2.8182 O   0  0  0  0  0  0  0  0  0  0  0  0
   -2.4059    1.0272   -1.4684 O   0  0  0  0  0  0  0  0  0  0  0  0
   -2.8173    1.0540   -2.3329 H   0  0  0  0  0  0  0  0  0  0  0  0
    0.5920   -0.2154    1.5497 C   0  0  0  0  0  0  0  0  0  0  0  0
    1.7860   -0.4596    1.7183 O   0  0  0  0  0  0  0  0  0  0  0  0
   -0.2294    0.0669    2.5672 N   0  0  0  0  0  0  0  0  0  0  0  0
   -1.2130    0.1938    2.3518 H   0  0  0  0  0  0  0  0  0  0  0  0
    0.1836    0.1337    3.9673 C   0  0  0  0  0  0  0  0  0  0  0  0
    1.0451    0.7976    4.0666 H   0  0  0  0  0  0  0  0  0  0  0  0
   -0.6344    0.5115    4.5820 H   0  0  0  0  0  0  0  0  0  0  0  0
    0.4676   -0.8609    4.3157 H   0  0  0  0  0  0  0  0  0  0  0  0
  5  6  2  0  0  0  0
  5  7  1  0  0  0  0
  2  3  1  0  0  0  0
  2  4  1  0  0  0  0
  2  5  1  0  0  0  0
  1  2  1  0  0  0  0
 18 19  2  0  0  0  0
 18 20  1  0  0  0  0
 16 17  1  0  0  0  0
 14 15  2  0  0  0  0
 14 16  1  0  0  0  0
 11 12  1  0  0  0  0
 11 13  1  0  0  0  0
 11 14  1  0  0  0  0
  9 10  1  0  0  0  0
  9 11  1  0  0  0  0
  9 18  1  0  0  0  0
  7  8  1  0  0  0  0
  7  9  1  0  0  0  0
 22 23  1  0  0  0  0
 22 24  1  0  0  0  0
 22 25  1  0  0  0  0
 20 21  1  0  0  0  0
 20 22  1  0  0  0  0
M  END
$$$$
default_name
  -OEChem-02102213163D

 25 24  0     1  0  0  0  0  0999 V2000
   -2.7826   -3.8464    0.7821 H   0  0  0  0  0  0  0  0  0  0  0  0
   -2.8156   -2.8034    0.4711 C   0  0  0  0  0  0  0  0  0  0  0  0
   -3.4336   -2.2354    1.1641 H   0  0  0  0  0  0  0  0  0  0  0  0
   -3.2256   -2.7344   -0.5349 H   0  0  0  0  0  0  0  0  0  0  0  0
   -1.4126   -2.2444    0.4801 C   0  0  0  0  0  0  0  0  0  0  0  0
   -0.4686   -2.9534    0.8001 O   0  0  0  0  0  0  0  0  0  0  0  0
   -1.2736   -0.9704    0.1241 N   0  0  0  0  0  0  0  0  0  0  0  0
   -2.0996   -0.4354   -0.1019 H   0  0  0  0  0  0  0  0  0  0  0  0
   -0.0016   -0.2394    0.1271 C   0  0  1  0  0  0  0  0  0  0  0  0
    0.6995   -0.7619   -0.5275 H   0  0  0  0  0  0  0  0  0  0  0  0
   -0.2283    1.1832   -0.4215 C   0  0  0  0  0  0  0  0  0  0  0  0
   -0.7381    1.7856    0.3314 H   0  0  0  0  0  0  0  0  0  0  0  0
    0.7331    1.6531   -0.6319 H   0  0  0  0  0  0  0  0  0  0  0  0
   -1.0903    1.2182   -1.6799 C   0  0  0  0  0  0  0  0  0  0  0  0
   -0.6761    1.1480   -2.8295 O   0  0  0  0  0  0  0  0  0  0  0  0
   -2.4115    1.3459   -1.4558 O   0  0  0  0  0  0  0  0  0  0  0  0
   -2.8265    1.3339   -2.3188 H   0  0  0  0  0  0  0  0  0  0  0  0
    0.5920   -0.2154    1.5497 C   0  0  0  0  0  0  0  0  0  0  0  0
    1.7860   -0.4596    1.7183 O   0  0  0  0  0  0  0  0  0  0  0  0
   -0.2294    0.0669    2.5672 N   0  0  0  0  0  0  0  0  0  0  0  0
   -1.2130    0.1938    2.3518 H   0  0  0  0  0  0  0  0  0  0  0  0
    0.1836    0.1337    3.9673 C   0  0  0  0  0  0  0  0  0  0  0  0
    1.0451    0.7976    4.0666 H   0  0  0  0  0  0  0  0  0  0  0  0
   -0.6344    0.5115    4.5820 H   0  0  0  0  0  0  0  0  0  0  0  0
    0.4676   -0.8609    4.3157 H   0  0  0  0  0  0  0  0  0  0  0  0
  5  6  2  0  0  0  0
  5  7  1  0  0  0  0
  2  3  1  0  0  0  0
  2  4  1  0  0  0  0
  2  5  1  0  0  0  0
  1  2  1  0  0  0  0
 18 19  2  0  0  0  0
 18 20  1  0  0  0  0
 16 17  1  0  0  0  0
 14 15  2  0  0  0  0
 14 16  1  0  0  0  0
 11 12  1  0  0  0  0
 11 13  1  0  0  0  0
 11 14  1  0  0  0  0
  9 10  1  0  0  0  0
  9 11  1  0  0  0  0
  9 18  1  0  0  0  0
  7  8  1  0  0  0  0
  7  9  1  0  0  0  0
 22 23  1  0  0  0  0
 22 24  1  0  0  0  0
 22 25  1  0  0  0  0
 20 21  1  0  0  0  0
 20 22  1  0  0  0  0
M  END
$$$$
default_name
  -OEChem-02102213163D

 25 24  0     1  0  0  0  0  0999 V2000
   -2.7826   -3.8464    0.7821 H   0  0  0  0  0  0  0  0  0  0  0  0
   -2.8156   -2.8034    0.4711 C   0  0  0  0  0  0  0  0  0  0  0  0
   -3.4336   -2.2354    1.1641 H   0  0  0  0  0  0  0  0  0  0  0  0
   -3.2256   -2.7344   -0.5349 H   0  0  0  0  0  0  0  0  0  0  0  0
   -1.4126   -2.2444    0.4801 C   0  0  0  0  0  0  0  0  0  0  0  0
   -0.4686   -2.9534    0.8001 O   0  0  0  0  0  0  0  0  0  0  0  0
   -1.2736   -0.9704    0.1241 N   0  0  0  0  0  0  0  0  0  0  0  0
   -2.0996   -0.4354   -0.1019 H   0  0  0  0  0  0  0  0  0  0  0  0
   -0.0016   -0.2394    0.1271 C   0  0  1  0  0  0  0  0  0  0  0  0
    0.6995   -0.7619   -0.5275 H   0  0  0  0  0  0  0  0  0  0  0  0
   -0.2283    1.1832   -0.4215 C   0  0  0  0  0  0  0  0  0  0  0  0
   -0.7381    1.7856    0.3314 H   0  0  0  0  0  0  0  0  0  0  0  0
    0.7331    1.6531   -0.6319 H   0  0  0  0  0  0  0  0  0  0  0  0
   -1.0903    1.2182   -1.6799 C   0  0  0  0  0  0  0  0  0  0  0  0
   -0.7257    0.8944   -2.8026 O   0  0  0  0  0  0  0  0  0  0  0  0
   -2.3487    1.6568   -1.4901 O   0  0  0  0  0  0  0  0  0  0  0  0
   -2.7755    1.6083   -2.3461 H   0  0  0  0  0  0  0  0  0  0  0  0
    0.5920   -0.2154    1.5497 C   0  0  0  0  0  0  0  0  0  0  0  0
    1.7860   -0.4596    1.7183 O   0  0  0  0  0  0  0  0  0  0  0  0
   -0.2294    0.0669    2.5672 N   0  0  0  0  0  0  0  0  0  0  0  0
   -1.2130    0.1938    2.3518 H   0  0  0  0  0  0  0  0  0  0  0  0
    0.1836    0.1337    3.9673 C   0  0  0  0  0  0  0  0  0  0  0  0
    1.0451    0.7976    4.0666 H   0  0  0  0  0  0  0  0  0  0  0  0
   -0.6344    0.5115    4.5820 H   0  0  0  0  0  0  0  0  0  0  0  0
    0.4676   -0.8609    4.3157 H   0  0  0  0  0  0  0  0  0  0  0  0
  5  6  2  0  0  0  0
  5  7  1  0  0  0  0
  2  3  1  0  0  0  0
  2  4  1  0  0  0  0
  2  5  1  0  0  0  0
  1  2  1  0  0  0  0
 18 19  2  0  0  0  0
 18 20  1  0  0  0  0
 16 17  1  0  0  0  0
 14 15  2  0  0  0  0
 14 16  1  0  0  0  0
 11 12  1  0  0  0  0
 11 13  1  0  0  0  0
 11 14  1  0  0  0  0
  9 10  1  0  0  0  0
  9 11  1  0  0  0  0
  9 18  1  0  0  0  0
  7  8  1  0  0  0  0
  7  9  1  0  0  0  0
 22 23  1  0  0  0  0
 22 24  1  0  0  0  0
 22 25  1  0  0  0  0
 20 21  1  0  0  0  0
 20 22  1  0  0  0  0
M  END
$$$$
default_name
  -OEChem-02102213163D

 25 24  0     1  0  0  0  0  0999 V2000
   -2.7826   -3.8464    0.7821 H   0  0  0  0  0  0  0  0  0  0  0  0
   -2.8156   -2.8034    0.4711 C   0  0  0  0  0  0  0  0  0  0  0  0
   -3.4336   -2.2354    1.1641 H   0  0  0  0  0  0  0  0  0  0  0  0
   -3.2256   -2.7344   -0.5349 H   0  0  0  0  0  0  0  0  0  0  0  0
   -1.4126   -2.2444    0.4801 C   0  0  0  0  0  0  0  0  0  0  0  0
   -0.4686   -2.9534    0.8001 O   0  0  0  0  0  0  0  0  0  0  0  0
   -1.2736   -0.9704    0.1241 N   0  0  0  0  0  0  0  0  0  0  0  0
   -2.0996   -0.4354   -0.1019 H   0  0  0  0  0  0  0  0  0  0  0  0
   -0.0016   -0.2394    0.1271 C   0  0  1  0  0  0  0  0  0  0  0  0
    0.6995   -0.7619   -0.5275 H   0  0  0  0  0  0  0  0  0  0  0  0
   -0.2283    1.1832   -0.4215 C   0  0  0  0  0  0  0  0  0  0  0  0
   -0.7381    1.7856    0.3314 H   0  0  0  0  0  0  0  0  0  0  0  0
    0.7331    1.6531   -0.6319 H   0  0  0  0  0  0  0  0  0  0  0  0
   -1.0903    1.2182   -1.6799 C   0  0  0  0  0  0  0  0  0  0  0  0
   -0.8277    0.6640   -2.7392 O   0  0  0  0  0  0  0  0  0  0  0  0
   -2.2220    1.9387   -1.5691 O   0  0  0  0  0  0  0  0  0  0  0  0
   -2.6678    1.8585   -2.4129 H   0  0  0  0  0  0  0  0  0  0  0  0
    0.5920   -0.2154    1.5497 C   0  0  0  0  0  0  0  0  0  0  0  0
    1.7860   -0.4596    1.7183 O   0  0  0  0  0  0  0  0  0  0  0  0
   -0.2294    0.0669    2.5672 N   0  0  0  0  0  0  0  0  0  0  0  0
   -1.2130    0.1938    2.3518 H   0  0  0  0  0  0  0  0  0  0  0  0
    0.1836    0.1337    3.9673 C   0  0  0  0  0  0  0  0  0  0  0  0
    1.0451    0.7976    4.0666 H   0  0  0  0  0  0  0  0  0  0  0  0
   -0.6344    0.5115    4.5820 H   0  0  0  0  0  0  0  0  0  0  0  0
    0.4676   -0.8609    4.3157 H   0  0  0  0  0  0  0  0  0  0  0  0
  5  6  2  0  0  0  0
  5  7  1  0  0  0  0
  2  3  1  0  0  0  0
  2  4  1  0  0  0  0
  2  5  1  0  0  0  0
  1  2  1  0  0  0  0
 18 19  2  0  0  0  0
 18 20  1  0  0  0  0
 16 17  1  0  0  0  0
 14 15  2  0  0  0  0
 14 16  1  0  0  0  0
 11 12  1  0  0  0  0
 11 13  1  0  0  0  0
 11 14  1  0  0  0  0
  9 10  1  0  0  0  0
  9 11  1  0  0  0  0
  9 18  1  0  0  0  0
  7  8  1  0  0  0  0
  7  9  1  0  0  0  0
 22 23  1  0  0  0  0
 22 24  1  0  0  0  0
 22 25  1  0  0  0  0
 20 21  1  0  0  0  0
 20 22  1  0  0  0  0
M  END
$$$$
default_name
  -OEChem-02102213163D

 25 24  0     1  0  0  0  0  0999 V2000
   -2.7826   -3.8464    0.7821 H   0  0  0  0  0  0  0  0  0  0  0  0
   -2.8156   -2.8034    0.4711 C   0  0  0  0  0  0  0  0  0  0  0  0
   -3.4336   -2.2354    1.1641 H   0  0  0  0  0  0  0  0  0  0  0  0
   -3.2256   -2.7344   -0.5349 H   0  0  0  0  0  0  0  0  0  0  0  0
   -1.4126   -2.2444    0.4801 C   0  0  0  0  0  0  0  0  0  0  0  0
   -0.4686   -2.9534    0.8001 O   0  0  0  0  0  0  0  0  0  0  0  0
   -1.2736   -0.9704    0.1241 N   0  0  0  0  0  0  0  0  0  0  0  0
   -2.0996   -0.4354   -0.1019 H   0  0  0  0  0  0  0  0  0  0  0  0
   -0.0016   -0.2394    0.1271 C   0  0  1  0  0  0  0  0  0  0  0  0
    0.6995   -0.7619   -0.5275 H   0  0  0  0  0  0  0  0  0  0  0  0
   -0.2283    1.1832   -0.4215 C   0  0  0  0  0  0  0  0  0  0  0  0
   -0.7381    1.7856    0.3314 H   0  0  0  0  0  0  0  0  0  0  0  0
    0.7331    1.6531   -0.6319 H   0  0  0  0  0  0  0  0  0  0  0  0
   -1.0903    1.2182   -1.6799 C   0  0  0  0  0  0  0  0  0  0  0  0
   -0.9749    0.4725   -2.6436 O   0  0  0  0  0  0  0  0  0  0  0  0
   -2.0398    2.1723   -1.6873 O   0  0  0  0  0  0  0  0  0  0  0  0
   -2.5108    2.0675   -2.5146 H   0  0  0  0  0  0  0  0  0  0  0  0
    0.5920   -0.2154    1.5497 C   0  0  0  0  0  0  0  0  0  0  0  0
    1.7860   -0.4596    1.7183 O   0  0  0  0  0  0  0  0  0  0  0  0
   -0.2294    0.0669    2.5672 N   0  0  0  0  0  0  0  0  0  0  0  0
   -1.2130    0.1938    2.3518 H   0  0  0  0  0  0  0  0  0  0  0  0
    0.1836    0.1337    3.9673 C   0  0  0  0  0  0  0  0  0  0  0  0
    1.0451    0.7976    4.0666 H   0  0  0  0  0  0  0  0  0  0  0  0
   -0.6344    0.5115    4.5820 H   0  0  0  0  0  0  0  0  0  0  0  0
    0.4676   -0.8609    4.3157 H   0  0  0  0  0  0  0  0  0  0  0  0
  5  6  2  0  0  0  0
  5  7  1  0  0  0  0
  2  3  1  0  0  0  0
  2  4  1  0  0  0  0
  2  5  1  0  0  0  0
  1  2  1  0  0  0  0
 18 19  2  0  0  0  0
 18 20  1  0  0  0  0
 16 17  1  0  0  0  0
 14 15  2  0  0  0  0
 14 16  1  0  0  0  0
 11 12  1  0  0  0  0
 11 13  1  0  0  0  0
 11 14  1  0  0  0  0
  9 10  1  0  0  0  0
  9 11  1  0  0  0  0
  9 18  1  0  0  0  0
  7  8  1  0  0  0  0
  7  9  1  0  0  0  0
 22 23  1  0  0  0  0
 22 24  1  0  0  0  0
 22 25  1  0  0  0  0
 20 21  1  0  0  0  0
 20 22  1  0  0  0  0
M  END
$$$$
default_name
  -OEChem-02102213163D

 25 24  0     1  0  0  0  0  0999 V2000
   -2.7826   -3.8464    0.7821 H   0  0  0  0  0  0  0  0  0  0  0  0
   -2.8156   -2.8034    0.4711 C   0  0  0  0  0  0  0  0  0  0  0  0
   -3.4336   -2.2354    1.1641 H   0  0  0  0  0  0  0  0  0  0  0  0
   -3.2256   -2.7344   -0.5349 H   0  0  0  0  0  0  0  0  0  0  0  0
   -1.4126   -2.2444    0.4801 C   0  0  0  0  0  0  0  0  0  0  0  0
   -0.4686   -2.9534    0.8001 O   0  0  0  0  0  0  0  0  0  0  0  0
   -1.2736   -0.9704    0.1241 N   0  0  0  0  0  0  0  0  0  0  0  0
   -2.0996   -0.4354   -0.1019 H   0  0  0  0  0  0  0  0  0  0  0  0
   -0.0016   -0.2394    0.1271 C   0  0  1  0  0  0  0  0  0  0  0  0
    0.6995   -0.7619   -0.5275 H   0  0  0  0  0  0  0  0  0  0  0  0
   -0.2283    1.1832   -0.4215 C   0  0  0  0  0  0  0  0  0  0  0  0
   -0.7381    1.7856    0.3314 H   0  0  0  0  0  0  0  0  0  0  0  0
    0.7331    1.6531   -0.6319 H   0  0  0  0  0  0  0  0  0  0  0  0
   -1.0903    1.2182   -1.6799 C   0  0  0  0  0  0  0  0  0  0  0  0
   -1.1575    0.3329   -2.5224 O   0  0  0  0  0  0  0  0  0  0  0  0
   -1.8147    2.3419   -1.8368 O   0  0  0  0  0  0  0  0  0  0  0  0
   -2.3152    2.2209   -2.6444 H   0  0  0  0  0  0  0  0  0  0  0  0
    0.5920   -0.2154    1.5497 C   0  0  0  0  0  0  0  0  0  0  0  0
    1.7860   -0.4596    1.7183 O   0  0  0  0  0  0  0  0  0  0  0  0
   -0.2294    0.0669    2.5672 N   0  0  0  0  0  0  0  0  0  0  0  0
   -1.2130    0.1938    2.3518 H   0  0  0  0  0  0  0  0  0  0  0  0
    0.1836    0.1337    3.9673 C   0  0  0  0  0  0  0  0  0  0  0  0
    1.0451    0.7976    4.0666 H   0  0  0  0  0  0  0  0  0  0  0  0
   -0.6344    0.5115    4.5820 H   0  0  0  0  0  0  0  0  0  0  0  0
    0.4676   -0.8609    4.3157 H   0  0  0  0  0  0  0  0  0  0  0  0
  5  6  2  0  0  0  0
  5  7  1  0  0  0  0
  2  3  1  0  0  0  0
  2  4  1  0  0  0  0
  2  5  1  0  0  0  0
  1  2  1  0  0  0  0
 18 19  2  0  0  0  0
 18 20  1  0  0  0  0
 16 17  1  0  0  0  0
 14 15  2  0  0  0  0
 14 16  1  0  0  0  0
 11 12  1  0  0  0  0
 11 13  1  0  0  0  0
 11 14  1  0  0  0  0
  9 10  1  0  0  0  0
  9 11  1  0  0  0  0
  9 18  1  0  0  0  0
  7  8  1  0  0  0  0
  7  9  1  0  0  0  0
 22 23  1  0  0  0  0
 22 24  1  0  0  0  0
 22 25  1  0  0  0  0
 20 21  1  0  0  0  0
 20 22  1  0  0  0  0
M  END
$$$$
default_name
  -OEChem-02102213163D

 25 24  0     1  0  0  0  0  0999 V2000
   -2.7826   -3.8464    0.7821 H   0  0  0  0  0  0  0  0  0  0  0  0
   -2.8156   -2.8034    0.4711 C   0  0  0  0  0  0  0  0  0  0  0  0
   -3.4336   -2.2354    1.1641 H   0  0  0  0  0  0  0  0  0  0  0  0
   -3.2256   -2.7344   -0.5349 H   0  0  0  0  0  0  0  0  0  0  0  0
   -1.4126   -2.2444    0.4801 C   0  0  0  0  0  0  0  0  0  0  0  0
   -0.4686   -2.9534    0.8001 O   0  0  0  0  0  0  0  0  0  0  0  0
   -1.2736   -0.9704    0.1241 N   0  0  0  0  0  0  0  0  0  0  0  0
   -2.0996   -0.4354   -0.1019 H   0  0  0  0  0  0  0  0  0  0  0  0
   -0.0016   -0.2394    0.1271 C   0  0  1  0  0  0  0  0  0  0  0  0
    0.6995   -0.7619   -0.5275 H   0  0  0  0  0  0  0  0  0  0  0  0
   -0.2283    1.1832   -0.4215 C   0  0  0  0  0  0  0  0  0  0  0  0
   -0.7381    1.7856    0.3314 H   0  0  0  0  0  0  0  0  0  0  0  0
    0.7331    1.6531   -0.6319 H   0  0  0  0  0  0  0  0  0  0  0  0
   -1.0903    1.2182   -1.6799 C   0  0  0  0  0  0  0  0  0  0  0  0
   -1.3629    0.2547   -2.3839 O   0  0  0  0  0  0  0  0  0  0  0  0
   -1.5620    2.4357   -2.0073 O   0  0  0  0  0  0  0  0  0  0  0  0
   -2.0942    2.3083   -2.7933 H   0  0  0  0  0  0  0  0  0  0  0  0
    0.5920   -0.2154    1.5497 C   0  0  0  0  0  0  0  0  0  0  0  0
    1.7860   -0.4596    1.7183 O   0  0  0  0  0  0  0  0  0  0  0  0
   -0.2294    0.0669    2.5672 N   0  0  0  0  0  0  0  0  0  0  0  0
   -1.2130    0.1938    2.3518 H   0  0  0  0  0  0  0  0  0  0  0  0
    0.1836    0.1337    3.9673 C   0  0  0  0  0  0  0  0  0  0  0  0
    1.0451    0.7976    4.0666 H   0  0  0  0  0  0  0  0  0  0  0  0
   -0.6344    0.5115    4.5820 H   0  0  0  0  0  0  0  0  0  0  0  0
    0.4676   -0.8609    4.3157 H   0  0  0  0  0  0  0  0  0  0  0  0
  5  6  2  0  0  0  0
  5  7  1  0  0  0  0
  2  3  1  0  0  0  0
  2  4  1  0  0  0  0
  2  5  1  0  0  0  0
  1  2  1  0  0  0  0
 18 19  2  0  0  0  0
 18 20  1  0  0  0  0
 16 17  1  0  0  0  0
 14 15  2  0  0  0  0
 14 16  1  0  0  0  0
 11 12  1  0  0  0  0
 11 13  1  0  0  0  0
 11 14  1  0  0  0  0
  9 10  1  0  0  0  0
  9 11  1  0  0  0  0
  9 18  1  0  0  0  0
  7  8  1  0  0  0  0
  7  9  1  0  0  0  0
 22 23  1  0  0  0  0
 22 24  1  0  0  0  0
 22 25  1  0  0  0  0
 20 21  1  0  0  0  0
 20 22  1  0  0  0  0
M  END
$$$$
default_name
  -OEChem-02102213163D

 25 24  0     1  0  0  0  0  0999 V2000
   -2.7826   -3.8464    0.7821 H   0  0  0  0  0  0  0  0  0  0  0  0
   -2.8156   -2.8034    0.4711 C   0  0  0  0  0  0  0  0  0  0  0  0
   -3.4336   -2.2354    1.1641 H   0  0  0  0  0  0  0  0  0  0  0  0
   -3.2256   -2.7344   -0.5349 H   0  0  0  0  0  0  0  0  0  0  0  0
   -1.4126   -2.2444    0.4801 C   0  0  0  0  0  0  0  0  0  0  0  0
   -0.4686   -2.9534    0.8001 O   0  0  0  0  0  0  0  0  0  0  0  0
   -1.2736   -0.9704    0.1241 N   0  0  0  0  0  0  0  0  0  0  0  0
   -2.0996   -0.4354   -0.1019 H   0  0  0  0  0  0  0  0  0  0  0  0
   -0.0016   -0.2394    0.1271 C   0  0  1  0  0  0  0  0  0  0  0  0
    0.6995   -0.7619   -0.5275 H   0  0  0  0  0  0  0  0  0  0  0  0
   -0.2283    1.1832   -0.4215 C   0  0  0  0  0  0  0  0  0  0  0  0
   -0.7381    1.7856    0.3314 H   0  0  0  0  0  0  0  0  0  0  0  0
    0.7331    1.6531   -0.6319 H   0  0  0  0  0  0  0  0  0  0  0  0
   -1.0903    1.2182   -1.6799 C   0  0  0  0  0  0  0  0  0  0  0  0
   -1.5772    0.2434   -2.2374 O   0  0  0  0  0  0  0  0  0  0  0  0
   -1.2988    2.4475   -2.1873 O   0  0  0  0  0  0  0  0  0  0  0  0
   -1.8630    2.3238   -2.9512 H   0  0  0  0  0  0  0  0  0  0  0  0
    0.5920   -0.2154    1.5497 C   0  0  0  0  0  0  0  0  0  0  0  0
    1.7860   -0.4596    1.7183 O   0  0  0  0  0  0  0  0  0  0  0  0
   -0.2294    0.0669    2.5672 N   0  0  0  0  0  0  0  0  0  0  0  0
   -1.2130    0.1938    2.3518 H   0  0  0  0  0  0  0  0  0  0  0  0
    0.1836    0.1337    3.9673 C   0  0  0  0  0  0  0  0  0  0  0  0
    1.0451    0.7976    4.0666 H   0  0  0  0  0  0  0  0  0  0  0  0
   -0.6344    0.5115    4.5820 H   0  0  0  0  0  0  0  0  0  0  0  0
    0.4676   -0.8609    4.3157 H   0  0  0  0  0  0  0  0  0  0  0  0
  5  6  2  0  0  0  0
  5  7  1  0  0  0  0
  2  3  1  0  0  0  0
  2  4  1  0  0  0  0
  2  5  1  0  0  0  0
  1  2  1  0  0  0  0
 18 19  2  0  0  0  0
 18 20  1  0  0  0  0
 16 17  1  0  0  0  0
 14 15  2  0  0  0  0
 14 16  1  0  0  0  0
 11 12  1  0  0  0  0
 11 13  1  0  0  0  0
 11 14  1  0  0  0  0
  9 10  1  0  0  0  0
  9 11  1  0  0  0  0
  9 18  1  0  0  0  0
  7  8  1  0  0  0  0
  7  9  1  0  0  0  0
 22 23  1  0  0  0  0
 22 24  1  0  0  0  0
 22 25  1  0  0  0  0
 20 21  1  0  0  0  0
 20 22  1  0  0  0  0
M  END
$$$$
default_name
  -OEChem-02102213163D

 25 24  0     1  0  0  0  0  0999 V2000
   -2.7826   -3.8464    0.7821 H   0  0  0  0  0  0  0  0  0  0  0  0
   -2.8156   -2.8034    0.4711 C   0  0  0  0  0  0  0  0  0  0  0  0
   -3.4336   -2.2354    1.1641 H   0  0  0  0  0  0  0  0  0  0  0  0
   -3.2256   -2.7344   -0.5349 H   0  0  0  0  0  0  0  0  0  0  0  0
   -1.4126   -2.2444    0.4801 C   0  0  0  0  0  0  0  0  0  0  0  0
   -0.4686   -2.9534    0.8001 O   0  0  0  0  0  0  0  0  0  0  0  0
   -1.2736   -0.9704    0.1241 N   0  0  0  0  0  0  0  0  0  0  0  0
   -2.0996   -0.4354   -0.1019 H   0  0  0  0  0  0  0  0  0  0  0  0
   -0.0016   -0.2394    0.1271 C   0  0  1  0  0  0  0  0  0  0  0  0
    0.6995   -0.7619   -0.5275 H   0  0  0  0  0  0  0  0  0  0  0  0
   -0.2283    1.1832   -0.4215 C   0  0  0  0  0  0  0  0  0  0  0  0
   -0.7381    1.7856    0.3314 H   0  0  0  0  0  0  0  0  0  0  0  0
    0.7331    1.6531   -0.6319 H   0  0  0  0  0  0  0  0  0  0  0  0
   -1.0903    1.2182   -1.6799 C   0  0  0  0  0  0  0  0  0  0  0  0
   -1.7858    0.2995   -2.0930 O   0  0  0  0  0  0  0  0  0  0  0  0
   -1.0432    2.3763   -2.3644 O   0  0  0  0  0  0  0  0  0  0  0  0
   -1.6373    2.2664   -3.1075 H   0  0  0  0  0  0  0  0  0  0  0  0
    0.5920   -0.2154    1.5497 C   0  0  0  0  0  0  0  0  0  0  0  0
    1.7860   -0.4596    1.7183 O   0  0  0  0  0  0  0  0  0  0  0  0
   -0.2294    0.0669    2.5672 N   0  0  0  0  0  0  0  0  0  0  0  0
   -1.2130    0.1938    2.3518 H   0  0  0  0  0  0  0  0  0  0  0  0
    0.1836    0.1337    3.9673 C   0  0  0  0  0  0  0  0  0  0  0  0
    1.0451    0.7976    4.0666 H   0  0  0  0  0  0  0  0  0  0  0  0
   -0.6344    0.5115    4.5820 H   0  0  0  0  0  0  0  0  0  0  0  0
    0.4676   -0.8609    4.3157 H   0  0  0  0  0  0  0  0  0  0  0  0
  5  6  2  0  0  0  0
  5  7  1  0  0  0  0
  2  3  1  0  0  0  0
  2  4  1  0  0  0  0
  2  5  1  0  0  0  0
  1  2  1  0  0  0  0
 18 19  2  0  0  0  0
 18 20  1  0  0  0  0
 16 17  1  0  0  0  0
 14 15  2  0  0  0  0
 14 16  1  0  0  0  0
 11 12  1  0  0  0  0
 11 13  1  0  0  0  0
 11 14  1  0  0  0  0
  9 10  1  0  0  0  0
  9 11  1  0  0  0  0
  9 18  1  0  0  0  0
  7  8  1  0  0  0  0
  7  9  1  0  0  0  0
 22 23  1  0  0  0  0
 22 24  1  0  0  0  0
 22 25  1  0  0  0  0
 20 21  1  0  0  0  0
 20 22  1  0  0  0  0
M  END
$$$$
default_name
  -OEChem-02102213163D

 25 24  0     1  0  0  0  0  0999 V2000
   -2.7826   -3.8464    0.7821 H   0  0  0  0  0  0  0  0  0  0  0  0
   -2.8156   -2.8034    0.4711 C   0  0  0  0  0  0  0  0  0  0  0  0
   -3.4336   -2.2354    1.1641 H   0  0  0  0  0  0  0  0  0  0  0  0
   -3.2256   -2.7344   -0.5349 H   0  0  0  0  0  0  0  0  0  0  0  0
   -1.4126   -2.2444    0.4801 C   0  0  0  0  0  0  0  0  0  0  0  0
   -0.4686   -2.9534    0.8001 O   0  0  0  0  0  0  0  0  0  0  0  0
   -1.2736   -0.9704    0.1241 N   0  0  0  0  0  0  0  0  0  0  0  0
   -2.0996   -0.4354   -0.1019 H   0  0  0  0  0  0  0  0  0  0  0  0
   -0.0016   -0.2394    0.1271 C   0  0  1  0  0  0  0  0  0  0  0  0
    0.6995   -0.7619   -0.5275 H   0  0  0  0  0  0  0  0  0  0  0  0
   -0.2283    1.1832   -0.4215 C   0  0  0  0  0  0  0  0  0  0  0  0
   -0.7381    1.7856    0.3314 H   0  0  0  0  0  0  0  0  0  0  0  0
    0.7331    1.6531   -0.6319 H   0  0  0  0  0  0  0  0  0  0  0  0
   -1.0903    1.2182   -1.6799 C   0  0  0  0  0  0  0  0  0  0  0  0
   -1.9744    0.4194   -1.9604 O   0  0  0  0  0  0  0  0  0  0  0  0
   -0.8125    2.2272   -2.5266 O   0  0  0  0  0  0  0  0  0  0  0  0
   -1.4325    2.1398   -3.2513 H   0  0  0  0  0  0  0  0  0  0  0  0
    0.5920   -0.2154    1.5497 C   0  0  0  0  0  0  0  0  0  0  0  0
    1.7860   -0.4596    1.7183 O   0  0  0  0  0  0  0  0  0  0  0  0
   -0.2294    0.0669    2.5672 N   0  0  0  0  0  0  0  0  0  0  0  0
   -1.2130    0.1938    2.3518 H   0  0  0  0  0  0  0  0  0  0  0  0
    0.1836    0.1337    3.9673 C   0  0  0  0  0  0  0  0  0  0  0  0
    1.0451    0.7976    4.0666 H   0  0  0  0  0  0  0  0  0  0  0  0
   -0.6344    0.5115    4.5820 H   0  0  0  0  0  0  0  0  0  0  0  0
    0.4676   -0.8609    4.3157 H   0  0  0  0  0  0  0  0  0  0  0  0
  5  6  2  0  0  0  0
  5  7  1  0  0  0  0
  2  3  1  0  0  0  0
  2  4  1  0  0  0  0
  2  5  1  0  0  0  0
  1  2  1  0  0  0  0
 18 19  2  0  0  0  0
 18 20  1  0  0  0  0
 16 17  1  0  0  0  0
 14 15  2  0  0  0  0
 14 16  1  0  0  0  0
 11 12  1  0  0  0  0
 11 13  1  0  0  0  0
 11 14  1  0  0  0  0
  9 10  1  0  0  0  0
  9 11  1  0  0  0  0
  9 18  1  0  0  0  0
  7  8  1  0  0  0  0
  7  9  1  0  0  0  0
 22 23  1  0  0  0  0
 22 24  1  0  0  0  0
 22 25  1  0  0  0  0
 20 21  1  0  0  0  0
 20 22  1  0  0  0  0
M  END
$$$$
default_name
  -OEChem-02102213163D

 25 24  0     1  0  0  0  0  0999 V2000
   -2.7826   -3.8464    0.7821 H   0  0  0  0  0  0  0  0  0  0  0  0
   -2.8156   -2.8034    0.4711 C   0  0  0  0  0  0  0  0  0  0  0  0
   -3.4336   -2.2354    1.1641 H   0  0  0  0  0  0  0  0  0  0  0  0
   -3.2256   -2.7344   -0.5349 H   0  0  0  0  0  0  0  0  0  0  0  0
   -1.4126   -2.2444    0.4801 C   0  0  0  0  0  0  0  0  0  0  0  0
   -0.4686   -2.9534    0.8001 O   0  0  0  0  0  0  0  0  0  0  0  0
   -1.2736   -0.9704    0.1241 N   0  0  0  0  0  0  0  0  0  0  0  0
   -2.0996   -0.4354   -0.1019 H   0  0  0  0  0  0  0  0  0  0  0  0
   -0.0016   -0.2394    0.1271 C   0  0  1  0  0  0  0  0  0  0  0  0
    0.6995   -0.7619   -0.5275 H   0  0  0  0  0  0  0  0  0  0  0  0
   -0.2283    1.1832   -0.4215 C   0  0  0  0  0  0  0  0  0  0  0  0
   -0.7381    1.7856    0.3314 H   0  0  0  0  0  0  0  0  0  0  0  0
    0.7331    1.6531   -0.6319 H   0  0  0  0  0  0  0  0  0  0  0  0
   -1.0903    1.2182   -1.6799 C   0  0  0  0  0  0  0  0  0  0  0  0
   -2.1301    0.5949   -1.8489 O   0  0  0  0  0  0  0  0  0  0  0  0
   -0.6225    2.0101   -2.6628 O   0  0  0  0  0  0  0  0  0  0  0  0
   -1.2625    1.9529   -3.3729 H   0  0  0  0  0  0  0  0  0  0  0  0
    0.5920   -0.2154    1.5497 C   0  0  0  0  0  0  0  0  0  0  0  0
    1.7860   -0.4596    1.7183 O   0  0  0  0  0  0  0  0  0  0  0  0
   -0.2294    0.0669    2.5672 N   0  0  0  0  0  0  0  0  0  0  0  0
   -1.2130    0.1938    2.3518 H   0  0  0  0  0  0  0  0  0  0  0  0
    0.1836    0.1337    3.9673 C   0  0  0  0  0  0  0  0  0  0  0  0
    1.0451    0.7976    4.0666 H   0  0  0  0  0  0  0  0  0  0  0  0
   -0.6344    0.5115    4.5820 H   0  0  0  0  0  0  0  0  0  0  0  0
    0.4676   -0.8609    4.3157 H   0  0  0  0  0  0  0  0  0  0  0  0
  5  6  2  0  0  0  0
  5  7  1  0  0  0  0
  2  3  1  0  0  0  0
  2  4  1  0  0  0  0
  2  5  1  0  0  0  0
  1  2  1  0  0  0  0
 18 19  2  0  0  0  0
 18 20  1  0  0  0  0
 16 17  1  0  0  0  0
 14 15  2  0  0  0  0
 14 16  1  0  0  0  0
 11 12  1  0  0  0  0
 11 13  1  0  0  0  0
 11 14  1  0  0  0  0
  9 10  1  0  0  0  0
  9 11  1  0  0  0  0
  9 18  1  0  0  0  0
  7  8  1  0  0  0  0
  7  9  1  0  0  0  0
 22 23  1  0  0  0  0
 22 24  1  0  0  0  0
 22 25  1  0  0  0  0
 20 21  1  0  0  0  0
 20 22  1  0  0  0  0
M  END
$$$$
default_name
  -OEChem-02102213163D

 25 24  0     1  0  0  0  0  0999 V2000
   -2.7826   -3.8464    0.7821 H   0  0  0  0  0  0  0  0  0  0  0  0
   -2.8156   -2.8034    0.4711 C   0  0  0  0  0  0  0  0  0  0  0  0
   -3.4336   -2.2354    1.1641 H   0  0  0  0  0  0  0  0  0  0  0  0
   -3.2256   -2.7344   -0.5349 H   0  0  0  0  0  0  0  0  0  0  0  0
   -1.4126   -2.2444    0.4801 C   0  0  0  0  0  0  0  0  0  0  0  0
   -0.4686   -2.9534    0.8001 O   0  0  0  0  0  0  0  0  0  0  0  0
   -1.2736   -0.9704    0.1241 N   0  0  0  0  0  0  0  0  0  0  0  0
   -2.0996   -0.4354   -0.1019 H   0  0  0  0  0  0  0  0  0  0  0  0
   -0.0016   -0.2394    0.1271 C   0  0  1  0  0  0  0  0  0  0  0  0
    0.6995   -0.7619   -0.5275 H   0  0  0  0  0  0  0  0  0  0  0  0
   -0.2283    1.1832   -0.4215 C   0  0  0  0  0  0  0  0  0  0  0  0
   -0.7381    1.7856    0.3314 H   0  0  0  0  0  0  0  0  0  0  0  0
    0.7331    1.6531   -0.6319 H   0  0  0  0  0  0  0  0  0  0  0  0
   -1.0903    1.2182   -1.6799 C   0  0  0  0  0  0  0  0  0  0  0  0
   -2.2425    0.8140   -1.7658 O   0  0  0  0  0  0  0  0  0  0  0  0
   -0.4861    1.7400   -2.7637 O   0  0  0  0  0  0  0  0  0  0  0  0
   -1.1390    1.7182   -3.4641 H   0  0  0  0  0  0  0  0  0  0  0  0
    0.5920   -0.2154    1.5497 C   0  0  0  0  0  0  0  0  0  0  0  0
    1.7860   -0.4596    1.7183 O   0  0  0  0  0  0  0  0  0  0  0  0
   -0.2294    0.0669    2.5672 N   0  0  0  0  0  0  0  0  0  0  0  0
   -1.2130    0.1938    2.3518 H   0  0  0  0  0  0  0  0  0  0  0  0
    0.1836    0.1337    3.9673 C   0  0  0  0  0  0  0  0  0  0  0  0
    1.0451    0.7976    4.0666 H   0  0  0  0  0  0  0  0  0  0  0  0
   -0.6344    0.5115    4.5820 H   0  0  0  0  0  0  0  0  0  0  0  0
    0.4676   -0.8609    4.3157 H   0  0  0  0  0  0  0  0  0  0  0  0
  5  6  2  0  0  0  0
  5  7  1  0  0  0  0
  2  3  1  0  0  0  0
  2  4  1  0  0  0  0
  2  5  1  0  0  0  0
  1  2  1  0  0  0  0
 18 19  2  0  0  0  0
 18 20  1  0  0  0  0
 16 17  1  0  0  0  0
 14 15  2  0  0  0  0
 14 16  1  0  0  0  0
 11 12  1  0  0  0  0
 11 13  1  0  0  0  0
 11 14  1  0  0  0  0
  9 10  1  0  0  0  0
  9 11  1  0  0  0  0
  9 18  1  0  0  0  0
  7  8  1  0  0  0  0
  7  9  1  0  0  0  0
 22 23  1  0  0  0  0
 22 24  1  0  0  0  0
 22 25  1  0  0  0  0
 20 21  1  0  0  0  0
 20 22  1  0  0  0  0
M  END
$$$$
default_name
  -OEChem-02102213163D

 25 24  0     1  0  0  0  0  0999 V2000
   -2.7826   -3.8464    0.7821 H   0  0  0  0  0  0  0  0  0  0  0  0
   -2.8156   -2.8034    0.4711 C   0  0  0  0  0  0  0  0  0  0  0  0
   -3.4336   -2.2354    1.1641 H   0  0  0  0  0  0  0  0  0  0  0  0
   -3.2256   -2.7344   -0.5349 H   0  0  0  0  0  0  0  0  0  0  0  0
   -1.4126   -2.2444    0.4801 C   0  0  0  0  0  0  0  0  0  0  0  0
   -0.4686   -2.9534    0.8001 O   0  0  0  0  0  0  0  0  0  0  0  0
   -1.2736   -0.9704    0.1241 N   0  0  0  0  0  0  0  0  0  0  0  0
   -2.0996   -0.4354   -0.1019 H   0  0  0  0  0  0  0  0  0  0  0  0
   -0.0016   -0.2394    0.1271 C   0  0  1  0  0  0  0  0  0  0  0  0
    0.6995   -0.7619   -0.5275 H   0  0  0  0  0  0  0  0  0  0  0  0
   -0.2283    1.1832   -0.4215 C   0  0  0  0  0  0  0  0  0  0  0  0
   -0.7381    1.7856    0.3314 H   0  0  0  0  0  0  0  0  0  0  0  0
    0.7331    1.6531   -0.6319 H   0  0  0  0  0  0  0  0  0  0  0  0
   -1.0903    1.2182   -1.6799 C   0  0  0  0  0  0  0  0  0  0  0  0
   -2.3037    1.0617   -1.7169 O   0  0  0  0  0  0  0  0  0  0  0  0
   -0.4127    1.4352   -2.8225 O   0  0  0  0  0  0  0  0  0  0  0  0
   -1.0703    1.4518   -3.5186 H   0  0  0  0  0  0  0  0  0  0  0  0
    0.5920   -0.2154    1.5497 C   0  0  0  0  0  0  0  0  0  0  0  0
    1.7860   -0.4596    1.7183 O   0  0  0  0  0  0  0  0  0  0  0  0
   -0.2294    0.0669    2.5672 N   0  0  0  0  0  0  0  0  0  0  0  0
   -1.2130    0.1938    2.3518 H   0  0  0  0  0  0  0  0  0  0  0  0
    0.1836    0.1337    3.9673 C   0  0  0  0  0  0  0  0  0  0  0  0
    1.0451    0.7976    4.0666 H   0  0  0  0  0  0  0  0  0  0  0  0
   -0.6344    0.5115    4.5820 H   0  0  0  0  0  0  0  0  0  0  0  0
    0.4676   -0.8609    4.3157 H   0  0  0  0  0  0  0  0  0  0  0  0
  5  6  2  0  0  0  0
  5  7  1  0  0  0  0
  2  3  1  0  0  0  0
  2  4  1  0  0  0  0
  2  5  1  0  0  0  0
  1  2  1  0  0  0  0
 18 19  2  0  0  0  0
 18 20  1  0  0  0  0
 16 17  1  0  0  0  0
 14 15  2  0  0  0  0
 14 16  1  0  0  0  0
 11 12  1  0  0  0  0
 11 13  1  0  0  0  0
 11 14  1  0  0  0  0
  9 10  1  0  0  0  0
  9 11  1  0  0  0  0
  9 18  1  0  0  0  0
  7  8  1  0  0  0  0
  7  9  1  0  0  0  0
 22 23  1  0  0  0  0
 22 24  1  0  0  0  0
 22 25  1  0  0  0  0
 20 21  1  0  0  0  0
 20 22  1  0  0  0  0
M  END
$$$$
default_name
  -OEChem-02102213163D

 25 24  0     1  0  0  0  0  0999 V2000
   -2.7826   -3.8464    0.7821 H   0  0  0  0  0  0  0  0  0  0  0  0
   -2.8156   -2.8034    0.4711 C   0  0  0  0  0  0  0  0  0  0  0  0
   -3.4336   -2.2354    1.1641 H   0  0  0  0  0  0  0  0  0  0  0  0
   -3.2256   -2.7344   -0.5349 H   0  0  0  0  0  0  0  0  0  0  0  0
   -1.4126   -2.2444    0.4801 C   0  0  0  0  0  0  0  0  0  0  0  0
   -0.4686   -2.9534    0.8001 O   0  0  0  0  0  0  0  0  0  0  0  0
   -1.2736   -0.9704    0.1241 N   0  0  0  0  0  0  0  0  0  0  0  0
   -2.0996   -0.4354   -0.1019 H   0  0  0  0  0  0  0  0  0  0  0  0
   -0.0016   -0.2394    0.1271 C   0  0  1  0  0  0  0  0  0  0  0  0
    0.6995   -0.7619   -0.5275 H   0  0  0  0  0  0  0  0  0  0  0  0
   -0.2283    1.1832   -0.4215 C   0  0  0  0  0  0  0  0  0  0  0  0
   -0.7381    1.7856    0.3314 H   0  0  0  0  0  0  0  0  0  0  0  0
    0.7331    1.6531   -0.6319 H   0  0  0  0  0  0  0  0  0  0  0  0
   -1.0903    1.2182   -1.6799 C   0  0  0  0  0  0  0  0  0  0  0  0
   -2.3098    1.3212   -1.7056 O   0  0  0  0  0  0  0  0  0  0  0  0
   -0.4071    1.1165   -2.8352 O   0  0  0  0  0  0  0  0  0  0  0  0
   -1.0611    1.1719   -3.5327 H   0  0  0  0  0  0  0  0  0  0  0  0
    0.5920   -0.2154    1.5497 C   0  0  0  0  0  0  0  0  0  0  0  0
    1.7860   -0.4596    1.7183 O   0  0  0  0  0  0  0  0  0  0  0  0
   -0.2294    0.0669    2.5672 N   0  0  0  0  0  0  0  0  0  0  0  0
   -1.2130    0.1938    2.3518 H   0  0  0  0  0  0  0  0  0  0  0  0
    0.1836    0.1337    3.9673 C   0  0  0  0  0  0  0  0  0  0  0  0
    1.0451    0.7976    4.0666 H   0  0  0  0  0  0  0  0  0  0  0  0
   -0.6344    0.5115    4.5820 H   0  0  0  0  0  0  0  0  0  0  0  0
    0.4676   -0.8609    4.3157 H   0  0  0  0  0  0  0  0  0  0  0  0
  5  6  2  0  0  0  0
  5  7  1  0  0  0  0
  2  3  1  0  0  0  0
  2  4  1  0  0  0  0
  2  5  1  0  0  0  0
  1  2  1  0  0  0  0
 18 19  2  0  0  0  0
 18 20  1  0  0  0  0
 16 17  1  0  0  0  0
 14 15  2  0  0  0  0
 14 16  1  0  0  0  0
 11 12  1  0  0  0  0
 11 13  1  0  0  0  0
 11 14  1  0  0  0  0
  9 10  1  0  0  0  0
  9 11  1  0  0  0  0
  9 18  1  0  0  0  0
  7  8  1  0  0  0  0
  7  9  1  0  0  0  0
 22 23  1  0  0  0  0
 22 24  1  0  0  0  0
 22 25  1  0  0  0  0
 20 21  1  0  0  0  0
 20 22  1  0  0  0  0
M  END
$$$$
default_name
  -OEChem-02102213163D

 25 24  0     1  0  0  0  0  0999 V2000
   -2.7826   -3.8464    0.7821 H   0  0  0  0  0  0  0  0  0  0  0  0
   -2.8156   -2.8034    0.4711 C   0  0  0  0  0  0  0  0  0  0  0  0
   -3.4336   -2.2354    1.1641 H   0  0  0  0  0  0  0  0  0  0  0  0
   -3.2256   -2.7344   -0.5349 H   0  0  0  0  0  0  0  0  0  0  0  0
   -1.4126   -2.2444    0.4801 C   0  0  0  0  0  0  0  0  0  0  0  0
   -0.4686   -2.9534    0.8001 O   0  0  0  0  0  0  0  0  0  0  0  0
   -1.2736   -0.9704    0.1241 N   0  0  0  0  0  0  0  0  0  0  0  0
   -2.0996   -0.4354   -0.1019 H   0  0  0  0  0  0  0  0  0  0  0  0
   -0.0016   -0.2394    0.1271 C   0  0  1  0  0  0  0  0  0  0  0  0
    0.6995   -0.7619   -0.5275 H   0  0  0  0  0  0  0  0  0  0  0  0
   -0.2283    1.1832   -0.4215 C   0  0  0  0  0  0  0  0  0  0  0  0
   -0.7381    1.7856    0.3314 H   0  0  0  0  0  0  0  0  0  0  0  0
    0.7331    1.6531   -0.6319 H   0  0  0  0  0  0  0  0  0  0  0  0
   -1.0903    1.2182   -1.6799 C   0  0  0  0  0  0  0  0  0  0  0  0
   -2.2601    1.5748   -1.7325 O   0  0  0  0  0  0  0  0  0  0  0  0
   -0.4698    0.8056   -2.8009 O   0  0  0  0  0  0  0  0  0  0  0  0
   -1.1121    0.8975   -3.5054 H   0  0  0  0  0  0  0  0  0  0  0  0
    0.5920   -0.2154    1.5497 C   0  0  0  0  0  0  0  0  0  0  0  0
    1.7860   -0.4596    1.7183 O   0  0  0  0  0  0  0  0  0  0  0  0
   -0.2294    0.0669    2.5672 N   0  0  0  0  0  0  0  0  0  0  0  0
   -1.2130    0.1938    2.3518 H   0  0  0  0  0  0  0  0  0  0  0  0
    0.1836    0.1337    3.9673 C   0  0  0  0  0  0  0  0  0  0  0  0
    1.0451    0.7976    4.0666 H   0  0  0  0  0  0  0  0  0  0  0  0
   -0.6344    0.5115    4.5820 H   0  0  0  0  0  0  0  0  0  0  0  0
    0.4676   -0.8609    4.3157 H   0  0  0  0  0  0  0  0  0  0  0  0
  5  6  2  0  0  0  0
  5  7  1  0  0  0  0
  2  3  1  0  0  0  0
  2  4  1  0  0  0  0
  2  5  1  0  0  0  0
  1  2  1  0  0  0  0
 18 19  2  0  0  0  0
 18 20  1  0  0  0  0
 16 17  1  0  0  0  0
 14 15  2  0  0  0  0
 14 16  1  0  0  0  0
 11 12  1  0  0  0  0
 11 13  1  0  0  0  0
 11 14  1  0  0  0  0
  9 10  1  0  0  0  0
  9 11  1  0  0  0  0
  9 18  1  0  0  0  0
  7  8  1  0  0  0  0
  7  9  1  0  0  0  0
 22 23  1  0  0  0  0
 22 24  1  0  0  0  0
 22 25  1  0  0  0  0
 20 21  1  0  0  0  0
 20 22  1  0  0  0  0
M  END
$$$$
default_name
  -OEChem-02102213163D

 25 24  0     1  0  0  0  0  0999 V2000
   -2.7826   -3.8464    0.7821 H   0  0  0  0  0  0  0  0  0  0  0  0
   -2.8156   -2.8034    0.4711 C   0  0  0  0  0  0  0  0  0  0  0  0
   -3.4336   -2.2354    1.1641 H   0  0  0  0  0  0  0  0  0  0  0  0
   -3.2256   -2.7344   -0.5349 H   0  0  0  0  0  0  0  0  0  0  0  0
   -1.4126   -2.2444    0.4801 C   0  0  0  0  0  0  0  0  0  0  0  0
   -0.4686   -2.9534    0.8001 O   0  0  0  0  0  0  0  0  0  0  0  0
   -1.2736   -0.9704    0.1241 N   0  0  0  0  0  0  0  0  0  0  0  0
   -2.0996   -0.4354   -0.1019 H   0  0  0  0  0  0  0  0  0  0  0  0
   -0.0016   -0.2394    0.1271 C   0  0  1  0  0  0  0  0  0  0  0  0
    0.6995   -0.7619   -0.5275 H   0  0  0  0  0  0  0  0  0  0  0  0
   -0.2283    1.1832   -0.4215 C   0  0  0  0  0  0  0  0  0  0  0  0
   -0.7381    1.7856    0.3314 H   0  0  0  0  0  0  0  0  0  0  0  0
    0.7331    1.6531   -0.6319 H   0  0  0  0  0  0  0  0  0  0  0  0
   -1.0903    1.2182   -1.6799 C   0  0  0  0  0  0  0  0  0  0  0  0
   -2.1582    1.8052   -1.7959 O   0  0  0  0  0  0  0  0  0  0  0  0
   -0.5966    0.5237   -2.7219 O   0  0  0  0  0  0  0  0  0  0  0  0
   -1.2198    0.6473   -3.4386 H   0  0  0  0  0  0  0  0  0  0  0  0
    0.5920   -0.2154    1.5497 C   0  0  0  0  0  0  0  0  0  0  0  0
    1.7860   -0.4596    1.7183 O   0  0  0  0  0  0  0  0  0  0  0  0
   -0.2294    0.0669    2.5672 N   0  0  0  0  0  0  0  0  0  0  0  0
   -1.2130    0.1938    2.3518 H   0  0  0  0  0  0  0  0  0  0  0  0
    0.1836    0.1337    3.9673 C   0  0  0  0  0  0  0  0  0  0  0  0
    1.0451    0.7976    4.0666 H   0  0  0  0  0  0  0  0  0  0  0  0
   -0.6344    0.5115    4.5820 H   0  0  0  0  0  0  0  0  0  0  0  0
    0.4676   -0.8609    4.3157 H   0  0  0  0  0  0  0  0  0  0  0  0
  5  6  2  0  0  0  0
  5  7  1  0  0  0  0
  2  3  1  0  0  0  0
  2  4  1  0  0  0  0
  2  5  1  0  0  0  0
  1  2  1  0  0  0  0
 18 19  2  0  0  0  0
 18 20  1  0  0  0  0
 16 17  1  0  0  0  0
 14 15  2  0  0  0  0
 14 16  1  0  0  0  0
 11 12  1  0  0  0  0
 11 13  1  0  0  0  0
 11 14  1  0  0  0  0
  9 10  1  0  0  0  0
  9 11  1  0  0  0  0
  9 18  1  0  0  0  0
  7  8  1  0  0  0  0
  7  9  1  0  0  0  0
 22 23  1  0  0  0  0
 22 24  1  0  0  0  0
 22 25  1  0  0  0  0
 20 21  1  0  0  0  0
 20 22  1  0  0  0  0
M  END
$$$$
default_name
  -OEChem-02102213163D

 25 24  0     1  0  0  0  0  0999 V2000
   -2.7826   -3.8464    0.7821 H   0  0  0  0  0  0  0  0  0  0  0  0
   -2.8156   -2.8034    0.4711 C   0  0  0  0  0  0  0  0  0  0  0  0
   -3.4336   -2.2354    1.1641 H   0  0  0  0  0  0  0  0  0  0  0  0
   -3.2256   -2.7344   -0.5349 H   0  0  0  0  0  0  0  0  0  0  0  0
   -1.4126   -2.2444    0.4801 C   0  0  0  0  0  0  0  0  0  0  0  0
   -0.4686   -2.9534    0.8001 O   0  0  0  0  0  0  0  0  0  0  0  0
   -1.2736   -0.9704    0.1241 N   0  0  0  0  0  0  0  0  0  0  0  0
   -2.0996   -0.4354   -0.1019 H   0  0  0  0  0  0  0  0  0  0  0  0
   -0.0016   -0.2394    0.1271 C   0  0  1  0  0  0  0  0  0  0  0  0
    0.6995   -0.7619   -0.5275 H   0  0  0  0  0  0  0  0  0  0  0  0
   -0.2283    1.1832   -0.4215 C   0  0  0  0  0  0  0  0  0  0  0  0
   -0.7381    1.7856    0.3314 H   0  0  0  0  0  0  0  0  0  0  0  0
    0.7331    1.6531   -0.6319 H   0  0  0  0  0  0  0  0  0  0  0  0
   -1.0903    1.2182   -1.6799 C   0  0  0  0  0  0  0  0  0  0  0  0
   -2.0109    1.9967   -1.8915 O   0  0  0  0  0  0  0  0  0  0  0  0
   -0.7787    0.2900   -2.6037 O   0  0  0  0  0  0  0  0  0  0  0  0
   -1.3768    0.4384   -3.3369 H   0  0  0  0  0  0  0  0  0  0  0  0
    0.5920   -0.2154    1.5497 C   0  0  0  0  0  0  0  0  0  0  0  0
    1.7860   -0.4596    1.7183 O   0  0  0  0  0  0  0  0  0  0  0  0
   -0.2294    0.0669    2.5672 N   0  0  0  0  0  0  0  0  0  0  0  0
   -1.2130    0.1938    2.3518 H   0  0  0  0  0  0  0  0  0  0  0  0
    0.1836    0.1337    3.9673 C   0  0  0  0  0  0  0  0  0  0  0  0
    1.0451    0.7976    4.0666 H   0  0  0  0  0  0  0  0  0  0  0  0
   -0.6344    0.5115    4.5820 H   0  0  0  0  0  0  0  0  0  0  0  0
    0.4676   -0.8609    4.3157 H   0  0  0  0  0  0  0  0  0  0  0  0
  5  6  2  0  0  0  0
  5  7  1  0  0  0  0
  2  3  1  0  0  0  0
  2  4  1  0  0  0  0
  2  5  1  0  0  0  0
  1  2  1  0  0  0  0
 18 19  2  0  0  0  0
 18 20  1  0  0  0  0
 16 17  1  0  0  0  0
 14 15  2  0  0  0  0
 14 16  1  0  0  0  0
 11 12  1  0  0  0  0
 11 13  1  0  0  0  0
 11 14  1  0  0  0  0
  9 10  1  0  0  0  0
  9 11  1  0  0  0  0
  9 18  1  0  0  0  0
  7  8  1  0  0  0  0
  7  9  1  0  0  0  0
 22 23  1  0  0  0  0
 22 24  1  0  0  0  0
 22 25  1  0  0  0  0
 20 21  1  0  0  0  0
 20 22  1  0  0  0  0
M  END
$$$$
default_name
  -OEChem-02102213163D

 25 24  0     1  0  0  0  0  0999 V2000
   -2.7826   -3.8464    0.7821 H   0  0  0  0  0  0  0  0  0  0  0  0
   -2.8156   -2.8034    0.4711 C   0  0  0  0  0  0  0  0  0  0  0  0
   -3.4336   -2.2354    1.1641 H   0  0  0  0  0  0  0  0  0  0  0  0
   -3.2256   -2.7344   -0.5349 H   0  0  0  0  0  0  0  0  0  0  0  0
   -1.4126   -2.2444    0.4801 C   0  0  0  0  0  0  0  0  0  0  0  0
   -0.4686   -2.9534    0.8001 O   0  0  0  0  0  0  0  0  0  0  0  0
   -1.2736   -0.9704    0.1241 N   0  0  0  0  0  0  0  0  0  0  0  0
   -2.0996   -0.4354   -0.1019 H   0  0  0  0  0  0  0  0  0  0  0  0
   -0.0016   -0.2394    0.1271 C   0  0  1  0  0  0  0  0  0  0  0  0
    0.6995   -0.7619   -0.5275 H   0  0  0  0  0  0  0  0  0  0  0  0
   -0.2283    1.1832   -0.4215 C   0  0  0  0  0  0  0  0  0  0  0  0
   -0.7381    1.7856    0.3314 H   0  0  0  0  0  0  0  0  0  0  0  0
    0.7331    1.6531   -0.6319 H   0  0  0  0  0  0  0  0  0  0  0  0
   -1.0903    1.2182   -1.6799 C   0  0  0  0  0  0  0  0  0  0  0  0
   -1.8283    2.1363   -2.0127 O   0  0  0  0  0  0  0  0  0  0  0  0
   -1.0039    0.1205   -2.4542 O   0  0  0  0  0  0  0  0  0  0  0  0
   -1.5724    0.2850   -3.2071 H   0  0  0  0  0  0  0  0  0  0  0  0
    0.5920   -0.2154    1.5497 C   0  0  0  0  0  0  0  0  0  0  0  0
    1.7860   -0.4596    1.7183 O   0  0  0  0  0  0  0  0  0  0  0  0
   -0.2294    0.0669    2.5672 N   0  0  0  0  0  0  0  0  0  0  0  0
   -1.2130    0.1938    2.3518 H   0  0  0  0  0  0  0  0  0  0  0  0
    0.1836    0.1337    3.9673 C   0  0  0  0  0  0  0  0  0  0  0  0
    1.0451    0.7976    4.0666 H   0  0  0  0  0  0  0  0  0  0  0  0
   -0.6344    0.5115    4.5820 H   0  0  0  0  0  0  0  0  0  0  0  0
    0.4676   -0.8609    4.3157 H   0  0  0  0  0  0  0  0  0  0  0  0
  5  6  2  0  0  0  0
  5  7  1  0  0  0  0
  2  3  1  0  0  0  0
  2  4  1  0  0  0  0
  2  5  1  0  0  0  0
  1  2  1  0  0  0  0
 18 19  2  0  0  0  0
 18 20  1  0  0  0  0
 16 17  1  0  0  0  0
 14 15  2  0  0  0  0
 14 16  1  0  0  0  0
 11 12  1  0  0  0  0
 11 13  1  0  0  0  0
 11 14  1  0  0  0  0
  9 10  1  0  0  0  0
  9 11  1  0  0  0  0
  9 18  1  0  0  0  0
  7  8  1  0  0  0  0
  7  9  1  0  0  0  0
 22 23  1  0  0  0  0
 22 24  1  0  0  0  0
 22 25  1  0  0  0  0
 20 21  1  0  0  0  0
 20 22  1  0  0  0  0
M  END
$$$$
default_name
  -OEChem-02102213163D

 25 24  0     1  0  0  0  0  0999 V2000
   -2.7826   -3.8464    0.7821 H   0  0  0  0  0  0  0  0  0  0  0  0
   -2.8156   -2.8034    0.4711 C   0  0  0  0  0  0  0  0  0  0  0  0
   -3.4336   -2.2354    1.1641 H   0  0  0  0  0  0  0  0  0  0  0  0
   -3.2256   -2.7344   -0.5349 H   0  0  0  0  0  0  0  0  0  0  0  0
   -1.4126   -2.2444    0.4801 C   0  0  0  0  0  0  0  0  0  0  0  0
   -0.4686   -2.9534    0.8001 O   0  0  0  0  0  0  0  0  0  0  0  0
   -1.2736   -0.9704    0.1241 N   0  0  0  0  0  0  0  0  0  0  0  0
   -2.0996   -0.4354   -0.1019 H   0  0  0  0  0  0  0  0  0  0  0  0
   -0.0016   -0.2394    0.1271 C   0  0  1  0  0  0  0  0  0  0  0  0
    0.6995   -0.7619   -0.5275 H   0  0  0  0  0  0  0  0  0  0  0  0
   -0.2283    1.1832   -0.4215 C   0  0  0  0  0  0  0  0  0  0  0  0
   -0.7381    1.7856    0.3314 H   0  0  0  0  0  0  0  0  0  0  0  0
    0.7331    1.6531   -0.6319 H   0  0  0  0  0  0  0  0  0  0  0  0
   -1.0903    1.2182   -1.6799 C   0  0  0  0  0  0  0  0  0  0  0  0
   -1.6229    2.2145   -2.1512 O   0  0  0  0  0  0  0  0  0  0  0  0
   -1.2566    0.0267   -2.2836 O   0  0  0  0  0  0  0  0  0  0  0  0
   -1.7933    0.1975   -3.0582 H   0  0  0  0  0  0  0  0  0  0  0  0
    0.5920   -0.2154    1.5497 C   0  0  0  0  0  0  0  0  0  0  0  0
    1.7860   -0.4596    1.7183 O   0  0  0  0  0  0  0  0  0  0  0  0
   -0.2294    0.0669    2.5672 N   0  0  0  0  0  0  0  0  0  0  0  0
   -1.2130    0.1938    2.3518 H   0  0  0  0  0  0  0  0  0  0  0  0
    0.1836    0.1337    3.9673 C   0  0  0  0  0  0  0  0  0  0  0  0
    1.0451    0.7976    4.0666 H   0  0  0  0  0  0  0  0  0  0  0  0
   -0.6344    0.5115    4.5820 H   0  0  0  0  0  0  0  0  0  0  0  0
    0.4676   -0.8609    4.3157 H   0  0  0  0  0  0  0  0  0  0  0  0
  5  6  2  0  0  0  0
  5  7  1  0  0  0  0
  2  3  1  0  0  0  0
  2  4  1  0  0  0  0
  2  5  1  0  0  0  0
  1  2  1  0  0  0  0
 18 19  2  0  0  0  0
 18 20  1  0  0  0  0
 16 17  1  0  0  0  0
 14 15  2  0  0  0  0
 14 16  1  0  0  0  0
 11 12  1  0  0  0  0
 11 13  1  0  0  0  0
 11 14  1  0  0  0  0
  9 10  1  0  0  0  0
  9 11  1  0  0  0  0
  9 18  1  0  0  0  0
  7  8  1  0  0  0  0
  7  9  1  0  0  0  0
 22 23  1  0  0  0  0
 22 24  1  0  0  0  0
 22 25  1  0  0  0  0
 20 21  1  0  0  0  0
 20 22  1  0  0  0  0
M  END
$$$$
default_name
  -OEChem-02102213163D

 25 24  0     1  0  0  0  0  0999 V2000
   -2.7826   -3.8464    0.7821 H   0  0  0  0  0  0  0  0  0  0  0  0
   -2.8156   -2.8034    0.4711 C   0  0  0  0  0  0  0  0  0  0  0  0
   -3.4336   -2.2354    1.1641 H   0  0  0  0  0  0  0  0  0  0  0  0
   -3.2256   -2.7344   -0.5349 H   0  0  0  0  0  0  0  0  0  0  0  0
   -1.4126   -2.2444    0.4801 C   0  0  0  0  0  0  0  0  0  0  0  0
   -0.4686   -2.9534    0.8001 O   0  0  0  0  0  0  0  0  0  0  0  0
   -1.2736   -0.9704    0.1241 N   0  0  0  0  0  0  0  0  0  0  0  0
   -2.0996   -0.4354   -0.1019 H   0  0  0  0  0  0  0  0  0  0  0  0
   -0.0016   -0.2394    0.1271 C   0  0  1  0  0  0  0  0  0  0  0  0
    0.6995   -0.7619   -0.5275 H   0  0  0  0  0  0  0  0  0  0  0  0
   -0.2283    1.1832   -0.4215 C   0  0  0  0  0  0  0  0  0  0  0  0
   -0.4872    1.8521    0.4002 H   0  0  0  0  0  0  0  0  0  0  0  0
    0.6915    1.5521   -0.8767 H   0  0  0  0  0  0  0  0  0  0  0  0
   -1.3613    1.2676   -1.4398 C   0  0  0  0  0  0  0  0  0  0  0  0
   -1.7295    2.2843   -2.0134 O   0  0  0  0  0  0  0  0  0  0  0  0
   -1.9837    0.1006   -1.6899 O   0  0  0  0  0  0  0  0  0  0  0  0
   -2.6487    0.2942   -2.3513 H   0  0  0  0  0  0  0  0  0  0  0  0
    0.5920   -0.2154    1.5497 C   0  0  0  0  0  0  0  0  0  0  0  0
    1.7860   -0.4596    1.7183 O   0  0  0  0  0  0  0  0  0  0  0  0
   -0.2294    0.0669    2.5672 N   0  0  0  0  0  0  0  0  0  0  0  0
   -1.2130    0.1938    2.3518 H   0  0  0  0  0  0  0  0  0  0  0  0
    0.1836    0.1337    3.9673 C   0  0  0  0  0  0  0  0  0  0  0  0
    1.0451    0.7976    4.0666 H   0  0  0  0  0  0  0  0  0  0  0  0
   -0.6344    0.5115    4.5820 H   0  0  0  0  0  0  0  0  0  0  0  0
    0.4676   -0.8609    4.3157 H   0  0  0  0  0  0  0  0  0  0  0  0
  5  6  2  0  0  0  0
  5  7  1  0  0  0  0
  2  3  1  0  0  0  0
  2  4  1  0  0  0  0
  2  5  1  0  0  0  0
  1  2  1  0  0  0  0
 18 19  2  0  0  0  0
 18 20  1  0  0  0  0
 16 17  1  0  0  0  0
 14 15  2  0  0  0  0
 14 16  1  0  0  0  0
 11 12  1  0  0  0  0
 11 13  1  0  0  0  0
 11 14  1  0  0  0  0
  9 10  1  0  0  0  0
  9 11  1  0  0  0  0
  9 18  1  0  0  0  0
  7  8  1  0  0  0  0
  7  9  1  0  0  0  0
 22 23  1  0  0  0  0
 22 24  1  0  0  0  0
 22 25  1  0  0  0  0
 20 21  1  0  0  0  0
 20 22  1  0  0  0  0
M  END
$$$$
default_name
  -OEChem-02102213163D

 25 24  0     1  0  0  0  0  0999 V2000
   -2.7826   -3.8464    0.7821 H   0  0  0  0  0  0  0  0  0  0  0  0
   -2.8156   -2.8034    0.4711 C   0  0  0  0  0  0  0  0  0  0  0  0
   -3.4336   -2.2354    1.1641 H   0  0  0  0  0  0  0  0  0  0  0  0
   -3.2256   -2.7344   -0.5349 H   0  0  0  0  0  0  0  0  0  0  0  0
   -1.4126   -2.2444    0.4801 C   0  0  0  0  0  0  0  0  0  0  0  0
   -0.4686   -2.9534    0.8001 O   0  0  0  0  0  0  0  0  0  0  0  0
   -1.2736   -0.9704    0.1241 N   0  0  0  0  0  0  0  0  0  0  0  0
   -2.0996   -0.4354   -0.1019 H   0  0  0  0  0  0  0  0  0  0  0  0
   -0.0016   -0.2394    0.1271 C   0  0  1  0  0  0  0  0  0  0  0  0
    0.6995   -0.7619   -0.5275 H   0  0  0  0  0  0  0  0  0  0  0  0
   -0.2283    1.1832   -0.4215 C   0  0  0  0  0  0  0  0  0  0  0  0
   -0.4872    1.8521    0.4002 H   0  0  0  0  0  0  0  0  0  0  0  0
    0.6915    1.5521   -0.8767 H   0  0  0  0  0  0  0  0  0  0  0  0
   -1.3613    1.2676   -1.4398 C   0  0  0  0  0  0  0  0  0  0  0  0
   -1.5676    2.2044   -2.2002 O   0  0  0  0  0  0  0  0  0  0  0  0
   -2.1820    0.2008   -1.4610 O   0  0  0  0  0  0  0  0  0  0  0  0
   -2.8243    0.3774   -2.1491 H   0  0  0  0  0  0  0  0  0  0  0  0
    0.5920   -0.2154    1.5497 C   0  0  0  0  0  0  0  0  0  0  0  0
    1.7860   -0.4596    1.7183 O   0  0  0  0  0  0  0  0  0  0  0  0
   -0.2294    0.0669    2.5672 N   0  0  0  0  0  0  0  0  0  0  0  0
   -1.2130    0.1938    2.3518 H   0  0  0  0  0  0  0  0  0  0  0  0
    0.1836    0.1337    3.9673 C   0  0  0  0  0  0  0  0  0  0  0  0
    1.0451    0.7976    4.0666 H   0  0  0  0  0  0  0  0  0  0  0  0
   -0.6344    0.5115    4.5820 H   0  0  0  0  0  0  0  0  0  0  0  0
    0.4676   -0.8609    4.3157 H   0  0  0  0  0  0  0  0  0  0  0  0
  5  6  2  0  0  0  0
  5  7  1  0  0  0  0
  2  3  1  0  0  0  0
  2  4  1  0  0  0  0
  2  5  1  0  0  0  0
  1  2  1  0  0  0  0
 18 19  2  0  0  0  0
 18 20  1  0  0  0  0
 16 17  1  0  0  0  0
 14 15  2  0  0  0  0
 14 16  1  0  0  0  0
 11 12  1  0  0  0  0
 11 13  1  0  0  0  0
 11 14  1  0  0  0  0
  9 10  1  0  0  0  0
  9 11  1  0  0  0  0
  9 18  1  0  0  0  0
  7  8  1  0  0  0  0
  7  9  1  0  0  0  0
 22 23  1  0  0  0  0
 22 24  1  0  0  0  0
 22 25  1  0  0  0  0
 20 21  1  0  0  0  0
 20 22  1  0  0  0  0
M  END
$$$$
default_name
  -OEChem-02102213163D

 25 24  0     1  0  0  0  0  0999 V2000
   -2.7826   -3.8464    0.7821 H   0  0  0  0  0  0  0  0  0  0  0  0
   -2.8156   -2.8034    0.4711 C   0  0  0  0  0  0  0  0  0  0  0  0
   -3.4336   -2.2354    1.1641 H   0  0  0  0  0  0  0  0  0  0  0  0
   -3.2256   -2.7344   -0.5349 H   0  0  0  0  0  0  0  0  0  0  0  0
   -1.4126   -2.2444    0.4801 C   0  0  0  0  0  0  0  0  0  0  0  0
   -0.4686   -2.9534    0.8001 O   0  0  0  0  0  0  0  0  0  0  0  0
   -1.2736   -0.9704    0.1241 N   0  0  0  0  0  0  0  0  0  0  0  0
   -2.0996   -0.4354   -0.1019 H   0  0  0  0  0  0  0  0  0  0  0  0
   -0.0016   -0.2394    0.1271 C   0  0  1  0  0  0  0  0  0  0  0  0
    0.6995   -0.7619   -0.5275 H   0  0  0  0  0  0  0  0  0  0  0  0
   -0.2283    1.1832   -0.4215 C   0  0  0  0  0  0  0  0  0  0  0  0
   -0.4872    1.8521    0.4002 H   0  0  0  0  0  0  0  0  0  0  0  0
    0.6915    1.5521   -0.8767 H   0  0  0  0  0  0  0  0  0  0  0  0
   -1.3613    1.2676   -1.4398 C   0  0  0  0  0  0  0  0  0  0  0  0
   -1.4277    2.0633   -2.3676 O   0  0  0  0  0  0  0  0  0  0  0  0
   -2.3529    0.3759   -1.2563 O   0  0  0  0  0  0  0  0  0  0  0  0
   -2.9766    0.5270   -1.9672 H   0  0  0  0  0  0  0  0  0  0  0  0
    0.5920   -0.2154    1.5497 C   0  0  0  0  0  0  0  0  0  0  0  0
    1.7860   -0.4596    1.7183 O   0  0  0  0  0  0  0  0  0  0  0  0
   -0.2294    0.0669    2.5672 N   0  0  0  0  0  0  0  0  0  0  0  0
   -1.2130    0.1938    2.3518 H   0  0  0  0  0  0  0  0  0  0  0  0
    0.1836    0.1337    3.9673 C   0  0  0  0  0  0  0  0  0  0  0  0
    1.0451    0.7976    4.0666 H   0  0  0  0  0  0  0  0  0  0  0  0
   -0.6344    0.5115    4.5820 H   0  0  0  0  0  0  0  0  0  0  0  0
    0.4676   -0.8609    4.3157 H   0  0  0  0  0  0  0  0  0  0  0  0
  5  6  2  0  0  0  0
  5  7  1  0  0  0  0
  2  3  1  0  0  0  0
  2  4  1  0  0  0  0
  2  5  1  0  0  0  0
  1  2  1  0  0  0  0
 18 19  2  0  0  0  0
 18 20  1  0  0  0  0
 16 17  1  0  0  0  0
 14 15  2  0  0  0  0
 14 16  1  0  0  0  0
 11 12  1  0  0  0  0
 11 13  1  0  0  0  0
 11 14  1  0  0  0  0
  9 10  1  0  0  0  0
  9 11  1  0  0  0  0
  9 18  1  0  0  0  0
  7  8  1  0  0  0  0
  7  9  1  0  0  0  0
 22 23  1  0  0  0  0
 22 24  1  0  0  0  0
 22 25  1  0  0  0  0
 20 21  1  0  0  0  0
 20 22  1  0  0  0  0
M  END
$$$$
default_name
  -OEChem-02102213163D

 25 24  0     1  0  0  0  0  0999 V2000
   -2.7826   -3.8464    0.7821 H   0  0  0  0  0  0  0  0  0  0  0  0
   -2.8156   -2.8034    0.4711 C   0  0  0  0  0  0  0  0  0  0  0  0
   -3.4336   -2.2354    1.1641 H   0  0  0  0  0  0  0  0  0  0  0  0
   -3.2256   -2.7344   -0.5349 H   0  0  0  0  0  0  0  0  0  0  0  0
   -1.4126   -2.2444    0.4801 C   0  0  0  0  0  0  0  0  0  0  0  0
   -0.4686   -2.9534    0.8001 O   0  0  0  0  0  0  0  0  0  0  0  0
   -1.2736   -0.9704    0.1241 N   0  0  0  0  0  0  0  0  0  0  0  0
   -2.0996   -0.4354   -0.1019 H   0  0  0  0  0  0  0  0  0  0  0  0
   -0.0016   -0.2394    0.1271 C   0  0  1  0  0  0  0  0  0  0  0  0
    0.6995   -0.7619   -0.5275 H   0  0  0  0  0  0  0  0  0  0  0  0
   -0.2283    1.1832   -0.4215 C   0  0  0  0  0  0  0  0  0  0  0  0
   -0.4872    1.8521    0.4002 H   0  0  0  0  0  0  0  0  0  0  0  0
    0.6915    1.5521   -0.8767 H   0  0  0  0  0  0  0  0  0  0  0  0
   -1.3613    1.2676   -1.4398 C   0  0  0  0  0  0  0  0  0  0  0  0
   -1.3193    1.8706   -2.5042 O   0  0  0  0  0  0  0  0  0  0  0  0
   -2.4848    0.6139   -1.0898 O   0  0  0  0  0  0  0  0  0  0  0  0
   -3.0953    0.7327   -1.8181 H   0  0  0  0  0  0  0  0  0  0  0  0
    0.5920   -0.2154    1.5497 C   0  0  0  0  0  0  0  0  0  0  0  0
    1.7860   -0.4596    1.7183 O   0  0  0  0  0  0  0  0  0  0  0  0
   -0.2294    0.0669    2.5672 N   0  0  0  0  0  0  0  0  0  0  0  0
   -1.2130    0.1938    2.3518 H   0  0  0  0  0  0  0  0  0  0  0  0
    0.1836    0.1337    3.9673 C   0  0  0  0  0  0  0  0  0  0  0  0
    1.0451    0.7976    4.0666 H   0  0  0  0  0  0  0  0  0  0  0  0
   -0.6344    0.5115    4.5820 H   0  0  0  0  0  0  0  0  0  0  0  0
    0.4676   -0.8609    4.3157 H   0  0  0  0  0  0  0  0  0  0  0  0
  5  6  2  0  0  0  0
  5  7  1  0  0  0  0
  2  3  1  0  0  0  0
  2  4  1  0  0  0  0
  2  5  1  0  0  0  0
  1  2  1  0  0  0  0
 18 19  2  0  0  0  0
 18 20  1  0  0  0  0
 16 17  1  0  0  0  0
 14 15  2  0  0  0  0
 14 16  1  0  0  0  0
 11 12  1  0  0  0  0
 11 13  1  0  0  0  0
 11 14  1  0  0  0  0
  9 10  1  0  0  0  0
  9 11  1  0  0  0  0
  9 18  1  0  0  0  0
  7  8  1  0  0  0  0
  7  9  1  0  0  0  0
 22 23  1  0  0  0  0
 22 24  1  0  0  0  0
 22 25  1  0  0  0  0
 20 21  1  0  0  0  0
 20 22  1  0  0  0  0
M  END
$$$$
default_name
  -OEChem-02102213163D

 25 24  0     1  0  0  0  0  0999 V2000
   -2.7826   -3.8464    0.7821 H   0  0  0  0  0  0  0  0  0  0  0  0
   -2.8156   -2.8034    0.4711 C   0  0  0  0  0  0  0  0  0  0  0  0
   -3.4336   -2.2354    1.1641 H   0  0  0  0  0  0  0  0  0  0  0  0
   -3.2256   -2.7344   -0.5349 H   0  0  0  0  0  0  0  0  0  0  0  0
   -1.4126   -2.2444    0.4801 C   0  0  0  0  0  0  0  0  0  0  0  0
   -0.4686   -2.9534    0.8001 O   0  0  0  0  0  0  0  0  0  0  0  0
   -1.2736   -0.9704    0.1241 N   0  0  0  0  0  0  0  0  0  0  0  0
   -2.0996   -0.4354   -0.1019 H   0  0  0  0  0  0  0  0  0  0  0  0
   -0.0016   -0.2394    0.1271 C   0  0  1  0  0  0  0  0  0  0  0  0
    0.6995   -0.7619   -0.5275 H   0  0  0  0  0  0  0  0  0  0  0  0
   -0.2283    1.1832   -0.4215 C   0  0  0  0  0  0  0  0  0  0  0  0
   -0.4872    1.8521    0.4002 H   0  0  0  0  0  0  0  0  0  0  0  0
    0.6915    1.5521   -0.8767 H   0  0  0  0  0  0  0  0  0  0  0  0
   -1.3613    1.2676   -1.4398 C   0  0  0  0  0  0  0  0  0  0  0  0
   -1.2499    1.6396   -2.6006 O   0  0  0  0  0  0  0  0  0  0  0  0
   -2.5687    0.8986   -0.9728 O   0  0  0  0  0  0  0  0  0  0  0  0
   -3.1722    0.9806   -1.7119 H   0  0  0  0  0  0  0  0  0  0  0  0
    0.5920   -0.2154    1.5497 C   0  0  0  0  0  0  0  0  0  0  0  0
    1.7860   -0.4596    1.7183 O   0  0  0  0  0  0  0  0  0  0  0  0
   -0.2294    0.0669    2.5672 N   0  0  0  0  0  0  0  0  0  0  0  0
   -1.2130    0.1938    2.3518 H   0  0  0  0  0  0  0  0  0  0  0  0
    0.1836    0.1337    3.9673 C   0  0  0  0  0  0  0  0  0  0  0  0
    1.0451    0.7976    4.0666 H   0  0  0  0  0  0  0  0  0  0  0  0
   -0.6344    0.5115    4.5820 H   0  0  0  0  0  0  0  0  0  0  0  0
    0.4676   -0.8609    4.3157 H   0  0  0  0  0  0  0  0  0  0  0  0
  5  6  2  0  0  0  0
  5  7  1  0  0  0  0
  2  3  1  0  0  0  0
  2  4  1  0  0  0  0
  2  5  1  0  0  0  0
  1  2  1  0  0  0  0
 18 19  2  0  0  0  0
 18 20  1  0  0  0  0
 16 17  1  0  0  0  0
 14 15  2  0  0  0  0
 14 16  1  0  0  0  0
 11 12  1  0  0  0  0
 11 13  1  0  0  0  0
 11 14  1  0  0  0  0
  9 10  1  0  0  0  0
  9 11  1  0  0  0  0
  9 18  1  0  0  0  0
  7  8  1  0  0  0  0
  7  9  1  0  0  0  0
 22 23  1  0  0  0  0
 22 24  1  0  0  0  0
 22 25  1  0  0  0  0
 20 21  1  0  0  0  0
 20 22  1  0  0  0  0
M  END
$$$$
default_name
  -OEChem-02102213163D

 25 24  0     1  0  0  0  0  0999 V2000
   -2.7826   -3.8464    0.7821 H   0  0  0  0  0  0  0  0  0  0  0  0
   -2.8156   -2.8034    0.4711 C   0  0  0  0  0  0  0  0  0  0  0  0
   -3.4336   -2.2354    1.1641 H   0  0  0  0  0  0  0  0  0  0  0  0
   -3.2256   -2.7344   -0.5349 H   0  0  0  0  0  0  0  0  0  0  0  0
   -1.4126   -2.2444    0.4801 C   0  0  0  0  0  0  0  0  0  0  0  0
   -0.4686   -2.9534    0.8001 O   0  0  0  0  0  0  0  0  0  0  0  0
   -1.2736   -0.9704    0.1241 N   0  0  0  0  0  0  0  0  0  0  0  0
   -2.0996   -0.4354   -0.1019 H   0  0  0  0  0  0  0  0  0  0  0  0
   -0.0016   -0.2394    0.1271 C   0  0  1  0  0  0  0  0  0  0  0  0
    0.6995   -0.7619   -0.5275 H   0  0  0  0  0  0  0  0  0  0  0  0
   -0.2283    1.1832   -0.4215 C   0  0  0  0  0  0  0  0  0  0  0  0
   -0.4872    1.8521    0.4002 H   0  0  0  0  0  0  0  0  0  0  0  0
    0.6915    1.5521   -0.8767 H   0  0  0  0  0  0  0  0  0  0  0  0
   -1.3613    1.2676   -1.4398 C   0  0  0  0  0  0  0  0  0  0  0  0
   -1.2241    1.3859   -2.6503 O   0  0  0  0  0  0  0  0  0  0  0  0
   -2.5989    1.2105   -0.9133 O   0  0  0  0  0  0  0  0  0  0  0  0
   -3.2022    1.2538   -1.6559 H   0  0  0  0  0  0  0  0  0  0  0  0
    0.5920   -0.2154    1.5497 C   0  0  0  0  0  0  0  0  0  0  0  0
    1.7860   -0.4596    1.7183 O   0  0  0  0  0  0  0  0  0  0  0  0
   -0.2294    0.0669    2.5672 N   0  0  0  0  0  0  0  0  0  0  0  0
   -1.2130    0.1938    2.3518 H   0  0  0  0  0  0  0  0  0  0  0  0
    0.1836    0.1337    3.9673 C   0  0  0  0  0  0  0  0  0  0  0  0
    1.0451    0.7976    4.0666 H   0  0  0  0  0  0  0  0  0  0  0  0
   -0.6344    0.5115    4.5820 H   0  0  0  0  0  0  0  0  0  0  0  0
    0.4676   -0.8609    4.3157 H   0  0  0  0  0  0  0  0  0  0  0  0
  5  6  2  0  0  0  0
  5  7  1  0  0  0  0
  2  3  1  0  0  0  0
  2  4  1  0  0  0  0
  2  5  1  0  0  0  0
  1  2  1  0  0  0  0
 18 19  2  0  0  0  0
 18 20  1  0  0  0  0
 16 17  1  0  0  0  0
 14 15  2  0  0  0  0
 14 16  1  0  0  0  0
 11 12  1  0  0  0  0
 11 13  1  0  0  0  0
 11 14  1  0  0  0  0
  9 10  1  0  0  0  0
  9 11  1  0  0  0  0
  9 18  1  0  0  0  0
  7  8  1  0  0  0  0
  7  9  1  0  0  0  0
 22 23  1  0  0  0  0
 22 24  1  0  0  0  0
 22 25  1  0  0  0  0
 20 21  1  0  0  0  0
 20 22  1  0  0  0  0
M  END
$$$$
default_name
  -OEChem-02102213163D

 25 24  0     1  0  0  0  0  0999 V2000
   -2.7826   -3.8464    0.7821 H   0  0  0  0  0  0  0  0  0  0  0  0
   -2.8156   -2.8034    0.4711 C   0  0  0  0  0  0  0  0  0  0  0  0
   -3.4336   -2.2354    1.1641 H   0  0  0  0  0  0  0  0  0  0  0  0
   -3.2256   -2.7344   -0.5349 H   0  0  0  0  0  0  0  0  0  0  0  0
   -1.4126   -2.2444    0.4801 C   0  0  0  0  0  0  0  0  0  0  0  0
   -0.4686   -2.9534    0.8001 O   0  0  0  0  0  0  0  0  0  0  0  0
   -1.2736   -0.9704    0.1241 N   0  0  0  0  0  0  0  0  0  0  0  0
   -2.0996   -0.4354   -0.1019 H   0  0  0  0  0  0  0  0  0  0  0  0
   -0.0016   -0.2394    0.1271 C   0  0  1  0  0  0  0  0  0  0  0  0
    0.6995   -0.7619   -0.5275 H   0  0  0  0  0  0  0  0  0  0  0  0
   -0.2283    1.1832   -0.4215 C   0  0  0  0  0  0  0  0  0  0  0  0
   -0.4872    1.8521    0.4002 H   0  0  0  0  0  0  0  0  0  0  0  0
    0.6915    1.5521   -0.8767 H   0  0  0  0  0  0  0  0  0  0  0  0
   -1.3613    1.2676   -1.4398 C   0  0  0  0  0  0  0  0  0  0  0  0
   -1.2437    1.1268   -2.6500 O   0  0  0  0  0  0  0  0  0  0  0  0
   -2.5733    1.5285   -0.9154 O   0  0  0  0  0  0  0  0  0  0  0  0
   -3.1832    1.5335   -1.6538 H   0  0  0  0  0  0  0  0  0  0  0  0
    0.5920   -0.2154    1.5497 C   0  0  0  0  0  0  0  0  0  0  0  0
    1.7860   -0.4596    1.7183 O   0  0  0  0  0  0  0  0  0  0  0  0
   -0.2294    0.0669    2.5672 N   0  0  0  0  0  0  0  0  0  0  0  0
   -1.2130    0.1938    2.3518 H   0  0  0  0  0  0  0  0  0  0  0  0
    0.1836    0.1337    3.9673 C   0  0  0  0  0  0  0  0  0  0  0  0
    1.0451    0.7976    4.0666 H   0  0  0  0  0  0  0  0  0  0  0  0
   -0.6344    0.5115    4.5820 H   0  0  0  0  0  0  0  0  0  0  0  0
    0.4676   -0.8609    4.3157 H   0  0  0  0  0  0  0  0  0  0  0  0
  5  6  2  0  0  0  0
  5  7  1  0  0  0  0
  2  3  1  0  0  0  0
  2  4  1  0  0  0  0
  2  5  1  0  0  0  0
  1  2  1  0  0  0  0
 18 19  2  0  0  0  0
 18 20  1  0  0  0  0
 16 17  1  0  0  0  0
 14 15  2  0  0  0  0
 14 16  1  0  0  0  0
 11 12  1  0  0  0  0
 11 13  1  0  0  0  0
 11 14  1  0  0  0  0
  9 10  1  0  0  0  0
  9 11  1  0  0  0  0
  9 18  1  0  0  0  0
  7  8  1  0  0  0  0
  7  9  1  0  0  0  0
 22 23  1  0  0  0  0
 22 24  1  0  0  0  0
 22 25  1  0  0  0  0
 20 21  1  0  0  0  0
 20 22  1  0  0  0  0
M  END
$$$$
default_name
  -OEChem-02102213163D

 25 24  0     1  0  0  0  0  0999 V2000
   -2.7826   -3.8464    0.7821 H   0  0  0  0  0  0  0  0  0  0  0  0
   -2.8156   -2.8034    0.4711 C   0  0  0  0  0  0  0  0  0  0  0  0
   -3.4336   -2.2354    1.1641 H   0  0  0  0  0  0  0  0  0  0  0  0
   -3.2256   -2.7344   -0.5349 H   0  0  0  0  0  0  0  0  0  0  0  0
   -1.4126   -2.2444    0.4801 C   0  0  0  0  0  0  0  0  0  0  0  0
   -0.4686   -2.9534    0.8001 O   0  0  0  0  0  0  0  0  0  0  0  0
   -1.2736   -0.9704    0.1241 N   0  0  0  0  0  0  0  0  0  0  0  0
   -2.0996   -0.4354   -0.1019 H   0  0  0  0  0  0  0  0  0  0  0  0
   -0.0016   -0.2394    0.1271 C   0  0  1  0  0  0  0  0  0  0  0  0
    0.6995   -0.7619   -0.5275 H   0  0  0  0  0  0  0  0  0  0  0  0
   -0.2283    1.1832   -0.4215 C   0  0  0  0  0  0  0  0  0  0  0  0
   -0.4872    1.8521    0.4002 H   0  0  0  0  0  0  0  0  0  0  0  0
    0.6915    1.5521   -0.8767 H   0  0  0  0  0  0  0  0  0  0  0  0
   -1.3613    1.2676   -1.4398 C   0  0  0  0  0  0  0  0  0  0  0  0
   -1.3074    0.8800   -2.5996 O   0  0  0  0  0  0  0  0  0  0  0  0
   -2.4938    1.8308   -0.9789 O   0  0  0  0  0  0  0  0  0  0  0  0
   -3.1165    1.8009   -1.7059 H   0  0  0  0  0  0  0  0  0  0  0  0
    0.5920   -0.2154    1.5497 C   0  0  0  0  0  0  0  0  0  0  0  0
    1.7860   -0.4596    1.7183 O   0  0  0  0  0  0  0  0  0  0  0  0
   -0.2294    0.0669    2.5672 N   0  0  0  0  0  0  0  0  0  0  0  0
   -1.2130    0.1938    2.3518 H   0  0  0  0  0  0  0  0  0  0  0  0
    0.1836    0.1337    3.9673 C   0  0  0  0  0  0  0  0  0  0  0  0
    1.0451    0.7976    4.0666 H   0  0  0  0  0  0  0  0  0  0  0  0
   -0.6344    0.5115    4.5820 H   0  0  0  0  0  0  0  0  0  0  0  0
    0.4676   -0.8609    4.3157 H   0  0  0  0  0  0  0  0  0  0  0  0
  5  6  2  0  0  0  0
  5  7  1  0  0  0  0
  2  3  1  0  0  0  0
  2  4  1  0  0  0  0
  2  5  1  0  0  0  0
  1  2  1  0  0  0  0
 18 19  2  0  0  0  0
 18 20  1  0  0  0  0
 16 17  1  0  0  0  0
 14 15  2  0  0  0  0
 14 16  1  0  0  0  0
 11 12  1  0  0  0  0
 11 13  1  0  0  0  0
 11 14  1  0  0  0  0
  9 10  1  0  0  0  0
  9 11  1  0  0  0  0
  9 18  1  0  0  0  0
  7  8  1  0  0  0  0
  7  9  1  0  0  0  0
 22 23  1  0  0  0  0
 22 24  1  0  0  0  0
 22 25  1  0  0  0  0
 20 21  1  0  0  0  0
 20 22  1  0  0  0  0
M  END
$$$$
default_name
  -OEChem-02102213163D

 25 24  0     1  0  0  0  0  0999 V2000
   -2.7826   -3.8464    0.7821 H   0  0  0  0  0  0  0  0  0  0  0  0
   -2.8156   -2.8034    0.4711 C   0  0  0  0  0  0  0  0  0  0  0  0
   -3.4336   -2.2354    1.1641 H   0  0  0  0  0  0  0  0  0  0  0  0
   -3.2256   -2.7344   -0.5349 H   0  0  0  0  0  0  0  0  0  0  0  0
   -1.4126   -2.2444    0.4801 C   0  0  0  0  0  0  0  0  0  0  0  0
   -0.4686   -2.9534    0.8001 O   0  0  0  0  0  0  0  0  0  0  0  0
   -1.2736   -0.9704    0.1241 N   0  0  0  0  0  0  0  0  0  0  0  0
   -2.0996   -0.4354   -0.1019 H   0  0  0  0  0  0  0  0  0  0  0  0
   -0.0016   -0.2394    0.1271 C   0  0  1  0  0  0  0  0  0  0  0  0
    0.6995   -0.7619   -0.5275 H   0  0  0  0  0  0  0  0  0  0  0  0
   -0.2283    1.1832   -0.4215 C   0  0  0  0  0  0  0  0  0  0  0  0
   -0.4872    1.8521    0.4002 H   0  0  0  0  0  0  0  0  0  0  0  0
    0.6915    1.5521   -0.8767 H   0  0  0  0  0  0  0  0  0  0  0  0
   -1.3613    1.2676   -1.4398 C   0  0  0  0  0  0  0  0  0  0  0  0
   -1.4108    0.6623   -2.5025 O   0  0  0  0  0  0  0  0  0  0  0  0
   -2.3656    2.0969   -1.0995 O   0  0  0  0  0  0  0  0  0  0  0  0
   -3.0066    2.0376   -1.8085 H   0  0  0  0  0  0  0  0  0  0  0  0
    0.5920   -0.2154    1.5497 C   0  0  0  0  0  0  0  0  0  0  0  0
    1.7860   -0.4596    1.7183 O   0  0  0  0  0  0  0  0  0  0  0  0
   -0.2294    0.0669    2.5672 N   0  0  0  0  0  0  0  0  0  0  0  0
   -1.2130    0.1938    2.3518 H   0  0  0  0  0  0  0  0  0  0  0  0
    0.1836    0.1337    3.9673 C   0  0  0  0  0  0  0  0  0  0  0  0
    1.0451    0.7976    4.0666 H   0  0  0  0  0  0  0  0  0  0  0  0
   -0.6344    0.5115    4.5820 H   0  0  0  0  0  0  0  0  0  0  0  0
    0.4676   -0.8609    4.3157 H   0  0  0  0  0  0  0  0  0  0  0  0
  5  6  2  0  0  0  0
  5  7  1  0  0  0  0
  2  3  1  0  0  0  0
  2  4  1  0  0  0  0
  2  5  1  0  0  0  0
  1  2  1  0  0  0  0
 18 19  2  0  0  0  0
 18 20  1  0  0  0  0
 16 17  1  0  0  0  0
 14 15  2  0  0  0  0
 14 16  1  0  0  0  0
 11 12  1  0  0  0  0
 11 13  1  0  0  0  0
 11 14  1  0  0  0  0
  9 10  1  0  0  0  0
  9 11  1  0  0  0  0
  9 18  1  0  0  0  0
  7  8  1  0  0  0  0
  7  9  1  0  0  0  0
 22 23  1  0  0  0  0
 22 24  1  0  0  0  0
 22 25  1  0  0  0  0
 20 21  1  0  0  0  0
 20 22  1  0  0  0  0
M  END
$$$$
default_name
  -OEChem-02102213163D

 25 24  0     1  0  0  0  0  0999 V2000
   -2.7826   -3.8464    0.7821 H   0  0  0  0  0  0  0  0  0  0  0  0
   -2.8156   -2.8034    0.4711 C   0  0  0  0  0  0  0  0  0  0  0  0
   -3.4336   -2.2354    1.1641 H   0  0  0  0  0  0  0  0  0  0  0  0
   -3.2256   -2.7344   -0.5349 H   0  0  0  0  0  0  0  0  0  0  0  0
   -1.4126   -2.2444    0.4801 C   0  0  0  0  0  0  0  0  0  0  0  0
   -0.4686   -2.9534    0.8001 O   0  0  0  0  0  0  0  0  0  0  0  0
   -1.2736   -0.9704    0.1241 N   0  0  0  0  0  0  0  0  0  0  0  0
   -2.0996   -0.4354   -0.1019 H   0  0  0  0  0  0  0  0  0  0  0  0
   -0.0016   -0.2394    0.1271 C   0  0  1  0  0  0  0  0  0  0  0  0
    0.6995   -0.7619   -0.5275 H   0  0  0  0  0  0  0  0  0  0  0  0
   -0.2283    1.1832   -0.4215 C   0  0  0  0  0  0  0  0  0  0  0  0
   -0.4872    1.8521    0.4002 H   0  0  0  0  0  0  0  0  0  0  0  0
    0.6915    1.5521   -0.8767 H   0  0  0  0  0  0  0  0  0  0  0  0
   -1.3613    1.2676   -1.4398 C   0  0  0  0  0  0  0  0  0  0  0  0
   -1.5470    0.4886   -2.3655 O   0  0  0  0  0  0  0  0  0  0  0  0
   -2.1975    2.3086   -1.2689 O   0  0  0  0  0  0  0  0  0  0  0  0
   -2.8611    2.2276   -1.9547 H   0  0  0  0  0  0  0  0  0  0  0  0
    0.5920   -0.2154    1.5497 C   0  0  0  0  0  0  0  0  0  0  0  0
    1.7860   -0.4596    1.7183 O   0  0  0  0  0  0  0  0  0  0  0  0
   -0.2294    0.0669    2.5672 N   0  0  0  0  0  0  0  0  0  0  0  0
   -1.2130    0.1938    2.3518 H   0  0  0  0  0  0  0  0  0  0  0  0
    0.1836    0.1337    3.9673 C   0  0  0  0  0  0  0  0  0  0  0  0
    1.0451    0.7976    4.0666 H   0  0  0  0  0  0  0  0  0  0  0  0
   -0.6344    0.5115    4.5820 H   0  0  0  0  0  0  0  0  0  0  0  0
    0.4676   -0.8609    4.3157 H   0  0  0  0  0  0  0  0  0  0  0  0
  5  6  2  0  0  0  0
  5  7  1  0  0  0  0
  2  3  1  0  0  0  0
  2  4  1  0  0  0  0
  2  5  1  0  0  0  0
  1  2  1  0  0  0  0
 18 19  2  0  0  0  0
 18 20  1  0  0  0  0
 16 17  1  0  0  0  0
 14 15  2  0  0  0  0
 14 16  1  0  0  0  0
 11 12  1  0  0  0  0
 11 13  1  0  0  0  0
 11 14  1  0  0  0  0
  9 10  1  0  0  0  0
  9 11  1  0  0  0  0
  9 18  1  0  0  0  0
  7  8  1  0  0  0  0
  7  9  1  0  0  0  0
 22 23  1  0  0  0  0
 22 24  1  0  0  0  0
 22 25  1  0  0  0  0
 20 21  1  0  0  0  0
 20 22  1  0  0  0  0
M  END
$$$$
default_name
  -OEChem-02102213163D

 25 24  0     1  0  0  0  0  0999 V2000
   -2.7826   -3.8464    0.7821 H   0  0  0  0  0  0  0  0  0  0  0  0
   -2.8156   -2.8034    0.4711 C   0  0  0  0  0  0  0  0  0  0  0  0
   -3.4336   -2.2354    1.1641 H   0  0  0  0  0  0  0  0  0  0  0  0
   -3.2256   -2.7344   -0.5349 H   0  0  0  0  0  0  0  0  0  0  0  0
   -1.4126   -2.2444    0.4801 C   0  0  0  0  0  0  0  0  0  0  0  0
   -0.4686   -2.9534    0.8001 O   0  0  0  0  0  0  0  0  0  0  0  0
   -1.2736   -0.9704    0.1241 N   0  0  0  0  0  0  0  0  0  0  0  0
   -2.0996   -0.4354   -0.1019 H   0  0  0  0  0  0  0  0  0  0  0  0
   -0.0016   -0.2394    0.1271 C   0  0  1  0  0  0  0  0  0  0  0  0
    0.6995   -0.7619   -0.5275 H   0  0  0  0  0  0  0  0  0  0  0  0
   -0.2283    1.1832   -0.4215 C   0  0  0  0  0  0  0  0  0  0  0  0
   -0.4872    1.8521    0.4002 H   0  0  0  0  0  0  0  0  0  0  0  0
    0.6915    1.5521   -0.8767 H   0  0  0  0  0  0  0  0  0  0  0  0
   -1.3613    1.2676   -1.4398 C   0  0  0  0  0  0  0  0  0  0  0  0
   -1.7065    0.3706   -2.1977 O   0  0  0  0  0  0  0  0  0  0  0  0
   -2.0010    2.4515   -1.4757 O   0  0  0  0  0  0  0  0  0  0  0  0
   -2.6897    2.3578   -2.1346 H   0  0  0  0  0  0  0  0  0  0  0  0
    0.5920   -0.2154    1.5497 C   0  0  0  0  0  0  0  0  0  0  0  0
    1.7860   -0.4596    1.7183 O   0  0  0  0  0  0  0  0  0  0  0  0
   -0.2294    0.0669    2.5672 N   0  0  0  0  0  0  0  0  0  0  0  0
   -1.2130    0.1938    2.3518 H   0  0  0  0  0  0  0  0  0  0  0  0
    0.1836    0.1337    3.9673 C   0  0  0  0  0  0  0  0  0  0  0  0
    1.0451    0.7976    4.0666 H   0  0  0  0  0  0  0  0  0  0  0  0
   -0.6344    0.5115    4.5820 H   0  0  0  0  0  0  0  0  0  0  0  0
    0.4676   -0.8609    4.3157 H   0  0  0  0  0  0  0  0  0  0  0  0
  5  6  2  0  0  0  0
  5  7  1  0  0  0  0
  2  3  1  0  0  0  0
  2  4  1  0  0  0  0
  2  5  1  0  0  0  0
  1  2  1  0  0  0  0
 18 19  2  0  0  0  0
 18 20  1  0  0  0  0
 16 17  1  0  0  0  0
 14 15  2  0  0  0  0
 14 16  1  0  0  0  0
 11 12  1  0  0  0  0
 11 13  1  0  0  0  0
 11 14  1  0  0  0  0
  9 10  1  0  0  0  0
  9 11  1  0  0  0  0
  9 18  1  0  0  0  0
  7  8  1  0  0  0  0
  7  9  1  0  0  0  0
 22 23  1  0  0  0  0
 22 24  1  0  0  0  0
 22 25  1  0  0  0  0
 20 21  1  0  0  0  0
 20 22  1  0  0  0  0
M  END
$$$$
default_name
  -OEChem-02102213163D

 25 24  0     1  0  0  0  0  0999 V2000
   -2.7826   -3.8464    0.7821 H   0  0  0  0  0  0  0  0  0  0  0  0
   -2.8156   -2.8034    0.4711 C   0  0  0  0  0  0  0  0  0  0  0  0
   -3.4336   -2.2354    1.1641 H   0  0  0  0  0  0  0  0  0  0  0  0
   -3.2256   -2.7344   -0.5349 H   0  0  0  0  0  0  0  0  0  0  0  0
   -1.4126   -2.2444    0.4801 C   0  0  0  0  0  0  0  0  0  0  0  0
   -0.4686   -2.9534    0.8001 O   0  0  0  0  0  0  0  0  0  0  0  0
   -1.2736   -0.9704    0.1241 N   0  0  0  0  0  0  0  0  0  0  0  0
   -2.0996   -0.4354   -0.1019 H   0  0  0  0  0  0  0  0  0  0  0  0
   -0.0016   -0.2394    0.1271 C   0  0  1  0  0  0  0  0  0  0  0  0
    0.6995   -0.7619   -0.5275 H   0  0  0  0  0  0  0  0  0  0  0  0
   -0.2283    1.1832   -0.4215 C   0  0  0  0  0  0  0  0  0  0  0  0
   -0.4872    1.8521    0.4002 H   0  0  0  0  0  0  0  0  0  0  0  0
    0.6915    1.5521   -0.8767 H   0  0  0  0  0  0  0  0  0  0  0  0
   -1.3613    1.2676   -1.4398 C   0  0  0  0  0  0  0  0  0  0  0  0
   -1.8786    0.3165   -2.0108 O   0  0  0  0  0  0  0  0  0  0  0  0
   -1.7896    2.5158   -1.7057 O   0  0  0  0  0  0  0  0  0  0  0  0
   -2.5043    2.4194   -2.3357 H   0  0  0  0  0  0  0  0  0  0  0  0
    0.5920   -0.2154    1.5497 C   0  0  0  0  0  0  0  0  0  0  0  0
    1.7860   -0.4596    1.7183 O   0  0  0  0  0  0  0  0  0  0  0  0
   -0.2294    0.0669    2.5672 N   0  0  0  0  0  0  0  0  0  0  0  0
   -1.2130    0.1938    2.3518 H   0  0  0  0  0  0  0  0  0  0  0  0
    0.1836    0.1337    3.9673 C   0  0  0  0  0  0  0  0  0  0  0  0
    1.0451    0.7976    4.0666 H   0  0  0  0  0  0  0  0  0  0  0  0
   -0.6344    0.5115    4.5820 H   0  0  0  0  0  0  0  0  0  0  0  0
    0.4676   -0.8609    4.3157 H   0  0  0  0  0  0  0  0  0  0  0  0
  5  6  2  0  0  0  0
  5  7  1  0  0  0  0
  2  3  1  0  0  0  0
  2  4  1  0  0  0  0
  2  5  1  0  0  0  0
  1  2  1  0  0  0  0
 18 19  2  0  0  0  0
 18 20  1  0  0  0  0
 16 17  1  0  0  0  0
 14 15  2  0  0  0  0
 14 16  1  0  0  0  0
 11 12  1  0  0  0  0
 11 13  1  0  0  0  0
 11 14  1  0  0  0  0
  9 10  1  0  0  0  0
  9 11  1  0  0  0  0
  9 18  1  0  0  0  0
  7  8  1  0  0  0  0
  7  9  1  0  0  0  0
 22 23  1  0  0  0  0
 22 24  1  0  0  0  0
 22 25  1  0  0  0  0
 20 21  1  0  0  0  0
 20 22  1  0  0  0  0
M  END
$$$$
default_name
  -OEChem-02102213163D

 25 24  0     1  0  0  0  0  0999 V2000
   -2.7826   -3.8464    0.7821 H   0  0  0  0  0  0  0  0  0  0  0  0
   -2.8156   -2.8034    0.4711 C   0  0  0  0  0  0  0  0  0  0  0  0
   -3.4336   -2.2354    1.1641 H   0  0  0  0  0  0  0  0  0  0  0  0
   -3.2256   -2.7344   -0.5349 H   0  0  0  0  0  0  0  0  0  0  0  0
   -1.4126   -2.2444    0.4801 C   0  0  0  0  0  0  0  0  0  0  0  0
   -0.4686   -2.9534    0.8001 O   0  0  0  0  0  0  0  0  0  0  0  0
   -1.2736   -0.9704    0.1241 N   0  0  0  0  0  0  0  0  0  0  0  0
   -2.0996   -0.4354   -0.1019 H   0  0  0  0  0  0  0  0  0  0  0  0
   -0.0016   -0.2394    0.1271 C   0  0  1  0  0  0  0  0  0  0  0  0
    0.6995   -0.7619   -0.5275 H   0  0  0  0  0  0  0  0  0  0  0  0
   -0.2283    1.1832   -0.4215 C   0  0  0  0  0  0  0  0  0  0  0  0
   -0.4872    1.8521    0.4002 H   0  0  0  0  0  0  0  0  0  0  0  0
    0.6915    1.5521   -0.8767 H   0  0  0  0  0  0  0  0  0  0  0  0
   -1.3613    1.2676   -1.4398 C   0  0  0  0  0  0  0  0  0  0  0  0
   -2.0515    0.3298   -1.8173 O   0  0  0  0  0  0  0  0  0  0  0  0
   -1.5775    2.4972   -1.9432 O   0  0  0  0  0  0  0  0  0  0  0  0
   -2.3175    2.4082   -2.5446 H   0  0  0  0  0  0  0  0  0  0  0  0
    0.5920   -0.2154    1.5497 C   0  0  0  0  0  0  0  0  0  0  0  0
    1.7860   -0.4596    1.7183 O   0  0  0  0  0  0  0  0  0  0  0  0
   -0.2294    0.0669    2.5672 N   0  0  0  0  0  0  0  0  0  0  0  0
   -1.2130    0.1938    2.3518 H   0  0  0  0  0  0  0  0  0  0  0  0
    0.1836    0.1337    3.9673 C   0  0  0  0  0  0  0  0  0  0  0  0
    1.0451    0.7976    4.0666 H   0  0  0  0  0  0  0  0  0  0  0  0
   -0.6344    0.5115    4.5820 H   0  0  0  0  0  0  0  0  0  0  0  0
    0.4676   -0.8609    4.3157 H   0  0  0  0  0  0  0  0  0  0  0  0
  5  6  2  0  0  0  0
  5  7  1  0  0  0  0
  2  3  1  0  0  0  0
  2  4  1  0  0  0  0
  2  5  1  0  0  0  0
  1  2  1  0  0  0  0
 18 19  2  0  0  0  0
 18 20  1  0  0  0  0
 16 17  1  0  0  0  0
 14 15  2  0  0  0  0
 14 16  1  0  0  0  0
 11 12  1  0  0  0  0
 11 13  1  0  0  0  0
 11 14  1  0  0  0  0
  9 10  1  0  0  0  0
  9 11  1  0  0  0  0
  9 18  1  0  0  0  0
  7  8  1  0  0  0  0
  7  9  1  0  0  0  0
 22 23  1  0  0  0  0
 22 24  1  0  0  0  0
 22 25  1  0  0  0  0
 20 21  1  0  0  0  0
 20 22  1  0  0  0  0
M  END
$$$$
default_name
  -OEChem-02102213163D

 25 24  0     1  0  0  0  0  0999 V2000
   -2.7826   -3.8464    0.7821 H   0  0  0  0  0  0  0  0  0  0  0  0
   -2.8156   -2.8034    0.4711 C   0  0  0  0  0  0  0  0  0  0  0  0
   -3.4336   -2.2354    1.1641 H   0  0  0  0  0  0  0  0  0  0  0  0
   -3.2256   -2.7344   -0.5349 H   0  0  0  0  0  0  0  0  0  0  0  0
   -1.4126   -2.2444    0.4801 C   0  0  0  0  0  0  0  0  0  0  0  0
   -0.4686   -2.9534    0.8001 O   0  0  0  0  0  0  0  0  0  0  0  0
   -1.2736   -0.9704    0.1241 N   0  0  0  0  0  0  0  0  0  0  0  0
   -2.0996   -0.4354   -0.1019 H   0  0  0  0  0  0  0  0  0  0  0  0
   -0.0016   -0.2394    0.1271 C   0  0  1  0  0  0  0  0  0  0  0  0
    0.6995   -0.7619   -0.5275 H   0  0  0  0  0  0  0  0  0  0  0  0
   -0.2283    1.1832   -0.4215 C   0  0  0  0  0  0  0  0  0  0  0  0
   -0.4872    1.8521    0.4002 H   0  0  0  0  0  0  0  0  0  0  0  0
    0.6915    1.5521   -0.8767 H   0  0  0  0  0  0  0  0  0  0  0  0
   -1.3613    1.2676   -1.4398 C   0  0  0  0  0  0  0  0  0  0  0  0
   -2.2134    0.4098   -1.6305 O   0  0  0  0  0  0  0  0  0  0  0  0
   -1.3792    2.3969   -2.1721 O   0  0  0  0  0  0  0  0  0  0  0  0
   -2.1419    2.3250   -2.7468 H   0  0  0  0  0  0  0  0  0  0  0  0
    0.5920   -0.2154    1.5497 C   0  0  0  0  0  0  0  0  0  0  0  0
    1.7860   -0.4596    1.7183 O   0  0  0  0  0  0  0  0  0  0  0  0
   -0.2294    0.0669    2.5672 N   0  0  0  0  0  0  0  0  0  0  0  0
   -1.2130    0.1938    2.3518 H   0  0  0  0  0  0  0  0  0  0  0  0
    0.1836    0.1337    3.9673 C   0  0  0  0  0  0  0  0  0  0  0  0
    1.0451    0.7976    4.0666 H   0  0  0  0  0  0  0  0  0  0  0  0
   -0.6344    0.5115    4.5820 H   0  0  0  0  0  0  0  0  0  0  0  0
    0.4676   -0.8609    4.3157 H   0  0  0  0  0  0  0  0  0  0  0  0
  5  6  2  0  0  0  0
  5  7  1  0  0  0  0
  2  3  1  0  0  0  0
  2  4  1  0  0  0  0
  2  5  1  0  0  0  0
  1  2  1  0  0  0  0
 18 19  2  0  0  0  0
 18 20  1  0  0  0  0
 16 17  1  0  0  0  0
 14 15  2  0  0  0  0
 14 16  1  0  0  0  0
 11 12  1  0  0  0  0
 11 13  1  0  0  0  0
 11 14  1  0  0  0  0
  9 10  1  0  0  0  0
  9 11  1  0  0  0  0
  9 18  1  0  0  0  0
  7  8  1  0  0  0  0
  7  9  1  0  0  0  0
 22 23  1  0  0  0  0
 22 24  1  0  0  0  0
 22 25  1  0  0  0  0
 20 21  1  0  0  0  0
 20 22  1  0  0  0  0
M  END
$$$$
default_name
  -OEChem-02102213163D

 25 24  0     1  0  0  0  0  0999 V2000
   -2.7826   -3.8464    0.7821 H   0  0  0  0  0  0  0  0  0  0  0  0
   -2.8156   -2.8034    0.4711 C   0  0  0  0  0  0  0  0  0  0  0  0
   -3.4336   -2.2354    1.1641 H   0  0  0  0  0  0  0  0  0  0  0  0
   -3.2256   -2.7344   -0.5349 H   0  0  0  0  0  0  0  0  0  0  0  0
   -1.4126   -2.2444    0.4801 C   0  0  0  0  0  0  0  0  0  0  0  0
   -0.4686   -2.9534    0.8001 O   0  0  0  0  0  0  0  0  0  0  0  0
   -1.2736   -0.9704    0.1241 N   0  0  0  0  0  0  0  0  0  0  0  0
   -2.0996   -0.4354   -0.1019 H   0  0  0  0  0  0  0  0  0  0  0  0
   -0.0016   -0.2394    0.1271 C   0  0  1  0  0  0  0  0  0  0  0  0
    0.6995   -0.7619   -0.5275 H   0  0  0  0  0  0  0  0  0  0  0  0
   -0.2283    1.1832   -0.4215 C   0  0  0  0  0  0  0  0  0  0  0  0
   -0.4872    1.8521    0.4002 H   0  0  0  0  0  0  0  0  0  0  0  0
    0.6915    1.5521   -0.8767 H   0  0  0  0  0  0  0  0  0  0  0  0
   -1.3613    1.2676   -1.4398 C   0  0  0  0  0  0  0  0  0  0  0  0
   -2.3533    0.5509   -1.4631 O   0  0  0  0  0  0  0  0  0  0  0  0
   -1.2083    2.2219   -2.3768 O   0  0  0  0  0  0  0  0  0  0  0  0
   -1.9896    2.1755   -2.9287 H   0  0  0  0  0  0  0  0  0  0  0  0
    0.5920   -0.2154    1.5497 C   0  0  0  0  0  0  0  0  0  0  0  0
    1.7860   -0.4596    1.7183 O   0  0  0  0  0  0  0  0  0  0  0  0
   -0.2294    0.0669    2.5672 N   0  0  0  0  0  0  0  0  0  0  0  0
   -1.2130    0.1938    2.3518 H   0  0  0  0  0  0  0  0  0  0  0  0
    0.1836    0.1337    3.9673 C   0  0  0  0  0  0  0  0  0  0  0  0
    1.0451    0.7976    4.0666 H   0  0  0  0  0  0  0  0  0  0  0  0
   -0.6344    0.5115    4.5820 H   0  0  0  0  0  0  0  0  0  0  0  0
    0.4676   -0.8609    4.3157 H   0  0  0  0  0  0  0  0  0  0  0  0
  5  6  2  0  0  0  0
  5  7  1  0  0  0  0
  2  3  1  0  0  0  0
  2  4  1  0  0  0  0
  2  5  1  0  0  0  0
  1  2  1  0  0  0  0
 18 19  2  0  0  0  0
 18 20  1  0  0  0  0
 16 17  1  0  0  0  0
 14 15  2  0  0  0  0
 14 16  1  0  0  0  0
 11 12  1  0  0  0  0
 11 13  1  0  0  0  0
 11 14  1  0  0  0  0
  9 10  1  0  0  0  0
  9 11  1  0  0  0  0
  9 18  1  0  0  0  0
  7  8  1  0  0  0  0
  7  9  1  0  0  0  0
 22 23  1  0  0  0  0
 22 24  1  0  0  0  0
 22 25  1  0  0  0  0
 20 21  1  0  0  0  0
 20 22  1  0  0  0  0
M  END
$$$$
default_name
  -OEChem-02102213163D

 25 24  0     1  0  0  0  0  0999 V2000
   -2.7826   -3.8464    0.7821 H   0  0  0  0  0  0  0  0  0  0  0  0
   -2.8156   -2.8034    0.4711 C   0  0  0  0  0  0  0  0  0  0  0  0
   -3.4336   -2.2354    1.1641 H   0  0  0  0  0  0  0  0  0  0  0  0
   -3.2256   -2.7344   -0.5349 H   0  0  0  0  0  0  0  0  0  0  0  0
   -1.4126   -2.2444    0.4801 C   0  0  0  0  0  0  0  0  0  0  0  0
   -0.4686   -2.9534    0.8001 O   0  0  0  0  0  0  0  0  0  0  0  0
   -1.2736   -0.9704    0.1241 N   0  0  0  0  0  0  0  0  0  0  0  0
   -2.0996   -0.4354   -0.1019 H   0  0  0  0  0  0  0  0  0  0  0  0
   -0.0016   -0.2394    0.1271 C   0  0  1  0  0  0  0  0  0  0  0  0
    0.6995   -0.7619   -0.5275 H   0  0  0  0  0  0  0  0  0  0  0  0
   -0.2283    1.1832   -0.4215 C   0  0  0  0  0  0  0  0  0  0  0  0
   -0.4872    1.8521    0.4002 H   0  0  0  0  0  0  0  0  0  0  0  0
    0.6915    1.5521   -0.8767 H   0  0  0  0  0  0  0  0  0  0  0  0
   -1.3613    1.2676   -1.4398 C   0  0  0  0  0  0  0  0  0  0  0  0
   -2.4617    0.7435   -1.3265 O   0  0  0  0  0  0  0  0  0  0  0  0
   -1.0764    1.9839   -2.5433 O   0  0  0  0  0  0  0  0  0  0  0  0
   -1.8710    1.9697   -3.0778 H   0  0  0  0  0  0  0  0  0  0  0  0
    0.5920   -0.2154    1.5497 C   0  0  0  0  0  0  0  0  0  0  0  0
    1.7860   -0.4596    1.7183 O   0  0  0  0  0  0  0  0  0  0  0  0
   -0.2294    0.0669    2.5672 N   0  0  0  0  0  0  0  0  0  0  0  0
   -1.2130    0.1938    2.3518 H   0  0  0  0  0  0  0  0  0  0  0  0
    0.1836    0.1337    3.9673 C   0  0  0  0  0  0  0  0  0  0  0  0
    1.0451    0.7976    4.0666 H   0  0  0  0  0  0  0  0  0  0  0  0
   -0.6344    0.5115    4.5820 H   0  0  0  0  0  0  0  0  0  0  0  0
    0.4676   -0.8609    4.3157 H   0  0  0  0  0  0  0  0  0  0  0  0
  5  6  2  0  0  0  0
  5  7  1  0  0  0  0
  2  3  1  0  0  0  0
  2  4  1  0  0  0  0
  2  5  1  0  0  0  0
  1  2  1  0  0  0  0
 18 19  2  0  0  0  0
 18 20  1  0  0  0  0
 16 17  1  0  0  0  0
 14 15  2  0  0  0  0
 14 16  1  0  0  0  0
 11 12  1  0  0  0  0
 11 13  1  0  0  0  0
 11 14  1  0  0  0  0
  9 10  1  0  0  0  0
  9 11  1  0  0  0  0
  9 18  1  0  0  0  0
  7  8  1  0  0  0  0
  7  9  1  0  0  0  0
 22 23  1  0  0  0  0
 22 24  1  0  0  0  0
 22 25  1  0  0  0  0
 20 21  1  0  0  0  0
 20 22  1  0  0  0  0
M  END
$$$$
default_name
  -OEChem-02102213163D

 25 24  0     1  0  0  0  0  0999 V2000
   -2.7826   -3.8464    0.7821 H   0  0  0  0  0  0  0  0  0  0  0  0
   -2.8156   -2.8034    0.4711 C   0  0  0  0  0  0  0  0  0  0  0  0
   -3.4336   -2.2354    1.1641 H   0  0  0  0  0  0  0  0  0  0  0  0
   -3.2256   -2.7344   -0.5349 H   0  0  0  0  0  0  0  0  0  0  0  0
   -1.4126   -2.2444    0.4801 C   0  0  0  0  0  0  0  0  0  0  0  0
   -0.4686   -2.9534    0.8001 O   0  0  0  0  0  0  0  0  0  0  0  0
   -1.2736   -0.9704    0.1241 N   0  0  0  0  0  0  0  0  0  0  0  0
   -2.0996   -0.4354   -0.1019 H   0  0  0  0  0  0  0  0  0  0  0  0
   -0.0016   -0.2394    0.1271 C   0  0  1  0  0  0  0  0  0  0  0  0
    0.6995   -0.7619   -0.5275 H   0  0  0  0  0  0  0  0  0  0  0  0
   -0.2283    1.1832   -0.4215 C   0  0  0  0  0  0  0  0  0  0  0  0
   -0.4872    1.8521    0.4002 H   0  0  0  0  0  0  0  0  0  0  0  0
    0.6915    1.5521   -0.8767 H   0  0  0  0  0  0  0  0  0  0  0  0
   -1.3613    1.2676   -1.4398 C   0  0  0  0  0  0  0  0  0  0  0  0
   -2.5311    0.9745   -1.2301 O   0  0  0  0  0  0  0  0  0  0  0  0
   -0.9925    1.6992   -2.6603 O   0  0  0  0  0  0  0  0  0  0  0  0
   -1.7940    1.7219   -3.1840 H   0  0  0  0  0  0  0  0  0  0  0  0
    0.5920   -0.2154    1.5497 C   0  0  0  0  0  0  0  0  0  0  0  0
    1.7860   -0.4596    1.7183 O   0  0  0  0  0  0  0  0  0  0  0  0
   -0.2294    0.0669    2.5672 N   0  0  0  0  0  0  0  0  0  0  0  0
   -1.2130    0.1938    2.3518 H   0  0  0  0  0  0  0  0  0  0  0  0
    0.1836    0.1337    3.9673 C   0  0  0  0  0  0  0  0  0  0  0  0
    1.0451    0.7976    4.0666 H   0  0  0  0  0  0  0  0  0  0  0  0
   -0.6344    0.5115    4.5820 H   0  0  0  0  0  0  0  0  0  0  0  0
    0.4676   -0.8609    4.3157 H   0  0  0  0  0  0  0  0  0  0  0  0
  5  6  2  0  0  0  0
  5  7  1  0  0  0  0
  2  3  1  0  0  0  0
  2  4  1  0  0  0  0
  2  5  1  0  0  0  0
  1  2  1  0  0  0  0
 18 19  2  0  0  0  0
 18 20  1  0  0  0  0
 16 17  1  0  0  0  0
 14 15  2  0  0  0  0
 14 16  1  0  0  0  0
 11 12  1  0  0  0  0
 11 13  1  0  0  0  0
 11 14  1  0  0  0  0
  9 10  1  0  0  0  0
  9 11  1  0  0  0  0
  9 18  1  0  0  0  0
  7  8  1  0  0  0  0
  7  9  1  0  0  0  0
 22 23  1  0  0  0  0
 22 24  1  0  0  0  0
 22 25  1  0  0  0  0
 20 21  1  0  0  0  0
 20 22  1  0  0  0  0
M  END
$$$$
default_name
  -OEChem-02102213163D

 25 24  0     1  0  0  0  0  0999 V2000
   -2.7826   -3.8464    0.7821 H   0  0  0  0  0  0  0  0  0  0  0  0
   -2.8156   -2.8034    0.4711 C   0  0  0  0  0  0  0  0  0  0  0  0
   -3.4336   -2.2354    1.1641 H   0  0  0  0  0  0  0  0  0  0  0  0
   -3.2256   -2.7344   -0.5349 H   0  0  0  0  0  0  0  0  0  0  0  0
   -1.4126   -2.2444    0.4801 C   0  0  0  0  0  0  0  0  0  0  0  0
   -0.4686   -2.9534    0.8001 O   0  0  0  0  0  0  0  0  0  0  0  0
   -1.2736   -0.9704    0.1241 N   0  0  0  0  0  0  0  0  0  0  0  0
   -2.0996   -0.4354   -0.1019 H   0  0  0  0  0  0  0  0  0  0  0  0
   -0.0016   -0.2394    0.1271 C   0  0  1  0  0  0  0  0  0  0  0  0
    0.6995   -0.7619   -0.5275 H   0  0  0  0  0  0  0  0  0  0  0  0
   -0.2283    1.1832   -0.4215 C   0  0  0  0  0  0  0  0  0  0  0  0
   -0.4872    1.8521    0.4002 H   0  0  0  0  0  0  0  0  0  0  0  0
    0.6915    1.5521   -0.8767 H   0  0  0  0  0  0  0  0  0  0  0  0
   -1.3613    1.2676   -1.4398 C   0  0  0  0  0  0  0  0  0  0  0  0
   -2.5569    1.2283   -1.1803 O   0  0  0  0  0  0  0  0  0  0  0  0
   -0.9623    1.3872   -2.7198 O   0  0  0  0  0  0  0  0  0  0  0  0
   -1.7640    1.4487   -3.2400 H   0  0  0  0  0  0  0  0  0  0  0  0
    0.5920   -0.2154    1.5497 C   0  0  0  0  0  0  0  0  0  0  0  0
    1.7860   -0.4596    1.7183 O   0  0  0  0  0  0  0  0  0  0  0  0
   -0.2294    0.0669    2.5672 N   0  0  0  0  0  0  0  0  0  0  0  0
   -1.2130    0.1938    2.3518 H   0  0  0  0  0  0  0  0  0  0  0  0
    0.1836    0.1337    3.9673 C   0  0  0  0  0  0  0  0  0  0  0  0
    1.0451    0.7976    4.0666 H   0  0  0  0  0  0  0  0  0  0  0  0
   -0.6344    0.5115    4.5820 H   0  0  0  0  0  0  0  0  0  0  0  0
    0.4676   -0.8609    4.3157 H   0  0  0  0  0  0  0  0  0  0  0  0
  5  6  2  0  0  0  0
  5  7  1  0  0  0  0
  2  3  1  0  0  0  0
  2  4  1  0  0  0  0
  2  5  1  0  0  0  0
  1  2  1  0  0  0  0
 18 19  2  0  0  0  0
 18 20  1  0  0  0  0
 16 17  1  0  0  0  0
 14 15  2  0  0  0  0
 14 16  1  0  0  0  0
 11 12  1  0  0  0  0
 11 13  1  0  0  0  0
 11 14  1  0  0  0  0
  9 10  1  0  0  0  0
  9 11  1  0  0  0  0
  9 18  1  0  0  0  0
  7  8  1  0  0  0  0
  7  9  1  0  0  0  0
 22 23  1  0  0  0  0
 22 24  1  0  0  0  0
 22 25  1  0  0  0  0
 20 21  1  0  0  0  0
 20 22  1  0  0  0  0
M  END
$$$$
default_name
  -OEChem-02102213163D

 25 24  0     1  0  0  0  0  0999 V2000
   -2.7826   -3.8464    0.7821 H   0  0  0  0  0  0  0  0  0  0  0  0
   -2.8156   -2.8034    0.4711 C   0  0  0  0  0  0  0  0  0  0  0  0
   -3.4336   -2.2354    1.1641 H   0  0  0  0  0  0  0  0  0  0  0  0
   -3.2256   -2.7344   -0.5349 H   0  0  0  0  0  0  0  0  0  0  0  0
   -1.4126   -2.2444    0.4801 C   0  0  0  0  0  0  0  0  0  0  0  0
   -0.4686   -2.9534    0.8001 O   0  0  0  0  0  0  0  0  0  0  0  0
   -1.2736   -0.9704    0.1241 N   0  0  0  0  0  0  0  0  0  0  0  0
   -2.0996   -0.4354   -0.1019 H   0  0  0  0  0  0  0  0  0  0  0  0
   -0.0016   -0.2394    0.1271 C   0  0  1  0  0  0  0  0  0  0  0  0
    0.6995   -0.7619   -0.5275 H   0  0  0  0  0  0  0  0  0  0  0  0
   -0.2283    1.1832   -0.4215 C   0  0  0  0  0  0  0  0  0  0  0  0
   -0.4872    1.8521    0.4002 H   0  0  0  0  0  0  0  0  0  0  0  0
    0.6915    1.5521   -0.8767 H   0  0  0  0  0  0  0  0  0  0  0  0
   -1.3613    1.2676   -1.4398 C   0  0  0  0  0  0  0  0  0  0  0  0
   -2.5373    1.4873   -1.1807 O   0  0  0  0  0  0  0  0  0  0  0  0
   -0.9878    1.0693   -2.7177 O   0  0  0  0  0  0  0  0  0  0  0  0
   -1.7830    1.1689   -3.2421 H   0  0  0  0  0  0  0  0  0  0  0  0
    0.5920   -0.2154    1.5497 C   0  0  0  0  0  0  0  0  0  0  0  0
    1.7860   -0.4596    1.7183 O   0  0  0  0  0  0  0  0  0  0  0  0
   -0.2294    0.0669    2.5672 N   0  0  0  0  0  0  0  0  0  0  0  0
   -1.2130    0.1938    2.3518 H   0  0  0  0  0  0  0  0  0  0  0  0
    0.1836    0.1337    3.9673 C   0  0  0  0  0  0  0  0  0  0  0  0
    1.0451    0.7976    4.0666 H   0  0  0  0  0  0  0  0  0  0  0  0
   -0.6344    0.5115    4.5820 H   0  0  0  0  0  0  0  0  0  0  0  0
    0.4676   -0.8609    4.3157 H   0  0  0  0  0  0  0  0  0  0  0  0
  5  6  2  0  0  0  0
  5  7  1  0  0  0  0
  2  3  1  0  0  0  0
  2  4  1  0  0  0  0
  2  5  1  0  0  0  0
  1  2  1  0  0  0  0
 18 19  2  0  0  0  0
 18 20  1  0  0  0  0
 16 17  1  0  0  0  0
 14 15  2  0  0  0  0
 14 16  1  0  0  0  0
 11 12  1  0  0  0  0
 11 13  1  0  0  0  0
 11 14  1  0  0  0  0
  9 10  1  0  0  0  0
  9 11  1  0  0  0  0
  9 18  1  0  0  0  0
  7  8  1  0  0  0  0
  7  9  1  0  0  0  0
 22 23  1  0  0  0  0
 22 24  1  0  0  0  0
 22 25  1  0  0  0  0
 20 21  1  0  0  0  0
 20 22  1  0  0  0  0
M  END
$$$$
default_name
  -OEChem-02102213163D

 25 24  0     1  0  0  0  0  0999 V2000
   -2.7826   -3.8464    0.7821 H   0  0  0  0  0  0  0  0  0  0  0  0
   -2.8156   -2.8034    0.4711 C   0  0  0  0  0  0  0  0  0  0  0  0
   -3.4336   -2.2354    1.1641 H   0  0  0  0  0  0  0  0  0  0  0  0
   -3.2256   -2.7344   -0.5349 H   0  0  0  0  0  0  0  0  0  0  0  0
   -1.4126   -2.2444    0.4801 C   0  0  0  0  0  0  0  0  0  0  0  0
   -0.4686   -2.9534    0.8001 O   0  0  0  0  0  0  0  0  0  0  0  0
   -1.2736   -0.9704    0.1241 N   0  0  0  0  0  0  0  0  0  0  0  0
   -2.0996   -0.4354   -0.1019 H   0  0  0  0  0  0  0  0  0  0  0  0
   -0.0016   -0.2394    0.1271 C   0  0  1  0  0  0  0  0  0  0  0  0
    0.6995   -0.7619   -0.5275 H   0  0  0  0  0  0  0  0  0  0  0  0
   -0.2283    1.1832   -0.4215 C   0  0  0  0  0  0  0  0  0  0  0  0
   -0.4872    1.8521    0.4002 H   0  0  0  0  0  0  0  0  0  0  0  0
    0.6915    1.5521   -0.8767 H   0  0  0  0  0  0  0  0  0  0  0  0
   -1.3613    1.2676   -1.4398 C   0  0  0  0  0  0  0  0  0  0  0  0
   -2.4736    1.7341   -1.2311 O   0  0  0  0  0  0  0  0  0  0  0  0
   -1.0674    0.7669   -2.6542 O   0  0  0  0  0  0  0  0  0  0  0  0
   -1.8497    0.9016   -3.1900 H   0  0  0  0  0  0  0  0  0  0  0  0
    0.5920   -0.2154    1.5497 C   0  0  0  0  0  0  0  0  0  0  0  0
    1.7860   -0.4596    1.7183 O   0  0  0  0  0  0  0  0  0  0  0  0
   -0.2294    0.0669    2.5672 N   0  0  0  0  0  0  0  0  0  0  0  0
   -1.2130    0.1938    2.3518 H   0  0  0  0  0  0  0  0  0  0  0  0
    0.1836    0.1337    3.9673 C   0  0  0  0  0  0  0  0  0  0  0  0
    1.0451    0.7976    4.0666 H   0  0  0  0  0  0  0  0  0  0  0  0
   -0.6344    0.5115    4.5820 H   0  0  0  0  0  0  0  0  0  0  0  0
    0.4676   -0.8609    4.3157 H   0  0  0  0  0  0  0  0  0  0  0  0
  5  6  2  0  0  0  0
  5  7  1  0  0  0  0
  2  3  1  0  0  0  0
  2  4  1  0  0  0  0
  2  5  1  0  0  0  0
  1  2  1  0  0  0  0
 18 19  2  0  0  0  0
 18 20  1  0  0  0  0
 16 17  1  0  0  0  0
 14 15  2  0  0  0  0
 14 16  1  0  0  0  0
 11 12  1  0  0  0  0
 11 13  1  0  0  0  0
 11 14  1  0  0  0  0
  9 10  1  0  0  0  0
  9 11  1  0  0  0  0
  9 18  1  0  0  0  0
  7  8  1  0  0  0  0
  7  9  1  0  0  0  0
 22 23  1  0  0  0  0
 22 24  1  0  0  0  0
 22 25  1  0  0  0  0
 20 21  1  0  0  0  0
 20 22  1  0  0  0  0
M  END
$$$$
default_name
  -OEChem-02102213163D

 25 24  0     1  0  0  0  0  0999 V2000
   -2.7826   -3.8464    0.7821 H   0  0  0  0  0  0  0  0  0  0  0  0
   -2.8156   -2.8034    0.4711 C   0  0  0  0  0  0  0  0  0  0  0  0
   -3.4336   -2.2354    1.1641 H   0  0  0  0  0  0  0  0  0  0  0  0
   -3.2256   -2.7344   -0.5349 H   0  0  0  0  0  0  0  0  0  0  0  0
   -1.4126   -2.2444    0.4801 C   0  0  0  0  0  0  0  0  0  0  0  0
   -0.4686   -2.9534    0.8001 O   0  0  0  0  0  0  0  0  0  0  0  0
   -1.2736   -0.9704    0.1241 N   0  0  0  0  0  0  0  0  0  0  0  0
   -2.0996   -0.4354   -0.1019 H   0  0  0  0  0  0  0  0  0  0  0  0
   -0.0016   -0.2394    0.1271 C   0  0  1  0  0  0  0  0  0  0  0  0
    0.6995   -0.7619   -0.5275 H   0  0  0  0  0  0  0  0  0  0  0  0
   -0.2283    1.1832   -0.4215 C   0  0  0  0  0  0  0  0  0  0  0  0
   -0.4872    1.8521    0.4002 H   0  0  0  0  0  0  0  0  0  0  0  0
    0.6915    1.5521   -0.8767 H   0  0  0  0  0  0  0  0  0  0  0  0
   -1.3613    1.2676   -1.4398 C   0  0  0  0  0  0  0  0  0  0  0  0
   -2.3702    1.9518   -1.3281 O   0  0  0  0  0  0  0  0  0  0  0  0
   -1.1956    0.5009   -2.5337 O   0  0  0  0  0  0  0  0  0  0  0  0
   -1.9596    0.6649   -3.0874 H   0  0  0  0  0  0  0  0  0  0  0  0
    0.5920   -0.2154    1.5497 C   0  0  0  0  0  0  0  0  0  0  0  0
    1.7860   -0.4596    1.7183 O   0  0  0  0  0  0  0  0  0  0  0  0
   -0.2294    0.0669    2.5672 N   0  0  0  0  0  0  0  0  0  0  0  0
   -1.2130    0.1938    2.3518 H   0  0  0  0  0  0  0  0  0  0  0  0
    0.1836    0.1337    3.9673 C   0  0  0  0  0  0  0  0  0  0  0  0
    1.0451    0.7976    4.0666 H   0  0  0  0  0  0  0  0  0  0  0  0
   -0.6344    0.5115    4.5820 H   0  0  0  0  0  0  0  0  0  0  0  0
    0.4676   -0.8609    4.3157 H   0  0  0  0  0  0  0  0  0  0  0  0
  5  6  2  0  0  0  0
  5  7  1  0  0  0  0
  2  3  1  0  0  0  0
  2  4  1  0  0  0  0
  2  5  1  0  0  0  0
  1  2  1  0  0  0  0
 18 19  2  0  0  0  0
 18 20  1  0  0  0  0
 16 17  1  0  0  0  0
 14 15  2  0  0  0  0
 14 16  1  0  0  0  0
 11 12  1  0  0  0  0
 11 13  1  0  0  0  0
 11 14  1  0  0  0  0
  9 10  1  0  0  0  0
  9 11  1  0  0  0  0
  9 18  1  0  0  0  0
  7  8  1  0  0  0  0
  7  9  1  0  0  0  0
 22 23  1  0  0  0  0
 22 24  1  0  0  0  0
 22 25  1  0  0  0  0
 20 21  1  0  0  0  0
 20 22  1  0  0  0  0
M  END
$$$$
default_name
  -OEChem-02102213163D

 25 24  0     1  0  0  0  0  0999 V2000
   -2.7826   -3.8464    0.7821 H   0  0  0  0  0  0  0  0  0  0  0  0
   -2.8156   -2.8034    0.4711 C   0  0  0  0  0  0  0  0  0  0  0  0
   -3.4336   -2.2354    1.1641 H   0  0  0  0  0  0  0  0  0  0  0  0
   -3.2256   -2.7344   -0.5349 H   0  0  0  0  0  0  0  0  0  0  0  0
   -1.4126   -2.2444    0.4801 C   0  0  0  0  0  0  0  0  0  0  0  0
   -0.4686   -2.9534    0.8001 O   0  0  0  0  0  0  0  0  0  0  0  0
   -1.2736   -0.9704    0.1241 N   0  0  0  0  0  0  0  0  0  0  0  0
   -2.0996   -0.4354   -0.1019 H   0  0  0  0  0  0  0  0  0  0  0  0
   -0.0016   -0.2394    0.1271 C   0  0  1  0  0  0  0  0  0  0  0  0
    0.6995   -0.7619   -0.5275 H   0  0  0  0  0  0  0  0  0  0  0  0
   -0.2283    1.1832   -0.4215 C   0  0  0  0  0  0  0  0  0  0  0  0
   -0.4872    1.8521    0.4002 H   0  0  0  0  0  0  0  0  0  0  0  0
    0.6915    1.5521   -0.8767 H   0  0  0  0  0  0  0  0  0  0  0  0
   -1.3613    1.2676   -1.4398 C   0  0  0  0  0  0  0  0  0  0  0  0
   -2.2340    2.1256   -1.4652 O   0  0  0  0  0  0  0  0  0  0  0  0
   -1.3636    0.2892   -2.3642 O   0  0  0  0  0  0  0  0  0  0  0  0
   -2.1052    0.4749   -2.9412 H   0  0  0  0  0  0  0  0  0  0  0  0
    0.5920   -0.2154    1.5497 C   0  0  0  0  0  0  0  0  0  0  0  0
    1.7860   -0.4596    1.7183 O   0  0  0  0  0  0  0  0  0  0  0  0
   -0.2294    0.0669    2.5672 N   0  0  0  0  0  0  0  0  0  0  0  0
   -1.2130    0.1938    2.3518 H   0  0  0  0  0  0  0  0  0  0  0  0
    0.1836    0.1337    3.9673 C   0  0  0  0  0  0  0  0  0  0  0  0
    1.0451    0.7976    4.0666 H   0  0  0  0  0  0  0  0  0  0  0  0
   -0.6344    0.5115    4.5820 H   0  0  0  0  0  0  0  0  0  0  0  0
    0.4676   -0.8609    4.3157 H   0  0  0  0  0  0  0  0  0  0  0  0
  5  6  2  0  0  0  0
  5  7  1  0  0  0  0
  2  3  1  0  0  0  0
  2  4  1  0  0  0  0
  2  5  1  0  0  0  0
  1  2  1  0  0  0  0
 18 19  2  0  0  0  0
 18 20  1  0  0  0  0
 16 17  1  0  0  0  0
 14 15  2  0  0  0  0
 14 16  1  0  0  0  0
 11 12  1  0  0  0  0
 11 13  1  0  0  0  0
 11 14  1  0  0  0  0
  9 10  1  0  0  0  0
  9 11  1  0  0  0  0
  9 18  1  0  0  0  0
  7  8  1  0  0  0  0
  7  9  1  0  0  0  0
 22 23  1  0  0  0  0
 22 24  1  0  0  0  0
 22 25  1  0  0  0  0
 20 21  1  0  0  0  0
 20 22  1  0  0  0  0
M  END
$$$$
default_name
  -OEChem-02102213163D

 25 24  0     1  0  0  0  0  0999 V2000
   -2.7826   -3.8464    0.7821 H   0  0  0  0  0  0  0  0  0  0  0  0
   -2.8156   -2.8034    0.4711 C   0  0  0  0  0  0  0  0  0  0  0  0
   -3.4336   -2.2354    1.1641 H   0  0  0  0  0  0  0  0  0  0  0  0
   -3.2256   -2.7344   -0.5349 H   0  0  0  0  0  0  0  0  0  0  0  0
   -1.4126   -2.2444    0.4801 C   0  0  0  0  0  0  0  0  0  0  0  0
   -0.4686   -2.9534    0.8001 O   0  0  0  0  0  0  0  0  0  0  0  0
   -1.2736   -0.9704    0.1241 N   0  0  0  0  0  0  0  0  0  0  0  0
   -2.0996   -0.4354   -0.1019 H   0  0  0  0  0  0  0  0  0  0  0  0
   -0.0016   -0.2394    0.1271 C   0  0  1  0  0  0  0  0  0  0  0  0
    0.6995   -0.7619   -0.5275 H   0  0  0  0  0  0  0  0  0  0  0  0
   -0.2283    1.1832   -0.4215 C   0  0  0  0  0  0  0  0  0  0  0  0
   -0.4872    1.8521    0.4002 H   0  0  0  0  0  0  0  0  0  0  0  0
    0.6915    1.5521   -0.8767 H   0  0  0  0  0  0  0  0  0  0  0  0
   -1.3613    1.2676   -1.4398 C   0  0  0  0  0  0  0  0  0  0  0  0
   -2.0745    2.2435   -1.6329 O   0  0  0  0  0  0  0  0  0  0  0  0
   -1.5601    0.1463   -2.1575 O   0  0  0  0  0  0  0  0  0  0  0  0
   -2.2765    0.3447   -2.7613 H   0  0  0  0  0  0  0  0  0  0  0  0
    0.5920   -0.2154    1.5497 C   0  0  0  0  0  0  0  0  0  0  0  0
    1.7860   -0.4596    1.7183 O   0  0  0  0  0  0  0  0  0  0  0  0
   -0.2294    0.0669    2.5672 N   0  0  0  0  0  0  0  0  0  0  0  0
   -1.2130    0.1938    2.3518 H   0  0  0  0  0  0  0  0  0  0  0  0
    0.1836    0.1337    3.9673 C   0  0  0  0  0  0  0  0  0  0  0  0
    1.0451    0.7976    4.0666 H   0  0  0  0  0  0  0  0  0  0  0  0
   -0.6344    0.5115    4.5820 H   0  0  0  0  0  0  0  0  0  0  0  0
    0.4676   -0.8609    4.3157 H   0  0  0  0  0  0  0  0  0  0  0  0
  5  6  2  0  0  0  0
  5  7  1  0  0  0  0
  2  3  1  0  0  0  0
  2  4  1  0  0  0  0
  2  5  1  0  0  0  0
  1  2  1  0  0  0  0
 18 19  2  0  0  0  0
 18 20  1  0  0  0  0
 16 17  1  0  0  0  0
 14 15  2  0  0  0  0
 14 16  1  0  0  0  0
 11 12  1  0  0  0  0
 11 13  1  0  0  0  0
 11 14  1  0  0  0  0
  9 10  1  0  0  0  0
  9 11  1  0  0  0  0
  9 18  1  0  0  0  0
  7  8  1  0  0  0  0
  7  9  1  0  0  0  0
 22 23  1  0  0  0  0
 22 24  1  0  0  0  0
 22 25  1  0  0  0  0
 20 21  1  0  0  0  0
 20 22  1  0  0  0  0
M  END
$$$$
default_name
  -OEChem-02102213163D

 25 24  0     1  0  0  0  0  0999 V2000
   -2.7826   -3.8464    0.7821 H   0  0  0  0  0  0  0  0  0  0  0  0
   -2.8156   -2.8034    0.4711 C   0  0  0  0  0  0  0  0  0  0  0  0
   -3.4336   -2.2354    1.1641 H   0  0  0  0  0  0  0  0  0  0  0  0
   -3.2256   -2.7344   -0.5349 H   0  0  0  0  0  0  0  0  0  0  0  0
   -1.4126   -2.2444    0.4801 C   0  0  0  0  0  0  0  0  0  0  0  0
   -0.4686   -2.9534    0.8001 O   0  0  0  0  0  0  0  0  0  0  0  0
   -1.2736   -0.9704    0.1241 N   0  0  0  0  0  0  0  0  0  0  0  0
   -2.0996   -0.4354   -0.1019 H   0  0  0  0  0  0  0  0  0  0  0  0
   -0.0016   -0.2394    0.1271 C   0  0  1  0  0  0  0  0  0  0  0  0
    0.6995   -0.7619   -0.5275 H   0  0  0  0  0  0  0  0  0  0  0  0
   -0.2283    1.1832   -0.4215 C   0  0  0  0  0  0  0  0  0  0  0  0
   -0.4872    1.8521    0.4002 H   0  0  0  0  0  0  0  0  0  0  0  0
    0.6915    1.5521   -0.8767 H   0  0  0  0  0  0  0  0  0  0  0  0
   -1.3613    1.2676   -1.4398 C   0  0  0  0  0  0  0  0  0  0  0  0
   -1.9024    2.2977   -1.8199 O   0  0  0  0  0  0  0  0  0  0  0  0
   -1.7716    0.0820   -1.9275 O   0  0  0  0  0  0  0  0  0  0  0  0
   -2.4619    0.2831   -2.5601 H   0  0  0  0  0  0  0  0  0  0  0  0
    0.5920   -0.2154    1.5497 C   0  0  0  0  0  0  0  0  0  0  0  0
    1.7860   -0.4596    1.7183 O   0  0  0  0  0  0  0  0  0  0  0  0
   -0.2294    0.0669    2.5672 N   0  0  0  0  0  0  0  0  0  0  0  0
   -1.2130    0.1938    2.3518 H   0  0  0  0  0  0  0  0  0  0  0  0
    0.1836    0.1337    3.9673 C   0  0  0  0  0  0  0  0  0  0  0  0
    1.0451    0.7976    4.0666 H   0  0  0  0  0  0  0  0  0  0  0  0
   -0.6344    0.5115    4.5820 H   0  0  0  0  0  0  0  0  0  0  0  0
    0.4676   -0.8609    4.3157 H   0  0  0  0  0  0  0  0  0  0  0  0
  5  6  2  0  0  0  0
  5  7  1  0  0  0  0
  2  3  1  0  0  0  0
  2  4  1  0  0  0  0
  2  5  1  0  0  0  0
  1  2  1  0  0  0  0
 18 19  2  0  0  0  0
 18 20  1  0  0  0  0
 16 17  1  0  0  0  0
 14 15  2  0  0  0  0
 14 16  1  0  0  0  0
 11 12  1  0  0  0  0
 11 13  1  0  0  0  0
 11 14  1  0  0  0  0
  9 10  1  0  0  0  0
  9 11  1  0  0  0  0
  9 18  1  0  0  0  0
  7  8  1  0  0  0  0
  7  9  1  0  0  0  0
 22 23  1  0  0  0  0
 22 24  1  0  0  0  0
 22 25  1  0  0  0  0
 20 21  1  0  0  0  0
 20 22  1  0  0  0  0
M  END
$$$$
default_name
  -OEChem-02102213163D

 25 24  0     1  0  0  0  0  0999 V2000
   -2.7826   -3.8464    0.7821 H   0  0  0  0  0  0  0  0  0  0  0  0
   -2.8156   -2.8034    0.4711 C   0  0  0  0  0  0  0  0  0  0  0  0
   -3.4336   -2.2354    1.1641 H   0  0  0  0  0  0  0  0  0  0  0  0
   -3.2256   -2.7344   -0.5349 H   0  0  0  0  0  0  0  0  0  0  0  0
   -1.4126   -2.2444    0.4801 C   0  0  0  0  0  0  0  0  0  0  0  0
   -0.4686   -2.9534    0.8001 O   0  0  0  0  0  0  0  0  0  0  0  0
   -1.2736   -0.9704    0.1241 N   0  0  0  0  0  0  0  0  0  0  0  0
   -2.0996   -0.4354   -0.1019 H   0  0  0  0  0  0  0  0  0  0  0  0
   -0.0016   -0.2394    0.1271 C   0  0  1  0  0  0  0  0  0  0  0  0
    0.6995   -0.7619   -0.5275 H   0  0  0  0  0  0  0  0  0  0  0  0
   -0.2283    1.1832   -0.4215 C   0  0  0  0  0  0  0  0  0  0  0  0
   -0.2223    1.8958    0.4042 H   0  0  0  0  0  0  0  0  0  0  0  0
    0.5836    1.4490   -1.0994 H   0  0  0  0  0  0  0  0  0  0  0  0
   -1.5612    1.3495   -1.1450 C   0  0  0  0  0  0  0  0  0  0  0  0
   -1.9662    2.3812   -1.6644 O   0  0  0  0  0  0  0  0  0  0  0  0
   -2.3251    0.2418   -1.1827 O   0  0  0  0  0  0  0  0  0  0  0  0
   -3.1102    0.4810   -1.6763 H   0  0  0  0  0  0  0  0  0  0  0  0
    0.5920   -0.2154    1.5497 C   0  0  0  0  0  0  0  0  0  0  0  0
    1.7860   -0.4596    1.7183 O   0  0  0  0  0  0  0  0  0  0  0  0
   -0.2294    0.0669    2.5672 N   0  0  0  0  0  0  0  0  0  0  0  0
   -1.2130    0.1938    2.3518 H   0  0  0  0  0  0  0  0  0  0  0  0
    0.1836    0.1337    3.9673 C   0  0  0  0  0  0  0  0  0  0  0  0
    1.0451    0.7976    4.0666 H   0  0  0  0  0  0  0  0  0  0  0  0
   -0.6344    0.5115    4.5820 H   0  0  0  0  0  0  0  0  0  0  0  0
    0.4676   -0.8609    4.3157 H   0  0  0  0  0  0  0  0  0  0  0  0
  5  6  2  0  0  0  0
  5  7  1  0  0  0  0
  2  3  1  0  0  0  0
  2  4  1  0  0  0  0
  2  5  1  0  0  0  0
  1  2  1  0  0  0  0
 18 19  2  0  0  0  0
 18 20  1  0  0  0  0
 16 17  1  0  0  0  0
 14 15  2  0  0  0  0
 14 16  1  0  0  0  0
 11 12  1  0  0  0  0
 11 13  1  0  0  0  0
 11 14  1  0  0  0  0
  9 10  1  0  0  0  0
  9 11  1  0  0  0  0
  9 18  1  0  0  0  0
  7  8  1  0  0  0  0
  7  9  1  0  0  0  0
 22 23  1  0  0  0  0
 22 24  1  0  0  0  0
 22 25  1  0  0  0  0
 20 21  1  0  0  0  0
 20 22  1  0  0  0  0
M  END
$$$$
default_name
  -OEChem-02102213163D

 25 24  0     1  0  0  0  0  0999 V2000
   -2.7826   -3.8464    0.7821 H   0  0  0  0  0  0  0  0  0  0  0  0
   -2.8156   -2.8034    0.4711 C   0  0  0  0  0  0  0  0  0  0  0  0
   -3.4336   -2.2354    1.1641 H   0  0  0  0  0  0  0  0  0  0  0  0
   -3.2256   -2.7344   -0.5349 H   0  0  0  0  0  0  0  0  0  0  0  0
   -1.4126   -2.2444    0.4801 C   0  0  0  0  0  0  0  0  0  0  0  0
   -0.4686   -2.9534    0.8001 O   0  0  0  0  0  0  0  0  0  0  0  0
   -1.2736   -0.9704    0.1241 N   0  0  0  0  0  0  0  0  0  0  0  0
   -2.0996   -0.4354   -0.1019 H   0  0  0  0  0  0  0  0  0  0  0  0
   -0.0016   -0.2394    0.1271 C   0  0  1  0  0  0  0  0  0  0  0  0
    0.6995   -0.7619   -0.5275 H   0  0  0  0  0  0  0  0  0  0  0  0
   -0.2283    1.1832   -0.4215 C   0  0  0  0  0  0  0  0  0  0  0  0
   -0.2223    1.8958    0.4042 H   0  0  0  0  0  0  0  0  0  0  0  0
    0.5836    1.4490   -1.0994 H   0  0  0  0  0  0  0  0  0  0  0  0
   -1.5612    1.3495   -1.1450 C   0  0  0  0  0  0  0  0  0  0  0  0
   -1.8616    2.2810   -1.8800 O   0  0  0  0  0  0  0  0  0  0  0  0
   -2.4529    0.3668   -0.9185 O   0  0  0  0  0  0  0  0  0  0  0  0
   -3.2240    0.5862   -1.4425 H   0  0  0  0  0  0  0  0  0  0  0  0
    0.5920   -0.2154    1.5497 C   0  0  0  0  0  0  0  0  0  0  0  0
    1.7860   -0.4596    1.7183 O   0  0  0  0  0  0  0  0  0  0  0  0
   -0.2294    0.0669    2.5672 N   0  0  0  0  0  0  0  0  0  0  0  0
   -1.2130    0.1938    2.3518 H   0  0  0  0  0  0  0  0  0  0  0  0
    0.1836    0.1337    3.9673 C   0  0  0  0  0  0  0  0  0  0  0  0
    1.0451    0.7976    4.0666 H   0  0  0  0  0  0  0  0  0  0  0  0
   -0.6344    0.5115    4.5820 H   0  0  0  0  0  0  0  0  0  0  0  0
    0.4676   -0.8609    4.3157 H   0  0  0  0  0  0  0  0  0  0  0  0
  5  6  2  0  0  0  0
  5  7  1  0  0  0  0
  2  3  1  0  0  0  0
  2  4  1  0  0  0  0
  2  5  1  0  0  0  0
  1  2  1  0  0  0  0
 18 19  2  0  0  0  0
 18 20  1  0  0  0  0
 16 17  1  0  0  0  0
 14 15  2  0  0  0  0
 14 16  1  0  0  0  0
 11 12  1  0  0  0  0
 11 13  1  0  0  0  0
 11 14  1  0  0  0  0
  9 10  1  0  0  0  0
  9 11  1  0  0  0  0
  9 18  1  0  0  0  0
  7  8  1  0  0  0  0
  7  9  1  0  0  0  0
 22 23  1  0  0  0  0
 22 24  1  0  0  0  0
 22 25  1  0  0  0  0
 20 21  1  0  0  0  0
 20 22  1  0  0  0  0
M  END
$$$$
default_name
  -OEChem-02102213163D

 25 24  0     1  0  0  0  0  0999 V2000
   -2.7826   -3.8464    0.7821 H   0  0  0  0  0  0  0  0  0  0  0  0
   -2.8156   -2.8034    0.4711 C   0  0  0  0  0  0  0  0  0  0  0  0
   -3.4336   -2.2354    1.1641 H   0  0  0  0  0  0  0  0  0  0  0  0
   -3.2256   -2.7344   -0.5349 H   0  0  0  0  0  0  0  0  0  0  0  0
   -1.4126   -2.2444    0.4801 C   0  0  0  0  0  0  0  0  0  0  0  0
   -0.4686   -2.9534    0.8001 O   0  0  0  0  0  0  0  0  0  0  0  0
   -1.2736   -0.9704    0.1241 N   0  0  0  0  0  0  0  0  0  0  0  0
   -2.0996   -0.4354   -0.1019 H   0  0  0  0  0  0  0  0  0  0  0  0
   -0.0016   -0.2394    0.1271 C   0  0  1  0  0  0  0  0  0  0  0  0
    0.6995   -0.7619   -0.5275 H   0  0  0  0  0  0  0  0  0  0  0  0
   -0.2283    1.1832   -0.4215 C   0  0  0  0  0  0  0  0  0  0  0  0
   -0.2223    1.8958    0.4042 H   0  0  0  0  0  0  0  0  0  0  0  0
    0.5836    1.4490   -1.0994 H   0  0  0  0  0  0  0  0  0  0  0  0
   -1.5612    1.3495   -1.1450 C   0  0  0  0  0  0  0  0  0  0  0  0
   -1.7790    2.1226   -2.0687 O   0  0  0  0  0  0  0  0  0  0  0  0
   -2.5536    0.5631   -0.6880 O   0  0  0  0  0  0  0  0  0  0  0  0
   -3.3143    0.7547   -1.2373 H   0  0  0  0  0  0  0  0  0  0  0  0
    0.5920   -0.2154    1.5497 C   0  0  0  0  0  0  0  0  0  0  0  0
    1.7860   -0.4596    1.7183 O   0  0  0  0  0  0  0  0  0  0  0  0
   -0.2294    0.0669    2.5672 N   0  0  0  0  0  0  0  0  0  0  0  0
   -1.2130    0.1938    2.3518 H   0  0  0  0  0  0  0  0  0  0  0  0
    0.1836    0.1337    3.9673 C   0  0  0  0  0  0  0  0  0  0  0  0
    1.0451    0.7976    4.0666 H   0  0  0  0  0  0  0  0  0  0  0  0
   -0.6344    0.5115    4.5820 H   0  0  0  0  0  0  0  0  0  0  0  0
    0.4676   -0.8609    4.3157 H   0  0  0  0  0  0  0  0  0  0  0  0
  5  6  2  0  0  0  0
  5  7  1  0  0  0  0
  2  3  1  0  0  0  0
  2  4  1  0  0  0  0
  2  5  1  0  0  0  0
  1  2  1  0  0  0  0
 18 19  2  0  0  0  0
 18 20  1  0  0  0  0
 16 17  1  0  0  0  0
 14 15  2  0  0  0  0
 14 16  1  0  0  0  0
 11 12  1  0  0  0  0
 11 13  1  0  0  0  0
 11 14  1  0  0  0  0
  9 10  1  0  0  0  0
  9 11  1  0  0  0  0
  9 18  1  0  0  0  0
  7  8  1  0  0  0  0
  7  9  1  0  0  0  0
 22 23  1  0  0  0  0
 22 24  1  0  0  0  0
 22 25  1  0  0  0  0
 20 21  1  0  0  0  0
 20 22  1  0  0  0  0
M  END
$$$$
default_name
  -OEChem-02102213163D

 25 24  0     1  0  0  0  0  0999 V2000
   -2.7826   -3.8464    0.7821 H   0  0  0  0  0  0  0  0  0  0  0  0
   -2.8156   -2.8034    0.4711 C   0  0  0  0  0  0  0  0  0  0  0  0
   -3.4336   -2.2354    1.1641 H   0  0  0  0  0  0  0  0  0  0  0  0
   -3.2256   -2.7344   -0.5349 H   0  0  0  0  0  0  0  0  0  0  0  0
   -1.4126   -2.2444    0.4801 C   0  0  0  0  0  0  0  0  0  0  0  0
   -0.4686   -2.9534    0.8001 O   0  0  0  0  0  0  0  0  0  0  0  0
   -1.2736   -0.9704    0.1241 N   0  0  0  0  0  0  0  0  0  0  0  0
   -2.0996   -0.4354   -0.1019 H   0  0  0  0  0  0  0  0  0  0  0  0
   -0.0016   -0.2394    0.1271 C   0  0  1  0  0  0  0  0  0  0  0  0
    0.6995   -0.7619   -0.5275 H   0  0  0  0  0  0  0  0  0  0  0  0
   -0.2283    1.1832   -0.4215 C   0  0  0  0  0  0  0  0  0  0  0  0
   -0.2223    1.8958    0.4042 H   0  0  0  0  0  0  0  0  0  0  0  0
    0.5836    1.4490   -1.0994 H   0  0  0  0  0  0  0  0  0  0  0  0
   -1.5612    1.3495   -1.1450 C   0  0  0  0  0  0  0  0  0  0  0  0
   -1.7240    1.9168   -2.2174 O   0  0  0  0  0  0  0  0  0  0  0  0
   -2.6202    0.8171   -0.5069 O   0  0  0  0  0  0  0  0  0  0  0  0
   -3.3752    0.9748   -1.0746 H   0  0  0  0  0  0  0  0  0  0  0  0
    0.5920   -0.2154    1.5497 C   0  0  0  0  0  0  0  0  0  0  0  0
    1.7860   -0.4596    1.7183 O   0  0  0  0  0  0  0  0  0  0  0  0
   -0.2294    0.0669    2.5672 N   0  0  0  0  0  0  0  0  0  0  0  0
   -1.2130    0.1938    2.3518 H   0  0  0  0  0  0  0  0  0  0  0  0
    0.1836    0.1337    3.9673 C   0  0  0  0  0  0  0  0  0  0  0  0
    1.0451    0.7976    4.0666 H   0  0  0  0  0  0  0  0  0  0  0  0
   -0.6344    0.5115    4.5820 H   0  0  0  0  0  0  0  0  0  0  0  0
    0.4676   -0.8609    4.3157 H   0  0  0  0  0  0  0  0  0  0  0  0
  5  6  2  0  0  0  0
  5  7  1  0  0  0  0
  2  3  1  0  0  0  0
  2  4  1  0  0  0  0
  2  5  1  0  0  0  0
  1  2  1  0  0  0  0
 18 19  2  0  0  0  0
 18 20  1  0  0  0  0
 16 17  1  0  0  0  0
 14 15  2  0  0  0  0
 14 16  1  0  0  0  0
 11 12  1  0  0  0  0
 11 13  1  0  0  0  0
 11 14  1  0  0  0  0
  9 10  1  0  0  0  0
  9 11  1  0  0  0  0
  9 18  1  0  0  0  0
  7  8  1  0  0  0  0
  7  9  1  0  0  0  0
 22 23  1  0  0  0  0
 22 24  1  0  0  0  0
 22 25  1  0  0  0  0
 20 21  1  0  0  0  0
 20 22  1  0  0  0  0
M  END
$$$$
default_name
  -OEChem-02102213163D

 25 24  0     1  0  0  0  0  0999 V2000
   -2.7826   -3.8464    0.7821 H   0  0  0  0  0  0  0  0  0  0  0  0
   -2.8156   -2.8034    0.4711 C   0  0  0  0  0  0  0  0  0  0  0  0
   -3.4336   -2.2354    1.1641 H   0  0  0  0  0  0  0  0  0  0  0  0
   -3.2256   -2.7344   -0.5349 H   0  0  0  0  0  0  0  0  0  0  0  0
   -1.4126   -2.2444    0.4801 C   0  0  0  0  0  0  0  0  0  0  0  0
   -0.4686   -2.9534    0.8001 O   0  0  0  0  0  0  0  0  0  0  0  0
   -1.2736   -0.9704    0.1241 N   0  0  0  0  0  0  0  0  0  0  0  0
   -2.0996   -0.4354   -0.1019 H   0  0  0  0  0  0  0  0  0  0  0  0
   -0.0016   -0.2394    0.1271 C   0  0  1  0  0  0  0  0  0  0  0  0
    0.6995   -0.7619   -0.5275 H   0  0  0  0  0  0  0  0  0  0  0  0
   -0.2283    1.1832   -0.4215 C   0  0  0  0  0  0  0  0  0  0  0  0
   -0.2223    1.8958    0.4042 H   0  0  0  0  0  0  0  0  0  0  0  0
    0.5836    1.4490   -1.0994 H   0  0  0  0  0  0  0  0  0  0  0  0
   -1.5612    1.3495   -1.1450 C   0  0  0  0  0  0  0  0  0  0  0  0
   -1.7003    1.6776   -2.3160 O   0  0  0  0  0  0  0  0  0  0  0  0
   -2.6482    1.1116   -0.3875 O   0  0  0  0  0  0  0  0  0  0  0  0
   -3.4023    1.2318   -0.9656 H   0  0  0  0  0  0  0  0  0  0  0  0
    0.5920   -0.2154    1.5497 C   0  0  0  0  0  0  0  0  0  0  0  0
    1.7860   -0.4596    1.7183 O   0  0  0  0  0  0  0  0  0  0  0  0
   -0.2294    0.0669    2.5672 N   0  0  0  0  0  0  0  0  0  0  0  0
   -1.2130    0.1938    2.3518 H   0  0  0  0  0  0  0  0  0  0  0  0
    0.1836    0.1337    3.9673 C   0  0  0  0  0  0  0  0  0  0  0  0
    1.0451    0.7976    4.0666 H   0  0  0  0  0  0  0  0  0  0  0  0
   -0.6344    0.5115    4.5820 H   0  0  0  0  0  0  0  0  0  0  0  0
    0.4676   -0.8609    4.3157 H   0  0  0  0  0  0  0  0  0  0  0  0
  5  6  2  0  0  0  0
  5  7  1  0  0  0  0
  2  3  1  0  0  0  0
  2  4  1  0  0  0  0
  2  5  1  0  0  0  0
  1  2  1  0  0  0  0
 18 19  2  0  0  0  0
 18 20  1  0  0  0  0
 16 17  1  0  0  0  0
 14 15  2  0  0  0  0
 14 16  1  0  0  0  0
 11 12  1  0  0  0  0
 11 13  1  0  0  0  0
 11 14  1  0  0  0  0
  9 10  1  0  0  0  0
  9 11  1  0  0  0  0
  9 18  1  0  0  0  0
  7  8  1  0  0  0  0
  7  9  1  0  0  0  0
 22 23  1  0  0  0  0
 22 24  1  0  0  0  0
 22 25  1  0  0  0  0
 20 21  1  0  0  0  0
 20 22  1  0  0  0  0
M  END
$$$$
default_name
  -OEChem-02102213163D

 25 24  0     1  0  0  0  0  0999 V2000
   -2.7826   -3.8464    0.7821 H   0  0  0  0  0  0  0  0  0  0  0  0
   -2.8156   -2.8034    0.4711 C   0  0  0  0  0  0  0  0  0  0  0  0
   -3.4336   -2.2354    1.1641 H   0  0  0  0  0  0  0  0  0  0  0  0
   -3.2256   -2.7344   -0.5349 H   0  0  0  0  0  0  0  0  0  0  0  0
   -1.4126   -2.2444    0.4801 C   0  0  0  0  0  0  0  0  0  0  0  0
   -0.4686   -2.9534    0.8001 O   0  0  0  0  0  0  0  0  0  0  0  0
   -1.2736   -0.9704    0.1241 N   0  0  0  0  0  0  0  0  0  0  0  0
   -2.0996   -0.4354   -0.1019 H   0  0  0  0  0  0  0  0  0  0  0  0
   -0.0016   -0.2394    0.1271 C   0  0  1  0  0  0  0  0  0  0  0  0
    0.6995   -0.7619   -0.5275 H   0  0  0  0  0  0  0  0  0  0  0  0
   -0.2283    1.1832   -0.4215 C   0  0  0  0  0  0  0  0  0  0  0  0
   -0.2223    1.8958    0.4042 H   0  0  0  0  0  0  0  0  0  0  0  0
    0.5836    1.4490   -1.0994 H   0  0  0  0  0  0  0  0  0  0  0  0
   -1.5612    1.3495   -1.1450 C   0  0  0  0  0  0  0  0  0  0  0  0
   -1.7095    1.4213   -2.3579 O   0  0  0  0  0  0  0  0  0  0  0  0
   -2.6358    1.4265   -0.3380 O   0  0  0  0  0  0  0  0  0  0  0  0
   -3.3940    1.5079   -0.9175 H   0  0  0  0  0  0  0  0  0  0  0  0
    0.5920   -0.2154    1.5497 C   0  0  0  0  0  0  0  0  0  0  0  0
    1.7860   -0.4596    1.7183 O   0  0  0  0  0  0  0  0  0  0  0  0
   -0.2294    0.0669    2.5672 N   0  0  0  0  0  0  0  0  0  0  0  0
   -1.2130    0.1938    2.3518 H   0  0  0  0  0  0  0  0  0  0  0  0
    0.1836    0.1337    3.9673 C   0  0  0  0  0  0  0  0  0  0  0  0
    1.0451    0.7976    4.0666 H   0  0  0  0  0  0  0  0  0  0  0  0
   -0.6344    0.5115    4.5820 H   0  0  0  0  0  0  0  0  0  0  0  0
    0.4676   -0.8609    4.3157 H   0  0  0  0  0  0  0  0  0  0  0  0
  5  6  2  0  0  0  0
  5  7  1  0  0  0  0
  2  3  1  0  0  0  0
  2  4  1  0  0  0  0
  2  5  1  0  0  0  0
  1  2  1  0  0  0  0
 18 19  2  0  0  0  0
 18 20  1  0  0  0  0
 16 17  1  0  0  0  0
 14 15  2  0  0  0  0
 14 16  1  0  0  0  0
 11 12  1  0  0  0  0
 11 13  1  0  0  0  0
 11 14  1  0  0  0  0
  9 10  1  0  0  0  0
  9 11  1  0  0  0  0
  9 18  1  0  0  0  0
  7  8  1  0  0  0  0
  7  9  1  0  0  0  0
 22 23  1  0  0  0  0
 22 24  1  0  0  0  0
 22 25  1  0  0  0  0
 20 21  1  0  0  0  0
 20 22  1  0  0  0  0
M  END
$$$$
default_name
  -OEChem-02102213163D

 25 24  0     1  0  0  0  0  0999 V2000
   -2.7826   -3.8464    0.7821 H   0  0  0  0  0  0  0  0  0  0  0  0
   -2.8156   -2.8034    0.4711 C   0  0  0  0  0  0  0  0  0  0  0  0
   -3.4336   -2.2354    1.1641 H   0  0  0  0  0  0  0  0  0  0  0  0
   -3.2256   -2.7344   -0.5349 H   0  0  0  0  0  0  0  0  0  0  0  0
   -1.4126   -2.2444    0.4801 C   0  0  0  0  0  0  0  0  0  0  0  0
   -0.4686   -2.9534    0.8001 O   0  0  0  0  0  0  0  0  0  0  0  0
   -1.2736   -0.9704    0.1241 N   0  0  0  0  0  0  0  0  0  0  0  0
   -2.0996   -0.4354   -0.1019 H   0  0  0  0  0  0  0  0  0  0  0  0
   -0.0016   -0.2394    0.1271 C   0  0  1  0  0  0  0  0  0  0  0  0
    0.6995   -0.7619   -0.5275 H   0  0  0  0  0  0  0  0  0  0  0  0
   -0.2283    1.1832   -0.4215 C   0  0  0  0  0  0  0  0  0  0  0  0
   -0.2223    1.8958    0.4042 H   0  0  0  0  0  0  0  0  0  0  0  0
    0.5836    1.4490   -1.0994 H   0  0  0  0  0  0  0  0  0  0  0  0
   -1.5612    1.3495   -1.1450 C   0  0  0  0  0  0  0  0  0  0  0  0
   -1.7510    1.1655   -2.3402 O   0  0  0  0  0  0  0  0  0  0  0  0
   -2.5838    1.7403   -0.3618 O   0  0  0  0  0  0  0  0  0  0  0  0
   -3.3506    1.7845   -0.9338 H   0  0  0  0  0  0  0  0  0  0  0  0
    0.5920   -0.2154    1.5497 C   0  0  0  0  0  0  0  0  0  0  0  0
    1.7860   -0.4596    1.7183 O   0  0  0  0  0  0  0  0  0  0  0  0
   -0.2294    0.0669    2.5672 N   0  0  0  0  0  0  0  0  0  0  0  0
   -1.2130    0.1938    2.3518 H   0  0  0  0  0  0  0  0  0  0  0  0
    0.1836    0.1337    3.9673 C   0  0  0  0  0  0  0  0  0  0  0  0
    1.0451    0.7976    4.0666 H   0  0  0  0  0  0  0  0  0  0  0  0
   -0.6344    0.5115    4.5820 H   0  0  0  0  0  0  0  0  0  0  0  0
    0.4676   -0.8609    4.3157 H   0  0  0  0  0  0  0  0  0  0  0  0
  5  6  2  0  0  0  0
  5  7  1  0  0  0  0
  2  3  1  0  0  0  0
  2  4  1  0  0  0  0
  2  5  1  0  0  0  0
  1  2  1  0  0  0  0
 18 19  2  0  0  0  0
 18 20  1  0  0  0  0
 16 17  1  0  0  0  0
 14 15  2  0  0  0  0
 14 16  1  0  0  0  0
 11 12  1  0  0  0  0
 11 13  1  0  0  0  0
 11 14  1  0  0  0  0
  9 10  1  0  0  0  0
  9 11  1  0  0  0  0
  9 18  1  0  0  0  0
  7  8  1  0  0  0  0
  7  9  1  0  0  0  0
 22 23  1  0  0  0  0
 22 24  1  0  0  0  0
 22 25  1  0  0  0  0
 20 21  1  0  0  0  0
 20 22  1  0  0  0  0
M  END
$$$$
default_name
  -OEChem-02102213163D

 25 24  0     1  0  0  0  0  0999 V2000
   -2.7826   -3.8464    0.7821 H   0  0  0  0  0  0  0  0  0  0  0  0
   -2.8156   -2.8034    0.4711 C   0  0  0  0  0  0  0  0  0  0  0  0
   -3.4336   -2.2354    1.1641 H   0  0  0  0  0  0  0  0  0  0  0  0
   -3.2256   -2.7344   -0.5349 H   0  0  0  0  0  0  0  0  0  0  0  0
   -1.4126   -2.2444    0.4801 C   0  0  0  0  0  0  0  0  0  0  0  0
   -0.4686   -2.9534    0.8001 O   0  0  0  0  0  0  0  0  0  0  0  0
   -1.2736   -0.9704    0.1241 N   0  0  0  0  0  0  0  0  0  0  0  0
   -2.0996   -0.4354   -0.1019 H   0  0  0  0  0  0  0  0  0  0  0  0
   -0.0016   -0.2394    0.1271 C   0  0  1  0  0  0  0  0  0  0  0  0
    0.6995   -0.7619   -0.5275 H   0  0  0  0  0  0  0  0  0  0  0  0
   -0.2283    1.1832   -0.4215 C   0  0  0  0  0  0  0  0  0  0  0  0
   -0.2223    1.8958    0.4042 H   0  0  0  0  0  0  0  0  0  0  0  0
    0.5836    1.4490   -1.0994 H   0  0  0  0  0  0  0  0  0  0  0  0
   -1.5612    1.3495   -1.1450 C   0  0  0  0  0  0  0  0  0  0  0  0
   -1.8221    0.9274   -2.2640 O   0  0  0  0  0  0  0  0  0  0  0  0
   -2.4957    2.0317   -0.4571 O   0  0  0  0  0  0  0  0  0  0  0  0
   -3.2752    2.0427   -1.0133 H   0  0  0  0  0  0  0  0  0  0  0  0
    0.5920   -0.2154    1.5497 C   0  0  0  0  0  0  0  0  0  0  0  0
    1.7860   -0.4596    1.7183 O   0  0  0  0  0  0  0  0  0  0  0  0
   -0.2294    0.0669    2.5672 N   0  0  0  0  0  0  0  0  0  0  0  0
   -1.2130    0.1938    2.3518 H   0  0  0  0  0  0  0  0  0  0  0  0
    0.1836    0.1337    3.9673 C   0  0  0  0  0  0  0  0  0  0  0  0
    1.0451    0.7976    4.0666 H   0  0  0  0  0  0  0  0  0  0  0  0
   -0.6344    0.5115    4.5820 H   0  0  0  0  0  0  0  0  0  0  0  0
    0.4676   -0.8609    4.3157 H   0  0  0  0  0  0  0  0  0  0  0  0
  5  6  2  0  0  0  0
  5  7  1  0  0  0  0
  2  3  1  0  0  0  0
  2  4  1  0  0  0  0
  2  5  1  0  0  0  0
  1  2  1  0  0  0  0
 18 19  2  0  0  0  0
 18 20  1  0  0  0  0
 16 17  1  0  0  0  0
 14 15  2  0  0  0  0
 14 16  1  0  0  0  0
 11 12  1  0  0  0  0
 11 13  1  0  0  0  0
 11 14  1  0  0  0  0
  9 10  1  0  0  0  0
  9 11  1  0  0  0  0
  9 18  1  0  0  0  0
  7  8  1  0  0  0  0
  7  9  1  0  0  0  0
 22 23  1  0  0  0  0
 22 24  1  0  0  0  0
 22 25  1  0  0  0  0
 20 21  1  0  0  0  0
 20 22  1  0  0  0  0
M  END
$$$$
default_name
  -OEChem-02102213163D

 25 24  0     1  0  0  0  0  0999 V2000
   -2.7826   -3.8464    0.7821 H   0  0  0  0  0  0  0  0  0  0  0  0
   -2.8156   -2.8034    0.4711 C   0  0  0  0  0  0  0  0  0  0  0  0
   -3.4336   -2.2354    1.1641 H   0  0  0  0  0  0  0  0  0  0  0  0
   -3.2256   -2.7344   -0.5349 H   0  0  0  0  0  0  0  0  0  0  0  0
   -1.4126   -2.2444    0.4801 C   0  0  0  0  0  0  0  0  0  0  0  0
   -0.4686   -2.9534    0.8001 O   0  0  0  0  0  0  0  0  0  0  0  0
   -1.2736   -0.9704    0.1241 N   0  0  0  0  0  0  0  0  0  0  0  0
   -2.0996   -0.4354   -0.1019 H   0  0  0  0  0  0  0  0  0  0  0  0
   -0.0016   -0.2394    0.1271 C   0  0  1  0  0  0  0  0  0  0  0  0
    0.6995   -0.7619   -0.5275 H   0  0  0  0  0  0  0  0  0  0  0  0
   -0.2283    1.1832   -0.4215 C   0  0  0  0  0  0  0  0  0  0  0  0
   -0.2223    1.8958    0.4042 H   0  0  0  0  0  0  0  0  0  0  0  0
    0.5836    1.4490   -1.0994 H   0  0  0  0  0  0  0  0  0  0  0  0
   -1.5612    1.3495   -1.1450 C   0  0  0  0  0  0  0  0  0  0  0  0
   -1.9178    0.7235   -2.1346 O   0  0  0  0  0  0  0  0  0  0  0  0
   -2.3775    2.2808   -0.6176 O   0  0  0  0  0  0  0  0  0  0  0  0
   -3.1730    2.2648   -1.1506 H   0  0  0  0  0  0  0  0  0  0  0  0
    0.5920   -0.2154    1.5497 C   0  0  0  0  0  0  0  0  0  0  0  0
    1.7860   -0.4596    1.7183 O   0  0  0  0  0  0  0  0  0  0  0  0
   -0.2294    0.0669    2.5672 N   0  0  0  0  0  0  0  0  0  0  0  0
   -1.2130    0.1938    2.3518 H   0  0  0  0  0  0  0  0  0  0  0  0
    0.1836    0.1337    3.9673 C   0  0  0  0  0  0  0  0  0  0  0  0
    1.0451    0.7976    4.0666 H   0  0  0  0  0  0  0  0  0  0  0  0
   -0.6344    0.5115    4.5820 H   0  0  0  0  0  0  0  0  0  0  0  0
    0.4676   -0.8609    4.3157 H   0  0  0  0  0  0  0  0  0  0  0  0
  5  6  2  0  0  0  0
  5  7  1  0  0  0  0
  2  3  1  0  0  0  0
  2  4  1  0  0  0  0
  2  5  1  0  0  0  0
  1  2  1  0  0  0  0
 18 19  2  0  0  0  0
 18 20  1  0  0  0  0
 16 17  1  0  0  0  0
 14 15  2  0  0  0  0
 14 16  1  0  0  0  0
 11 12  1  0  0  0  0
 11 13  1  0  0  0  0
 11 14  1  0  0  0  0
  9 10  1  0  0  0  0
  9 11  1  0  0  0  0
  9 18  1  0  0  0  0
  7  8  1  0  0  0  0
  7  9  1  0  0  0  0
 22 23  1  0  0  0  0
 22 24  1  0  0  0  0
 22 25  1  0  0  0  0
 20 21  1  0  0  0  0
 20 22  1  0  0  0  0
M  END
$$$$
default_name
  -OEChem-02102213163D

 25 24  0     1  0  0  0  0  0999 V2000
   -2.7826   -3.8464    0.7821 H   0  0  0  0  0  0  0  0  0  0  0  0
   -2.8156   -2.8034    0.4711 C   0  0  0  0  0  0  0  0  0  0  0  0
   -3.4336   -2.2354    1.1641 H   0  0  0  0  0  0  0  0  0  0  0  0
   -3.2256   -2.7344   -0.5349 H   0  0  0  0  0  0  0  0  0  0  0  0
   -1.4126   -2.2444    0.4801 C   0  0  0  0  0  0  0  0  0  0  0  0
   -0.4686   -2.9534    0.8001 O   0  0  0  0  0  0  0  0  0  0  0  0
   -1.2736   -0.9704    0.1241 N   0  0  0  0  0  0  0  0  0  0  0  0
   -2.0996   -0.4354   -0.1019 H   0  0  0  0  0  0  0  0  0  0  0  0
   -0.0016   -0.2394    0.1271 C   0  0  1  0  0  0  0  0  0  0  0  0
    0.6995   -0.7619   -0.5275 H   0  0  0  0  0  0  0  0  0  0  0  0
   -0.2283    1.1832   -0.4215 C   0  0  0  0  0  0  0  0  0  0  0  0
   -0.2223    1.8958    0.4042 H   0  0  0  0  0  0  0  0  0  0  0  0
    0.5836    1.4490   -1.0994 H   0  0  0  0  0  0  0  0  0  0  0  0
   -1.5612    1.3495   -1.1450 C   0  0  0  0  0  0  0  0  0  0  0  0
   -2.0316    0.5674   -1.9608 O   0  0  0  0  0  0  0  0  0  0  0  0
   -2.2373    2.4706   -0.8322 O   0  0  0  0  0  0  0  0  0  0  0  0
   -3.0509    2.4358   -1.3364 H   0  0  0  0  0  0  0  0  0  0  0  0
    0.5920   -0.2154    1.5497 C   0  0  0  0  0  0  0  0  0  0  0  0
    1.7860   -0.4596    1.7183 O   0  0  0  0  0  0  0  0  0  0  0  0
   -0.2294    0.0669    2.5672 N   0  0  0  0  0  0  0  0  0  0  0  0
   -1.2130    0.1938    2.3518 H   0  0  0  0  0  0  0  0  0  0  0  0
    0.1836    0.1337    3.9673 C   0  0  0  0  0  0  0  0  0  0  0  0
    1.0451    0.7976    4.0666 H   0  0  0  0  0  0  0  0  0  0  0  0
   -0.6344    0.5115    4.5820 H   0  0  0  0  0  0  0  0  0  0  0  0
    0.4676   -0.8609    4.3157 H   0  0  0  0  0  0  0  0  0  0  0  0
  5  6  2  0  0  0  0
  5  7  1  0  0  0  0
  2  3  1  0  0  0  0
  2  4  1  0  0  0  0
  2  5  1  0  0  0  0
  1  2  1  0  0  0  0
 18 19  2  0  0  0  0
 18 20  1  0  0  0  0
 16 17  1  0  0  0  0
 14 15  2  0  0  0  0
 14 16  1  0  0  0  0
 11 12  1  0  0  0  0
 11 13  1  0  0  0  0
 11 14  1  0  0  0  0
  9 10  1  0  0  0  0
  9 11  1  0  0  0  0
  9 18  1  0  0  0  0
  7  8  1  0  0  0  0
  7  9  1  0  0  0  0
 22 23  1  0  0  0  0
 22 24  1  0  0  0  0
 22 25  1  0  0  0  0
 20 21  1  0  0  0  0
 20 22  1  0  0  0  0
M  END
$$$$
default_name
  -OEChem-02102213163D

 25 24  0     1  0  0  0  0  0999 V2000
   -2.7826   -3.8464    0.7821 H   0  0  0  0  0  0  0  0  0  0  0  0
   -2.8156   -2.8034    0.4711 C   0  0  0  0  0  0  0  0  0  0  0  0
   -3.4336   -2.2354    1.1641 H   0  0  0  0  0  0  0  0  0  0  0  0
   -3.2256   -2.7344   -0.5349 H   0  0  0  0  0  0  0  0  0  0  0  0
   -1.4126   -2.2444    0.4801 C   0  0  0  0  0  0  0  0  0  0  0  0
   -0.4686   -2.9534    0.8001 O   0  0  0  0  0  0  0  0  0  0  0  0
   -1.2736   -0.9704    0.1241 N   0  0  0  0  0  0  0  0  0  0  0  0
   -2.0996   -0.4354   -0.1019 H   0  0  0  0  0  0  0  0  0  0  0  0
   -0.0016   -0.2394    0.1271 C   0  0  1  0  0  0  0  0  0  0  0  0
    0.6995   -0.7619   -0.5275 H   0  0  0  0  0  0  0  0  0  0  0  0
   -0.2283    1.1832   -0.4215 C   0  0  0  0  0  0  0  0  0  0  0  0
   -0.2223    1.8958    0.4042 H   0  0  0  0  0  0  0  0  0  0  0  0
    0.5836    1.4490   -1.0994 H   0  0  0  0  0  0  0  0  0  0  0  0
   -1.5612    1.3495   -1.1450 C   0  0  0  0  0  0  0  0  0  0  0  0
   -2.1557    0.4700   -1.7544 O   0  0  0  0  0  0  0  0  0  0  0  0
   -2.0847    2.5882   -1.0865 O   0  0  0  0  0  0  0  0  0  0  0  0
   -2.9171    2.5439   -1.5579 H   0  0  0  0  0  0  0  0  0  0  0  0
    0.5920   -0.2154    1.5497 C   0  0  0  0  0  0  0  0  0  0  0  0
    1.7860   -0.4596    1.7183 O   0  0  0  0  0  0  0  0  0  0  0  0
   -0.2294    0.0669    2.5672 N   0  0  0  0  0  0  0  0  0  0  0  0
   -1.2130    0.1938    2.3518 H   0  0  0  0  0  0  0  0  0  0  0  0
    0.1836    0.1337    3.9673 C   0  0  0  0  0  0  0  0  0  0  0  0
    1.0451    0.7976    4.0666 H   0  0  0  0  0  0  0  0  0  0  0  0
   -0.6344    0.5115    4.5820 H   0  0  0  0  0  0  0  0  0  0  0  0
    0.4676   -0.8609    4.3157 H   0  0  0  0  0  0  0  0  0  0  0  0
  5  6  2  0  0  0  0
  5  7  1  0  0  0  0
  2  3  1  0  0  0  0
  2  4  1  0  0  0  0
  2  5  1  0  0  0  0
  1  2  1  0  0  0  0
 18 19  2  0  0  0  0
 18 20  1  0  0  0  0
 16 17  1  0  0  0  0
 14 15  2  0  0  0  0
 14 16  1  0  0  0  0
 11 12  1  0  0  0  0
 11 13  1  0  0  0  0
 11 14  1  0  0  0  0
  9 10  1  0  0  0  0
  9 11  1  0  0  0  0
  9 18  1  0  0  0  0
  7  8  1  0  0  0  0
  7  9  1  0  0  0  0
 22 23  1  0  0  0  0
 22 24  1  0  0  0  0
 22 25  1  0  0  0  0
 20 21  1  0  0  0  0
 20 22  1  0  0  0  0
M  END
$$$$
default_name
  -OEChem-02102213163D

 25 24  0     1  0  0  0  0  0999 V2000
   -2.7826   -3.8464    0.7821 H   0  0  0  0  0  0  0  0  0  0  0  0
   -2.8156   -2.8034    0.4711 C   0  0  0  0  0  0  0  0  0  0  0  0
   -3.4336   -2.2354    1.1641 H   0  0  0  0  0  0  0  0  0  0  0  0
   -3.2256   -2.7344   -0.5349 H   0  0  0  0  0  0  0  0  0  0  0  0
   -1.4126   -2.2444    0.4801 C   0  0  0  0  0  0  0  0  0  0  0  0
   -0.4686   -2.9534    0.8001 O   0  0  0  0  0  0  0  0  0  0  0  0
   -1.2736   -0.9704    0.1241 N   0  0  0  0  0  0  0  0  0  0  0  0
   -2.0996   -0.4354   -0.1019 H   0  0  0  0  0  0  0  0  0  0  0  0
   -0.0016   -0.2394    0.1271 C   0  0  1  0  0  0  0  0  0  0  0  0
    0.6995   -0.7619   -0.5275 H   0  0  0  0  0  0  0  0  0  0  0  0
   -0.2283    1.1832   -0.4215 C   0  0  0  0  0  0  0  0  0  0  0  0
   -0.2223    1.8958    0.4042 H   0  0  0  0  0  0  0  0  0  0  0  0
    0.5836    1.4490   -1.0994 H   0  0  0  0  0  0  0  0  0  0  0  0
   -1.5612    1.3495   -1.1450 C   0  0  0  0  0  0  0  0  0  0  0  0
   -2.2818    0.4378   -1.5295 O   0  0  0  0  0  0  0  0  0  0  0  0
   -1.9299    2.6256   -1.3629 O   0  0  0  0  0  0  0  0  0  0  0  0
   -2.7810    2.5819   -1.8001 H   0  0  0  0  0  0  0  0  0  0  0  0
    0.5920   -0.2154    1.5497 C   0  0  0  0  0  0  0  0  0  0  0  0
    1.7860   -0.4596    1.7183 O   0  0  0  0  0  0  0  0  0  0  0  0
   -0.2294    0.0669    2.5672 N   0  0  0  0  0  0  0  0  0  0  0  0
   -1.2130    0.1938    2.3518 H   0  0  0  0  0  0  0  0  0  0  0  0
    0.1836    0.1337    3.9673 C   0  0  0  0  0  0  0  0  0  0  0  0
    1.0451    0.7976    4.0666 H   0  0  0  0  0  0  0  0  0  0  0  0
   -0.6344    0.5115    4.5820 H   0  0  0  0  0  0  0  0  0  0  0  0
    0.4676   -0.8609    4.3157 H   0  0  0  0  0  0  0  0  0  0  0  0
  5  6  2  0  0  0  0
  5  7  1  0  0  0  0
  2  3  1  0  0  0  0
  2  4  1  0  0  0  0
  2  5  1  0  0  0  0
  1  2  1  0  0  0  0
 18 19  2  0  0  0  0
 18 20  1  0  0  0  0
 16 17  1  0  0  0  0
 14 15  2  0  0  0  0
 14 16  1  0  0  0  0
 11 12  1  0  0  0  0
 11 13  1  0  0  0  0
 11 14  1  0  0  0  0
  9 10  1  0  0  0  0
  9 11  1  0  0  0  0
  9 18  1  0  0  0  0
  7  8  1  0  0  0  0
  7  9  1  0  0  0  0
 22 23  1  0  0  0  0
 22 24  1  0  0  0  0
 22 25  1  0  0  0  0
 20 21  1  0  0  0  0
 20 22  1  0  0  0  0
M  END
$$$$
default_name
  -OEChem-02102213163D

 25 24  0     1  0  0  0  0  0999 V2000
   -2.7826   -3.8464    0.7821 H   0  0  0  0  0  0  0  0  0  0  0  0
   -2.8156   -2.8034    0.4711 C   0  0  0  0  0  0  0  0  0  0  0  0
   -3.4336   -2.2354    1.1641 H   0  0  0  0  0  0  0  0  0  0  0  0
   -3.2256   -2.7344   -0.5349 H   0  0  0  0  0  0  0  0  0  0  0  0
   -1.4126   -2.2444    0.4801 C   0  0  0  0  0  0  0  0  0  0  0  0
   -0.4686   -2.9534    0.8001 O   0  0  0  0  0  0  0  0  0  0  0  0
   -1.2736   -0.9704    0.1241 N   0  0  0  0  0  0  0  0  0  0  0  0
   -2.0996   -0.4354   -0.1019 H   0  0  0  0  0  0  0  0  0  0  0  0
   -0.0016   -0.2394    0.1271 C   0  0  1  0  0  0  0  0  0  0  0  0
    0.6995   -0.7619   -0.5275 H   0  0  0  0  0  0  0  0  0  0  0  0
   -0.2283    1.1832   -0.4215 C   0  0  0  0  0  0  0  0  0  0  0  0
   -0.2223    1.8958    0.4042 H   0  0  0  0  0  0  0  0  0  0  0  0
    0.5836    1.4490   -1.0994 H   0  0  0  0  0  0  0  0  0  0  0  0
   -1.5612    1.3495   -1.1450 C   0  0  0  0  0  0  0  0  0  0  0  0
   -2.4012    0.4730   -1.3015 O   0  0  0  0  0  0  0  0  0  0  0  0
   -1.7837    2.5802   -1.6428 O   0  0  0  0  0  0  0  0  0  0  0  0
   -2.6516    2.5471   -2.0464 H   0  0  0  0  0  0  0  0  0  0  0  0
    0.5920   -0.2154    1.5497 C   0  0  0  0  0  0  0  0  0  0  0  0
    1.7860   -0.4596    1.7183 O   0  0  0  0  0  0  0  0  0  0  0  0
   -0.2294    0.0669    2.5672 N   0  0  0  0  0  0  0  0  0  0  0  0
   -1.2130    0.1938    2.3518 H   0  0  0  0  0  0  0  0  0  0  0  0
    0.1836    0.1337    3.9673 C   0  0  0  0  0  0  0  0  0  0  0  0
    1.0451    0.7976    4.0666 H   0  0  0  0  0  0  0  0  0  0  0  0
   -0.6344    0.5115    4.5820 H   0  0  0  0  0  0  0  0  0  0  0  0
    0.4676   -0.8609    4.3157 H   0  0  0  0  0  0  0  0  0  0  0  0
  5  6  2  0  0  0  0
  5  7  1  0  0  0  0
  2  3  1  0  0  0  0
  2  4  1  0  0  0  0
  2  5  1  0  0  0  0
  1  2  1  0  0  0  0
 18 19  2  0  0  0  0
 18 20  1  0  0  0  0
 16 17  1  0  0  0  0
 14 15  2  0  0  0  0
 14 16  1  0  0  0  0
 11 12  1  0  0  0  0
 11 13  1  0  0  0  0
 11 14  1  0  0  0  0
  9 10  1  0  0  0  0
  9 11  1  0  0  0  0
  9 18  1  0  0  0  0
  7  8  1  0  0  0  0
  7  9  1  0  0  0  0
 22 23  1  0  0  0  0
 22 24  1  0  0  0  0
 22 25  1  0  0  0  0
 20 21  1  0  0  0  0
 20 22  1  0  0  0  0
M  END
$$$$
default_name
  -OEChem-02102213163D

 25 24  0     1  0  0  0  0  0999 V2000
   -2.7826   -3.8464    0.7821 H   0  0  0  0  0  0  0  0  0  0  0  0
   -2.8156   -2.8034    0.4711 C   0  0  0  0  0  0  0  0  0  0  0  0
   -3.4336   -2.2354    1.1641 H   0  0  0  0  0  0  0  0  0  0  0  0
   -3.2256   -2.7344   -0.5349 H   0  0  0  0  0  0  0  0  0  0  0  0
   -1.4126   -2.2444    0.4801 C   0  0  0  0  0  0  0  0  0  0  0  0
   -0.4686   -2.9534    0.8001 O   0  0  0  0  0  0  0  0  0  0  0  0
   -1.2736   -0.9704    0.1241 N   0  0  0  0  0  0  0  0  0  0  0  0
   -2.0996   -0.4354   -0.1019 H   0  0  0  0  0  0  0  0  0  0  0  0
   -0.0016   -0.2394    0.1271 C   0  0  1  0  0  0  0  0  0  0  0  0
    0.6995   -0.7619   -0.5275 H   0  0  0  0  0  0  0  0  0  0  0  0
   -0.2283    1.1832   -0.4215 C   0  0  0  0  0  0  0  0  0  0  0  0
   -0.2223    1.8958    0.4042 H   0  0  0  0  0  0  0  0  0  0  0  0
    0.5836    1.4490   -1.0994 H   0  0  0  0  0  0  0  0  0  0  0  0
   -1.5612    1.3495   -1.1450 C   0  0  0  0  0  0  0  0  0  0  0  0
   -2.5058    0.5732   -1.0858 O   0  0  0  0  0  0  0  0  0  0  0  0
   -1.6559    2.4551   -1.9069 O   0  0  0  0  0  0  0  0  0  0  0  0
   -2.5378    2.4419   -2.2802 H   0  0  0  0  0  0  0  0  0  0  0  0
    0.5920   -0.2154    1.5497 C   0  0  0  0  0  0  0  0  0  0  0  0
    1.7860   -0.4596    1.7183 O   0  0  0  0  0  0  0  0  0  0  0  0
   -0.2294    0.0669    2.5672 N   0  0  0  0  0  0  0  0  0  0  0  0
   -1.2130    0.1938    2.3518 H   0  0  0  0  0  0  0  0  0  0  0  0
    0.1836    0.1337    3.9673 C   0  0  0  0  0  0  0  0  0  0  0  0
    1.0451    0.7976    4.0666 H   0  0  0  0  0  0  0  0  0  0  0  0
   -0.6344    0.5115    4.5820 H   0  0  0  0  0  0  0  0  0  0  0  0
    0.4676   -0.8609    4.3157 H   0  0  0  0  0  0  0  0  0  0  0  0
  5  6  2  0  0  0  0
  5  7  1  0  0  0  0
  2  3  1  0  0  0  0
  2  4  1  0  0  0  0
  2  5  1  0  0  0  0
  1  2  1  0  0  0  0
 18 19  2  0  0  0  0
 18 20  1  0  0  0  0
 16 17  1  0  0  0  0
 14 15  2  0  0  0  0
 14 16  1  0  0  0  0
 11 12  1  0  0  0  0
 11 13  1  0  0  0  0
 11 14  1  0  0  0  0
  9 10  1  0  0  0  0
  9 11  1  0  0  0  0
  9 18  1  0  0  0  0
  7  8  1  0  0  0  0
  7  9  1  0  0  0  0
 22 23  1  0  0  0  0
 22 24  1  0  0  0  0
 22 25  1  0  0  0  0
 20 21  1  0  0  0  0
 20 22  1  0  0  0  0
M  END
$$$$
default_name
  -OEChem-02102213163D

 25 24  0     1  0  0  0  0  0999 V2000
   -2.7826   -3.8464    0.7821 H   0  0  0  0  0  0  0  0  0  0  0  0
   -2.8156   -2.8034    0.4711 C   0  0  0  0  0  0  0  0  0  0  0  0
   -3.4336   -2.2354    1.1641 H   0  0  0  0  0  0  0  0  0  0  0  0
   -3.2256   -2.7344   -0.5349 H   0  0  0  0  0  0  0  0  0  0  0  0
   -1.4126   -2.2444    0.4801 C   0  0  0  0  0  0  0  0  0  0  0  0
   -0.4686   -2.9534    0.8001 O   0  0  0  0  0  0  0  0  0  0  0  0
   -1.2736   -0.9704    0.1241 N   0  0  0  0  0  0  0  0  0  0  0  0
   -2.0996   -0.4354   -0.1019 H   0  0  0  0  0  0  0  0  0  0  0  0
   -0.0016   -0.2394    0.1271 C   0  0  1  0  0  0  0  0  0  0  0  0
    0.6995   -0.7619   -0.5275 H   0  0  0  0  0  0  0  0  0  0  0  0
   -0.2283    1.1832   -0.4215 C   0  0  0  0  0  0  0  0  0  0  0  0
   -0.2223    1.8958    0.4042 H   0  0  0  0  0  0  0  0  0  0  0  0
    0.5836    1.4490   -1.0994 H   0  0  0  0  0  0  0  0  0  0  0  0
   -1.5612    1.3495   -1.1450 C   0  0  0  0  0  0  0  0  0  0  0  0
   -2.5884    0.7316   -0.8972 O   0  0  0  0  0  0  0  0  0  0  0  0
   -1.5553    2.2589   -2.1374 O   0  0  0  0  0  0  0  0  0  0  0  0
   -2.4474    2.2735   -2.4854 H   0  0  0  0  0  0  0  0  0  0  0  0
    0.5920   -0.2154    1.5497 C   0  0  0  0  0  0  0  0  0  0  0  0
    1.7860   -0.4596    1.7183 O   0  0  0  0  0  0  0  0  0  0  0  0
   -0.2294    0.0669    2.5672 N   0  0  0  0  0  0  0  0  0  0  0  0
   -1.2130    0.1938    2.3518 H   0  0  0  0  0  0  0  0  0  0  0  0
    0.1836    0.1337    3.9673 C   0  0  0  0  0  0  0  0  0  0  0  0
    1.0451    0.7976    4.0666 H   0  0  0  0  0  0  0  0  0  0  0  0
   -0.6344    0.5115    4.5820 H   0  0  0  0  0  0  0  0  0  0  0  0
    0.4676   -0.8609    4.3157 H   0  0  0  0  0  0  0  0  0  0  0  0
  5  6  2  0  0  0  0
  5  7  1  0  0  0  0
  2  3  1  0  0  0  0
  2  4  1  0  0  0  0
  2  5  1  0  0  0  0
  1  2  1  0  0  0  0
 18 19  2  0  0  0  0
 18 20  1  0  0  0  0
 16 17  1  0  0  0  0
 14 15  2  0  0  0  0
 14 16  1  0  0  0  0
 11 12  1  0  0  0  0
 11 13  1  0  0  0  0
 11 14  1  0  0  0  0
  9 10  1  0  0  0  0
  9 11  1  0  0  0  0
  9 18  1  0  0  0  0
  7  8  1  0  0  0  0
  7  9  1  0  0  0  0
 22 23  1  0  0  0  0
 22 24  1  0  0  0  0
 22 25  1  0  0  0  0
 20 21  1  0  0  0  0
 20 22  1  0  0  0  0
M  END
$$$$
default_name
  -OEChem-02102213163D

 25 24  0     1  0  0  0  0  0999 V2000
   -2.7826   -3.8464    0.7821 H   0  0  0  0  0  0  0  0  0  0  0  0
   -2.8156   -2.8034    0.4711 C   0  0  0  0  0  0  0  0  0  0  0  0
   -3.4336   -2.2354    1.1641 H   0  0  0  0  0  0  0  0  0  0  0  0
   -3.2256   -2.7344   -0.5349 H   0  0  0  0  0  0  0  0  0  0  0  0
   -1.4126   -2.2444    0.4801 C   0  0  0  0  0  0  0  0  0  0  0  0
   -0.4686   -2.9534    0.8001 O   0  0  0  0  0  0  0  0  0  0  0  0
   -1.2736   -0.9704    0.1241 N   0  0  0  0  0  0  0  0  0  0  0  0
   -2.0996   -0.4354   -0.1019 H   0  0  0  0  0  0  0  0  0  0  0  0
   -0.0016   -0.2394    0.1271 C   0  0  1  0  0  0  0  0  0  0  0  0
    0.6995   -0.7619   -0.5275 H   0  0  0  0  0  0  0  0  0  0  0  0
   -0.2283    1.1832   -0.4215 C   0  0  0  0  0  0  0  0  0  0  0  0
   -0.2223    1.8958    0.4042 H   0  0  0  0  0  0  0  0  0  0  0  0
    0.5836    1.4490   -1.0994 H   0  0  0  0  0  0  0  0  0  0  0  0
   -1.5612    1.3495   -1.1450 C   0  0  0  0  0  0  0  0  0  0  0  0
   -2.6435    0.9375   -0.7485 O   0  0  0  0  0  0  0  0  0  0  0  0
   -1.4887    2.0049   -2.3186 O   0  0  0  0  0  0  0  0  0  0  0  0
   -2.3866    2.0533   -2.6481 H   0  0  0  0  0  0  0  0  0  0  0  0
    0.5920   -0.2154    1.5497 C   0  0  0  0  0  0  0  0  0  0  0  0
    1.7860   -0.4596    1.7183 O   0  0  0  0  0  0  0  0  0  0  0  0
   -0.2294    0.0669    2.5672 N   0  0  0  0  0  0  0  0  0  0  0  0
   -1.2130    0.1938    2.3518 H   0  0  0  0  0  0  0  0  0  0  0  0
    0.1836    0.1337    3.9673 C   0  0  0  0  0  0  0  0  0  0  0  0
    1.0451    0.7976    4.0666 H   0  0  0  0  0  0  0  0  0  0  0  0
   -0.6344    0.5115    4.5820 H   0  0  0  0  0  0  0  0  0  0  0  0
    0.4676   -0.8609    4.3157 H   0  0  0  0  0  0  0  0  0  0  0  0
  5  6  2  0  0  0  0
  5  7  1  0  0  0  0
  2  3  1  0  0  0  0
  2  4  1  0  0  0  0
  2  5  1  0  0  0  0
  1  2  1  0  0  0  0
 18 19  2  0  0  0  0
 18 20  1  0  0  0  0
 16 17  1  0  0  0  0
 14 15  2  0  0  0  0
 14 16  1  0  0  0  0
 11 12  1  0  0  0  0
 11 13  1  0  0  0  0
 11 14  1  0  0  0  0
  9 10  1  0  0  0  0
  9 11  1  0  0  0  0
  9 18  1  0  0  0  0
  7  8  1  0  0  0  0
  7  9  1  0  0  0  0
 22 23  1  0  0  0  0
 22 24  1  0  0  0  0
 22 25  1  0  0  0  0
 20 21  1  0  0  0  0
 20 22  1  0  0  0  0
M  END
$$$$
default_name
  -OEChem-02102213163D

 25 24  0     1  0  0  0  0  0999 V2000
   -2.7826   -3.8464    0.7821 H   0  0  0  0  0  0  0  0  0  0  0  0
   -2.8156   -2.8034    0.4711 C   0  0  0  0  0  0  0  0  0  0  0  0
   -3.4336   -2.2354    1.1641 H   0  0  0  0  0  0  0  0  0  0  0  0
   -3.2256   -2.7344   -0.5349 H   0  0  0  0  0  0  0  0  0  0  0  0
   -1.4126   -2.2444    0.4801 C   0  0  0  0  0  0  0  0  0  0  0  0
   -0.4686   -2.9534    0.8001 O   0  0  0  0  0  0  0  0  0  0  0  0
   -1.2736   -0.9704    0.1241 N   0  0  0  0  0  0  0  0  0  0  0  0
   -2.0996   -0.4354   -0.1019 H   0  0  0  0  0  0  0  0  0  0  0  0
   -0.0016   -0.2394    0.1271 C   0  0  1  0  0  0  0  0  0  0  0  0
    0.6995   -0.7619   -0.5275 H   0  0  0  0  0  0  0  0  0  0  0  0
   -0.2283    1.1832   -0.4215 C   0  0  0  0  0  0  0  0  0  0  0  0
   -0.2223    1.8958    0.4042 H   0  0  0  0  0  0  0  0  0  0  0  0
    0.5836    1.4490   -1.0994 H   0  0  0  0  0  0  0  0  0  0  0  0
   -1.5612    1.3495   -1.1450 C   0  0  0  0  0  0  0  0  0  0  0  0
   -2.6672    1.1766   -0.6498 O   0  0  0  0  0  0  0  0  0  0  0  0
   -1.4606    1.7104   -2.4379 O   0  0  0  0  0  0  0  0  0  0  0  0
   -2.3595    1.7964   -2.7571 H   0  0  0  0  0  0  0  0  0  0  0  0
    0.5920   -0.2154    1.5497 C   0  0  0  0  0  0  0  0  0  0  0  0
    1.7860   -0.4596    1.7183 O   0  0  0  0  0  0  0  0  0  0  0  0
   -0.2294    0.0669    2.5672 N   0  0  0  0  0  0  0  0  0  0  0  0
   -1.2130    0.1938    2.3518 H   0  0  0  0  0  0  0  0  0  0  0  0
    0.1836    0.1337    3.9673 C   0  0  0  0  0  0  0  0  0  0  0  0
    1.0451    0.7976    4.0666 H   0  0  0  0  0  0  0  0  0  0  0  0
   -0.6344    0.5115    4.5820 H   0  0  0  0  0  0  0  0  0  0  0  0
    0.4676   -0.8609    4.3157 H   0  0  0  0  0  0  0  0  0  0  0  0
  5  6  2  0  0  0  0
  5  7  1  0  0  0  0
  2  3  1  0  0  0  0
  2  4  1  0  0  0  0
  2  5  1  0  0  0  0
  1  2  1  0  0  0  0
 18 19  2  0  0  0  0
 18 20  1  0  0  0  0
 16 17  1  0  0  0  0
 14 15  2  0  0  0  0
 14 16  1  0  0  0  0
 11 12  1  0  0  0  0
 11 13  1  0  0  0  0
 11 14  1  0  0  0  0
  9 10  1  0  0  0  0
  9 11  1  0  0  0  0
  9 18  1  0  0  0  0
  7  8  1  0  0  0  0
  7  9  1  0  0  0  0
 22 23  1  0  0  0  0
 22 24  1  0  0  0  0
 22 25  1  0  0  0  0
 20 21  1  0  0  0  0
 20 22  1  0  0  0  0
M  END
$$$$
default_name
  -OEChem-02102213163D

 25 24  0     1  0  0  0  0  0999 V2000
   -2.7826   -3.8464    0.7821 H   0  0  0  0  0  0  0  0  0  0  0  0
   -2.8156   -2.8034    0.4711 C   0  0  0  0  0  0  0  0  0  0  0  0
   -3.4336   -2.2354    1.1641 H   0  0  0  0  0  0  0  0  0  0  0  0
   -3.2256   -2.7344   -0.5349 H   0  0  0  0  0  0  0  0  0  0  0  0
   -1.4126   -2.2444    0.4801 C   0  0  0  0  0  0  0  0  0  0  0  0
   -0.4686   -2.9534    0.8001 O   0  0  0  0  0  0  0  0  0  0  0  0
   -1.2736   -0.9704    0.1241 N   0  0  0  0  0  0  0  0  0  0  0  0
   -2.0996   -0.4354   -0.1019 H   0  0  0  0  0  0  0  0  0  0  0  0
   -0.0016   -0.2394    0.1271 C   0  0  1  0  0  0  0  0  0  0  0  0
    0.6995   -0.7619   -0.5275 H   0  0  0  0  0  0  0  0  0  0  0  0
   -0.2283    1.1832   -0.4215 C   0  0  0  0  0  0  0  0  0  0  0  0
   -0.2223    1.8958    0.4042 H   0  0  0  0  0  0  0  0  0  0  0  0
    0.5836    1.4490   -1.0994 H   0  0  0  0  0  0  0  0  0  0  0  0
   -1.5612    1.3495   -1.1450 C   0  0  0  0  0  0  0  0  0  0  0  0
   -2.6579    1.4329   -0.6079 O   0  0  0  0  0  0  0  0  0  0  0  0
   -1.4730    1.3955   -2.4874 O   0  0  0  0  0  0  0  0  0  0  0  0
   -2.3678    1.5202   -2.8051 H   0  0  0  0  0  0  0  0  0  0  0  0
    0.5920   -0.2154    1.5497 C   0  0  0  0  0  0  0  0  0  0  0  0
    1.7860   -0.4596    1.7183 O   0  0  0  0  0  0  0  0  0  0  0  0
   -0.2294    0.0669    2.5672 N   0  0  0  0  0  0  0  0  0  0  0  0
   -1.2130    0.1938    2.3518 H   0  0  0  0  0  0  0  0  0  0  0  0
    0.1836    0.1337    3.9673 C   0  0  0  0  0  0  0  0  0  0  0  0
    1.0451    0.7976    4.0666 H   0  0  0  0  0  0  0  0  0  0  0  0
   -0.6344    0.5115    4.5820 H   0  0  0  0  0  0  0  0  0  0  0  0
    0.4676   -0.8609    4.3157 H   0  0  0  0  0  0  0  0  0  0  0  0
  5  6  2  0  0  0  0
  5  7  1  0  0  0  0
  2  3  1  0  0  0  0
  2  4  1  0  0  0  0
  2  5  1  0  0  0  0
  1  2  1  0  0  0  0
 18 19  2  0  0  0  0
 18 20  1  0  0  0  0
 16 17  1  0  0  0  0
 14 15  2  0  0  0  0
 14 16  1  0  0  0  0
 11 12  1  0  0  0  0
 11 13  1  0  0  0  0
 11 14  1  0  0  0  0
  9 10  1  0  0  0  0
  9 11  1  0  0  0  0
  9 18  1  0  0  0  0
  7  8  1  0  0  0  0
  7  9  1  0  0  0  0
 22 23  1  0  0  0  0
 22 24  1  0  0  0  0
 22 25  1  0  0  0  0
 20 21  1  0  0  0  0
 20 22  1  0  0  0  0
M  END
$$$$
default_name
  -OEChem-02102213163D

 25 24  0     1  0  0  0  0  0999 V2000
   -2.7826   -3.8464    0.7821 H   0  0  0  0  0  0  0  0  0  0  0  0
   -2.8156   -2.8034    0.4711 C   0  0  0  0  0  0  0  0  0  0  0  0
   -3.4336   -2.2354    1.1641 H   0  0  0  0  0  0  0  0  0  0  0  0
   -3.2256   -2.7344   -0.5349 H   0  0  0  0  0  0  0  0  0  0  0  0
   -1.4126   -2.2444    0.4801 C   0  0  0  0  0  0  0  0  0  0  0  0
   -0.4686   -2.9534    0.8001 O   0  0  0  0  0  0  0  0  0  0  0  0
   -1.2736   -0.9704    0.1241 N   0  0  0  0  0  0  0  0  0  0  0  0
   -2.0996   -0.4354   -0.1019 H   0  0  0  0  0  0  0  0  0  0  0  0
   -0.0016   -0.2394    0.1271 C   0  0  1  0  0  0  0  0  0  0  0  0
    0.6995   -0.7619   -0.5275 H   0  0  0  0  0  0  0  0  0  0  0  0
   -0.2283    1.1832   -0.4215 C   0  0  0  0  0  0  0  0  0  0  0  0
   -0.2223    1.8958    0.4042 H   0  0  0  0  0  0  0  0  0  0  0  0
    0.5836    1.4490   -1.0994 H   0  0  0  0  0  0  0  0  0  0  0  0
   -1.5612    1.3495   -1.1450 C   0  0  0  0  0  0  0  0  0  0  0  0
   -2.6164    1.6888   -0.6257 O   0  0  0  0  0  0  0  0  0  0  0  0
   -1.5250    1.0816   -2.4637 O   0  0  0  0  0  0  0  0  0  0  0  0
   -2.4112    1.2436   -2.7888 H   0  0  0  0  0  0  0  0  0  0  0  0
    0.5920   -0.2154    1.5497 C   0  0  0  0  0  0  0  0  0  0  0  0
    1.7860   -0.4596    1.7183 O   0  0  0  0  0  0  0  0  0  0  0  0
   -0.2294    0.0669    2.5672 N   0  0  0  0  0  0  0  0  0  0  0  0
   -1.2130    0.1938    2.3518 H   0  0  0  0  0  0  0  0  0  0  0  0
    0.1836    0.1337    3.9673 C   0  0  0  0  0  0  0  0  0  0  0  0
    1.0451    0.7976    4.0666 H   0  0  0  0  0  0  0  0  0  0  0  0
   -0.6344    0.5115    4.5820 H   0  0  0  0  0  0  0  0  0  0  0  0
    0.4676   -0.8609    4.3157 H   0  0  0  0  0  0  0  0  0  0  0  0
  5  6  2  0  0  0  0
  5  7  1  0  0  0  0
  2  3  1  0  0  0  0
  2  4  1  0  0  0  0
  2  5  1  0  0  0  0
  1  2  1  0  0  0  0
 18 19  2  0  0  0  0
 18 20  1  0  0  0  0
 16 17  1  0  0  0  0
 14 15  2  0  0  0  0
 14 16  1  0  0  0  0
 11 12  1  0  0  0  0
 11 13  1  0  0  0  0
 11 14  1  0  0  0  0
  9 10  1  0  0  0  0
  9 11  1  0  0  0  0
  9 18  1  0  0  0  0
  7  8  1  0  0  0  0
  7  9  1  0  0  0  0
 22 23  1  0  0  0  0
 22 24  1  0  0  0  0
 22 25  1  0  0  0  0
 20 21  1  0  0  0  0
 20 22  1  0  0  0  0
M  END
$$$$
default_name
  -OEChem-02102213163D

 25 24  0     1  0  0  0  0  0999 V2000
   -2.7826   -3.8464    0.7821 H   0  0  0  0  0  0  0  0  0  0  0  0
   -2.8156   -2.8034    0.4711 C   0  0  0  0  0  0  0  0  0  0  0  0
   -3.4336   -2.2354    1.1641 H   0  0  0  0  0  0  0  0  0  0  0  0
   -3.2256   -2.7344   -0.5349 H   0  0  0  0  0  0  0  0  0  0  0  0
   -1.4126   -2.2444    0.4801 C   0  0  0  0  0  0  0  0  0  0  0  0
   -0.4686   -2.9534    0.8001 O   0  0  0  0  0  0  0  0  0  0  0  0
   -1.2736   -0.9704    0.1241 N   0  0  0  0  0  0  0  0  0  0  0  0
   -2.0996   -0.4354   -0.1019 H   0  0  0  0  0  0  0  0  0  0  0  0
   -0.0016   -0.2394    0.1271 C   0  0  1  0  0  0  0  0  0  0  0  0
    0.6995   -0.7619   -0.5275 H   0  0  0  0  0  0  0  0  0  0  0  0
   -0.2283    1.1832   -0.4215 C   0  0  0  0  0  0  0  0  0  0  0  0
   -0.2223    1.8958    0.4042 H   0  0  0  0  0  0  0  0  0  0  0  0
    0.5836    1.4490   -1.0994 H   0  0  0  0  0  0  0  0  0  0  0  0
   -1.5612    1.3495   -1.1450 C   0  0  0  0  0  0  0  0  0  0  0  0
   -2.5454    1.9268   -0.7018 O   0  0  0  0  0  0  0  0  0  0  0  0
   -1.6131    0.7902   -2.3684 O   0  0  0  0  0  0  0  0  0  0  0  0
   -2.4865    0.9855   -2.7093 H   0  0  0  0  0  0  0  0  0  0  0  0
    0.5920   -0.2154    1.5497 C   0  0  0  0  0  0  0  0  0  0  0  0
    1.7860   -0.4596    1.7183 O   0  0  0  0  0  0  0  0  0  0  0  0
   -0.2294    0.0669    2.5672 N   0  0  0  0  0  0  0  0  0  0  0  0
   -1.2130    0.1938    2.3518 H   0  0  0  0  0  0  0  0  0  0  0  0
    0.1836    0.1337    3.9673 C   0  0  0  0  0  0  0  0  0  0  0  0
    1.0451    0.7976    4.0666 H   0  0  0  0  0  0  0  0  0  0  0  0
   -0.6344    0.5115    4.5820 H   0  0  0  0  0  0  0  0  0  0  0  0
    0.4676   -0.8609    4.3157 H   0  0  0  0  0  0  0  0  0  0  0  0
  5  6  2  0  0  0  0
  5  7  1  0  0  0  0
  2  3  1  0  0  0  0
  2  4  1  0  0  0  0
  2  5  1  0  0  0  0
  1  2  1  0  0  0  0
 18 19  2  0  0  0  0
 18 20  1  0  0  0  0
 16 17  1  0  0  0  0
 14 15  2  0  0  0  0
 14 16  1  0  0  0  0
 11 12  1  0  0  0  0
 11 13  1  0  0  0  0
 11 14  1  0  0  0  0
  9 10  1  0  0  0  0
  9 11  1  0  0  0  0
  9 18  1  0  0  0  0
  7  8  1  0  0  0  0
  7  9  1  0  0  0  0
 22 23  1  0  0  0  0
 22 24  1  0  0  0  0
 22 25  1  0  0  0  0
 20 21  1  0  0  0  0
 20 22  1  0  0  0  0
M  END
$$$$
default_name
  -OEChem-02102213163D

 25 24  0     1  0  0  0  0  0999 V2000
   -2.7826   -3.8464    0.7821 H   0  0  0  0  0  0  0  0  0  0  0  0
   -2.8156   -2.8034    0.4711 C   0  0  0  0  0  0  0  0  0  0  0  0
   -3.4336   -2.2354    1.1641 H   0  0  0  0  0  0  0  0  0  0  0  0
   -3.2256   -2.7344   -0.5349 H   0  0  0  0  0  0  0  0  0  0  0  0
   -1.4126   -2.2444    0.4801 C   0  0  0  0  0  0  0  0  0  0  0  0
   -0.4686   -2.9534    0.8001 O   0  0  0  0  0  0  0  0  0  0  0  0
   -1.2736   -0.9704    0.1241 N   0  0  0  0  0  0  0  0  0  0  0  0
   -2.0996   -0.4354   -0.1019 H   0  0  0  0  0  0  0  0  0  0  0  0
   -0.0016   -0.2394    0.1271 C   0  0  1  0  0  0  0  0  0  0  0  0
    0.6995   -0.7619   -0.5275 H   0  0  0  0  0  0  0  0  0  0  0  0
   -0.2283    1.1832   -0.4215 C   0  0  0  0  0  0  0  0  0  0  0  0
   -0.2223    1.8958    0.4042 H   0  0  0  0  0  0  0  0  0  0  0  0
    0.5836    1.4490   -1.0994 H   0  0  0  0  0  0  0  0  0  0  0  0
   -1.5612    1.3495   -1.1450 C   0  0  0  0  0  0  0  0  0  0  0  0
   -2.4497    2.1308   -0.8312 O   0  0  0  0  0  0  0  0  0  0  0  0
   -1.7313    0.5412   -2.2079 O   0  0  0  0  0  0  0  0  0  0  0  0
   -2.5888    0.7634   -2.5720 H   0  0  0  0  0  0  0  0  0  0  0  0
    0.5920   -0.2154    1.5497 C   0  0  0  0  0  0  0  0  0  0  0  0
    1.7860   -0.4596    1.7183 O   0  0  0  0  0  0  0  0  0  0  0  0
   -0.2294    0.0669    2.5672 N   0  0  0  0  0  0  0  0  0  0  0  0
   -1.2130    0.1938    2.3518 H   0  0  0  0  0  0  0  0  0  0  0  0
    0.1836    0.1337    3.9673 C   0  0  0  0  0  0  0  0  0  0  0  0
    1.0451    0.7976    4.0666 H   0  0  0  0  0  0  0  0  0  0  0  0
   -0.6344    0.5115    4.5820 H   0  0  0  0  0  0  0  0  0  0  0  0
    0.4676   -0.8609    4.3157 H   0  0  0  0  0  0  0  0  0  0  0  0
  5  6  2  0  0  0  0
  5  7  1  0  0  0  0
  2  3  1  0  0  0  0
  2  4  1  0  0  0  0
  2  5  1  0  0  0  0
  1  2  1  0  0  0  0
 18 19  2  0  0  0  0
 18 20  1  0  0  0  0
 16 17  1  0  0  0  0
 14 15  2  0  0  0  0
 14 16  1  0  0  0  0
 11 12  1  0  0  0  0
 11 13  1  0  0  0  0
 11 14  1  0  0  0  0
  9 10  1  0  0  0  0
  9 11  1  0  0  0  0
  9 18  1  0  0  0  0
  7  8  1  0  0  0  0
  7  9  1  0  0  0  0
 22 23  1  0  0  0  0
 22 24  1  0  0  0  0
 22 25  1  0  0  0  0
 20 21  1  0  0  0  0
 20 22  1  0  0  0  0
M  END
$$$$
default_name
  -OEChem-02102213163D

 25 24  0     1  0  0  0  0  0999 V2000
   -2.7826   -3.8464    0.7821 H   0  0  0  0  0  0  0  0  0  0  0  0
   -2.8156   -2.8034    0.4711 C   0  0  0  0  0  0  0  0  0  0  0  0
   -3.4336   -2.2354    1.1641 H   0  0  0  0  0  0  0  0  0  0  0  0
   -3.2256   -2.7344   -0.5349 H   0  0  0  0  0  0  0  0  0  0  0  0
   -1.4126   -2.2444    0.4801 C   0  0  0  0  0  0  0  0  0  0  0  0
   -0.4686   -2.9534    0.8001 O   0  0  0  0  0  0  0  0  0  0  0  0
   -1.2736   -0.9704    0.1241 N   0  0  0  0  0  0  0  0  0  0  0  0
   -2.0996   -0.4354   -0.1019 H   0  0  0  0  0  0  0  0  0  0  0  0
   -0.0016   -0.2394    0.1271 C   0  0  1  0  0  0  0  0  0  0  0  0
    0.6995   -0.7619   -0.5275 H   0  0  0  0  0  0  0  0  0  0  0  0
   -0.2283    1.1832   -0.4215 C   0  0  0  0  0  0  0  0  0  0  0  0
   -0.2223    1.8958    0.4042 H   0  0  0  0  0  0  0  0  0  0  0  0
    0.5836    1.4490   -1.0994 H   0  0  0  0  0  0  0  0  0  0  0  0
   -1.5612    1.3495   -1.1450 C   0  0  0  0  0  0  0  0  0  0  0  0
   -2.3359    2.2868   -1.0050 O   0  0  0  0  0  0  0  0  0  0  0  0
   -1.8715    0.3513   -1.9932 O   0  0  0  0  0  0  0  0  0  0  0  0
   -2.7109    0.5924   -2.3863 H   0  0  0  0  0  0  0  0  0  0  0  0
    0.5920   -0.2154    1.5497 C   0  0  0  0  0  0  0  0  0  0  0  0
    1.7860   -0.4596    1.7183 O   0  0  0  0  0  0  0  0  0  0  0  0
   -0.2294    0.0669    2.5672 N   0  0  0  0  0  0  0  0  0  0  0  0
   -1.2130    0.1938    2.3518 H   0  0  0  0  0  0  0  0  0  0  0  0
    0.1836    0.1337    3.9673 C   0  0  0  0  0  0  0  0  0  0  0  0
    1.0451    0.7976    4.0666 H   0  0  0  0  0  0  0  0  0  0  0  0
   -0.6344    0.5115    4.5820 H   0  0  0  0  0  0  0  0  0  0  0  0
    0.4676   -0.8609    4.3157 H   0  0  0  0  0  0  0  0  0  0  0  0
  5  6  2  0  0  0  0
  5  7  1  0  0  0  0
  2  3  1  0  0  0  0
  2  4  1  0  0  0  0
  2  5  1  0  0  0  0
  1  2  1  0  0  0  0
 18 19  2  0  0  0  0
 18 20  1  0  0  0  0
 16 17  1  0  0  0  0
 14 15  2  0  0  0  0
 14 16  1  0  0  0  0
 11 12  1  0  0  0  0
 11 13  1  0  0  0  0
 11 14  1  0  0  0  0
  9 10  1  0  0  0  0
  9 11  1  0  0  0  0
  9 18  1  0  0  0  0
  7  8  1  0  0  0  0
  7  9  1  0  0  0  0
 22 23  1  0  0  0  0
 22 24  1  0  0  0  0
 22 25  1  0  0  0  0
 20 21  1  0  0  0  0
 20 22  1  0  0  0  0
M  END
$$$$
default_name
  -OEChem-02102213163D

 25 24  0     1  0  0  0  0  0999 V2000
   -2.7826   -3.8464    0.7821 H   0  0  0  0  0  0  0  0  0  0  0  0
   -2.8156   -2.8034    0.4711 C   0  0  0  0  0  0  0  0  0  0  0  0
   -3.4336   -2.2354    1.1641 H   0  0  0  0  0  0  0  0  0  0  0  0
   -3.2256   -2.7344   -0.5349 H   0  0  0  0  0  0  0  0  0  0  0  0
   -1.4126   -2.2444    0.4801 C   0  0  0  0  0  0  0  0  0  0  0  0
   -0.4686   -2.9534    0.8001 O   0  0  0  0  0  0  0  0  0  0  0  0
   -1.2736   -0.9704    0.1241 N   0  0  0  0  0  0  0  0  0  0  0  0
   -2.0996   -0.4354   -0.1019 H   0  0  0  0  0  0  0  0  0  0  0  0
   -0.0016   -0.2394    0.1271 C   0  0  1  0  0  0  0  0  0  0  0  0
    0.6995   -0.7619   -0.5275 H   0  0  0  0  0  0  0  0  0  0  0  0
   -0.2283    1.1832   -0.4215 C   0  0  0  0  0  0  0  0  0  0  0  0
   -0.2223    1.8958    0.4042 H   0  0  0  0  0  0  0  0  0  0  0  0
    0.5836    1.4490   -1.0994 H   0  0  0  0  0  0  0  0  0  0  0  0
   -1.5612    1.3495   -1.1450 C   0  0  0  0  0  0  0  0  0  0  0  0
   -2.2117    2.3842   -1.2114 O   0  0  0  0  0  0  0  0  0  0  0  0
   -2.0242    0.2337   -1.7390 O   0  0  0  0  0  0  0  0  0  0  0  0
   -2.8446    0.4842   -2.1648 H   0  0  0  0  0  0  0  0  0  0  0  0
    0.5920   -0.2154    1.5497 C   0  0  0  0  0  0  0  0  0  0  0  0
    1.7860   -0.4596    1.7183 O   0  0  0  0  0  0  0  0  0  0  0  0
   -0.2294    0.0669    2.5672 N   0  0  0  0  0  0  0  0  0  0  0  0
   -1.2130    0.1938    2.3518 H   0  0  0  0  0  0  0  0  0  0  0  0
    0.1836    0.1337    3.9673 C   0  0  0  0  0  0  0  0  0  0  0  0
    1.0451    0.7976    4.0666 H   0  0  0  0  0  0  0  0  0  0  0  0
   -0.6344    0.5115    4.5820 H   0  0  0  0  0  0  0  0  0  0  0  0
    0.4676   -0.8609    4.3157 H   0  0  0  0  0  0  0  0  0  0  0  0
  5  6  2  0  0  0  0
  5  7  1  0  0  0  0
  2  3  1  0  0  0  0
  2  4  1  0  0  0  0
  2  5  1  0  0  0  0
  1  2  1  0  0  0  0
 18 19  2  0  0  0  0
 18 20  1  0  0  0  0
 16 17  1  0  0  0  0
 14 15  2  0  0  0  0
 14 16  1  0  0  0  0
 11 12  1  0  0  0  0
 11 13  1  0  0  0  0
 11 14  1  0  0  0  0
  9 10  1  0  0  0  0
  9 11  1  0  0  0  0
  9 18  1  0  0  0  0
  7  8  1  0  0  0  0
  7  9  1  0  0  0  0
 22 23  1  0  0  0  0
 22 24  1  0  0  0  0
 22 25  1  0  0  0  0
 20 21  1  0  0  0  0
 20 22  1  0  0  0  0
M  END
$$$$
default_name
  -OEChem-02102213163D

 25 24  0     1  0  0  0  0  0999 V2000
   -2.7826   -3.8464    0.7821 H   0  0  0  0  0  0  0  0  0  0  0  0
   -2.8156   -2.8034    0.4711 C   0  0  0  0  0  0  0  0  0  0  0  0
   -3.4336   -2.2354    1.1641 H   0  0  0  0  0  0  0  0  0  0  0  0
   -3.2256   -2.7344   -0.5349 H   0  0  0  0  0  0  0  0  0  0  0  0
   -1.4126   -2.2444    0.4801 C   0  0  0  0  0  0  0  0  0  0  0  0
   -0.4686   -2.9534    0.8001 O   0  0  0  0  0  0  0  0  0  0  0  0
   -1.2736   -0.9704    0.1241 N   0  0  0  0  0  0  0  0  0  0  0  0
   -2.0996   -0.4354   -0.1019 H   0  0  0  0  0  0  0  0  0  0  0  0
   -0.0016   -0.2394    0.1271 C   0  0  1  0  0  0  0  0  0  0  0  0
    0.6995   -0.7619   -0.5275 H   0  0  0  0  0  0  0  0  0  0  0  0
   -0.2283    1.1832   -0.4215 C   0  0  0  0  0  0  0  0  0  0  0  0
   -0.2223    1.8958    0.4042 H   0  0  0  0  0  0  0  0  0  0  0  0
    0.5836    1.4490   -1.0994 H   0  0  0  0  0  0  0  0  0  0  0  0
   -1.5612    1.3495   -1.1450 C   0  0  0  0  0  0  0  0  0  0  0  0
   -2.0856    2.4164   -1.4363 O   0  0  0  0  0  0  0  0  0  0  0  0
   -2.1789    0.1964   -1.4626 O   0  0  0  0  0  0  0  0  0  0  0  0
   -2.9808    0.4462   -1.9226 H   0  0  0  0  0  0  0  0  0  0  0  0
    0.5920   -0.2154    1.5497 C   0  0  0  0  0  0  0  0  0  0  0  0
    1.7860   -0.4596    1.7183 O   0  0  0  0  0  0  0  0  0  0  0  0
   -0.2294    0.0669    2.5672 N   0  0  0  0  0  0  0  0  0  0  0  0
   -1.2130    0.1938    2.3518 H   0  0  0  0  0  0  0  0  0  0  0  0
    0.1836    0.1337    3.9673 C   0  0  0  0  0  0  0  0  0  0  0  0
    1.0451    0.7976    4.0666 H   0  0  0  0  0  0  0  0  0  0  0  0
   -0.6344    0.5115    4.5820 H   0  0  0  0  0  0  0  0  0  0  0  0
    0.4676   -0.8609    4.3157 H   0  0  0  0  0  0  0  0  0  0  0  0
  5  6  2  0  0  0  0
  5  7  1  0  0  0  0
  2  3  1  0  0  0  0
  2  4  1  0  0  0  0
  2  5  1  0  0  0  0
  1  2  1  0  0  0  0
 18 19  2  0  0  0  0
 18 20  1  0  0  0  0
 16 17  1  0  0  0  0
 14 15  2  0  0  0  0
 14 16  1  0  0  0  0
 11 12  1  0  0  0  0
 11 13  1  0  0  0  0
 11 14  1  0  0  0  0
  9 10  1  0  0  0  0
  9 11  1  0  0  0  0
  9 18  1  0  0  0  0
  7  8  1  0  0  0  0
  7  9  1  0  0  0  0
 22 23  1  0  0  0  0
 22 24  1  0  0  0  0
 22 25  1  0  0  0  0
 20 21  1  0  0  0  0
 20 22  1  0  0  0  0
M  END
$$$$
default_name
  -OEChem-02102213163D

 25 24  0     1  0  0  0  0  0999 V2000
   -2.7826   -3.8464    0.7821 H   0  0  0  0  0  0  0  0  0  0  0  0
   -2.8156   -2.8034    0.4711 C   0  0  0  0  0  0  0  0  0  0  0  0
   -3.4336   -2.2354    1.1641 H   0  0  0  0  0  0  0  0  0  0  0  0
   -3.2256   -2.7344   -0.5349 H   0  0  0  0  0  0  0  0  0  0  0  0
   -1.4126   -2.2444    0.4801 C   0  0  0  0  0  0  0  0  0  0  0  0
   -0.4686   -2.9534    0.8001 O   0  0  0  0  0  0  0  0  0  0  0  0
   -1.2736   -0.9704    0.1241 N   0  0  0  0  0  0  0  0  0  0  0  0
   -2.0996   -0.4354   -0.1019 H   0  0  0  0  0  0  0  0  0  0  0  0
   -0.0016   -0.2394    0.1271 C   0  0  1  0  0  0  0  0  0  0  0  0
    0.6995   -0.7619   -0.5275 H   0  0  0  0  0  0  0  0  0  0  0  0
   -0.2283    1.1832   -0.4215 C   0  0  0  0  0  0  0  0  0  0  0  0
    0.0385    1.9138    0.3431 H   0  0  0  0  0  0  0  0  0  0  0  0
    0.4166    1.3509   -1.2848 H   0  0  0  0  0  0  0  0  0  0  0  0
   -1.6764    1.4581   -0.8157 C   0  0  0  0  0  0  0  0  0  0  0  0
   -2.1025    2.5099   -1.2743 O   0  0  0  0  0  0  0  0  0  0  0  0
   -2.5208    0.4289   -0.6166 O   0  0  0  0  0  0  0  0  0  0  0  0
   -3.3775    0.7297   -0.9211 H   0  0  0  0  0  0  0  0  0  0  0  0
    0.5920   -0.2154    1.5497 C   0  0  0  0  0  0  0  0  0  0  0  0
    1.7860   -0.4596    1.7183 O   0  0  0  0  0  0  0  0  0  0  0  0
   -0.2294    0.0669    2.5672 N   0  0  0  0  0  0  0  0  0  0  0  0
   -1.2130    0.1938    2.3518 H   0  0  0  0  0  0  0  0  0  0  0  0
    0.1836    0.1337    3.9673 C   0  0  0  0  0  0  0  0  0  0  0  0
    1.0451    0.7976    4.0666 H   0  0  0  0  0  0  0  0  0  0  0  0
   -0.6344    0.5115    4.5820 H   0  0  0  0  0  0  0  0  0  0  0  0
    0.4676   -0.8609    4.3157 H   0  0  0  0  0  0  0  0  0  0  0  0
  5  6  2  0  0  0  0
  5  7  1  0  0  0  0
  2  3  1  0  0  0  0
  2  4  1  0  0  0  0
  2  5  1  0  0  0  0
  1  2  1  0  0  0  0
 18 19  2  0  0  0  0
 18 20  1  0  0  0  0
 16 17  1  0  0  0  0
 14 15  2  0  0  0  0
 14 16  1  0  0  0  0
 11 12  1  0  0  0  0
 11 13  1  0  0  0  0
 11 14  1  0  0  0  0
  9 10  1  0  0  0  0
  9 11  1  0  0  0  0
  9 18  1  0  0  0  0
  7  8  1  0  0  0  0
  7  9  1  0  0  0  0
 22 23  1  0  0  0  0
 22 24  1  0  0  0  0
 22 25  1  0  0  0  0
 20 21  1  0  0  0  0
 20 22  1  0  0  0  0
M  END
$$$$
default_name
  -OEChem-02102213163D

 25 24  0     1  0  0  0  0  0999 V2000
   -2.7826   -3.8464    0.7821 H   0  0  0  0  0  0  0  0  0  0  0  0
   -2.8156   -2.8034    0.4711 C   0  0  0  0  0  0  0  0  0  0  0  0
   -3.4336   -2.2354    1.1641 H   0  0  0  0  0  0  0  0  0  0  0  0
   -3.2256   -2.7344   -0.5349 H   0  0  0  0  0  0  0  0  0  0  0  0
   -1.4126   -2.2444    0.4801 C   0  0  0  0  0  0  0  0  0  0  0  0
   -0.4686   -2.9534    0.8001 O   0  0  0  0  0  0  0  0  0  0  0  0
   -1.2736   -0.9704    0.1241 N   0  0  0  0  0  0  0  0  0  0  0  0
   -2.0996   -0.4354   -0.1019 H   0  0  0  0  0  0  0  0  0  0  0  0
   -0.0016   -0.2394    0.1271 C   0  0  1  0  0  0  0  0  0  0  0  0
    0.6995   -0.7619   -0.5275 H   0  0  0  0  0  0  0  0  0  0  0  0
   -0.2283    1.1832   -0.4215 C   0  0  0  0  0  0  0  0  0  0  0  0
    0.0385    1.9138    0.3431 H   0  0  0  0  0  0  0  0  0  0  0  0
    0.4166    1.3509   -1.2848 H   0  0  0  0  0  0  0  0  0  0  0  0
   -1.6764    1.4581   -0.8157 C   0  0  0  0  0  0  0  0  0  0  0  0
   -2.0621    2.3943   -1.5035 O   0  0  0  0  0  0  0  0  0  0  0  0
   -2.5698    0.5728   -0.3361 O   0  0  0  0  0  0  0  0  0  0  0  0
   -3.4220    0.8516   -0.6725 H   0  0  0  0  0  0  0  0  0  0  0  0
    0.5920   -0.2154    1.5497 C   0  0  0  0  0  0  0  0  0  0  0  0
    1.7860   -0.4596    1.7183 O   0  0  0  0  0  0  0  0  0  0  0  0
   -0.2294    0.0669    2.5672 N   0  0  0  0  0  0  0  0  0  0  0  0
   -1.2130    0.1938    2.3518 H   0  0  0  0  0  0  0  0  0  0  0  0
    0.1836    0.1337    3.9673 C   0  0  0  0  0  0  0  0  0  0  0  0
    1.0451    0.7976    4.0666 H   0  0  0  0  0  0  0  0  0  0  0  0
   -0.6344    0.5115    4.5820 H   0  0  0  0  0  0  0  0  0  0  0  0
    0.4676   -0.8609    4.3157 H   0  0  0  0  0  0  0  0  0  0  0  0
  5  6  2  0  0  0  0
  5  7  1  0  0  0  0
  2  3  1  0  0  0  0
  2  4  1  0  0  0  0
  2  5  1  0  0  0  0
  1  2  1  0  0  0  0
 18 19  2  0  0  0  0
 18 20  1  0  0  0  0
 16 17  1  0  0  0  0
 14 15  2  0  0  0  0
 14 16  1  0  0  0  0
 11 12  1  0  0  0  0
 11 13  1  0  0  0  0
 11 14  1  0  0  0  0
  9 10  1  0  0  0  0
  9 11  1  0  0  0  0
  9 18  1  0  0  0  0
  7  8  1  0  0  0  0
  7  9  1  0  0  0  0
 22 23  1  0  0  0  0
 22 24  1  0  0  0  0
 22 25  1  0  0  0  0
 20 21  1  0  0  0  0
 20 22  1  0  0  0  0
M  END
$$$$
default_name
  -OEChem-02102213163D

 25 24  0     1  0  0  0  0  0999 V2000
   -2.7826   -3.8464    0.7821 H   0  0  0  0  0  0  0  0  0  0  0  0
   -2.8156   -2.8034    0.4711 C   0  0  0  0  0  0  0  0  0  0  0  0
   -3.4336   -2.2354    1.1641 H   0  0  0  0  0  0  0  0  0  0  0  0
   -3.2256   -2.7344   -0.5349 H   0  0  0  0  0  0  0  0  0  0  0  0
   -1.4126   -2.2444    0.4801 C   0  0  0  0  0  0  0  0  0  0  0  0
   -0.4686   -2.9534    0.8001 O   0  0  0  0  0  0  0  0  0  0  0  0
   -1.2736   -0.9704    0.1241 N   0  0  0  0  0  0  0  0  0  0  0  0
   -2.0996   -0.4354   -0.1019 H   0  0  0  0  0  0  0  0  0  0  0  0
   -0.0016   -0.2394    0.1271 C   0  0  1  0  0  0  0  0  0  0  0  0
    0.6995   -0.7619   -0.5275 H   0  0  0  0  0  0  0  0  0  0  0  0
   -0.2283    1.1832   -0.4215 C   0  0  0  0  0  0  0  0  0  0  0  0
    0.0385    1.9138    0.3431 H   0  0  0  0  0  0  0  0  0  0  0  0
    0.4166    1.3509   -1.2848 H   0  0  0  0  0  0  0  0  0  0  0  0
   -1.6764    1.4581   -0.8157 C   0  0  0  0  0  0  0  0  0  0  0  0
   -2.0415    2.2236   -1.6983 O   0  0  0  0  0  0  0  0  0  0  0  0
   -2.5944    0.7840   -0.0983 O   0  0  0  0  0  0  0  0  0  0  0  0
   -3.4453    1.0334   -0.4603 H   0  0  0  0  0  0  0  0  0  0  0  0
    0.5920   -0.2154    1.5497 C   0  0  0  0  0  0  0  0  0  0  0  0
    1.7860   -0.4596    1.7183 O   0  0  0  0  0  0  0  0  0  0  0  0
   -0.2294    0.0669    2.5672 N   0  0  0  0  0  0  0  0  0  0  0  0
   -1.2130    0.1938    2.3518 H   0  0  0  0  0  0  0  0  0  0  0  0
    0.1836    0.1337    3.9673 C   0  0  0  0  0  0  0  0  0  0  0  0
    1.0451    0.7976    4.0666 H   0  0  0  0  0  0  0  0  0  0  0  0
   -0.6344    0.5115    4.5820 H   0  0  0  0  0  0  0  0  0  0  0  0
    0.4676   -0.8609    4.3157 H   0  0  0  0  0  0  0  0  0  0  0  0
  5  6  2  0  0  0  0
  5  7  1  0  0  0  0
  2  3  1  0  0  0  0
  2  4  1  0  0  0  0
  2  5  1  0  0  0  0
  1  2  1  0  0  0  0
 18 19  2  0  0  0  0
 18 20  1  0  0  0  0
 16 17  1  0  0  0  0
 14 15  2  0  0  0  0
 14 16  1  0  0  0  0
 11 12  1  0  0  0  0
 11 13  1  0  0  0  0
 11 14  1  0  0  0  0
  9 10  1  0  0  0  0
  9 11  1  0  0  0  0
  9 18  1  0  0  0  0
  7  8  1  0  0  0  0
  7  9  1  0  0  0  0
 22 23  1  0  0  0  0
 22 24  1  0  0  0  0
 22 25  1  0  0  0  0
 20 21  1  0  0  0  0
 20 22  1  0  0  0  0
M  END
$$$$
default_name
  -OEChem-02102213163D

 25 24  0     1  0  0  0  0  0999 V2000
   -2.7826   -3.8464    0.7821 H   0  0  0  0  0  0  0  0  0  0  0  0
   -2.8156   -2.8034    0.4711 C   0  0  0  0  0  0  0  0  0  0  0  0
   -3.4336   -2.2354    1.1641 H   0  0  0  0  0  0  0  0  0  0  0  0
   -3.2256   -2.7344   -0.5349 H   0  0  0  0  0  0  0  0  0  0  0  0
   -1.4126   -2.2444    0.4801 C   0  0  0  0  0  0  0  0  0  0  0  0
   -0.4686   -2.9534    0.8001 O   0  0  0  0  0  0  0  0  0  0  0  0
   -1.2736   -0.9704    0.1241 N   0  0  0  0  0  0  0  0  0  0  0  0
   -2.0996   -0.4354   -0.1019 H   0  0  0  0  0  0  0  0  0  0  0  0
   -0.0016   -0.2394    0.1271 C   0  0  1  0  0  0  0  0  0  0  0  0
    0.6995   -0.7619   -0.5275 H   0  0  0  0  0  0  0  0  0  0  0  0
   -0.2283    1.1832   -0.4215 C   0  0  0  0  0  0  0  0  0  0  0  0
    0.0385    1.9138    0.3431 H   0  0  0  0  0  0  0  0  0  0  0  0
    0.4166    1.3509   -1.2848 H   0  0  0  0  0  0  0  0  0  0  0  0
   -1.6764    1.4581   -0.8157 C   0  0  0  0  0  0  0  0  0  0  0  0
   -2.0421    2.0095   -1.8455 O   0  0  0  0  0  0  0  0  0  0  0  0
   -2.5930    1.0480    0.0807 O   0  0  0  0  0  0  0  0  0  0  0  0
   -3.4457    1.2628   -0.2989 H   0  0  0  0  0  0  0  0  0  0  0  0
    0.5920   -0.2154    1.5497 C   0  0  0  0  0  0  0  0  0  0  0  0
    1.7860   -0.4596    1.7183 O   0  0  0  0  0  0  0  0  0  0  0  0
   -0.2294    0.0669    2.5672 N   0  0  0  0  0  0  0  0  0  0  0  0
   -1.2130    0.1938    2.3518 H   0  0  0  0  0  0  0  0  0  0  0  0
    0.1836    0.1337    3.9673 C   0  0  0  0  0  0  0  0  0  0  0  0
    1.0451    0.7976    4.0666 H   0  0  0  0  0  0  0  0  0  0  0  0
   -0.6344    0.5115    4.5820 H   0  0  0  0  0  0  0  0  0  0  0  0
    0.4676   -0.8609    4.3157 H   0  0  0  0  0  0  0  0  0  0  0  0
  5  6  2  0  0  0  0
  5  7  1  0  0  0  0
  2  3  1  0  0  0  0
  2  4  1  0  0  0  0
  2  5  1  0  0  0  0
  1  2  1  0  0  0  0
 18 19  2  0  0  0  0
 18 20  1  0  0  0  0
 16 17  1  0  0  0  0
 14 15  2  0  0  0  0
 14 16  1  0  0  0  0
 11 12  1  0  0  0  0
 11 13  1  0  0  0  0
 11 14  1  0  0  0  0
  9 10  1  0  0  0  0
  9 11  1  0  0  0  0
  9 18  1  0  0  0  0
  7  8  1  0  0  0  0
  7  9  1  0  0  0  0
 22 23  1  0  0  0  0
 22 24  1  0  0  0  0
 22 25  1  0  0  0  0
 20 21  1  0  0  0  0
 20 22  1  0  0  0  0
M  END
$$$$
default_name
  -OEChem-02102213163D

 25 24  0     1  0  0  0  0  0999 V2000
   -2.7826   -3.8464    0.7821 H   0  0  0  0  0  0  0  0  0  0  0  0
   -2.8156   -2.8034    0.4711 C   0  0  0  0  0  0  0  0  0  0  0  0
   -3.4336   -2.2354    1.1641 H   0  0  0  0  0  0  0  0  0  0  0  0
   -3.2256   -2.7344   -0.5349 H   0  0  0  0  0  0  0  0  0  0  0  0
   -1.4126   -2.2444    0.4801 C   0  0  0  0  0  0  0  0  0  0  0  0
   -0.4686   -2.9534    0.8001 O   0  0  0  0  0  0  0  0  0  0  0  0
   -1.2736   -0.9704    0.1241 N   0  0  0  0  0  0  0  0  0  0  0  0
   -2.0996   -0.4354   -0.1019 H   0  0  0  0  0  0  0  0  0  0  0  0
   -0.0016   -0.2394    0.1271 C   0  0  1  0  0  0  0  0  0  0  0  0
    0.6995   -0.7619   -0.5275 H   0  0  0  0  0  0  0  0  0  0  0  0
   -0.2283    1.1832   -0.4215 C   0  0  0  0  0  0  0  0  0  0  0  0
    0.0385    1.9138    0.3431 H   0  0  0  0  0  0  0  0  0  0  0  0
    0.4166    1.3509   -1.2848 H   0  0  0  0  0  0  0  0  0  0  0  0
   -1.6764    1.4581   -0.8157 C   0  0  0  0  0  0  0  0  0  0  0  0
   -2.0638    1.7666   -1.9350 O   0  0  0  0  0  0  0  0  0  0  0  0
   -2.5656    1.3470    0.1887 O   0  0  0  0  0  0  0  0  0  0  0  0
   -3.4232    1.5239   -0.1993 H   0  0  0  0  0  0  0  0  0  0  0  0
    0.5920   -0.2154    1.5497 C   0  0  0  0  0  0  0  0  0  0  0  0
    1.7860   -0.4596    1.7183 O   0  0  0  0  0  0  0  0  0  0  0  0
   -0.2294    0.0669    2.5672 N   0  0  0  0  0  0  0  0  0  0  0  0
   -1.2130    0.1938    2.3518 H   0  0  0  0  0  0  0  0  0  0  0  0
    0.1836    0.1337    3.9673 C   0  0  0  0  0  0  0  0  0  0  0  0
    1.0451    0.7976    4.0666 H   0  0  0  0  0  0  0  0  0  0  0  0
   -0.6344    0.5115    4.5820 H   0  0  0  0  0  0  0  0  0  0  0  0
    0.4676   -0.8609    4.3157 H   0  0  0  0  0  0  0  0  0  0  0  0
  5  6  2  0  0  0  0
  5  7  1  0  0  0  0
  2  3  1  0  0  0  0
  2  4  1  0  0  0  0
  2  5  1  0  0  0  0
  1  2  1  0  0  0  0
 18 19  2  0  0  0  0
 18 20  1  0  0  0  0
 16 17  1  0  0  0  0
 14 15  2  0  0  0  0
 14 16  1  0  0  0  0
 11 12  1  0  0  0  0
 11 13  1  0  0  0  0
 11 14  1  0  0  0  0
  9 10  1  0  0  0  0
  9 11  1  0  0  0  0
  9 18  1  0  0  0  0
  7  8  1  0  0  0  0
  7  9  1  0  0  0  0
 22 23  1  0  0  0  0
 22 24  1  0  0  0  0
 22 25  1  0  0  0  0
 20 21  1  0  0  0  0
 20 22  1  0  0  0  0
M  END
$$$$
default_name
  -OEChem-02102213163D

 25 24  0     1  0  0  0  0  0999 V2000
   -2.7826   -3.8464    0.7821 H   0  0  0  0  0  0  0  0  0  0  0  0
   -2.8156   -2.8034    0.4711 C   0  0  0  0  0  0  0  0  0  0  0  0
   -3.4336   -2.2354    1.1641 H   0  0  0  0  0  0  0  0  0  0  0  0
   -3.2256   -2.7344   -0.5349 H   0  0  0  0  0  0  0  0  0  0  0  0
   -1.4126   -2.2444    0.4801 C   0  0  0  0  0  0  0  0  0  0  0  0
   -0.4686   -2.9534    0.8001 O   0  0  0  0  0  0  0  0  0  0  0  0
   -1.2736   -0.9704    0.1241 N   0  0  0  0  0  0  0  0  0  0  0  0
   -2.0996   -0.4354   -0.1019 H   0  0  0  0  0  0  0  0  0  0  0  0
   -0.0016   -0.2394    0.1271 C   0  0  1  0  0  0  0  0  0  0  0  0
    0.6995   -0.7619   -0.5275 H   0  0  0  0  0  0  0  0  0  0  0  0
   -0.2283    1.1832   -0.4215 C   0  0  0  0  0  0  0  0  0  0  0  0
    0.0385    1.9138    0.3431 H   0  0  0  0  0  0  0  0  0  0  0  0
    0.4166    1.3509   -1.2848 H   0  0  0  0  0  0  0  0  0  0  0  0
   -1.6764    1.4581   -0.8157 C   0  0  0  0  0  0  0  0  0  0  0  0
   -2.1053    1.5114   -1.9609 O   0  0  0  0  0  0  0  0  0  0  0  0
   -2.5142    1.6604    0.2183 O   0  0  0  0  0  0  0  0  0  0  0  0
   -3.3794    1.7992   -0.1683 H   0  0  0  0  0  0  0  0  0  0  0  0
    0.5920   -0.2154    1.5497 C   0  0  0  0  0  0  0  0  0  0  0  0
    1.7860   -0.4596    1.7183 O   0  0  0  0  0  0  0  0  0  0  0  0
   -0.2294    0.0669    2.5672 N   0  0  0  0  0  0  0  0  0  0  0  0
   -1.2130    0.1938    2.3518 H   0  0  0  0  0  0  0  0  0  0  0  0
    0.1836    0.1337    3.9673 C   0  0  0  0  0  0  0  0  0  0  0  0
    1.0451    0.7976    4.0666 H   0  0  0  0  0  0  0  0  0  0  0  0
   -0.6344    0.5115    4.5820 H   0  0  0  0  0  0  0  0  0  0  0  0
    0.4676   -0.8609    4.3157 H   0  0  0  0  0  0  0  0  0  0  0  0
  5  6  2  0  0  0  0
  5  7  1  0  0  0  0
  2  3  1  0  0  0  0
  2  4  1  0  0  0  0
  2  5  1  0  0  0  0
  1  2  1  0  0  0  0
 18 19  2  0  0  0  0
 18 20  1  0  0  0  0
 16 17  1  0  0  0  0
 14 15  2  0  0  0  0
 14 16  1  0  0  0  0
 11 12  1  0  0  0  0
 11 13  1  0  0  0  0
 11 14  1  0  0  0  0
  9 10  1  0  0  0  0
  9 11  1  0  0  0  0
  9 18  1  0  0  0  0
  7  8  1  0  0  0  0
  7  9  1  0  0  0  0
 22 23  1  0  0  0  0
 22 24  1  0  0  0  0
 22 25  1  0  0  0  0
 20 21  1  0  0  0  0
 20 22  1  0  0  0  0
M  END
$$$$
default_name
  -OEChem-02102213163D

 25 24  0     1  0  0  0  0  0999 V2000
   -2.7826   -3.8464    0.7821 H   0  0  0  0  0  0  0  0  0  0  0  0
   -2.8156   -2.8034    0.4711 C   0  0  0  0  0  0  0  0  0  0  0  0
   -3.4336   -2.2354    1.1641 H   0  0  0  0  0  0  0  0  0  0  0  0
   -3.2256   -2.7344   -0.5349 H   0  0  0  0  0  0  0  0  0  0  0  0
   -1.4126   -2.2444    0.4801 C   0  0  0  0  0  0  0  0  0  0  0  0
   -0.4686   -2.9534    0.8001 O   0  0  0  0  0  0  0  0  0  0  0  0
   -1.2736   -0.9704    0.1241 N   0  0  0  0  0  0  0  0  0  0  0  0
   -2.0996   -0.4354   -0.1019 H   0  0  0  0  0  0  0  0  0  0  0  0
   -0.0016   -0.2394    0.1271 C   0  0  1  0  0  0  0  0  0  0  0  0
    0.6995   -0.7619   -0.5275 H   0  0  0  0  0  0  0  0  0  0  0  0
   -0.2283    1.1832   -0.4215 C   0  0  0  0  0  0  0  0  0  0  0  0
    0.0385    1.9138    0.3431 H   0  0  0  0  0  0  0  0  0  0  0  0
    0.4166    1.3509   -1.2848 H   0  0  0  0  0  0  0  0  0  0  0  0
   -1.6764    1.4581   -0.8157 C   0  0  0  0  0  0  0  0  0  0  0  0
   -2.1635    1.2613   -1.9212 O   0  0  0  0  0  0  0  0  0  0  0  0
   -2.4421    1.9670    0.1675 O   0  0  0  0  0  0  0  0  0  0  0  0
   -3.3172    2.0697   -0.2080 H   0  0  0  0  0  0  0  0  0  0  0  0
    0.5920   -0.2154    1.5497 C   0  0  0  0  0  0  0  0  0  0  0  0
    1.7860   -0.4596    1.7183 O   0  0  0  0  0  0  0  0  0  0  0  0
   -0.2294    0.0669    2.5672 N   0  0  0  0  0  0  0  0  0  0  0  0
   -1.2130    0.1938    2.3518 H   0  0  0  0  0  0  0  0  0  0  0  0
    0.1836    0.1337    3.9673 C   0  0  0  0  0  0  0  0  0  0  0  0
    1.0451    0.7976    4.0666 H   0  0  0  0  0  0  0  0  0  0  0  0
   -0.6344    0.5115    4.5820 H   0  0  0  0  0  0  0  0  0  0  0  0
    0.4676   -0.8609    4.3157 H   0  0  0  0  0  0  0  0  0  0  0  0
  5  6  2  0  0  0  0
  5  7  1  0  0  0  0
  2  3  1  0  0  0  0
  2  4  1  0  0  0  0
  2  5  1  0  0  0  0
  1  2  1  0  0  0  0
 18 19  2  0  0  0  0
 18 20  1  0  0  0  0
 16 17  1  0  0  0  0
 14 15  2  0  0  0  0
 14 16  1  0  0  0  0
 11 12  1  0  0  0  0
 11 13  1  0  0  0  0
 11 14  1  0  0  0  0
  9 10  1  0  0  0  0
  9 11  1  0  0  0  0
  9 18  1  0  0  0  0
  7  8  1  0  0  0  0
  7  9  1  0  0  0  0
 22 23  1  0  0  0  0
 22 24  1  0  0  0  0
 22 25  1  0  0  0  0
 20 21  1  0  0  0  0
 20 22  1  0  0  0  0
M  END
$$$$
default_name
  -OEChem-02102213163D

 25 24  0     1  0  0  0  0  0999 V2000
   -2.7826   -3.8464    0.7821 H   0  0  0  0  0  0  0  0  0  0  0  0
   -2.8156   -2.8034    0.4711 C   0  0  0  0  0  0  0  0  0  0  0  0
   -3.4336   -2.2354    1.1641 H   0  0  0  0  0  0  0  0  0  0  0  0
   -3.2256   -2.7344   -0.5349 H   0  0  0  0  0  0  0  0  0  0  0  0
   -1.4126   -2.2444    0.4801 C   0  0  0  0  0  0  0  0  0  0  0  0
   -0.4686   -2.9534    0.8001 O   0  0  0  0  0  0  0  0  0  0  0  0
   -1.2736   -0.9704    0.1241 N   0  0  0  0  0  0  0  0  0  0  0  0
   -2.0996   -0.4354   -0.1019 H   0  0  0  0  0  0  0  0  0  0  0  0
   -0.0016   -0.2394    0.1271 C   0  0  1  0  0  0  0  0  0  0  0  0
    0.6995   -0.7619   -0.5275 H   0  0  0  0  0  0  0  0  0  0  0  0
   -0.2283    1.1832   -0.4215 C   0  0  0  0  0  0  0  0  0  0  0  0
    0.0385    1.9138    0.3431 H   0  0  0  0  0  0  0  0  0  0  0  0
    0.4166    1.3509   -1.2848 H   0  0  0  0  0  0  0  0  0  0  0  0
   -1.6764    1.4581   -0.8157 C   0  0  0  0  0  0  0  0  0  0  0  0
   -2.2347    1.0334   -1.8187 O   0  0  0  0  0  0  0  0  0  0  0  0
   -2.3544    2.2458    0.0397 O   0  0  0  0  0  0  0  0  0  0  0  0
   -3.2409    2.3172   -0.3157 H   0  0  0  0  0  0  0  0  0  0  0  0
    0.5920   -0.2154    1.5497 C   0  0  0  0  0  0  0  0  0  0  0  0
    1.7860   -0.4596    1.7183 O   0  0  0  0  0  0  0  0  0  0  0  0
   -0.2294    0.0669    2.5672 N   0  0  0  0  0  0  0  0  0  0  0  0
   -1.2130    0.1938    2.3518 H   0  0  0  0  0  0  0  0  0  0  0  0
    0.1836    0.1337    3.9673 C   0  0  0  0  0  0  0  0  0  0  0  0
    1.0451    0.7976    4.0666 H   0  0  0  0  0  0  0  0  0  0  0  0
   -0.6344    0.5115    4.5820 H   0  0  0  0  0  0  0  0  0  0  0  0
    0.4676   -0.8609    4.3157 H   0  0  0  0  0  0  0  0  0  0  0  0
  5  6  2  0  0  0  0
  5  7  1  0  0  0  0
  2  3  1  0  0  0  0
  2  4  1  0  0  0  0
  2  5  1  0  0  0  0
  1  2  1  0  0  0  0
 18 19  2  0  0  0  0
 18 20  1  0  0  0  0
 16 17  1  0  0  0  0
 14 15  2  0  0  0  0
 14 16  1  0  0  0  0
 11 12  1  0  0  0  0
 11 13  1  0  0  0  0
 11 14  1  0  0  0  0
  9 10  1  0  0  0  0
  9 11  1  0  0  0  0
  9 18  1  0  0  0  0
  7  8  1  0  0  0  0
  7  9  1  0  0  0  0
 22 23  1  0  0  0  0
 22 24  1  0  0  0  0
 22 25  1  0  0  0  0
 20 21  1  0  0  0  0
 20 22  1  0  0  0  0
M  END
$$$$
default_name
  -OEChem-02102213163D

 25 24  0     1  0  0  0  0  0999 V2000
   -2.7826   -3.8464    0.7821 H   0  0  0  0  0  0  0  0  0  0  0  0
   -2.8156   -2.8034    0.4711 C   0  0  0  0  0  0  0  0  0  0  0  0
   -3.4336   -2.2354    1.1641 H   0  0  0  0  0  0  0  0  0  0  0  0
   -3.2256   -2.7344   -0.5349 H   0  0  0  0  0  0  0  0  0  0  0  0
   -1.4126   -2.2444    0.4801 C   0  0  0  0  0  0  0  0  0  0  0  0
   -0.4686   -2.9534    0.8001 O   0  0  0  0  0  0  0  0  0  0  0  0
   -1.2736   -0.9704    0.1241 N   0  0  0  0  0  0  0  0  0  0  0  0
   -2.0996   -0.4354   -0.1019 H   0  0  0  0  0  0  0  0  0  0  0  0
   -0.0016   -0.2394    0.1271 C   0  0  1  0  0  0  0  0  0  0  0  0
    0.6995   -0.7619   -0.5275 H   0  0  0  0  0  0  0  0  0  0  0  0
   -0.2283    1.1832   -0.4215 C   0  0  0  0  0  0  0  0  0  0  0  0
    0.0385    1.9138    0.3431 H   0  0  0  0  0  0  0  0  0  0  0  0
    0.4166    1.3509   -1.2848 H   0  0  0  0  0  0  0  0  0  0  0  0
   -1.6764    1.4581   -0.8157 C   0  0  0  0  0  0  0  0  0  0  0  0
   -2.3139    0.8432   -1.6605 O   0  0  0  0  0  0  0  0  0  0  0  0
   -2.2570    2.4779   -0.1563 O   0  0  0  0  0  0  0  0  0  0  0  0
   -3.1557    2.5246   -0.4841 H   0  0  0  0  0  0  0  0  0  0  0  0
    0.5920   -0.2154    1.5497 C   0  0  0  0  0  0  0  0  0  0  0  0
    1.7860   -0.4596    1.7183 O   0  0  0  0  0  0  0  0  0  0  0  0
   -0.2294    0.0669    2.5672 N   0  0  0  0  0  0  0  0  0  0  0  0
   -1.2130    0.1938    2.3518 H   0  0  0  0  0  0  0  0  0  0  0  0
    0.1836    0.1337    3.9673 C   0  0  0  0  0  0  0  0  0  0  0  0
    1.0451    0.7976    4.0666 H   0  0  0  0  0  0  0  0  0  0  0  0
   -0.6344    0.5115    4.5820 H   0  0  0  0  0  0  0  0  0  0  0  0
    0.4676   -0.8609    4.3157 H   0  0  0  0  0  0  0  0  0  0  0  0
  5  6  2  0  0  0  0
  5  7  1  0  0  0  0
  2  3  1  0  0  0  0
  2  4  1  0  0  0  0
  2  5  1  0  0  0  0
  1  2  1  0  0  0  0
 18 19  2  0  0  0  0
 18 20  1  0  0  0  0
 16 17  1  0  0  0  0
 14 15  2  0  0  0  0
 14 16  1  0  0  0  0
 11 12  1  0  0  0  0
 11 13  1  0  0  0  0
 11 14  1  0  0  0  0
  9 10  1  0  0  0  0
  9 11  1  0  0  0  0
  9 18  1  0  0  0  0
  7  8  1  0  0  0  0
  7  9  1  0  0  0  0
 22 23  1  0  0  0  0
 22 24  1  0  0  0  0
 22 25  1  0  0  0  0
 20 21  1  0  0  0  0
 20 22  1  0  0  0  0
M  END
$$$$
default_name
  -OEChem-02102213163D

 25 24  0     1  0  0  0  0  0999 V2000
   -2.7826   -3.8464    0.7821 H   0  0  0  0  0  0  0  0  0  0  0  0
   -2.8156   -2.8034    0.4711 C   0  0  0  0  0  0  0  0  0  0  0  0
   -3.4336   -2.2354    1.1641 H   0  0  0  0  0  0  0  0  0  0  0  0
   -3.2256   -2.7344   -0.5349 H   0  0  0  0  0  0  0  0  0  0  0  0
   -1.4126   -2.2444    0.4801 C   0  0  0  0  0  0  0  0  0  0  0  0
   -0.4686   -2.9534    0.8001 O   0  0  0  0  0  0  0  0  0  0  0  0
   -1.2736   -0.9704    0.1241 N   0  0  0  0  0  0  0  0  0  0  0  0
   -2.0996   -0.4354   -0.1019 H   0  0  0  0  0  0  0  0  0  0  0  0
   -0.0016   -0.2394    0.1271 C   0  0  1  0  0  0  0  0  0  0  0  0
    0.6995   -0.7619   -0.5275 H   0  0  0  0  0  0  0  0  0  0  0  0
   -0.2283    1.1832   -0.4215 C   0  0  0  0  0  0  0  0  0  0  0  0
    0.0385    1.9138    0.3431 H   0  0  0  0  0  0  0  0  0  0  0  0
    0.4166    1.3509   -1.2848 H   0  0  0  0  0  0  0  0  0  0  0  0
   -1.6764    1.4581   -0.8157 C   0  0  0  0  0  0  0  0  0  0  0  0
   -2.3957    0.7036   -1.4572 O   0  0  0  0  0  0  0  0  0  0  0  0
   -2.1565    2.6474   -0.4071 O   0  0  0  0  0  0  0  0  0  0  0  0
   -3.0673    2.6779   -0.7017 H   0  0  0  0  0  0  0  0  0  0  0  0
    0.5920   -0.2154    1.5497 C   0  0  0  0  0  0  0  0  0  0  0  0
    1.7860   -0.4596    1.7183 O   0  0  0  0  0  0  0  0  0  0  0  0
   -0.2294    0.0669    2.5672 N   0  0  0  0  0  0  0  0  0  0  0  0
   -1.2130    0.1938    2.3518 H   0  0  0  0  0  0  0  0  0  0  0  0
    0.1836    0.1337    3.9673 C   0  0  0  0  0  0  0  0  0  0  0  0
    1.0451    0.7976    4.0666 H   0  0  0  0  0  0  0  0  0  0  0  0
   -0.6344    0.5115    4.5820 H   0  0  0  0  0  0  0  0  0  0  0  0
    0.4676   -0.8609    4.3157 H   0  0  0  0  0  0  0  0  0  0  0  0
  5  6  2  0  0  0  0
  5  7  1  0  0  0  0
  2  3  1  0  0  0  0
  2  4  1  0  0  0  0
  2  5  1  0  0  0  0
  1  2  1  0  0  0  0
 18 19  2  0  0  0  0
 18 20  1  0  0  0  0
 16 17  1  0  0  0  0
 14 15  2  0  0  0  0
 14 16  1  0  0  0  0
 11 12  1  0  0  0  0
 11 13  1  0  0  0  0
 11 14  1  0  0  0  0
  9 10  1  0  0  0  0
  9 11  1  0  0  0  0
  9 18  1  0  0  0  0
  7  8  1  0  0  0  0
  7  9  1  0  0  0  0
 22 23  1  0  0  0  0
 22 24  1  0  0  0  0
 22 25  1  0  0  0  0
 20 21  1  0  0  0  0
 20 22  1  0  0  0  0
M  END
$$$$
default_name
  -OEChem-02102213163D

 25 24  0     1  0  0  0  0  0999 V2000
   -2.7826   -3.8464    0.7821 H   0  0  0  0  0  0  0  0  0  0  0  0
   -2.8156   -2.8034    0.4711 C   0  0  0  0  0  0  0  0  0  0  0  0
   -3.4336   -2.2354    1.1641 H   0  0  0  0  0  0  0  0  0  0  0  0
   -3.2256   -2.7344   -0.5349 H   0  0  0  0  0  0  0  0  0  0  0  0
   -1.4126   -2.2444    0.4801 C   0  0  0  0  0  0  0  0  0  0  0  0
   -0.4686   -2.9534    0.8001 O   0  0  0  0  0  0  0  0  0  0  0  0
   -1.2736   -0.9704    0.1241 N   0  0  0  0  0  0  0  0  0  0  0  0
   -2.0996   -0.4354   -0.1019 H   0  0  0  0  0  0  0  0  0  0  0  0
   -0.0016   -0.2394    0.1271 C   0  0  1  0  0  0  0  0  0  0  0  0
    0.6995   -0.7619   -0.5275 H   0  0  0  0  0  0  0  0  0  0  0  0
   -0.2283    1.1832   -0.4215 C   0  0  0  0  0  0  0  0  0  0  0  0
    0.0385    1.9138    0.3431 H   0  0  0  0  0  0  0  0  0  0  0  0
    0.4166    1.3509   -1.2848 H   0  0  0  0  0  0  0  0  0  0  0  0
   -1.6764    1.4581   -0.8157 C   0  0  0  0  0  0  0  0  0  0  0  0
   -2.4746    0.6242   -1.2227 O   0  0  0  0  0  0  0  0  0  0  0  0
   -2.0599    2.7428   -0.6958 O   0  0  0  0  0  0  0  0  0  0  0  0
   -2.9819    2.7666   -0.9536 H   0  0  0  0  0  0  0  0  0  0  0  0
    0.5920   -0.2154    1.5497 C   0  0  0  0  0  0  0  0  0  0  0  0
    1.7860   -0.4596    1.7183 O   0  0  0  0  0  0  0  0  0  0  0  0
   -0.2294    0.0669    2.5672 N   0  0  0  0  0  0  0  0  0  0  0  0
   -1.2130    0.1938    2.3518 H   0  0  0  0  0  0  0  0  0  0  0  0
    0.1836    0.1337    3.9673 C   0  0  0  0  0  0  0  0  0  0  0  0
    1.0451    0.7976    4.0666 H   0  0  0  0  0  0  0  0  0  0  0  0
   -0.6344    0.5115    4.5820 H   0  0  0  0  0  0  0  0  0  0  0  0
    0.4676   -0.8609    4.3157 H   0  0  0  0  0  0  0  0  0  0  0  0
  5  6  2  0  0  0  0
  5  7  1  0  0  0  0
  2  3  1  0  0  0  0
  2  4  1  0  0  0  0
  2  5  1  0  0  0  0
  1  2  1  0  0  0  0
 18 19  2  0  0  0  0
 18 20  1  0  0  0  0
 16 17  1  0  0  0  0
 14 15  2  0  0  0  0
 14 16  1  0  0  0  0
 11 12  1  0  0  0  0
 11 13  1  0  0  0  0
 11 14  1  0  0  0  0
  9 10  1  0  0  0  0
  9 11  1  0  0  0  0
  9 18  1  0  0  0  0
  7  8  1  0  0  0  0
  7  9  1  0  0  0  0
 22 23  1  0  0  0  0
 22 24  1  0  0  0  0
 22 25  1  0  0  0  0
 20 21  1  0  0  0  0
 20 22  1  0  0  0  0
M  END
$$$$
default_name
  -OEChem-02102213163D

 25 24  0     1  0  0  0  0  0999 V2000
   -2.7826   -3.8464    0.7821 H   0  0  0  0  0  0  0  0  0  0  0  0
   -2.8156   -2.8034    0.4711 C   0  0  0  0  0  0  0  0  0  0  0  0
   -3.4336   -2.2354    1.1641 H   0  0  0  0  0  0  0  0  0  0  0  0
   -3.2256   -2.7344   -0.5349 H   0  0  0  0  0  0  0  0  0  0  0  0
   -1.4126   -2.2444    0.4801 C   0  0  0  0  0  0  0  0  0  0  0  0
   -0.4686   -2.9534    0.8001 O   0  0  0  0  0  0  0  0  0  0  0  0
   -1.2736   -0.9704    0.1241 N   0  0  0  0  0  0  0  0  0  0  0  0
   -2.0996   -0.4354   -0.1019 H   0  0  0  0  0  0  0  0  0  0  0  0
   -0.0016   -0.2394    0.1271 C   0  0  1  0  0  0  0  0  0  0  0  0
    0.6995   -0.7619   -0.5275 H   0  0  0  0  0  0  0  0  0  0  0  0
   -0.2283    1.1832   -0.4215 C   0  0  0  0  0  0  0  0  0  0  0  0
    0.0385    1.9138    0.3431 H   0  0  0  0  0  0  0  0  0  0  0  0
    0.4166    1.3509   -1.2848 H   0  0  0  0  0  0  0  0  0  0  0  0
   -1.6764    1.4581   -0.8157 C   0  0  0  0  0  0  0  0  0  0  0  0
   -2.5452    0.6104   -0.9730 O   0  0  0  0  0  0  0  0  0  0  0  0
   -1.9736    2.7576   -1.0025 O   0  0  0  0  0  0  0  0  0  0  0  0
   -2.9052    2.7847   -1.2227 H   0  0  0  0  0  0  0  0  0  0  0  0
    0.5920   -0.2154    1.5497 C   0  0  0  0  0  0  0  0  0  0  0  0
    1.7860   -0.4596    1.7183 O   0  0  0  0  0  0  0  0  0  0  0  0
   -0.2294    0.0669    2.5672 N   0  0  0  0  0  0  0  0  0  0  0  0
   -1.2130    0.1938    2.3518 H   0  0  0  0  0  0  0  0  0  0  0  0
    0.1836    0.1337    3.9673 C   0  0  0  0  0  0  0  0  0  0  0  0
    1.0451    0.7976    4.0666 H   0  0  0  0  0  0  0  0  0  0  0  0
   -0.6344    0.5115    4.5820 H   0  0  0  0  0  0  0  0  0  0  0  0
    0.4676   -0.8609    4.3157 H   0  0  0  0  0  0  0  0  0  0  0  0
  5  6  2  0  0  0  0
  5  7  1  0  0  0  0
  2  3  1  0  0  0  0
  2  4  1  0  0  0  0
  2  5  1  0  0  0  0
  1  2  1  0  0  0  0
 18 19  2  0  0  0  0
 18 20  1  0  0  0  0
 16 17  1  0  0  0  0
 14 15  2  0  0  0  0
 14 16  1  0  0  0  0
 11 12  1  0  0  0  0
 11 13  1  0  0  0  0
 11 14  1  0  0  0  0
  9 10  1  0  0  0  0
  9 11  1  0  0  0  0
  9 18  1  0  0  0  0
  7  8  1  0  0  0  0
  7  9  1  0  0  0  0
 22 23  1  0  0  0  0
 22 24  1  0  0  0  0
 22 25  1  0  0  0  0
 20 21  1  0  0  0  0
 20 22  1  0  0  0  0
M  END
$$$$
default_name
  -OEChem-02102213163D

 25 24  0     1  0  0  0  0  0999 V2000
   -2.7826   -3.8464    0.7821 H   0  0  0  0  0  0  0  0  0  0  0  0
   -2.8156   -2.8034    0.4711 C   0  0  0  0  0  0  0  0  0  0  0  0
   -3.4336   -2.2354    1.1641 H   0  0  0  0  0  0  0  0  0  0  0  0
   -3.2256   -2.7344   -0.5349 H   0  0  0  0  0  0  0  0  0  0  0  0
   -1.4126   -2.2444    0.4801 C   0  0  0  0  0  0  0  0  0  0  0  0
   -0.4686   -2.9534    0.8001 O   0  0  0  0  0  0  0  0  0  0  0  0
   -1.2736   -0.9704    0.1241 N   0  0  0  0  0  0  0  0  0  0  0  0
   -2.0996   -0.4354   -0.1019 H   0  0  0  0  0  0  0  0  0  0  0  0
   -0.0016   -0.2394    0.1271 C   0  0  1  0  0  0  0  0  0  0  0  0
    0.6995   -0.7619   -0.5275 H   0  0  0  0  0  0  0  0  0  0  0  0
   -0.2283    1.1832   -0.4215 C   0  0  0  0  0  0  0  0  0  0  0  0
    0.0385    1.9138    0.3431 H   0  0  0  0  0  0  0  0  0  0  0  0
    0.4166    1.3509   -1.2848 H   0  0  0  0  0  0  0  0  0  0  0  0
   -1.6764    1.4581   -0.8157 C   0  0  0  0  0  0  0  0  0  0  0  0
   -2.6027    0.6631   -0.7252 O   0  0  0  0  0  0  0  0  0  0  0  0
   -1.9035    2.6908   -1.3065 O   0  0  0  0  0  0  0  0  0  0  0  0
   -2.8425    2.7310   -1.4907 H   0  0  0  0  0  0  0  0  0  0  0  0
    0.5920   -0.2154    1.5497 C   0  0  0  0  0  0  0  0  0  0  0  0
    1.7860   -0.4596    1.7183 O   0  0  0  0  0  0  0  0  0  0  0  0
   -0.2294    0.0669    2.5672 N   0  0  0  0  0  0  0  0  0  0  0  0
   -1.2130    0.1938    2.3518 H   0  0  0  0  0  0  0  0  0  0  0  0
    0.1836    0.1337    3.9673 C   0  0  0  0  0  0  0  0  0  0  0  0
    1.0451    0.7976    4.0666 H   0  0  0  0  0  0  0  0  0  0  0  0
   -0.6344    0.5115    4.5820 H   0  0  0  0  0  0  0  0  0  0  0  0
    0.4676   -0.8609    4.3157 H   0  0  0  0  0  0  0  0  0  0  0  0
  5  6  2  0  0  0  0
  5  7  1  0  0  0  0
  2  3  1  0  0  0  0
  2  4  1  0  0  0  0
  2  5  1  0  0  0  0
  1  2  1  0  0  0  0
 18 19  2  0  0  0  0
 18 20  1  0  0  0  0
 16 17  1  0  0  0  0
 14 15  2  0  0  0  0
 14 16  1  0  0  0  0
 11 12  1  0  0  0  0
 11 13  1  0  0  0  0
 11 14  1  0  0  0  0
  9 10  1  0  0  0  0
  9 11  1  0  0  0  0
  9 18  1  0  0  0  0
  7  8  1  0  0  0  0
  7  9  1  0  0  0  0
 22 23  1  0  0  0  0
 22 24  1  0  0  0  0
 22 25  1  0  0  0  0
 20 21  1  0  0  0  0
 20 22  1  0  0  0  0
M  END
$$$$
default_name
  -OEChem-02102213163D

 25 24  0     1  0  0  0  0  0999 V2000
   -2.7826   -3.8464    0.7821 H   0  0  0  0  0  0  0  0  0  0  0  0
   -2.8156   -2.8034    0.4711 C   0  0  0  0  0  0  0  0  0  0  0  0
   -3.4336   -2.2354    1.1641 H   0  0  0  0  0  0  0  0  0  0  0  0
   -3.2256   -2.7344   -0.5349 H   0  0  0  0  0  0  0  0  0  0  0  0
   -1.4126   -2.2444    0.4801 C   0  0  0  0  0  0  0  0  0  0  0  0
   -0.4686   -2.9534    0.8001 O   0  0  0  0  0  0  0  0  0  0  0  0
   -1.2736   -0.9704    0.1241 N   0  0  0  0  0  0  0  0  0  0  0  0
   -2.0996   -0.4354   -0.1019 H   0  0  0  0  0  0  0  0  0  0  0  0
   -0.0016   -0.2394    0.1271 C   0  0  1  0  0  0  0  0  0  0  0  0
    0.6995   -0.7619   -0.5275 H   0  0  0  0  0  0  0  0  0  0  0  0
   -0.2283    1.1832   -0.4215 C   0  0  0  0  0  0  0  0  0  0  0  0
    0.0385    1.9138    0.3431 H   0  0  0  0  0  0  0  0  0  0  0  0
    0.4166    1.3509   -1.2848 H   0  0  0  0  0  0  0  0  0  0  0  0
   -1.6764    1.4581   -0.8157 C   0  0  0  0  0  0  0  0  0  0  0  0
   -2.6431    0.7788   -0.4960 O   0  0  0  0  0  0  0  0  0  0  0  0
   -1.8545    2.5469   -1.5869 O   0  0  0  0  0  0  0  0  0  0  0  0
   -2.7980    2.6090   -1.7393 H   0  0  0  0  0  0  0  0  0  0  0  0
    0.5920   -0.2154    1.5497 C   0  0  0  0  0  0  0  0  0  0  0  0
    1.7860   -0.4596    1.7183 O   0  0  0  0  0  0  0  0  0  0  0  0
   -0.2294    0.0669    2.5672 N   0  0  0  0  0  0  0  0  0  0  0  0
   -1.2130    0.1938    2.3518 H   0  0  0  0  0  0  0  0  0  0  0  0
    0.1836    0.1337    3.9673 C   0  0  0  0  0  0  0  0  0  0  0  0
    1.0451    0.7976    4.0666 H   0  0  0  0  0  0  0  0  0  0  0  0
   -0.6344    0.5115    4.5820 H   0  0  0  0  0  0  0  0  0  0  0  0
    0.4676   -0.8609    4.3157 H   0  0  0  0  0  0  0  0  0  0  0  0
  5  6  2  0  0  0  0
  5  7  1  0  0  0  0
  2  3  1  0  0  0  0
  2  4  1  0  0  0  0
  2  5  1  0  0  0  0
  1  2  1  0  0  0  0
 18 19  2  0  0  0  0
 18 20  1  0  0  0  0
 16 17  1  0  0  0  0
 14 15  2  0  0  0  0
 14 16  1  0  0  0  0
 11 12  1  0  0  0  0
 11 13  1  0  0  0  0
 11 14  1  0  0  0  0
  9 10  1  0  0  0  0
  9 11  1  0  0  0  0
  9 18  1  0  0  0  0
  7  8  1  0  0  0  0
  7  9  1  0  0  0  0
 22 23  1  0  0  0  0
 22 24  1  0  0  0  0
 22 25  1  0  0  0  0
 20 21  1  0  0  0  0
 20 22  1  0  0  0  0
M  END
$$$$
default_name
  -OEChem-02102213163D

 25 24  0     1  0  0  0  0  0999 V2000
   -2.7826   -3.8464    0.7821 H   0  0  0  0  0  0  0  0  0  0  0  0
   -2.8156   -2.8034    0.4711 C   0  0  0  0  0  0  0  0  0  0  0  0
   -3.4336   -2.2354    1.1641 H   0  0  0  0  0  0  0  0  0  0  0  0
   -3.2256   -2.7344   -0.5349 H   0  0  0  0  0  0  0  0  0  0  0  0
   -1.4126   -2.2444    0.4801 C   0  0  0  0  0  0  0  0  0  0  0  0
   -0.4686   -2.9534    0.8001 O   0  0  0  0  0  0  0  0  0  0  0  0
   -1.2736   -0.9704    0.1241 N   0  0  0  0  0  0  0  0  0  0  0  0
   -2.0996   -0.4354   -0.1019 H   0  0  0  0  0  0  0  0  0  0  0  0
   -0.0016   -0.2394    0.1271 C   0  0  1  0  0  0  0  0  0  0  0  0
    0.6995   -0.7619   -0.5275 H   0  0  0  0  0  0  0  0  0  0  0  0
   -0.2283    1.1832   -0.4215 C   0  0  0  0  0  0  0  0  0  0  0  0
    0.0385    1.9138    0.3431 H   0  0  0  0  0  0  0  0  0  0  0  0
    0.4166    1.3509   -1.2848 H   0  0  0  0  0  0  0  0  0  0  0  0
   -1.6764    1.4581   -0.8157 C   0  0  0  0  0  0  0  0  0  0  0  0
   -2.6637    0.9495   -0.3012 O   0  0  0  0  0  0  0  0  0  0  0  0
   -1.8299    2.3357   -1.8248 O   0  0  0  0  0  0  0  0  0  0  0  0
   -2.7747    2.4272   -1.9515 H   0  0  0  0  0  0  0  0  0  0  0  0
    0.5920   -0.2154    1.5497 C   0  0  0  0  0  0  0  0  0  0  0  0
    1.7860   -0.4596    1.7183 O   0  0  0  0  0  0  0  0  0  0  0  0
   -0.2294    0.0669    2.5672 N   0  0  0  0  0  0  0  0  0  0  0  0
   -1.2130    0.1938    2.3518 H   0  0  0  0  0  0  0  0  0  0  0  0
    0.1836    0.1337    3.9673 C   0  0  0  0  0  0  0  0  0  0  0  0
    1.0451    0.7976    4.0666 H   0  0  0  0  0  0  0  0  0  0  0  0
   -0.6344    0.5115    4.5820 H   0  0  0  0  0  0  0  0  0  0  0  0
    0.4676   -0.8609    4.3157 H   0  0  0  0  0  0  0  0  0  0  0  0
  5  6  2  0  0  0  0
  5  7  1  0  0  0  0
  2  3  1  0  0  0  0
  2  4  1  0  0  0  0
  2  5  1  0  0  0  0
  1  2  1  0  0  0  0
 18 19  2  0  0  0  0
 18 20  1  0  0  0  0
 16 17  1  0  0  0  0
 14 15  2  0  0  0  0
 14 16  1  0  0  0  0
 11 12  1  0  0  0  0
 11 13  1  0  0  0  0
 11 14  1  0  0  0  0
  9 10  1  0  0  0  0
  9 11  1  0  0  0  0
  9 18  1  0  0  0  0
  7  8  1  0  0  0  0
  7  9  1  0  0  0  0
 22 23  1  0  0  0  0
 22 24  1  0  0  0  0
 22 25  1  0  0  0  0
 20 21  1  0  0  0  0
 20 22  1  0  0  0  0
M  END
$$$$
default_name
  -OEChem-02102213163D

 25 24  0     1  0  0  0  0  0999 V2000
   -2.7826   -3.8464    0.7821 H   0  0  0  0  0  0  0  0  0  0  0  0
   -2.8156   -2.8034    0.4711 C   0  0  0  0  0  0  0  0  0  0  0  0
   -3.4336   -2.2354    1.1641 H   0  0  0  0  0  0  0  0  0  0  0  0
   -3.2256   -2.7344   -0.5349 H   0  0  0  0  0  0  0  0  0  0  0  0
   -1.4126   -2.2444    0.4801 C   0  0  0  0  0  0  0  0  0  0  0  0
   -0.4686   -2.9534    0.8001 O   0  0  0  0  0  0  0  0  0  0  0  0
   -1.2736   -0.9704    0.1241 N   0  0  0  0  0  0  0  0  0  0  0  0
   -2.0996   -0.4354   -0.1019 H   0  0  0  0  0  0  0  0  0  0  0  0
   -0.0016   -0.2394    0.1271 C   0  0  1  0  0  0  0  0  0  0  0  0
    0.6995   -0.7619   -0.5275 H   0  0  0  0  0  0  0  0  0  0  0  0
   -0.2283    1.1832   -0.4215 C   0  0  0  0  0  0  0  0  0  0  0  0
    0.0385    1.9138    0.3431 H   0  0  0  0  0  0  0  0  0  0  0  0
    0.4166    1.3509   -1.2848 H   0  0  0  0  0  0  0  0  0  0  0  0
   -1.6764    1.4581   -0.8157 C   0  0  0  0  0  0  0  0  0  0  0  0
   -2.6631    1.1636   -0.1540 O   0  0  0  0  0  0  0  0  0  0  0  0
   -1.8313    2.0717   -2.0038 O   0  0  0  0  0  0  0  0  0  0  0  0
   -2.7743    2.1979   -2.1130 H   0  0  0  0  0  0  0  0  0  0  0  0
    0.5920   -0.2154    1.5497 C   0  0  0  0  0  0  0  0  0  0  0  0
    1.7860   -0.4596    1.7183 O   0  0  0  0  0  0  0  0  0  0  0  0
   -0.2294    0.0669    2.5672 N   0  0  0  0  0  0  0  0  0  0  0  0
   -1.2130    0.1938    2.3518 H   0  0  0  0  0  0  0  0  0  0  0  0
    0.1836    0.1337    3.9673 C   0  0  0  0  0  0  0  0  0  0  0  0
    1.0451    0.7976    4.0666 H   0  0  0  0  0  0  0  0  0  0  0  0
   -0.6344    0.5115    4.5820 H   0  0  0  0  0  0  0  0  0  0  0  0
    0.4676   -0.8609    4.3157 H   0  0  0  0  0  0  0  0  0  0  0  0
  5  6  2  0  0  0  0
  5  7  1  0  0  0  0
  2  3  1  0  0  0  0
  2  4  1  0  0  0  0
  2  5  1  0  0  0  0
  1  2  1  0  0  0  0
 18 19  2  0  0  0  0
 18 20  1  0  0  0  0
 16 17  1  0  0  0  0
 14 15  2  0  0  0  0
 14 16  1  0  0  0  0
 11 12  1  0  0  0  0
 11 13  1  0  0  0  0
 11 14  1  0  0  0  0
  9 10  1  0  0  0  0
  9 11  1  0  0  0  0
  9 18  1  0  0  0  0
  7  8  1  0  0  0  0
  7  9  1  0  0  0  0
 22 23  1  0  0  0  0
 22 24  1  0  0  0  0
 22 25  1  0  0  0  0
 20 21  1  0  0  0  0
 20 22  1  0  0  0  0
M  END
$$$$
default_name
  -OEChem-02102213163D

 25 24  0     1  0  0  0  0  0999 V2000
   -2.7826   -3.8464    0.7821 H   0  0  0  0  0  0  0  0  0  0  0  0
   -2.8156   -2.8034    0.4711 C   0  0  0  0  0  0  0  0  0  0  0  0
   -3.4336   -2.2354    1.1641 H   0  0  0  0  0  0  0  0  0  0  0  0
   -3.2256   -2.7344   -0.5349 H   0  0  0  0  0  0  0  0  0  0  0  0
   -1.4126   -2.2444    0.4801 C   0  0  0  0  0  0  0  0  0  0  0  0
   -0.4686   -2.9534    0.8001 O   0  0  0  0  0  0  0  0  0  0  0  0
   -1.2736   -0.9704    0.1241 N   0  0  0  0  0  0  0  0  0  0  0  0
   -2.0996   -0.4354   -0.1019 H   0  0  0  0  0  0  0  0  0  0  0  0
   -0.0016   -0.2394    0.1271 C   0  0  1  0  0  0  0  0  0  0  0  0
    0.6995   -0.7619   -0.5275 H   0  0  0  0  0  0  0  0  0  0  0  0
   -0.2283    1.1832   -0.4215 C   0  0  0  0  0  0  0  0  0  0  0  0
    0.0385    1.9138    0.3431 H   0  0  0  0  0  0  0  0  0  0  0  0
    0.4166    1.3509   -1.2848 H   0  0  0  0  0  0  0  0  0  0  0  0
   -1.6764    1.4581   -0.8157 C   0  0  0  0  0  0  0  0  0  0  0  0
   -2.6414    1.4065   -0.0645 O   0  0  0  0  0  0  0  0  0  0  0  0
   -1.8586    1.7727   -2.1117 O   0  0  0  0  0  0  0  0  0  0  0  0
   -2.7968    1.9367   -2.2126 H   0  0  0  0  0  0  0  0  0  0  0  0
    0.5920   -0.2154    1.5497 C   0  0  0  0  0  0  0  0  0  0  0  0
    1.7860   -0.4596    1.7183 O   0  0  0  0  0  0  0  0  0  0  0  0
   -0.2294    0.0669    2.5672 N   0  0  0  0  0  0  0  0  0  0  0  0
   -1.2130    0.1938    2.3518 H   0  0  0  0  0  0  0  0  0  0  0  0
    0.1836    0.1337    3.9673 C   0  0  0  0  0  0  0  0  0  0  0  0
    1.0451    0.7976    4.0666 H   0  0  0  0  0  0  0  0  0  0  0  0
   -0.6344    0.5115    4.5820 H   0  0  0  0  0  0  0  0  0  0  0  0
    0.4676   -0.8609    4.3157 H   0  0  0  0  0  0  0  0  0  0  0  0
  5  6  2  0  0  0  0
  5  7  1  0  0  0  0
  2  3  1  0  0  0  0
  2  4  1  0  0  0  0
  2  5  1  0  0  0  0
  1  2  1  0  0  0  0
 18 19  2  0  0  0  0
 18 20  1  0  0  0  0
 16 17  1  0  0  0  0
 14 15  2  0  0  0  0
 14 16  1  0  0  0  0
 11 12  1  0  0  0  0
 11 13  1  0  0  0  0
 11 14  1  0  0  0  0
  9 10  1  0  0  0  0
  9 11  1  0  0  0  0
  9 18  1  0  0  0  0
  7  8  1  0  0  0  0
  7  9  1  0  0  0  0
 22 23  1  0  0  0  0
 22 24  1  0  0  0  0
 22 25  1  0  0  0  0
 20 21  1  0  0  0  0
 20 22  1  0  0  0  0
M  END
$$$$
default_name
  -OEChem-02102213163D

 25 24  0     1  0  0  0  0  0999 V2000
   -2.7826   -3.8464    0.7821 H   0  0  0  0  0  0  0  0  0  0  0  0
   -2.8156   -2.8034    0.4711 C   0  0  0  0  0  0  0  0  0  0  0  0
   -3.4336   -2.2354    1.1641 H   0  0  0  0  0  0  0  0  0  0  0  0
   -3.2256   -2.7344   -0.5349 H   0  0  0  0  0  0  0  0  0  0  0  0
   -1.4126   -2.2444    0.4801 C   0  0  0  0  0  0  0  0  0  0  0  0
   -0.4686   -2.9534    0.8001 O   0  0  0  0  0  0  0  0  0  0  0  0
   -1.2736   -0.9704    0.1241 N   0  0  0  0  0  0  0  0  0  0  0  0
   -2.0996   -0.4354   -0.1019 H   0  0  0  0  0  0  0  0  0  0  0  0
   -0.0016   -0.2394    0.1271 C   0  0  1  0  0  0  0  0  0  0  0  0
    0.6995   -0.7619   -0.5275 H   0  0  0  0  0  0  0  0  0  0  0  0
   -0.2283    1.1832   -0.4215 C   0  0  0  0  0  0  0  0  0  0  0  0
    0.0385    1.9138    0.3431 H   0  0  0  0  0  0  0  0  0  0  0  0
    0.4166    1.3509   -1.2848 H   0  0  0  0  0  0  0  0  0  0  0  0
   -1.6764    1.4581   -0.8157 C   0  0  0  0  0  0  0  0  0  0  0  0
   -2.6000    1.6617   -0.0386 O   0  0  0  0  0  0  0  0  0  0  0  0
   -1.9101    1.4593   -2.1413 O   0  0  0  0  0  0  0  0  0  0  0  0
   -2.8406    1.6615   -2.2436 H   0  0  0  0  0  0  0  0  0  0  0  0
    0.5920   -0.2154    1.5497 C   0  0  0  0  0  0  0  0  0  0  0  0
    1.7860   -0.4596    1.7183 O   0  0  0  0  0  0  0  0  0  0  0  0
   -0.2294    0.0669    2.5672 N   0  0  0  0  0  0  0  0  0  0  0  0
   -1.2130    0.1938    2.3518 H   0  0  0  0  0  0  0  0  0  0  0  0
    0.1836    0.1337    3.9673 C   0  0  0  0  0  0  0  0  0  0  0  0
    1.0451    0.7976    4.0666 H   0  0  0  0  0  0  0  0  0  0  0  0
   -0.6344    0.5115    4.5820 H   0  0  0  0  0  0  0  0  0  0  0  0
    0.4676   -0.8609    4.3157 H   0  0  0  0  0  0  0  0  0  0  0  0
  5  6  2  0  0  0  0
  5  7  1  0  0  0  0
  2  3  1  0  0  0  0
  2  4  1  0  0  0  0
  2  5  1  0  0  0  0
  1  2  1  0  0  0  0
 18 19  2  0  0  0  0
 18 20  1  0  0  0  0
 16 17  1  0  0  0  0
 14 15  2  0  0  0  0
 14 16  1  0  0  0  0
 11 12  1  0  0  0  0
 11 13  1  0  0  0  0
 11 14  1  0  0  0  0
  9 10  1  0  0  0  0
  9 11  1  0  0  0  0
  9 18  1  0  0  0  0
  7  8  1  0  0  0  0
  7  9  1  0  0  0  0
 22 23  1  0  0  0  0
 22 24  1  0  0  0  0
 22 25  1  0  0  0  0
 20 21  1  0  0  0  0
 20 22  1  0  0  0  0
M  END
$$$$
default_name
  -OEChem-02102213163D

 25 24  0     1  0  0  0  0  0999 V2000
   -2.7826   -3.8464    0.7821 H   0  0  0  0  0  0  0  0  0  0  0  0
   -2.8156   -2.8034    0.4711 C   0  0  0  0  0  0  0  0  0  0  0  0
   -3.4336   -2.2354    1.1641 H   0  0  0  0  0  0  0  0  0  0  0  0
   -3.2256   -2.7344   -0.5349 H   0  0  0  0  0  0  0  0  0  0  0  0
   -1.4126   -2.2444    0.4801 C   0  0  0  0  0  0  0  0  0  0  0  0
   -0.4686   -2.9534    0.8001 O   0  0  0  0  0  0  0  0  0  0  0  0
   -1.2736   -0.9704    0.1241 N   0  0  0  0  0  0  0  0  0  0  0  0
   -2.0996   -0.4354   -0.1019 H   0  0  0  0  0  0  0  0  0  0  0  0
   -0.0016   -0.2394    0.1271 C   0  0  1  0  0  0  0  0  0  0  0  0
    0.6995   -0.7619   -0.5275 H   0  0  0  0  0  0  0  0  0  0  0  0
   -0.2283    1.1832   -0.4215 C   0  0  0  0  0  0  0  0  0  0  0  0
    0.0385    1.9138    0.3431 H   0  0  0  0  0  0  0  0  0  0  0  0
    0.4166    1.3509   -1.2848 H   0  0  0  0  0  0  0  0  0  0  0  0
   -1.6764    1.4581   -0.8157 C   0  0  0  0  0  0  0  0  0  0  0  0
   -2.5417    1.9117   -0.0783 O   0  0  0  0  0  0  0  0  0  0  0  0
   -1.9821    1.1527   -2.0905 O   0  0  0  0  0  0  0  0  0  0  0  0
   -2.9028    1.3909   -2.2039 H   0  0  0  0  0  0  0  0  0  0  0  0
    0.5920   -0.2154    1.5497 C   0  0  0  0  0  0  0  0  0  0  0  0
    1.7860   -0.4596    1.7183 O   0  0  0  0  0  0  0  0  0  0  0  0
   -0.2294    0.0669    2.5672 N   0  0  0  0  0  0  0  0  0  0  0  0
   -1.2130    0.1938    2.3518 H   0  0  0  0  0  0  0  0  0  0  0  0
    0.1836    0.1337    3.9673 C   0  0  0  0  0  0  0  0  0  0  0  0
    1.0451    0.7976    4.0666 H   0  0  0  0  0  0  0  0  0  0  0  0
   -0.6344    0.5115    4.5820 H   0  0  0  0  0  0  0  0  0  0  0  0
    0.4676   -0.8609    4.3157 H   0  0  0  0  0  0  0  0  0  0  0  0
  5  6  2  0  0  0  0
  5  7  1  0  0  0  0
  2  3  1  0  0  0  0
  2  4  1  0  0  0  0
  2  5  1  0  0  0  0
  1  2  1  0  0  0  0
 18 19  2  0  0  0  0
 18 20  1  0  0  0  0
 16 17  1  0  0  0  0
 14 15  2  0  0  0  0
 14 16  1  0  0  0  0
 11 12  1  0  0  0  0
 11 13  1  0  0  0  0
 11 14  1  0  0  0  0
  9 10  1  0  0  0  0
  9 11  1  0  0  0  0
  9 18  1  0  0  0  0
  7  8  1  0  0  0  0
  7  9  1  0  0  0  0
 22 23  1  0  0  0  0
 22 24  1  0  0  0  0
 22 25  1  0  0  0  0
 20 21  1  0  0  0  0
 20 22  1  0  0  0  0
M  END
$$$$
default_name
  -OEChem-02102213163D

 25 24  0     1  0  0  0  0  0999 V2000
   -2.7826   -3.8464    0.7821 H   0  0  0  0  0  0  0  0  0  0  0  0
   -2.8156   -2.8034    0.4711 C   0  0  0  0  0  0  0  0  0  0  0  0
   -3.4336   -2.2354    1.1641 H   0  0  0  0  0  0  0  0  0  0  0  0
   -3.2256   -2.7344   -0.5349 H   0  0  0  0  0  0  0  0  0  0  0  0
   -1.4126   -2.2444    0.4801 C   0  0  0  0  0  0  0  0  0  0  0  0
   -0.4686   -2.9534    0.8001 O   0  0  0  0  0  0  0  0  0  0  0  0
   -1.2736   -0.9704    0.1241 N   0  0  0  0  0  0  0  0  0  0  0  0
   -2.0996   -0.4354   -0.1019 H   0  0  0  0  0  0  0  0  0  0  0  0
   -0.0016   -0.2394    0.1271 C   0  0  1  0  0  0  0  0  0  0  0  0
    0.6995   -0.7619   -0.5275 H   0  0  0  0  0  0  0  0  0  0  0  0
   -0.2283    1.1832   -0.4215 C   0  0  0  0  0  0  0  0  0  0  0  0
    0.0385    1.9138    0.3431 H   0  0  0  0  0  0  0  0  0  0  0  0
    0.4166    1.3509   -1.2848 H   0  0  0  0  0  0  0  0  0  0  0  0
   -1.6764    1.4581   -0.8157 C   0  0  0  0  0  0  0  0  0  0  0  0
   -2.4705    2.1396   -0.1808 O   0  0  0  0  0  0  0  0  0  0  0  0
   -2.0698    0.8739   -1.9628 O   0  0  0  0  0  0  0  0  0  0  0  0
   -2.9791    1.1435   -2.0961 H   0  0  0  0  0  0  0  0  0  0  0  0
    0.5920   -0.2154    1.5497 C   0  0  0  0  0  0  0  0  0  0  0  0
    1.7860   -0.4596    1.7183 O   0  0  0  0  0  0  0  0  0  0  0  0
   -0.2294    0.0669    2.5672 N   0  0  0  0  0  0  0  0  0  0  0  0
   -1.2130    0.1938    2.3518 H   0  0  0  0  0  0  0  0  0  0  0  0
    0.1836    0.1337    3.9673 C   0  0  0  0  0  0  0  0  0  0  0  0
    1.0451    0.7976    4.0666 H   0  0  0  0  0  0  0  0  0  0  0  0
   -0.6344    0.5115    4.5820 H   0  0  0  0  0  0  0  0  0  0  0  0
    0.4676   -0.8609    4.3157 H   0  0  0  0  0  0  0  0  0  0  0  0
  5  6  2  0  0  0  0
  5  7  1  0  0  0  0
  2  3  1  0  0  0  0
  2  4  1  0  0  0  0
  2  5  1  0  0  0  0
  1  2  1  0  0  0  0
 18 19  2  0  0  0  0
 18 20  1  0  0  0  0
 16 17  1  0  0  0  0
 14 15  2  0  0  0  0
 14 16  1  0  0  0  0
 11 12  1  0  0  0  0
 11 13  1  0  0  0  0
 11 14  1  0  0  0  0
  9 10  1  0  0  0  0
  9 11  1  0  0  0  0
  9 18  1  0  0  0  0
  7  8  1  0  0  0  0
  7  9  1  0  0  0  0
 22 23  1  0  0  0  0
 22 24  1  0  0  0  0
 22 25  1  0  0  0  0
 20 21  1  0  0  0  0
 20 22  1  0  0  0  0
M  END
$$$$
default_name
  -OEChem-02102213163D

 25 24  0     1  0  0  0  0  0999 V2000
   -2.7826   -3.8464    0.7821 H   0  0  0  0  0  0  0  0  0  0  0  0
   -2.8156   -2.8034    0.4711 C   0  0  0  0  0  0  0  0  0  0  0  0
   -3.4336   -2.2354    1.1641 H   0  0  0  0  0  0  0  0  0  0  0  0
   -3.2256   -2.7344   -0.5349 H   0  0  0  0  0  0  0  0  0  0  0  0
   -1.4126   -2.2444    0.4801 C   0  0  0  0  0  0  0  0  0  0  0  0
   -0.4686   -2.9534    0.8001 O   0  0  0  0  0  0  0  0  0  0  0  0
   -1.2736   -0.9704    0.1241 N   0  0  0  0  0  0  0  0  0  0  0  0
   -2.0996   -0.4354   -0.1019 H   0  0  0  0  0  0  0  0  0  0  0  0
   -0.0016   -0.2394    0.1271 C   0  0  1  0  0  0  0  0  0  0  0  0
    0.6995   -0.7619   -0.5275 H   0  0  0  0  0  0  0  0  0  0  0  0
   -0.2283    1.1832   -0.4215 C   0  0  0  0  0  0  0  0  0  0  0  0
    0.0385    1.9138    0.3431 H   0  0  0  0  0  0  0  0  0  0  0  0
    0.4166    1.3509   -1.2848 H   0  0  0  0  0  0  0  0  0  0  0  0
   -1.6764    1.4581   -0.8157 C   0  0  0  0  0  0  0  0  0  0  0  0
   -2.3913    2.3299   -0.3391 O   0  0  0  0  0  0  0  0  0  0  0  0
   -2.1673    0.6418   -1.7668 O   0  0  0  0  0  0  0  0  0  0  0  0
   -3.0643    0.9360   -1.9278 H   0  0  0  0  0  0  0  0  0  0  0  0
    0.5920   -0.2154    1.5497 C   0  0  0  0  0  0  0  0  0  0  0  0
    1.7860   -0.4596    1.7183 O   0  0  0  0  0  0  0  0  0  0  0  0
   -0.2294    0.0669    2.5672 N   0  0  0  0  0  0  0  0  0  0  0  0
   -1.2130    0.1938    2.3518 H   0  0  0  0  0  0  0  0  0  0  0  0
    0.1836    0.1337    3.9673 C   0  0  0  0  0  0  0  0  0  0  0  0
    1.0451    0.7976    4.0666 H   0  0  0  0  0  0  0  0  0  0  0  0
   -0.6344    0.5115    4.5820 H   0  0  0  0  0  0  0  0  0  0  0  0
    0.4676   -0.8609    4.3157 H   0  0  0  0  0  0  0  0  0  0  0  0
  5  6  2  0  0  0  0
  5  7  1  0  0  0  0
  2  3  1  0  0  0  0
  2  4  1  0  0  0  0
  2  5  1  0  0  0  0
  1  2  1  0  0  0  0
 18 19  2  0  0  0  0
 18 20  1  0  0  0  0
 16 17  1  0  0  0  0
 14 15  2  0  0  0  0
 14 16  1  0  0  0  0
 11 12  1  0  0  0  0
 11 13  1  0  0  0  0
 11 14  1  0  0  0  0
  9 10  1  0  0  0  0
  9 11  1  0  0  0  0
  9 18  1  0  0  0  0
  7  8  1  0  0  0  0
  7  9  1  0  0  0  0
 22 23  1  0  0  0  0
 22 24  1  0  0  0  0
 22 25  1  0  0  0  0
 20 21  1  0  0  0  0
 20 22  1  0  0  0  0
M  END
$$$$
default_name
  -OEChem-02102213163D

 25 24  0     1  0  0  0  0  0999 V2000
   -2.7826   -3.8464    0.7821 H   0  0  0  0  0  0  0  0  0  0  0  0
   -2.8156   -2.8034    0.4711 C   0  0  0  0  0  0  0  0  0  0  0  0
   -3.4336   -2.2354    1.1641 H   0  0  0  0  0  0  0  0  0  0  0  0
   -3.2256   -2.7344   -0.5349 H   0  0  0  0  0  0  0  0  0  0  0  0
   -1.4126   -2.2444    0.4801 C   0  0  0  0  0  0  0  0  0  0  0  0
   -0.4686   -2.9534    0.8001 O   0  0  0  0  0  0  0  0  0  0  0  0
   -1.2736   -0.9704    0.1241 N   0  0  0  0  0  0  0  0  0  0  0  0
   -2.0996   -0.4354   -0.1019 H   0  0  0  0  0  0  0  0  0  0  0  0
   -0.0016   -0.2394    0.1271 C   0  0  1  0  0  0  0  0  0  0  0  0
    0.6995   -0.7619   -0.5275 H   0  0  0  0  0  0  0  0  0  0  0  0
   -0.2283    1.1832   -0.4215 C   0  0  0  0  0  0  0  0  0  0  0  0
    0.0385    1.9138    0.3431 H   0  0  0  0  0  0  0  0  0  0  0  0
    0.4166    1.3509   -1.2848 H   0  0  0  0  0  0  0  0  0  0  0  0
   -1.6764    1.4581   -0.8157 C   0  0  0  0  0  0  0  0  0  0  0  0
   -2.3095    2.4694   -0.5424 O   0  0  0  0  0  0  0  0  0  0  0  0
   -2.2677    0.4723   -1.5159 O   0  0  0  0  0  0  0  0  0  0  0  0
   -3.1527    0.7827   -1.7102 H   0  0  0  0  0  0  0  0  0  0  0  0
    0.5920   -0.2154    1.5497 C   0  0  0  0  0  0  0  0  0  0  0  0
    1.7860   -0.4596    1.7183 O   0  0  0  0  0  0  0  0  0  0  0  0
   -0.2294    0.0669    2.5672 N   0  0  0  0  0  0  0  0  0  0  0  0
   -1.2130    0.1938    2.3518 H   0  0  0  0  0  0  0  0  0  0  0  0
    0.1836    0.1337    3.9673 C   0  0  0  0  0  0  0  0  0  0  0  0
    1.0451    0.7976    4.0666 H   0  0  0  0  0  0  0  0  0  0  0  0
   -0.6344    0.5115    4.5820 H   0  0  0  0  0  0  0  0  0  0  0  0
    0.4676   -0.8609    4.3157 H   0  0  0  0  0  0  0  0  0  0  0  0
  5  6  2  0  0  0  0
  5  7  1  0  0  0  0
  2  3  1  0  0  0  0
  2  4  1  0  0  0  0
  2  5  1  0  0  0  0
  1  2  1  0  0  0  0
 18 19  2  0  0  0  0
 18 20  1  0  0  0  0
 16 17  1  0  0  0  0
 14 15  2  0  0  0  0
 14 16  1  0  0  0  0
 11 12  1  0  0  0  0
 11 13  1  0  0  0  0
 11 14  1  0  0  0  0
  9 10  1  0  0  0  0
  9 11  1  0  0  0  0
  9 18  1  0  0  0  0
  7  8  1  0  0  0  0
  7  9  1  0  0  0  0
 22 23  1  0  0  0  0
 22 24  1  0  0  0  0
 22 25  1  0  0  0  0
 20 21  1  0  0  0  0
 20 22  1  0  0  0  0
M  END
$$$$
default_name
  -OEChem-02102213163D

 25 24  0     1  0  0  0  0  0999 V2000
   -2.7826   -3.8464    0.7821 H   0  0  0  0  0  0  0  0  0  0  0  0
   -2.8156   -2.8034    0.4711 C   0  0  0  0  0  0  0  0  0  0  0  0
   -3.4336   -2.2354    1.1641 H   0  0  0  0  0  0  0  0  0  0  0  0
   -3.2256   -2.7344   -0.5349 H   0  0  0  0  0  0  0  0  0  0  0  0
   -1.4126   -2.2444    0.4801 C   0  0  0  0  0  0  0  0  0  0  0  0
   -0.4686   -2.9534    0.8001 O   0  0  0  0  0  0  0  0  0  0  0  0
   -1.2736   -0.9704    0.1241 N   0  0  0  0  0  0  0  0  0  0  0  0
   -2.0996   -0.4354   -0.1019 H   0  0  0  0  0  0  0  0  0  0  0  0
   -0.0016   -0.2394    0.1271 C   0  0  1  0  0  0  0  0  0  0  0  0
    0.6995   -0.7619   -0.5275 H   0  0  0  0  0  0  0  0  0  0  0  0
   -0.2283    1.1832   -0.4215 C   0  0  0  0  0  0  0  0  0  0  0  0
    0.0385    1.9138    0.3431 H   0  0  0  0  0  0  0  0  0  0  0  0
    0.4166    1.3509   -1.2848 H   0  0  0  0  0  0  0  0  0  0  0  0
   -1.6764    1.4581   -0.8157 C   0  0  0  0  0  0  0  0  0  0  0  0
   -2.2306    2.5488   -0.7768 O   0  0  0  0  0  0  0  0  0  0  0  0
   -2.3644    0.3769   -1.2273 O   0  0  0  0  0  0  0  0  0  0  0  0
   -3.2381    0.6940   -1.4582 H   0  0  0  0  0  0  0  0  0  0  0  0
    0.5920   -0.2154    1.5497 C   0  0  0  0  0  0  0  0  0  0  0  0
    1.7860   -0.4596    1.7183 O   0  0  0  0  0  0  0  0  0  0  0  0
   -0.2294    0.0669    2.5672 N   0  0  0  0  0  0  0  0  0  0  0  0
   -1.2130    0.1938    2.3518 H   0  0  0  0  0  0  0  0  0  0  0  0
    0.1836    0.1337    3.9673 C   0  0  0  0  0  0  0  0  0  0  0  0
    1.0451    0.7976    4.0666 H   0  0  0  0  0  0  0  0  0  0  0  0
   -0.6344    0.5115    4.5820 H   0  0  0  0  0  0  0  0  0  0  0  0
    0.4676   -0.8609    4.3157 H   0  0  0  0  0  0  0  0  0  0  0  0
  5  6  2  0  0  0  0
  5  7  1  0  0  0  0
  2  3  1  0  0  0  0
  2  4  1  0  0  0  0
  2  5  1  0  0  0  0
  1  2  1  0  0  0  0
 18 19  2  0  0  0  0
 18 20  1  0  0  0  0
 16 17  1  0  0  0  0
 14 15  2  0  0  0  0
 14 16  1  0  0  0  0
 11 12  1  0  0  0  0
 11 13  1  0  0  0  0
 11 14  1  0  0  0  0
  9 10  1  0  0  0  0
  9 11  1  0  0  0  0
  9 18  1  0  0  0  0
  7  8  1  0  0  0  0
  7  9  1  0  0  0  0
 22 23  1  0  0  0  0
 22 24  1  0  0  0  0
 22 25  1  0  0  0  0
 20 21  1  0  0  0  0
 20 22  1  0  0  0  0
M  END
$$$$
default_name
  -OEChem-02102213163D

 25 24  0     1  0  0  0  0  0999 V2000
   -2.7826   -3.8464    0.7821 H   0  0  0  0  0  0  0  0  0  0  0  0
   -2.8156   -2.8034    0.4711 C   0  0  0  0  0  0  0  0  0  0  0  0
   -3.4336   -2.2354    1.1641 H   0  0  0  0  0  0  0  0  0  0  0  0
   -3.2256   -2.7344   -0.5349 H   0  0  0  0  0  0  0  0  0  0  0  0
   -1.4126   -2.2444    0.4801 C   0  0  0  0  0  0  0  0  0  0  0  0
   -0.4686   -2.9534    0.8001 O   0  0  0  0  0  0  0  0  0  0  0  0
   -1.2736   -0.9704    0.1241 N   0  0  0  0  0  0  0  0  0  0  0  0
   -2.0996   -0.4354   -0.1019 H   0  0  0  0  0  0  0  0  0  0  0  0
   -0.0016   -0.2394    0.1271 C   0  0  1  0  0  0  0  0  0  0  0  0
    0.6995   -0.7619   -0.5275 H   0  0  0  0  0  0  0  0  0  0  0  0
   -0.2283    1.1832   -0.4215 C   0  0  0  0  0  0  0  0  0  0  0  0
    0.0385    1.9138    0.3431 H   0  0  0  0  0  0  0  0  0  0  0  0
    0.4166    1.3509   -1.2848 H   0  0  0  0  0  0  0  0  0  0  0  0
   -1.6764    1.4581   -0.8157 C   0  0  0  0  0  0  0  0  0  0  0  0
   -2.1600    2.5626   -1.0265 O   0  0  0  0  0  0  0  0  0  0  0  0
   -2.4507    0.3621   -0.9205 O   0  0  0  0  0  0  0  0  0  0  0  0
   -3.3148    0.6759   -1.1891 H   0  0  0  0  0  0  0  0  0  0  0  0
    0.5920   -0.2154    1.5497 C   0  0  0  0  0  0  0  0  0  0  0  0
    1.7860   -0.4596    1.7183 O   0  0  0  0  0  0  0  0  0  0  0  0
   -0.2294    0.0669    2.5672 N   0  0  0  0  0  0  0  0  0  0  0  0
   -1.2130    0.1938    2.3518 H   0  0  0  0  0  0  0  0  0  0  0  0
    0.1836    0.1337    3.9673 C   0  0  0  0  0  0  0  0  0  0  0  0
    1.0451    0.7976    4.0666 H   0  0  0  0  0  0  0  0  0  0  0  0
   -0.6344    0.5115    4.5820 H   0  0  0  0  0  0  0  0  0  0  0  0
    0.4676   -0.8609    4.3157 H   0  0  0  0  0  0  0  0  0  0  0  0
  5  6  2  0  0  0  0
  5  7  1  0  0  0  0
  2  3  1  0  0  0  0
  2  4  1  0  0  0  0
  2  5  1  0  0  0  0
  1  2  1  0  0  0  0
 18 19  2  0  0  0  0
 18 20  1  0  0  0  0
 16 17  1  0  0  0  0
 14 15  2  0  0  0  0
 14 16  1  0  0  0  0
 11 12  1  0  0  0  0
 11 13  1  0  0  0  0
 11 14  1  0  0  0  0
  9 10  1  0  0  0  0
  9 11  1  0  0  0  0
  9 18  1  0  0  0  0
  7  8  1  0  0  0  0
  7  9  1  0  0  0  0
 22 23  1  0  0  0  0
 22 24  1  0  0  0  0
 22 25  1  0  0  0  0
 20 21  1  0  0  0  0
 20 22  1  0  0  0  0
M  END
$$$$
default_name
  -OEChem-02102213163D

 25 24  0     1  0  0  0  0  0999 V2000
   -2.7826   -3.8464    0.7821 H   0  0  0  0  0  0  0  0  0  0  0  0
   -2.8156   -2.8034    0.4711 C   0  0  0  0  0  0  0  0  0  0  0  0
   -3.4336   -2.2354    1.1641 H   0  0  0  0  0  0  0  0  0  0  0  0
   -3.2256   -2.7344   -0.5349 H   0  0  0  0  0  0  0  0  0  0  0  0
   -1.4126   -2.2444    0.4801 C   0  0  0  0  0  0  0  0  0  0  0  0
   -0.4686   -2.9534    0.8001 O   0  0  0  0  0  0  0  0  0  0  0  0
   -1.2736   -0.9704    0.1241 N   0  0  0  0  0  0  0  0  0  0  0  0
   -2.0996   -0.4354   -0.1019 H   0  0  0  0  0  0  0  0  0  0  0  0
   -0.0016   -0.2394    0.1271 C   0  0  1  0  0  0  0  0  0  0  0  0
    0.6995   -0.7619   -0.5275 H   0  0  0  0  0  0  0  0  0  0  0  0
   -0.2283    1.1832   -0.4215 C   0  0  0  0  0  0  0  0  0  0  0  0
    0.2775    1.9048    0.2211 H   0  0  0  0  0  0  0  0  0  0  0  0
    0.2021    1.2645   -1.4203 H   0  0  0  0  0  0  0  0  0  0  0  0
   -1.6989    1.5862   -0.4742 C   0  0  0  0  0  0  0  0  0  0  0  0
   -2.1292    2.6616   -0.8700 O   0  0  0  0  0  0  0  0  0  0  0  0
   -2.5573    0.6492   -0.0301 O   0  0  0  0  0  0  0  0  0  0  0  0
   -3.4324    1.0232   -0.1373 H   0  0  0  0  0  0  0  0  0  0  0  0
    0.5920   -0.2154    1.5497 C   0  0  0  0  0  0  0  0  0  0  0  0
    1.7860   -0.4596    1.7183 O   0  0  0  0  0  0  0  0  0  0  0  0
   -0.2294    0.0669    2.5672 N   0  0  0  0  0  0  0  0  0  0  0  0
   -1.2130    0.1938    2.3518 H   0  0  0  0  0  0  0  0  0  0  0  0
    0.1836    0.1337    3.9673 C   0  0  0  0  0  0  0  0  0  0  0  0
    1.0451    0.7976    4.0666 H   0  0  0  0  0  0  0  0  0  0  0  0
   -0.6344    0.5115    4.5820 H   0  0  0  0  0  0  0  0  0  0  0  0
    0.4676   -0.8609    4.3157 H   0  0  0  0  0  0  0  0  0  0  0  0
  5  6  2  0  0  0  0
  5  7  1  0  0  0  0
  2  3  1  0  0  0  0
  2  4  1  0  0  0  0
  2  5  1  0  0  0  0
  1  2  1  0  0  0  0
 18 19  2  0  0  0  0
 18 20  1  0  0  0  0
 16 17  1  0  0  0  0
 14 15  2  0  0  0  0
 14 16  1  0  0  0  0
 11 12  1  0  0  0  0
 11 13  1  0  0  0  0
 11 14  1  0  0  0  0
  9 10  1  0  0  0  0
  9 11  1  0  0  0  0
  9 18  1  0  0  0  0
  7  8  1  0  0  0  0
  7  9  1  0  0  0  0
 22 23  1  0  0  0  0
 22 24  1  0  0  0  0
 22 25  1  0  0  0  0
 20 21  1  0  0  0  0
 20 22  1  0  0  0  0
M  END
$$$$
default_name
  -OEChem-02102213163D

 25 24  0     1  0  0  0  0  0999 V2000
   -2.7826   -3.8464    0.7821 H   0  0  0  0  0  0  0  0  0  0  0  0
   -2.8156   -2.8034    0.4711 C   0  0  0  0  0  0  0  0  0  0  0  0
   -3.4336   -2.2354    1.1641 H   0  0  0  0  0  0  0  0  0  0  0  0
   -3.2256   -2.7344   -0.5349 H   0  0  0  0  0  0  0  0  0  0  0  0
   -1.4126   -2.2444    0.4801 C   0  0  0  0  0  0  0  0  0  0  0  0
   -0.4686   -2.9534    0.8001 O   0  0  0  0  0  0  0  0  0  0  0  0
   -1.2736   -0.9704    0.1241 N   0  0  0  0  0  0  0  0  0  0  0  0
   -2.0996   -0.4354   -0.1019 H   0  0  0  0  0  0  0  0  0  0  0  0
   -0.0016   -0.2394    0.1271 C   0  0  1  0  0  0  0  0  0  0  0  0
    0.6995   -0.7619   -0.5275 H   0  0  0  0  0  0  0  0  0  0  0  0
   -0.2283    1.1832   -0.4215 C   0  0  0  0  0  0  0  0  0  0  0  0
    0.2775    1.9048    0.2211 H   0  0  0  0  0  0  0  0  0  0  0  0
    0.2021    1.2645   -1.4203 H   0  0  0  0  0  0  0  0  0  0  0  0
   -1.6989    1.5862   -0.4742 C   0  0  0  0  0  0  0  0  0  0  0  0
   -2.1554    2.5365   -1.0962 O   0  0  0  0  0  0  0  0  0  0  0  0
   -2.5246    0.8047    0.2465 O   0  0  0  0  0  0  0  0  0  0  0  0
   -3.4050    1.1555    0.1084 H   0  0  0  0  0  0  0  0  0  0  0  0
    0.5920   -0.2154    1.5497 C   0  0  0  0  0  0  0  0  0  0  0  0
    1.7860   -0.4596    1.7183 O   0  0  0  0  0  0  0  0  0  0  0  0
   -0.2294    0.0669    2.5672 N   0  0  0  0  0  0  0  0  0  0  0  0
   -1.2130    0.1938    2.3518 H   0  0  0  0  0  0  0  0  0  0  0  0
    0.1836    0.1337    3.9673 C   0  0  0  0  0  0  0  0  0  0  0  0
    1.0451    0.7976    4.0666 H   0  0  0  0  0  0  0  0  0  0  0  0
   -0.6344    0.5115    4.5820 H   0  0  0  0  0  0  0  0  0  0  0  0
    0.4676   -0.8609    4.3157 H   0  0  0  0  0  0  0  0  0  0  0  0
  5  6  2  0  0  0  0
  5  7  1  0  0  0  0
  2  3  1  0  0  0  0
  2  4  1  0  0  0  0
  2  5  1  0  0  0  0
  1  2  1  0  0  0  0
 18 19  2  0  0  0  0
 18 20  1  0  0  0  0
 16 17  1  0  0  0  0
 14 15  2  0  0  0  0
 14 16  1  0  0  0  0
 11 12  1  0  0  0  0
 11 13  1  0  0  0  0
 11 14  1  0  0  0  0
  9 10  1  0  0  0  0
  9 11  1  0  0  0  0
  9 18  1  0  0  0  0
  7  8  1  0  0  0  0
  7  9  1  0  0  0  0
 22 23  1  0  0  0  0
 22 24  1  0  0  0  0
 22 25  1  0  0  0  0
 20 21  1  0  0  0  0
 20 22  1  0  0  0  0
M  END
$$$$
default_name
  -OEChem-02102213163D

 25 24  0     1  0  0  0  0  0999 V2000
   -2.7826   -3.8464    0.7821 H   0  0  0  0  0  0  0  0  0  0  0  0
   -2.8156   -2.8034    0.4711 C   0  0  0  0  0  0  0  0  0  0  0  0
   -3.4336   -2.2354    1.1641 H   0  0  0  0  0  0  0  0  0  0  0  0
   -3.2256   -2.7344   -0.5349 H   0  0  0  0  0  0  0  0  0  0  0  0
   -1.4126   -2.2444    0.4801 C   0  0  0  0  0  0  0  0  0  0  0  0
   -0.4686   -2.9534    0.8001 O   0  0  0  0  0  0  0  0  0  0  0  0
   -1.2736   -0.9704    0.1241 N   0  0  0  0  0  0  0  0  0  0  0  0
   -2.0996   -0.4354   -0.1019 H   0  0  0  0  0  0  0  0  0  0  0  0
   -0.0016   -0.2394    0.1271 C   0  0  1  0  0  0  0  0  0  0  0  0
    0.6995   -0.7619   -0.5275 H   0  0  0  0  0  0  0  0  0  0  0  0
   -0.2283    1.1832   -0.4215 C   0  0  0  0  0  0  0  0  0  0  0  0
    0.2775    1.9048    0.2211 H   0  0  0  0  0  0  0  0  0  0  0  0
    0.2021    1.2645   -1.4203 H   0  0  0  0  0  0  0  0  0  0  0  0
   -1.6989    1.5862   -0.4742 C   0  0  0  0  0  0  0  0  0  0  0  0
   -2.1973    2.3594   -1.2816 O   0  0  0  0  0  0  0  0  0  0  0  0
   -2.4727    1.0236    0.4727 O   0  0  0  0  0  0  0  0  0  0  0  0
   -3.3605    1.3443    0.3109 H   0  0  0  0  0  0  0  0  0  0  0  0
    0.5920   -0.2154    1.5497 C   0  0  0  0  0  0  0  0  0  0  0  0
    1.7860   -0.4596    1.7183 O   0  0  0  0  0  0  0  0  0  0  0  0
   -0.2294    0.0669    2.5672 N   0  0  0  0  0  0  0  0  0  0  0  0
   -1.2130    0.1938    2.3518 H   0  0  0  0  0  0  0  0  0  0  0  0
    0.1836    0.1337    3.9673 C   0  0  0  0  0  0  0  0  0  0  0  0
    1.0451    0.7976    4.0666 H   0  0  0  0  0  0  0  0  0  0  0  0
   -0.6344    0.5115    4.5820 H   0  0  0  0  0  0  0  0  0  0  0  0
    0.4676   -0.8609    4.3157 H   0  0  0  0  0  0  0  0  0  0  0  0
  5  6  2  0  0  0  0
  5  7  1  0  0  0  0
  2  3  1  0  0  0  0
  2  4  1  0  0  0  0
  2  5  1  0  0  0  0
  1  2  1  0  0  0  0
 18 19  2  0  0  0  0
 18 20  1  0  0  0  0
 16 17  1  0  0  0  0
 14 15  2  0  0  0  0
 14 16  1  0  0  0  0
 11 12  1  0  0  0  0
 11 13  1  0  0  0  0
 11 14  1  0  0  0  0
  9 10  1  0  0  0  0
  9 11  1  0  0  0  0
  9 18  1  0  0  0  0
  7  8  1  0  0  0  0
  7  9  1  0  0  0  0
 22 23  1  0  0  0  0
 22 24  1  0  0  0  0
 22 25  1  0  0  0  0
 20 21  1  0  0  0  0
 20 22  1  0  0  0  0
M  END
$$$$
default_name
  -OEChem-02102213163D

 25 24  0     1  0  0  0  0  0999 V2000
   -2.7826   -3.8464    0.7821 H   0  0  0  0  0  0  0  0  0  0  0  0
   -2.8156   -2.8034    0.4711 C   0  0  0  0  0  0  0  0  0  0  0  0
   -3.4336   -2.2354    1.1641 H   0  0  0  0  0  0  0  0  0  0  0  0
   -3.2256   -2.7344   -0.5349 H   0  0  0  0  0  0  0  0  0  0  0  0
   -1.4126   -2.2444    0.4801 C   0  0  0  0  0  0  0  0  0  0  0  0
   -0.4686   -2.9534    0.8001 O   0  0  0  0  0  0  0  0  0  0  0  0
   -1.2736   -0.9704    0.1241 N   0  0  0  0  0  0  0  0  0  0  0  0
   -2.0996   -0.4354   -0.1019 H   0  0  0  0  0  0  0  0  0  0  0  0
   -0.0016   -0.2394    0.1271 C   0  0  1  0  0  0  0  0  0  0  0  0
    0.6995   -0.7619   -0.5275 H   0  0  0  0  0  0  0  0  0  0  0  0
   -0.2283    1.1832   -0.4215 C   0  0  0  0  0  0  0  0  0  0  0  0
    0.2775    1.9048    0.2211 H   0  0  0  0  0  0  0  0  0  0  0  0
    0.2021    1.2645   -1.4203 H   0  0  0  0  0  0  0  0  0  0  0  0
   -1.6989    1.5862   -0.4742 C   0  0  0  0  0  0  0  0  0  0  0  0
   -2.2520    2.1425   -1.4138 O   0  0  0  0  0  0  0  0  0  0  0  0
   -2.4051    1.2910    0.6330 O   0  0  0  0  0  0  0  0  0  0  0  0
   -3.3019    1.5769    0.4563 H   0  0  0  0  0  0  0  0  0  0  0  0
    0.5920   -0.2154    1.5497 C   0  0  0  0  0  0  0  0  0  0  0  0
    1.7860   -0.4596    1.7183 O   0  0  0  0  0  0  0  0  0  0  0  0
   -0.2294    0.0669    2.5672 N   0  0  0  0  0  0  0  0  0  0  0  0
   -1.2130    0.1938    2.3518 H   0  0  0  0  0  0  0  0  0  0  0  0
    0.1836    0.1337    3.9673 C   0  0  0  0  0  0  0  0  0  0  0  0
    1.0451    0.7976    4.0666 H   0  0  0  0  0  0  0  0  0  0  0  0
   -0.6344    0.5115    4.5820 H   0  0  0  0  0  0  0  0  0  0  0  0
    0.4676   -0.8609    4.3157 H   0  0  0  0  0  0  0  0  0  0  0  0
  5  6  2  0  0  0  0
  5  7  1  0  0  0  0
  2  3  1  0  0  0  0
  2  4  1  0  0  0  0
  2  5  1  0  0  0  0
  1  2  1  0  0  0  0
 18 19  2  0  0  0  0
 18 20  1  0  0  0  0
 16 17  1  0  0  0  0
 14 15  2  0  0  0  0
 14 16  1  0  0  0  0
 11 12  1  0  0  0  0
 11 13  1  0  0  0  0
 11 14  1  0  0  0  0
  9 10  1  0  0  0  0
  9 11  1  0  0  0  0
  9 18  1  0  0  0  0
  7  8  1  0  0  0  0
  7  9  1  0  0  0  0
 22 23  1  0  0  0  0
 22 24  1  0  0  0  0
 22 25  1  0  0  0  0
 20 21  1  0  0  0  0
 20 22  1  0  0  0  0
M  END
$$$$
default_name
  -OEChem-02102213163D

 25 24  0     1  0  0  0  0  0999 V2000
   -2.7826   -3.8464    0.7821 H   0  0  0  0  0  0  0  0  0  0  0  0
   -2.8156   -2.8034    0.4711 C   0  0  0  0  0  0  0  0  0  0  0  0
   -3.4336   -2.2354    1.1641 H   0  0  0  0  0  0  0  0  0  0  0  0
   -3.2256   -2.7344   -0.5349 H   0  0  0  0  0  0  0  0  0  0  0  0
   -1.4126   -2.2444    0.4801 C   0  0  0  0  0  0  0  0  0  0  0  0
   -0.4686   -2.9534    0.8001 O   0  0  0  0  0  0  0  0  0  0  0  0
   -1.2736   -0.9704    0.1241 N   0  0  0  0  0  0  0  0  0  0  0  0
   -2.0996   -0.4354   -0.1019 H   0  0  0  0  0  0  0  0  0  0  0  0
   -0.0016   -0.2394    0.1271 C   0  0  1  0  0  0  0  0  0  0  0  0
    0.6995   -0.7619   -0.5275 H   0  0  0  0  0  0  0  0  0  0  0  0
   -0.2283    1.1832   -0.4215 C   0  0  0  0  0  0  0  0  0  0  0  0
    0.2775    1.9048    0.2211 H   0  0  0  0  0  0  0  0  0  0  0  0
    0.2021    1.2645   -1.4203 H   0  0  0  0  0  0  0  0  0  0  0  0
   -1.6989    1.5862   -0.4742 C   0  0  0  0  0  0  0  0  0  0  0  0
   -2.3158    1.9005   -1.4836 O   0  0  0  0  0  0  0  0  0  0  0  0
   -2.3266    1.5886    0.7166 O   0  0  0  0  0  0  0  0  0  0  0  0
   -3.2334    1.8373    0.5348 H   0  0  0  0  0  0  0  0  0  0  0  0
    0.5920   -0.2154    1.5497 C   0  0  0  0  0  0  0  0  0  0  0  0
    1.7860   -0.4596    1.7183 O   0  0  0  0  0  0  0  0  0  0  0  0
   -0.2294    0.0669    2.5672 N   0  0  0  0  0  0  0  0  0  0  0  0
   -1.2130    0.1938    2.3518 H   0  0  0  0  0  0  0  0  0  0  0  0
    0.1836    0.1337    3.9673 C   0  0  0  0  0  0  0  0  0  0  0  0
    1.0451    0.7976    4.0666 H   0  0  0  0  0  0  0  0  0  0  0  0
   -0.6344    0.5115    4.5820 H   0  0  0  0  0  0  0  0  0  0  0  0
    0.4676   -0.8609    4.3157 H   0  0  0  0  0  0  0  0  0  0  0  0
  5  6  2  0  0  0  0
  5  7  1  0  0  0  0
  2  3  1  0  0  0  0
  2  4  1  0  0  0  0
  2  5  1  0  0  0  0
  1  2  1  0  0  0  0
 18 19  2  0  0  0  0
 18 20  1  0  0  0  0
 16 17  1  0  0  0  0
 14 15  2  0  0  0  0
 14 16  1  0  0  0  0
 11 12  1  0  0  0  0
 11 13  1  0  0  0  0
 11 14  1  0  0  0  0
  9 10  1  0  0  0  0
  9 11  1  0  0  0  0
  9 18  1  0  0  0  0
  7  8  1  0  0  0  0
  7  9  1  0  0  0  0
 22 23  1  0  0  0  0
 22 24  1  0  0  0  0
 22 25  1  0  0  0  0
 20 21  1  0  0  0  0
 20 22  1  0  0  0  0
M  END
$$$$
default_name
  -OEChem-02102213163D

 25 24  0     1  0  0  0  0  0999 V2000
   -2.7826   -3.8464    0.7821 H   0  0  0  0  0  0  0  0  0  0  0  0
   -2.8156   -2.8034    0.4711 C   0  0  0  0  0  0  0  0  0  0  0  0
   -3.4336   -2.2354    1.1641 H   0  0  0  0  0  0  0  0  0  0  0  0
   -3.2256   -2.7344   -0.5349 H   0  0  0  0  0  0  0  0  0  0  0  0
   -1.4126   -2.2444    0.4801 C   0  0  0  0  0  0  0  0  0  0  0  0
   -0.4686   -2.9534    0.8001 O   0  0  0  0  0  0  0  0  0  0  0  0
   -1.2736   -0.9704    0.1241 N   0  0  0  0  0  0  0  0  0  0  0  0
   -2.0996   -0.4354   -0.1019 H   0  0  0  0  0  0  0  0  0  0  0  0
   -0.0016   -0.2394    0.1271 C   0  0  1  0  0  0  0  0  0  0  0  0
    0.6995   -0.7619   -0.5275 H   0  0  0  0  0  0  0  0  0  0  0  0
   -0.2283    1.1832   -0.4215 C   0  0  0  0  0  0  0  0  0  0  0  0
    0.2775    1.9048    0.2211 H   0  0  0  0  0  0  0  0  0  0  0  0
    0.2021    1.2645   -1.4203 H   0  0  0  0  0  0  0  0  0  0  0  0
   -1.6989    1.5862   -0.4742 C   0  0  0  0  0  0  0  0  0  0  0  0
   -2.3844    1.6499   -1.4862 O   0  0  0  0  0  0  0  0  0  0  0  0
   -2.2423    1.8963    0.7177 O   0  0  0  0  0  0  0  0  0  0  0  0
   -3.1595    2.1077    0.5409 H   0  0  0  0  0  0  0  0  0  0  0  0
    0.5920   -0.2154    1.5497 C   0  0  0  0  0  0  0  0  0  0  0  0
    1.7860   -0.4596    1.7183 O   0  0  0  0  0  0  0  0  0  0  0  0
   -0.2294    0.0669    2.5672 N   0  0  0  0  0  0  0  0  0  0  0  0
   -1.2130    0.1938    2.3518 H   0  0  0  0  0  0  0  0  0  0  0  0
    0.1836    0.1337    3.9673 C   0  0  0  0  0  0  0  0  0  0  0  0
    1.0451    0.7976    4.0666 H   0  0  0  0  0  0  0  0  0  0  0  0
   -0.6344    0.5115    4.5820 H   0  0  0  0  0  0  0  0  0  0  0  0
    0.4676   -0.8609    4.3157 H   0  0  0  0  0  0  0  0  0  0  0  0
  5  6  2  0  0  0  0
  5  7  1  0  0  0  0
  2  3  1  0  0  0  0
  2  4  1  0  0  0  0
  2  5  1  0  0  0  0
  1  2  1  0  0  0  0
 18 19  2  0  0  0  0
 18 20  1  0  0  0  0
 16 17  1  0  0  0  0
 14 15  2  0  0  0  0
 14 16  1  0  0  0  0
 11 12  1  0  0  0  0
 11 13  1  0  0  0  0
 11 14  1  0  0  0  0
  9 10  1  0  0  0  0
  9 11  1  0  0  0  0
  9 18  1  0  0  0  0
  7  8  1  0  0  0  0
  7  9  1  0  0  0  0
 22 23  1  0  0  0  0
 22 24  1  0  0  0  0
 22 25  1  0  0  0  0
 20 21  1  0  0  0  0
 20 22  1  0  0  0  0
M  END
$$$$
default_name
  -OEChem-02102213163D

 25 24  0     1  0  0  0  0  0999 V2000
   -2.7826   -3.8464    0.7821 H   0  0  0  0  0  0  0  0  0  0  0  0
   -2.8156   -2.8034    0.4711 C   0  0  0  0  0  0  0  0  0  0  0  0
   -3.4336   -2.2354    1.1641 H   0  0  0  0  0  0  0  0  0  0  0  0
   -3.2256   -2.7344   -0.5349 H   0  0  0  0  0  0  0  0  0  0  0  0
   -1.4126   -2.2444    0.4801 C   0  0  0  0  0  0  0  0  0  0  0  0
   -0.4686   -2.9534    0.8001 O   0  0  0  0  0  0  0  0  0  0  0  0
   -1.2736   -0.9704    0.1241 N   0  0  0  0  0  0  0  0  0  0  0  0
   -2.0996   -0.4354   -0.1019 H   0  0  0  0  0  0  0  0  0  0  0  0
   -0.0016   -0.2394    0.1271 C   0  0  1  0  0  0  0  0  0  0  0  0
    0.6995   -0.7619   -0.5275 H   0  0  0  0  0  0  0  0  0  0  0  0
   -0.2283    1.1832   -0.4215 C   0  0  0  0  0  0  0  0  0  0  0  0
    0.2775    1.9048    0.2211 H   0  0  0  0  0  0  0  0  0  0  0  0
    0.2021    1.2645   -1.4203 H   0  0  0  0  0  0  0  0  0  0  0  0
   -1.6989    1.5862   -0.4742 C   0  0  0  0  0  0  0  0  0  0  0  0
   -2.4531    1.4078   -1.4216 O   0  0  0  0  0  0  0  0  0  0  0  0
   -2.1580    2.1930    0.6362 O   0  0  0  0  0  0  0  0  0  0  0  0
   -3.0853    2.3698    0.4743 H   0  0  0  0  0  0  0  0  0  0  0  0
    0.5920   -0.2154    1.5497 C   0  0  0  0  0  0  0  0  0  0  0  0
    1.7860   -0.4596    1.7183 O   0  0  0  0  0  0  0  0  0  0  0  0
   -0.2294    0.0669    2.5672 N   0  0  0  0  0  0  0  0  0  0  0  0
   -1.2130    0.1938    2.3518 H   0  0  0  0  0  0  0  0  0  0  0  0
    0.1836    0.1337    3.9673 C   0  0  0  0  0  0  0  0  0  0  0  0
    1.0451    0.7976    4.0666 H   0  0  0  0  0  0  0  0  0  0  0  0
   -0.6344    0.5115    4.5820 H   0  0  0  0  0  0  0  0  0  0  0  0
    0.4676   -0.8609    4.3157 H   0  0  0  0  0  0  0  0  0  0  0  0
  5  6  2  0  0  0  0
  5  7  1  0  0  0  0
  2  3  1  0  0  0  0
  2  4  1  0  0  0  0
  2  5  1  0  0  0  0
  1  2  1  0  0  0  0
 18 19  2  0  0  0  0
 18 20  1  0  0  0  0
 16 17  1  0  0  0  0
 14 15  2  0  0  0  0
 14 16  1  0  0  0  0
 11 12  1  0  0  0  0
 11 13  1  0  0  0  0
 11 14  1  0  0  0  0
  9 10  1  0  0  0  0
  9 11  1  0  0  0  0
  9 18  1  0  0  0  0
  7  8  1  0  0  0  0
  7  9  1  0  0  0  0
 22 23  1  0  0  0  0
 22 24  1  0  0  0  0
 22 25  1  0  0  0  0
 20 21  1  0  0  0  0
 20 22  1  0  0  0  0
M  END
$$$$
default_name
  -OEChem-02102213163D

 25 24  0     1  0  0  0  0  0999 V2000
   -2.7826   -3.8464    0.7821 H   0  0  0  0  0  0  0  0  0  0  0  0
   -2.8156   -2.8034    0.4711 C   0  0  0  0  0  0  0  0  0  0  0  0
   -3.4336   -2.2354    1.1641 H   0  0  0  0  0  0  0  0  0  0  0  0
   -3.2256   -2.7344   -0.5349 H   0  0  0  0  0  0  0  0  0  0  0  0
   -1.4126   -2.2444    0.4801 C   0  0  0  0  0  0  0  0  0  0  0  0
   -0.4686   -2.9534    0.8001 O   0  0  0  0  0  0  0  0  0  0  0  0
   -1.2736   -0.9704    0.1241 N   0  0  0  0  0  0  0  0  0  0  0  0
   -2.0996   -0.4354   -0.1019 H   0  0  0  0  0  0  0  0  0  0  0  0
   -0.0016   -0.2394    0.1271 C   0  0  1  0  0  0  0  0  0  0  0  0
    0.6995   -0.7619   -0.5275 H   0  0  0  0  0  0  0  0  0  0  0  0
   -0.2283    1.1832   -0.4215 C   0  0  0  0  0  0  0  0  0  0  0  0
    0.2775    1.9048    0.2211 H   0  0  0  0  0  0  0  0  0  0  0  0
    0.2021    1.2645   -1.4203 H   0  0  0  0  0  0  0  0  0  0  0  0
   -1.6989    1.5862   -0.4742 C   0  0  0  0  0  0  0  0  0  0  0  0
   -2.5171    1.1907   -1.2941 O   0  0  0  0  0  0  0  0  0  0  0  0
   -2.0796    2.4585    0.4777 O   0  0  0  0  0  0  0  0  0  0  0  0
   -3.0158    2.6057    0.3395 H   0  0  0  0  0  0  0  0  0  0  0  0
    0.5920   -0.2154    1.5497 C   0  0  0  0  0  0  0  0  0  0  0  0
    1.7860   -0.4596    1.7183 O   0  0  0  0  0  0  0  0  0  0  0  0
   -0.2294    0.0669    2.5672 N   0  0  0  0  0  0  0  0  0  0  0  0
   -1.2130    0.1938    2.3518 H   0  0  0  0  0  0  0  0  0  0  0  0
    0.1836    0.1337    3.9673 C   0  0  0  0  0  0  0  0  0  0  0  0
    1.0451    0.7976    4.0666 H   0  0  0  0  0  0  0  0  0  0  0  0
   -0.6344    0.5115    4.5820 H   0  0  0  0  0  0  0  0  0  0  0  0
    0.4676   -0.8609    4.3157 H   0  0  0  0  0  0  0  0  0  0  0  0
  5  6  2  0  0  0  0
  5  7  1  0  0  0  0
  2  3  1  0  0  0  0
  2  4  1  0  0  0  0
  2  5  1  0  0  0  0
  1  2  1  0  0  0  0
 18 19  2  0  0  0  0
 18 20  1  0  0  0  0
 16 17  1  0  0  0  0
 14 15  2  0  0  0  0
 14 16  1  0  0  0  0
 11 12  1  0  0  0  0
 11 13  1  0  0  0  0
 11 14  1  0  0  0  0
  9 10  1  0  0  0  0
  9 11  1  0  0  0  0
  9 18  1  0  0  0  0
  7  8  1  0  0  0  0
  7  9  1  0  0  0  0
 22 23  1  0  0  0  0
 22 24  1  0  0  0  0
 22 25  1  0  0  0  0
 20 21  1  0  0  0  0
 20 22  1  0  0  0  0
M  END
$$$$
default_name
  -OEChem-02102213163D

 25 24  0     1  0  0  0  0  0999 V2000
   -2.7826   -3.8464    0.7821 H   0  0  0  0  0  0  0  0  0  0  0  0
   -2.8156   -2.8034    0.4711 C   0  0  0  0  0  0  0  0  0  0  0  0
   -3.4336   -2.2354    1.1641 H   0  0  0  0  0  0  0  0  0  0  0  0
   -3.2256   -2.7344   -0.5349 H   0  0  0  0  0  0  0  0  0  0  0  0
   -1.4126   -2.2444    0.4801 C   0  0  0  0  0  0  0  0  0  0  0  0
   -0.4686   -2.9534    0.8001 O   0  0  0  0  0  0  0  0  0  0  0  0
   -1.2736   -0.9704    0.1241 N   0  0  0  0  0  0  0  0  0  0  0  0
   -2.0996   -0.4354   -0.1019 H   0  0  0  0  0  0  0  0  0  0  0  0
   -0.0016   -0.2394    0.1271 C   0  0  1  0  0  0  0  0  0  0  0  0
    0.6995   -0.7619   -0.5275 H   0  0  0  0  0  0  0  0  0  0  0  0
   -0.2283    1.1832   -0.4215 C   0  0  0  0  0  0  0  0  0  0  0  0
    0.2775    1.9048    0.2211 H   0  0  0  0  0  0  0  0  0  0  0  0
    0.2021    1.2645   -1.4203 H   0  0  0  0  0  0  0  0  0  0  0  0
   -1.6989    1.5862   -0.4742 C   0  0  0  0  0  0  0  0  0  0  0  0
   -2.5723    1.0134   -1.1124 O   0  0  0  0  0  0  0  0  0  0  0  0
   -2.0123    2.6747    0.2530 O   0  0  0  0  0  0  0  0  0  0  0  0
   -2.9558    2.7993    0.1457 H   0  0  0  0  0  0  0  0  0  0  0  0
    0.5920   -0.2154    1.5497 C   0  0  0  0  0  0  0  0  0  0  0  0
    1.7860   -0.4596    1.7183 O   0  0  0  0  0  0  0  0  0  0  0  0
   -0.2294    0.0669    2.5672 N   0  0  0  0  0  0  0  0  0  0  0  0
   -1.2130    0.1938    2.3518 H   0  0  0  0  0  0  0  0  0  0  0  0
    0.1836    0.1337    3.9673 C   0  0  0  0  0  0  0  0  0  0  0  0
    1.0451    0.7976    4.0666 H   0  0  0  0  0  0  0  0  0  0  0  0
   -0.6344    0.5115    4.5820 H   0  0  0  0  0  0  0  0  0  0  0  0
    0.4676   -0.8609    4.3157 H   0  0  0  0  0  0  0  0  0  0  0  0
  5  6  2  0  0  0  0
  5  7  1  0  0  0  0
  2  3  1  0  0  0  0
  2  4  1  0  0  0  0
  2  5  1  0  0  0  0
  1  2  1  0  0  0  0
 18 19  2  0  0  0  0
 18 20  1  0  0  0  0
 16 17  1  0  0  0  0
 14 15  2  0  0  0  0
 14 16  1  0  0  0  0
 11 12  1  0  0  0  0
 11 13  1  0  0  0  0
 11 14  1  0  0  0  0
  9 10  1  0  0  0  0
  9 11  1  0  0  0  0
  9 18  1  0  0  0  0
  7  8  1  0  0  0  0
  7  9  1  0  0  0  0
 22 23  1  0  0  0  0
 22 24  1  0  0  0  0
 22 25  1  0  0  0  0
 20 21  1  0  0  0  0
 20 22  1  0  0  0  0
M  END
$$$$
default_name
  -OEChem-02102213163D

 25 24  0     1  0  0  0  0  0999 V2000
   -2.7826   -3.8464    0.7821 H   0  0  0  0  0  0  0  0  0  0  0  0
   -2.8156   -2.8034    0.4711 C   0  0  0  0  0  0  0  0  0  0  0  0
   -3.4336   -2.2354    1.1641 H   0  0  0  0  0  0  0  0  0  0  0  0
   -3.2256   -2.7344   -0.5349 H   0  0  0  0  0  0  0  0  0  0  0  0
   -1.4126   -2.2444    0.4801 C   0  0  0  0  0  0  0  0  0  0  0  0
   -0.4686   -2.9534    0.8001 O   0  0  0  0  0  0  0  0  0  0  0  0
   -1.2736   -0.9704    0.1241 N   0  0  0  0  0  0  0  0  0  0  0  0
   -2.0996   -0.4354   -0.1019 H   0  0  0  0  0  0  0  0  0  0  0  0
   -0.0016   -0.2394    0.1271 C   0  0  1  0  0  0  0  0  0  0  0  0
    0.6995   -0.7619   -0.5275 H   0  0  0  0  0  0  0  0  0  0  0  0
   -0.2283    1.1832   -0.4215 C   0  0  0  0  0  0  0  0  0  0  0  0
    0.2775    1.9048    0.2211 H   0  0  0  0  0  0  0  0  0  0  0  0
    0.2021    1.2645   -1.4203 H   0  0  0  0  0  0  0  0  0  0  0  0
   -1.6989    1.5862   -0.4742 C   0  0  0  0  0  0  0  0  0  0  0  0
   -2.6147    0.8879   -0.8889 O   0  0  0  0  0  0  0  0  0  0  0  0
   -1.9607    2.8269   -0.0225 O   0  0  0  0  0  0  0  0  0  0  0  0
   -2.9093    2.9375   -0.0939 H   0  0  0  0  0  0  0  0  0  0  0  0
    0.5920   -0.2154    1.5497 C   0  0  0  0  0  0  0  0  0  0  0  0
    1.7860   -0.4596    1.7183 O   0  0  0  0  0  0  0  0  0  0  0  0
   -0.2294    0.0669    2.5672 N   0  0  0  0  0  0  0  0  0  0  0  0
   -1.2130    0.1938    2.3518 H   0  0  0  0  0  0  0  0  0  0  0  0
    0.1836    0.1337    3.9673 C   0  0  0  0  0  0  0  0  0  0  0  0
    1.0451    0.7976    4.0666 H   0  0  0  0  0  0  0  0  0  0  0  0
   -0.6344    0.5115    4.5820 H   0  0  0  0  0  0  0  0  0  0  0  0
    0.4676   -0.8609    4.3157 H   0  0  0  0  0  0  0  0  0  0  0  0
  5  6  2  0  0  0  0
  5  7  1  0  0  0  0
  2  3  1  0  0  0  0
  2  4  1  0  0  0  0
  2  5  1  0  0  0  0
  1  2  1  0  0  0  0
 18 19  2  0  0  0  0
 18 20  1  0  0  0  0
 16 17  1  0  0  0  0
 14 15  2  0  0  0  0
 14 16  1  0  0  0  0
 11 12  1  0  0  0  0
 11 13  1  0  0  0  0
 11 14  1  0  0  0  0
  9 10  1  0  0  0  0
  9 11  1  0  0  0  0
  9 18  1  0  0  0  0
  7  8  1  0  0  0  0
  7  9  1  0  0  0  0
 22 23  1  0  0  0  0
 22 24  1  0  0  0  0
 22 25  1  0  0  0  0
 20 21  1  0  0  0  0
 20 22  1  0  0  0  0
M  END
$$$$
default_name
  -OEChem-02102213163D

 25 24  0     1  0  0  0  0  0999 V2000
   -2.7826   -3.8464    0.7821 H   0  0  0  0  0  0  0  0  0  0  0  0
   -2.8156   -2.8034    0.4711 C   0  0  0  0  0  0  0  0  0  0  0  0
   -3.4336   -2.2354    1.1641 H   0  0  0  0  0  0  0  0  0  0  0  0
   -3.2256   -2.7344   -0.5349 H   0  0  0  0  0  0  0  0  0  0  0  0
   -1.4126   -2.2444    0.4801 C   0  0  0  0  0  0  0  0  0  0  0  0
   -0.4686   -2.9534    0.8001 O   0  0  0  0  0  0  0  0  0  0  0  0
   -1.2736   -0.9704    0.1241 N   0  0  0  0  0  0  0  0  0  0  0  0
   -2.0996   -0.4354   -0.1019 H   0  0  0  0  0  0  0  0  0  0  0  0
   -0.0016   -0.2394    0.1271 C   0  0  1  0  0  0  0  0  0  0  0  0
    0.6995   -0.7619   -0.5275 H   0  0  0  0  0  0  0  0  0  0  0  0
   -0.2283    1.1832   -0.4215 C   0  0  0  0  0  0  0  0  0  0  0  0
    0.2775    1.9048    0.2211 H   0  0  0  0  0  0  0  0  0  0  0  0
    0.2021    1.2645   -1.4203 H   0  0  0  0  0  0  0  0  0  0  0  0
   -1.6989    1.5862   -0.4742 C   0  0  0  0  0  0  0  0  0  0  0  0
   -2.6414    0.8228   -0.6388 O   0  0  0  0  0  0  0  0  0  0  0  0
   -1.9284    2.9048   -0.3302 O   0  0  0  0  0  0  0  0  0  0  0  0
   -2.8796    3.0107   -0.3629 H   0  0  0  0  0  0  0  0  0  0  0  0
    0.5920   -0.2154    1.5497 C   0  0  0  0  0  0  0  0  0  0  0  0
    1.7860   -0.4596    1.7183 O   0  0  0  0  0  0  0  0  0  0  0  0
   -0.2294    0.0669    2.5672 N   0  0  0  0  0  0  0  0  0  0  0  0
   -1.2130    0.1938    2.3518 H   0  0  0  0  0  0  0  0  0  0  0  0
    0.1836    0.1337    3.9673 C   0  0  0  0  0  0  0  0  0  0  0  0
    1.0451    0.7976    4.0666 H   0  0  0  0  0  0  0  0  0  0  0  0
   -0.6344    0.5115    4.5820 H   0  0  0  0  0  0  0  0  0  0  0  0
    0.4676   -0.8609    4.3157 H   0  0  0  0  0  0  0  0  0  0  0  0
  5  6  2  0  0  0  0
  5  7  1  0  0  0  0
  2  3  1  0  0  0  0
  2  4  1  0  0  0  0
  2  5  1  0  0  0  0
  1  2  1  0  0  0  0
 18 19  2  0  0  0  0
 18 20  1  0  0  0  0
 16 17  1  0  0  0  0
 14 15  2  0  0  0  0
 14 16  1  0  0  0  0
 11 12  1  0  0  0  0
 11 13  1  0  0  0  0
 11 14  1  0  0  0  0
  9 10  1  0  0  0  0
  9 11  1  0  0  0  0
  9 18  1  0  0  0  0
  7  8  1  0  0  0  0
  7  9  1  0  0  0  0
 22 23  1  0  0  0  0
 22 24  1  0  0  0  0
 22 25  1  0  0  0  0
 20 21  1  0  0  0  0
 20 22  1  0  0  0  0
M  END
$$$$
default_name
  -OEChem-02102213163D

 25 24  0     1  0  0  0  0  0999 V2000
   -2.7826   -3.8464    0.7821 H   0  0  0  0  0  0  0  0  0  0  0  0
   -2.8156   -2.8034    0.4711 C   0  0  0  0  0  0  0  0  0  0  0  0
   -3.4336   -2.2354    1.1641 H   0  0  0  0  0  0  0  0  0  0  0  0
   -3.2256   -2.7344   -0.5349 H   0  0  0  0  0  0  0  0  0  0  0  0
   -1.4126   -2.2444    0.4801 C   0  0  0  0  0  0  0  0  0  0  0  0
   -0.4686   -2.9534    0.8001 O   0  0  0  0  0  0  0  0  0  0  0  0
   -1.2736   -0.9704    0.1241 N   0  0  0  0  0  0  0  0  0  0  0  0
   -2.0996   -0.4354   -0.1019 H   0  0  0  0  0  0  0  0  0  0  0  0
   -0.0016   -0.2394    0.1271 C   0  0  1  0  0  0  0  0  0  0  0  0
    0.6995   -0.7619   -0.5275 H   0  0  0  0  0  0  0  0  0  0  0  0
   -0.2283    1.1832   -0.4215 C   0  0  0  0  0  0  0  0  0  0  0  0
    0.2775    1.9048    0.2211 H   0  0  0  0  0  0  0  0  0  0  0  0
    0.2021    1.2645   -1.4203 H   0  0  0  0  0  0  0  0  0  0  0  0
   -1.6989    1.5862   -0.4742 C   0  0  0  0  0  0  0  0  0  0  0  0
   -2.6508    0.8226   -0.3791 O   0  0  0  0  0  0  0  0  0  0  0  0
   -1.9174    2.9029   -0.6490 O   0  0  0  0  0  0  0  0  0  0  0  0
   -2.8687    3.0141   -0.6431 H   0  0  0  0  0  0  0  0  0  0  0  0
    0.5920   -0.2154    1.5497 C   0  0  0  0  0  0  0  0  0  0  0  0
    1.7860   -0.4596    1.7183 O   0  0  0  0  0  0  0  0  0  0  0  0
   -0.2294    0.0669    2.5672 N   0  0  0  0  0  0  0  0  0  0  0  0
   -1.2130    0.1938    2.3518 H   0  0  0  0  0  0  0  0  0  0  0  0
    0.1836    0.1337    3.9673 C   0  0  0  0  0  0  0  0  0  0  0  0
    1.0451    0.7976    4.0666 H   0  0  0  0  0  0  0  0  0  0  0  0
   -0.6344    0.5115    4.5820 H   0  0  0  0  0  0  0  0  0  0  0  0
    0.4676   -0.8609    4.3157 H   0  0  0  0  0  0  0  0  0  0  0  0
  5  6  2  0  0  0  0
  5  7  1  0  0  0  0
  2  3  1  0  0  0  0
  2  4  1  0  0  0  0
  2  5  1  0  0  0  0
  1  2  1  0  0  0  0
 18 19  2  0  0  0  0
 18 20  1  0  0  0  0
 16 17  1  0  0  0  0
 14 15  2  0  0  0  0
 14 16  1  0  0  0  0
 11 12  1  0  0  0  0
 11 13  1  0  0  0  0
 11 14  1  0  0  0  0
  9 10  1  0  0  0  0
  9 11  1  0  0  0  0
  9 18  1  0  0  0  0
  7  8  1  0  0  0  0
  7  9  1  0  0  0  0
 22 23  1  0  0  0  0
 22 24  1  0  0  0  0
 22 25  1  0  0  0  0
 20 21  1  0  0  0  0
 20 22  1  0  0  0  0
M  END
$$$$
default_name
  -OEChem-02102213163D

 25 24  0     1  0  0  0  0  0999 V2000
   -2.7826   -3.8464    0.7821 H   0  0  0  0  0  0  0  0  0  0  0  0
   -2.8156   -2.8034    0.4711 C   0  0  0  0  0  0  0  0  0  0  0  0
   -3.4336   -2.2354    1.1641 H   0  0  0  0  0  0  0  0  0  0  0  0
   -3.2256   -2.7344   -0.5349 H   0  0  0  0  0  0  0  0  0  0  0  0
   -1.4126   -2.2444    0.4801 C   0  0  0  0  0  0  0  0  0  0  0  0
   -0.4686   -2.9534    0.8001 O   0  0  0  0  0  0  0  0  0  0  0  0
   -1.2736   -0.9704    0.1241 N   0  0  0  0  0  0  0  0  0  0  0  0
   -2.0996   -0.4354   -0.1019 H   0  0  0  0  0  0  0  0  0  0  0  0
   -0.0016   -0.2394    0.1271 C   0  0  1  0  0  0  0  0  0  0  0  0
    0.6995   -0.7619   -0.5275 H   0  0  0  0  0  0  0  0  0  0  0  0
   -0.2283    1.1832   -0.4215 C   0  0  0  0  0  0  0  0  0  0  0  0
    0.2775    1.9048    0.2211 H   0  0  0  0  0  0  0  0  0  0  0  0
    0.2021    1.2645   -1.4203 H   0  0  0  0  0  0  0  0  0  0  0  0
   -1.6989    1.5862   -0.4742 C   0  0  0  0  0  0  0  0  0  0  0  0
   -2.6421    0.8873   -0.1276 O   0  0  0  0  0  0  0  0  0  0  0  0
   -1.9287    2.8215   -0.9572 O   0  0  0  0  0  0  0  0  0  0  0  0
   -2.8772    2.9473   -0.9154 H   0  0  0  0  0  0  0  0  0  0  0  0
    0.5920   -0.2154    1.5497 C   0  0  0  0  0  0  0  0  0  0  0  0
    1.7860   -0.4596    1.7183 O   0  0  0  0  0  0  0  0  0  0  0  0
   -0.2294    0.0669    2.5672 N   0  0  0  0  0  0  0  0  0  0  0  0
   -1.2130    0.1938    2.3518 H   0  0  0  0  0  0  0  0  0  0  0  0
    0.1836    0.1337    3.9673 C   0  0  0  0  0  0  0  0  0  0  0  0
    1.0451    0.7976    4.0666 H   0  0  0  0  0  0  0  0  0  0  0  0
   -0.6344    0.5115    4.5820 H   0  0  0  0  0  0  0  0  0  0  0  0
    0.4676   -0.8609    4.3157 H   0  0  0  0  0  0  0  0  0  0  0  0
  5  6  2  0  0  0  0
  5  7  1  0  0  0  0
  2  3  1  0  0  0  0
  2  4  1  0  0  0  0
  2  5  1  0  0  0  0
  1  2  1  0  0  0  0
 18 19  2  0  0  0  0
 18 20  1  0  0  0  0
 16 17  1  0  0  0  0
 14 15  2  0  0  0  0
 14 16  1  0  0  0  0
 11 12  1  0  0  0  0
 11 13  1  0  0  0  0
 11 14  1  0  0  0  0
  9 10  1  0  0  0  0
  9 11  1  0  0  0  0
  9 18  1  0  0  0  0
  7  8  1  0  0  0  0
  7  9  1  0  0  0  0
 22 23  1  0  0  0  0
 22 24  1  0  0  0  0
 22 25  1  0  0  0  0
 20 21  1  0  0  0  0
 20 22  1  0  0  0  0
M  END
$$$$
default_name
  -OEChem-02102213163D

 25 24  0     1  0  0  0  0  0999 V2000
   -2.7826   -3.8464    0.7821 H   0  0  0  0  0  0  0  0  0  0  0  0
   -2.8156   -2.8034    0.4711 C   0  0  0  0  0  0  0  0  0  0  0  0
   -3.4336   -2.2354    1.1641 H   0  0  0  0  0  0  0  0  0  0  0  0
   -3.2256   -2.7344   -0.5349 H   0  0  0  0  0  0  0  0  0  0  0  0
   -1.4126   -2.2444    0.4801 C   0  0  0  0  0  0  0  0  0  0  0  0
   -0.4686   -2.9534    0.8001 O   0  0  0  0  0  0  0  0  0  0  0  0
   -1.2736   -0.9704    0.1241 N   0  0  0  0  0  0  0  0  0  0  0  0
   -2.0996   -0.4354   -0.1019 H   0  0  0  0  0  0  0  0  0  0  0  0
   -0.0016   -0.2394    0.1271 C   0  0  1  0  0  0  0  0  0  0  0  0
    0.6995   -0.7619   -0.5275 H   0  0  0  0  0  0  0  0  0  0  0  0
   -0.2283    1.1832   -0.4215 C   0  0  0  0  0  0  0  0  0  0  0  0
    0.2775    1.9048    0.2211 H   0  0  0  0  0  0  0  0  0  0  0  0
    0.2021    1.2645   -1.4203 H   0  0  0  0  0  0  0  0  0  0  0  0
   -1.6989    1.5862   -0.4742 C   0  0  0  0  0  0  0  0  0  0  0  0
   -2.6159    1.0124    0.0986 O   0  0  0  0  0  0  0  0  0  0  0  0
   -1.9614    2.6660   -1.2339 O   0  0  0  0  0  0  0  0  0  0  0  0
   -2.9047    2.8150   -1.1611 H   0  0  0  0  0  0  0  0  0  0  0  0
    0.5920   -0.2154    1.5497 C   0  0  0  0  0  0  0  0  0  0  0  0
    1.7860   -0.4596    1.7183 O   0  0  0  0  0  0  0  0  0  0  0  0
   -0.2294    0.0669    2.5672 N   0  0  0  0  0  0  0  0  0  0  0  0
   -1.2130    0.1938    2.3518 H   0  0  0  0  0  0  0  0  0  0  0  0
    0.1836    0.1337    3.9673 C   0  0  0  0  0  0  0  0  0  0  0  0
    1.0451    0.7976    4.0666 H   0  0  0  0  0  0  0  0  0  0  0  0
   -0.6344    0.5115    4.5820 H   0  0  0  0  0  0  0  0  0  0  0  0
    0.4676   -0.8609    4.3157 H   0  0  0  0  0  0  0  0  0  0  0  0
  5  6  2  0  0  0  0
  5  7  1  0  0  0  0
  2  3  1  0  0  0  0
  2  4  1  0  0  0  0
  2  5  1  0  0  0  0
  1  2  1  0  0  0  0
 18 19  2  0  0  0  0
 18 20  1  0  0  0  0
 16 17  1  0  0  0  0
 14 15  2  0  0  0  0
 14 16  1  0  0  0  0
 11 12  1  0  0  0  0
 11 13  1  0  0  0  0
 11 14  1  0  0  0  0
  9 10  1  0  0  0  0
  9 11  1  0  0  0  0
  9 18  1  0  0  0  0
  7  8  1  0  0  0  0
  7  9  1  0  0  0  0
 22 23  1  0  0  0  0
 22 24  1  0  0  0  0
 22 25  1  0  0  0  0
 20 21  1  0  0  0  0
 20 22  1  0  0  0  0
M  END
$$$$
default_name
  -OEChem-02102213163D

 25 24  0     1  0  0  0  0  0999 V2000
   -2.7826   -3.8464    0.7821 H   0  0  0  0  0  0  0  0  0  0  0  0
   -2.8156   -2.8034    0.4711 C   0  0  0  0  0  0  0  0  0  0  0  0
   -3.4336   -2.2354    1.1641 H   0  0  0  0  0  0  0  0  0  0  0  0
   -3.2256   -2.7344   -0.5349 H   0  0  0  0  0  0  0  0  0  0  0  0
   -1.4126   -2.2444    0.4801 C   0  0  0  0  0  0  0  0  0  0  0  0
   -0.4686   -2.9534    0.8001 O   0  0  0  0  0  0  0  0  0  0  0  0
   -1.2736   -0.9704    0.1241 N   0  0  0  0  0  0  0  0  0  0  0  0
   -2.0996   -0.4354   -0.1019 H   0  0  0  0  0  0  0  0  0  0  0  0
   -0.0016   -0.2394    0.1271 C   0  0  1  0  0  0  0  0  0  0  0  0
    0.6995   -0.7619   -0.5275 H   0  0  0  0  0  0  0  0  0  0  0  0
   -0.2283    1.1832   -0.4215 C   0  0  0  0  0  0  0  0  0  0  0  0
    0.2775    1.9048    0.2211 H   0  0  0  0  0  0  0  0  0  0  0  0
    0.2021    1.2645   -1.4203 H   0  0  0  0  0  0  0  0  0  0  0  0
   -1.6989    1.5862   -0.4742 C   0  0  0  0  0  0  0  0  0  0  0  0
   -2.5740    1.1895    0.2841 O   0  0  0  0  0  0  0  0  0  0  0  0
   -2.0133    2.4471   -1.4601 O   0  0  0  0  0  0  0  0  0  0  0  0
   -2.9492    2.6262   -1.3636 H   0  0  0  0  0  0  0  0  0  0  0  0
    0.5920   -0.2154    1.5497 C   0  0  0  0  0  0  0  0  0  0  0  0
    1.7860   -0.4596    1.7183 O   0  0  0  0  0  0  0  0  0  0  0  0
   -0.2294    0.0669    2.5672 N   0  0  0  0  0  0  0  0  0  0  0  0
   -1.2130    0.1938    2.3518 H   0  0  0  0  0  0  0  0  0  0  0  0
    0.1836    0.1337    3.9673 C   0  0  0  0  0  0  0  0  0  0  0  0
    1.0451    0.7976    4.0666 H   0  0  0  0  0  0  0  0  0  0  0  0
   -0.6344    0.5115    4.5820 H   0  0  0  0  0  0  0  0  0  0  0  0
    0.4676   -0.8609    4.3157 H   0  0  0  0  0  0  0  0  0  0  0  0
  5  6  2  0  0  0  0
  5  7  1  0  0  0  0
  2  3  1  0  0  0  0
  2  4  1  0  0  0  0
  2  5  1  0  0  0  0
  1  2  1  0  0  0  0
 18 19  2  0  0  0  0
 18 20  1  0  0  0  0
 16 17  1  0  0  0  0
 14 15  2  0  0  0  0
 14 16  1  0  0  0  0
 11 12  1  0  0  0  0
 11 13  1  0  0  0  0
 11 14  1  0  0  0  0
  9 10  1  0  0  0  0
  9 11  1  0  0  0  0
  9 18  1  0  0  0  0
  7  8  1  0  0  0  0
  7  9  1  0  0  0  0
 22 23  1  0  0  0  0
 22 24  1  0  0  0  0
 22 25  1  0  0  0  0
 20 21  1  0  0  0  0
 20 22  1  0  0  0  0
M  END
$$$$
default_name
  -OEChem-02102213163D

 25 24  0     1  0  0  0  0  0999 V2000
   -2.7826   -3.8464    0.7821 H   0  0  0  0  0  0  0  0  0  0  0  0
   -2.8156   -2.8034    0.4711 C   0  0  0  0  0  0  0  0  0  0  0  0
   -3.4336   -2.2354    1.1641 H   0  0  0  0  0  0  0  0  0  0  0  0
   -3.2256   -2.7344   -0.5349 H   0  0  0  0  0  0  0  0  0  0  0  0
   -1.4126   -2.2444    0.4801 C   0  0  0  0  0  0  0  0  0  0  0  0
   -0.4686   -2.9534    0.8001 O   0  0  0  0  0  0  0  0  0  0  0  0
   -1.2736   -0.9704    0.1241 N   0  0  0  0  0  0  0  0  0  0  0  0
   -2.0996   -0.4354   -0.1019 H   0  0  0  0  0  0  0  0  0  0  0  0
   -0.0016   -0.2394    0.1271 C   0  0  1  0  0  0  0  0  0  0  0  0
    0.6995   -0.7619   -0.5275 H   0  0  0  0  0  0  0  0  0  0  0  0
   -0.2283    1.1832   -0.4215 C   0  0  0  0  0  0  0  0  0  0  0  0
    0.2775    1.9048    0.2211 H   0  0  0  0  0  0  0  0  0  0  0  0
    0.2021    1.2645   -1.4203 H   0  0  0  0  0  0  0  0  0  0  0  0
   -1.6989    1.5862   -0.4742 C   0  0  0  0  0  0  0  0  0  0  0  0
   -2.5193    1.4064    0.4162 O   0  0  0  0  0  0  0  0  0  0  0  0
   -2.0809    2.1797   -1.6204 O   0  0  0  0  0  0  0  0  0  0  0  0
   -3.0077    2.3936   -1.5090 H   0  0  0  0  0  0  0  0  0  0  0  0
    0.5920   -0.2154    1.5497 C   0  0  0  0  0  0  0  0  0  0  0  0
    1.7860   -0.4596    1.7183 O   0  0  0  0  0  0  0  0  0  0  0  0
   -0.2294    0.0669    2.5672 N   0  0  0  0  0  0  0  0  0  0  0  0
   -1.2130    0.1938    2.3518 H   0  0  0  0  0  0  0  0  0  0  0  0
    0.1836    0.1337    3.9673 C   0  0  0  0  0  0  0  0  0  0  0  0
    1.0451    0.7976    4.0666 H   0  0  0  0  0  0  0  0  0  0  0  0
   -0.6344    0.5115    4.5820 H   0  0  0  0  0  0  0  0  0  0  0  0
    0.4676   -0.8609    4.3157 H   0  0  0  0  0  0  0  0  0  0  0  0
  5  6  2  0  0  0  0
  5  7  1  0  0  0  0
  2  3  1  0  0  0  0
  2  4  1  0  0  0  0
  2  5  1  0  0  0  0
  1  2  1  0  0  0  0
 18 19  2  0  0  0  0
 18 20  1  0  0  0  0
 16 17  1  0  0  0  0
 14 15  2  0  0  0  0
 14 16  1  0  0  0  0
 11 12  1  0  0  0  0
 11 13  1  0  0  0  0
 11 14  1  0  0  0  0
  9 10  1  0  0  0  0
  9 11  1  0  0  0  0
  9 18  1  0  0  0  0
  7  8  1  0  0  0  0
  7  9  1  0  0  0  0
 22 23  1  0  0  0  0
 22 24  1  0  0  0  0
 22 25  1  0  0  0  0
 20 21  1  0  0  0  0
 20 22  1  0  0  0  0
M  END
$$$$
default_name
  -OEChem-02102213163D

 25 24  0     1  0  0  0  0  0999 V2000
   -2.7826   -3.8464    0.7821 H   0  0  0  0  0  0  0  0  0  0  0  0
   -2.8156   -2.8034    0.4711 C   0  0  0  0  0  0  0  0  0  0  0  0
   -3.4336   -2.2354    1.1641 H   0  0  0  0  0  0  0  0  0  0  0  0
   -3.2256   -2.7344   -0.5349 H   0  0  0  0  0  0  0  0  0  0  0  0
   -1.4126   -2.2444    0.4801 C   0  0  0  0  0  0  0  0  0  0  0  0
   -0.4686   -2.9534    0.8001 O   0  0  0  0  0  0  0  0  0  0  0  0
   -1.2736   -0.9704    0.1241 N   0  0  0  0  0  0  0  0  0  0  0  0
   -2.0996   -0.4354   -0.1019 H   0  0  0  0  0  0  0  0  0  0  0  0
   -0.0016   -0.2394    0.1271 C   0  0  1  0  0  0  0  0  0  0  0  0
    0.6995   -0.7619   -0.5275 H   0  0  0  0  0  0  0  0  0  0  0  0
   -0.2283    1.1832   -0.4215 C   0  0  0  0  0  0  0  0  0  0  0  0
    0.2775    1.9048    0.2211 H   0  0  0  0  0  0  0  0  0  0  0  0
    0.2021    1.2645   -1.4203 H   0  0  0  0  0  0  0  0  0  0  0  0
   -1.6989    1.5862   -0.4742 C   0  0  0  0  0  0  0  0  0  0  0  0
   -2.4555    1.6484    0.4860 O   0  0  0  0  0  0  0  0  0  0  0  0
   -2.1594    1.8821   -1.7040 O   0  0  0  0  0  0  0  0  0  0  0  0
   -3.0763    2.1333   -1.5874 H   0  0  0  0  0  0  0  0  0  0  0  0
    0.5920   -0.2154    1.5497 C   0  0  0  0  0  0  0  0  0  0  0  0
    1.7860   -0.4596    1.7183 O   0  0  0  0  0  0  0  0  0  0  0  0
   -0.2294    0.0669    2.5672 N   0  0  0  0  0  0  0  0  0  0  0  0
   -1.2130    0.1938    2.3518 H   0  0  0  0  0  0  0  0  0  0  0  0
    0.1836    0.1337    3.9673 C   0  0  0  0  0  0  0  0  0  0  0  0
    1.0451    0.7976    4.0666 H   0  0  0  0  0  0  0  0  0  0  0  0
   -0.6344    0.5115    4.5820 H   0  0  0  0  0  0  0  0  0  0  0  0
    0.4676   -0.8609    4.3157 H   0  0  0  0  0  0  0  0  0  0  0  0
  5  6  2  0  0  0  0
  5  7  1  0  0  0  0
  2  3  1  0  0  0  0
  2  4  1  0  0  0  0
  2  5  1  0  0  0  0
  1  2  1  0  0  0  0
 18 19  2  0  0  0  0
 18 20  1  0  0  0  0
 16 17  1  0  0  0  0
 14 15  2  0  0  0  0
 14 16  1  0  0  0  0
 11 12  1  0  0  0  0
 11 13  1  0  0  0  0
 11 14  1  0  0  0  0
  9 10  1  0  0  0  0
  9 11  1  0  0  0  0
  9 18  1  0  0  0  0
  7  8  1  0  0  0  0
  7  9  1  0  0  0  0
 22 23  1  0  0  0  0
 22 24  1  0  0  0  0
 22 25  1  0  0  0  0
 20 21  1  0  0  0  0
 20 22  1  0  0  0  0
M  END
$$$$
default_name
  -OEChem-02102213163D

 25 24  0     1  0  0  0  0  0999 V2000
   -2.7826   -3.8464    0.7821 H   0  0  0  0  0  0  0  0  0  0  0  0
   -2.8156   -2.8034    0.4711 C   0  0  0  0  0  0  0  0  0  0  0  0
   -3.4336   -2.2354    1.1641 H   0  0  0  0  0  0  0  0  0  0  0  0
   -3.2256   -2.7344   -0.5349 H   0  0  0  0  0  0  0  0  0  0  0  0
   -1.4126   -2.2444    0.4801 C   0  0  0  0  0  0  0  0  0  0  0  0
   -0.4686   -2.9534    0.8001 O   0  0  0  0  0  0  0  0  0  0  0  0
   -1.2736   -0.9704    0.1241 N   0  0  0  0  0  0  0  0  0  0  0  0
   -2.0996   -0.4354   -0.1019 H   0  0  0  0  0  0  0  0  0  0  0  0
   -0.0016   -0.2394    0.1271 C   0  0  1  0  0  0  0  0  0  0  0  0
    0.6995   -0.7619   -0.5275 H   0  0  0  0  0  0  0  0  0  0  0  0
   -0.2283    1.1832   -0.4215 C   0  0  0  0  0  0  0  0  0  0  0  0
    0.2775    1.9048    0.2211 H   0  0  0  0  0  0  0  0  0  0  0  0
    0.2021    1.2645   -1.4203 H   0  0  0  0  0  0  0  0  0  0  0  0
   -1.6989    1.5862   -0.4742 C   0  0  0  0  0  0  0  0  0  0  0  0
   -2.3869    1.8990    0.4887 O   0  0  0  0  0  0  0  0  0  0  0  0
   -2.2437    1.5744   -1.7050 O   0  0  0  0  0  0  0  0  0  0  0  0
   -3.1502    1.8628   -1.5936 H   0  0  0  0  0  0  0  0  0  0  0  0
    0.5920   -0.2154    1.5497 C   0  0  0  0  0  0  0  0  0  0  0  0
    1.7860   -0.4596    1.7183 O   0  0  0  0  0  0  0  0  0  0  0  0
   -0.2294    0.0669    2.5672 N   0  0  0  0  0  0  0  0  0  0  0  0
   -1.2130    0.1938    2.3518 H   0  0  0  0  0  0  0  0  0  0  0  0
    0.1836    0.1337    3.9673 C   0  0  0  0  0  0  0  0  0  0  0  0
    1.0451    0.7976    4.0666 H   0  0  0  0  0  0  0  0  0  0  0  0
   -0.6344    0.5115    4.5820 H   0  0  0  0  0  0  0  0  0  0  0  0
    0.4676   -0.8609    4.3157 H   0  0  0  0  0  0  0  0  0  0  0  0
  5  6  2  0  0  0  0
  5  7  1  0  0  0  0
  2  3  1  0  0  0  0
  2  4  1  0  0  0  0
  2  5  1  0  0  0  0
  1  2  1  0  0  0  0
 18 19  2  0  0  0  0
 18 20  1  0  0  0  0
 16 17  1  0  0  0  0
 14 15  2  0  0  0  0
 14 16  1  0  0  0  0
 11 12  1  0  0  0  0
 11 13  1  0  0  0  0
 11 14  1  0  0  0  0
  9 10  1  0  0  0  0
  9 11  1  0  0  0  0
  9 18  1  0  0  0  0
  7  8  1  0  0  0  0
  7  9  1  0  0  0  0
 22 23  1  0  0  0  0
 22 24  1  0  0  0  0
 22 25  1  0  0  0  0
 20 21  1  0  0  0  0
 20 22  1  0  0  0  0
M  END
$$$$
default_name
  -OEChem-02102213163D

 25 24  0     1  0  0  0  0  0999 V2000
   -2.7826   -3.8464    0.7821 H   0  0  0  0  0  0  0  0  0  0  0  0
   -2.8156   -2.8034    0.4711 C   0  0  0  0  0  0  0  0  0  0  0  0
   -3.4336   -2.2354    1.1641 H   0  0  0  0  0  0  0  0  0  0  0  0
   -3.2256   -2.7344   -0.5349 H   0  0  0  0  0  0  0  0  0  0  0  0
   -1.4126   -2.2444    0.4801 C   0  0  0  0  0  0  0  0  0  0  0  0
   -0.4686   -2.9534    0.8001 O   0  0  0  0  0  0  0  0  0  0  0  0
   -1.2736   -0.9704    0.1241 N   0  0  0  0  0  0  0  0  0  0  0  0
   -2.0996   -0.4354   -0.1019 H   0  0  0  0  0  0  0  0  0  0  0  0
   -0.0016   -0.2394    0.1271 C   0  0  1  0  0  0  0  0  0  0  0  0
    0.6995   -0.7619   -0.5275 H   0  0  0  0  0  0  0  0  0  0  0  0
   -0.2283    1.1832   -0.4215 C   0  0  0  0  0  0  0  0  0  0  0  0
    0.2775    1.9048    0.2211 H   0  0  0  0  0  0  0  0  0  0  0  0
    0.2021    1.2645   -1.4203 H   0  0  0  0  0  0  0  0  0  0  0  0
   -1.6989    1.5862   -0.4742 C   0  0  0  0  0  0  0  0  0  0  0  0
   -2.3182    2.1411    0.4240 O   0  0  0  0  0  0  0  0  0  0  0  0
   -2.3280    1.2777   -1.6235 O   0  0  0  0  0  0  0  0  0  0  0  0
   -3.2244    1.6007   -1.5270 H   0  0  0  0  0  0  0  0  0  0  0  0
    0.5920   -0.2154    1.5497 C   0  0  0  0  0  0  0  0  0  0  0  0
    1.7860   -0.4596    1.7183 O   0  0  0  0  0  0  0  0  0  0  0  0
   -0.2294    0.0669    2.5672 N   0  0  0  0  0  0  0  0  0  0  0  0
   -1.2130    0.1938    2.3518 H   0  0  0  0  0  0  0  0  0  0  0  0
    0.1836    0.1337    3.9673 C   0  0  0  0  0  0  0  0  0  0  0  0
    1.0451    0.7976    4.0666 H   0  0  0  0  0  0  0  0  0  0  0  0
   -0.6344    0.5115    4.5820 H   0  0  0  0  0  0  0  0  0  0  0  0
    0.4676   -0.8609    4.3157 H   0  0  0  0  0  0  0  0  0  0  0  0
  5  6  2  0  0  0  0
  5  7  1  0  0  0  0
  2  3  1  0  0  0  0
  2  4  1  0  0  0  0
  2  5  1  0  0  0  0
  1  2  1  0  0  0  0
 18 19  2  0  0  0  0
 18 20  1  0  0  0  0
 16 17  1  0  0  0  0
 14 15  2  0  0  0  0
 14 16  1  0  0  0  0
 11 12  1  0  0  0  0
 11 13  1  0  0  0  0
 11 14  1  0  0  0  0
  9 10  1  0  0  0  0
  9 11  1  0  0  0  0
  9 18  1  0  0  0  0
  7  8  1  0  0  0  0
  7  9  1  0  0  0  0
 22 23  1  0  0  0  0
 22 24  1  0  0  0  0
 22 25  1  0  0  0  0
 20 21  1  0  0  0  0
 20 22  1  0  0  0  0
M  END
$$$$
default_name
  -OEChem-02102213163D

 25 24  0     1  0  0  0  0  0999 V2000
   -2.7826   -3.8464    0.7821 H   0  0  0  0  0  0  0  0  0  0  0  0
   -2.8156   -2.8034    0.4711 C   0  0  0  0  0  0  0  0  0  0  0  0
   -3.4336   -2.2354    1.1641 H   0  0  0  0  0  0  0  0  0  0  0  0
   -3.2256   -2.7344   -0.5349 H   0  0  0  0  0  0  0  0  0  0  0  0
   -1.4126   -2.2444    0.4801 C   0  0  0  0  0  0  0  0  0  0  0  0
   -0.4686   -2.9534    0.8001 O   0  0  0  0  0  0  0  0  0  0  0  0
   -1.2736   -0.9704    0.1241 N   0  0  0  0  0  0  0  0  0  0  0  0
   -2.0996   -0.4354   -0.1019 H   0  0  0  0  0  0  0  0  0  0  0  0
   -0.0016   -0.2394    0.1271 C   0  0  1  0  0  0  0  0  0  0  0  0
    0.6995   -0.7619   -0.5275 H   0  0  0  0  0  0  0  0  0  0  0  0
   -0.2283    1.1832   -0.4215 C   0  0  0  0  0  0  0  0  0  0  0  0
    0.2775    1.9048    0.2211 H   0  0  0  0  0  0  0  0  0  0  0  0
    0.2021    1.2645   -1.4203 H   0  0  0  0  0  0  0  0  0  0  0  0
   -1.6989    1.5862   -0.4742 C   0  0  0  0  0  0  0  0  0  0  0  0
   -2.2542    2.3582    0.2965 O   0  0  0  0  0  0  0  0  0  0  0  0
   -2.4064    1.0122   -1.4651 O   0  0  0  0  0  0  0  0  0  0  0  0
   -3.2939    1.3648   -1.3922 H   0  0  0  0  0  0  0  0  0  0  0  0
    0.5920   -0.2154    1.5497 C   0  0  0  0  0  0  0  0  0  0  0  0
    1.7860   -0.4596    1.7183 O   0  0  0  0  0  0  0  0  0  0  0  0
   -0.2294    0.0669    2.5672 N   0  0  0  0  0  0  0  0  0  0  0  0
   -1.2130    0.1938    2.3518 H   0  0  0  0  0  0  0  0  0  0  0  0
    0.1836    0.1337    3.9673 C   0  0  0  0  0  0  0  0  0  0  0  0
    1.0451    0.7976    4.0666 H   0  0  0  0  0  0  0  0  0  0  0  0
   -0.6344    0.5115    4.5820 H   0  0  0  0  0  0  0  0  0  0  0  0
    0.4676   -0.8609    4.3157 H   0  0  0  0  0  0  0  0  0  0  0  0
  5  6  2  0  0  0  0
  5  7  1  0  0  0  0
  2  3  1  0  0  0  0
  2  4  1  0  0  0  0
  2  5  1  0  0  0  0
  1  2  1  0  0  0  0
 18 19  2  0  0  0  0
 18 20  1  0  0  0  0
 16 17  1  0  0  0  0
 14 15  2  0  0  0  0
 14 16  1  0  0  0  0
 11 12  1  0  0  0  0
 11 13  1  0  0  0  0
 11 14  1  0  0  0  0
  9 10  1  0  0  0  0
  9 11  1  0  0  0  0
  9 18  1  0  0  0  0
  7  8  1  0  0  0  0
  7  9  1  0  0  0  0
 22 23  1  0  0  0  0
 22 24  1  0  0  0  0
 22 25  1  0  0  0  0
 20 21  1  0  0  0  0
 20 22  1  0  0  0  0
M  END
$$$$
default_name
  -OEChem-02102213163D

 25 24  0     1  0  0  0  0  0999 V2000
   -2.7826   -3.8464    0.7821 H   0  0  0  0  0  0  0  0  0  0  0  0
   -2.8156   -2.8034    0.4711 C   0  0  0  0  0  0  0  0  0  0  0  0
   -3.4336   -2.2354    1.1641 H   0  0  0  0  0  0  0  0  0  0  0  0
   -3.2256   -2.7344   -0.5349 H   0  0  0  0  0  0  0  0  0  0  0  0
   -1.4126   -2.2444    0.4801 C   0  0  0  0  0  0  0  0  0  0  0  0
   -0.4686   -2.9534    0.8001 O   0  0  0  0  0  0  0  0  0  0  0  0
   -1.2736   -0.9704    0.1241 N   0  0  0  0  0  0  0  0  0  0  0  0
   -2.0996   -0.4354   -0.1019 H   0  0  0  0  0  0  0  0  0  0  0  0
   -0.0016   -0.2394    0.1271 C   0  0  1  0  0  0  0  0  0  0  0  0
    0.6995   -0.7619   -0.5275 H   0  0  0  0  0  0  0  0  0  0  0  0
   -0.2283    1.1832   -0.4215 C   0  0  0  0  0  0  0  0  0  0  0  0
    0.2775    1.9048    0.2211 H   0  0  0  0  0  0  0  0  0  0  0  0
    0.2021    1.2645   -1.4203 H   0  0  0  0  0  0  0  0  0  0  0  0
   -1.6989    1.5862   -0.4742 C   0  0  0  0  0  0  0  0  0  0  0  0
   -2.1990    2.5355    0.1148 O   0  0  0  0  0  0  0  0  0  0  0  0
   -2.4737    0.7960   -1.2404 O   0  0  0  0  0  0  0  0  0  0  0  0
   -3.3539    1.1712   -1.1984 H   0  0  0  0  0  0  0  0  0  0  0  0
    0.5920   -0.2154    1.5497 C   0  0  0  0  0  0  0  0  0  0  0  0
    1.7860   -0.4596    1.7183 O   0  0  0  0  0  0  0  0  0  0  0  0
   -0.2294    0.0669    2.5672 N   0  0  0  0  0  0  0  0  0  0  0  0
   -1.2130    0.1938    2.3518 H   0  0  0  0  0  0  0  0  0  0  0  0
    0.1836    0.1337    3.9673 C   0  0  0  0  0  0  0  0  0  0  0  0
    1.0451    0.7976    4.0666 H   0  0  0  0  0  0  0  0  0  0  0  0
   -0.6344    0.5115    4.5820 H   0  0  0  0  0  0  0  0  0  0  0  0
    0.4676   -0.8609    4.3157 H   0  0  0  0  0  0  0  0  0  0  0  0
  5  6  2  0  0  0  0
  5  7  1  0  0  0  0
  2  3  1  0  0  0  0
  2  4  1  0  0  0  0
  2  5  1  0  0  0  0
  1  2  1  0  0  0  0
 18 19  2  0  0  0  0
 18 20  1  0  0  0  0
 16 17  1  0  0  0  0
 14 15  2  0  0  0  0
 14 16  1  0  0  0  0
 11 12  1  0  0  0  0
 11 13  1  0  0  0  0
 11 14  1  0  0  0  0
  9 10  1  0  0  0  0
  9 11  1  0  0  0  0
  9 18  1  0  0  0  0
  7  8  1  0  0  0  0
  7  9  1  0  0  0  0
 22 23  1  0  0  0  0
 22 24  1  0  0  0  0
 22 25  1  0  0  0  0
 20 21  1  0  0  0  0
 20 22  1  0  0  0  0
M  END
$$$$
default_name
  -OEChem-02102213163D

 25 24  0     1  0  0  0  0  0999 V2000
   -2.7826   -3.8464    0.7821 H   0  0  0  0  0  0  0  0  0  0  0  0
   -2.8156   -2.8034    0.4711 C   0  0  0  0  0  0  0  0  0  0  0  0
   -3.4336   -2.2354    1.1641 H   0  0  0  0  0  0  0  0  0  0  0  0
   -3.2256   -2.7344   -0.5349 H   0  0  0  0  0  0  0  0  0  0  0  0
   -1.4126   -2.2444    0.4801 C   0  0  0  0  0  0  0  0  0  0  0  0
   -0.4686   -2.9534    0.8001 O   0  0  0  0  0  0  0  0  0  0  0  0
   -1.2736   -0.9704    0.1241 N   0  0  0  0  0  0  0  0  0  0  0  0
   -2.0996   -0.4354   -0.1019 H   0  0  0  0  0  0  0  0  0  0  0  0
   -0.0016   -0.2394    0.1271 C   0  0  1  0  0  0  0  0  0  0  0  0
    0.6995   -0.7619   -0.5275 H   0  0  0  0  0  0  0  0  0  0  0  0
   -0.2283    1.1832   -0.4215 C   0  0  0  0  0  0  0  0  0  0  0  0
    0.2775    1.9048    0.2211 H   0  0  0  0  0  0  0  0  0  0  0  0
    0.2021    1.2645   -1.4203 H   0  0  0  0  0  0  0  0  0  0  0  0
   -1.6989    1.5862   -0.4742 C   0  0  0  0  0  0  0  0  0  0  0  0
   -2.1566    2.6610   -0.1087 O   0  0  0  0  0  0  0  0  0  0  0  0
   -2.5253    0.6438   -0.9648 O   0  0  0  0  0  0  0  0  0  0  0  0
   -3.4003    1.0330   -0.9588 H   0  0  0  0  0  0  0  0  0  0  0  0
    0.5920   -0.2154    1.5497 C   0  0  0  0  0  0  0  0  0  0  0  0
    1.7860   -0.4596    1.7183 O   0  0  0  0  0  0  0  0  0  0  0  0
   -0.2294    0.0669    2.5672 N   0  0  0  0  0  0  0  0  0  0  0  0
   -1.2130    0.1938    2.3518 H   0  0  0  0  0  0  0  0  0  0  0  0
    0.1836    0.1337    3.9673 C   0  0  0  0  0  0  0  0  0  0  0  0
    1.0451    0.7976    4.0666 H   0  0  0  0  0  0  0  0  0  0  0  0
   -0.6344    0.5115    4.5820 H   0  0  0  0  0  0  0  0  0  0  0  0
    0.4676   -0.8609    4.3157 H   0  0  0  0  0  0  0  0  0  0  0  0
  5  6  2  0  0  0  0
  5  7  1  0  0  0  0
  2  3  1  0  0  0  0
  2  4  1  0  0  0  0
  2  5  1  0  0  0  0
  1  2  1  0  0  0  0
 18 19  2  0  0  0  0
 18 20  1  0  0  0  0
 16 17  1  0  0  0  0
 14 15  2  0  0  0  0
 14 16  1  0  0  0  0
 11 12  1  0  0  0  0
 11 13  1  0  0  0  0
 11 14  1  0  0  0  0
  9 10  1  0  0  0  0
  9 11  1  0  0  0  0
  9 18  1  0  0  0  0
  7  8  1  0  0  0  0
  7  9  1  0  0  0  0
 22 23  1  0  0  0  0
 22 24  1  0  0  0  0
 22 25  1  0  0  0  0
 20 21  1  0  0  0  0
 20 22  1  0  0  0  0
M  END
$$$$
default_name
  -OEChem-02102213163D

 25 24  0     1  0  0  0  0  0999 V2000
   -2.7826   -3.8464    0.7821 H   0  0  0  0  0  0  0  0  0  0  0  0
   -2.8156   -2.8034    0.4711 C   0  0  0  0  0  0  0  0  0  0  0  0
   -3.4336   -2.2354    1.1641 H   0  0  0  0  0  0  0  0  0  0  0  0
   -3.2256   -2.7344   -0.5349 H   0  0  0  0  0  0  0  0  0  0  0  0
   -1.4126   -2.2444    0.4801 C   0  0  0  0  0  0  0  0  0  0  0  0
   -0.4686   -2.9534    0.8001 O   0  0  0  0  0  0  0  0  0  0  0  0
   -1.2736   -0.9704    0.1241 N   0  0  0  0  0  0  0  0  0  0  0  0
   -2.0996   -0.4354   -0.1019 H   0  0  0  0  0  0  0  0  0  0  0  0
   -0.0016   -0.2394    0.1271 C   0  0  1  0  0  0  0  0  0  0  0  0
    0.6995   -0.7619   -0.5275 H   0  0  0  0  0  0  0  0  0  0  0  0
   -0.2283    1.1832   -0.4215 C   0  0  0  0  0  0  0  0  0  0  0  0
    0.2775    1.9048    0.2211 H   0  0  0  0  0  0  0  0  0  0  0  0
    0.2021    1.2645   -1.4203 H   0  0  0  0  0  0  0  0  0  0  0  0
   -1.6989    1.5862   -0.4742 C   0  0  0  0  0  0  0  0  0  0  0  0
   -2.1299    2.7260   -0.3588 O   0  0  0  0  0  0  0  0  0  0  0  0
   -2.5576    0.5659   -0.6572 O   0  0  0  0  0  0  0  0  0  0  0  0
   -3.4300    0.9598   -0.6897 H   0  0  0  0  0  0  0  0  0  0  0  0
    0.5920   -0.2154    1.5497 C   0  0  0  0  0  0  0  0  0  0  0  0
    1.7860   -0.4596    1.7183 O   0  0  0  0  0  0  0  0  0  0  0  0
   -0.2294    0.0669    2.5672 N   0  0  0  0  0  0  0  0  0  0  0  0
   -1.2130    0.1938    2.3518 H   0  0  0  0  0  0  0  0  0  0  0  0
    0.1836    0.1337    3.9673 C   0  0  0  0  0  0  0  0  0  0  0  0
    1.0451    0.7976    4.0666 H   0  0  0  0  0  0  0  0  0  0  0  0
   -0.6344    0.5115    4.5820 H   0  0  0  0  0  0  0  0  0  0  0  0
    0.4676   -0.8609    4.3157 H   0  0  0  0  0  0  0  0  0  0  0  0
  5  6  2  0  0  0  0
  5  7  1  0  0  0  0
  2  3  1  0  0  0  0
  2  4  1  0  0  0  0
  2  5  1  0  0  0  0
  1  2  1  0  0  0  0
 18 19  2  0  0  0  0
 18 20  1  0  0  0  0
 16 17  1  0  0  0  0
 14 15  2  0  0  0  0
 14 16  1  0  0  0  0
 11 12  1  0  0  0  0
 11 13  1  0  0  0  0
 11 14  1  0  0  0  0
  9 10  1  0  0  0  0
  9 11  1  0  0  0  0
  9 18  1  0  0  0  0
  7  8  1  0  0  0  0
  7  9  1  0  0  0  0
 22 23  1  0  0  0  0
 22 24  1  0  0  0  0
 22 25  1  0  0  0  0
 20 21  1  0  0  0  0
 20 22  1  0  0  0  0
M  END
$$$$
default_name
  -OEChem-02102213163D

 25 24  0     1  0  0  0  0  0999 V2000
   -2.7826   -3.8464    0.7821 H   0  0  0  0  0  0  0  0  0  0  0  0
   -2.8156   -2.8034    0.4711 C   0  0  0  0  0  0  0  0  0  0  0  0
   -3.4336   -2.2354    1.1641 H   0  0  0  0  0  0  0  0  0  0  0  0
   -3.2256   -2.7344   -0.5349 H   0  0  0  0  0  0  0  0  0  0  0  0
   -1.4126   -2.2444    0.4801 C   0  0  0  0  0  0  0  0  0  0  0  0
   -0.4686   -2.9534    0.8001 O   0  0  0  0  0  0  0  0  0  0  0  0
   -1.2736   -0.9704    0.1241 N   0  0  0  0  0  0  0  0  0  0  0  0
   -2.0996   -0.4354   -0.1019 H   0  0  0  0  0  0  0  0  0  0  0  0
   -0.0016   -0.2394    0.1271 C   0  0  1  0  0  0  0  0  0  0  0  0
    0.6995   -0.7619   -0.5275 H   0  0  0  0  0  0  0  0  0  0  0  0
   -0.2283    1.1832   -0.4215 C   0  0  0  0  0  0  0  0  0  0  0  0
    0.2775    1.9048    0.2211 H   0  0  0  0  0  0  0  0  0  0  0  0
    0.2021    1.2645   -1.4203 H   0  0  0  0  0  0  0  0  0  0  0  0
   -1.6989    1.5862   -0.4742 C   0  0  0  0  0  0  0  0  0  0  0  0
   -2.1205    2.7263   -0.6185 O   0  0  0  0  0  0  0  0  0  0  0  0
   -2.5685    0.5678   -0.3384 O   0  0  0  0  0  0  0  0  0  0  0  0
   -3.4410    0.9564   -0.4095 H   0  0  0  0  0  0  0  0  0  0  0  0
    0.5920   -0.2154    1.5497 C   0  0  0  0  0  0  0  0  0  0  0  0
    1.7860   -0.4596    1.7183 O   0  0  0  0  0  0  0  0  0  0  0  0
   -0.2294    0.0669    2.5672 N   0  0  0  0  0  0  0  0  0  0  0  0
   -1.2130    0.1938    2.3518 H   0  0  0  0  0  0  0  0  0  0  0  0
    0.1836    0.1337    3.9673 C   0  0  0  0  0  0  0  0  0  0  0  0
    1.0451    0.7976    4.0666 H   0  0  0  0  0  0  0  0  0  0  0  0
   -0.6344    0.5115    4.5820 H   0  0  0  0  0  0  0  0  0  0  0  0
    0.4676   -0.8609    4.3157 H   0  0  0  0  0  0  0  0  0  0  0  0
  5  6  2  0  0  0  0
  5  7  1  0  0  0  0
  2  3  1  0  0  0  0
  2  4  1  0  0  0  0
  2  5  1  0  0  0  0
  1  2  1  0  0  0  0
 18 19  2  0  0  0  0
 18 20  1  0  0  0  0
 16 17  1  0  0  0  0
 14 15  2  0  0  0  0
 14 16  1  0  0  0  0
 11 12  1  0  0  0  0
 11 13  1  0  0  0  0
 11 14  1  0  0  0  0
  9 10  1  0  0  0  0
  9 11  1  0  0  0  0
  9 18  1  0  0  0  0
  7  8  1  0  0  0  0
  7  9  1  0  0  0  0
 22 23  1  0  0  0  0
 22 24  1  0  0  0  0
 22 25  1  0  0  0  0
 20 21  1  0  0  0  0
 20 22  1  0  0  0  0
M  END
$$$$
default_name
  -OEChem-02102213163D

 25 24  0     1  0  0  0  0  0999 V2000
   -2.7826   -3.8464    0.7821 H   0  0  0  0  0  0  0  0  0  0  0  0
   -2.8156   -2.8034    0.4711 C   0  0  0  0  0  0  0  0  0  0  0  0
   -3.4336   -2.2354    1.1641 H   0  0  0  0  0  0  0  0  0  0  0  0
   -3.2256   -2.7344   -0.5349 H   0  0  0  0  0  0  0  0  0  0  0  0
   -1.4126   -2.2444    0.4801 C   0  0  0  0  0  0  0  0  0  0  0  0
   -0.4686   -2.9534    0.8001 O   0  0  0  0  0  0  0  0  0  0  0  0
   -1.2736   -0.9704    0.1241 N   0  0  0  0  0  0  0  0  0  0  0  0
   -2.0996   -0.4354   -0.1019 H   0  0  0  0  0  0  0  0  0  0  0  0
   -0.0016   -0.2394    0.1271 C   0  0  1  0  0  0  0  0  0  0  0  0
    0.6995   -0.7619   -0.5275 H   0  0  0  0  0  0  0  0  0  0  0  0
   -0.2283    1.1832   -0.4215 C   0  0  0  0  0  0  0  0  0  0  0  0
    0.4784    1.8695    0.0465 H   0  0  0  0  0  0  0  0  0  0  0  0
   -0.0455    1.1956   -1.4966 H   0  0  0  0  0  0  0  0  0  0  0  0
   -1.6273    1.7250   -0.1438 C   0  0  0  0  0  0  0  0  0  0  0  0
   -2.0444    2.8260   -0.4788 O   0  0  0  0  0  0  0  0  0  0  0  0
   -2.4321    0.8878    0.5367 O   0  0  0  0  0  0  0  0  0  0  0  0
   -3.2712    1.3416    0.6218 H   0  0  0  0  0  0  0  0  0  0  0  0
    0.5920   -0.2154    1.5497 C   0  0  0  0  0  0  0  0  0  0  0  0
    1.7860   -0.4596    1.7183 O   0  0  0  0  0  0  0  0  0  0  0  0
   -0.2294    0.0669    2.5672 N   0  0  0  0  0  0  0  0  0  0  0  0
   -1.2130    0.1938    2.3518 H   0  0  0  0  0  0  0  0  0  0  0  0
    0.1836    0.1337    3.9673 C   0  0  0  0  0  0  0  0  0  0  0  0
    1.0451    0.7976    4.0666 H   0  0  0  0  0  0  0  0  0  0  0  0
   -0.6344    0.5115    4.5820 H   0  0  0  0  0  0  0  0  0  0  0  0
    0.4676   -0.8609    4.3157 H   0  0  0  0  0  0  0  0  0  0  0  0
  5  6  2  0  0  0  0
  5  7  1  0  0  0  0
  2  3  1  0  0  0  0
  2  4  1  0  0  0  0
  2  5  1  0  0  0  0
  1  2  1  0  0  0  0
 18 19  2  0  0  0  0
 18 20  1  0  0  0  0
 16 17  1  0  0  0  0
 14 15  2  0  0  0  0
 14 16  1  0  0  0  0
 11 12  1  0  0  0  0
 11 13  1  0  0  0  0
 11 14  1  0  0  0  0
  9 10  1  0  0  0  0
  9 11  1  0  0  0  0
  9 18  1  0  0  0  0
  7  8  1  0  0  0  0
  7  9  1  0  0  0  0
 22 23  1  0  0  0  0
 22 24  1  0  0  0  0
 22 25  1  0  0  0  0
 20 21  1  0  0  0  0
 20 22  1  0  0  0  0
M  END
$$$$
default_name
  -OEChem-02102213163D

 25 24  0     1  0  0  0  0  0999 V2000
   -2.7826   -3.8464    0.7821 H   0  0  0  0  0  0  0  0  0  0  0  0
   -2.8156   -2.8034    0.4711 C   0  0  0  0  0  0  0  0  0  0  0  0
   -3.4336   -2.2354    1.1641 H   0  0  0  0  0  0  0  0  0  0  0  0
   -3.2256   -2.7344   -0.5349 H   0  0  0  0  0  0  0  0  0  0  0  0
   -1.4126   -2.2444    0.4801 C   0  0  0  0  0  0  0  0  0  0  0  0
   -0.4686   -2.9534    0.8001 O   0  0  0  0  0  0  0  0  0  0  0  0
   -1.2736   -0.9704    0.1241 N   0  0  0  0  0  0  0  0  0  0  0  0
   -2.0996   -0.4354   -0.1019 H   0  0  0  0  0  0  0  0  0  0  0  0
   -0.0016   -0.2394    0.1271 C   0  0  1  0  0  0  0  0  0  0  0  0
    0.6995   -0.7619   -0.5275 H   0  0  0  0  0  0  0  0  0  0  0  0
   -0.2283    1.1832   -0.4215 C   0  0  0  0  0  0  0  0  0  0  0  0
    0.4784    1.8695    0.0465 H   0  0  0  0  0  0  0  0  0  0  0  0
   -0.0455    1.1956   -1.4966 H   0  0  0  0  0  0  0  0  0  0  0  0
   -1.6273    1.7250   -0.1438 C   0  0  0  0  0  0  0  0  0  0  0  0
   -2.1351    2.6979   -0.6859 O   0  0  0  0  0  0  0  0  0  0  0  0
   -2.3204    1.0467    0.7897 O   0  0  0  0  0  0  0  0  0  0  0  0
   -3.1740    1.4772    0.8471 H   0  0  0  0  0  0  0  0  0  0  0  0
    0.5920   -0.2154    1.5497 C   0  0  0  0  0  0  0  0  0  0  0  0
    1.7860   -0.4596    1.7183 O   0  0  0  0  0  0  0  0  0  0  0  0
   -0.2294    0.0669    2.5672 N   0  0  0  0  0  0  0  0  0  0  0  0
   -1.2130    0.1938    2.3518 H   0  0  0  0  0  0  0  0  0  0  0  0
    0.1836    0.1337    3.9673 C   0  0  0  0  0  0  0  0  0  0  0  0
    1.0451    0.7976    4.0666 H   0  0  0  0  0  0  0  0  0  0  0  0
   -0.6344    0.5115    4.5820 H   0  0  0  0  0  0  0  0  0  0  0  0
    0.4676   -0.8609    4.3157 H   0  0  0  0  0  0  0  0  0  0  0  0
  5  6  2  0  0  0  0
  5  7  1  0  0  0  0
  2  3  1  0  0  0  0
  2  4  1  0  0  0  0
  2  5  1  0  0  0  0
  1  2  1  0  0  0  0
 18 19  2  0  0  0  0
 18 20  1  0  0  0  0
 16 17  1  0  0  0  0
 14 15  2  0  0  0  0
 14 16  1  0  0  0  0
 11 12  1  0  0  0  0
 11 13  1  0  0  0  0
 11 14  1  0  0  0  0
  9 10  1  0  0  0  0
  9 11  1  0  0  0  0
  9 18  1  0  0  0  0
  7  8  1  0  0  0  0
  7  9  1  0  0  0  0
 22 23  1  0  0  0  0
 22 24  1  0  0  0  0
 22 25  1  0  0  0  0
 20 21  1  0  0  0  0
 20 22  1  0  0  0  0
M  END
$$$$
default_name
  -OEChem-02102213163D

 25 24  0     1  0  0  0  0  0999 V2000
   -2.7826   -3.8464    0.7821 H   0  0  0  0  0  0  0  0  0  0  0  0
   -2.8156   -2.8034    0.4711 C   0  0  0  0  0  0  0  0  0  0  0  0
   -3.4336   -2.2354    1.1641 H   0  0  0  0  0  0  0  0  0  0  0  0
   -3.2256   -2.7344   -0.5349 H   0  0  0  0  0  0  0  0  0  0  0  0
   -1.4126   -2.2444    0.4801 C   0  0  0  0  0  0  0  0  0  0  0  0
   -0.4686   -2.9534    0.8001 O   0  0  0  0  0  0  0  0  0  0  0  0
   -1.2736   -0.9704    0.1241 N   0  0  0  0  0  0  0  0  0  0  0  0
   -2.0996   -0.4354   -0.1019 H   0  0  0  0  0  0  0  0  0  0  0  0
   -0.0016   -0.2394    0.1271 C   0  0  1  0  0  0  0  0  0  0  0  0
    0.6995   -0.7619   -0.5275 H   0  0  0  0  0  0  0  0  0  0  0  0
   -0.2283    1.1832   -0.4215 C   0  0  0  0  0  0  0  0  0  0  0  0
    0.4784    1.8695    0.0465 H   0  0  0  0  0  0  0  0  0  0  0  0
   -0.0455    1.1956   -1.4966 H   0  0  0  0  0  0  0  0  0  0  0  0
   -1.6273    1.7250   -0.1438 C   0  0  0  0  0  0  0  0  0  0  0  0
   -2.2357    2.5209   -0.8472 O   0  0  0  0  0  0  0  0  0  0  0  0
   -2.1966    1.2655    0.9860 O   0  0  0  0  0  0  0  0  0  0  0  0
   -3.0657    1.6662    1.0237 H   0  0  0  0  0  0  0  0  0  0  0  0
    0.5920   -0.2154    1.5497 C   0  0  0  0  0  0  0  0  0  0  0  0
    1.7860   -0.4596    1.7183 O   0  0  0  0  0  0  0  0  0  0  0  0
   -0.2294    0.0669    2.5672 N   0  0  0  0  0  0  0  0  0  0  0  0
   -1.2130    0.1938    2.3518 H   0  0  0  0  0  0  0  0  0  0  0  0
    0.1836    0.1337    3.9673 C   0  0  0  0  0  0  0  0  0  0  0  0
    1.0451    0.7976    4.0666 H   0  0  0  0  0  0  0  0  0  0  0  0
   -0.6344    0.5115    4.5820 H   0  0  0  0  0  0  0  0  0  0  0  0
    0.4676   -0.8609    4.3157 H   0  0  0  0  0  0  0  0  0  0  0  0
  5  6  2  0  0  0  0
  5  7  1  0  0  0  0
  2  3  1  0  0  0  0
  2  4  1  0  0  0  0
  2  5  1  0  0  0  0
  1  2  1  0  0  0  0
 18 19  2  0  0  0  0
 18 20  1  0  0  0  0
 16 17  1  0  0  0  0
 14 15  2  0  0  0  0
 14 16  1  0  0  0  0
 11 12  1  0  0  0  0
 11 13  1  0  0  0  0
 11 14  1  0  0  0  0
  9 10  1  0  0  0  0
  9 11  1  0  0  0  0
  9 18  1  0  0  0  0
  7  8  1  0  0  0  0
  7  9  1  0  0  0  0
 22 23  1  0  0  0  0
 22 24  1  0  0  0  0
 22 25  1  0  0  0  0
 20 21  1  0  0  0  0
 20 22  1  0  0  0  0
M  END
$$$$
default_name
  -OEChem-02102213163D

 25 24  0     1  0  0  0  0  0999 V2000
   -2.7826   -3.8464    0.7821 H   0  0  0  0  0  0  0  0  0  0  0  0
   -2.8156   -2.8034    0.4711 C   0  0  0  0  0  0  0  0  0  0  0  0
   -3.4336   -2.2354    1.1641 H   0  0  0  0  0  0  0  0  0  0  0  0
   -3.2256   -2.7344   -0.5349 H   0  0  0  0  0  0  0  0  0  0  0  0
   -1.4126   -2.2444    0.4801 C   0  0  0  0  0  0  0  0  0  0  0  0
   -0.4686   -2.9534    0.8001 O   0  0  0  0  0  0  0  0  0  0  0  0
   -1.2736   -0.9704    0.1241 N   0  0  0  0  0  0  0  0  0  0  0  0
   -2.0996   -0.4354   -0.1019 H   0  0  0  0  0  0  0  0  0  0  0  0
   -0.0016   -0.2394    0.1271 C   0  0  1  0  0  0  0  0  0  0  0  0
    0.6995   -0.7619   -0.5275 H   0  0  0  0  0  0  0  0  0  0  0  0
   -0.2283    1.1832   -0.4215 C   0  0  0  0  0  0  0  0  0  0  0  0
    0.4784    1.8695    0.0465 H   0  0  0  0  0  0  0  0  0  0  0  0
   -0.0455    1.1956   -1.4966 H   0  0  0  0  0  0  0  0  0  0  0  0
   -1.6273    1.7250   -0.1438 C   0  0  0  0  0  0  0  0  0  0  0  0
   -2.3394    2.3068   -0.9517 O   0  0  0  0  0  0  0  0  0  0  0  0
   -2.0694    1.5293    1.1124 O   0  0  0  0  0  0  0  0  0  0  0  0
   -2.9538    1.8958    1.1395 H   0  0  0  0  0  0  0  0  0  0  0  0
    0.5920   -0.2154    1.5497 C   0  0  0  0  0  0  0  0  0  0  0  0
    1.7860   -0.4596    1.7183 O   0  0  0  0  0  0  0  0  0  0  0  0
   -0.2294    0.0669    2.5672 N   0  0  0  0  0  0  0  0  0  0  0  0
   -1.2130    0.1938    2.3518 H   0  0  0  0  0  0  0  0  0  0  0  0
    0.1836    0.1337    3.9673 C   0  0  0  0  0  0  0  0  0  0  0  0
    1.0451    0.7976    4.0666 H   0  0  0  0  0  0  0  0  0  0  0  0
   -0.6344    0.5115    4.5820 H   0  0  0  0  0  0  0  0  0  0  0  0
    0.4676   -0.8609    4.3157 H   0  0  0  0  0  0  0  0  0  0  0  0
  5  6  2  0  0  0  0
  5  7  1  0  0  0  0
  2  3  1  0  0  0  0
  2  4  1  0  0  0  0
  2  5  1  0  0  0  0
  1  2  1  0  0  0  0
 18 19  2  0  0  0  0
 18 20  1  0  0  0  0
 16 17  1  0  0  0  0
 14 15  2  0  0  0  0
 14 16  1  0  0  0  0
 11 12  1  0  0  0  0
 11 13  1  0  0  0  0
 11 14  1  0  0  0  0
  9 10  1  0  0  0  0
  9 11  1  0  0  0  0
  9 18  1  0  0  0  0
  7  8  1  0  0  0  0
  7  9  1  0  0  0  0
 22 23  1  0  0  0  0
 22 24  1  0  0  0  0
 22 25  1  0  0  0  0
 20 21  1  0  0  0  0
 20 22  1  0  0  0  0
M  END
$$$$
default_name
  -OEChem-02102213163D

 25 24  0     1  0  0  0  0  0999 V2000
   -2.7826   -3.8464    0.7821 H   0  0  0  0  0  0  0  0  0  0  0  0
   -2.8156   -2.8034    0.4711 C   0  0  0  0  0  0  0  0  0  0  0  0
   -3.4336   -2.2354    1.1641 H   0  0  0  0  0  0  0  0  0  0  0  0
   -3.2256   -2.7344   -0.5349 H   0  0  0  0  0  0  0  0  0  0  0  0
   -1.4126   -2.2444    0.4801 C   0  0  0  0  0  0  0  0  0  0  0  0
   -0.4686   -2.9534    0.8001 O   0  0  0  0  0  0  0  0  0  0  0  0
   -1.2736   -0.9704    0.1241 N   0  0  0  0  0  0  0  0  0  0  0  0
   -2.0996   -0.4354   -0.1019 H   0  0  0  0  0  0  0  0  0  0  0  0
   -0.0016   -0.2394    0.1271 C   0  0  1  0  0  0  0  0  0  0  0  0
    0.6995   -0.7619   -0.5275 H   0  0  0  0  0  0  0  0  0  0  0  0
   -0.2283    1.1832   -0.4215 C   0  0  0  0  0  0  0  0  0  0  0  0
    0.4784    1.8695    0.0465 H   0  0  0  0  0  0  0  0  0  0  0  0
   -0.0455    1.1956   -1.4966 H   0  0  0  0  0  0  0  0  0  0  0  0
   -1.6273    1.7250   -0.1438 C   0  0  0  0  0  0  0  0  0  0  0  0
   -2.4390    2.0703   -0.9924 O   0  0  0  0  0  0  0  0  0  0  0  0
   -1.9472    1.8201    1.1602 O   0  0  0  0  0  0  0  0  0  0  0  0
   -2.8459    2.1503    1.1865 H   0  0  0  0  0  0  0  0  0  0  0  0
    0.5920   -0.2154    1.5497 C   0  0  0  0  0  0  0  0  0  0  0  0
    1.7860   -0.4596    1.7183 O   0  0  0  0  0  0  0  0  0  0  0  0
   -0.2294    0.0669    2.5672 N   0  0  0  0  0  0  0  0  0  0  0  0
   -1.2130    0.1938    2.3518 H   0  0  0  0  0  0  0  0  0  0  0  0
    0.1836    0.1337    3.9673 C   0  0  0  0  0  0  0  0  0  0  0  0
    1.0451    0.7976    4.0666 H   0  0  0  0  0  0  0  0  0  0  0  0
   -0.6344    0.5115    4.5820 H   0  0  0  0  0  0  0  0  0  0  0  0
    0.4676   -0.8609    4.3157 H   0  0  0  0  0  0  0  0  0  0  0  0
  5  6  2  0  0  0  0
  5  7  1  0  0  0  0
  2  3  1  0  0  0  0
  2  4  1  0  0  0  0
  2  5  1  0  0  0  0
  1  2  1  0  0  0  0
 18 19  2  0  0  0  0
 18 20  1  0  0  0  0
 16 17  1  0  0  0  0
 14 15  2  0  0  0  0
 14 16  1  0  0  0  0
 11 12  1  0  0  0  0
 11 13  1  0  0  0  0
 11 14  1  0  0  0  0
  9 10  1  0  0  0  0
  9 11  1  0  0  0  0
  9 18  1  0  0  0  0
  7  8  1  0  0  0  0
  7  9  1  0  0  0  0
 22 23  1  0  0  0  0
 22 24  1  0  0  0  0
 22 25  1  0  0  0  0
 20 21  1  0  0  0  0
 20 22  1  0  0  0  0
M  END
$$$$
default_name
  -OEChem-02102213163D

 25 24  0     1  0  0  0  0  0999 V2000
   -2.7826   -3.8464    0.7821 H   0  0  0  0  0  0  0  0  0  0  0  0
   -2.8156   -2.8034    0.4711 C   0  0  0  0  0  0  0  0  0  0  0  0
   -3.4336   -2.2354    1.1641 H   0  0  0  0  0  0  0  0  0  0  0  0
   -3.2256   -2.7344   -0.5349 H   0  0  0  0  0  0  0  0  0  0  0  0
   -1.4126   -2.2444    0.4801 C   0  0  0  0  0  0  0  0  0  0  0  0
   -0.4686   -2.9534    0.8001 O   0  0  0  0  0  0  0  0  0  0  0  0
   -1.2736   -0.9704    0.1241 N   0  0  0  0  0  0  0  0  0  0  0  0
   -2.0996   -0.4354   -0.1019 H   0  0  0  0  0  0  0  0  0  0  0  0
   -0.0016   -0.2394    0.1271 C   0  0  1  0  0  0  0  0  0  0  0  0
    0.6995   -0.7619   -0.5275 H   0  0  0  0  0  0  0  0  0  0  0  0
   -0.2283    1.1832   -0.4215 C   0  0  0  0  0  0  0  0  0  0  0  0
    0.4784    1.8695    0.0465 H   0  0  0  0  0  0  0  0  0  0  0  0
   -0.0455    1.1956   -1.4966 H   0  0  0  0  0  0  0  0  0  0  0  0
   -1.6273    1.7250   -0.1438 C   0  0  0  0  0  0  0  0  0  0  0  0
   -2.5279    1.8276   -0.9664 O   0  0  0  0  0  0  0  0  0  0  0  0
   -1.8386    2.1181    1.1261 O   0  0  0  0  0  0  0  0  0  0  0  0
   -2.7493    2.4124    1.1617 H   0  0  0  0  0  0  0  0  0  0  0  0
    0.5920   -0.2154    1.5497 C   0  0  0  0  0  0  0  0  0  0  0  0
    1.7860   -0.4596    1.7183 O   0  0  0  0  0  0  0  0  0  0  0  0
   -0.2294    0.0669    2.5672 N   0  0  0  0  0  0  0  0  0  0  0  0
   -1.2130    0.1938    2.3518 H   0  0  0  0  0  0  0  0  0  0  0  0
    0.1836    0.1337    3.9673 C   0  0  0  0  0  0  0  0  0  0  0  0
    1.0451    0.7976    4.0666 H   0  0  0  0  0  0  0  0  0  0  0  0
   -0.6344    0.5115    4.5820 H   0  0  0  0  0  0  0  0  0  0  0  0
    0.4676   -0.8609    4.3157 H   0  0  0  0  0  0  0  0  0  0  0  0
  5  6  2  0  0  0  0
  5  7  1  0  0  0  0
  2  3  1  0  0  0  0
  2  4  1  0  0  0  0
  2  5  1  0  0  0  0
  1  2  1  0  0  0  0
 18 19  2  0  0  0  0
 18 20  1  0  0  0  0
 16 17  1  0  0  0  0
 14 15  2  0  0  0  0
 14 16  1  0  0  0  0
 11 12  1  0  0  0  0
 11 13  1  0  0  0  0
 11 14  1  0  0  0  0
  9 10  1  0  0  0  0
  9 11  1  0  0  0  0
  9 18  1  0  0  0  0
  7  8  1  0  0  0  0
  7  9  1  0  0  0  0
 22 23  1  0  0  0  0
 22 24  1  0  0  0  0
 22 25  1  0  0  0  0
 20 21  1  0  0  0  0
 20 22  1  0  0  0  0
M  END
$$$$
default_name
  -OEChem-02102213163D

 25 24  0     1  0  0  0  0  0999 V2000
   -2.7826   -3.8464    0.7821 H   0  0  0  0  0  0  0  0  0  0  0  0
   -2.8156   -2.8034    0.4711 C   0  0  0  0  0  0  0  0  0  0  0  0
   -3.4336   -2.2354    1.1641 H   0  0  0  0  0  0  0  0  0  0  0  0
   -3.2256   -2.7344   -0.5349 H   0  0  0  0  0  0  0  0  0  0  0  0
   -1.4126   -2.2444    0.4801 C   0  0  0  0  0  0  0  0  0  0  0  0
   -0.4686   -2.9534    0.8001 O   0  0  0  0  0  0  0  0  0  0  0  0
   -1.2736   -0.9704    0.1241 N   0  0  0  0  0  0  0  0  0  0  0  0
   -2.0996   -0.4354   -0.1019 H   0  0  0  0  0  0  0  0  0  0  0  0
   -0.0016   -0.2394    0.1271 C   0  0  1  0  0  0  0  0  0  0  0  0
    0.6995   -0.7619   -0.5275 H   0  0  0  0  0  0  0  0  0  0  0  0
   -0.2283    1.1832   -0.4215 C   0  0  0  0  0  0  0  0  0  0  0  0
    0.4784    1.8695    0.0465 H   0  0  0  0  0  0  0  0  0  0  0  0
   -0.0455    1.1956   -1.4966 H   0  0  0  0  0  0  0  0  0  0  0  0
   -1.6273    1.7250   -0.1438 C   0  0  0  0  0  0  0  0  0  0  0  0
   -2.5999    1.5950   -0.8755 O   0  0  0  0  0  0  0  0  0  0  0  0
   -1.7508    2.4030    1.0125 O   0  0  0  0  0  0  0  0  0  0  0  0
   -2.6706    2.6643    1.0665 H   0  0  0  0  0  0  0  0  0  0  0  0
    0.5920   -0.2154    1.5497 C   0  0  0  0  0  0  0  0  0  0  0  0
    1.7860   -0.4596    1.7183 O   0  0  0  0  0  0  0  0  0  0  0  0
   -0.2294    0.0669    2.5672 N   0  0  0  0  0  0  0  0  0  0  0  0
   -1.2130    0.1938    2.3518 H   0  0  0  0  0  0  0  0  0  0  0  0
    0.1836    0.1337    3.9673 C   0  0  0  0  0  0  0  0  0  0  0  0
    1.0451    0.7976    4.0666 H   0  0  0  0  0  0  0  0  0  0  0  0
   -0.6344    0.5115    4.5820 H   0  0  0  0  0  0  0  0  0  0  0  0
    0.4676   -0.8609    4.3157 H   0  0  0  0  0  0  0  0  0  0  0  0
  5  6  2  0  0  0  0
  5  7  1  0  0  0  0
  2  3  1  0  0  0  0
  2  4  1  0  0  0  0
  2  5  1  0  0  0  0
  1  2  1  0  0  0  0
 18 19  2  0  0  0  0
 18 20  1  0  0  0  0
 16 17  1  0  0  0  0
 14 15  2  0  0  0  0
 14 16  1  0  0  0  0
 11 12  1  0  0  0  0
 11 13  1  0  0  0  0
 11 14  1  0  0  0  0
  9 10  1  0  0  0  0
  9 11  1  0  0  0  0
  9 18  1  0  0  0  0
  7  8  1  0  0  0  0
  7  9  1  0  0  0  0
 22 23  1  0  0  0  0
 22 24  1  0  0  0  0
 22 25  1  0  0  0  0
 20 21  1  0  0  0  0
 20 22  1  0  0  0  0
M  END
$$$$
default_name
  -OEChem-02102213163D

 25 24  0     1  0  0  0  0  0999 V2000
   -2.7826   -3.8464    0.7821 H   0  0  0  0  0  0  0  0  0  0  0  0
   -2.8156   -2.8034    0.4711 C   0  0  0  0  0  0  0  0  0  0  0  0
   -3.4336   -2.2354    1.1641 H   0  0  0  0  0  0  0  0  0  0  0  0
   -3.2256   -2.7344   -0.5349 H   0  0  0  0  0  0  0  0  0  0  0  0
   -1.4126   -2.2444    0.4801 C   0  0  0  0  0  0  0  0  0  0  0  0
   -0.4686   -2.9534    0.8001 O   0  0  0  0  0  0  0  0  0  0  0  0
   -1.2736   -0.9704    0.1241 N   0  0  0  0  0  0  0  0  0  0  0  0
   -2.0996   -0.4354   -0.1019 H   0  0  0  0  0  0  0  0  0  0  0  0
   -0.0016   -0.2394    0.1271 C   0  0  1  0  0  0  0  0  0  0  0  0
    0.6995   -0.7619   -0.5275 H   0  0  0  0  0  0  0  0  0  0  0  0
   -0.2283    1.1832   -0.4215 C   0  0  0  0  0  0  0  0  0  0  0  0
    0.4784    1.8695    0.0465 H   0  0  0  0  0  0  0  0  0  0  0  0
   -0.0455    1.1956   -1.4966 H   0  0  0  0  0  0  0  0  0  0  0  0
   -1.6273    1.7250   -0.1438 C   0  0  0  0  0  0  0  0  0  0  0  0
   -2.6502    1.3887   -0.7259 O   0  0  0  0  0  0  0  0  0  0  0  0
   -1.6899    2.6553    0.8271 O   0  0  0  0  0  0  0  0  0  0  0  0
   -2.6153    2.8886    0.9077 H   0  0  0  0  0  0  0  0  0  0  0  0
    0.5920   -0.2154    1.5497 C   0  0  0  0  0  0  0  0  0  0  0  0
    1.7860   -0.4596    1.7183 O   0  0  0  0  0  0  0  0  0  0  0  0
   -0.2294    0.0669    2.5672 N   0  0  0  0  0  0  0  0  0  0  0  0
   -1.2130    0.1938    2.3518 H   0  0  0  0  0  0  0  0  0  0  0  0
    0.1836    0.1337    3.9673 C   0  0  0  0  0  0  0  0  0  0  0  0
    1.0451    0.7976    4.0666 H   0  0  0  0  0  0  0  0  0  0  0  0
   -0.6344    0.5115    4.5820 H   0  0  0  0  0  0  0  0  0  0  0  0
    0.4676   -0.8609    4.3157 H   0  0  0  0  0  0  0  0  0  0  0  0
  5  6  2  0  0  0  0
  5  7  1  0  0  0  0
  2  3  1  0  0  0  0
  2  4  1  0  0  0  0
  2  5  1  0  0  0  0
  1  2  1  0  0  0  0
 18 19  2  0  0  0  0
 18 20  1  0  0  0  0
 16 17  1  0  0  0  0
 14 15  2  0  0  0  0
 14 16  1  0  0  0  0
 11 12  1  0  0  0  0
 11 13  1  0  0  0  0
 11 14  1  0  0  0  0
  9 10  1  0  0  0  0
  9 11  1  0  0  0  0
  9 18  1  0  0  0  0
  7  8  1  0  0  0  0
  7  9  1  0  0  0  0
 22 23  1  0  0  0  0
 22 24  1  0  0  0  0
 22 25  1  0  0  0  0
 20 21  1  0  0  0  0
 20 22  1  0  0  0  0
M  END
$$$$
default_name
  -OEChem-02102213163D

 25 24  0     1  0  0  0  0  0999 V2000
   -2.7826   -3.8464    0.7821 H   0  0  0  0  0  0  0  0  0  0  0  0
   -2.8156   -2.8034    0.4711 C   0  0  0  0  0  0  0  0  0  0  0  0
   -3.4336   -2.2354    1.1641 H   0  0  0  0  0  0  0  0  0  0  0  0
   -3.2256   -2.7344   -0.5349 H   0  0  0  0  0  0  0  0  0  0  0  0
   -1.4126   -2.2444    0.4801 C   0  0  0  0  0  0  0  0  0  0  0  0
   -0.4686   -2.9534    0.8001 O   0  0  0  0  0  0  0  0  0  0  0  0
   -1.2736   -0.9704    0.1241 N   0  0  0  0  0  0  0  0  0  0  0  0
   -2.0996   -0.4354   -0.1019 H   0  0  0  0  0  0  0  0  0  0  0  0
   -0.0016   -0.2394    0.1271 C   0  0  1  0  0  0  0  0  0  0  0  0
    0.6995   -0.7619   -0.5275 H   0  0  0  0  0  0  0  0  0  0  0  0
   -0.2283    1.1832   -0.4215 C   0  0  0  0  0  0  0  0  0  0  0  0
    0.4784    1.8695    0.0465 H   0  0  0  0  0  0  0  0  0  0  0  0
   -0.0455    1.1956   -1.4966 H   0  0  0  0  0  0  0  0  0  0  0  0
   -1.6273    1.7250   -0.1438 C   0  0  0  0  0  0  0  0  0  0  0  0
   -2.6752    1.2224   -0.5278 O   0  0  0  0  0  0  0  0  0  0  0  0
   -1.6600    2.8579    0.5825 O   0  0  0  0  0  0  0  0  0  0  0  0
   -2.5870    3.0702    0.6959 H   0  0  0  0  0  0  0  0  0  0  0  0
    0.5920   -0.2154    1.5497 C   0  0  0  0  0  0  0  0  0  0  0  0
    1.7860   -0.4596    1.7183 O   0  0  0  0  0  0  0  0  0  0  0  0
   -0.2294    0.0669    2.5672 N   0  0  0  0  0  0  0  0  0  0  0  0
   -1.2130    0.1938    2.3518 H   0  0  0  0  0  0  0  0  0  0  0  0
    0.1836    0.1337    3.9673 C   0  0  0  0  0  0  0  0  0  0  0  0
    1.0451    0.7976    4.0666 H   0  0  0  0  0  0  0  0  0  0  0  0
   -0.6344    0.5115    4.5820 H   0  0  0  0  0  0  0  0  0  0  0  0
    0.4676   -0.8609    4.3157 H   0  0  0  0  0  0  0  0  0  0  0  0
  5  6  2  0  0  0  0
  5  7  1  0  0  0  0
  2  3  1  0  0  0  0
  2  4  1  0  0  0  0
  2  5  1  0  0  0  0
  1  2  1  0  0  0  0
 18 19  2  0  0  0  0
 18 20  1  0  0  0  0
 16 17  1  0  0  0  0
 14 15  2  0  0  0  0
 14 16  1  0  0  0  0
 11 12  1  0  0  0  0
 11 13  1  0  0  0  0
 11 14  1  0  0  0  0
  9 10  1  0  0  0  0
  9 11  1  0  0  0  0
  9 18  1  0  0  0  0
  7  8  1  0  0  0  0
  7  9  1  0  0  0  0
 22 23  1  0  0  0  0
 22 24  1  0  0  0  0
 22 25  1  0  0  0  0
 20 21  1  0  0  0  0
 20 22  1  0  0  0  0
M  END
$$$$
default_name
  -OEChem-02102213163D

 25 24  0     1  0  0  0  0  0999 V2000
   -2.7826   -3.8464    0.7821 H   0  0  0  0  0  0  0  0  0  0  0  0
   -2.8156   -2.8034    0.4711 C   0  0  0  0  0  0  0  0  0  0  0  0
   -3.4336   -2.2354    1.1641 H   0  0  0  0  0  0  0  0  0  0  0  0
   -3.2256   -2.7344   -0.5349 H   0  0  0  0  0  0  0  0  0  0  0  0
   -1.4126   -2.2444    0.4801 C   0  0  0  0  0  0  0  0  0  0  0  0
   -0.4686   -2.9534    0.8001 O   0  0  0  0  0  0  0  0  0  0  0  0
   -1.2736   -0.9704    0.1241 N   0  0  0  0  0  0  0  0  0  0  0  0
   -2.0996   -0.4354   -0.1019 H   0  0  0  0  0  0  0  0  0  0  0  0
   -0.0016   -0.2394    0.1271 C   0  0  1  0  0  0  0  0  0  0  0  0
    0.6995   -0.7619   -0.5275 H   0  0  0  0  0  0  0  0  0  0  0  0
   -0.2283    1.1832   -0.4215 C   0  0  0  0  0  0  0  0  0  0  0  0
    0.4784    1.8695    0.0465 H   0  0  0  0  0  0  0  0  0  0  0  0
   -0.0455    1.1956   -1.4966 H   0  0  0  0  0  0  0  0  0  0  0  0
   -1.6273    1.7250   -0.1438 C   0  0  0  0  0  0  0  0  0  0  0  0
   -2.6734    1.1077   -0.2947 O   0  0  0  0  0  0  0  0  0  0  0  0
   -1.6631    2.9969    0.2954 O   0  0  0  0  0  0  0  0  0  0  0  0
   -2.5876    3.1968    0.4456 H   0  0  0  0  0  0  0  0  0  0  0  0
    0.5920   -0.2154    1.5497 C   0  0  0  0  0  0  0  0  0  0  0  0
    1.7860   -0.4596    1.7183 O   0  0  0  0  0  0  0  0  0  0  0  0
   -0.2294    0.0669    2.5672 N   0  0  0  0  0  0  0  0  0  0  0  0
   -1.2130    0.1938    2.3518 H   0  0  0  0  0  0  0  0  0  0  0  0
    0.1836    0.1337    3.9673 C   0  0  0  0  0  0  0  0  0  0  0  0
    1.0451    0.7976    4.0666 H   0  0  0  0  0  0  0  0  0  0  0  0
   -0.6344    0.5115    4.5820 H   0  0  0  0  0  0  0  0  0  0  0  0
    0.4676   -0.8609    4.3157 H   0  0  0  0  0  0  0  0  0  0  0  0
  5  6  2  0  0  0  0
  5  7  1  0  0  0  0
  2  3  1  0  0  0  0
  2  4  1  0  0  0  0
  2  5  1  0  0  0  0
  1  2  1  0  0  0  0
 18 19  2  0  0  0  0
 18 20  1  0  0  0  0
 16 17  1  0  0  0  0
 14 15  2  0  0  0  0
 14 16  1  0  0  0  0
 11 12  1  0  0  0  0
 11 13  1  0  0  0  0
 11 14  1  0  0  0  0
  9 10  1  0  0  0  0
  9 11  1  0  0  0  0
  9 18  1  0  0  0  0
  7  8  1  0  0  0  0
  7  9  1  0  0  0  0
 22 23  1  0  0  0  0
 22 24  1  0  0  0  0
 22 25  1  0  0  0  0
 20 21  1  0  0  0  0
 20 22  1  0  0  0  0
M  END
$$$$
default_name
  -OEChem-02102213163D

 25 24  0     1  0  0  0  0  0999 V2000
   -2.7826   -3.8464    0.7821 H   0  0  0  0  0  0  0  0  0  0  0  0
   -2.8156   -2.8034    0.4711 C   0  0  0  0  0  0  0  0  0  0  0  0
   -3.4336   -2.2354    1.1641 H   0  0  0  0  0  0  0  0  0  0  0  0
   -3.2256   -2.7344   -0.5349 H   0  0  0  0  0  0  0  0  0  0  0  0
   -1.4126   -2.2444    0.4801 C   0  0  0  0  0  0  0  0  0  0  0  0
   -0.4686   -2.9534    0.8001 O   0  0  0  0  0  0  0  0  0  0  0  0
   -1.2736   -0.9704    0.1241 N   0  0  0  0  0  0  0  0  0  0  0  0
   -2.0996   -0.4354   -0.1019 H   0  0  0  0  0  0  0  0  0  0  0  0
   -0.0016   -0.2394    0.1271 C   0  0  1  0  0  0  0  0  0  0  0  0
    0.6995   -0.7619   -0.5275 H   0  0  0  0  0  0  0  0  0  0  0  0
   -0.2283    1.1832   -0.4215 C   0  0  0  0  0  0  0  0  0  0  0  0
    0.4784    1.8695    0.0465 H   0  0  0  0  0  0  0  0  0  0  0  0
   -0.0455    1.1956   -1.4966 H   0  0  0  0  0  0  0  0  0  0  0  0
   -1.6273    1.7250   -0.1438 C   0  0  0  0  0  0  0  0  0  0  0  0
   -2.6448    1.0523   -0.0424 O   0  0  0  0  0  0  0  0  0  0  0  0
   -1.6991    3.0630   -0.0146 O   0  0  0  0  0  0  0  0  0  0  0  0
   -2.6172    3.2595    0.1739 H   0  0  0  0  0  0  0  0  0  0  0  0
    0.5920   -0.2154    1.5497 C   0  0  0  0  0  0  0  0  0  0  0  0
    1.7860   -0.4596    1.7183 O   0  0  0  0  0  0  0  0  0  0  0  0
   -0.2294    0.0669    2.5672 N   0  0  0  0  0  0  0  0  0  0  0  0
   -1.2130    0.1938    2.3518 H   0  0  0  0  0  0  0  0  0  0  0  0
    0.1836    0.1337    3.9673 C   0  0  0  0  0  0  0  0  0  0  0  0
    1.0451    0.7976    4.0666 H   0  0  0  0  0  0  0  0  0  0  0  0
   -0.6344    0.5115    4.5820 H   0  0  0  0  0  0  0  0  0  0  0  0
    0.4676   -0.8609    4.3157 H   0  0  0  0  0  0  0  0  0  0  0  0
  5  6  2  0  0  0  0
  5  7  1  0  0  0  0
  2  3  1  0  0  0  0
  2  4  1  0  0  0  0
  2  5  1  0  0  0  0
  1  2  1  0  0  0  0
 18 19  2  0  0  0  0
 18 20  1  0  0  0  0
 16 17  1  0  0  0  0
 14 15  2  0  0  0  0
 14 16  1  0  0  0  0
 11 12  1  0  0  0  0
 11 13  1  0  0  0  0
 11 14  1  0  0  0  0
  9 10  1  0  0  0  0
  9 11  1  0  0  0  0
  9 18  1  0  0  0  0
  7  8  1  0  0  0  0
  7  9  1  0  0  0  0
 22 23  1  0  0  0  0
 22 24  1  0  0  0  0
 22 25  1  0  0  0  0
 20 21  1  0  0  0  0
 20 22  1  0  0  0  0
M  END
$$$$
default_name
  -OEChem-02102213163D

 25 24  0     1  0  0  0  0  0999 V2000
   -2.7826   -3.8464    0.7821 H   0  0  0  0  0  0  0  0  0  0  0  0
   -2.8156   -2.8034    0.4711 C   0  0  0  0  0  0  0  0  0  0  0  0
   -3.4336   -2.2354    1.1641 H   0  0  0  0  0  0  0  0  0  0  0  0
   -3.2256   -2.7344   -0.5349 H   0  0  0  0  0  0  0  0  0  0  0  0
   -1.4126   -2.2444    0.4801 C   0  0  0  0  0  0  0  0  0  0  0  0
   -0.4686   -2.9534    0.8001 O   0  0  0  0  0  0  0  0  0  0  0  0
   -1.2736   -0.9704    0.1241 N   0  0  0  0  0  0  0  0  0  0  0  0
   -2.0996   -0.4354   -0.1019 H   0  0  0  0  0  0  0  0  0  0  0  0
   -0.0016   -0.2394    0.1271 C   0  0  1  0  0  0  0  0  0  0  0  0
    0.6995   -0.7619   -0.5275 H   0  0  0  0  0  0  0  0  0  0  0  0
   -0.2283    1.1832   -0.4215 C   0  0  0  0  0  0  0  0  0  0  0  0
    0.4784    1.8695    0.0465 H   0  0  0  0  0  0  0  0  0  0  0  0
   -0.0455    1.1956   -1.4966 H   0  0  0  0  0  0  0  0  0  0  0  0
   -1.6273    1.7250   -0.1438 C   0  0  0  0  0  0  0  0  0  0  0  0
   -2.5914    1.0599    0.2117 O   0  0  0  0  0  0  0  0  0  0  0  0
   -1.7654    3.0515   -0.3265 O   0  0  0  0  0  0  0  0  0  0  0  0
   -2.6738    3.2543   -0.1007 H   0  0  0  0  0  0  0  0  0  0  0  0
    0.5920   -0.2154    1.5497 C   0  0  0  0  0  0  0  0  0  0  0  0
    1.7860   -0.4596    1.7183 O   0  0  0  0  0  0  0  0  0  0  0  0
   -0.2294    0.0669    2.5672 N   0  0  0  0  0  0  0  0  0  0  0  0
   -1.2130    0.1938    2.3518 H   0  0  0  0  0  0  0  0  0  0  0  0
    0.1836    0.1337    3.9673 C   0  0  0  0  0  0  0  0  0  0  0  0
    1.0451    0.7976    4.0666 H   0  0  0  0  0  0  0  0  0  0  0  0
   -0.6344    0.5115    4.5820 H   0  0  0  0  0  0  0  0  0  0  0  0
    0.4676   -0.8609    4.3157 H   0  0  0  0  0  0  0  0  0  0  0  0
  5  6  2  0  0  0  0
  5  7  1  0  0  0  0
  2  3  1  0  0  0  0
  2  4  1  0  0  0  0
  2  5  1  0  0  0  0
  1  2  1  0  0  0  0
 18 19  2  0  0  0  0
 18 20  1  0  0  0  0
 16 17  1  0  0  0  0
 14 15  2  0  0  0  0
 14 16  1  0  0  0  0
 11 12  1  0  0  0  0
 11 13  1  0  0  0  0
 11 14  1  0  0  0  0
  9 10  1  0  0  0  0
  9 11  1  0  0  0  0
  9 18  1  0  0  0  0
  7  8  1  0  0  0  0
  7  9  1  0  0  0  0
 22 23  1  0  0  0  0
 22 24  1  0  0  0  0
 22 25  1  0  0  0  0
 20 21  1  0  0  0  0
 20 22  1  0  0  0  0
M  END
$$$$
default_name
  -OEChem-02102213163D

 25 24  0     1  0  0  0  0  0999 V2000
   -2.7826   -3.8464    0.7821 H   0  0  0  0  0  0  0  0  0  0  0  0
   -2.8156   -2.8034    0.4711 C   0  0  0  0  0  0  0  0  0  0  0  0
   -3.4336   -2.2354    1.1641 H   0  0  0  0  0  0  0  0  0  0  0  0
   -3.2256   -2.7344   -0.5349 H   0  0  0  0  0  0  0  0  0  0  0  0
   -1.4126   -2.2444    0.4801 C   0  0  0  0  0  0  0  0  0  0  0  0
   -0.4686   -2.9534    0.8001 O   0  0  0  0  0  0  0  0  0  0  0  0
   -1.2736   -0.9704    0.1241 N   0  0  0  0  0  0  0  0  0  0  0  0
   -2.0996   -0.4354   -0.1019 H   0  0  0  0  0  0  0  0  0  0  0  0
   -0.0016   -0.2394    0.1271 C   0  0  1  0  0  0  0  0  0  0  0  0
    0.6995   -0.7619   -0.5275 H   0  0  0  0  0  0  0  0  0  0  0  0
   -0.2283    1.1832   -0.4215 C   0  0  0  0  0  0  0  0  0  0  0  0
    0.4784    1.8695    0.0465 H   0  0  0  0  0  0  0  0  0  0  0  0
   -0.0455    1.1956   -1.4966 H   0  0  0  0  0  0  0  0  0  0  0  0
   -1.6273    1.7250   -0.1438 C   0  0  0  0  0  0  0  0  0  0  0  0
   -2.5168    1.1302    0.4505 O   0  0  0  0  0  0  0  0  0  0  0  0
   -1.8576    2.9633   -0.6188 O   0  0  0  0  0  0  0  0  0  0  0  0
   -2.7534    3.1814   -0.3596 H   0  0  0  0  0  0  0  0  0  0  0  0
    0.5920   -0.2154    1.5497 C   0  0  0  0  0  0  0  0  0  0  0  0
    1.7860   -0.4596    1.7183 O   0  0  0  0  0  0  0  0  0  0  0  0
   -0.2294    0.0669    2.5672 N   0  0  0  0  0  0  0  0  0  0  0  0
   -1.2130    0.1938    2.3518 H   0  0  0  0  0  0  0  0  0  0  0  0
    0.1836    0.1337    3.9673 C   0  0  0  0  0  0  0  0  0  0  0  0
    1.0451    0.7976    4.0666 H   0  0  0  0  0  0  0  0  0  0  0  0
   -0.6344    0.5115    4.5820 H   0  0  0  0  0  0  0  0  0  0  0  0
    0.4676   -0.8609    4.3157 H   0  0  0  0  0  0  0  0  0  0  0  0
  5  6  2  0  0  0  0
  5  7  1  0  0  0  0
  2  3  1  0  0  0  0
  2  4  1  0  0  0  0
  2  5  1  0  0  0  0
  1  2  1  0  0  0  0
 18 19  2  0  0  0  0
 18 20  1  0  0  0  0
 16 17  1  0  0  0  0
 14 15  2  0  0  0  0
 14 16  1  0  0  0  0
 11 12  1  0  0  0  0
 11 13  1  0  0  0  0
 11 14  1  0  0  0  0
  9 10  1  0  0  0  0
  9 11  1  0  0  0  0
  9 18  1  0  0  0  0
  7  8  1  0  0  0  0
  7  9  1  0  0  0  0
 22 23  1  0  0  0  0
 22 24  1  0  0  0  0
 22 25  1  0  0  0  0
 20 21  1  0  0  0  0
 20 22  1  0  0  0  0
M  END
$$$$
default_name
  -OEChem-02102213163D

 25 24  0     1  0  0  0  0  0999 V2000
   -2.7826   -3.8464    0.7821 H   0  0  0  0  0  0  0  0  0  0  0  0
   -2.8156   -2.8034    0.4711 C   0  0  0  0  0  0  0  0  0  0  0  0
   -3.4336   -2.2354    1.1641 H   0  0  0  0  0  0  0  0  0  0  0  0
   -3.2256   -2.7344   -0.5349 H   0  0  0  0  0  0  0  0  0  0  0  0
   -1.4126   -2.2444    0.4801 C   0  0  0  0  0  0  0  0  0  0  0  0
   -0.4686   -2.9534    0.8001 O   0  0  0  0  0  0  0  0  0  0  0  0
   -1.2736   -0.9704    0.1241 N   0  0  0  0  0  0  0  0  0  0  0  0
   -2.0996   -0.4354   -0.1019 H   0  0  0  0  0  0  0  0  0  0  0  0
   -0.0016   -0.2394    0.1271 C   0  0  1  0  0  0  0  0  0  0  0  0
    0.6995   -0.7619   -0.5275 H   0  0  0  0  0  0  0  0  0  0  0  0
   -0.2283    1.1832   -0.4215 C   0  0  0  0  0  0  0  0  0  0  0  0
    0.4784    1.8695    0.0465 H   0  0  0  0  0  0  0  0  0  0  0  0
   -0.0455    1.1956   -1.4966 H   0  0  0  0  0  0  0  0  0  0  0  0
   -1.6273    1.7250   -0.1438 C   0  0  0  0  0  0  0  0  0  0  0  0
   -2.4261    1.2582    0.6576 O   0  0  0  0  0  0  0  0  0  0  0  0
   -1.9694    2.8043   -0.8718 O   0  0  0  0  0  0  0  0  0  0  0  0
   -2.8507    3.0458   -0.5849 H   0  0  0  0  0  0  0  0  0  0  0  0
    0.5920   -0.2154    1.5497 C   0  0  0  0  0  0  0  0  0  0  0  0
    1.7860   -0.4596    1.7183 O   0  0  0  0  0  0  0  0  0  0  0  0
   -0.2294    0.0669    2.5672 N   0  0  0  0  0  0  0  0  0  0  0  0
   -1.2130    0.1938    2.3518 H   0  0  0  0  0  0  0  0  0  0  0  0
    0.1836    0.1337    3.9673 C   0  0  0  0  0  0  0  0  0  0  0  0
    1.0451    0.7976    4.0666 H   0  0  0  0  0  0  0  0  0  0  0  0
   -0.6344    0.5115    4.5820 H   0  0  0  0  0  0  0  0  0  0  0  0
    0.4676   -0.8609    4.3157 H   0  0  0  0  0  0  0  0  0  0  0  0
  5  6  2  0  0  0  0
  5  7  1  0  0  0  0
  2  3  1  0  0  0  0
  2  4  1  0  0  0  0
  2  5  1  0  0  0  0
  1  2  1  0  0  0  0
 18 19  2  0  0  0  0
 18 20  1  0  0  0  0
 16 17  1  0  0  0  0
 14 15  2  0  0  0  0
 14 16  1  0  0  0  0
 11 12  1  0  0  0  0
 11 13  1  0  0  0  0
 11 14  1  0  0  0  0
  9 10  1  0  0  0  0
  9 11  1  0  0  0  0
  9 18  1  0  0  0  0
  7  8  1  0  0  0  0
  7  9  1  0  0  0  0
 22 23  1  0  0  0  0
 22 24  1  0  0  0  0
 22 25  1  0  0  0  0
 20 21  1  0  0  0  0
 20 22  1  0  0  0  0
M  END
$$$$
default_name
  -OEChem-02102213163D

 25 24  0     1  0  0  0  0  0999 V2000
   -2.7826   -3.8464    0.7821 H   0  0  0  0  0  0  0  0  0  0  0  0
   -2.8156   -2.8034    0.4711 C   0  0  0  0  0  0  0  0  0  0  0  0
   -3.4336   -2.2354    1.1641 H   0  0  0  0  0  0  0  0  0  0  0  0
   -3.2256   -2.7344   -0.5349 H   0  0  0  0  0  0  0  0  0  0  0  0
   -1.4126   -2.2444    0.4801 C   0  0  0  0  0  0  0  0  0  0  0  0
   -0.4686   -2.9534    0.8001 O   0  0  0  0  0  0  0  0  0  0  0  0
   -1.2736   -0.9704    0.1241 N   0  0  0  0  0  0  0  0  0  0  0  0
   -2.0996   -0.4354   -0.1019 H   0  0  0  0  0  0  0  0  0  0  0  0
   -0.0016   -0.2394    0.1271 C   0  0  1  0  0  0  0  0  0  0  0  0
    0.6995   -0.7619   -0.5275 H   0  0  0  0  0  0  0  0  0  0  0  0
   -0.2283    1.1832   -0.4215 C   0  0  0  0  0  0  0  0  0  0  0  0
    0.4784    1.8695    0.0465 H   0  0  0  0  0  0  0  0  0  0  0  0
   -0.0455    1.1956   -1.4966 H   0  0  0  0  0  0  0  0  0  0  0  0
   -1.6273    1.7250   -0.1438 C   0  0  0  0  0  0  0  0  0  0  0  0
   -2.3255    1.4353    0.8189 O   0  0  0  0  0  0  0  0  0  0  0  0
   -2.0931    2.5855   -1.0682 O   0  0  0  0  0  0  0  0  0  0  0  0
   -2.9589    2.8568   -0.7615 H   0  0  0  0  0  0  0  0  0  0  0  0
    0.5920   -0.2154    1.5497 C   0  0  0  0  0  0  0  0  0  0  0  0
    1.7860   -0.4596    1.7183 O   0  0  0  0  0  0  0  0  0  0  0  0
   -0.2294    0.0669    2.5672 N   0  0  0  0  0  0  0  0  0  0  0  0
   -1.2130    0.1938    2.3518 H   0  0  0  0  0  0  0  0  0  0  0  0
    0.1836    0.1337    3.9673 C   0  0  0  0  0  0  0  0  0  0  0  0
    1.0451    0.7976    4.0666 H   0  0  0  0  0  0  0  0  0  0  0  0
   -0.6344    0.5115    4.5820 H   0  0  0  0  0  0  0  0  0  0  0  0
    0.4676   -0.8609    4.3157 H   0  0  0  0  0  0  0  0  0  0  0  0
  5  6  2  0  0  0  0
  5  7  1  0  0  0  0
  2  3  1  0  0  0  0
  2  4  1  0  0  0  0
  2  5  1  0  0  0  0
  1  2  1  0  0  0  0
 18 19  2  0  0  0  0
 18 20  1  0  0  0  0
 16 17  1  0  0  0  0
 14 15  2  0  0  0  0
 14 16  1  0  0  0  0
 11 12  1  0  0  0  0
 11 13  1  0  0  0  0
 11 14  1  0  0  0  0
  9 10  1  0  0  0  0
  9 11  1  0  0  0  0
  9 18  1  0  0  0  0
  7  8  1  0  0  0  0
  7  9  1  0  0  0  0
 22 23  1  0  0  0  0
 22 24  1  0  0  0  0
 22 25  1  0  0  0  0
 20 21  1  0  0  0  0
 20 22  1  0  0  0  0
M  END
$$$$
default_name
  -OEChem-02102213163D

 25 24  0     1  0  0  0  0  0999 V2000
   -2.7826   -3.8464    0.7821 H   0  0  0  0  0  0  0  0  0  0  0  0
   -2.8156   -2.8034    0.4711 C   0  0  0  0  0  0  0  0  0  0  0  0
   -3.4336   -2.2354    1.1641 H   0  0  0  0  0  0  0  0  0  0  0  0
   -3.2256   -2.7344   -0.5349 H   0  0  0  0  0  0  0  0  0  0  0  0
   -1.4126   -2.2444    0.4801 C   0  0  0  0  0  0  0  0  0  0  0  0
   -0.4686   -2.9534    0.8001 O   0  0  0  0  0  0  0  0  0  0  0  0
   -1.2736   -0.9704    0.1241 N   0  0  0  0  0  0  0  0  0  0  0  0
   -2.0996   -0.4354   -0.1019 H   0  0  0  0  0  0  0  0  0  0  0  0
   -0.0016   -0.2394    0.1271 C   0  0  1  0  0  0  0  0  0  0  0  0
    0.6995   -0.7619   -0.5275 H   0  0  0  0  0  0  0  0  0  0  0  0
   -0.2283    1.1832   -0.4215 C   0  0  0  0  0  0  0  0  0  0  0  0
    0.4784    1.8695    0.0465 H   0  0  0  0  0  0  0  0  0  0  0  0
   -0.0455    1.1956   -1.4966 H   0  0  0  0  0  0  0  0  0  0  0  0
   -1.6273    1.7250   -0.1438 C   0  0  0  0  0  0  0  0  0  0  0  0
   -2.2218    1.6494    0.9234 O   0  0  0  0  0  0  0  0  0  0  0  0
   -2.2204    2.3217   -1.1946 O   0  0  0  0  0  0  0  0  0  0  0  0
   -3.0708    2.6272   -0.8773 H   0  0  0  0  0  0  0  0  0  0  0  0
    0.5920   -0.2154    1.5497 C   0  0  0  0  0  0  0  0  0  0  0  0
    1.7860   -0.4596    1.7183 O   0  0  0  0  0  0  0  0  0  0  0  0
   -0.2294    0.0669    2.5672 N   0  0  0  0  0  0  0  0  0  0  0  0
   -1.2130    0.1938    2.3518 H   0  0  0  0  0  0  0  0  0  0  0  0
    0.1836    0.1337    3.9673 C   0  0  0  0  0  0  0  0  0  0  0  0
    1.0451    0.7976    4.0666 H   0  0  0  0  0  0  0  0  0  0  0  0
   -0.6344    0.5115    4.5820 H   0  0  0  0  0  0  0  0  0  0  0  0
    0.4676   -0.8609    4.3157 H   0  0  0  0  0  0  0  0  0  0  0  0
  5  6  2  0  0  0  0
  5  7  1  0  0  0  0
  2  3  1  0  0  0  0
  2  4  1  0  0  0  0
  2  5  1  0  0  0  0
  1  2  1  0  0  0  0
 18 19  2  0  0  0  0
 18 20  1  0  0  0  0
 16 17  1  0  0  0  0
 14 15  2  0  0  0  0
 14 16  1  0  0  0  0
 11 12  1  0  0  0  0
 11 13  1  0  0  0  0
 11 14  1  0  0  0  0
  9 10  1  0  0  0  0
  9 11  1  0  0  0  0
  9 18  1  0  0  0  0
  7  8  1  0  0  0  0
  7  9  1  0  0  0  0
 22 23  1  0  0  0  0
 22 24  1  0  0  0  0
 22 25  1  0  0  0  0
 20 21  1  0  0  0  0
 20 22  1  0  0  0  0
M  END
$$$$
default_name
  -OEChem-02102213163D

 25 24  0     1  0  0  0  0  0999 V2000
   -2.7826   -3.8464    0.7821 H   0  0  0  0  0  0  0  0  0  0  0  0
   -2.8156   -2.8034    0.4711 C   0  0  0  0  0  0  0  0  0  0  0  0
   -3.4336   -2.2354    1.1641 H   0  0  0  0  0  0  0  0  0  0  0  0
   -3.2256   -2.7344   -0.5349 H   0  0  0  0  0  0  0  0  0  0  0  0
   -1.4126   -2.2444    0.4801 C   0  0  0  0  0  0  0  0  0  0  0  0
   -0.4686   -2.9534    0.8001 O   0  0  0  0  0  0  0  0  0  0  0  0
   -1.2736   -0.9704    0.1241 N   0  0  0  0  0  0  0  0  0  0  0  0
   -2.0996   -0.4354   -0.1019 H   0  0  0  0  0  0  0  0  0  0  0  0
   -0.0016   -0.2394    0.1271 C   0  0  1  0  0  0  0  0  0  0  0  0
    0.6995   -0.7619   -0.5275 H   0  0  0  0  0  0  0  0  0  0  0  0
   -0.2283    1.1832   -0.4215 C   0  0  0  0  0  0  0  0  0  0  0  0
    0.4784    1.8695    0.0465 H   0  0  0  0  0  0  0  0  0  0  0  0
   -0.0455    1.1956   -1.4966 H   0  0  0  0  0  0  0  0  0  0  0  0
   -1.6273    1.7250   -0.1438 C   0  0  0  0  0  0  0  0  0  0  0  0
   -2.1221    1.8858    0.9641 O   0  0  0  0  0  0  0  0  0  0  0  0
   -2.3425    2.0309   -1.2424 O   0  0  0  0  0  0  0  0  0  0  0  0
   -3.1788    2.3726   -0.9243 H   0  0  0  0  0  0  0  0  0  0  0  0
    0.5920   -0.2154    1.5497 C   0  0  0  0  0  0  0  0  0  0  0  0
    1.7860   -0.4596    1.7183 O   0  0  0  0  0  0  0  0  0  0  0  0
   -0.2294    0.0669    2.5672 N   0  0  0  0  0  0  0  0  0  0  0  0
   -1.2130    0.1938    2.3518 H   0  0  0  0  0  0  0  0  0  0  0  0
    0.1836    0.1337    3.9673 C   0  0  0  0  0  0  0  0  0  0  0  0
    1.0451    0.7976    4.0666 H   0  0  0  0  0  0  0  0  0  0  0  0
   -0.6344    0.5115    4.5820 H   0  0  0  0  0  0  0  0  0  0  0  0
    0.4676   -0.8609    4.3157 H   0  0  0  0  0  0  0  0  0  0  0  0
  5  6  2  0  0  0  0
  5  7  1  0  0  0  0
  2  3  1  0  0  0  0
  2  4  1  0  0  0  0
  2  5  1  0  0  0  0
  1  2  1  0  0  0  0
 18 19  2  0  0  0  0
 18 20  1  0  0  0  0
 16 17  1  0  0  0  0
 14 15  2  0  0  0  0
 14 16  1  0  0  0  0
 11 12  1  0  0  0  0
 11 13  1  0  0  0  0
 11 14  1  0  0  0  0
  9 10  1  0  0  0  0
  9 11  1  0  0  0  0
  9 18  1  0  0  0  0
  7  8  1  0  0  0  0
  7  9  1  0  0  0  0
 22 23  1  0  0  0  0
 22 24  1  0  0  0  0
 22 25  1  0  0  0  0
 20 21  1  0  0  0  0
 20 22  1  0  0  0  0
M  END
$$$$
default_name
  -OEChem-02102213163D

 25 24  0     1  0  0  0  0  0999 V2000
   -2.7826   -3.8464    0.7821 H   0  0  0  0  0  0  0  0  0  0  0  0
   -2.8156   -2.8034    0.4711 C   0  0  0  0  0  0  0  0  0  0  0  0
   -3.4336   -2.2354    1.1641 H   0  0  0  0  0  0  0  0  0  0  0  0
   -3.2256   -2.7344   -0.5349 H   0  0  0  0  0  0  0  0  0  0  0  0
   -1.4126   -2.2444    0.4801 C   0  0  0  0  0  0  0  0  0  0  0  0
   -0.4686   -2.9534    0.8001 O   0  0  0  0  0  0  0  0  0  0  0  0
   -1.2736   -0.9704    0.1241 N   0  0  0  0  0  0  0  0  0  0  0  0
   -2.0996   -0.4354   -0.1019 H   0  0  0  0  0  0  0  0  0  0  0  0
   -0.0016   -0.2394    0.1271 C   0  0  1  0  0  0  0  0  0  0  0  0
    0.6995   -0.7619   -0.5275 H   0  0  0  0  0  0  0  0  0  0  0  0
   -0.2283    1.1832   -0.4215 C   0  0  0  0  0  0  0  0  0  0  0  0
    0.4784    1.8695    0.0465 H   0  0  0  0  0  0  0  0  0  0  0  0
   -0.0455    1.1956   -1.4966 H   0  0  0  0  0  0  0  0  0  0  0  0
   -1.6273    1.7250   -0.1438 C   0  0  0  0  0  0  0  0  0  0  0  0
   -2.0333    2.1286    0.9381 O   0  0  0  0  0  0  0  0  0  0  0  0
   -2.4512    1.7329   -1.2083 O   0  0  0  0  0  0  0  0  0  0  0  0
   -3.2753    2.1105   -0.8995 H   0  0  0  0  0  0  0  0  0  0  0  0
    0.5920   -0.2154    1.5497 C   0  0  0  0  0  0  0  0  0  0  0  0
    1.7860   -0.4596    1.7183 O   0  0  0  0  0  0  0  0  0  0  0  0
   -0.2294    0.0669    2.5672 N   0  0  0  0  0  0  0  0  0  0  0  0
   -1.2130    0.1938    2.3518 H   0  0  0  0  0  0  0  0  0  0  0  0
    0.1836    0.1337    3.9673 C   0  0  0  0  0  0  0  0  0  0  0  0
    1.0451    0.7976    4.0666 H   0  0  0  0  0  0  0  0  0  0  0  0
   -0.6344    0.5115    4.5820 H   0  0  0  0  0  0  0  0  0  0  0  0
    0.4676   -0.8609    4.3157 H   0  0  0  0  0  0  0  0  0  0  0  0
  5  6  2  0  0  0  0
  5  7  1  0  0  0  0
  2  3  1  0  0  0  0
  2  4  1  0  0  0  0
  2  5  1  0  0  0  0
  1  2  1  0  0  0  0
 18 19  2  0  0  0  0
 18 20  1  0  0  0  0
 16 17  1  0  0  0  0
 14 15  2  0  0  0  0
 14 16  1  0  0  0  0
 11 12  1  0  0  0  0
 11 13  1  0  0  0  0
 11 14  1  0  0  0  0
  9 10  1  0  0  0  0
  9 11  1  0  0  0  0
  9 18  1  0  0  0  0
  7  8  1  0  0  0  0
  7  9  1  0  0  0  0
 22 23  1  0  0  0  0
 22 24  1  0  0  0  0
 22 25  1  0  0  0  0
 20 21  1  0  0  0  0
 20 22  1  0  0  0  0
M  END
$$$$
default_name
  -OEChem-02102213163D

 25 24  0     1  0  0  0  0  0999 V2000
   -2.7826   -3.8464    0.7821 H   0  0  0  0  0  0  0  0  0  0  0  0
   -2.8156   -2.8034    0.4711 C   0  0  0  0  0  0  0  0  0  0  0  0
   -3.4336   -2.2354    1.1641 H   0  0  0  0  0  0  0  0  0  0  0  0
   -3.2256   -2.7344   -0.5349 H   0  0  0  0  0  0  0  0  0  0  0  0
   -1.4126   -2.2444    0.4801 C   0  0  0  0  0  0  0  0  0  0  0  0
   -0.4686   -2.9534    0.8001 O   0  0  0  0  0  0  0  0  0  0  0  0
   -1.2736   -0.9704    0.1241 N   0  0  0  0  0  0  0  0  0  0  0  0
   -2.0996   -0.4354   -0.1019 H   0  0  0  0  0  0  0  0  0  0  0  0
   -0.0016   -0.2394    0.1271 C   0  0  1  0  0  0  0  0  0  0  0  0
    0.6995   -0.7619   -0.5275 H   0  0  0  0  0  0  0  0  0  0  0  0
   -0.2283    1.1832   -0.4215 C   0  0  0  0  0  0  0  0  0  0  0  0
    0.4784    1.8695    0.0465 H   0  0  0  0  0  0  0  0  0  0  0  0
   -0.0455    1.1956   -1.4966 H   0  0  0  0  0  0  0  0  0  0  0  0
   -1.6273    1.7250   -0.1438 C   0  0  0  0  0  0  0  0  0  0  0  0
   -1.9613    2.3611    0.8472 O   0  0  0  0  0  0  0  0  0  0  0  0
   -2.5390    1.4480   -1.0947 O   0  0  0  0  0  0  0  0  0  0  0  0
   -3.3540    1.8587   -0.8043 H   0  0  0  0  0  0  0  0  0  0  0  0
    0.5920   -0.2154    1.5497 C   0  0  0  0  0  0  0  0  0  0  0  0
    1.7860   -0.4596    1.7183 O   0  0  0  0  0  0  0  0  0  0  0  0
   -0.2294    0.0669    2.5672 N   0  0  0  0  0  0  0  0  0  0  0  0
   -1.2130    0.1938    2.3518 H   0  0  0  0  0  0  0  0  0  0  0  0
    0.1836    0.1337    3.9673 C   0  0  0  0  0  0  0  0  0  0  0  0
    1.0451    0.7976    4.0666 H   0  0  0  0  0  0  0  0  0  0  0  0
   -0.6344    0.5115    4.5820 H   0  0  0  0  0  0  0  0  0  0  0  0
    0.4676   -0.8609    4.3157 H   0  0  0  0  0  0  0  0  0  0  0  0
  5  6  2  0  0  0  0
  5  7  1  0  0  0  0
  2  3  1  0  0  0  0
  2  4  1  0  0  0  0
  2  5  1  0  0  0  0
  1  2  1  0  0  0  0
 18 19  2  0  0  0  0
 18 20  1  0  0  0  0
 16 17  1  0  0  0  0
 14 15  2  0  0  0  0
 14 16  1  0  0  0  0
 11 12  1  0  0  0  0
 11 13  1  0  0  0  0
 11 14  1  0  0  0  0
  9 10  1  0  0  0  0
  9 11  1  0  0  0  0
  9 18  1  0  0  0  0
  7  8  1  0  0  0  0
  7  9  1  0  0  0  0
 22 23  1  0  0  0  0
 22 24  1  0  0  0  0
 22 25  1  0  0  0  0
 20 21  1  0  0  0  0
 20 22  1  0  0  0  0
M  END
$$$$
default_name
  -OEChem-02102213163D

 25 24  0     1  0  0  0  0  0999 V2000
   -2.7826   -3.8464    0.7821 H   0  0  0  0  0  0  0  0  0  0  0  0
   -2.8156   -2.8034    0.4711 C   0  0  0  0  0  0  0  0  0  0  0  0
   -3.4336   -2.2354    1.1641 H   0  0  0  0  0  0  0  0  0  0  0  0
   -3.2256   -2.7344   -0.5349 H   0  0  0  0  0  0  0  0  0  0  0  0
   -1.4126   -2.2444    0.4801 C   0  0  0  0  0  0  0  0  0  0  0  0
   -0.4686   -2.9534    0.8001 O   0  0  0  0  0  0  0  0  0  0  0  0
   -1.2736   -0.9704    0.1241 N   0  0  0  0  0  0  0  0  0  0  0  0
   -2.0996   -0.4354   -0.1019 H   0  0  0  0  0  0  0  0  0  0  0  0
   -0.0016   -0.2394    0.1271 C   0  0  1  0  0  0  0  0  0  0  0  0
    0.6995   -0.7619   -0.5275 H   0  0  0  0  0  0  0  0  0  0  0  0
   -0.2283    1.1832   -0.4215 C   0  0  0  0  0  0  0  0  0  0  0  0
    0.4784    1.8695    0.0465 H   0  0  0  0  0  0  0  0  0  0  0  0
   -0.0455    1.1956   -1.4966 H   0  0  0  0  0  0  0  0  0  0  0  0
   -1.6273    1.7250   -0.1438 C   0  0  0  0  0  0  0  0  0  0  0  0
   -1.9110    2.5675    0.6976 O   0  0  0  0  0  0  0  0  0  0  0  0
   -2.5999    1.1957   -0.9092 O   0  0  0  0  0  0  0  0  0  0  0  0
   -3.4094    1.6343   -0.6455 H   0  0  0  0  0  0  0  0  0  0  0  0
    0.5920   -0.2154    1.5497 C   0  0  0  0  0  0  0  0  0  0  0  0
    1.7860   -0.4596    1.7183 O   0  0  0  0  0  0  0  0  0  0  0  0
   -0.2294    0.0669    2.5672 N   0  0  0  0  0  0  0  0  0  0  0  0
   -1.2130    0.1938    2.3518 H   0  0  0  0  0  0  0  0  0  0  0  0
    0.1836    0.1337    3.9673 C   0  0  0  0  0  0  0  0  0  0  0  0
    1.0451    0.7976    4.0666 H   0  0  0  0  0  0  0  0  0  0  0  0
   -0.6344    0.5115    4.5820 H   0  0  0  0  0  0  0  0  0  0  0  0
    0.4676   -0.8609    4.3157 H   0  0  0  0  0  0  0  0  0  0  0  0
  5  6  2  0  0  0  0
  5  7  1  0  0  0  0
  2  3  1  0  0  0  0
  2  4  1  0  0  0  0
  2  5  1  0  0  0  0
  1  2  1  0  0  0  0
 18 19  2  0  0  0  0
 18 20  1  0  0  0  0
 16 17  1  0  0  0  0
 14 15  2  0  0  0  0
 14 16  1  0  0  0  0
 11 12  1  0  0  0  0
 11 13  1  0  0  0  0
 11 14  1  0  0  0  0
  9 10  1  0  0  0  0
  9 11  1  0  0  0  0
  9 18  1  0  0  0  0
  7  8  1  0  0  0  0
  7  9  1  0  0  0  0
 22 23  1  0  0  0  0
 22 24  1  0  0  0  0
 22 25  1  0  0  0  0
 20 21  1  0  0  0  0
 20 22  1  0  0  0  0
M  END
$$$$
default_name
  -OEChem-02102213163D

 25 24  0     1  0  0  0  0  0999 V2000
   -2.7826   -3.8464    0.7821 H   0  0  0  0  0  0  0  0  0  0  0  0
   -2.8156   -2.8034    0.4711 C   0  0  0  0  0  0  0  0  0  0  0  0
   -3.4336   -2.2354    1.1641 H   0  0  0  0  0  0  0  0  0  0  0  0
   -3.2256   -2.7344   -0.5349 H   0  0  0  0  0  0  0  0  0  0  0  0
   -1.4126   -2.2444    0.4801 C   0  0  0  0  0  0  0  0  0  0  0  0
   -0.4686   -2.9534    0.8001 O   0  0  0  0  0  0  0  0  0  0  0  0
   -1.2736   -0.9704    0.1241 N   0  0  0  0  0  0  0  0  0  0  0  0
   -2.0996   -0.4354   -0.1019 H   0  0  0  0  0  0  0  0  0  0  0  0
   -0.0016   -0.2394    0.1271 C   0  0  1  0  0  0  0  0  0  0  0  0
    0.6995   -0.7619   -0.5275 H   0  0  0  0  0  0  0  0  0  0  0  0
   -0.2283    1.1832   -0.4215 C   0  0  0  0  0  0  0  0  0  0  0  0
    0.4784    1.8695    0.0465 H   0  0  0  0  0  0  0  0  0  0  0  0
   -0.0455    1.1956   -1.4966 H   0  0  0  0  0  0  0  0  0  0  0  0
   -1.6273    1.7250   -0.1438 C   0  0  0  0  0  0  0  0  0  0  0  0
   -1.8860    2.7337    0.4995 O   0  0  0  0  0  0  0  0  0  0  0  0
   -2.6298    0.9931   -0.6646 O   0  0  0  0  0  0  0  0  0  0  0  0
   -3.4377    1.4527   -0.4337 H   0  0  0  0  0  0  0  0  0  0  0  0
    0.5920   -0.2154    1.5497 C   0  0  0  0  0  0  0  0  0  0  0  0
    1.7860   -0.4596    1.7183 O   0  0  0  0  0  0  0  0  0  0  0  0
   -0.2294    0.0669    2.5672 N   0  0  0  0  0  0  0  0  0  0  0  0
   -1.2130    0.1938    2.3518 H   0  0  0  0  0  0  0  0  0  0  0  0
    0.1836    0.1337    3.9673 C   0  0  0  0  0  0  0  0  0  0  0  0
    1.0451    0.7976    4.0666 H   0  0  0  0  0  0  0  0  0  0  0  0
   -0.6344    0.5115    4.5820 H   0  0  0  0  0  0  0  0  0  0  0  0
    0.4676   -0.8609    4.3157 H   0  0  0  0  0  0  0  0  0  0  0  0
  5  6  2  0  0  0  0
  5  7  1  0  0  0  0
  2  3  1  0  0  0  0
  2  4  1  0  0  0  0
  2  5  1  0  0  0  0
  1  2  1  0  0  0  0
 18 19  2  0  0  0  0
 18 20  1  0  0  0  0
 16 17  1  0  0  0  0
 14 15  2  0  0  0  0
 14 16  1  0  0  0  0
 11 12  1  0  0  0  0
 11 13  1  0  0  0  0
 11 14  1  0  0  0  0
  9 10  1  0  0  0  0
  9 11  1  0  0  0  0
  9 18  1  0  0  0  0
  7  8  1  0  0  0  0
  7  9  1  0  0  0  0
 22 23  1  0  0  0  0
 22 24  1  0  0  0  0
 22 25  1  0  0  0  0
 20 21  1  0  0  0  0
 20 22  1  0  0  0  0
M  END
$$$$
default_name
  -OEChem-02102213163D

 25 24  0     1  0  0  0  0  0999 V2000
   -2.7826   -3.8464    0.7821 H   0  0  0  0  0  0  0  0  0  0  0  0
   -2.8156   -2.8034    0.4711 C   0  0  0  0  0  0  0  0  0  0  0  0
   -3.4336   -2.2354    1.1641 H   0  0  0  0  0  0  0  0  0  0  0  0
   -3.2256   -2.7344   -0.5349 H   0  0  0  0  0  0  0  0  0  0  0  0
   -1.4126   -2.2444    0.4801 C   0  0  0  0  0  0  0  0  0  0  0  0
   -0.4686   -2.9534    0.8001 O   0  0  0  0  0  0  0  0  0  0  0  0
   -1.2736   -0.9704    0.1241 N   0  0  0  0  0  0  0  0  0  0  0  0
   -2.0996   -0.4354   -0.1019 H   0  0  0  0  0  0  0  0  0  0  0  0
   -0.0016   -0.2394    0.1271 C   0  0  1  0  0  0  0  0  0  0  0  0
    0.6995   -0.7619   -0.5275 H   0  0  0  0  0  0  0  0  0  0  0  0
   -0.2283    1.1832   -0.4215 C   0  0  0  0  0  0  0  0  0  0  0  0
    0.4784    1.8695    0.0465 H   0  0  0  0  0  0  0  0  0  0  0  0
   -0.0455    1.1956   -1.4966 H   0  0  0  0  0  0  0  0  0  0  0  0
   -1.6273    1.7250   -0.1438 C   0  0  0  0  0  0  0  0  0  0  0  0
   -1.8878    2.8485    0.2664 O   0  0  0  0  0  0  0  0  0  0  0  0
   -2.6267    0.8541   -0.3775 O   0  0  0  0  0  0  0  0  0  0  0  0
   -3.4370    1.3262   -0.1834 H   0  0  0  0  0  0  0  0  0  0  0  0
    0.5920   -0.2154    1.5497 C   0  0  0  0  0  0  0  0  0  0  0  0
    1.7860   -0.4596    1.7183 O   0  0  0  0  0  0  0  0  0  0  0  0
   -0.2294    0.0669    2.5672 N   0  0  0  0  0  0  0  0  0  0  0  0
   -1.2130    0.1938    2.3518 H   0  0  0  0  0  0  0  0  0  0  0  0
    0.1836    0.1337    3.9673 C   0  0  0  0  0  0  0  0  0  0  0  0
    1.0451    0.7976    4.0666 H   0  0  0  0  0  0  0  0  0  0  0  0
   -0.6344    0.5115    4.5820 H   0  0  0  0  0  0  0  0  0  0  0  0
    0.4676   -0.8609    4.3157 H   0  0  0  0  0  0  0  0  0  0  0  0
  5  6  2  0  0  0  0
  5  7  1  0  0  0  0
  2  3  1  0  0  0  0
  2  4  1  0  0  0  0
  2  5  1  0  0  0  0
  1  2  1  0  0  0  0
 18 19  2  0  0  0  0
 18 20  1  0  0  0  0
 16 17  1  0  0  0  0
 14 15  2  0  0  0  0
 14 16  1  0  0  0  0
 11 12  1  0  0  0  0
 11 13  1  0  0  0  0
 11 14  1  0  0  0  0
  9 10  1  0  0  0  0
  9 11  1  0  0  0  0
  9 18  1  0  0  0  0
  7  8  1  0  0  0  0
  7  9  1  0  0  0  0
 22 23  1  0  0  0  0
 22 24  1  0  0  0  0
 22 25  1  0  0  0  0
 20 21  1  0  0  0  0
 20 22  1  0  0  0  0
M  END
$$$$
default_name
  -OEChem-02102213163D

 25 24  0     1  0  0  0  0  0999 V2000
   -2.7826   -3.8464    0.7821 H   0  0  0  0  0  0  0  0  0  0  0  0
   -2.8156   -2.8034    0.4711 C   0  0  0  0  0  0  0  0  0  0  0  0
   -3.4336   -2.2354    1.1641 H   0  0  0  0  0  0  0  0  0  0  0  0
   -3.2256   -2.7344   -0.5349 H   0  0  0  0  0  0  0  0  0  0  0  0
   -1.4126   -2.2444    0.4801 C   0  0  0  0  0  0  0  0  0  0  0  0
   -0.4686   -2.9534    0.8001 O   0  0  0  0  0  0  0  0  0  0  0  0
   -1.2736   -0.9704    0.1241 N   0  0  0  0  0  0  0  0  0  0  0  0
   -2.0996   -0.4354   -0.1019 H   0  0  0  0  0  0  0  0  0  0  0  0
   -0.0016   -0.2394    0.1271 C   0  0  1  0  0  0  0  0  0  0  0  0
    0.6995   -0.7619   -0.5275 H   0  0  0  0  0  0  0  0  0  0  0  0
   -0.2283    1.1832   -0.4215 C   0  0  0  0  0  0  0  0  0  0  0  0
    0.4784    1.8695    0.0465 H   0  0  0  0  0  0  0  0  0  0  0  0
   -0.0455    1.1956   -1.4966 H   0  0  0  0  0  0  0  0  0  0  0  0
   -1.6273    1.7250   -0.1438 C   0  0  0  0  0  0  0  0  0  0  0  0
   -1.9164    2.9039    0.0142 O   0  0  0  0  0  0  0  0  0  0  0  0
   -2.5907    0.7881   -0.0675 O   0  0  0  0  0  0  0  0  0  0  0  0
   -3.4074    1.2634    0.0883 H   0  0  0  0  0  0  0  0  0  0  0  0
    0.5920   -0.2154    1.5497 C   0  0  0  0  0  0  0  0  0  0  0  0
    1.7860   -0.4596    1.7183 O   0  0  0  0  0  0  0  0  0  0  0  0
   -0.2294    0.0669    2.5672 N   0  0  0  0  0  0  0  0  0  0  0  0
   -1.2130    0.1938    2.3518 H   0  0  0  0  0  0  0  0  0  0  0  0
    0.1836    0.1337    3.9673 C   0  0  0  0  0  0  0  0  0  0  0  0
    1.0451    0.7976    4.0666 H   0  0  0  0  0  0  0  0  0  0  0  0
   -0.6344    0.5115    4.5820 H   0  0  0  0  0  0  0  0  0  0  0  0
    0.4676   -0.8609    4.3157 H   0  0  0  0  0  0  0  0  0  0  0  0
  5  6  2  0  0  0  0
  5  7  1  0  0  0  0
  2  3  1  0  0  0  0
  2  4  1  0  0  0  0
  2  5  1  0  0  0  0
  1  2  1  0  0  0  0
 18 19  2  0  0  0  0
 18 20  1  0  0  0  0
 16 17  1  0  0  0  0
 14 15  2  0  0  0  0
 14 16  1  0  0  0  0
 11 12  1  0  0  0  0
 11 13  1  0  0  0  0
 11 14  1  0  0  0  0
  9 10  1  0  0  0  0
  9 11  1  0  0  0  0
  9 18  1  0  0  0  0
  7  8  1  0  0  0  0
  7  9  1  0  0  0  0
 22 23  1  0  0  0  0
 22 24  1  0  0  0  0
 22 25  1  0  0  0  0
 20 21  1  0  0  0  0
 20 22  1  0  0  0  0
M  END
$$$$
default_name
  -OEChem-02102213163D

 25 24  0     1  0  0  0  0  0999 V2000
   -2.7826   -3.8464    0.7821 H   0  0  0  0  0  0  0  0  0  0  0  0
   -2.8156   -2.8034    0.4711 C   0  0  0  0  0  0  0  0  0  0  0  0
   -3.4336   -2.2354    1.1641 H   0  0  0  0  0  0  0  0  0  0  0  0
   -3.2256   -2.7344   -0.5349 H   0  0  0  0  0  0  0  0  0  0  0  0
   -1.4126   -2.2444    0.4801 C   0  0  0  0  0  0  0  0  0  0  0  0
   -0.4686   -2.9534    0.8001 O   0  0  0  0  0  0  0  0  0  0  0  0
   -1.2736   -0.9704    0.1241 N   0  0  0  0  0  0  0  0  0  0  0  0
   -2.0996   -0.4354   -0.1019 H   0  0  0  0  0  0  0  0  0  0  0  0
   -0.0016   -0.2394    0.1271 C   0  0  1  0  0  0  0  0  0  0  0  0
    0.6995   -0.7619   -0.5275 H   0  0  0  0  0  0  0  0  0  0  0  0
   -0.2283    1.1832   -0.4215 C   0  0  0  0  0  0  0  0  0  0  0  0
    0.4784    1.8695    0.0465 H   0  0  0  0  0  0  0  0  0  0  0  0
   -0.0455    1.1956   -1.4966 H   0  0  0  0  0  0  0  0  0  0  0  0
   -1.6273    1.7250   -0.1438 C   0  0  0  0  0  0  0  0  0  0  0  0
   -1.9698    2.8962   -0.2400 O   0  0  0  0  0  0  0  0  0  0  0  0
   -2.5244    0.7995    0.2443 O   0  0  0  0  0  0  0  0  0  0  0  0
   -3.3508    1.2687    0.3629 H   0  0  0  0  0  0  0  0  0  0  0  0
    0.5920   -0.2154    1.5497 C   0  0  0  0  0  0  0  0  0  0  0  0
    1.7860   -0.4596    1.7183 O   0  0  0  0  0  0  0  0  0  0  0  0
   -0.2294    0.0669    2.5672 N   0  0  0  0  0  0  0  0  0  0  0  0
   -1.2130    0.1938    2.3518 H   0  0  0  0  0  0  0  0  0  0  0  0
    0.1836    0.1337    3.9673 C   0  0  0  0  0  0  0  0  0  0  0  0
    1.0451    0.7976    4.0666 H   0  0  0  0  0  0  0  0  0  0  0  0
   -0.6344    0.5115    4.5820 H   0  0  0  0  0  0  0  0  0  0  0  0
    0.4676   -0.8609    4.3157 H   0  0  0  0  0  0  0  0  0  0  0  0
  5  6  2  0  0  0  0
  5  7  1  0  0  0  0
  2  3  1  0  0  0  0
  2  4  1  0  0  0  0
  2  5  1  0  0  0  0
  1  2  1  0  0  0  0
 18 19  2  0  0  0  0
 18 20  1  0  0  0  0
 16 17  1  0  0  0  0
 14 15  2  0  0  0  0
 14 16  1  0  0  0  0
 11 12  1  0  0  0  0
 11 13  1  0  0  0  0
 11 14  1  0  0  0  0
  9 10  1  0  0  0  0
  9 11  1  0  0  0  0
  9 18  1  0  0  0  0
  7  8  1  0  0  0  0
  7  9  1  0  0  0  0
 22 23  1  0  0  0  0
 22 24  1  0  0  0  0
 22 25  1  0  0  0  0
 20 21  1  0  0  0  0
 20 22  1  0  0  0  0
M  END
$$$$
default_name
  -OEChem-02102213163D

 25 24  0     1  0  0  0  0  0999 V2000
   -2.7826   -3.8464    0.7821 H   0  0  0  0  0  0  0  0  0  0  0  0
   -2.8156   -2.8034    0.4711 C   0  0  0  0  0  0  0  0  0  0  0  0
   -3.4336   -2.2354    1.1641 H   0  0  0  0  0  0  0  0  0  0  0  0
   -3.2256   -2.7344   -0.5349 H   0  0  0  0  0  0  0  0  0  0  0  0
   -1.4126   -2.2444    0.4801 C   0  0  0  0  0  0  0  0  0  0  0  0
   -0.4686   -2.9534    0.8001 O   0  0  0  0  0  0  0  0  0  0  0  0
   -1.2736   -0.9704    0.1241 N   0  0  0  0  0  0  0  0  0  0  0  0
   -2.0996   -0.4354   -0.1019 H   0  0  0  0  0  0  0  0  0  0  0  0
   -0.0016   -0.2394    0.1271 C   0  0  1  0  0  0  0  0  0  0  0  0
    0.6995   -0.7619   -0.5275 H   0  0  0  0  0  0  0  0  0  0  0  0
   -0.2283    1.1832   -0.4215 C   0  0  0  0  0  0  0  0  0  0  0  0
    0.6276    1.8103   -0.1688 H   0  0  0  0  0  0  0  0  0  0  0  0
   -0.3092    1.1490   -1.5086 H   0  0  0  0  0  0  0  0  0  0  0  0
   -1.4664    1.8651    0.1529 C   0  0  0  0  0  0  0  0  0  0  0  0
   -1.8539    2.9918   -0.1274 O   0  0  0  0  0  0  0  0  0  0  0  0
   -2.1539    1.1282    1.0452 O   0  0  0  0  0  0  0  0  0  0  0  0
   -2.9049    1.6632    1.3043 H   0  0  0  0  0  0  0  0  0  0  0  0
    0.5920   -0.2154    1.5497 C   0  0  0  0  0  0  0  0  0  0  0  0
    1.7860   -0.4596    1.7183 O   0  0  0  0  0  0  0  0  0  0  0  0
   -0.2294    0.0669    2.5672 N   0  0  0  0  0  0  0  0  0  0  0  0
   -1.2130    0.1938    2.3518 H   0  0  0  0  0  0  0  0  0  0  0  0
    0.1836    0.1337    3.9673 C   0  0  0  0  0  0  0  0  0  0  0  0
    1.0451    0.7976    4.0666 H   0  0  0  0  0  0  0  0  0  0  0  0
   -0.6344    0.5115    4.5820 H   0  0  0  0  0  0  0  0  0  0  0  0
    0.4676   -0.8609    4.3157 H   0  0  0  0  0  0  0  0  0  0  0  0
  5  6  2  0  0  0  0
  5  7  1  0  0  0  0
  2  3  1  0  0  0  0
  2  4  1  0  0  0  0
  2  5  1  0  0  0  0
  1  2  1  0  0  0  0
 18 19  2  0  0  0  0
 18 20  1  0  0  0  0
 16 17  1  0  0  0  0
 14 15  2  0  0  0  0
 14 16  1  0  0  0  0
 11 12  1  0  0  0  0
 11 13  1  0  0  0  0
 11 14  1  0  0  0  0
  9 10  1  0  0  0  0
  9 11  1  0  0  0  0
  9 18  1  0  0  0  0
  7  8  1  0  0  0  0
  7  9  1  0  0  0  0
 22 23  1  0  0  0  0
 22 24  1  0  0  0  0
 22 25  1  0  0  0  0
 20 21  1  0  0  0  0
 20 22  1  0  0  0  0
M  END
$$$$
default_name
  -OEChem-02102213163D

 25 24  0     1  0  0  0  0  0999 V2000
   -2.7826   -3.8464    0.7821 H   0  0  0  0  0  0  0  0  0  0  0  0
   -2.8156   -2.8034    0.4711 C   0  0  0  0  0  0  0  0  0  0  0  0
   -3.4336   -2.2354    1.1641 H   0  0  0  0  0  0  0  0  0  0  0  0
   -3.2256   -2.7344   -0.5349 H   0  0  0  0  0  0  0  0  0  0  0  0
   -1.4126   -2.2444    0.4801 C   0  0  0  0  0  0  0  0  0  0  0  0
   -0.4686   -2.9534    0.8001 O   0  0  0  0  0  0  0  0  0  0  0  0
   -1.2736   -0.9704    0.1241 N   0  0  0  0  0  0  0  0  0  0  0  0
   -2.0996   -0.4354   -0.1019 H   0  0  0  0  0  0  0  0  0  0  0  0
   -0.0016   -0.2394    0.1271 C   0  0  1  0  0  0  0  0  0  0  0  0
    0.6995   -0.7619   -0.5275 H   0  0  0  0  0  0  0  0  0  0  0  0
   -0.2283    1.1832   -0.4215 C   0  0  0  0  0  0  0  0  0  0  0  0
    0.6276    1.8103   -0.1688 H   0  0  0  0  0  0  0  0  0  0  0  0
   -0.3092    1.1490   -1.5086 H   0  0  0  0  0  0  0  0  0  0  0  0
   -1.4664    1.8651    0.1529 C   0  0  0  0  0  0  0  0  0  0  0  0
   -2.0026    2.8676   -0.3005 O   0  0  0  0  0  0  0  0  0  0  0  0
   -1.9711    1.2823    1.2563 O   0  0  0  0  0  0  0  0  0  0  0  0
   -2.7447    1.7947    1.4933 H   0  0  0  0  0  0  0  0  0  0  0  0
    0.5920   -0.2154    1.5497 C   0  0  0  0  0  0  0  0  0  0  0  0
    1.7860   -0.4596    1.7183 O   0  0  0  0  0  0  0  0  0  0  0  0
   -0.2294    0.0669    2.5672 N   0  0  0  0  0  0  0  0  0  0  0  0
   -1.2130    0.1938    2.3518 H   0  0  0  0  0  0  0  0  0  0  0  0
    0.1836    0.1337    3.9673 C   0  0  0  0  0  0  0  0  0  0  0  0
    1.0451    0.7976    4.0666 H   0  0  0  0  0  0  0  0  0  0  0  0
   -0.6344    0.5115    4.5820 H   0  0  0  0  0  0  0  0  0  0  0  0
    0.4676   -0.8609    4.3157 H   0  0  0  0  0  0  0  0  0  0  0  0
  5  6  2  0  0  0  0
  5  7  1  0  0  0  0
  2  3  1  0  0  0  0
  2  4  1  0  0  0  0
  2  5  1  0  0  0  0
  1  2  1  0  0  0  0
 18 19  2  0  0  0  0
 18 20  1  0  0  0  0
 16 17  1  0  0  0  0
 14 15  2  0  0  0  0
 14 16  1  0  0  0  0
 11 12  1  0  0  0  0
 11 13  1  0  0  0  0
 11 14  1  0  0  0  0
  9 10  1  0  0  0  0
  9 11  1  0  0  0  0
  9 18  1  0  0  0  0
  7  8  1  0  0  0  0
  7  9  1  0  0  0  0
 22 23  1  0  0  0  0
 22 24  1  0  0  0  0
 22 25  1  0  0  0  0
 20 21  1  0  0  0  0
 20 22  1  0  0  0  0
M  END
$$$$
default_name
  -OEChem-02102213163D

 25 24  0     1  0  0  0  0  0999 V2000
   -2.7826   -3.8464    0.7821 H   0  0  0  0  0  0  0  0  0  0  0  0
   -2.8156   -2.8034    0.4711 C   0  0  0  0  0  0  0  0  0  0  0  0
   -3.4336   -2.2354    1.1641 H   0  0  0  0  0  0  0  0  0  0  0  0
   -3.2256   -2.7344   -0.5349 H   0  0  0  0  0  0  0  0  0  0  0  0
   -1.4126   -2.2444    0.4801 C   0  0  0  0  0  0  0  0  0  0  0  0
   -0.4686   -2.9534    0.8001 O   0  0  0  0  0  0  0  0  0  0  0  0
   -1.2736   -0.9704    0.1241 N   0  0  0  0  0  0  0  0  0  0  0  0
   -2.0996   -0.4354   -0.1019 H   0  0  0  0  0  0  0  0  0  0  0  0
   -0.0016   -0.2394    0.1271 C   0  0  1  0  0  0  0  0  0  0  0  0
    0.6995   -0.7619   -0.5275 H   0  0  0  0  0  0  0  0  0  0  0  0
   -0.2283    1.1832   -0.4215 C   0  0  0  0  0  0  0  0  0  0  0  0
    0.6276    1.8103   -0.1688 H   0  0  0  0  0  0  0  0  0  0  0  0
   -0.3092    1.1490   -1.5086 H   0  0  0  0  0  0  0  0  0  0  0  0
   -1.4664    1.8651    0.1529 C   0  0  0  0  0  0  0  0  0  0  0  0
   -2.1542    2.6969   -0.4245 O   0  0  0  0  0  0  0  0  0  0  0  0
   -1.7851    1.4933    1.4068 O   0  0  0  0  0  0  0  0  0  0  0  0
   -2.5810    1.9771    1.6296 H   0  0  0  0  0  0  0  0  0  0  0  0
    0.5920   -0.2154    1.5497 C   0  0  0  0  0  0  0  0  0  0  0  0
    1.7860   -0.4596    1.7183 O   0  0  0  0  0  0  0  0  0  0  0  0
   -0.2294    0.0669    2.5672 N   0  0  0  0  0  0  0  0  0  0  0  0
   -1.2130    0.1938    2.3518 H   0  0  0  0  0  0  0  0  0  0  0  0
    0.1836    0.1337    3.9673 C   0  0  0  0  0  0  0  0  0  0  0  0
    1.0451    0.7976    4.0666 H   0  0  0  0  0  0  0  0  0  0  0  0
   -0.6344    0.5115    4.5820 H   0  0  0  0  0  0  0  0  0  0  0  0
    0.4676   -0.8609    4.3157 H   0  0  0  0  0  0  0  0  0  0  0  0
  5  6  2  0  0  0  0
  5  7  1  0  0  0  0
  2  3  1  0  0  0  0
  2  4  1  0  0  0  0
  2  5  1  0  0  0  0
  1  2  1  0  0  0  0
 18 19  2  0  0  0  0
 18 20  1  0  0  0  0
 16 17  1  0  0  0  0
 14 15  2  0  0  0  0
 14 16  1  0  0  0  0
 11 12  1  0  0  0  0
 11 13  1  0  0  0  0
 11 14  1  0  0  0  0
  9 10  1  0  0  0  0
  9 11  1  0  0  0  0
  9 18  1  0  0  0  0
  7  8  1  0  0  0  0
  7  9  1  0  0  0  0
 22 23  1  0  0  0  0
 22 24  1  0  0  0  0
 22 25  1  0  0  0  0
 20 21  1  0  0  0  0
 20 22  1  0  0  0  0
M  END
$$$$
default_name
  -OEChem-02102213163D

 25 24  0     1  0  0  0  0  0999 V2000
   -2.7826   -3.8464    0.7821 H   0  0  0  0  0  0  0  0  0  0  0  0
   -2.8156   -2.8034    0.4711 C   0  0  0  0  0  0  0  0  0  0  0  0
   -3.4336   -2.2354    1.1641 H   0  0  0  0  0  0  0  0  0  0  0  0
   -3.2256   -2.7344   -0.5349 H   0  0  0  0  0  0  0  0  0  0  0  0
   -1.4126   -2.2444    0.4801 C   0  0  0  0  0  0  0  0  0  0  0  0
   -0.4686   -2.9534    0.8001 O   0  0  0  0  0  0  0  0  0  0  0  0
   -1.2736   -0.9704    0.1241 N   0  0  0  0  0  0  0  0  0  0  0  0
   -2.0996   -0.4354   -0.1019 H   0  0  0  0  0  0  0  0  0  0  0  0
   -0.0016   -0.2394    0.1271 C   0  0  1  0  0  0  0  0  0  0  0  0
    0.6995   -0.7619   -0.5275 H   0  0  0  0  0  0  0  0  0  0  0  0
   -0.2283    1.1832   -0.4215 C   0  0  0  0  0  0  0  0  0  0  0  0
    0.6276    1.8103   -0.1688 H   0  0  0  0  0  0  0  0  0  0  0  0
   -0.3092    1.1490   -1.5086 H   0  0  0  0  0  0  0  0  0  0  0  0
   -1.4664    1.8651    0.1529 C   0  0  0  0  0  0  0  0  0  0  0  0
   -2.2983    2.4911   -0.4908 O   0  0  0  0  0  0  0  0  0  0  0  0
   -1.6086    1.7469    1.4862 O   0  0  0  0  0  0  0  0  0  0  0  0
   -2.4249    2.1978    1.7041 H   0  0  0  0  0  0  0  0  0  0  0  0
    0.5920   -0.2154    1.5497 C   0  0  0  0  0  0  0  0  0  0  0  0
    1.7860   -0.4596    1.7183 O   0  0  0  0  0  0  0  0  0  0  0  0
   -0.2294    0.0669    2.5672 N   0  0  0  0  0  0  0  0  0  0  0  0
   -1.2130    0.1938    2.3518 H   0  0  0  0  0  0  0  0  0  0  0  0
    0.1836    0.1337    3.9673 C   0  0  0  0  0  0  0  0  0  0  0  0
    1.0451    0.7976    4.0666 H   0  0  0  0  0  0  0  0  0  0  0  0
   -0.6344    0.5115    4.5820 H   0  0  0  0  0  0  0  0  0  0  0  0
    0.4676   -0.8609    4.3157 H   0  0  0  0  0  0  0  0  0  0  0  0
  5  6  2  0  0  0  0
  5  7  1  0  0  0  0
  2  3  1  0  0  0  0
  2  4  1  0  0  0  0
  2  5  1  0  0  0  0
  1  2  1  0  0  0  0
 18 19  2  0  0  0  0
 18 20  1  0  0  0  0
 16 17  1  0  0  0  0
 14 15  2  0  0  0  0
 14 16  1  0  0  0  0
 11 12  1  0  0  0  0
 11 13  1  0  0  0  0
 11 14  1  0  0  0  0
  9 10  1  0  0  0  0
  9 11  1  0  0  0  0
  9 18  1  0  0  0  0
  7  8  1  0  0  0  0
  7  9  1  0  0  0  0
 22 23  1  0  0  0  0
 22 24  1  0  0  0  0
 22 25  1  0  0  0  0
 20 21  1  0  0  0  0
 20 22  1  0  0  0  0
M  END
$$$$
default_name
  -OEChem-02102213163D

 25 24  0     1  0  0  0  0  0999 V2000
   -2.7826   -3.8464    0.7821 H   0  0  0  0  0  0  0  0  0  0  0  0
   -2.8156   -2.8034    0.4711 C   0  0  0  0  0  0  0  0  0  0  0  0
   -3.4336   -2.2354    1.1641 H   0  0  0  0  0  0  0  0  0  0  0  0
   -3.2256   -2.7344   -0.5349 H   0  0  0  0  0  0  0  0  0  0  0  0
   -1.4126   -2.2444    0.4801 C   0  0  0  0  0  0  0  0  0  0  0  0
   -0.4686   -2.9534    0.8001 O   0  0  0  0  0  0  0  0  0  0  0  0
   -1.2736   -0.9704    0.1241 N   0  0  0  0  0  0  0  0  0  0  0  0
   -2.0996   -0.4354   -0.1019 H   0  0  0  0  0  0  0  0  0  0  0  0
   -0.0016   -0.2394    0.1271 C   0  0  1  0  0  0  0  0  0  0  0  0
    0.6995   -0.7619   -0.5275 H   0  0  0  0  0  0  0  0  0  0  0  0
   -0.2283    1.1832   -0.4215 C   0  0  0  0  0  0  0  0  0  0  0  0
    0.6276    1.8103   -0.1688 H   0  0  0  0  0  0  0  0  0  0  0  0
   -0.3092    1.1490   -1.5086 H   0  0  0  0  0  0  0  0  0  0  0  0
   -1.4664    1.8651    0.1529 C   0  0  0  0  0  0  0  0  0  0  0  0
   -2.4251    2.2644   -0.4950 O   0  0  0  0  0  0  0  0  0  0  0  0
   -1.4536    2.0257    1.4893 O   0  0  0  0  0  0  0  0  0  0  0  0
   -2.2870    2.4419    1.7116 H   0  0  0  0  0  0  0  0  0  0  0  0
    0.5920   -0.2154    1.5497 C   0  0  0  0  0  0  0  0  0  0  0  0
    1.7860   -0.4596    1.7183 O   0  0  0  0  0  0  0  0  0  0  0  0
   -0.2294    0.0669    2.5672 N   0  0  0  0  0  0  0  0  0  0  0  0
   -1.2130    0.1938    2.3518 H   0  0  0  0  0  0  0  0  0  0  0  0
    0.1836    0.1337    3.9673 C   0  0  0  0  0  0  0  0  0  0  0  0
    1.0451    0.7976    4.0666 H   0  0  0  0  0  0  0  0  0  0  0  0
   -0.6344    0.5115    4.5820 H   0  0  0  0  0  0  0  0  0  0  0  0
    0.4676   -0.8609    4.3157 H   0  0  0  0  0  0  0  0  0  0  0  0
  5  6  2  0  0  0  0
  5  7  1  0  0  0  0
  2  3  1  0  0  0  0
  2  4  1  0  0  0  0
  2  5  1  0  0  0  0
  1  2  1  0  0  0  0
 18 19  2  0  0  0  0
 18 20  1  0  0  0  0
 16 17  1  0  0  0  0
 14 15  2  0  0  0  0
 14 16  1  0  0  0  0
 11 12  1  0  0  0  0
 11 13  1  0  0  0  0
 11 14  1  0  0  0  0
  9 10  1  0  0  0  0
  9 11  1  0  0  0  0
  9 18  1  0  0  0  0
  7  8  1  0  0  0  0
  7  9  1  0  0  0  0
 22 23  1  0  0  0  0
 22 24  1  0  0  0  0
 22 25  1  0  0  0  0
 20 21  1  0  0  0  0
 20 22  1  0  0  0  0
M  END
$$$$
default_name
  -OEChem-02102213163D

 25 24  0     1  0  0  0  0  0999 V2000
   -2.7826   -3.8464    0.7821 H   0  0  0  0  0  0  0  0  0  0  0  0
   -2.8156   -2.8034    0.4711 C   0  0  0  0  0  0  0  0  0  0  0  0
   -3.4336   -2.2354    1.1641 H   0  0  0  0  0  0  0  0  0  0  0  0
   -3.2256   -2.7344   -0.5349 H   0  0  0  0  0  0  0  0  0  0  0  0
   -1.4126   -2.2444    0.4801 C   0  0  0  0  0  0  0  0  0  0  0  0
   -0.4686   -2.9534    0.8001 O   0  0  0  0  0  0  0  0  0  0  0  0
   -1.2736   -0.9704    0.1241 N   0  0  0  0  0  0  0  0  0  0  0  0
   -2.0996   -0.4354   -0.1019 H   0  0  0  0  0  0  0  0  0  0  0  0
   -0.0016   -0.2394    0.1271 C   0  0  1  0  0  0  0  0  0  0  0  0
    0.6995   -0.7619   -0.5275 H   0  0  0  0  0  0  0  0  0  0  0  0
   -0.2283    1.1832   -0.4215 C   0  0  0  0  0  0  0  0  0  0  0  0
    0.6276    1.8103   -0.1688 H   0  0  0  0  0  0  0  0  0  0  0  0
   -0.3092    1.1490   -1.5086 H   0  0  0  0  0  0  0  0  0  0  0  0
   -1.4664    1.8651    0.1529 C   0  0  0  0  0  0  0  0  0  0  0  0
   -2.5260    2.0321   -0.4367 O   0  0  0  0  0  0  0  0  0  0  0  0
   -1.3307    2.3107    1.4158 O   0  0  0  0  0  0  0  0  0  0  0  0
   -2.1767    2.6926    1.6517 H   0  0  0  0  0  0  0  0  0  0  0  0
    0.5920   -0.2154    1.5497 C   0  0  0  0  0  0  0  0  0  0  0  0
    1.7860   -0.4596    1.7183 O   0  0  0  0  0  0  0  0  0  0  0  0
   -0.2294    0.0669    2.5672 N   0  0  0  0  0  0  0  0  0  0  0  0
   -1.2130    0.1938    2.3518 H   0  0  0  0  0  0  0  0  0  0  0  0
    0.1836    0.1337    3.9673 C   0  0  0  0  0  0  0  0  0  0  0  0
    1.0451    0.7976    4.0666 H   0  0  0  0  0  0  0  0  0  0  0  0
   -0.6344    0.5115    4.5820 H   0  0  0  0  0  0  0  0  0  0  0  0
    0.4676   -0.8609    4.3157 H   0  0  0  0  0  0  0  0  0  0  0  0
  5  6  2  0  0  0  0
  5  7  1  0  0  0  0
  2  3  1  0  0  0  0
  2  4  1  0  0  0  0
  2  5  1  0  0  0  0
  1  2  1  0  0  0  0
 18 19  2  0  0  0  0
 18 20  1  0  0  0  0
 16 17  1  0  0  0  0
 14 15  2  0  0  0  0
 14 16  1  0  0  0  0
 11 12  1  0  0  0  0
 11 13  1  0  0  0  0
 11 14  1  0  0  0  0
  9 10  1  0  0  0  0
  9 11  1  0  0  0  0
  9 18  1  0  0  0  0
  7  8  1  0  0  0  0
  7  9  1  0  0  0  0
 22 23  1  0  0  0  0
 22 24  1  0  0  0  0
 22 25  1  0  0  0  0
 20 21  1  0  0  0  0
 20 22  1  0  0  0  0
M  END
$$$$
default_name
  -OEChem-02102213163D

 25 24  0     1  0  0  0  0  0999 V2000
   -2.7826   -3.8464    0.7821 H   0  0  0  0  0  0  0  0  0  0  0  0
   -2.8156   -2.8034    0.4711 C   0  0  0  0  0  0  0  0  0  0  0  0
   -3.4336   -2.2354    1.1641 H   0  0  0  0  0  0  0  0  0  0  0  0
   -3.2256   -2.7344   -0.5349 H   0  0  0  0  0  0  0  0  0  0  0  0
   -1.4126   -2.2444    0.4801 C   0  0  0  0  0  0  0  0  0  0  0  0
   -0.4686   -2.9534    0.8001 O   0  0  0  0  0  0  0  0  0  0  0  0
   -1.2736   -0.9704    0.1241 N   0  0  0  0  0  0  0  0  0  0  0  0
   -2.0996   -0.4354   -0.1019 H   0  0  0  0  0  0  0  0  0  0  0  0
   -0.0016   -0.2394    0.1271 C   0  0  1  0  0  0  0  0  0  0  0  0
    0.6995   -0.7619   -0.5275 H   0  0  0  0  0  0  0  0  0  0  0  0
   -0.2283    1.1832   -0.4215 C   0  0  0  0  0  0  0  0  0  0  0  0
    0.6276    1.8103   -0.1688 H   0  0  0  0  0  0  0  0  0  0  0  0
   -0.3092    1.1490   -1.5086 H   0  0  0  0  0  0  0  0  0  0  0  0
   -1.4664    1.8651    0.1529 C   0  0  0  0  0  0  0  0  0  0  0  0
   -2.5941    1.8102   -0.3200 O   0  0  0  0  0  0  0  0  0  0  0  0
   -1.2483    2.5826    1.2707 O   0  0  0  0  0  0  0  0  0  0  0  0
   -2.1015    2.9330    1.5283 H   0  0  0  0  0  0  0  0  0  0  0  0
    0.5920   -0.2154    1.5497 C   0  0  0  0  0  0  0  0  0  0  0  0
    1.7860   -0.4596    1.7183 O   0  0  0  0  0  0  0  0  0  0  0  0
   -0.2294    0.0669    2.5672 N   0  0  0  0  0  0  0  0  0  0  0  0
   -1.2130    0.1938    2.3518 H   0  0  0  0  0  0  0  0  0  0  0  0
    0.1836    0.1337    3.9673 C   0  0  0  0  0  0  0  0  0  0  0  0
    1.0451    0.7976    4.0666 H   0  0  0  0  0  0  0  0  0  0  0  0
   -0.6344    0.5115    4.5820 H   0  0  0  0  0  0  0  0  0  0  0  0
    0.4676   -0.8609    4.3157 H   0  0  0  0  0  0  0  0  0  0  0  0
  5  6  2  0  0  0  0
  5  7  1  0  0  0  0
  2  3  1  0  0  0  0
  2  4  1  0  0  0  0
  2  5  1  0  0  0  0
  1  2  1  0  0  0  0
 18 19  2  0  0  0  0
 18 20  1  0  0  0  0
 16 17  1  0  0  0  0
 14 15  2  0  0  0  0
 14 16  1  0  0  0  0
 11 12  1  0  0  0  0
 11 13  1  0  0  0  0
 11 14  1  0  0  0  0
  9 10  1  0  0  0  0
  9 11  1  0  0  0  0
  9 18  1  0  0  0  0
  7  8  1  0  0  0  0
  7  9  1  0  0  0  0
 22 23  1  0  0  0  0
 22 24  1  0  0  0  0
 22 25  1  0  0  0  0
 20 21  1  0  0  0  0
 20 22  1  0  0  0  0
M  END
$$$$
default_name
  -OEChem-02102213163D

 25 24  0     1  0  0  0  0  0999 V2000
   -2.7826   -3.8464    0.7821 H   0  0  0  0  0  0  0  0  0  0  0  0
   -2.8156   -2.8034    0.4711 C   0  0  0  0  0  0  0  0  0  0  0  0
   -3.4336   -2.2354    1.1641 H   0  0  0  0  0  0  0  0  0  0  0  0
   -3.2256   -2.7344   -0.5349 H   0  0  0  0  0  0  0  0  0  0  0  0
   -1.4126   -2.2444    0.4801 C   0  0  0  0  0  0  0  0  0  0  0  0
   -0.4686   -2.9534    0.8001 O   0  0  0  0  0  0  0  0  0  0  0  0
   -1.2736   -0.9704    0.1241 N   0  0  0  0  0  0  0  0  0  0  0  0
   -2.0996   -0.4354   -0.1019 H   0  0  0  0  0  0  0  0  0  0  0  0
   -0.0016   -0.2394    0.1271 C   0  0  1  0  0  0  0  0  0  0  0  0
    0.6995   -0.7619   -0.5275 H   0  0  0  0  0  0  0  0  0  0  0  0
   -0.2283    1.1832   -0.4215 C   0  0  0  0  0  0  0  0  0  0  0  0
    0.6276    1.8103   -0.1688 H   0  0  0  0  0  0  0  0  0  0  0  0
   -0.3092    1.1490   -1.5086 H   0  0  0  0  0  0  0  0  0  0  0  0
   -1.4664    1.8651    0.1529 C   0  0  0  0  0  0  0  0  0  0  0  0
   -2.6247    1.6137   -0.1528 O   0  0  0  0  0  0  0  0  0  0  0  0
   -1.2119    2.8228    1.0639 O   0  0  0  0  0  0  0  0  0  0  0  0
   -2.0666    3.1466    1.3500 H   0  0  0  0  0  0  0  0  0  0  0  0
    0.5920   -0.2154    1.5497 C   0  0  0  0  0  0  0  0  0  0  0  0
    1.7860   -0.4596    1.7183 O   0  0  0  0  0  0  0  0  0  0  0  0
   -0.2294    0.0669    2.5672 N   0  0  0  0  0  0  0  0  0  0  0  0
   -1.2130    0.1938    2.3518 H   0  0  0  0  0  0  0  0  0  0  0  0
    0.1836    0.1337    3.9673 C   0  0  0  0  0  0  0  0  0  0  0  0
    1.0451    0.7976    4.0666 H   0  0  0  0  0  0  0  0  0  0  0  0
   -0.6344    0.5115    4.5820 H   0  0  0  0  0  0  0  0  0  0  0  0
    0.4676   -0.8609    4.3157 H   0  0  0  0  0  0  0  0  0  0  0  0
  5  6  2  0  0  0  0
  5  7  1  0  0  0  0
  2  3  1  0  0  0  0
  2  4  1  0  0  0  0
  2  5  1  0  0  0  0
  1  2  1  0  0  0  0
 18 19  2  0  0  0  0
 18 20  1  0  0  0  0
 16 17  1  0  0  0  0
 14 15  2  0  0  0  0
 14 16  1  0  0  0  0
 11 12  1  0  0  0  0
 11 13  1  0  0  0  0
 11 14  1  0  0  0  0
  9 10  1  0  0  0  0
  9 11  1  0  0  0  0
  9 18  1  0  0  0  0
  7  8  1  0  0  0  0
  7  9  1  0  0  0  0
 22 23  1  0  0  0  0
 22 24  1  0  0  0  0
 22 25  1  0  0  0  0
 20 21  1  0  0  0  0
 20 22  1  0  0  0  0
M  END
$$$$
default_name
  -OEChem-02102213163D

 25 24  0     1  0  0  0  0  0999 V2000
   -2.7826   -3.8464    0.7821 H   0  0  0  0  0  0  0  0  0  0  0  0
   -2.8156   -2.8034    0.4711 C   0  0  0  0  0  0  0  0  0  0  0  0
   -3.4336   -2.2354    1.1641 H   0  0  0  0  0  0  0  0  0  0  0  0
   -3.2256   -2.7344   -0.5349 H   0  0  0  0  0  0  0  0  0  0  0  0
   -1.4126   -2.2444    0.4801 C   0  0  0  0  0  0  0  0  0  0  0  0
   -0.4686   -2.9534    0.8001 O   0  0  0  0  0  0  0  0  0  0  0  0
   -1.2736   -0.9704    0.1241 N   0  0  0  0  0  0  0  0  0  0  0  0
   -2.0996   -0.4354   -0.1019 H   0  0  0  0  0  0  0  0  0  0  0  0
   -0.0016   -0.2394    0.1271 C   0  0  1  0  0  0  0  0  0  0  0  0
    0.6995   -0.7619   -0.5275 H   0  0  0  0  0  0  0  0  0  0  0  0
   -0.2283    1.1832   -0.4215 C   0  0  0  0  0  0  0  0  0  0  0  0
    0.6276    1.8103   -0.1688 H   0  0  0  0  0  0  0  0  0  0  0  0
   -0.3092    1.1490   -1.5086 H   0  0  0  0  0  0  0  0  0  0  0  0
   -1.4664    1.8651    0.1529 C   0  0  0  0  0  0  0  0  0  0  0  0
   -2.6158    1.4561    0.0536 O   0  0  0  0  0  0  0  0  0  0  0  0
   -1.2241    3.0149    0.8095 O   0  0  0  0  0  0  0  0  0  0  0  0
   -2.0743    3.3189    1.1289 H   0  0  0  0  0  0  0  0  0  0  0  0
    0.5920   -0.2154    1.5497 C   0  0  0  0  0  0  0  0  0  0  0  0
    1.7860   -0.4596    1.7183 O   0  0  0  0  0  0  0  0  0  0  0  0
   -0.2294    0.0669    2.5672 N   0  0  0  0  0  0  0  0  0  0  0  0
   -1.2130    0.1938    2.3518 H   0  0  0  0  0  0  0  0  0  0  0  0
    0.1836    0.1337    3.9673 C   0  0  0  0  0  0  0  0  0  0  0  0
    1.0451    0.7976    4.0666 H   0  0  0  0  0  0  0  0  0  0  0  0
   -0.6344    0.5115    4.5820 H   0  0  0  0  0  0  0  0  0  0  0  0
    0.4676   -0.8609    4.3157 H   0  0  0  0  0  0  0  0  0  0  0  0
  5  6  2  0  0  0  0
  5  7  1  0  0  0  0
  2  3  1  0  0  0  0
  2  4  1  0  0  0  0
  2  5  1  0  0  0  0
  1  2  1  0  0  0  0
 18 19  2  0  0  0  0
 18 20  1  0  0  0  0
 16 17  1  0  0  0  0
 14 15  2  0  0  0  0
 14 16  1  0  0  0  0
 11 12  1  0  0  0  0
 11 13  1  0  0  0  0
 11 14  1  0  0  0  0
  9 10  1  0  0  0  0
  9 11  1  0  0  0  0
  9 18  1  0  0  0  0
  7  8  1  0  0  0  0
  7  9  1  0  0  0  0
 22 23  1  0  0  0  0
 22 24  1  0  0  0  0
 22 25  1  0  0  0  0
 20 21  1  0  0  0  0
 20 22  1  0  0  0  0
M  END
$$$$
default_name
  -OEChem-02102213163D

 25 24  0     1  0  0  0  0  0999 V2000
   -2.7826   -3.8464    0.7821 H   0  0  0  0  0  0  0  0  0  0  0  0
   -2.8156   -2.8034    0.4711 C   0  0  0  0  0  0  0  0  0  0  0  0
   -3.4336   -2.2354    1.1641 H   0  0  0  0  0  0  0  0  0  0  0  0
   -3.2256   -2.7344   -0.5349 H   0  0  0  0  0  0  0  0  0  0  0  0
   -1.4126   -2.2444    0.4801 C   0  0  0  0  0  0  0  0  0  0  0  0
   -0.4686   -2.9534    0.8001 O   0  0  0  0  0  0  0  0  0  0  0  0
   -1.2736   -0.9704    0.1241 N   0  0  0  0  0  0  0  0  0  0  0  0
   -2.0996   -0.4354   -0.1019 H   0  0  0  0  0  0  0  0  0  0  0  0
   -0.0016   -0.2394    0.1271 C   0  0  1  0  0  0  0  0  0  0  0  0
    0.6995   -0.7619   -0.5275 H   0  0  0  0  0  0  0  0  0  0  0  0
   -0.2283    1.1832   -0.4215 C   0  0  0  0  0  0  0  0  0  0  0  0
    0.6276    1.8103   -0.1688 H   0  0  0  0  0  0  0  0  0  0  0  0
   -0.3092    1.1490   -1.5086 H   0  0  0  0  0  0  0  0  0  0  0  0
   -1.4664    1.8651    0.1529 C   0  0  0  0  0  0  0  0  0  0  0  0
   -2.5680    1.3480    0.2850 O   0  0  0  0  0  0  0  0  0  0  0  0
   -1.2841    3.1458    0.5249 O   0  0  0  0  0  0  0  0  0  0  0  0
   -2.1241    3.4381    0.8800 H   0  0  0  0  0  0  0  0  0  0  0  0
    0.5920   -0.2154    1.5497 C   0  0  0  0  0  0  0  0  0  0  0  0
    1.7860   -0.4596    1.7183 O   0  0  0  0  0  0  0  0  0  0  0  0
   -0.2294    0.0669    2.5672 N   0  0  0  0  0  0  0  0  0  0  0  0
   -1.2130    0.1938    2.3518 H   0  0  0  0  0  0  0  0  0  0  0  0
    0.1836    0.1337    3.9673 C   0  0  0  0  0  0  0  0  0  0  0  0
    1.0451    0.7976    4.0666 H   0  0  0  0  0  0  0  0  0  0  0  0
   -0.6344    0.5115    4.5820 H   0  0  0  0  0  0  0  0  0  0  0  0
    0.4676   -0.8609    4.3157 H   0  0  0  0  0  0  0  0  0  0  0  0
  5  6  2  0  0  0  0
  5  7  1  0  0  0  0
  2  3  1  0  0  0  0
  2  4  1  0  0  0  0
  2  5  1  0  0  0  0
  1  2  1  0  0  0  0
 18 19  2  0  0  0  0
 18 20  1  0  0  0  0
 16 17  1  0  0  0  0
 14 15  2  0  0  0  0
 14 16  1  0  0  0  0
 11 12  1  0  0  0  0
 11 13  1  0  0  0  0
 11 14  1  0  0  0  0
  9 10  1  0  0  0  0
  9 11  1  0  0  0  0
  9 18  1  0  0  0  0
  7  8  1  0  0  0  0
  7  9  1  0  0  0  0
 22 23  1  0  0  0  0
 22 24  1  0  0  0  0
 22 25  1  0  0  0  0
 20 21  1  0  0  0  0
 20 22  1  0  0  0  0
M  END
$$$$
default_name
  -OEChem-02102213163D

 25 24  0     1  0  0  0  0  0999 V2000
   -2.7826   -3.8464    0.7821 H   0  0  0  0  0  0  0  0  0  0  0  0
   -2.8156   -2.8034    0.4711 C   0  0  0  0  0  0  0  0  0  0  0  0
   -3.4336   -2.2354    1.1641 H   0  0  0  0  0  0  0  0  0  0  0  0
   -3.2256   -2.7344   -0.5349 H   0  0  0  0  0  0  0  0  0  0  0  0
   -1.4126   -2.2444    0.4801 C   0  0  0  0  0  0  0  0  0  0  0  0
   -0.4686   -2.9534    0.8001 O   0  0  0  0  0  0  0  0  0  0  0  0
   -1.2736   -0.9704    0.1241 N   0  0  0  0  0  0  0  0  0  0  0  0
   -2.0996   -0.4354   -0.1019 H   0  0  0  0  0  0  0  0  0  0  0  0
   -0.0016   -0.2394    0.1271 C   0  0  1  0  0  0  0  0  0  0  0  0
    0.6995   -0.7619   -0.5275 H   0  0  0  0  0  0  0  0  0  0  0  0
   -0.2283    1.1832   -0.4215 C   0  0  0  0  0  0  0  0  0  0  0  0
    0.6276    1.8103   -0.1688 H   0  0  0  0  0  0  0  0  0  0  0  0
   -0.3092    1.1490   -1.5086 H   0  0  0  0  0  0  0  0  0  0  0  0
   -1.4664    1.8651    0.1529 C   0  0  0  0  0  0  0  0  0  0  0  0
   -2.4845    1.2969    0.5256 O   0  0  0  0  0  0  0  0  0  0  0  0
   -1.3877    3.2067    0.2294 O   0  0  0  0  0  0  0  0  0  0  0  0
   -2.2127    3.4961    0.6203 H   0  0  0  0  0  0  0  0  0  0  0  0
    0.5920   -0.2154    1.5497 C   0  0  0  0  0  0  0  0  0  0  0  0
    1.7860   -0.4596    1.7183 O   0  0  0  0  0  0  0  0  0  0  0  0
   -0.2294    0.0669    2.5672 N   0  0  0  0  0  0  0  0  0  0  0  0
   -1.2130    0.1938    2.3518 H   0  0  0  0  0  0  0  0  0  0  0  0
    0.1836    0.1337    3.9673 C   0  0  0  0  0  0  0  0  0  0  0  0
    1.0451    0.7976    4.0666 H   0  0  0  0  0  0  0  0  0  0  0  0
   -0.6344    0.5115    4.5820 H   0  0  0  0  0  0  0  0  0  0  0  0
    0.4676   -0.8609    4.3157 H   0  0  0  0  0  0  0  0  0  0  0  0
  5  6  2  0  0  0  0
  5  7  1  0  0  0  0
  2  3  1  0  0  0  0
  2  4  1  0  0  0  0
  2  5  1  0  0  0  0
  1  2  1  0  0  0  0
 18 19  2  0  0  0  0
 18 20  1  0  0  0  0
 16 17  1  0  0  0  0
 14 15  2  0  0  0  0
 14 16  1  0  0  0  0
 11 12  1  0  0  0  0
 11 13  1  0  0  0  0
 11 14  1  0  0  0  0
  9 10  1  0  0  0  0
  9 11  1  0  0  0  0
  9 18  1  0  0  0  0
  7  8  1  0  0  0  0
  7  9  1  0  0  0  0
 22 23  1  0  0  0  0
 22 24  1  0  0  0  0
 22 25  1  0  0  0  0
 20 21  1  0  0  0  0
 20 22  1  0  0  0  0
M  END
$$$$
default_name
  -OEChem-02102213163D

 25 24  0     1  0  0  0  0  0999 V2000
   -2.7826   -3.8464    0.7821 H   0  0  0  0  0  0  0  0  0  0  0  0
   -2.8156   -2.8034    0.4711 C   0  0  0  0  0  0  0  0  0  0  0  0
   -3.4336   -2.2354    1.1641 H   0  0  0  0  0  0  0  0  0  0  0  0
   -3.2256   -2.7344   -0.5349 H   0  0  0  0  0  0  0  0  0  0  0  0
   -1.4126   -2.2444    0.4801 C   0  0  0  0  0  0  0  0  0  0  0  0
   -0.4686   -2.9534    0.8001 O   0  0  0  0  0  0  0  0  0  0  0  0
   -1.2736   -0.9704    0.1241 N   0  0  0  0  0  0  0  0  0  0  0  0
   -2.0996   -0.4354   -0.1019 H   0  0  0  0  0  0  0  0  0  0  0  0
   -0.0016   -0.2394    0.1271 C   0  0  1  0  0  0  0  0  0  0  0  0
    0.6995   -0.7619   -0.5275 H   0  0  0  0  0  0  0  0  0  0  0  0
   -0.2283    1.1832   -0.4215 C   0  0  0  0  0  0  0  0  0  0  0  0
    0.6276    1.8103   -0.1688 H   0  0  0  0  0  0  0  0  0  0  0  0
   -0.3092    1.1490   -1.5086 H   0  0  0  0  0  0  0  0  0  0  0  0
   -1.4664    1.8651    0.1529 C   0  0  0  0  0  0  0  0  0  0  0  0
   -2.3710    1.3062    0.7592 O   0  0  0  0  0  0  0  0  0  0  0  0
   -1.5278    3.1933   -0.0569 O   0  0  0  0  0  0  0  0  0  0  0  0
   -2.3339    3.4890    0.3675 H   0  0  0  0  0  0  0  0  0  0  0  0
    0.5920   -0.2154    1.5497 C   0  0  0  0  0  0  0  0  0  0  0  0
    1.7860   -0.4596    1.7183 O   0  0  0  0  0  0  0  0  0  0  0  0
   -0.2294    0.0669    2.5672 N   0  0  0  0  0  0  0  0  0  0  0  0
   -1.2130    0.1938    2.3518 H   0  0  0  0  0  0  0  0  0  0  0  0
    0.1836    0.1337    3.9673 C   0  0  0  0  0  0  0  0  0  0  0  0
    1.0451    0.7976    4.0666 H   0  0  0  0  0  0  0  0  0  0  0  0
   -0.6344    0.5115    4.5820 H   0  0  0  0  0  0  0  0  0  0  0  0
    0.4676   -0.8609    4.3157 H   0  0  0  0  0  0  0  0  0  0  0  0
  5  6  2  0  0  0  0
  5  7  1  0  0  0  0
  2  3  1  0  0  0  0
  2  4  1  0  0  0  0
  2  5  1  0  0  0  0
  1  2  1  0  0  0  0
 18 19  2  0  0  0  0
 18 20  1  0  0  0  0
 16 17  1  0  0  0  0
 14 15  2  0  0  0  0
 14 16  1  0  0  0  0
 11 12  1  0  0  0  0
 11 13  1  0  0  0  0
 11 14  1  0  0  0  0
  9 10  1  0  0  0  0
  9 11  1  0  0  0  0
  9 18  1  0  0  0  0
  7  8  1  0  0  0  0
  7  9  1  0  0  0  0
 22 23  1  0  0  0  0
 22 24  1  0  0  0  0
 22 25  1  0  0  0  0
 20 21  1  0  0  0  0
 20 22  1  0  0  0  0
M  END
$$$$
default_name
  -OEChem-02102213163D

 25 24  0     1  0  0  0  0  0999 V2000
   -2.7826   -3.8464    0.7821 H   0  0  0  0  0  0  0  0  0  0  0  0
   -2.8156   -2.8034    0.4711 C   0  0  0  0  0  0  0  0  0  0  0  0
   -3.4336   -2.2354    1.1641 H   0  0  0  0  0  0  0  0  0  0  0  0
   -3.2256   -2.7344   -0.5349 H   0  0  0  0  0  0  0  0  0  0  0  0
   -1.4126   -2.2444    0.4801 C   0  0  0  0  0  0  0  0  0  0  0  0
   -0.4686   -2.9534    0.8001 O   0  0  0  0  0  0  0  0  0  0  0  0
   -1.2736   -0.9704    0.1241 N   0  0  0  0  0  0  0  0  0  0  0  0
   -2.0996   -0.4354   -0.1019 H   0  0  0  0  0  0  0  0  0  0  0  0
   -0.0016   -0.2394    0.1271 C   0  0  1  0  0  0  0  0  0  0  0  0
    0.6995   -0.7619   -0.5275 H   0  0  0  0  0  0  0  0  0  0  0  0
   -0.2283    1.1832   -0.4215 C   0  0  0  0  0  0  0  0  0  0  0  0
    0.6276    1.8103   -0.1688 H   0  0  0  0  0  0  0  0  0  0  0  0
   -0.3092    1.1490   -1.5086 H   0  0  0  0  0  0  0  0  0  0  0  0
   -1.4664    1.8651    0.1529 C   0  0  0  0  0  0  0  0  0  0  0  0
   -2.2353    1.3753    0.9697 O   0  0  0  0  0  0  0  0  0  0  0  0
   -1.6950    3.1066   -0.3143 O   0  0  0  0  0  0  0  0  0  0  0  0
   -2.4795    3.4172    0.1388 H   0  0  0  0  0  0  0  0  0  0  0  0
    0.5920   -0.2154    1.5497 C   0  0  0  0  0  0  0  0  0  0  0  0
    1.7860   -0.4596    1.7183 O   0  0  0  0  0  0  0  0  0  0  0  0
   -0.2294    0.0669    2.5672 N   0  0  0  0  0  0  0  0  0  0  0  0
   -1.2130    0.1938    2.3518 H   0  0  0  0  0  0  0  0  0  0  0  0
    0.1836    0.1337    3.9673 C   0  0  0  0  0  0  0  0  0  0  0  0
    1.0451    0.7976    4.0666 H   0  0  0  0  0  0  0  0  0  0  0  0
   -0.6344    0.5115    4.5820 H   0  0  0  0  0  0  0  0  0  0  0  0
    0.4676   -0.8609    4.3157 H   0  0  0  0  0  0  0  0  0  0  0  0
  5  6  2  0  0  0  0
  5  7  1  0  0  0  0
  2  3  1  0  0  0  0
  2  4  1  0  0  0  0
  2  5  1  0  0  0  0
  1  2  1  0  0  0  0
 18 19  2  0  0  0  0
 18 20  1  0  0  0  0
 16 17  1  0  0  0  0
 14 15  2  0  0  0  0
 14 16  1  0  0  0  0
 11 12  1  0  0  0  0
 11 13  1  0  0  0  0
 11 14  1  0  0  0  0
  9 10  1  0  0  0  0
  9 11  1  0  0  0  0
  9 18  1  0  0  0  0
  7  8  1  0  0  0  0
  7  9  1  0  0  0  0
 22 23  1  0  0  0  0
 22 24  1  0  0  0  0
 22 25  1  0  0  0  0
 20 21  1  0  0  0  0
 20 22  1  0  0  0  0
M  END
$$$$
default_name
  -OEChem-02102213163D

 25 24  0     1  0  0  0  0  0999 V2000
   -2.7826   -3.8464    0.7821 H   0  0  0  0  0  0  0  0  0  0  0  0
   -2.8156   -2.8034    0.4711 C   0  0  0  0  0  0  0  0  0  0  0  0
   -3.4336   -2.2354    1.1641 H   0  0  0  0  0  0  0  0  0  0  0  0
   -3.2256   -2.7344   -0.5349 H   0  0  0  0  0  0  0  0  0  0  0  0
   -1.4126   -2.2444    0.4801 C   0  0  0  0  0  0  0  0  0  0  0  0
   -0.4686   -2.9534    0.8001 O   0  0  0  0  0  0  0  0  0  0  0  0
   -1.2736   -0.9704    0.1241 N   0  0  0  0  0  0  0  0  0  0  0  0
   -2.0996   -0.4354   -0.1019 H   0  0  0  0  0  0  0  0  0  0  0  0
   -0.0016   -0.2394    0.1271 C   0  0  1  0  0  0  0  0  0  0  0  0
    0.6995   -0.7619   -0.5275 H   0  0  0  0  0  0  0  0  0  0  0  0
   -0.2283    1.1832   -0.4215 C   0  0  0  0  0  0  0  0  0  0  0  0
    0.6276    1.8103   -0.1688 H   0  0  0  0  0  0  0  0  0  0  0  0
   -0.3092    1.1490   -1.5086 H   0  0  0  0  0  0  0  0  0  0  0  0
   -1.4664    1.8651    0.1529 C   0  0  0  0  0  0  0  0  0  0  0  0
   -2.0866    1.4994    1.1428 O   0  0  0  0  0  0  0  0  0  0  0  0
   -1.8779    2.9525   -0.5255 O   0  0  0  0  0  0  0  0  0  0  0  0
   -2.6396    3.2857   -0.0501 H   0  0  0  0  0  0  0  0  0  0  0  0
    0.5920   -0.2154    1.5497 C   0  0  0  0  0  0  0  0  0  0  0  0
    1.7860   -0.4596    1.7183 O   0  0  0  0  0  0  0  0  0  0  0  0
   -0.2294    0.0669    2.5672 N   0  0  0  0  0  0  0  0  0  0  0  0
   -1.2130    0.1938    2.3518 H   0  0  0  0  0  0  0  0  0  0  0  0
    0.1836    0.1337    3.9673 C   0  0  0  0  0  0  0  0  0  0  0  0
    1.0451    0.7976    4.0666 H   0  0  0  0  0  0  0  0  0  0  0  0
   -0.6344    0.5115    4.5820 H   0  0  0  0  0  0  0  0  0  0  0  0
    0.4676   -0.8609    4.3157 H   0  0  0  0  0  0  0  0  0  0  0  0
  5  6  2  0  0  0  0
  5  7  1  0  0  0  0
  2  3  1  0  0  0  0
  2  4  1  0  0  0  0
  2  5  1  0  0  0  0
  1  2  1  0  0  0  0
 18 19  2  0  0  0  0
 18 20  1  0  0  0  0
 16 17  1  0  0  0  0
 14 15  2  0  0  0  0
 14 16  1  0  0  0  0
 11 12  1  0  0  0  0
 11 13  1  0  0  0  0
 11 14  1  0  0  0  0
  9 10  1  0  0  0  0
  9 11  1  0  0  0  0
  9 18  1  0  0  0  0
  7  8  1  0  0  0  0
  7  9  1  0  0  0  0
 22 23  1  0  0  0  0
 22 24  1  0  0  0  0
 22 25  1  0  0  0  0
 20 21  1  0  0  0  0
 20 22  1  0  0  0  0
M  END
$$$$
default_name
  -OEChem-02102213163D

 25 24  0     1  0  0  0  0  0999 V2000
   -2.7826   -3.8464    0.7821 H   0  0  0  0  0  0  0  0  0  0  0  0
   -2.8156   -2.8034    0.4711 C   0  0  0  0  0  0  0  0  0  0  0  0
   -3.4336   -2.2354    1.1641 H   0  0  0  0  0  0  0  0  0  0  0  0
   -3.2256   -2.7344   -0.5349 H   0  0  0  0  0  0  0  0  0  0  0  0
   -1.4126   -2.2444    0.4801 C   0  0  0  0  0  0  0  0  0  0  0  0
   -0.4686   -2.9534    0.8001 O   0  0  0  0  0  0  0  0  0  0  0  0
   -1.2736   -0.9704    0.1241 N   0  0  0  0  0  0  0  0  0  0  0  0
   -2.0996   -0.4354   -0.1019 H   0  0  0  0  0  0  0  0  0  0  0  0
   -0.0016   -0.2394    0.1271 C   0  0  1  0  0  0  0  0  0  0  0  0
    0.6995   -0.7619   -0.5275 H   0  0  0  0  0  0  0  0  0  0  0  0
   -0.2283    1.1832   -0.4215 C   0  0  0  0  0  0  0  0  0  0  0  0
    0.6276    1.8103   -0.1688 H   0  0  0  0  0  0  0  0  0  0  0  0
   -0.3092    1.1490   -1.5086 H   0  0  0  0  0  0  0  0  0  0  0  0
   -1.4664    1.8651    0.1529 C   0  0  0  0  0  0  0  0  0  0  0  0
   -1.9350    1.6702    1.2667 O   0  0  0  0  0  0  0  0  0  0  0  0
   -2.0639    2.7415   -0.6759 O   0  0  0  0  0  0  0  0  0  0  0  0
   -2.8033    3.1033   -0.1865 H   0  0  0  0  0  0  0  0  0  0  0  0
    0.5920   -0.2154    1.5497 C   0  0  0  0  0  0  0  0  0  0  0  0
    1.7860   -0.4596    1.7183 O   0  0  0  0  0  0  0  0  0  0  0  0
   -0.2294    0.0669    2.5672 N   0  0  0  0  0  0  0  0  0  0  0  0
   -1.2130    0.1938    2.3518 H   0  0  0  0  0  0  0  0  0  0  0  0
    0.1836    0.1337    3.9673 C   0  0  0  0  0  0  0  0  0  0  0  0
    1.0451    0.7976    4.0666 H   0  0  0  0  0  0  0  0  0  0  0  0
   -0.6344    0.5115    4.5820 H   0  0  0  0  0  0  0  0  0  0  0  0
    0.4676   -0.8609    4.3157 H   0  0  0  0  0  0  0  0  0  0  0  0
  5  6  2  0  0  0  0
  5  7  1  0  0  0  0
  2  3  1  0  0  0  0
  2  4  1  0  0  0  0
  2  5  1  0  0  0  0
  1  2  1  0  0  0  0
 18 19  2  0  0  0  0
 18 20  1  0  0  0  0
 16 17  1  0  0  0  0
 14 15  2  0  0  0  0
 14 16  1  0  0  0  0
 11 12  1  0  0  0  0
 11 13  1  0  0  0  0
 11 14  1  0  0  0  0
  9 10  1  0  0  0  0
  9 11  1  0  0  0  0
  9 18  1  0  0  0  0
  7  8  1  0  0  0  0
  7  9  1  0  0  0  0
 22 23  1  0  0  0  0
 22 24  1  0  0  0  0
 22 25  1  0  0  0  0
 20 21  1  0  0  0  0
 20 22  1  0  0  0  0
M  END
$$$$
default_name
  -OEChem-02102213163D

 25 24  0     1  0  0  0  0  0999 V2000
   -2.7826   -3.8464    0.7821 H   0  0  0  0  0  0  0  0  0  0  0  0
   -2.8156   -2.8034    0.4711 C   0  0  0  0  0  0  0  0  0  0  0  0
   -3.4336   -2.2354    1.1641 H   0  0  0  0  0  0  0  0  0  0  0  0
   -3.2256   -2.7344   -0.5349 H   0  0  0  0  0  0  0  0  0  0  0  0
   -1.4126   -2.2444    0.4801 C   0  0  0  0  0  0  0  0  0  0  0  0
   -0.4686   -2.9534    0.8001 O   0  0  0  0  0  0  0  0  0  0  0  0
   -1.2736   -0.9704    0.1241 N   0  0  0  0  0  0  0  0  0  0  0  0
   -2.0996   -0.4354   -0.1019 H   0  0  0  0  0  0  0  0  0  0  0  0
   -0.0016   -0.2394    0.1271 C   0  0  1  0  0  0  0  0  0  0  0  0
    0.6995   -0.7619   -0.5275 H   0  0  0  0  0  0  0  0  0  0  0  0
   -0.2283    1.1832   -0.4215 C   0  0  0  0  0  0  0  0  0  0  0  0
    0.6276    1.8103   -0.1688 H   0  0  0  0  0  0  0  0  0  0  0  0
   -0.3092    1.1490   -1.5086 H   0  0  0  0  0  0  0  0  0  0  0  0
   -1.4664    1.8651    0.1529 C   0  0  0  0  0  0  0  0  0  0  0  0
   -1.7909    1.8760    1.3331 O   0  0  0  0  0  0  0  0  0  0  0  0
   -2.2404    2.4879   -0.7554 O   0  0  0  0  0  0  0  0  0  0  0  0
   -2.9594    2.8826   -0.2609 H   0  0  0  0  0  0  0  0  0  0  0  0
    0.5920   -0.2154    1.5497 C   0  0  0  0  0  0  0  0  0  0  0  0
    1.7860   -0.4596    1.7183 O   0  0  0  0  0  0  0  0  0  0  0  0
   -0.2294    0.0669    2.5672 N   0  0  0  0  0  0  0  0  0  0  0  0
   -1.2130    0.1938    2.3518 H   0  0  0  0  0  0  0  0  0  0  0  0
    0.1836    0.1337    3.9673 C   0  0  0  0  0  0  0  0  0  0  0  0
    1.0451    0.7976    4.0666 H   0  0  0  0  0  0  0  0  0  0  0  0
   -0.6344    0.5115    4.5820 H   0  0  0  0  0  0  0  0  0  0  0  0
    0.4676   -0.8609    4.3157 H   0  0  0  0  0  0  0  0  0  0  0  0
  5  6  2  0  0  0  0
  5  7  1  0  0  0  0
  2  3  1  0  0  0  0
  2  4  1  0  0  0  0
  2  5  1  0  0  0  0
  1  2  1  0  0  0  0
 18 19  2  0  0  0  0
 18 20  1  0  0  0  0
 16 17  1  0  0  0  0
 14 15  2  0  0  0  0
 14 16  1  0  0  0  0
 11 12  1  0  0  0  0
 11 13  1  0  0  0  0
 11 14  1  0  0  0  0
  9 10  1  0  0  0  0
  9 11  1  0  0  0  0
  9 18  1  0  0  0  0
  7  8  1  0  0  0  0
  7  9  1  0  0  0  0
 22 23  1  0  0  0  0
 22 24  1  0  0  0  0
 22 25  1  0  0  0  0
 20 21  1  0  0  0  0
 20 22  1  0  0  0  0
M  END
$$$$
default_name
  -OEChem-02102213163D

 25 24  0     1  0  0  0  0  0999 V2000
   -2.7826   -3.8464    0.7821 H   0  0  0  0  0  0  0  0  0  0  0  0
   -2.8156   -2.8034    0.4711 C   0  0  0  0  0  0  0  0  0  0  0  0
   -3.4336   -2.2354    1.1641 H   0  0  0  0  0  0  0  0  0  0  0  0
   -3.2256   -2.7344   -0.5349 H   0  0  0  0  0  0  0  0  0  0  0  0
   -1.4126   -2.2444    0.4801 C   0  0  0  0  0  0  0  0  0  0  0  0
   -0.4686   -2.9534    0.8001 O   0  0  0  0  0  0  0  0  0  0  0  0
   -1.2736   -0.9704    0.1241 N   0  0  0  0  0  0  0  0  0  0  0  0
   -2.0996   -0.4354   -0.1019 H   0  0  0  0  0  0  0  0  0  0  0  0
   -0.0016   -0.2394    0.1271 C   0  0  1  0  0  0  0  0  0  0  0  0
    0.6995   -0.7619   -0.5275 H   0  0  0  0  0  0  0  0  0  0  0  0
   -0.2283    1.1832   -0.4215 C   0  0  0  0  0  0  0  0  0  0  0  0
    0.6276    1.8103   -0.1688 H   0  0  0  0  0  0  0  0  0  0  0  0
   -0.3092    1.1490   -1.5086 H   0  0  0  0  0  0  0  0  0  0  0  0
   -1.4664    1.8651    0.1529 C   0  0  0  0  0  0  0  0  0  0  0  0
   -1.6641    2.1027    1.3372 O   0  0  0  0  0  0  0  0  0  0  0  0
   -2.3954    2.2091   -0.7585 O   0  0  0  0  0  0  0  0  0  0  0  0
   -3.0973    2.6385   -0.2685 H   0  0  0  0  0  0  0  0  0  0  0  0
    0.5920   -0.2154    1.5497 C   0  0  0  0  0  0  0  0  0  0  0  0
    1.7860   -0.4596    1.7183 O   0  0  0  0  0  0  0  0  0  0  0  0
   -0.2294    0.0669    2.5672 N   0  0  0  0  0  0  0  0  0  0  0  0
   -1.2130    0.1938    2.3518 H   0  0  0  0  0  0  0  0  0  0  0  0
    0.1836    0.1337    3.9673 C   0  0  0  0  0  0  0  0  0  0  0  0
    1.0451    0.7976    4.0666 H   0  0  0  0  0  0  0  0  0  0  0  0
   -0.6344    0.5115    4.5820 H   0  0  0  0  0  0  0  0  0  0  0  0
    0.4676   -0.8609    4.3157 H   0  0  0  0  0  0  0  0  0  0  0  0
  5  6  2  0  0  0  0
  5  7  1  0  0  0  0
  2  3  1  0  0  0  0
  2  4  1  0  0  0  0
  2  5  1  0  0  0  0
  1  2  1  0  0  0  0
 18 19  2  0  0  0  0
 18 20  1  0  0  0  0
 16 17  1  0  0  0  0
 14 15  2  0  0  0  0
 14 16  1  0  0  0  0
 11 12  1  0  0  0  0
 11 13  1  0  0  0  0
 11 14  1  0  0  0  0
  9 10  1  0  0  0  0
  9 11  1  0  0  0  0
  9 18  1  0  0  0  0
  7  8  1  0  0  0  0
  7  9  1  0  0  0  0
 22 23  1  0  0  0  0
 22 24  1  0  0  0  0
 22 25  1  0  0  0  0
 20 21  1  0  0  0  0
 20 22  1  0  0  0  0
M  END
$$$$
default_name
  -OEChem-02102213163D

 25 24  0     1  0  0  0  0  0999 V2000
   -2.7826   -3.8464    0.7821 H   0  0  0  0  0  0  0  0  0  0  0  0
   -2.8156   -2.8034    0.4711 C   0  0  0  0  0  0  0  0  0  0  0  0
   -3.4336   -2.2354    1.1641 H   0  0  0  0  0  0  0  0  0  0  0  0
   -3.2256   -2.7344   -0.5349 H   0  0  0  0  0  0  0  0  0  0  0  0
   -1.4126   -2.2444    0.4801 C   0  0  0  0  0  0  0  0  0  0  0  0
   -0.4686   -2.9534    0.8001 O   0  0  0  0  0  0  0  0  0  0  0  0
   -1.2736   -0.9704    0.1241 N   0  0  0  0  0  0  0  0  0  0  0  0
   -2.0996   -0.4354   -0.1019 H   0  0  0  0  0  0  0  0  0  0  0  0
   -0.0016   -0.2394    0.1271 C   0  0  1  0  0  0  0  0  0  0  0  0
    0.6995   -0.7619   -0.5275 H   0  0  0  0  0  0  0  0  0  0  0  0
   -0.2283    1.1832   -0.4215 C   0  0  0  0  0  0  0  0  0  0  0  0
    0.6276    1.8103   -0.1688 H   0  0  0  0  0  0  0  0  0  0  0  0
   -0.3092    1.1490   -1.5086 H   0  0  0  0  0  0  0  0  0  0  0  0
   -1.4664    1.8651    0.1529 C   0  0  0  0  0  0  0  0  0  0  0  0
   -1.5632    2.3350    1.2790 O   0  0  0  0  0  0  0  0  0  0  0  0
   -2.5183    1.9240   -0.6849 O   0  0  0  0  0  0  0  0  0  0  0  0
   -3.2076    2.3878   -0.2085 H   0  0  0  0  0  0  0  0  0  0  0  0
    0.5920   -0.2154    1.5497 C   0  0  0  0  0  0  0  0  0  0  0  0
    1.7860   -0.4596    1.7183 O   0  0  0  0  0  0  0  0  0  0  0  0
   -0.2294    0.0669    2.5672 N   0  0  0  0  0  0  0  0  0  0  0  0
   -1.2130    0.1938    2.3518 H   0  0  0  0  0  0  0  0  0  0  0  0
    0.1836    0.1337    3.9673 C   0  0  0  0  0  0  0  0  0  0  0  0
    1.0451    0.7976    4.0666 H   0  0  0  0  0  0  0  0  0  0  0  0
   -0.6344    0.5115    4.5820 H   0  0  0  0  0  0  0  0  0  0  0  0
    0.4676   -0.8609    4.3157 H   0  0  0  0  0  0  0  0  0  0  0  0
  5  6  2  0  0  0  0
  5  7  1  0  0  0  0
  2  3  1  0  0  0  0
  2  4  1  0  0  0  0
  2  5  1  0  0  0  0
  1  2  1  0  0  0  0
 18 19  2  0  0  0  0
 18 20  1  0  0  0  0
 16 17  1  0  0  0  0
 14 15  2  0  0  0  0
 14 16  1  0  0  0  0
 11 12  1  0  0  0  0
 11 13  1  0  0  0  0
 11 14  1  0  0  0  0
  9 10  1  0  0  0  0
  9 11  1  0  0  0  0
  9 18  1  0  0  0  0
  7  8  1  0  0  0  0
  7  9  1  0  0  0  0
 22 23  1  0  0  0  0
 22 24  1  0  0  0  0
 22 25  1  0  0  0  0
 20 21  1  0  0  0  0
 20 22  1  0  0  0  0
M  END
$$$$
default_name
  -OEChem-02102213163D

 25 24  0     1  0  0  0  0  0999 V2000
   -2.7826   -3.8464    0.7821 H   0  0  0  0  0  0  0  0  0  0  0  0
   -2.8156   -2.8034    0.4711 C   0  0  0  0  0  0  0  0  0  0  0  0
   -3.4336   -2.2354    1.1641 H   0  0  0  0  0  0  0  0  0  0  0  0
   -3.2256   -2.7344   -0.5349 H   0  0  0  0  0  0  0  0  0  0  0  0
   -1.4126   -2.2444    0.4801 C   0  0  0  0  0  0  0  0  0  0  0  0
   -0.4686   -2.9534    0.8001 O   0  0  0  0  0  0  0  0  0  0  0  0
   -1.2736   -0.9704    0.1241 N   0  0  0  0  0  0  0  0  0  0  0  0
   -2.0996   -0.4354   -0.1019 H   0  0  0  0  0  0  0  0  0  0  0  0
   -0.0016   -0.2394    0.1271 C   0  0  1  0  0  0  0  0  0  0  0  0
    0.6995   -0.7619   -0.5275 H   0  0  0  0  0  0  0  0  0  0  0  0
   -0.2283    1.1832   -0.4215 C   0  0  0  0  0  0  0  0  0  0  0  0
    0.6276    1.8103   -0.1688 H   0  0  0  0  0  0  0  0  0  0  0  0
   -0.3092    1.1490   -1.5086 H   0  0  0  0  0  0  0  0  0  0  0  0
   -1.4664    1.8651    0.1529 C   0  0  0  0  0  0  0  0  0  0  0  0
   -1.4951    2.5569    1.1623 O   0  0  0  0  0  0  0  0  0  0  0  0
   -2.6007    1.6521   -0.5399 O   0  0  0  0  0  0  0  0  0  0  0  0
   -3.2828    2.1474   -0.0852 H   0  0  0  0  0  0  0  0  0  0  0  0
    0.5920   -0.2154    1.5497 C   0  0  0  0  0  0  0  0  0  0  0  0
    1.7860   -0.4596    1.7183 O   0  0  0  0  0  0  0  0  0  0  0  0
   -0.2294    0.0669    2.5672 N   0  0  0  0  0  0  0  0  0  0  0  0
   -1.2130    0.1938    2.3518 H   0  0  0  0  0  0  0  0  0  0  0  0
    0.1836    0.1337    3.9673 C   0  0  0  0  0  0  0  0  0  0  0  0
    1.0451    0.7976    4.0666 H   0  0  0  0  0  0  0  0  0  0  0  0
   -0.6344    0.5115    4.5820 H   0  0  0  0  0  0  0  0  0  0  0  0
    0.4676   -0.8609    4.3157 H   0  0  0  0  0  0  0  0  0  0  0  0
  5  6  2  0  0  0  0
  5  7  1  0  0  0  0
  2  3  1  0  0  0  0
  2  4  1  0  0  0  0
  2  5  1  0  0  0  0
  1  2  1  0  0  0  0
 18 19  2  0  0  0  0
 18 20  1  0  0  0  0
 16 17  1  0  0  0  0
 14 15  2  0  0  0  0
 14 16  1  0  0  0  0
 11 12  1  0  0  0  0
 11 13  1  0  0  0  0
 11 14  1  0  0  0  0
  9 10  1  0  0  0  0
  9 11  1  0  0  0  0
  9 18  1  0  0  0  0
  7  8  1  0  0  0  0
  7  9  1  0  0  0  0
 22 23  1  0  0  0  0
 22 24  1  0  0  0  0
 22 25  1  0  0  0  0
 20 21  1  0  0  0  0
 20 22  1  0  0  0  0
M  END
$$$$
default_name
  -OEChem-02102213163D

 25 24  0     1  0  0  0  0  0999 V2000
   -2.7826   -3.8464    0.7821 H   0  0  0  0  0  0  0  0  0  0  0  0
   -2.8156   -2.8034    0.4711 C   0  0  0  0  0  0  0  0  0  0  0  0
   -3.4336   -2.2354    1.1641 H   0  0  0  0  0  0  0  0  0  0  0  0
   -3.2256   -2.7344   -0.5349 H   0  0  0  0  0  0  0  0  0  0  0  0
   -1.4126   -2.2444    0.4801 C   0  0  0  0  0  0  0  0  0  0  0  0
   -0.4686   -2.9534    0.8001 O   0  0  0  0  0  0  0  0  0  0  0  0
   -1.2736   -0.9704    0.1241 N   0  0  0  0  0  0  0  0  0  0  0  0
   -2.0996   -0.4354   -0.1019 H   0  0  0  0  0  0  0  0  0  0  0  0
   -0.0016   -0.2394    0.1271 C   0  0  1  0  0  0  0  0  0  0  0  0
    0.6995   -0.7619   -0.5275 H   0  0  0  0  0  0  0  0  0  0  0  0
   -0.2283    1.1832   -0.4215 C   0  0  0  0  0  0  0  0  0  0  0  0
    0.6276    1.8103   -0.1688 H   0  0  0  0  0  0  0  0  0  0  0  0
   -0.3092    1.1490   -1.5086 H   0  0  0  0  0  0  0  0  0  0  0  0
   -1.4664    1.8651    0.1529 C   0  0  0  0  0  0  0  0  0  0  0  0
   -1.4645    2.7534    0.9950 O   0  0  0  0  0  0  0  0  0  0  0  0
   -2.6371    1.4120   -0.3331 O   0  0  0  0  0  0  0  0  0  0  0  0
   -3.3177    1.9338    0.0931 H   0  0  0  0  0  0  0  0  0  0  0  0
    0.5920   -0.2154    1.5497 C   0  0  0  0  0  0  0  0  0  0  0  0
    1.7860   -0.4596    1.7183 O   0  0  0  0  0  0  0  0  0  0  0  0
   -0.2294    0.0669    2.5672 N   0  0  0  0  0  0  0  0  0  0  0  0
   -1.2130    0.1938    2.3518 H   0  0  0  0  0  0  0  0  0  0  0  0
    0.1836    0.1337    3.9673 C   0  0  0  0  0  0  0  0  0  0  0  0
    1.0451    0.7976    4.0666 H   0  0  0  0  0  0  0  0  0  0  0  0
   -0.6344    0.5115    4.5820 H   0  0  0  0  0  0  0  0  0  0  0  0
    0.4676   -0.8609    4.3157 H   0  0  0  0  0  0  0  0  0  0  0  0
  5  6  2  0  0  0  0
  5  7  1  0  0  0  0
  2  3  1  0  0  0  0
  2  4  1  0  0  0  0
  2  5  1  0  0  0  0
  1  2  1  0  0  0  0
 18 19  2  0  0  0  0
 18 20  1  0  0  0  0
 16 17  1  0  0  0  0
 14 15  2  0  0  0  0
 14 16  1  0  0  0  0
 11 12  1  0  0  0  0
 11 13  1  0  0  0  0
 11 14  1  0  0  0  0
  9 10  1  0  0  0  0
  9 11  1  0  0  0  0
  9 18  1  0  0  0  0
  7  8  1  0  0  0  0
  7  9  1  0  0  0  0
 22 23  1  0  0  0  0
 22 24  1  0  0  0  0
 22 25  1  0  0  0  0
 20 21  1  0  0  0  0
 20 22  1  0  0  0  0
M  END
$$$$
default_name
  -OEChem-02102213163D

 25 24  0     1  0  0  0  0  0999 V2000
   -2.7826   -3.8464    0.7821 H   0  0  0  0  0  0  0  0  0  0  0  0
   -2.8156   -2.8034    0.4711 C   0  0  0  0  0  0  0  0  0  0  0  0
   -3.4336   -2.2354    1.1641 H   0  0  0  0  0  0  0  0  0  0  0  0
   -3.2256   -2.7344   -0.5349 H   0  0  0  0  0  0  0  0  0  0  0  0
   -1.4126   -2.2444    0.4801 C   0  0  0  0  0  0  0  0  0  0  0  0
   -0.4686   -2.9534    0.8001 O   0  0  0  0  0  0  0  0  0  0  0  0
   -1.2736   -0.9704    0.1241 N   0  0  0  0  0  0  0  0  0  0  0  0
   -2.0996   -0.4354   -0.1019 H   0  0  0  0  0  0  0  0  0  0  0  0
   -0.0016   -0.2394    0.1271 C   0  0  1  0  0  0  0  0  0  0  0  0
    0.6995   -0.7619   -0.5275 H   0  0  0  0  0  0  0  0  0  0  0  0
   -0.2283    1.1832   -0.4215 C   0  0  0  0  0  0  0  0  0  0  0  0
    0.6276    1.8103   -0.1688 H   0  0  0  0  0  0  0  0  0  0  0  0
   -0.3092    1.1490   -1.5086 H   0  0  0  0  0  0  0  0  0  0  0  0
   -1.4664    1.8651    0.1529 C   0  0  0  0  0  0  0  0  0  0  0  0
   -1.4734    2.9110    0.7887 O   0  0  0  0  0  0  0  0  0  0  0  0
   -2.6249    1.2199   -0.0787 O   0  0  0  0  0  0  0  0  0  0  0  0
   -3.3100    1.7615    0.3143 H   0  0  0  0  0  0  0  0  0  0  0  0
    0.5920   -0.2154    1.5497 C   0  0  0  0  0  0  0  0  0  0  0  0
    1.7860   -0.4596    1.7183 O   0  0  0  0  0  0  0  0  0  0  0  0
   -0.2294    0.0669    2.5672 N   0  0  0  0  0  0  0  0  0  0  0  0
   -1.2130    0.1938    2.3518 H   0  0  0  0  0  0  0  0  0  0  0  0
    0.1836    0.1337    3.9673 C   0  0  0  0  0  0  0  0  0  0  0  0
    1.0451    0.7976    4.0666 H   0  0  0  0  0  0  0  0  0  0  0  0
   -0.6344    0.5115    4.5820 H   0  0  0  0  0  0  0  0  0  0  0  0
    0.4676   -0.8609    4.3157 H   0  0  0  0  0  0  0  0  0  0  0  0
  5  6  2  0  0  0  0
  5  7  1  0  0  0  0
  2  3  1  0  0  0  0
  2  4  1  0  0  0  0
  2  5  1  0  0  0  0
  1  2  1  0  0  0  0
 18 19  2  0  0  0  0
 18 20  1  0  0  0  0
 16 17  1  0  0  0  0
 14 15  2  0  0  0  0
 14 16  1  0  0  0  0
 11 12  1  0  0  0  0
 11 13  1  0  0  0  0
 11 14  1  0  0  0  0
  9 10  1  0  0  0  0
  9 11  1  0  0  0  0
  9 18  1  0  0  0  0
  7  8  1  0  0  0  0
  7  9  1  0  0  0  0
 22 23  1  0  0  0  0
 22 24  1  0  0  0  0
 22 25  1  0  0  0  0
 20 21  1  0  0  0  0
 20 22  1  0  0  0  0
M  END
$$$$
default_name
  -OEChem-02102213163D

 25 24  0     1  0  0  0  0  0999 V2000
   -2.7826   -3.8464    0.7821 H   0  0  0  0  0  0  0  0  0  0  0  0
   -2.8156   -2.8034    0.4711 C   0  0  0  0  0  0  0  0  0  0  0  0
   -3.4336   -2.2354    1.1641 H   0  0  0  0  0  0  0  0  0  0  0  0
   -3.2256   -2.7344   -0.5349 H   0  0  0  0  0  0  0  0  0  0  0  0
   -1.4126   -2.2444    0.4801 C   0  0  0  0  0  0  0  0  0  0  0  0
   -0.4686   -2.9534    0.8001 O   0  0  0  0  0  0  0  0  0  0  0  0
   -1.2736   -0.9704    0.1241 N   0  0  0  0  0  0  0  0  0  0  0  0
   -2.0996   -0.4354   -0.1019 H   0  0  0  0  0  0  0  0  0  0  0  0
   -0.0016   -0.2394    0.1271 C   0  0  1  0  0  0  0  0  0  0  0  0
    0.6995   -0.7619   -0.5275 H   0  0  0  0  0  0  0  0  0  0  0  0
   -0.2283    1.1832   -0.4215 C   0  0  0  0  0  0  0  0  0  0  0  0
    0.6276    1.8103   -0.1688 H   0  0  0  0  0  0  0  0  0  0  0  0
   -0.3092    1.1490   -1.5086 H   0  0  0  0  0  0  0  0  0  0  0  0
   -1.4664    1.8651    0.1529 C   0  0  0  0  0  0  0  0  0  0  0  0
   -1.5212    3.0191    0.5573 O   0  0  0  0  0  0  0  0  0  0  0  0
   -2.5649    1.0889    0.2060 O   0  0  0  0  0  0  0  0  0  0  0  0
   -3.2602    1.6423    0.5632 H   0  0  0  0  0  0  0  0  0  0  0  0
    0.5920   -0.2154    1.5497 C   0  0  0  0  0  0  0  0  0  0  0  0
    1.7860   -0.4596    1.7183 O   0  0  0  0  0  0  0  0  0  0  0  0
   -0.2294    0.0669    2.5672 N   0  0  0  0  0  0  0  0  0  0  0  0
   -1.2130    0.1938    2.3518 H   0  0  0  0  0  0  0  0  0  0  0  0
    0.1836    0.1337    3.9673 C   0  0  0  0  0  0  0  0  0  0  0  0
    1.0451    0.7976    4.0666 H   0  0  0  0  0  0  0  0  0  0  0  0
   -0.6344    0.5115    4.5820 H   0  0  0  0  0  0  0  0  0  0  0  0
    0.4676   -0.8609    4.3157 H   0  0  0  0  0  0  0  0  0  0  0  0
  5  6  2  0  0  0  0
  5  7  1  0  0  0  0
  2  3  1  0  0  0  0
  2  4  1  0  0  0  0
  2  5  1  0  0  0  0
  1  2  1  0  0  0  0
 18 19  2  0  0  0  0
 18 20  1  0  0  0  0
 16 17  1  0  0  0  0
 14 15  2  0  0  0  0
 14 16  1  0  0  0  0
 11 12  1  0  0  0  0
 11 13  1  0  0  0  0
 11 14  1  0  0  0  0
  9 10  1  0  0  0  0
  9 11  1  0  0  0  0
  9 18  1  0  0  0  0
  7  8  1  0  0  0  0
  7  9  1  0  0  0  0
 22 23  1  0  0  0  0
 22 24  1  0  0  0  0
 22 25  1  0  0  0  0
 20 21  1  0  0  0  0
 20 22  1  0  0  0  0
M  END
$$$$
default_name
  -OEChem-02102213163D

 25 24  0     1  0  0  0  0  0999 V2000
   -2.7826   -3.8464    0.7821 H   0  0  0  0  0  0  0  0  0  0  0  0
   -2.8156   -2.8034    0.4711 C   0  0  0  0  0  0  0  0  0  0  0  0
   -3.4336   -2.2354    1.1641 H   0  0  0  0  0  0  0  0  0  0  0  0
   -3.2256   -2.7344   -0.5349 H   0  0  0  0  0  0  0  0  0  0  0  0
   -1.4126   -2.2444    0.4801 C   0  0  0  0  0  0  0  0  0  0  0  0
   -0.4686   -2.9534    0.8001 O   0  0  0  0  0  0  0  0  0  0  0  0
   -1.2736   -0.9704    0.1241 N   0  0  0  0  0  0  0  0  0  0  0  0
   -2.0996   -0.4354   -0.1019 H   0  0  0  0  0  0  0  0  0  0  0  0
   -0.0016   -0.2394    0.1271 C   0  0  1  0  0  0  0  0  0  0  0  0
    0.6995   -0.7619   -0.5275 H   0  0  0  0  0  0  0  0  0  0  0  0
   -0.2283    1.1832   -0.4215 C   0  0  0  0  0  0  0  0  0  0  0  0
    0.6276    1.8103   -0.1688 H   0  0  0  0  0  0  0  0  0  0  0  0
   -0.3092    1.1490   -1.5086 H   0  0  0  0  0  0  0  0  0  0  0  0
   -1.4664    1.8651    0.1529 C   0  0  0  0  0  0  0  0  0  0  0  0
   -1.6047    3.0702    0.3167 O   0  0  0  0  0  0  0  0  0  0  0  0
   -2.4613    1.0281    0.5015 O   0  0  0  0  0  0  0  0  0  0  0  0
   -3.1717    1.5843    0.8229 H   0  0  0  0  0  0  0  0  0  0  0  0
    0.5920   -0.2154    1.5497 C   0  0  0  0  0  0  0  0  0  0  0  0
    1.7860   -0.4596    1.7183 O   0  0  0  0  0  0  0  0  0  0  0  0
   -0.2294    0.0669    2.5672 N   0  0  0  0  0  0  0  0  0  0  0  0
   -1.2130    0.1938    2.3518 H   0  0  0  0  0  0  0  0  0  0  0  0
    0.1836    0.1337    3.9673 C   0  0  0  0  0  0  0  0  0  0  0  0
    1.0451    0.7976    4.0666 H   0  0  0  0  0  0  0  0  0  0  0  0
   -0.6344    0.5115    4.5820 H   0  0  0  0  0  0  0  0  0  0  0  0
    0.4676   -0.8609    4.3157 H   0  0  0  0  0  0  0  0  0  0  0  0
  5  6  2  0  0  0  0
  5  7  1  0  0  0  0
  2  3  1  0  0  0  0
  2  4  1  0  0  0  0
  2  5  1  0  0  0  0
  1  2  1  0  0  0  0
 18 19  2  0  0  0  0
 18 20  1  0  0  0  0
 16 17  1  0  0  0  0
 14 15  2  0  0  0  0
 14 16  1  0  0  0  0
 11 12  1  0  0  0  0
 11 13  1  0  0  0  0
 11 14  1  0  0  0  0
  9 10  1  0  0  0  0
  9 11  1  0  0  0  0
  9 18  1  0  0  0  0
  7  8  1  0  0  0  0
  7  9  1  0  0  0  0
 22 23  1  0  0  0  0
 22 24  1  0  0  0  0
 22 25  1  0  0  0  0
 20 21  1  0  0  0  0
 20 22  1  0  0  0  0
M  END
$$$$
default_name
  -OEChem-02102213163D

 25 24  0     1  0  0  0  0  0999 V2000
   -2.7826   -3.8464    0.7821 H   0  0  0  0  0  0  0  0  0  0  0  0
   -2.8156   -2.8034    0.4711 C   0  0  0  0  0  0  0  0  0  0  0  0
   -3.4336   -2.2354    1.1641 H   0  0  0  0  0  0  0  0  0  0  0  0
   -3.2256   -2.7344   -0.5349 H   0  0  0  0  0  0  0  0  0  0  0  0
   -1.4126   -2.2444    0.4801 C   0  0  0  0  0  0  0  0  0  0  0  0
   -0.4686   -2.9534    0.8001 O   0  0  0  0  0  0  0  0  0  0  0  0
   -1.2736   -0.9704    0.1241 N   0  0  0  0  0  0  0  0  0  0  0  0
   -2.0996   -0.4354   -0.1019 H   0  0  0  0  0  0  0  0  0  0  0  0
   -0.0016   -0.2394    0.1271 C   0  0  1  0  0  0  0  0  0  0  0  0
    0.6995   -0.7619   -0.5275 H   0  0  0  0  0  0  0  0  0  0  0  0
   -0.2283    1.1832   -0.4215 C   0  0  0  0  0  0  0  0  0  0  0  0
    0.6276    1.8103   -0.1688 H   0  0  0  0  0  0  0  0  0  0  0  0
   -0.3092    1.1490   -1.5086 H   0  0  0  0  0  0  0  0  0  0  0  0
   -1.4664    1.8651    0.1529 C   0  0  0  0  0  0  0  0  0  0  0  0
   -1.7182    3.0609    0.0831 O   0  0  0  0  0  0  0  0  0  0  0  0
   -2.3211    1.0415    0.7877 O   0  0  0  0  0  0  0  0  0  0  0  0
   -3.0505    1.5914    1.0757 H   0  0  0  0  0  0  0  0  0  0  0  0
    0.5920   -0.2154    1.5497 C   0  0  0  0  0  0  0  0  0  0  0  0
    1.7860   -0.4596    1.7183 O   0  0  0  0  0  0  0  0  0  0  0  0
   -0.2294    0.0669    2.5672 N   0  0  0  0  0  0  0  0  0  0  0  0
   -1.2130    0.1938    2.3518 H   0  0  0  0  0  0  0  0  0  0  0  0
    0.1836    0.1337    3.9673 C   0  0  0  0  0  0  0  0  0  0  0  0
    1.0451    0.7976    4.0666 H   0  0  0  0  0  0  0  0  0  0  0  0
   -0.6344    0.5115    4.5820 H   0  0  0  0  0  0  0  0  0  0  0  0
    0.4676   -0.8609    4.3157 H   0  0  0  0  0  0  0  0  0  0  0  0
  5  6  2  0  0  0  0
  5  7  1  0  0  0  0
  2  3  1  0  0  0  0
  2  4  1  0  0  0  0
  2  5  1  0  0  0  0
  1  2  1  0  0  0  0
 18 19  2  0  0  0  0
 18 20  1  0  0  0  0
 16 17  1  0  0  0  0
 14 15  2  0  0  0  0
 14 16  1  0  0  0  0
 11 12  1  0  0  0  0
 11 13  1  0  0  0  0
 11 14  1  0  0  0  0
  9 10  1  0  0  0  0
  9 11  1  0  0  0  0
  9 18  1  0  0  0  0
  7  8  1  0  0  0  0
  7  9  1  0  0  0  0
 22 23  1  0  0  0  0
 22 24  1  0  0  0  0
 22 25  1  0  0  0  0
 20 21  1  0  0  0  0
 20 22  1  0  0  0  0
M  END
$$$$
default_name
  -OEChem-02102213163D

 25 24  0     1  0  0  0  0  0999 V2000
   -2.7826   -3.8464    0.7821 H   0  0  0  0  0  0  0  0  0  0  0  0
   -2.8156   -2.8034    0.4711 C   0  0  0  0  0  0  0  0  0  0  0  0
   -3.4336   -2.2354    1.1641 H   0  0  0  0  0  0  0  0  0  0  0  0
   -3.2256   -2.7344   -0.5349 H   0  0  0  0  0  0  0  0  0  0  0  0
   -1.4126   -2.2444    0.4801 C   0  0  0  0  0  0  0  0  0  0  0  0
   -0.4686   -2.9534    0.8001 O   0  0  0  0  0  0  0  0  0  0  0  0
   -1.2736   -0.9704    0.1241 N   0  0  0  0  0  0  0  0  0  0  0  0
   -2.0996   -0.4354   -0.1019 H   0  0  0  0  0  0  0  0  0  0  0  0
   -0.0016   -0.2394    0.1271 C   0  0  1  0  0  0  0  0  0  0  0  0
    0.6995   -0.7619   -0.5275 H   0  0  0  0  0  0  0  0  0  0  0  0
   -0.2283    1.1832   -0.4215 C   0  0  0  0  0  0  0  0  0  0  0  0
    0.7147    1.7311   -0.4101 H   0  0  0  0  0  0  0  0  0  0  0  0
   -0.5711    1.1278   -1.4553 H   0  0  0  0  0  0  0  0  0  0  0  0
   -1.2272    1.9968    0.3957 C   0  0  0  0  0  0  0  0  0  0  0  0
   -1.5707    3.1478    0.1602 O   0  0  0  0  0  0  0  0  0  0  0  0
   -1.7416    1.3541    1.4608 O   0  0  0  0  0  0  0  0  0  0  0  0
   -2.3583    1.9660    1.8639 H   0  0  0  0  0  0  0  0  0  0  0  0
    0.5920   -0.2154    1.5497 C   0  0  0  0  0  0  0  0  0  0  0  0
    1.7860   -0.4596    1.7183 O   0  0  0  0  0  0  0  0  0  0  0  0
   -0.2294    0.0669    2.5672 N   0  0  0  0  0  0  0  0  0  0  0  0
   -1.2130    0.1938    2.3518 H   0  0  0  0  0  0  0  0  0  0  0  0
    0.1836    0.1337    3.9673 C   0  0  0  0  0  0  0  0  0  0  0  0
    1.0451    0.7976    4.0666 H   0  0  0  0  0  0  0  0  0  0  0  0
   -0.6344    0.5115    4.5820 H   0  0  0  0  0  0  0  0  0  0  0  0
    0.4676   -0.8609    4.3157 H   0  0  0  0  0  0  0  0  0  0  0  0
  5  6  2  0  0  0  0
  5  7  1  0  0  0  0
  2  3  1  0  0  0  0
  2  4  1  0  0  0  0
  2  5  1  0  0  0  0
  1  2  1  0  0  0  0
 18 19  2  0  0  0  0
 18 20  1  0  0  0  0
 16 17  1  0  0  0  0
 14 15  2  0  0  0  0
 14 16  1  0  0  0  0
 11 12  1  0  0  0  0
 11 13  1  0  0  0  0
 11 14  1  0  0  0  0
  9 10  1  0  0  0  0
  9 11  1  0  0  0  0
  9 18  1  0  0  0  0
  7  8  1  0  0  0  0
  7  9  1  0  0  0  0
 22 23  1  0  0  0  0
 22 24  1  0  0  0  0
 22 25  1  0  0  0  0
 20 21  1  0  0  0  0
 20 22  1  0  0  0  0
M  END
$$$$
default_name
  -OEChem-02102213163D

 25 24  0     1  0  0  0  0  0999 V2000
   -2.7826   -3.8464    0.7821 H   0  0  0  0  0  0  0  0  0  0  0  0
   -2.8156   -2.8034    0.4711 C   0  0  0  0  0  0  0  0  0  0  0  0
   -3.4336   -2.2354    1.1641 H   0  0  0  0  0  0  0  0  0  0  0  0
   -3.2256   -2.7344   -0.5349 H   0  0  0  0  0  0  0  0  0  0  0  0
   -1.4126   -2.2444    0.4801 C   0  0  0  0  0  0  0  0  0  0  0  0
   -0.4686   -2.9534    0.8001 O   0  0  0  0  0  0  0  0  0  0  0  0
   -1.2736   -0.9704    0.1241 N   0  0  0  0  0  0  0  0  0  0  0  0
   -2.0996   -0.4354   -0.1019 H   0  0  0  0  0  0  0  0  0  0  0  0
   -0.0016   -0.2394    0.1271 C   0  0  1  0  0  0  0  0  0  0  0  0
    0.6995   -0.7619   -0.5275 H   0  0  0  0  0  0  0  0  0  0  0  0
   -0.2283    1.1832   -0.4215 C   0  0  0  0  0  0  0  0  0  0  0  0
    0.7147    1.7311   -0.4101 H   0  0  0  0  0  0  0  0  0  0  0  0
   -0.5711    1.1278   -1.4553 H   0  0  0  0  0  0  0  0  0  0  0  0
   -1.2272    1.9968    0.3957 C   0  0  0  0  0  0  0  0  0  0  0  0
   -1.7670    3.0340    0.0336 O   0  0  0  0  0  0  0  0  0  0  0  0
   -1.5006    1.4955    1.6147 O   0  0  0  0  0  0  0  0  0  0  0  0
   -2.1466    2.0865    2.0028 H   0  0  0  0  0  0  0  0  0  0  0  0
    0.5920   -0.2154    1.5497 C   0  0  0  0  0  0  0  0  0  0  0  0
    1.7860   -0.4596    1.7183 O   0  0  0  0  0  0  0  0  0  0  0  0
   -0.2294    0.0669    2.5672 N   0  0  0  0  0  0  0  0  0  0  0  0
   -1.2130    0.1938    2.3518 H   0  0  0  0  0  0  0  0  0  0  0  0
    0.1836    0.1337    3.9673 C   0  0  0  0  0  0  0  0  0  0  0  0
    1.0451    0.7976    4.0666 H   0  0  0  0  0  0  0  0  0  0  0  0
   -0.6344    0.5115    4.5820 H   0  0  0  0  0  0  0  0  0  0  0  0
    0.4676   -0.8609    4.3157 H   0  0  0  0  0  0  0  0  0  0  0  0
  5  6  2  0  0  0  0
  5  7  1  0  0  0  0
  2  3  1  0  0  0  0
  2  4  1  0  0  0  0
  2  5  1  0  0  0  0
  1  2  1  0  0  0  0
 18 19  2  0  0  0  0
 18 20  1  0  0  0  0
 16 17  1  0  0  0  0
 14 15  2  0  0  0  0
 14 16  1  0  0  0  0
 11 12  1  0  0  0  0
 11 13  1  0  0  0  0
 11 14  1  0  0  0  0
  9 10  1  0  0  0  0
  9 11  1  0  0  0  0
  9 18  1  0  0  0  0
  7  8  1  0  0  0  0
  7  9  1  0  0  0  0
 22 23  1  0  0  0  0
 22 24  1  0  0  0  0
 22 25  1  0  0  0  0
 20 21  1  0  0  0  0
 20 22  1  0  0  0  0
M  END
$$$$
default_name
  -OEChem-02102213163D

 25 24  0     1  0  0  0  0  0999 V2000
   -2.7826   -3.8464    0.7821 H   0  0  0  0  0  0  0  0  0  0  0  0
   -2.8156   -2.8034    0.4711 C   0  0  0  0  0  0  0  0  0  0  0  0
   -3.4336   -2.2354    1.1641 H   0  0  0  0  0  0  0  0  0  0  0  0
   -3.2256   -2.7344   -0.5349 H   0  0  0  0  0  0  0  0  0  0  0  0
   -1.4126   -2.2444    0.4801 C   0  0  0  0  0  0  0  0  0  0  0  0
   -0.4686   -2.9534    0.8001 O   0  0  0  0  0  0  0  0  0  0  0  0
   -1.2736   -0.9704    0.1241 N   0  0  0  0  0  0  0  0  0  0  0  0
   -2.0996   -0.4354   -0.1019 H   0  0  0  0  0  0  0  0  0  0  0  0
   -0.0016   -0.2394    0.1271 C   0  0  1  0  0  0  0  0  0  0  0  0
    0.6995   -0.7619   -0.5275 H   0  0  0  0  0  0  0  0  0  0  0  0
   -0.2283    1.1832   -0.4215 C   0  0  0  0  0  0  0  0  0  0  0  0
    0.7147    1.7311   -0.4101 H   0  0  0  0  0  0  0  0  0  0  0  0
   -0.5711    1.1278   -1.4553 H   0  0  0  0  0  0  0  0  0  0  0  0
   -1.2272    1.9968    0.3957 C   0  0  0  0  0  0  0  0  0  0  0  0
   -1.9583    2.8754   -0.0423 O   0  0  0  0  0  0  0  0  0  0  0  0
   -1.2661    1.6915    1.7062 O   0  0  0  0  0  0  0  0  0  0  0  0
   -1.9396    2.2557    2.0873 H   0  0  0  0  0  0  0  0  0  0  0  0
    0.5920   -0.2154    1.5497 C   0  0  0  0  0  0  0  0  0  0  0  0
    1.7860   -0.4596    1.7183 O   0  0  0  0  0  0  0  0  0  0  0  0
   -0.2294    0.0669    2.5672 N   0  0  0  0  0  0  0  0  0  0  0  0
   -1.2130    0.1938    2.3518 H   0  0  0  0  0  0  0  0  0  0  0  0
    0.1836    0.1337    3.9673 C   0  0  0  0  0  0  0  0  0  0  0  0
    1.0451    0.7976    4.0666 H   0  0  0  0  0  0  0  0  0  0  0  0
   -0.6344    0.5115    4.5820 H   0  0  0  0  0  0  0  0  0  0  0  0
    0.4676   -0.8609    4.3157 H   0  0  0  0  0  0  0  0  0  0  0  0
  5  6  2  0  0  0  0
  5  7  1  0  0  0  0
  2  3  1  0  0  0  0
  2  4  1  0  0  0  0
  2  5  1  0  0  0  0
  1  2  1  0  0  0  0
 18 19  2  0  0  0  0
 18 20  1  0  0  0  0
 16 17  1  0  0  0  0
 14 15  2  0  0  0  0
 14 16  1  0  0  0  0
 11 12  1  0  0  0  0
 11 13  1  0  0  0  0
 11 14  1  0  0  0  0
  9 10  1  0  0  0  0
  9 11  1  0  0  0  0
  9 18  1  0  0  0  0
  7  8  1  0  0  0  0
  7  9  1  0  0  0  0
 22 23  1  0  0  0  0
 22 24  1  0  0  0  0
 22 25  1  0  0  0  0
 20 21  1  0  0  0  0
 20 22  1  0  0  0  0
M  END
$$$$
default_name
  -OEChem-02102213163D

 25 24  0     1  0  0  0  0  0999 V2000
   -2.7826   -3.8464    0.7821 H   0  0  0  0  0  0  0  0  0  0  0  0
   -2.8156   -2.8034    0.4711 C   0  0  0  0  0  0  0  0  0  0  0  0
   -3.4336   -2.2354    1.1641 H   0  0  0  0  0  0  0  0  0  0  0  0
   -3.2256   -2.7344   -0.5349 H   0  0  0  0  0  0  0  0  0  0  0  0
   -1.4126   -2.2444    0.4801 C   0  0  0  0  0  0  0  0  0  0  0  0
   -0.4686   -2.9534    0.8001 O   0  0  0  0  0  0  0  0  0  0  0  0
   -1.2736   -0.9704    0.1241 N   0  0  0  0  0  0  0  0  0  0  0  0
   -2.0996   -0.4354   -0.1019 H   0  0  0  0  0  0  0  0  0  0  0  0
   -0.0016   -0.2394    0.1271 C   0  0  1  0  0  0  0  0  0  0  0  0
    0.6995   -0.7619   -0.5275 H   0  0  0  0  0  0  0  0  0  0  0  0
   -0.2283    1.1832   -0.4215 C   0  0  0  0  0  0  0  0  0  0  0  0
    0.7147    1.7311   -0.4101 H   0  0  0  0  0  0  0  0  0  0  0  0
   -0.5711    1.1278   -1.4553 H   0  0  0  0  0  0  0  0  0  0  0  0
   -1.2272    1.9968    0.3957 C   0  0  0  0  0  0  0  0  0  0  0  0
   -2.1315    2.6829   -0.0624 O   0  0  0  0  0  0  0  0  0  0  0  0
   -1.0542    1.9288    1.7289 O   0  0  0  0  0  0  0  0  0  0  0  0
   -1.7514    2.4623    2.1117 H   0  0  0  0  0  0  0  0  0  0  0  0
    0.5920   -0.2154    1.5497 C   0  0  0  0  0  0  0  0  0  0  0  0
    1.7860   -0.4596    1.7183 O   0  0  0  0  0  0  0  0  0  0  0  0
   -0.2294    0.0669    2.5672 N   0  0  0  0  0  0  0  0  0  0  0  0
   -1.2130    0.1938    2.3518 H   0  0  0  0  0  0  0  0  0  0  0  0
    0.1836    0.1337    3.9673 C   0  0  0  0  0  0  0  0  0  0  0  0
    1.0451    0.7976    4.0666 H   0  0  0  0  0  0  0  0  0  0  0  0
   -0.6344    0.5115    4.5820 H   0  0  0  0  0  0  0  0  0  0  0  0
    0.4676   -0.8609    4.3157 H   0  0  0  0  0  0  0  0  0  0  0  0
  5  6  2  0  0  0  0
  5  7  1  0  0  0  0
  2  3  1  0  0  0  0
  2  4  1  0  0  0  0
  2  5  1  0  0  0  0
  1  2  1  0  0  0  0
 18 19  2  0  0  0  0
 18 20  1  0  0  0  0
 16 17  1  0  0  0  0
 14 15  2  0  0  0  0
 14 16  1  0  0  0  0
 11 12  1  0  0  0  0
 11 13  1  0  0  0  0
 11 14  1  0  0  0  0
  9 10  1  0  0  0  0
  9 11  1  0  0  0  0
  9 18  1  0  0  0  0
  7  8  1  0  0  0  0
  7  9  1  0  0  0  0
 22 23  1  0  0  0  0
 22 24  1  0  0  0  0
 22 25  1  0  0  0  0
 20 21  1  0  0  0  0
 20 22  1  0  0  0  0
M  END
$$$$
default_name
  -OEChem-02102213163D

 25 24  0     1  0  0  0  0  0999 V2000
   -2.7826   -3.8464    0.7821 H   0  0  0  0  0  0  0  0  0  0  0  0
   -2.8156   -2.8034    0.4711 C   0  0  0  0  0  0  0  0  0  0  0  0
   -3.4336   -2.2354    1.1641 H   0  0  0  0  0  0  0  0  0  0  0  0
   -3.2256   -2.7344   -0.5349 H   0  0  0  0  0  0  0  0  0  0  0  0
   -1.4126   -2.2444    0.4801 C   0  0  0  0  0  0  0  0  0  0  0  0
   -0.4686   -2.9534    0.8001 O   0  0  0  0  0  0  0  0  0  0  0  0
   -1.2736   -0.9704    0.1241 N   0  0  0  0  0  0  0  0  0  0  0  0
   -2.0996   -0.4354   -0.1019 H   0  0  0  0  0  0  0  0  0  0  0  0
   -0.0016   -0.2394    0.1271 C   0  0  1  0  0  0  0  0  0  0  0  0
    0.6995   -0.7619   -0.5275 H   0  0  0  0  0  0  0  0  0  0  0  0
   -0.2283    1.1832   -0.4215 C   0  0  0  0  0  0  0  0  0  0  0  0
    0.7147    1.7311   -0.4101 H   0  0  0  0  0  0  0  0  0  0  0  0
   -0.5711    1.1278   -1.4553 H   0  0  0  0  0  0  0  0  0  0  0  0
   -1.2272    1.9968    0.3957 C   0  0  0  0  0  0  0  0  0  0  0  0
   -2.2750    2.4694   -0.0252 O   0  0  0  0  0  0  0  0  0  0  0  0
   -0.8792    2.1913    1.6814 O   0  0  0  0  0  0  0  0  0  0  0  0
   -1.5949    2.6920    2.0742 H   0  0  0  0  0  0  0  0  0  0  0  0
    0.5920   -0.2154    1.5497 C   0  0  0  0  0  0  0  0  0  0  0  0
    1.7860   -0.4596    1.7183 O   0  0  0  0  0  0  0  0  0  0  0  0
   -0.2294    0.0669    2.5672 N   0  0  0  0  0  0  0  0  0  0  0  0
   -1.2130    0.1938    2.3518 H   0  0  0  0  0  0  0  0  0  0  0  0
    0.1836    0.1337    3.9673 C   0  0  0  0  0  0  0  0  0  0  0  0
    1.0451    0.7976    4.0666 H   0  0  0  0  0  0  0  0  0  0  0  0
   -0.6344    0.5115    4.5820 H   0  0  0  0  0  0  0  0  0  0  0  0
    0.4676   -0.8609    4.3157 H   0  0  0  0  0  0  0  0  0  0  0  0
  5  6  2  0  0  0  0
  5  7  1  0  0  0  0
  2  3  1  0  0  0  0
  2  4  1  0  0  0  0
  2  5  1  0  0  0  0
  1  2  1  0  0  0  0
 18 19  2  0  0  0  0
 18 20  1  0  0  0  0
 16 17  1  0  0  0  0
 14 15  2  0  0  0  0
 14 16  1  0  0  0  0
 11 12  1  0  0  0  0
 11 13  1  0  0  0  0
 11 14  1  0  0  0  0
  9 10  1  0  0  0  0
  9 11  1  0  0  0  0
  9 18  1  0  0  0  0
  7  8  1  0  0  0  0
  7  9  1  0  0  0  0
 22 23  1  0  0  0  0
 22 24  1  0  0  0  0
 22 25  1  0  0  0  0
 20 21  1  0  0  0  0
 20 22  1  0  0  0  0
M  END
$$$$
default_name
  -OEChem-02102213163D

 25 24  0     1  0  0  0  0  0999 V2000
   -2.7826   -3.8464    0.7821 H   0  0  0  0  0  0  0  0  0  0  0  0
   -2.8156   -2.8034    0.4711 C   0  0  0  0  0  0  0  0  0  0  0  0
   -3.4336   -2.2354    1.1641 H   0  0  0  0  0  0  0  0  0  0  0  0
   -3.2256   -2.7344   -0.5349 H   0  0  0  0  0  0  0  0  0  0  0  0
   -1.4126   -2.2444    0.4801 C   0  0  0  0  0  0  0  0  0  0  0  0
   -0.4686   -2.9534    0.8001 O   0  0  0  0  0  0  0  0  0  0  0  0
   -1.2736   -0.9704    0.1241 N   0  0  0  0  0  0  0  0  0  0  0  0
   -2.0996   -0.4354   -0.1019 H   0  0  0  0  0  0  0  0  0  0  0  0
   -0.0016   -0.2394    0.1271 C   0  0  1  0  0  0  0  0  0  0  0  0
    0.6995   -0.7619   -0.5275 H   0  0  0  0  0  0  0  0  0  0  0  0
   -0.2283    1.1832   -0.4215 C   0  0  0  0  0  0  0  0  0  0  0  0
    0.7147    1.7311   -0.4101 H   0  0  0  0  0  0  0  0  0  0  0  0
   -0.5711    1.1278   -1.4553 H   0  0  0  0  0  0  0  0  0  0  0  0
   -1.2272    1.9968    0.3957 C   0  0  0  0  0  0  0  0  0  0  0  0
   -2.3788    2.2497    0.0667 O   0  0  0  0  0  0  0  0  0  0  0  0
   -0.7532    2.4610    1.5669 O   0  0  0  0  0  0  0  0  0  0  0  0
   -1.4808    2.9292    1.9776 H   0  0  0  0  0  0  0  0  0  0  0  0
    0.5920   -0.2154    1.5497 C   0  0  0  0  0  0  0  0  0  0  0  0
    1.7860   -0.4596    1.7183 O   0  0  0  0  0  0  0  0  0  0  0  0
   -0.2294    0.0669    2.5672 N   0  0  0  0  0  0  0  0  0  0  0  0
   -1.2130    0.1938    2.3518 H   0  0  0  0  0  0  0  0  0  0  0  0
    0.1836    0.1337    3.9673 C   0  0  0  0  0  0  0  0  0  0  0  0
    1.0451    0.7976    4.0666 H   0  0  0  0  0  0  0  0  0  0  0  0
   -0.6344    0.5115    4.5820 H   0  0  0  0  0  0  0  0  0  0  0  0
    0.4676   -0.8609    4.3157 H   0  0  0  0  0  0  0  0  0  0  0  0
  5  6  2  0  0  0  0
  5  7  1  0  0  0  0
  2  3  1  0  0  0  0
  2  4  1  0  0  0  0
  2  5  1  0  0  0  0
  1  2  1  0  0  0  0
 18 19  2  0  0  0  0
 18 20  1  0  0  0  0
 16 17  1  0  0  0  0
 14 15  2  0  0  0  0
 14 16  1  0  0  0  0
 11 12  1  0  0  0  0
 11 13  1  0  0  0  0
 11 14  1  0  0  0  0
  9 10  1  0  0  0  0
  9 11  1  0  0  0  0
  9 18  1  0  0  0  0
  7  8  1  0  0  0  0
  7  9  1  0  0  0  0
 22 23  1  0  0  0  0
 22 24  1  0  0  0  0
 22 25  1  0  0  0  0
 20 21  1  0  0  0  0
 20 22  1  0  0  0  0
M  END
$$$$
default_name
  -OEChem-02102213163D

 25 24  0     1  0  0  0  0  0999 V2000
   -2.7826   -3.8464    0.7821 H   0  0  0  0  0  0  0  0  0  0  0  0
   -2.8156   -2.8034    0.4711 C   0  0  0  0  0  0  0  0  0  0  0  0
   -3.4336   -2.2354    1.1641 H   0  0  0  0  0  0  0  0  0  0  0  0
   -3.2256   -2.7344   -0.5349 H   0  0  0  0  0  0  0  0  0  0  0  0
   -1.4126   -2.2444    0.4801 C   0  0  0  0  0  0  0  0  0  0  0  0
   -0.4686   -2.9534    0.8001 O   0  0  0  0  0  0  0  0  0  0  0  0
   -1.2736   -0.9704    0.1241 N   0  0  0  0  0  0  0  0  0  0  0  0
   -2.0996   -0.4354   -0.1019 H   0  0  0  0  0  0  0  0  0  0  0  0
   -0.0016   -0.2394    0.1271 C   0  0  1  0  0  0  0  0  0  0  0  0
    0.6995   -0.7619   -0.5275 H   0  0  0  0  0  0  0  0  0  0  0  0
   -0.2283    1.1832   -0.4215 C   0  0  0  0  0  0  0  0  0  0  0  0
    0.7147    1.7311   -0.4101 H   0  0  0  0  0  0  0  0  0  0  0  0
   -0.5711    1.1278   -1.4553 H   0  0  0  0  0  0  0  0  0  0  0  0
   -1.2272    1.9968    0.3957 C   0  0  0  0  0  0  0  0  0  0  0  0
   -2.4359    2.0386    0.2070 O   0  0  0  0  0  0  0  0  0  0  0  0
   -0.6846    2.7197    1.3932 O   0  0  0  0  0  0  0  0  0  0  0  0
   -1.4168    3.1578    1.8282 H   0  0  0  0  0  0  0  0  0  0  0  0
    0.5920   -0.2154    1.5497 C   0  0  0  0  0  0  0  0  0  0  0  0
    1.7860   -0.4596    1.7183 O   0  0  0  0  0  0  0  0  0  0  0  0
   -0.2294    0.0669    2.5672 N   0  0  0  0  0  0  0  0  0  0  0  0
   -1.2130    0.1938    2.3518 H   0  0  0  0  0  0  0  0  0  0  0  0
    0.1836    0.1337    3.9673 C   0  0  0  0  0  0  0  0  0  0  0  0
    1.0451    0.7976    4.0666 H   0  0  0  0  0  0  0  0  0  0  0  0
   -0.6344    0.5115    4.5820 H   0  0  0  0  0  0  0  0  0  0  0  0
    0.4676   -0.8609    4.3157 H   0  0  0  0  0  0  0  0  0  0  0  0
  5  6  2  0  0  0  0
  5  7  1  0  0  0  0
  2  3  1  0  0  0  0
  2  4  1  0  0  0  0
  2  5  1  0  0  0  0
  1  2  1  0  0  0  0
 18 19  2  0  0  0  0
 18 20  1  0  0  0  0
 16 17  1  0  0  0  0
 14 15  2  0  0  0  0
 14 16  1  0  0  0  0
 11 12  1  0  0  0  0
 11 13  1  0  0  0  0
 11 14  1  0  0  0  0
  9 10  1  0  0  0  0
  9 11  1  0  0  0  0
  9 18  1  0  0  0  0
  7  8  1  0  0  0  0
  7  9  1  0  0  0  0
 22 23  1  0  0  0  0
 22 24  1  0  0  0  0
 22 25  1  0  0  0  0
 20 21  1  0  0  0  0
 20 22  1  0  0  0  0
M  END
$$$$
default_name
  -OEChem-02102213163D

 25 24  0     1  0  0  0  0  0999 V2000
   -2.7826   -3.8464    0.7821 H   0  0  0  0  0  0  0  0  0  0  0  0
   -2.8156   -2.8034    0.4711 C   0  0  0  0  0  0  0  0  0  0  0  0
   -3.4336   -2.2354    1.1641 H   0  0  0  0  0  0  0  0  0  0  0  0
   -3.2256   -2.7344   -0.5349 H   0  0  0  0  0  0  0  0  0  0  0  0
   -1.4126   -2.2444    0.4801 C   0  0  0  0  0  0  0  0  0  0  0  0
   -0.4686   -2.9534    0.8001 O   0  0  0  0  0  0  0  0  0  0  0  0
   -1.2736   -0.9704    0.1241 N   0  0  0  0  0  0  0  0  0  0  0  0
   -2.0996   -0.4354   -0.1019 H   0  0  0  0  0  0  0  0  0  0  0  0
   -0.0016   -0.2394    0.1271 C   0  0  1  0  0  0  0  0  0  0  0  0
    0.6995   -0.7619   -0.5275 H   0  0  0  0  0  0  0  0  0  0  0  0
   -0.2283    1.1832   -0.4215 C   0  0  0  0  0  0  0  0  0  0  0  0
    0.7147    1.7311   -0.4101 H   0  0  0  0  0  0  0  0  0  0  0  0
   -0.5711    1.1278   -1.4553 H   0  0  0  0  0  0  0  0  0  0  0  0
   -1.2272    1.9968    0.3957 C   0  0  0  0  0  0  0  0  0  0  0  0
   -2.4425    1.8506    0.3862 O   0  0  0  0  0  0  0  0  0  0  0  0
   -0.6782    2.9496    1.1722 O   0  0  0  0  0  0  0  0  0  0  0  0
   -1.4072    3.3621    1.6364 H   0  0  0  0  0  0  0  0  0  0  0  0
    0.5920   -0.2154    1.5497 C   0  0  0  0  0  0  0  0  0  0  0  0
    1.7860   -0.4596    1.7183 O   0  0  0  0  0  0  0  0  0  0  0  0
   -0.2294    0.0669    2.5672 N   0  0  0  0  0  0  0  0  0  0  0  0
   -1.2130    0.1938    2.3518 H   0  0  0  0  0  0  0  0  0  0  0  0
    0.1836    0.1337    3.9673 C   0  0  0  0  0  0  0  0  0  0  0  0
    1.0451    0.7976    4.0666 H   0  0  0  0  0  0  0  0  0  0  0  0
   -0.6344    0.5115    4.5820 H   0  0  0  0  0  0  0  0  0  0  0  0
    0.4676   -0.8609    4.3157 H   0  0  0  0  0  0  0  0  0  0  0  0
  5  6  2  0  0  0  0
  5  7  1  0  0  0  0
  2  3  1  0  0  0  0
  2  4  1  0  0  0  0
  2  5  1  0  0  0  0
  1  2  1  0  0  0  0
 18 19  2  0  0  0  0
 18 20  1  0  0  0  0
 16 17  1  0  0  0  0
 14 15  2  0  0  0  0
 14 16  1  0  0  0  0
 11 12  1  0  0  0  0
 11 13  1  0  0  0  0
 11 14  1  0  0  0  0
  9 10  1  0  0  0  0
  9 11  1  0  0  0  0
  9 18  1  0  0  0  0
  7  8  1  0  0  0  0
  7  9  1  0  0  0  0
 22 23  1  0  0  0  0
 22 24  1  0  0  0  0
 22 25  1  0  0  0  0
 20 21  1  0  0  0  0
 20 22  1  0  0  0  0
M  END
$$$$
default_name
  -OEChem-02102213163D

 25 24  0     1  0  0  0  0  0999 V2000
   -2.7826   -3.8464    0.7821 H   0  0  0  0  0  0  0  0  0  0  0  0
   -2.8156   -2.8034    0.4711 C   0  0  0  0  0  0  0  0  0  0  0  0
   -3.4336   -2.2354    1.1641 H   0  0  0  0  0  0  0  0  0  0  0  0
   -3.2256   -2.7344   -0.5349 H   0  0  0  0  0  0  0  0  0  0  0  0
   -1.4126   -2.2444    0.4801 C   0  0  0  0  0  0  0  0  0  0  0  0
   -0.4686   -2.9534    0.8001 O   0  0  0  0  0  0  0  0  0  0  0  0
   -1.2736   -0.9704    0.1241 N   0  0  0  0  0  0  0  0  0  0  0  0
   -2.0996   -0.4354   -0.1019 H   0  0  0  0  0  0  0  0  0  0  0  0
   -0.0016   -0.2394    0.1271 C   0  0  1  0  0  0  0  0  0  0  0  0
    0.6995   -0.7619   -0.5275 H   0  0  0  0  0  0  0  0  0  0  0  0
   -0.2283    1.1832   -0.4215 C   0  0  0  0  0  0  0  0  0  0  0  0
    0.7147    1.7311   -0.4101 H   0  0  0  0  0  0  0  0  0  0  0  0
   -0.5711    1.1278   -1.4553 H   0  0  0  0  0  0  0  0  0  0  0  0
   -1.2272    1.9968    0.3957 C   0  0  0  0  0  0  0  0  0  0  0  0
   -2.3980    1.6984    0.5920 O   0  0  0  0  0  0  0  0  0  0  0  0
   -0.7344    3.1350    0.9188 O   0  0  0  0  0  0  0  0  0  0  0  0
   -1.4528    3.5283    1.4152 H   0  0  0  0  0  0  0  0  0  0  0  0
    0.5920   -0.2154    1.5497 C   0  0  0  0  0  0  0  0  0  0  0  0
    1.7860   -0.4596    1.7183 O   0  0  0  0  0  0  0  0  0  0  0  0
   -0.2294    0.0669    2.5672 N   0  0  0  0  0  0  0  0  0  0  0  0
   -1.2130    0.1938    2.3518 H   0  0  0  0  0  0  0  0  0  0  0  0
    0.1836    0.1337    3.9673 C   0  0  0  0  0  0  0  0  0  0  0  0
    1.0451    0.7976    4.0666 H   0  0  0  0  0  0  0  0  0  0  0  0
   -0.6344    0.5115    4.5820 H   0  0  0  0  0  0  0  0  0  0  0  0
    0.4676   -0.8609    4.3157 H   0  0  0  0  0  0  0  0  0  0  0  0
  5  6  2  0  0  0  0
  5  7  1  0  0  0  0
  2  3  1  0  0  0  0
  2  4  1  0  0  0  0
  2  5  1  0  0  0  0
  1  2  1  0  0  0  0
 18 19  2  0  0  0  0
 18 20  1  0  0  0  0
 16 17  1  0  0  0  0
 14 15  2  0  0  0  0
 14 16  1  0  0  0  0
 11 12  1  0  0  0  0
 11 13  1  0  0  0  0
 11 14  1  0  0  0  0
  9 10  1  0  0  0  0
  9 11  1  0  0  0  0
  9 18  1  0  0  0  0
  7  8  1  0  0  0  0
  7  9  1  0  0  0  0
 22 23  1  0  0  0  0
 22 24  1  0  0  0  0
 22 25  1  0  0  0  0
 20 21  1  0  0  0  0
 20 22  1  0  0  0  0
M  END
$$$$
default_name
  -OEChem-02102213163D

 25 24  0     1  0  0  0  0  0999 V2000
   -2.7826   -3.8464    0.7821 H   0  0  0  0  0  0  0  0  0  0  0  0
   -2.8156   -2.8034    0.4711 C   0  0  0  0  0  0  0  0  0  0  0  0
   -3.4336   -2.2354    1.1641 H   0  0  0  0  0  0  0  0  0  0  0  0
   -3.2256   -2.7344   -0.5349 H   0  0  0  0  0  0  0  0  0  0  0  0
   -1.4126   -2.2444    0.4801 C   0  0  0  0  0  0  0  0  0  0  0  0
   -0.4686   -2.9534    0.8001 O   0  0  0  0  0  0  0  0  0  0  0  0
   -1.2736   -0.9704    0.1241 N   0  0  0  0  0  0  0  0  0  0  0  0
   -2.0996   -0.4354   -0.1019 H   0  0  0  0  0  0  0  0  0  0  0  0
   -0.0016   -0.2394    0.1271 C   0  0  1  0  0  0  0  0  0  0  0  0
    0.6995   -0.7619   -0.5275 H   0  0  0  0  0  0  0  0  0  0  0  0
   -0.2283    1.1832   -0.4215 C   0  0  0  0  0  0  0  0  0  0  0  0
    0.7147    1.7311   -0.4101 H   0  0  0  0  0  0  0  0  0  0  0  0
   -0.5711    1.1278   -1.4553 H   0  0  0  0  0  0  0  0  0  0  0  0
   -1.2272    1.9968    0.3957 C   0  0  0  0  0  0  0  0  0  0  0  0
   -2.3055    1.5925    0.8105 O   0  0  0  0  0  0  0  0  0  0  0  0
   -0.8494    3.2635    0.6504 O   0  0  0  0  0  0  0  0  0  0  0  0
   -1.5505    3.6451    1.1797 H   0  0  0  0  0  0  0  0  0  0  0  0
    0.5920   -0.2154    1.5497 C   0  0  0  0  0  0  0  0  0  0  0  0
    1.7860   -0.4596    1.7183 O   0  0  0  0  0  0  0  0  0  0  0  0
   -0.2294    0.0669    2.5672 N   0  0  0  0  0  0  0  0  0  0  0  0
   -1.2130    0.1938    2.3518 H   0  0  0  0  0  0  0  0  0  0  0  0
    0.1836    0.1337    3.9673 C   0  0  0  0  0  0  0  0  0  0  0  0
    1.0451    0.7976    4.0666 H   0  0  0  0  0  0  0  0  0  0  0  0
   -0.6344    0.5115    4.5820 H   0  0  0  0  0  0  0  0  0  0  0  0
    0.4676   -0.8609    4.3157 H   0  0  0  0  0  0  0  0  0  0  0  0
  5  6  2  0  0  0  0
  5  7  1  0  0  0  0
  2  3  1  0  0  0  0
  2  4  1  0  0  0  0
  2  5  1  0  0  0  0
  1  2  1  0  0  0  0
 18 19  2  0  0  0  0
 18 20  1  0  0  0  0
 16 17  1  0  0  0  0
 14 15  2  0  0  0  0
 14 16  1  0  0  0  0
 11 12  1  0  0  0  0
 11 13  1  0  0  0  0
 11 14  1  0  0  0  0
  9 10  1  0  0  0  0
  9 11  1  0  0  0  0
  9 18  1  0  0  0  0
  7  8  1  0  0  0  0
  7  9  1  0  0  0  0
 22 23  1  0  0  0  0
 22 24  1  0  0  0  0
 22 25  1  0  0  0  0
 20 21  1  0  0  0  0
 20 22  1  0  0  0  0
M  END
$$$$
default_name
  -OEChem-02102213163D

 25 24  0     1  0  0  0  0  0999 V2000
   -2.7826   -3.8464    0.7821 H   0  0  0  0  0  0  0  0  0  0  0  0
   -2.8156   -2.8034    0.4711 C   0  0  0  0  0  0  0  0  0  0  0  0
   -3.4336   -2.2354    1.1641 H   0  0  0  0  0  0  0  0  0  0  0  0
   -3.2256   -2.7344   -0.5349 H   0  0  0  0  0  0  0  0  0  0  0  0
   -1.4126   -2.2444    0.4801 C   0  0  0  0  0  0  0  0  0  0  0  0
   -0.4686   -2.9534    0.8001 O   0  0  0  0  0  0  0  0  0  0  0  0
   -1.2736   -0.9704    0.1241 N   0  0  0  0  0  0  0  0  0  0  0  0
   -2.0996   -0.4354   -0.1019 H   0  0  0  0  0  0  0  0  0  0  0  0
   -0.0016   -0.2394    0.1271 C   0  0  1  0  0  0  0  0  0  0  0  0
    0.6995   -0.7619   -0.5275 H   0  0  0  0  0  0  0  0  0  0  0  0
   -0.2283    1.1832   -0.4215 C   0  0  0  0  0  0  0  0  0  0  0  0
    0.7147    1.7311   -0.4101 H   0  0  0  0  0  0  0  0  0  0  0  0
   -0.5711    1.1278   -1.4553 H   0  0  0  0  0  0  0  0  0  0  0  0
   -1.2272    1.9968    0.3957 C   0  0  0  0  0  0  0  0  0  0  0  0
   -2.1714    1.5400    1.0267 O   0  0  0  0  0  0  0  0  0  0  0  0
   -1.0154    3.3261    0.3852 O   0  0  0  0  0  0  0  0  0  0  0  0
   -1.6934    3.7044    0.9458 H   0  0  0  0  0  0  0  0  0  0  0  0
    0.5920   -0.2154    1.5497 C   0  0  0  0  0  0  0  0  0  0  0  0
    1.7860   -0.4596    1.7183 O   0  0  0  0  0  0  0  0  0  0  0  0
   -0.2294    0.0669    2.5672 N   0  0  0  0  0  0  0  0  0  0  0  0
   -1.2130    0.1938    2.3518 H   0  0  0  0  0  0  0  0  0  0  0  0
    0.1836    0.1337    3.9673 C   0  0  0  0  0  0  0  0  0  0  0  0
    1.0451    0.7976    4.0666 H   0  0  0  0  0  0  0  0  0  0  0  0
   -0.6344    0.5115    4.5820 H   0  0  0  0  0  0  0  0  0  0  0  0
    0.4676   -0.8609    4.3157 H   0  0  0  0  0  0  0  0  0  0  0  0
  5  6  2  0  0  0  0
  5  7  1  0  0  0  0
  2  3  1  0  0  0  0
  2  4  1  0  0  0  0
  2  5  1  0  0  0  0
  1  2  1  0  0  0  0
 18 19  2  0  0  0  0
 18 20  1  0  0  0  0
 16 17  1  0  0  0  0
 14 15  2  0  0  0  0
 14 16  1  0  0  0  0
 11 12  1  0  0  0  0
 11 13  1  0  0  0  0
 11 14  1  0  0  0  0
  9 10  1  0  0  0  0
  9 11  1  0  0  0  0
  9 18  1  0  0  0  0
  7  8  1  0  0  0  0
  7  9  1  0  0  0  0
 22 23  1  0  0  0  0
 22 24  1  0  0  0  0
 22 25  1  0  0  0  0
 20 21  1  0  0  0  0
 20 22  1  0  0  0  0
M  END
$$$$
default_name
  -OEChem-02102213163D

 25 24  0     1  0  0  0  0  0999 V2000
   -2.7826   -3.8464    0.7821 H   0  0  0  0  0  0  0  0  0  0  0  0
   -2.8156   -2.8034    0.4711 C   0  0  0  0  0  0  0  0  0  0  0  0
   -3.4336   -2.2354    1.1641 H   0  0  0  0  0  0  0  0  0  0  0  0
   -3.2256   -2.7344   -0.5349 H   0  0  0  0  0  0  0  0  0  0  0  0
   -1.4126   -2.2444    0.4801 C   0  0  0  0  0  0  0  0  0  0  0  0
   -0.4686   -2.9534    0.8001 O   0  0  0  0  0  0  0  0  0  0  0  0
   -1.2736   -0.9704    0.1241 N   0  0  0  0  0  0  0  0  0  0  0  0
   -2.0996   -0.4354   -0.1019 H   0  0  0  0  0  0  0  0  0  0  0  0
   -0.0016   -0.2394    0.1271 C   0  0  1  0  0  0  0  0  0  0  0  0
    0.6995   -0.7619   -0.5275 H   0  0  0  0  0  0  0  0  0  0  0  0
   -0.2283    1.1832   -0.4215 C   0  0  0  0  0  0  0  0  0  0  0  0
    0.7147    1.7311   -0.4101 H   0  0  0  0  0  0  0  0  0  0  0  0
   -0.5711    1.1278   -1.4553 H   0  0  0  0  0  0  0  0  0  0  0  0
   -1.2272    1.9968    0.3957 C   0  0  0  0  0  0  0  0  0  0  0  0
   -2.0047    1.5445    1.2260 O   0  0  0  0  0  0  0  0  0  0  0  0
   -1.2209    3.3187    0.1414 O   0  0  0  0  0  0  0  0  0  0  0  0
   -1.8721    3.7022    0.7297 H   0  0  0  0  0  0  0  0  0  0  0  0
    0.5920   -0.2154    1.5497 C   0  0  0  0  0  0  0  0  0  0  0  0
    1.7860   -0.4596    1.7183 O   0  0  0  0  0  0  0  0  0  0  0  0
   -0.2294    0.0669    2.5672 N   0  0  0  0  0  0  0  0  0  0  0  0
   -1.2130    0.1938    2.3518 H   0  0  0  0  0  0  0  0  0  0  0  0
    0.1836    0.1337    3.9673 C   0  0  0  0  0  0  0  0  0  0  0  0
    1.0451    0.7976    4.0666 H   0  0  0  0  0  0  0  0  0  0  0  0
   -0.6344    0.5115    4.5820 H   0  0  0  0  0  0  0  0  0  0  0  0
    0.4676   -0.8609    4.3157 H   0  0  0  0  0  0  0  0  0  0  0  0
  5  6  2  0  0  0  0
  5  7  1  0  0  0  0
  2  3  1  0  0  0  0
  2  4  1  0  0  0  0
  2  5  1  0  0  0  0
  1  2  1  0  0  0  0
 18 19  2  0  0  0  0
 18 20  1  0  0  0  0
 16 17  1  0  0  0  0
 14 15  2  0  0  0  0
 14 16  1  0  0  0  0
 11 12  1  0  0  0  0
 11 13  1  0  0  0  0
 11 14  1  0  0  0  0
  9 10  1  0  0  0  0
  9 11  1  0  0  0  0
  9 18  1  0  0  0  0
  7  8  1  0  0  0  0
  7  9  1  0  0  0  0
 22 23  1  0  0  0  0
 22 24  1  0  0  0  0
 22 25  1  0  0  0  0
 20 21  1  0  0  0  0
 20 22  1  0  0  0  0
M  END
$$$$
default_name
  -OEChem-02102213163D

 25 24  0     1  0  0  0  0  0999 V2000
   -2.7826   -3.8464    0.7821 H   0  0  0  0  0  0  0  0  0  0  0  0
   -2.8156   -2.8034    0.4711 C   0  0  0  0  0  0  0  0  0  0  0  0
   -3.4336   -2.2354    1.1641 H   0  0  0  0  0  0  0  0  0  0  0  0
   -3.2256   -2.7344   -0.5349 H   0  0  0  0  0  0  0  0  0  0  0  0
   -1.4126   -2.2444    0.4801 C   0  0  0  0  0  0  0  0  0  0  0  0
   -0.4686   -2.9534    0.8001 O   0  0  0  0  0  0  0  0  0  0  0  0
   -1.2736   -0.9704    0.1241 N   0  0  0  0  0  0  0  0  0  0  0  0
   -2.0996   -0.4354   -0.1019 H   0  0  0  0  0  0  0  0  0  0  0  0
   -0.0016   -0.2394    0.1271 C   0  0  1  0  0  0  0  0  0  0  0  0
    0.6995   -0.7619   -0.5275 H   0  0  0  0  0  0  0  0  0  0  0  0
   -0.2283    1.1832   -0.4215 C   0  0  0  0  0  0  0  0  0  0  0  0
    0.7147    1.7311   -0.4101 H   0  0  0  0  0  0  0  0  0  0  0  0
   -0.5711    1.1278   -1.4553 H   0  0  0  0  0  0  0  0  0  0  0  0
   -1.2272    1.9968    0.3957 C   0  0  0  0  0  0  0  0  0  0  0  0
   -1.8168    1.6058    1.3946 O   0  0  0  0  0  0  0  0  0  0  0  0
   -1.4521    3.2416   -0.0645 O   0  0  0  0  0  0  0  0  0  0  0  0
   -2.0741    3.6388    0.5459 H   0  0  0  0  0  0  0  0  0  0  0  0
    0.5920   -0.2154    1.5497 C   0  0  0  0  0  0  0  0  0  0  0  0
    1.7860   -0.4596    1.7183 O   0  0  0  0  0  0  0  0  0  0  0  0
   -0.2294    0.0669    2.5672 N   0  0  0  0  0  0  0  0  0  0  0  0
   -1.2130    0.1938    2.3518 H   0  0  0  0  0  0  0  0  0  0  0  0
    0.1836    0.1337    3.9673 C   0  0  0  0  0  0  0  0  0  0  0  0
    1.0451    0.7976    4.0666 H   0  0  0  0  0  0  0  0  0  0  0  0
   -0.6344    0.5115    4.5820 H   0  0  0  0  0  0  0  0  0  0  0  0
    0.4676   -0.8609    4.3157 H   0  0  0  0  0  0  0  0  0  0  0  0
  5  6  2  0  0  0  0
  5  7  1  0  0  0  0
  2  3  1  0  0  0  0
  2  4  1  0  0  0  0
  2  5  1  0  0  0  0
  1  2  1  0  0  0  0
 18 19  2  0  0  0  0
 18 20  1  0  0  0  0
 16 17  1  0  0  0  0
 14 15  2  0  0  0  0
 14 16  1  0  0  0  0
 11 12  1  0  0  0  0
 11 13  1  0  0  0  0
 11 14  1  0  0  0  0
  9 10  1  0  0  0  0
  9 11  1  0  0  0  0
  9 18  1  0  0  0  0
  7  8  1  0  0  0  0
  7  9  1  0  0  0  0
 22 23  1  0  0  0  0
 22 24  1  0  0  0  0
 22 25  1  0  0  0  0
 20 21  1  0  0  0  0
 20 22  1  0  0  0  0
M  END
$$$$
default_name
  -OEChem-02102213163D

 25 24  0     1  0  0  0  0  0999 V2000
   -2.7826   -3.8464    0.7821 H   0  0  0  0  0  0  0  0  0  0  0  0
   -2.8156   -2.8034    0.4711 C   0  0  0  0  0  0  0  0  0  0  0  0
   -3.4336   -2.2354    1.1641 H   0  0  0  0  0  0  0  0  0  0  0  0
   -3.2256   -2.7344   -0.5349 H   0  0  0  0  0  0  0  0  0  0  0  0
   -1.4126   -2.2444    0.4801 C   0  0  0  0  0  0  0  0  0  0  0  0
   -0.4686   -2.9534    0.8001 O   0  0  0  0  0  0  0  0  0  0  0  0
   -1.2736   -0.9704    0.1241 N   0  0  0  0  0  0  0  0  0  0  0  0
   -2.0996   -0.4354   -0.1019 H   0  0  0  0  0  0  0  0  0  0  0  0
   -0.0016   -0.2394    0.1271 C   0  0  1  0  0  0  0  0  0  0  0  0
    0.6995   -0.7619   -0.5275 H   0  0  0  0  0  0  0  0  0  0  0  0
   -0.2283    1.1832   -0.4215 C   0  0  0  0  0  0  0  0  0  0  0  0
    0.7147    1.7311   -0.4101 H   0  0  0  0  0  0  0  0  0  0  0  0
   -0.5711    1.1278   -1.4553 H   0  0  0  0  0  0  0  0  0  0  0  0
   -1.2272    1.9968    0.3957 C   0  0  0  0  0  0  0  0  0  0  0  0
   -1.6205    1.7196    1.5212 O   0  0  0  0  0  0  0  0  0  0  0  0
   -1.6931    3.1003   -0.2184 O   0  0  0  0  0  0  0  0  0  0  0  0
   -2.2859    3.5183    0.4070 H   0  0  0  0  0  0  0  0  0  0  0  0
    0.5920   -0.2154    1.5497 C   0  0  0  0  0  0  0  0  0  0  0  0
    1.7860   -0.4596    1.7183 O   0  0  0  0  0  0  0  0  0  0  0  0
   -0.2294    0.0669    2.5672 N   0  0  0  0  0  0  0  0  0  0  0  0
   -1.2130    0.1938    2.3518 H   0  0  0  0  0  0  0  0  0  0  0  0
    0.1836    0.1337    3.9673 C   0  0  0  0  0  0  0  0  0  0  0  0
    1.0451    0.7976    4.0666 H   0  0  0  0  0  0  0  0  0  0  0  0
   -0.6344    0.5115    4.5820 H   0  0  0  0  0  0  0  0  0  0  0  0
    0.4676   -0.8609    4.3157 H   0  0  0  0  0  0  0  0  0  0  0  0
  5  6  2  0  0  0  0
  5  7  1  0  0  0  0
  2  3  1  0  0  0  0
  2  4  1  0  0  0  0
  2  5  1  0  0  0  0
  1  2  1  0  0  0  0
 18 19  2  0  0  0  0
 18 20  1  0  0  0  0
 16 17  1  0  0  0  0
 14 15  2  0  0  0  0
 14 16  1  0  0  0  0
 11 12  1  0  0  0  0
 11 13  1  0  0  0  0
 11 14  1  0  0  0  0
  9 10  1  0  0  0  0
  9 11  1  0  0  0  0
  9 18  1  0  0  0  0
  7  8  1  0  0  0  0
  7  9  1  0  0  0  0
 22 23  1  0  0  0  0
 22 24  1  0  0  0  0
 22 25  1  0  0  0  0
 20 21  1  0  0  0  0
 20 22  1  0  0  0  0
M  END
$$$$
default_name
  -OEChem-02102213163D

 25 24  0     1  0  0  0  0  0999 V2000
   -2.7826   -3.8464    0.7821 H   0  0  0  0  0  0  0  0  0  0  0  0
   -2.8156   -2.8034    0.4711 C   0  0  0  0  0  0  0  0  0  0  0  0
   -3.4336   -2.2354    1.1641 H   0  0  0  0  0  0  0  0  0  0  0  0
   -3.2256   -2.7344   -0.5349 H   0  0  0  0  0  0  0  0  0  0  0  0
   -1.4126   -2.2444    0.4801 C   0  0  0  0  0  0  0  0  0  0  0  0
   -0.4686   -2.9534    0.8001 O   0  0  0  0  0  0  0  0  0  0  0  0
   -1.2736   -0.9704    0.1241 N   0  0  0  0  0  0  0  0  0  0  0  0
   -2.0996   -0.4354   -0.1019 H   0  0  0  0  0  0  0  0  0  0  0  0
   -0.0016   -0.2394    0.1271 C   0  0  1  0  0  0  0  0  0  0  0  0
    0.6995   -0.7619   -0.5275 H   0  0  0  0  0  0  0  0  0  0  0  0
   -0.2283    1.1832   -0.4215 C   0  0  0  0  0  0  0  0  0  0  0  0
    0.7147    1.7311   -0.4101 H   0  0  0  0  0  0  0  0  0  0  0  0
   -0.5711    1.1278   -1.4553 H   0  0  0  0  0  0  0  0  0  0  0  0
   -1.2272    1.9968    0.3957 C   0  0  0  0  0  0  0  0  0  0  0  0
   -1.4292    1.8782    1.5971 O   0  0  0  0  0  0  0  0  0  0  0  0
   -1.9276    2.9043   -0.3099 O   0  0  0  0  0  0  0  0  0  0  0  0
   -2.4929    3.3490    0.3225 H   0  0  0  0  0  0  0  0  0  0  0  0
    0.5920   -0.2154    1.5497 C   0  0  0  0  0  0  0  0  0  0  0  0
    1.7860   -0.4596    1.7183 O   0  0  0  0  0  0  0  0  0  0  0  0
   -0.2294    0.0669    2.5672 N   0  0  0  0  0  0  0  0  0  0  0  0
   -1.2130    0.1938    2.3518 H   0  0  0  0  0  0  0  0  0  0  0  0
    0.1836    0.1337    3.9673 C   0  0  0  0  0  0  0  0  0  0  0  0
    1.0451    0.7976    4.0666 H   0  0  0  0  0  0  0  0  0  0  0  0
   -0.6344    0.5115    4.5820 H   0  0  0  0  0  0  0  0  0  0  0  0
    0.4676   -0.8609    4.3157 H   0  0  0  0  0  0  0  0  0  0  0  0
  5  6  2  0  0  0  0
  5  7  1  0  0  0  0
  2  3  1  0  0  0  0
  2  4  1  0  0  0  0
  2  5  1  0  0  0  0
  1  2  1  0  0  0  0
 18 19  2  0  0  0  0
 18 20  1  0  0  0  0
 16 17  1  0  0  0  0
 14 15  2  0  0  0  0
 14 16  1  0  0  0  0
 11 12  1  0  0  0  0
 11 13  1  0  0  0  0
 11 14  1  0  0  0  0
  9 10  1  0  0  0  0
  9 11  1  0  0  0  0
  9 18  1  0  0  0  0
  7  8  1  0  0  0  0
  7  9  1  0  0  0  0
 22 23  1  0  0  0  0
 22 24  1  0  0  0  0
 22 25  1  0  0  0  0
 20 21  1  0  0  0  0
 20 22  1  0  0  0  0
M  END
$$$$
default_name
  -OEChem-02102213163D

 25 24  0     1  0  0  0  0  0999 V2000
   -2.7826   -3.8464    0.7821 H   0  0  0  0  0  0  0  0  0  0  0  0
   -2.8156   -2.8034    0.4711 C   0  0  0  0  0  0  0  0  0  0  0  0
   -3.4336   -2.2354    1.1641 H   0  0  0  0  0  0  0  0  0  0  0  0
   -3.2256   -2.7344   -0.5349 H   0  0  0  0  0  0  0  0  0  0  0  0
   -1.4126   -2.2444    0.4801 C   0  0  0  0  0  0  0  0  0  0  0  0
   -0.4686   -2.9534    0.8001 O   0  0  0  0  0  0  0  0  0  0  0  0
   -1.2736   -0.9704    0.1241 N   0  0  0  0  0  0  0  0  0  0  0  0
   -2.0996   -0.4354   -0.1019 H   0  0  0  0  0  0  0  0  0  0  0  0
   -0.0016   -0.2394    0.1271 C   0  0  1  0  0  0  0  0  0  0  0  0
    0.6995   -0.7619   -0.5275 H   0  0  0  0  0  0  0  0  0  0  0  0
   -0.2283    1.1832   -0.4215 C   0  0  0  0  0  0  0  0  0  0  0  0
    0.7147    1.7311   -0.4101 H   0  0  0  0  0  0  0  0  0  0  0  0
   -0.5711    1.1278   -1.4553 H   0  0  0  0  0  0  0  0  0  0  0  0
   -1.2272    1.9968    0.3957 C   0  0  0  0  0  0  0  0  0  0  0  0
   -1.2560    2.0708    1.6172 O   0  0  0  0  0  0  0  0  0  0  0  0
   -2.1395    2.6670   -0.3327 O   0  0  0  0  0  0  0  0  0  0  0  0
   -2.6811    3.1425    0.2981 H   0  0  0  0  0  0  0  0  0  0  0  0
    0.5920   -0.2154    1.5497 C   0  0  0  0  0  0  0  0  0  0  0  0
    1.7860   -0.4596    1.7183 O   0  0  0  0  0  0  0  0  0  0  0  0
   -0.2294    0.0669    2.5672 N   0  0  0  0  0  0  0  0  0  0  0  0
   -1.2130    0.1938    2.3518 H   0  0  0  0  0  0  0  0  0  0  0  0
    0.1836    0.1337    3.9673 C   0  0  0  0  0  0  0  0  0  0  0  0
    1.0451    0.7976    4.0666 H   0  0  0  0  0  0  0  0  0  0  0  0
   -0.6344    0.5115    4.5820 H   0  0  0  0  0  0  0  0  0  0  0  0
    0.4676   -0.8609    4.3157 H   0  0  0  0  0  0  0  0  0  0  0  0
  5  6  2  0  0  0  0
  5  7  1  0  0  0  0
  2  3  1  0  0  0  0
  2  4  1  0  0  0  0
  2  5  1  0  0  0  0
  1  2  1  0  0  0  0
 18 19  2  0  0  0  0
 18 20  1  0  0  0  0
 16 17  1  0  0  0  0
 14 15  2  0  0  0  0
 14 16  1  0  0  0  0
 11 12  1  0  0  0  0
 11 13  1  0  0  0  0
 11 14  1  0  0  0  0
  9 10  1  0  0  0  0
  9 11  1  0  0  0  0
  9 18  1  0  0  0  0
  7  8  1  0  0  0  0
  7  9  1  0  0  0  0
 22 23  1  0  0  0  0
 22 24  1  0  0  0  0
 22 25  1  0  0  0  0
 20 21  1  0  0  0  0
 20 22  1  0  0  0  0
M  END
$$$$
default_name
  -OEChem-02102213163D

 25 24  0     1  0  0  0  0  0999 V2000
   -2.7826   -3.8464    0.7821 H   0  0  0  0  0  0  0  0  0  0  0  0
   -2.8156   -2.8034    0.4711 C   0  0  0  0  0  0  0  0  0  0  0  0
   -3.4336   -2.2354    1.1641 H   0  0  0  0  0  0  0  0  0  0  0  0
   -3.2256   -2.7344   -0.5349 H   0  0  0  0  0  0  0  0  0  0  0  0
   -1.4126   -2.2444    0.4801 C   0  0  0  0  0  0  0  0  0  0  0  0
   -0.4686   -2.9534    0.8001 O   0  0  0  0  0  0  0  0  0  0  0  0
   -1.2736   -0.9704    0.1241 N   0  0  0  0  0  0  0  0  0  0  0  0
   -2.0996   -0.4354   -0.1019 H   0  0  0  0  0  0  0  0  0  0  0  0
   -0.0016   -0.2394    0.1271 C   0  0  1  0  0  0  0  0  0  0  0  0
    0.6995   -0.7619   -0.5275 H   0  0  0  0  0  0  0  0  0  0  0  0
   -0.2283    1.1832   -0.4215 C   0  0  0  0  0  0  0  0  0  0  0  0
    0.7147    1.7311   -0.4101 H   0  0  0  0  0  0  0  0  0  0  0  0
   -0.5711    1.1278   -1.4553 H   0  0  0  0  0  0  0  0  0  0  0  0
   -1.2272    1.9968    0.3957 C   0  0  0  0  0  0  0  0  0  0  0  0
   -1.1125    2.2842    1.5800 O   0  0  0  0  0  0  0  0  0  0  0  0
   -2.3145    2.4045   -0.2852 O   0  0  0  0  0  0  0  0  0  0  0  0
   -2.8375    2.9128    0.3355 H   0  0  0  0  0  0  0  0  0  0  0  0
    0.5920   -0.2154    1.5497 C   0  0  0  0  0  0  0  0  0  0  0  0
    1.7860   -0.4596    1.7183 O   0  0  0  0  0  0  0  0  0  0  0  0
   -0.2294    0.0669    2.5672 N   0  0  0  0  0  0  0  0  0  0  0  0
   -1.2130    0.1938    2.3518 H   0  0  0  0  0  0  0  0  0  0  0  0
    0.1836    0.1337    3.9673 C   0  0  0  0  0  0  0  0  0  0  0  0
    1.0451    0.7976    4.0666 H   0  0  0  0  0  0  0  0  0  0  0  0
   -0.6344    0.5115    4.5820 H   0  0  0  0  0  0  0  0  0  0  0  0
    0.4676   -0.8609    4.3157 H   0  0  0  0  0  0  0  0  0  0  0  0
  5  6  2  0  0  0  0
  5  7  1  0  0  0  0
  2  3  1  0  0  0  0
  2  4  1  0  0  0  0
  2  5  1  0  0  0  0
  1  2  1  0  0  0  0
 18 19  2  0  0  0  0
 18 20  1  0  0  0  0
 16 17  1  0  0  0  0
 14 15  2  0  0  0  0
 14 16  1  0  0  0  0
 11 12  1  0  0  0  0
 11 13  1  0  0  0  0
 11 14  1  0  0  0  0
  9 10  1  0  0  0  0
  9 11  1  0  0  0  0
  9 18  1  0  0  0  0
  7  8  1  0  0  0  0
  7  9  1  0  0  0  0
 22 23  1  0  0  0  0
 22 24  1  0  0  0  0
 22 25  1  0  0  0  0
 20 21  1  0  0  0  0
 20 22  1  0  0  0  0
M  END
$$$$
default_name
  -OEChem-02102213163D

 25 24  0     1  0  0  0  0  0999 V2000
   -2.7826   -3.8464    0.7821 H   0  0  0  0  0  0  0  0  0  0  0  0
   -2.8156   -2.8034    0.4711 C   0  0  0  0  0  0  0  0  0  0  0  0
   -3.4336   -2.2354    1.1641 H   0  0  0  0  0  0  0  0  0  0  0  0
   -3.2256   -2.7344   -0.5349 H   0  0  0  0  0  0  0  0  0  0  0  0
   -1.4126   -2.2444    0.4801 C   0  0  0  0  0  0  0  0  0  0  0  0
   -0.4686   -2.9534    0.8001 O   0  0  0  0  0  0  0  0  0  0  0  0
   -1.2736   -0.9704    0.1241 N   0  0  0  0  0  0  0  0  0  0  0  0
   -2.0996   -0.4354   -0.1019 H   0  0  0  0  0  0  0  0  0  0  0  0
   -0.0016   -0.2394    0.1271 C   0  0  1  0  0  0  0  0  0  0  0  0
    0.6995   -0.7619   -0.5275 H   0  0  0  0  0  0  0  0  0  0  0  0
   -0.2283    1.1832   -0.4215 C   0  0  0  0  0  0  0  0  0  0  0  0
    0.7147    1.7311   -0.4101 H   0  0  0  0  0  0  0  0  0  0  0  0
   -0.5711    1.1278   -1.4553 H   0  0  0  0  0  0  0  0  0  0  0  0
   -1.2272    1.9968    0.3957 C   0  0  0  0  0  0  0  0  0  0  0  0
   -1.0087    2.5040    1.4881 O   0  0  0  0  0  0  0  0  0  0  0  0
   -2.4405    2.1347   -0.1707 O   0  0  0  0  0  0  0  0  0  0  0  0
   -2.9517    2.6756    0.4322 H   0  0  0  0  0  0  0  0  0  0  0  0
    0.5920   -0.2154    1.5497 C   0  0  0  0  0  0  0  0  0  0  0  0
    1.7860   -0.4596    1.7183 O   0  0  0  0  0  0  0  0  0  0  0  0
   -0.2294    0.0669    2.5672 N   0  0  0  0  0  0  0  0  0  0  0  0
   -1.2130    0.1938    2.3518 H   0  0  0  0  0  0  0  0  0  0  0  0
    0.1836    0.1337    3.9673 C   0  0  0  0  0  0  0  0  0  0  0  0
    1.0451    0.7976    4.0666 H   0  0  0  0  0  0  0  0  0  0  0  0
   -0.6344    0.5115    4.5820 H   0  0  0  0  0  0  0  0  0  0  0  0
    0.4676   -0.8609    4.3157 H   0  0  0  0  0  0  0  0  0  0  0  0
  5  6  2  0  0  0  0
  5  7  1  0  0  0  0
  2  3  1  0  0  0  0
  2  4  1  0  0  0  0
  2  5  1  0  0  0  0
  1  2  1  0  0  0  0
 18 19  2  0  0  0  0
 18 20  1  0  0  0  0
 16 17  1  0  0  0  0
 14 15  2  0  0  0  0
 14 16  1  0  0  0  0
 11 12  1  0  0  0  0
 11 13  1  0  0  0  0
 11 14  1  0  0  0  0
  9 10  1  0  0  0  0
  9 11  1  0  0  0  0
  9 18  1  0  0  0  0
  7  8  1  0  0  0  0
  7  9  1  0  0  0  0
 22 23  1  0  0  0  0
 22 24  1  0  0  0  0
 22 25  1  0  0  0  0
 20 21  1  0  0  0  0
 20 22  1  0  0  0  0
M  END
$$$$
default_name
  -OEChem-02102213163D

 25 24  0     1  0  0  0  0  0999 V2000
   -2.7826   -3.8464    0.7821 H   0  0  0  0  0  0  0  0  0  0  0  0
   -2.8156   -2.8034    0.4711 C   0  0  0  0  0  0  0  0  0  0  0  0
   -3.4336   -2.2354    1.1641 H   0  0  0  0  0  0  0  0  0  0  0  0
   -3.2256   -2.7344   -0.5349 H   0  0  0  0  0  0  0  0  0  0  0  0
   -1.4126   -2.2444    0.4801 C   0  0  0  0  0  0  0  0  0  0  0  0
   -0.4686   -2.9534    0.8001 O   0  0  0  0  0  0  0  0  0  0  0  0
   -1.2736   -0.9704    0.1241 N   0  0  0  0  0  0  0  0  0  0  0  0
   -2.0996   -0.4354   -0.1019 H   0  0  0  0  0  0  0  0  0  0  0  0
   -0.0016   -0.2394    0.1271 C   0  0  1  0  0  0  0  0  0  0  0  0
    0.6995   -0.7619   -0.5275 H   0  0  0  0  0  0  0  0  0  0  0  0
   -0.2283    1.1832   -0.4215 C   0  0  0  0  0  0  0  0  0  0  0  0
    0.7147    1.7311   -0.4101 H   0  0  0  0  0  0  0  0  0  0  0  0
   -0.5711    1.1278   -1.4553 H   0  0  0  0  0  0  0  0  0  0  0  0
   -1.2272    1.9968    0.3957 C   0  0  0  0  0  0  0  0  0  0  0  0
   -0.9516    2.7150    1.3478 O   0  0  0  0  0  0  0  0  0  0  0  0
   -2.5091    1.8761    0.0030 O   0  0  0  0  0  0  0  0  0  0  0  0
   -3.0157    2.4470    0.5815 H   0  0  0  0  0  0  0  0  0  0  0  0
    0.5920   -0.2154    1.5497 C   0  0  0  0  0  0  0  0  0  0  0  0
    1.7860   -0.4596    1.7183 O   0  0  0  0  0  0  0  0  0  0  0  0
   -0.2294    0.0669    2.5672 N   0  0  0  0  0  0  0  0  0  0  0  0
   -1.2130    0.1938    2.3518 H   0  0  0  0  0  0  0  0  0  0  0  0
    0.1836    0.1337    3.9673 C   0  0  0  0  0  0  0  0  0  0  0  0
    1.0451    0.7976    4.0666 H   0  0  0  0  0  0  0  0  0  0  0  0
   -0.6344    0.5115    4.5820 H   0  0  0  0  0  0  0  0  0  0  0  0
    0.4676   -0.8609    4.3157 H   0  0  0  0  0  0  0  0  0  0  0  0
  5  6  2  0  0  0  0
  5  7  1  0  0  0  0
  2  3  1  0  0  0  0
  2  4  1  0  0  0  0
  2  5  1  0  0  0  0
  1  2  1  0  0  0  0
 18 19  2  0  0  0  0
 18 20  1  0  0  0  0
 16 17  1  0  0  0  0
 14 15  2  0  0  0  0
 14 16  1  0  0  0  0
 11 12  1  0  0  0  0
 11 13  1  0  0  0  0
 11 14  1  0  0  0  0
  9 10  1  0  0  0  0
  9 11  1  0  0  0  0
  9 18  1  0  0  0  0
  7  8  1  0  0  0  0
  7  9  1  0  0  0  0
 22 23  1  0  0  0  0
 22 24  1  0  0  0  0
 22 25  1  0  0  0  0
 20 21  1  0  0  0  0
 20 22  1  0  0  0  0
M  END
$$$$
default_name
  -OEChem-02102213163D

 25 24  0     1  0  0  0  0  0999 V2000
   -2.7826   -3.8464    0.7821 H   0  0  0  0  0  0  0  0  0  0  0  0
   -2.8156   -2.8034    0.4711 C   0  0  0  0  0  0  0  0  0  0  0  0
   -3.4336   -2.2354    1.1641 H   0  0  0  0  0  0  0  0  0  0  0  0
   -3.2256   -2.7344   -0.5349 H   0  0  0  0  0  0  0  0  0  0  0  0
   -1.4126   -2.2444    0.4801 C   0  0  0  0  0  0  0  0  0  0  0  0
   -0.4686   -2.9534    0.8001 O   0  0  0  0  0  0  0  0  0  0  0  0
   -1.2736   -0.9704    0.1241 N   0  0  0  0  0  0  0  0  0  0  0  0
   -2.0996   -0.4354   -0.1019 H   0  0  0  0  0  0  0  0  0  0  0  0
   -0.0016   -0.2394    0.1271 C   0  0  1  0  0  0  0  0  0  0  0  0
    0.6995   -0.7619   -0.5275 H   0  0  0  0  0  0  0  0  0  0  0  0
   -0.2283    1.1832   -0.4215 C   0  0  0  0  0  0  0  0  0  0  0  0
    0.7147    1.7311   -0.4101 H   0  0  0  0  0  0  0  0  0  0  0  0
   -0.5711    1.1278   -1.4553 H   0  0  0  0  0  0  0  0  0  0  0  0
   -1.2272    1.9968    0.3957 C   0  0  0  0  0  0  0  0  0  0  0  0
   -0.9450    2.9031    1.1686 O   0  0  0  0  0  0  0  0  0  0  0  0
   -2.5155    1.6462    0.2241 O   0  0  0  0  0  0  0  0  0  0  0  0
   -3.0252    2.2427    0.7733 H   0  0  0  0  0  0  0  0  0  0  0  0
    0.5920   -0.2154    1.5497 C   0  0  0  0  0  0  0  0  0  0  0  0
    1.7860   -0.4596    1.7183 O   0  0  0  0  0  0  0  0  0  0  0  0
   -0.2294    0.0669    2.5672 N   0  0  0  0  0  0  0  0  0  0  0  0
   -1.2130    0.1938    2.3518 H   0  0  0  0  0  0  0  0  0  0  0  0
    0.1836    0.1337    3.9673 C   0  0  0  0  0  0  0  0  0  0  0  0
    1.0451    0.7976    4.0666 H   0  0  0  0  0  0  0  0  0  0  0  0
   -0.6344    0.5115    4.5820 H   0  0  0  0  0  0  0  0  0  0  0  0
    0.4676   -0.8609    4.3157 H   0  0  0  0  0  0  0  0  0  0  0  0
  5  6  2  0  0  0  0
  5  7  1  0  0  0  0
  2  3  1  0  0  0  0
  2  4  1  0  0  0  0
  2  5  1  0  0  0  0
  1  2  1  0  0  0  0
 18 19  2  0  0  0  0
 18 20  1  0  0  0  0
 16 17  1  0  0  0  0
 14 15  2  0  0  0  0
 14 16  1  0  0  0  0
 11 12  1  0  0  0  0
 11 13  1  0  0  0  0
 11 14  1  0  0  0  0
  9 10  1  0  0  0  0
  9 11  1  0  0  0  0
  9 18  1  0  0  0  0
  7  8  1  0  0  0  0
  7  9  1  0  0  0  0
 22 23  1  0  0  0  0
 22 24  1  0  0  0  0
 22 25  1  0  0  0  0
 20 21  1  0  0  0  0
 20 22  1  0  0  0  0
M  END
$$$$
default_name
  -OEChem-02102213163D

 25 24  0     1  0  0  0  0  0999 V2000
   -2.7826   -3.8464    0.7821 H   0  0  0  0  0  0  0  0  0  0  0  0
   -2.8156   -2.8034    0.4711 C   0  0  0  0  0  0  0  0  0  0  0  0
   -3.4336   -2.2354    1.1641 H   0  0  0  0  0  0  0  0  0  0  0  0
   -3.2256   -2.7344   -0.5349 H   0  0  0  0  0  0  0  0  0  0  0  0
   -1.4126   -2.2444    0.4801 C   0  0  0  0  0  0  0  0  0  0  0  0
   -0.4686   -2.9534    0.8001 O   0  0  0  0  0  0  0  0  0  0  0  0
   -1.2736   -0.9704    0.1241 N   0  0  0  0  0  0  0  0  0  0  0  0
   -2.0996   -0.4354   -0.1019 H   0  0  0  0  0  0  0  0  0  0  0  0
   -0.0016   -0.2394    0.1271 C   0  0  1  0  0  0  0  0  0  0  0  0
    0.6995   -0.7619   -0.5275 H   0  0  0  0  0  0  0  0  0  0  0  0
   -0.2283    1.1832   -0.4215 C   0  0  0  0  0  0  0  0  0  0  0  0
    0.7147    1.7311   -0.4101 H   0  0  0  0  0  0  0  0  0  0  0  0
   -0.5711    1.1278   -1.4553 H   0  0  0  0  0  0  0  0  0  0  0  0
   -1.2272    1.9968    0.3957 C   0  0  0  0  0  0  0  0  0  0  0  0
   -0.9895    3.0552    0.9628 O   0  0  0  0  0  0  0  0  0  0  0  0
   -2.4592    1.4607    0.4775 O   0  0  0  0  0  0  0  0  0  0  0  0
   -2.9796    2.0764    0.9945 H   0  0  0  0  0  0  0  0  0  0  0  0
    0.5920   -0.2154    1.5497 C   0  0  0  0  0  0  0  0  0  0  0  0
    1.7860   -0.4596    1.7183 O   0  0  0  0  0  0  0  0  0  0  0  0
   -0.2294    0.0669    2.5672 N   0  0  0  0  0  0  0  0  0  0  0  0
   -1.2130    0.1938    2.3518 H   0  0  0  0  0  0  0  0  0  0  0  0
    0.1836    0.1337    3.9673 C   0  0  0  0  0  0  0  0  0  0  0  0
    1.0451    0.7976    4.0666 H   0  0  0  0  0  0  0  0  0  0  0  0
   -0.6344    0.5115    4.5820 H   0  0  0  0  0  0  0  0  0  0  0  0
    0.4676   -0.8609    4.3157 H   0  0  0  0  0  0  0  0  0  0  0  0
  5  6  2  0  0  0  0
  5  7  1  0  0  0  0
  2  3  1  0  0  0  0
  2  4  1  0  0  0  0
  2  5  1  0  0  0  0
  1  2  1  0  0  0  0
 18 19  2  0  0  0  0
 18 20  1  0  0  0  0
 16 17  1  0  0  0  0
 14 15  2  0  0  0  0
 14 16  1  0  0  0  0
 11 12  1  0  0  0  0
 11 13  1  0  0  0  0
 11 14  1  0  0  0  0
  9 10  1  0  0  0  0
  9 11  1  0  0  0  0
  9 18  1  0  0  0  0
  7  8  1  0  0  0  0
  7  9  1  0  0  0  0
 22 23  1  0  0  0  0
 22 24  1  0  0  0  0
 22 25  1  0  0  0  0
 20 21  1  0  0  0  0
 20 22  1  0  0  0  0
M  END
$$$$
default_name
  -OEChem-02102213163D

 25 24  0     1  0  0  0  0  0999 V2000
   -2.7826   -3.8464    0.7821 H   0  0  0  0  0  0  0  0  0  0  0  0
   -2.8156   -2.8034    0.4711 C   0  0  0  0  0  0  0  0  0  0  0  0
   -3.4336   -2.2354    1.1641 H   0  0  0  0  0  0  0  0  0  0  0  0
   -3.2256   -2.7344   -0.5349 H   0  0  0  0  0  0  0  0  0  0  0  0
   -1.4126   -2.2444    0.4801 C   0  0  0  0  0  0  0  0  0  0  0  0
   -0.4686   -2.9534    0.8001 O   0  0  0  0  0  0  0  0  0  0  0  0
   -1.2736   -0.9704    0.1241 N   0  0  0  0  0  0  0  0  0  0  0  0
   -2.0996   -0.4354   -0.1019 H   0  0  0  0  0  0  0  0  0  0  0  0
   -0.0016   -0.2394    0.1271 C   0  0  1  0  0  0  0  0  0  0  0  0
    0.6995   -0.7619   -0.5275 H   0  0  0  0  0  0  0  0  0  0  0  0
   -0.2283    1.1832   -0.4215 C   0  0  0  0  0  0  0  0  0  0  0  0
    0.7147    1.7311   -0.4101 H   0  0  0  0  0  0  0  0  0  0  0  0
   -0.5711    1.1278   -1.4553 H   0  0  0  0  0  0  0  0  0  0  0  0
   -1.2272    1.9968    0.3957 C   0  0  0  0  0  0  0  0  0  0  0  0
   -1.0820    3.1612    0.7443 O   0  0  0  0  0  0  0  0  0  0  0  0
   -2.3443    1.3323    0.7459 O   0  0  0  0  0  0  0  0  0  0  0  0
   -2.8820    1.9597    1.2301 H   0  0  0  0  0  0  0  0  0  0  0  0
    0.5920   -0.2154    1.5497 C   0  0  0  0  0  0  0  0  0  0  0  0
    1.7860   -0.4596    1.7183 O   0  0  0  0  0  0  0  0  0  0  0  0
   -0.2294    0.0669    2.5672 N   0  0  0  0  0  0  0  0  0  0  0  0
   -1.2130    0.1938    2.3518 H   0  0  0  0  0  0  0  0  0  0  0  0
    0.1836    0.1337    3.9673 C   0  0  0  0  0  0  0  0  0  0  0  0
    1.0451    0.7976    4.0666 H   0  0  0  0  0  0  0  0  0  0  0  0
   -0.6344    0.5115    4.5820 H   0  0  0  0  0  0  0  0  0  0  0  0
    0.4676   -0.8609    4.3157 H   0  0  0  0  0  0  0  0  0  0  0  0
  5  6  2  0  0  0  0
  5  7  1  0  0  0  0
  2  3  1  0  0  0  0
  2  4  1  0  0  0  0
  2  5  1  0  0  0  0
  1  2  1  0  0  0  0
 18 19  2  0  0  0  0
 18 20  1  0  0  0  0
 16 17  1  0  0  0  0
 14 15  2  0  0  0  0
 14 16  1  0  0  0  0
 11 12  1  0  0  0  0
 11 13  1  0  0  0  0
 11 14  1  0  0  0  0
  9 10  1  0  0  0  0
  9 11  1  0  0  0  0
  9 18  1  0  0  0  0
  7  8  1  0  0  0  0
  7  9  1  0  0  0  0
 22 23  1  0  0  0  0
 22 24  1  0  0  0  0
 22 25  1  0  0  0  0
 20 21  1  0  0  0  0
 20 22  1  0  0  0  0
M  END
$$$$
default_name
  -OEChem-02102213163D

 25 24  0     1  0  0  0  0  0999 V2000
   -2.7826   -3.8464    0.7821 H   0  0  0  0  0  0  0  0  0  0  0  0
   -2.8156   -2.8034    0.4711 C   0  0  0  0  0  0  0  0  0  0  0  0
   -3.4336   -2.2354    1.1641 H   0  0  0  0  0  0  0  0  0  0  0  0
   -3.2256   -2.7344   -0.5349 H   0  0  0  0  0  0  0  0  0  0  0  0
   -1.4126   -2.2444    0.4801 C   0  0  0  0  0  0  0  0  0  0  0  0
   -0.4686   -2.9534    0.8001 O   0  0  0  0  0  0  0  0  0  0  0  0
   -1.2736   -0.9704    0.1241 N   0  0  0  0  0  0  0  0  0  0  0  0
   -2.0996   -0.4354   -0.1019 H   0  0  0  0  0  0  0  0  0  0  0  0
   -0.0016   -0.2394    0.1271 C   0  0  1  0  0  0  0  0  0  0  0  0
    0.6995   -0.7619   -0.5275 H   0  0  0  0  0  0  0  0  0  0  0  0
   -0.2283    1.1832   -0.4215 C   0  0  0  0  0  0  0  0  0  0  0  0
    0.7147    1.7311   -0.4101 H   0  0  0  0  0  0  0  0  0  0  0  0
   -0.5711    1.1278   -1.4553 H   0  0  0  0  0  0  0  0  0  0  0  0
   -1.2272    1.9968    0.3957 C   0  0  0  0  0  0  0  0  0  0  0  0
   -1.2161    3.2136    0.5281 O   0  0  0  0  0  0  0  0  0  0  0  0
   -2.1783    1.2697    1.0110 O   0  0  0  0  0  0  0  0  0  0  0  0
   -2.7390    1.9004    1.4639 H   0  0  0  0  0  0  0  0  0  0  0  0
    0.5920   -0.2154    1.5497 C   0  0  0  0  0  0  0  0  0  0  0  0
    1.7860   -0.4596    1.7183 O   0  0  0  0  0  0  0  0  0  0  0  0
   -0.2294    0.0669    2.5672 N   0  0  0  0  0  0  0  0  0  0  0  0
   -1.2130    0.1938    2.3518 H   0  0  0  0  0  0  0  0  0  0  0  0
    0.1836    0.1337    3.9673 C   0  0  0  0  0  0  0  0  0  0  0  0
    1.0451    0.7976    4.0666 H   0  0  0  0  0  0  0  0  0  0  0  0
   -0.6344    0.5115    4.5820 H   0  0  0  0  0  0  0  0  0  0  0  0
    0.4676   -0.8609    4.3157 H   0  0  0  0  0  0  0  0  0  0  0  0
  5  6  2  0  0  0  0
  5  7  1  0  0  0  0
  2  3  1  0  0  0  0
  2  4  1  0  0  0  0
  2  5  1  0  0  0  0
  1  2  1  0  0  0  0
 18 19  2  0  0  0  0
 18 20  1  0  0  0  0
 16 17  1  0  0  0  0
 14 15  2  0  0  0  0
 14 16  1  0  0  0  0
 11 12  1  0  0  0  0
 11 13  1  0  0  0  0
 11 14  1  0  0  0  0
  9 10  1  0  0  0  0
  9 11  1  0  0  0  0
  9 18  1  0  0  0  0
  7  8  1  0  0  0  0
  7  9  1  0  0  0  0
 22 23  1  0  0  0  0
 22 24  1  0  0  0  0
 22 25  1  0  0  0  0
 20 21  1  0  0  0  0
 20 22  1  0  0  0  0
M  END
$$$$
default_name
  -OEChem-02102213163D

 25 24  0     1  0  0  0  0  0999 V2000
   -2.7826   -3.8464    0.7821 H   0  0  0  0  0  0  0  0  0  0  0  0
   -2.8156   -2.8034    0.4711 C   0  0  0  0  0  0  0  0  0  0  0  0
   -3.4336   -2.2354    1.1641 H   0  0  0  0  0  0  0  0  0  0  0  0
   -3.2256   -2.7344   -0.5349 H   0  0  0  0  0  0  0  0  0  0  0  0
   -1.4126   -2.2444    0.4801 C   0  0  0  0  0  0  0  0  0  0  0  0
   -0.4686   -2.9534    0.8001 O   0  0  0  0  0  0  0  0  0  0  0  0
   -1.2736   -0.9704    0.1241 N   0  0  0  0  0  0  0  0  0  0  0  0
   -2.0996   -0.4354   -0.1019 H   0  0  0  0  0  0  0  0  0  0  0  0
   -0.0016   -0.2394    0.1271 C   0  0  1  0  0  0  0  0  0  0  0  0
    0.6995   -0.7619   -0.5275 H   0  0  0  0  0  0  0  0  0  0  0  0
   -0.2283    1.1832   -0.4215 C   0  0  0  0  0  0  0  0  0  0  0  0
    0.7147    1.7311   -0.4101 H   0  0  0  0  0  0  0  0  0  0  0  0
   -0.5711    1.1278   -1.4553 H   0  0  0  0  0  0  0  0  0  0  0  0
   -1.2272    1.9968    0.3957 C   0  0  0  0  0  0  0  0  0  0  0  0
   -1.3828    3.2091    0.3289 O   0  0  0  0  0  0  0  0  0  0  0  0
   -1.9728    1.2771    1.2549 O   0  0  0  0  0  0  0  0  0  0  0  0
   -2.5604    1.9025    1.6801 H   0  0  0  0  0  0  0  0  0  0  0  0
    0.5920   -0.2154    1.5497 C   0  0  0  0  0  0  0  0  0  0  0  0
    1.7860   -0.4596    1.7183 O   0  0  0  0  0  0  0  0  0  0  0  0
   -0.2294    0.0669    2.5672 N   0  0  0  0  0  0  0  0  0  0  0  0
   -1.2130    0.1938    2.3518 H   0  0  0  0  0  0  0  0  0  0  0  0
    0.1836    0.1337    3.9673 C   0  0  0  0  0  0  0  0  0  0  0  0
    1.0451    0.7976    4.0666 H   0  0  0  0  0  0  0  0  0  0  0  0
   -0.6344    0.5115    4.5820 H   0  0  0  0  0  0  0  0  0  0  0  0
    0.4676   -0.8609    4.3157 H   0  0  0  0  0  0  0  0  0  0  0  0
  5  6  2  0  0  0  0
  5  7  1  0  0  0  0
  2  3  1  0  0  0  0
  2  4  1  0  0  0  0
  2  5  1  0  0  0  0
  1  2  1  0  0  0  0
 18 19  2  0  0  0  0
 18 20  1  0  0  0  0
 16 17  1  0  0  0  0
 14 15  2  0  0  0  0
 14 16  1  0  0  0  0
 11 12  1  0  0  0  0
 11 13  1  0  0  0  0
 11 14  1  0  0  0  0
  9 10  1  0  0  0  0
  9 11  1  0  0  0  0
  9 18  1  0  0  0  0
  7  8  1  0  0  0  0
  7  9  1  0  0  0  0
 22 23  1  0  0  0  0
 22 24  1  0  0  0  0
 22 25  1  0  0  0  0
 20 21  1  0  0  0  0
 20 22  1  0  0  0  0
M  END
$$$$
default_name
  -OEChem-02102213163D

 25 24  0     1  0  0  0  0  0999 V2000
   -2.7826   -3.8464    0.7821 H   0  0  0  0  0  0  0  0  0  0  0  0
   -2.8156   -2.8034    0.4711 C   0  0  0  0  0  0  0  0  0  0  0  0
   -3.4336   -2.2354    1.1641 H   0  0  0  0  0  0  0  0  0  0  0  0
   -3.2256   -2.7344   -0.5349 H   0  0  0  0  0  0  0  0  0  0  0  0
   -1.4126   -2.2444    0.4801 C   0  0  0  0  0  0  0  0  0  0  0  0
   -0.4686   -2.9534    0.8001 O   0  0  0  0  0  0  0  0  0  0  0  0
   -1.2736   -0.9704    0.1241 N   0  0  0  0  0  0  0  0  0  0  0  0
   -2.0996   -0.4354   -0.1019 H   0  0  0  0  0  0  0  0  0  0  0  0
   -0.0016   -0.2394    0.1271 C   0  0  1  0  0  0  0  0  0  0  0  0
    0.6995   -0.7619   -0.5275 H   0  0  0  0  0  0  0  0  0  0  0  0
   -0.2283    1.1832   -0.4215 C   0  0  0  0  0  0  0  0  0  0  0  0
    0.7340    1.6374   -0.6610 H   0  0  0  0  0  0  0  0  0  0  0  0
   -0.8133    1.1335   -1.3406 H   0  0  0  0  0  0  0  0  0  0  0  0
   -0.9261    2.1113    0.5682 C   0  0  0  0  0  0  0  0  0  0  0  0
   -1.2141    3.2834    0.3644 O   0  0  0  0  0  0  0  0  0  0  0  0
   -1.2232    1.5502    1.7551 O   0  0  0  0  0  0  0  0  0  0  0  0
   -1.6689    2.2295    2.2623 H   0  0  0  0  0  0  0  0  0  0  0  0
    0.5920   -0.2154    1.5497 C   0  0  0  0  0  0  0  0  0  0  0  0
    1.7860   -0.4596    1.7183 O   0  0  0  0  0  0  0  0  0  0  0  0
   -0.2294    0.0669    2.5672 N   0  0  0  0  0  0  0  0  0  0  0  0
   -1.2130    0.1938    2.3518 H   0  0  0  0  0  0  0  0  0  0  0  0
    0.1836    0.1337    3.9673 C   0  0  0  0  0  0  0  0  0  0  0  0
    1.0451    0.7976    4.0666 H   0  0  0  0  0  0  0  0  0  0  0  0
   -0.6344    0.5115    4.5820 H   0  0  0  0  0  0  0  0  0  0  0  0
    0.4676   -0.8609    4.3157 H   0  0  0  0  0  0  0  0  0  0  0  0
  5  6  2  0  0  0  0
  5  7  1  0  0  0  0
  2  3  1  0  0  0  0
  2  4  1  0  0  0  0
  2  5  1  0  0  0  0
  1  2  1  0  0  0  0
 18 19  2  0  0  0  0
 18 20  1  0  0  0  0
 16 17  1  0  0  0  0
 14 15  2  0  0  0  0
 14 16  1  0  0  0  0
 11 12  1  0  0  0  0
 11 13  1  0  0  0  0
 11 14  1  0  0  0  0
  9 10  1  0  0  0  0
  9 11  1  0  0  0  0
  9 18  1  0  0  0  0
  7  8  1  0  0  0  0
  7  9  1  0  0  0  0
 22 23  1  0  0  0  0
 22 24  1  0  0  0  0
 22 25  1  0  0  0  0
 20 21  1  0  0  0  0
 20 22  1  0  0  0  0
M  END
$$$$
default_name
  -OEChem-02102213163D

 25 24  0     1  0  0  0  0  0999 V2000
   -2.7826   -3.8464    0.7821 H   0  0  0  0  0  0  0  0  0  0  0  0
   -2.8156   -2.8034    0.4711 C   0  0  0  0  0  0  0  0  0  0  0  0
   -3.4336   -2.2354    1.1641 H   0  0  0  0  0  0  0  0  0  0  0  0
   -3.2256   -2.7344   -0.5349 H   0  0  0  0  0  0  0  0  0  0  0  0
   -1.4126   -2.2444    0.4801 C   0  0  0  0  0  0  0  0  0  0  0  0
   -0.4686   -2.9534    0.8001 O   0  0  0  0  0  0  0  0  0  0  0  0
   -1.2736   -0.9704    0.1241 N   0  0  0  0  0  0  0  0  0  0  0  0
   -2.0996   -0.4354   -0.1019 H   0  0  0  0  0  0  0  0  0  0  0  0
   -0.0016   -0.2394    0.1271 C   0  0  1  0  0  0  0  0  0  0  0  0
    0.6995   -0.7619   -0.5275 H   0  0  0  0  0  0  0  0  0  0  0  0
   -0.2283    1.1832   -0.4215 C   0  0  0  0  0  0  0  0  0  0  0  0
    0.7340    1.6374   -0.6610 H   0  0  0  0  0  0  0  0  0  0  0  0
   -0.8133    1.1335   -1.3406 H   0  0  0  0  0  0  0  0  0  0  0  0
   -0.9261    2.1113    0.5682 C   0  0  0  0  0  0  0  0  0  0  0  0
   -1.4442    3.1857    0.2937 O   0  0  0  0  0  0  0  0  0  0  0  0
   -0.9408    1.6717    1.8404 O   0  0  0  0  0  0  0  0  0  0  0  0
   -1.4202    2.3326    2.3409 H   0  0  0  0  0  0  0  0  0  0  0  0
    0.5920   -0.2154    1.5497 C   0  0  0  0  0  0  0  0  0  0  0  0
    1.7860   -0.4596    1.7183 O   0  0  0  0  0  0  0  0  0  0  0  0
   -0.2294    0.0669    2.5672 N   0  0  0  0  0  0  0  0  0  0  0  0
   -1.2130    0.1938    2.3518 H   0  0  0  0  0  0  0  0  0  0  0  0
    0.1836    0.1337    3.9673 C   0  0  0  0  0  0  0  0  0  0  0  0
    1.0451    0.7976    4.0666 H   0  0  0  0  0  0  0  0  0  0  0  0
   -0.6344    0.5115    4.5820 H   0  0  0  0  0  0  0  0  0  0  0  0
    0.4676   -0.8609    4.3157 H   0  0  0  0  0  0  0  0  0  0  0  0
  5  6  2  0  0  0  0
  5  7  1  0  0  0  0
  2  3  1  0  0  0  0
  2  4  1  0  0  0  0
  2  5  1  0  0  0  0
  1  2  1  0  0  0  0
 18 19  2  0  0  0  0
 18 20  1  0  0  0  0
 16 17  1  0  0  0  0
 14 15  2  0  0  0  0
 14 16  1  0  0  0  0
 11 12  1  0  0  0  0
 11 13  1  0  0  0  0
 11 14  1  0  0  0  0
  9 10  1  0  0  0  0
  9 11  1  0  0  0  0
  9 18  1  0  0  0  0
  7  8  1  0  0  0  0
  7  9  1  0  0  0  0
 22 23  1  0  0  0  0
 22 24  1  0  0  0  0
 22 25  1  0  0  0  0
 20 21  1  0  0  0  0
 20 22  1  0  0  0  0
M  END
$$$$
default_name
  -OEChem-02102213163D

 25 24  0     1  0  0  0  0  0999 V2000
   -2.7826   -3.8464    0.7821 H   0  0  0  0  0  0  0  0  0  0  0  0
   -2.8156   -2.8034    0.4711 C   0  0  0  0  0  0  0  0  0  0  0  0
   -3.4336   -2.2354    1.1641 H   0  0  0  0  0  0  0  0  0  0  0  0
   -3.2256   -2.7344   -0.5349 H   0  0  0  0  0  0  0  0  0  0  0  0
   -1.4126   -2.2444    0.4801 C   0  0  0  0  0  0  0  0  0  0  0  0
   -0.4686   -2.9534    0.8001 O   0  0  0  0  0  0  0  0  0  0  0  0
   -1.2736   -0.9704    0.1241 N   0  0  0  0  0  0  0  0  0  0  0  0
   -2.0996   -0.4354   -0.1019 H   0  0  0  0  0  0  0  0  0  0  0  0
   -0.0016   -0.2394    0.1271 C   0  0  1  0  0  0  0  0  0  0  0  0
    0.6995   -0.7619   -0.5275 H   0  0  0  0  0  0  0  0  0  0  0  0
   -0.2283    1.1832   -0.4215 C   0  0  0  0  0  0  0  0  0  0  0  0
    0.7340    1.6374   -0.6610 H   0  0  0  0  0  0  0  0  0  0  0  0
   -0.8133    1.1335   -1.3406 H   0  0  0  0  0  0  0  0  0  0  0  0
   -0.9261    2.1113    0.5682 C   0  0  0  0  0  0  0  0  0  0  0  0
   -1.6613    3.0444    0.2732 O   0  0  0  0  0  0  0  0  0  0  0  0
   -0.6750    1.8464    1.8638 O   0  0  0  0  0  0  0  0  0  0  0  0
   -1.1849    2.4833    2.3655 H   0  0  0  0  0  0  0  0  0  0  0  0
    0.5920   -0.2154    1.5497 C   0  0  0  0  0  0  0  0  0  0  0  0
    1.7860   -0.4596    1.7183 O   0  0  0  0  0  0  0  0  0  0  0  0
   -0.2294    0.0669    2.5672 N   0  0  0  0  0  0  0  0  0  0  0  0
   -1.2130    0.1938    2.3518 H   0  0  0  0  0  0  0  0  0  0  0  0
    0.1836    0.1337    3.9673 C   0  0  0  0  0  0  0  0  0  0  0  0
    1.0451    0.7976    4.0666 H   0  0  0  0  0  0  0  0  0  0  0  0
   -0.6344    0.5115    4.5820 H   0  0  0  0  0  0  0  0  0  0  0  0
    0.4676   -0.8609    4.3157 H   0  0  0  0  0  0  0  0  0  0  0  0
  5  6  2  0  0  0  0
  5  7  1  0  0  0  0
  2  3  1  0  0  0  0
  2  4  1  0  0  0  0
  2  5  1  0  0  0  0
  1  2  1  0  0  0  0
 18 19  2  0  0  0  0
 18 20  1  0  0  0  0
 16 17  1  0  0  0  0
 14 15  2  0  0  0  0
 14 16  1  0  0  0  0
 11 12  1  0  0  0  0
 11 13  1  0  0  0  0
 11 14  1  0  0  0  0
  9 10  1  0  0  0  0
  9 11  1  0  0  0  0
  9 18  1  0  0  0  0
  7  8  1  0  0  0  0
  7  9  1  0  0  0  0
 22 23  1  0  0  0  0
 22 24  1  0  0  0  0
 22 25  1  0  0  0  0
 20 21  1  0  0  0  0
 20 22  1  0  0  0  0
M  END
$$$$
default_name
  -OEChem-02102213163D

 25 24  0     1  0  0  0  0  0999 V2000
   -2.7826   -3.8464    0.7821 H   0  0  0  0  0  0  0  0  0  0  0  0
   -2.8156   -2.8034    0.4711 C   0  0  0  0  0  0  0  0  0  0  0  0
   -3.4336   -2.2354    1.1641 H   0  0  0  0  0  0  0  0  0  0  0  0
   -3.2256   -2.7344   -0.5349 H   0  0  0  0  0  0  0  0  0  0  0  0
   -1.4126   -2.2444    0.4801 C   0  0  0  0  0  0  0  0  0  0  0  0
   -0.4686   -2.9534    0.8001 O   0  0  0  0  0  0  0  0  0  0  0  0
   -1.2736   -0.9704    0.1241 N   0  0  0  0  0  0  0  0  0  0  0  0
   -2.0996   -0.4354   -0.1019 H   0  0  0  0  0  0  0  0  0  0  0  0
   -0.0016   -0.2394    0.1271 C   0  0  1  0  0  0  0  0  0  0  0  0
    0.6995   -0.7619   -0.5275 H   0  0  0  0  0  0  0  0  0  0  0  0
   -0.2283    1.1832   -0.4215 C   0  0  0  0  0  0  0  0  0  0  0  0
    0.7340    1.6374   -0.6610 H   0  0  0  0  0  0  0  0  0  0  0  0
   -0.8133    1.1335   -1.3406 H   0  0  0  0  0  0  0  0  0  0  0  0
   -0.9261    2.1113    0.5682 C   0  0  0  0  0  0  0  0  0  0  0  0
   -1.8505    2.8690    0.3043 O   0  0  0  0  0  0  0  0  0  0  0  0
   -0.4439    2.0627    1.8240 O   0  0  0  0  0  0  0  0  0  0  0  0
   -0.9791    2.6712    2.3344 H   0  0  0  0  0  0  0  0  0  0  0  0
    0.5920   -0.2154    1.5497 C   0  0  0  0  0  0  0  0  0  0  0  0
    1.7860   -0.4596    1.7183 O   0  0  0  0  0  0  0  0  0  0  0  0
   -0.2294    0.0669    2.5672 N   0  0  0  0  0  0  0  0  0  0  0  0
   -1.2130    0.1938    2.3518 H   0  0  0  0  0  0  0  0  0  0  0  0
    0.1836    0.1337    3.9673 C   0  0  0  0  0  0  0  0  0  0  0  0
    1.0451    0.7976    4.0666 H   0  0  0  0  0  0  0  0  0  0  0  0
   -0.6344    0.5115    4.5820 H   0  0  0  0  0  0  0  0  0  0  0  0
    0.4676   -0.8609    4.3157 H   0  0  0  0  0  0  0  0  0  0  0  0
  5  6  2  0  0  0  0
  5  7  1  0  0  0  0
  2  3  1  0  0  0  0
  2  4  1  0  0  0  0
  2  5  1  0  0  0  0
  1  2  1  0  0  0  0
 18 19  2  0  0  0  0
 18 20  1  0  0  0  0
 16 17  1  0  0  0  0
 14 15  2  0  0  0  0
 14 16  1  0  0  0  0
 11 12  1  0  0  0  0
 11 13  1  0  0  0  0
 11 14  1  0  0  0  0
  9 10  1  0  0  0  0
  9 11  1  0  0  0  0
  9 18  1  0  0  0  0
  7  8  1  0  0  0  0
  7  9  1  0  0  0  0
 22 23  1  0  0  0  0
 22 24  1  0  0  0  0
 22 25  1  0  0  0  0
 20 21  1  0  0  0  0
 20 22  1  0  0  0  0
M  END
$$$$
default_name
  -OEChem-02102213163D

 25 24  0     1  0  0  0  0  0999 V2000
   -2.7826   -3.8464    0.7821 H   0  0  0  0  0  0  0  0  0  0  0  0
   -2.8156   -2.8034    0.4711 C   0  0  0  0  0  0  0  0  0  0  0  0
   -3.4336   -2.2354    1.1641 H   0  0  0  0  0  0  0  0  0  0  0  0
   -3.2256   -2.7344   -0.5349 H   0  0  0  0  0  0  0  0  0  0  0  0
   -1.4126   -2.2444    0.4801 C   0  0  0  0  0  0  0  0  0  0  0  0
   -0.4686   -2.9534    0.8001 O   0  0  0  0  0  0  0  0  0  0  0  0
   -1.2736   -0.9704    0.1241 N   0  0  0  0  0  0  0  0  0  0  0  0
   -2.0996   -0.4354   -0.1019 H   0  0  0  0  0  0  0  0  0  0  0  0
   -0.0016   -0.2394    0.1271 C   0  0  1  0  0  0  0  0  0  0  0  0
    0.6995   -0.7619   -0.5275 H   0  0  0  0  0  0  0  0  0  0  0  0
   -0.2283    1.1832   -0.4215 C   0  0  0  0  0  0  0  0  0  0  0  0
    0.7340    1.6374   -0.6610 H   0  0  0  0  0  0  0  0  0  0  0  0
   -0.8133    1.1335   -1.3406 H   0  0  0  0  0  0  0  0  0  0  0  0
   -0.9261    2.1113    0.5682 C   0  0  0  0  0  0  0  0  0  0  0  0
   -1.9988    2.6716    0.3849 O   0  0  0  0  0  0  0  0  0  0  0  0
   -0.2632    2.3057    1.7235 O   0  0  0  0  0  0  0  0  0  0  0  0
   -0.8168    2.8836    2.2497 H   0  0  0  0  0  0  0  0  0  0  0  0
    0.5920   -0.2154    1.5497 C   0  0  0  0  0  0  0  0  0  0  0  0
    1.7860   -0.4596    1.7183 O   0  0  0  0  0  0  0  0  0  0  0  0
   -0.2294    0.0669    2.5672 N   0  0  0  0  0  0  0  0  0  0  0  0
   -1.2130    0.1938    2.3518 H   0  0  0  0  0  0  0  0  0  0  0  0
    0.1836    0.1337    3.9673 C   0  0  0  0  0  0  0  0  0  0  0  0
    1.0451    0.7976    4.0666 H   0  0  0  0  0  0  0  0  0  0  0  0
   -0.6344    0.5115    4.5820 H   0  0  0  0  0  0  0  0  0  0  0  0
    0.4676   -0.8609    4.3157 H   0  0  0  0  0  0  0  0  0  0  0  0
  5  6  2  0  0  0  0
  5  7  1  0  0  0  0
  2  3  1  0  0  0  0
  2  4  1  0  0  0  0
  2  5  1  0  0  0  0
  1  2  1  0  0  0  0
 18 19  2  0  0  0  0
 18 20  1  0  0  0  0
 16 17  1  0  0  0  0
 14 15  2  0  0  0  0
 14 16  1  0  0  0  0
 11 12  1  0  0  0  0
 11 13  1  0  0  0  0
 11 14  1  0  0  0  0
  9 10  1  0  0  0  0
  9 11  1  0  0  0  0
  9 18  1  0  0  0  0
  7  8  1  0  0  0  0
  7  9  1  0  0  0  0
 22 23  1  0  0  0  0
 22 24  1  0  0  0  0
 22 25  1  0  0  0  0
 20 21  1  0  0  0  0
 20 22  1  0  0  0  0
M  END
$$$$
default_name
  -OEChem-02102213163D

 25 24  0     1  0  0  0  0  0999 V2000
   -2.7826   -3.8464    0.7821 H   0  0  0  0  0  0  0  0  0  0  0  0
   -2.8156   -2.8034    0.4711 C   0  0  0  0  0  0  0  0  0  0  0  0
   -3.4336   -2.2354    1.1641 H   0  0  0  0  0  0  0  0  0  0  0  0
   -3.2256   -2.7344   -0.5349 H   0  0  0  0  0  0  0  0  0  0  0  0
   -1.4126   -2.2444    0.4801 C   0  0  0  0  0  0  0  0  0  0  0  0
   -0.4686   -2.9534    0.8001 O   0  0  0  0  0  0  0  0  0  0  0  0
   -1.2736   -0.9704    0.1241 N   0  0  0  0  0  0  0  0  0  0  0  0
   -2.0996   -0.4354   -0.1019 H   0  0  0  0  0  0  0  0  0  0  0  0
   -0.0016   -0.2394    0.1271 C   0  0  1  0  0  0  0  0  0  0  0  0
    0.6995   -0.7619   -0.5275 H   0  0  0  0  0  0  0  0  0  0  0  0
   -0.2283    1.1832   -0.4215 C   0  0  0  0  0  0  0  0  0  0  0  0
    0.7340    1.6374   -0.6610 H   0  0  0  0  0  0  0  0  0  0  0  0
   -0.8133    1.1335   -1.3406 H   0  0  0  0  0  0  0  0  0  0  0  0
   -0.9261    2.1113    0.5682 C   0  0  0  0  0  0  0  0  0  0  0  0
   -2.0963    2.4654    0.5095 O   0  0  0  0  0  0  0  0  0  0  0  0
   -0.1453    2.5588    1.5693 O   0  0  0  0  0  0  0  0  0  0  0  0
   -0.7090    3.1060    2.1171 H   0  0  0  0  0  0  0  0  0  0  0  0
    0.5920   -0.2154    1.5497 C   0  0  0  0  0  0  0  0  0  0  0  0
    1.7860   -0.4596    1.7183 O   0  0  0  0  0  0  0  0  0  0  0  0
   -0.2294    0.0669    2.5672 N   0  0  0  0  0  0  0  0  0  0  0  0
   -1.2130    0.1938    2.3518 H   0  0  0  0  0  0  0  0  0  0  0  0
    0.1836    0.1337    3.9673 C   0  0  0  0  0  0  0  0  0  0  0  0
    1.0451    0.7976    4.0666 H   0  0  0  0  0  0  0  0  0  0  0  0
   -0.6344    0.5115    4.5820 H   0  0  0  0  0  0  0  0  0  0  0  0
    0.4676   -0.8609    4.3157 H   0  0  0  0  0  0  0  0  0  0  0  0
  5  6  2  0  0  0  0
  5  7  1  0  0  0  0
  2  3  1  0  0  0  0
  2  4  1  0  0  0  0
  2  5  1  0  0  0  0
  1  2  1  0  0  0  0
 18 19  2  0  0  0  0
 18 20  1  0  0  0  0
 16 17  1  0  0  0  0
 14 15  2  0  0  0  0
 14 16  1  0  0  0  0
 11 12  1  0  0  0  0
 11 13  1  0  0  0  0
 11 14  1  0  0  0  0
  9 10  1  0  0  0  0
  9 11  1  0  0  0  0
  9 18  1  0  0  0  0
  7  8  1  0  0  0  0
  7  9  1  0  0  0  0
 22 23  1  0  0  0  0
 22 24  1  0  0  0  0
 22 25  1  0  0  0  0
 20 21  1  0  0  0  0
 20 22  1  0  0  0  0
M  END
$$$$
default_name
  -OEChem-02102213163D

 25 24  0     1  0  0  0  0  0999 V2000
   -2.7826   -3.8464    0.7821 H   0  0  0  0  0  0  0  0  0  0  0  0
   -2.8156   -2.8034    0.4711 C   0  0  0  0  0  0  0  0  0  0  0  0
   -3.4336   -2.2354    1.1641 H   0  0  0  0  0  0  0  0  0  0  0  0
   -3.2256   -2.7344   -0.5349 H   0  0  0  0  0  0  0  0  0  0  0  0
   -1.4126   -2.2444    0.4801 C   0  0  0  0  0  0  0  0  0  0  0  0
   -0.4686   -2.9534    0.8001 O   0  0  0  0  0  0  0  0  0  0  0  0
   -1.2736   -0.9704    0.1241 N   0  0  0  0  0  0  0  0  0  0  0  0
   -2.0996   -0.4354   -0.1019 H   0  0  0  0  0  0  0  0  0  0  0  0
   -0.0016   -0.2394    0.1271 C   0  0  1  0  0  0  0  0  0  0  0  0
    0.6995   -0.7619   -0.5275 H   0  0  0  0  0  0  0  0  0  0  0  0
   -0.2283    1.1832   -0.4215 C   0  0  0  0  0  0  0  0  0  0  0  0
    0.7340    1.6374   -0.6610 H   0  0  0  0  0  0  0  0  0  0  0  0
   -0.8133    1.1335   -1.3406 H   0  0  0  0  0  0  0  0  0  0  0  0
   -0.9261    2.1113    0.5682 C   0  0  0  0  0  0  0  0  0  0  0  0
   -2.1362    2.2647    0.6695 O   0  0  0  0  0  0  0  0  0  0  0  0
   -0.0983    2.8048    1.3717 O   0  0  0  0  0  0  0  0  0  0  0  0
   -0.6630    3.3232    1.9458 H   0  0  0  0  0  0  0  0  0  0  0  0
    0.5920   -0.2154    1.5497 C   0  0  0  0  0  0  0  0  0  0  0  0
    1.7860   -0.4596    1.7183 O   0  0  0  0  0  0  0  0  0  0  0  0
   -0.2294    0.0669    2.5672 N   0  0  0  0  0  0  0  0  0  0  0  0
   -1.2130    0.1938    2.3518 H   0  0  0  0  0  0  0  0  0  0  0  0
    0.1836    0.1337    3.9673 C   0  0  0  0  0  0  0  0  0  0  0  0
    1.0451    0.7976    4.0666 H   0  0  0  0  0  0  0  0  0  0  0  0
   -0.6344    0.5115    4.5820 H   0  0  0  0  0  0  0  0  0  0  0  0
    0.4676   -0.8609    4.3157 H   0  0  0  0  0  0  0  0  0  0  0  0
  5  6  2  0  0  0  0
  5  7  1  0  0  0  0
  2  3  1  0  0  0  0
  2  4  1  0  0  0  0
  2  5  1  0  0  0  0
  1  2  1  0  0  0  0
 18 19  2  0  0  0  0
 18 20  1  0  0  0  0
 16 17  1  0  0  0  0
 14 15  2  0  0  0  0
 14 16  1  0  0  0  0
 11 12  1  0  0  0  0
 11 13  1  0  0  0  0
 11 14  1  0  0  0  0
  9 10  1  0  0  0  0
  9 11  1  0  0  0  0
  9 18  1  0  0  0  0
  7  8  1  0  0  0  0
  7  9  1  0  0  0  0
 22 23  1  0  0  0  0
 22 24  1  0  0  0  0
 22 25  1  0  0  0  0
 20 21  1  0  0  0  0
 20 22  1  0  0  0  0
M  END
$$$$
default_name
  -OEChem-02102213163D

 25 24  0     1  0  0  0  0  0999 V2000
   -2.7826   -3.8464    0.7821 H   0  0  0  0  0  0  0  0  0  0  0  0
   -2.8156   -2.8034    0.4711 C   0  0  0  0  0  0  0  0  0  0  0  0
   -3.4336   -2.2354    1.1641 H   0  0  0  0  0  0  0  0  0  0  0  0
   -3.2256   -2.7344   -0.5349 H   0  0  0  0  0  0  0  0  0  0  0  0
   -1.4126   -2.2444    0.4801 C   0  0  0  0  0  0  0  0  0  0  0  0
   -0.4686   -2.9534    0.8001 O   0  0  0  0  0  0  0  0  0  0  0  0
   -1.2736   -0.9704    0.1241 N   0  0  0  0  0  0  0  0  0  0  0  0
   -2.0996   -0.4354   -0.1019 H   0  0  0  0  0  0  0  0  0  0  0  0
   -0.0016   -0.2394    0.1271 C   0  0  1  0  0  0  0  0  0  0  0  0
    0.6995   -0.7619   -0.5275 H   0  0  0  0  0  0  0  0  0  0  0  0
   -0.2283    1.1832   -0.4215 C   0  0  0  0  0  0  0  0  0  0  0  0
    0.7340    1.6374   -0.6610 H   0  0  0  0  0  0  0  0  0  0  0  0
   -0.8133    1.1335   -1.3406 H   0  0  0  0  0  0  0  0  0  0  0  0
   -0.9261    2.1113    0.5682 C   0  0  0  0  0  0  0  0  0  0  0  0
   -2.1159    2.0831    0.8542 O   0  0  0  0  0  0  0  0  0  0  0  0
   -0.1252    3.0270    1.1444 O   0  0  0  0  0  0  0  0  0  0  0  0
   -0.6821    3.5204    1.7474 H   0  0  0  0  0  0  0  0  0  0  0  0
    0.5920   -0.2154    1.5497 C   0  0  0  0  0  0  0  0  0  0  0  0
    1.7860   -0.4596    1.7183 O   0  0  0  0  0  0  0  0  0  0  0  0
   -0.2294    0.0669    2.5672 N   0  0  0  0  0  0  0  0  0  0  0  0
   -1.2130    0.1938    2.3518 H   0  0  0  0  0  0  0  0  0  0  0  0
    0.1836    0.1337    3.9673 C   0  0  0  0  0  0  0  0  0  0  0  0
    1.0451    0.7976    4.0666 H   0  0  0  0  0  0  0  0  0  0  0  0
   -0.6344    0.5115    4.5820 H   0  0  0  0  0  0  0  0  0  0  0  0
    0.4676   -0.8609    4.3157 H   0  0  0  0  0  0  0  0  0  0  0  0
  5  6  2  0  0  0  0
  5  7  1  0  0  0  0
  2  3  1  0  0  0  0
  2  4  1  0  0  0  0
  2  5  1  0  0  0  0
  1  2  1  0  0  0  0
 18 19  2  0  0  0  0
 18 20  1  0  0  0  0
 16 17  1  0  0  0  0
 14 15  2  0  0  0  0
 14 16  1  0  0  0  0
 11 12  1  0  0  0  0
 11 13  1  0  0  0  0
 11 14  1  0  0  0  0
  9 10  1  0  0  0  0
  9 11  1  0  0  0  0
  9 18  1  0  0  0  0
  7  8  1  0  0  0  0
  7  9  1  0  0  0  0
 22 23  1  0  0  0  0
 22 24  1  0  0  0  0
 22 25  1  0  0  0  0
 20 21  1  0  0  0  0
 20 22  1  0  0  0  0
M  END
$$$$
default_name
  -OEChem-02102213163D

 25 24  0     1  0  0  0  0  0999 V2000
   -2.7826   -3.8464    0.7821 H   0  0  0  0  0  0  0  0  0  0  0  0
   -2.8156   -2.8034    0.4711 C   0  0  0  0  0  0  0  0  0  0  0  0
   -3.4336   -2.2354    1.1641 H   0  0  0  0  0  0  0  0  0  0  0  0
   -3.2256   -2.7344   -0.5349 H   0  0  0  0  0  0  0  0  0  0  0  0
   -1.4126   -2.2444    0.4801 C   0  0  0  0  0  0  0  0  0  0  0  0
   -0.4686   -2.9534    0.8001 O   0  0  0  0  0  0  0  0  0  0  0  0
   -1.2736   -0.9704    0.1241 N   0  0  0  0  0  0  0  0  0  0  0  0
   -2.0996   -0.4354   -0.1019 H   0  0  0  0  0  0  0  0  0  0  0  0
   -0.0016   -0.2394    0.1271 C   0  0  1  0  0  0  0  0  0  0  0  0
    0.6995   -0.7619   -0.5275 H   0  0  0  0  0  0  0  0  0  0  0  0
   -0.2283    1.1832   -0.4215 C   0  0  0  0  0  0  0  0  0  0  0  0
    0.7340    1.6374   -0.6610 H   0  0  0  0  0  0  0  0  0  0  0  0
   -0.8133    1.1335   -1.3406 H   0  0  0  0  0  0  0  0  0  0  0  0
   -0.9261    2.1113    0.5682 C   0  0  0  0  0  0  0  0  0  0  0  0
   -2.0367    1.9329    1.0509 O   0  0  0  0  0  0  0  0  0  0  0  0
   -0.2243    3.2102    0.9028 O   0  0  0  0  0  0  0  0  0  0  0  0
   -0.7648    3.6843    1.5354 H   0  0  0  0  0  0  0  0  0  0  0  0
    0.5920   -0.2154    1.5497 C   0  0  0  0  0  0  0  0  0  0  0  0
    1.7860   -0.4596    1.7183 O   0  0  0  0  0  0  0  0  0  0  0  0
   -0.2294    0.0669    2.5672 N   0  0  0  0  0  0  0  0  0  0  0  0
   -1.2130    0.1938    2.3518 H   0  0  0  0  0  0  0  0  0  0  0  0
    0.1836    0.1337    3.9673 C   0  0  0  0  0  0  0  0  0  0  0  0
    1.0451    0.7976    4.0666 H   0  0  0  0  0  0  0  0  0  0  0  0
   -0.6344    0.5115    4.5820 H   0  0  0  0  0  0  0  0  0  0  0  0
    0.4676   -0.8609    4.3157 H   0  0  0  0  0  0  0  0  0  0  0  0
  5  6  2  0  0  0  0
  5  7  1  0  0  0  0
  2  3  1  0  0  0  0
  2  4  1  0  0  0  0
  2  5  1  0  0  0  0
  1  2  1  0  0  0  0
 18 19  2  0  0  0  0
 18 20  1  0  0  0  0
 16 17  1  0  0  0  0
 14 15  2  0  0  0  0
 14 16  1  0  0  0  0
 11 12  1  0  0  0  0
 11 13  1  0  0  0  0
 11 14  1  0  0  0  0
  9 10  1  0  0  0  0
  9 11  1  0  0  0  0
  9 18  1  0  0  0  0
  7  8  1  0  0  0  0
  7  9  1  0  0  0  0
 22 23  1  0  0  0  0
 22 24  1  0  0  0  0
 22 25  1  0  0  0  0
 20 21  1  0  0  0  0
 20 22  1  0  0  0  0
M  END
$$$$
default_name
  -OEChem-02102213163D

 25 24  0     1  0  0  0  0  0999 V2000
   -2.7826   -3.8464    0.7821 H   0  0  0  0  0  0  0  0  0  0  0  0
   -2.8156   -2.8034    0.4711 C   0  0  0  0  0  0  0  0  0  0  0  0
   -3.4336   -2.2354    1.1641 H   0  0  0  0  0  0  0  0  0  0  0  0
   -3.2256   -2.7344   -0.5349 H   0  0  0  0  0  0  0  0  0  0  0  0
   -1.4126   -2.2444    0.4801 C   0  0  0  0  0  0  0  0  0  0  0  0
   -0.4686   -2.9534    0.8001 O   0  0  0  0  0  0  0  0  0  0  0  0
   -1.2736   -0.9704    0.1241 N   0  0  0  0  0  0  0  0  0  0  0  0
   -2.0996   -0.4354   -0.1019 H   0  0  0  0  0  0  0  0  0  0  0  0
   -0.0016   -0.2394    0.1271 C   0  0  1  0  0  0  0  0  0  0  0  0
    0.6995   -0.7619   -0.5275 H   0  0  0  0  0  0  0  0  0  0  0  0
   -0.2283    1.1832   -0.4215 C   0  0  0  0  0  0  0  0  0  0  0  0
    0.7340    1.6374   -0.6610 H   0  0  0  0  0  0  0  0  0  0  0  0
   -0.8133    1.1335   -1.3406 H   0  0  0  0  0  0  0  0  0  0  0  0
   -0.9261    2.1113    0.5682 C   0  0  0  0  0  0  0  0  0  0  0  0
   -1.9040    1.8244    1.2461 O   0  0  0  0  0  0  0  0  0  0  0  0
   -0.3888    3.3418    0.6633 O   0  0  0  0  0  0  0  0  0  0  0  0
   -0.9057    3.8036    1.3242 H   0  0  0  0  0  0  0  0  0  0  0  0
    0.5920   -0.2154    1.5497 C   0  0  0  0  0  0  0  0  0  0  0  0
    1.7860   -0.4596    1.7183 O   0  0  0  0  0  0  0  0  0  0  0  0
   -0.2294    0.0669    2.5672 N   0  0  0  0  0  0  0  0  0  0  0  0
   -1.2130    0.1938    2.3518 H   0  0  0  0  0  0  0  0  0  0  0  0
    0.1836    0.1337    3.9673 C   0  0  0  0  0  0  0  0  0  0  0  0
    1.0451    0.7976    4.0666 H   0  0  0  0  0  0  0  0  0  0  0  0
   -0.6344    0.5115    4.5820 H   0  0  0  0  0  0  0  0  0  0  0  0
    0.4676   -0.8609    4.3157 H   0  0  0  0  0  0  0  0  0  0  0  0
  5  6  2  0  0  0  0
  5  7  1  0  0  0  0
  2  3  1  0  0  0  0
  2  4  1  0  0  0  0
  2  5  1  0  0  0  0
  1  2  1  0  0  0  0
 18 19  2  0  0  0  0
 18 20  1  0  0  0  0
 16 17  1  0  0  0  0
 14 15  2  0  0  0  0
 14 16  1  0  0  0  0
 11 12  1  0  0  0  0
 11 13  1  0  0  0  0
 11 14  1  0  0  0  0
  9 10  1  0  0  0  0
  9 11  1  0  0  0  0
  9 18  1  0  0  0  0
  7  8  1  0  0  0  0
  7  9  1  0  0  0  0
 22 23  1  0  0  0  0
 22 24  1  0  0  0  0
 22 25  1  0  0  0  0
 20 21  1  0  0  0  0
 20 22  1  0  0  0  0
M  END
$$$$
default_name
  -OEChem-02102213163D

 25 24  0     1  0  0  0  0  0999 V2000
   -2.7826   -3.8464    0.7821 H   0  0  0  0  0  0  0  0  0  0  0  0
   -2.8156   -2.8034    0.4711 C   0  0  0  0  0  0  0  0  0  0  0  0
   -3.4336   -2.2354    1.1641 H   0  0  0  0  0  0  0  0  0  0  0  0
   -3.2256   -2.7344   -0.5349 H   0  0  0  0  0  0  0  0  0  0  0  0
   -1.4126   -2.2444    0.4801 C   0  0  0  0  0  0  0  0  0  0  0  0
   -0.4686   -2.9534    0.8001 O   0  0  0  0  0  0  0  0  0  0  0  0
   -1.2736   -0.9704    0.1241 N   0  0  0  0  0  0  0  0  0  0  0  0
   -2.0996   -0.4354   -0.1019 H   0  0  0  0  0  0  0  0  0  0  0  0
   -0.0016   -0.2394    0.1271 C   0  0  1  0  0  0  0  0  0  0  0  0
    0.6995   -0.7619   -0.5275 H   0  0  0  0  0  0  0  0  0  0  0  0
   -0.2283    1.1832   -0.4215 C   0  0  0  0  0  0  0  0  0  0  0  0
    0.7340    1.6374   -0.6610 H   0  0  0  0  0  0  0  0  0  0  0  0
   -0.8133    1.1335   -1.3406 H   0  0  0  0  0  0  0  0  0  0  0  0
   -0.9261    2.1113    0.5682 C   0  0  0  0  0  0  0  0  0  0  0  0
   -1.7269    1.7651    1.4267 O   0  0  0  0  0  0  0  0  0  0  0  0
   -0.6075    3.4131    0.4423 O   0  0  0  0  0  0  0  0  0  0  0  0
   -1.0950    3.8701    1.1283 H   0  0  0  0  0  0  0  0  0  0  0  0
    0.5920   -0.2154    1.5497 C   0  0  0  0  0  0  0  0  0  0  0  0
    1.7860   -0.4596    1.7183 O   0  0  0  0  0  0  0  0  0  0  0  0
   -0.2294    0.0669    2.5672 N   0  0  0  0  0  0  0  0  0  0  0  0
   -1.2130    0.1938    2.3518 H   0  0  0  0  0  0  0  0  0  0  0  0
    0.1836    0.1337    3.9673 C   0  0  0  0  0  0  0  0  0  0  0  0
    1.0451    0.7976    4.0666 H   0  0  0  0  0  0  0  0  0  0  0  0
   -0.6344    0.5115    4.5820 H   0  0  0  0  0  0  0  0  0  0  0  0
    0.4676   -0.8609    4.3157 H   0  0  0  0  0  0  0  0  0  0  0  0
  5  6  2  0  0  0  0
  5  7  1  0  0  0  0
  2  3  1  0  0  0  0
  2  4  1  0  0  0  0
  2  5  1  0  0  0  0
  1  2  1  0  0  0  0
 18 19  2  0  0  0  0
 18 20  1  0  0  0  0
 16 17  1  0  0  0  0
 14 15  2  0  0  0  0
 14 16  1  0  0  0  0
 11 12  1  0  0  0  0
 11 13  1  0  0  0  0
 11 14  1  0  0  0  0
  9 10  1  0  0  0  0
  9 11  1  0  0  0  0
  9 18  1  0  0  0  0
  7  8  1  0  0  0  0
  7  9  1  0  0  0  0
 22 23  1  0  0  0  0
 22 24  1  0  0  0  0
 22 25  1  0  0  0  0
 20 21  1  0  0  0  0
 20 22  1  0  0  0  0
M  END
$$$$
default_name
  -OEChem-02102213163D

 25 24  0     1  0  0  0  0  0999 V2000
   -2.7826   -3.8464    0.7821 H   0  0  0  0  0  0  0  0  0  0  0  0
   -2.8156   -2.8034    0.4711 C   0  0  0  0  0  0  0  0  0  0  0  0
   -3.4336   -2.2354    1.1641 H   0  0  0  0  0  0  0  0  0  0  0  0
   -3.2256   -2.7344   -0.5349 H   0  0  0  0  0  0  0  0  0  0  0  0
   -1.4126   -2.2444    0.4801 C   0  0  0  0  0  0  0  0  0  0  0  0
   -0.4686   -2.9534    0.8001 O   0  0  0  0  0  0  0  0  0  0  0  0
   -1.2736   -0.9704    0.1241 N   0  0  0  0  0  0  0  0  0  0  0  0
   -2.0996   -0.4354   -0.1019 H   0  0  0  0  0  0  0  0  0  0  0  0
   -0.0016   -0.2394    0.1271 C   0  0  1  0  0  0  0  0  0  0  0  0
    0.6995   -0.7619   -0.5275 H   0  0  0  0  0  0  0  0  0  0  0  0
   -0.2283    1.1832   -0.4215 C   0  0  0  0  0  0  0  0  0  0  0  0
    0.7340    1.6374   -0.6610 H   0  0  0  0  0  0  0  0  0  0  0  0
   -0.8133    1.1335   -1.3406 H   0  0  0  0  0  0  0  0  0  0  0  0
   -0.9261    2.1113    0.5682 C   0  0  0  0  0  0  0  0  0  0  0  0
   -1.5174    1.7588    1.5803 O   0  0  0  0  0  0  0  0  0  0  0  0
   -0.8655    3.4190    0.2548 O   0  0  0  0  0  0  0  0  0  0  0  0
   -1.3199    3.8795    0.9610 H   0  0  0  0  0  0  0  0  0  0  0  0
    0.5920   -0.2154    1.5497 C   0  0  0  0  0  0  0  0  0  0  0  0
    1.7860   -0.4596    1.7183 O   0  0  0  0  0  0  0  0  0  0  0  0
   -0.2294    0.0669    2.5672 N   0  0  0  0  0  0  0  0  0  0  0  0
   -1.2130    0.1938    2.3518 H   0  0  0  0  0  0  0  0  0  0  0  0
    0.1836    0.1337    3.9673 C   0  0  0  0  0  0  0  0  0  0  0  0
    1.0451    0.7976    4.0666 H   0  0  0  0  0  0  0  0  0  0  0  0
   -0.6344    0.5115    4.5820 H   0  0  0  0  0  0  0  0  0  0  0  0
    0.4676   -0.8609    4.3157 H   0  0  0  0  0  0  0  0  0  0  0  0
  5  6  2  0  0  0  0
  5  7  1  0  0  0  0
  2  3  1  0  0  0  0
  2  4  1  0  0  0  0
  2  5  1  0  0  0  0
  1  2  1  0  0  0  0
 18 19  2  0  0  0  0
 18 20  1  0  0  0  0
 16 17  1  0  0  0  0
 14 15  2  0  0  0  0
 14 16  1  0  0  0  0
 11 12  1  0  0  0  0
 11 13  1  0  0  0  0
 11 14  1  0  0  0  0
  9 10  1  0  0  0  0
  9 11  1  0  0  0  0
  9 18  1  0  0  0  0
  7  8  1  0  0  0  0
  7  9  1  0  0  0  0
 22 23  1  0  0  0  0
 22 24  1  0  0  0  0
 22 25  1  0  0  0  0
 20 21  1  0  0  0  0
 20 22  1  0  0  0  0
M  END
$$$$
default_name
  -OEChem-02102213163D

 25 24  0     1  0  0  0  0  0999 V2000
   -2.7826   -3.8464    0.7821 H   0  0  0  0  0  0  0  0  0  0  0  0
   -2.8156   -2.8034    0.4711 C   0  0  0  0  0  0  0  0  0  0  0  0
   -3.4336   -2.2354    1.1641 H   0  0  0  0  0  0  0  0  0  0  0  0
   -3.2256   -2.7344   -0.5349 H   0  0  0  0  0  0  0  0  0  0  0  0
   -1.4126   -2.2444    0.4801 C   0  0  0  0  0  0  0  0  0  0  0  0
   -0.4686   -2.9534    0.8001 O   0  0  0  0  0  0  0  0  0  0  0  0
   -1.2736   -0.9704    0.1241 N   0  0  0  0  0  0  0  0  0  0  0  0
   -2.0996   -0.4354   -0.1019 H   0  0  0  0  0  0  0  0  0  0  0  0
   -0.0016   -0.2394    0.1271 C   0  0  1  0  0  0  0  0  0  0  0  0
    0.6995   -0.7619   -0.5275 H   0  0  0  0  0  0  0  0  0  0  0  0
   -0.2283    1.1832   -0.4215 C   0  0  0  0  0  0  0  0  0  0  0  0
    0.7340    1.6374   -0.6610 H   0  0  0  0  0  0  0  0  0  0  0  0
   -0.8133    1.1335   -1.3406 H   0  0  0  0  0  0  0  0  0  0  0  0
   -0.9261    2.1113    0.5682 C   0  0  0  0  0  0  0  0  0  0  0  0
   -1.2898    1.8061    1.6964 O   0  0  0  0  0  0  0  0  0  0  0  0
   -1.1453    3.3592    0.1136 O   0  0  0  0  0  0  0  0  0  0  0  0
   -1.5650    3.8309    0.8337 H   0  0  0  0  0  0  0  0  0  0  0  0
    0.5920   -0.2154    1.5497 C   0  0  0  0  0  0  0  0  0  0  0  0
    1.7860   -0.4596    1.7183 O   0  0  0  0  0  0  0  0  0  0  0  0
   -0.2294    0.0669    2.5672 N   0  0  0  0  0  0  0  0  0  0  0  0
   -1.2130    0.1938    2.3518 H   0  0  0  0  0  0  0  0  0  0  0  0
    0.1836    0.1337    3.9673 C   0  0  0  0  0  0  0  0  0  0  0  0
    1.0451    0.7976    4.0666 H   0  0  0  0  0  0  0  0  0  0  0  0
   -0.6344    0.5115    4.5820 H   0  0  0  0  0  0  0  0  0  0  0  0
    0.4676   -0.8609    4.3157 H   0  0  0  0  0  0  0  0  0  0  0  0
  5  6  2  0  0  0  0
  5  7  1  0  0  0  0
  2  3  1  0  0  0  0
  2  4  1  0  0  0  0
  2  5  1  0  0  0  0
  1  2  1  0  0  0  0
 18 19  2  0  0  0  0
 18 20  1  0  0  0  0
 16 17  1  0  0  0  0
 14 15  2  0  0  0  0
 14 16  1  0  0  0  0
 11 12  1  0  0  0  0
 11 13  1  0  0  0  0
 11 14  1  0  0  0  0
  9 10  1  0  0  0  0
  9 11  1  0  0  0  0
  9 18  1  0  0  0  0
  7  8  1  0  0  0  0
  7  9  1  0  0  0  0
 22 23  1  0  0  0  0
 22 24  1  0  0  0  0
 22 25  1  0  0  0  0
 20 21  1  0  0  0  0
 20 22  1  0  0  0  0
M  END
$$$$
default_name
  -OEChem-02102213163D

 25 24  0     1  0  0  0  0  0999 V2000
   -2.7826   -3.8464    0.7821 H   0  0  0  0  0  0  0  0  0  0  0  0
   -2.8156   -2.8034    0.4711 C   0  0  0  0  0  0  0  0  0  0  0  0
   -3.4336   -2.2354    1.1641 H   0  0  0  0  0  0  0  0  0  0  0  0
   -3.2256   -2.7344   -0.5349 H   0  0  0  0  0  0  0  0  0  0  0  0
   -1.4126   -2.2444    0.4801 C   0  0  0  0  0  0  0  0  0  0  0  0
   -0.4686   -2.9534    0.8001 O   0  0  0  0  0  0  0  0  0  0  0  0
   -1.2736   -0.9704    0.1241 N   0  0  0  0  0  0  0  0  0  0  0  0
   -2.0996   -0.4354   -0.1019 H   0  0  0  0  0  0  0  0  0  0  0  0
   -0.0016   -0.2394    0.1271 C   0  0  1  0  0  0  0  0  0  0  0  0
    0.6995   -0.7619   -0.5275 H   0  0  0  0  0  0  0  0  0  0  0  0
   -0.2283    1.1832   -0.4215 C   0  0  0  0  0  0  0  0  0  0  0  0
    0.7340    1.6374   -0.6610 H   0  0  0  0  0  0  0  0  0  0  0  0
   -0.8133    1.1335   -1.3406 H   0  0  0  0  0  0  0  0  0  0  0  0
   -0.9261    2.1113    0.5682 C   0  0  0  0  0  0  0  0  0  0  0  0
   -1.0596    1.9038    1.7671 O   0  0  0  0  0  0  0  0  0  0  0  0
   -1.4277    3.2378    0.0284 O   0  0  0  0  0  0  0  0  0  0  0  0
   -1.8136    3.7278    0.7551 H   0  0  0  0  0  0  0  0  0  0  0  0
    0.5920   -0.2154    1.5497 C   0  0  0  0  0  0  0  0  0  0  0  0
    1.7860   -0.4596    1.7183 O   0  0  0  0  0  0  0  0  0  0  0  0
   -0.2294    0.0669    2.5672 N   0  0  0  0  0  0  0  0  0  0  0  0
   -1.2130    0.1938    2.3518 H   0  0  0  0  0  0  0  0  0  0  0  0
    0.1836    0.1337    3.9673 C   0  0  0  0  0  0  0  0  0  0  0  0
    1.0451    0.7976    4.0666 H   0  0  0  0  0  0  0  0  0  0  0  0
   -0.6344    0.5115    4.5820 H   0  0  0  0  0  0  0  0  0  0  0  0
    0.4676   -0.8609    4.3157 H   0  0  0  0  0  0  0  0  0  0  0  0
  5  6  2  0  0  0  0
  5  7  1  0  0  0  0
  2  3  1  0  0  0  0
  2  4  1  0  0  0  0
  2  5  1  0  0  0  0
  1  2  1  0  0  0  0
 18 19  2  0  0  0  0
 18 20  1  0  0  0  0
 16 17  1  0  0  0  0
 14 15  2  0  0  0  0
 14 16  1  0  0  0  0
 11 12  1  0  0  0  0
 11 13  1  0  0  0  0
 11 14  1  0  0  0  0
  9 10  1  0  0  0  0
  9 11  1  0  0  0  0
  9 18  1  0  0  0  0
  7  8  1  0  0  0  0
  7  9  1  0  0  0  0
 22 23  1  0  0  0  0
 22 24  1  0  0  0  0
 22 25  1  0  0  0  0
 20 21  1  0  0  0  0
 20 22  1  0  0  0  0
M  END
$$$$
default_name
  -OEChem-02102213163D

 25 24  0     1  0  0  0  0  0999 V2000
   -2.7826   -3.8464    0.7821 H   0  0  0  0  0  0  0  0  0  0  0  0
   -2.8156   -2.8034    0.4711 C   0  0  0  0  0  0  0  0  0  0  0  0
   -3.4336   -2.2354    1.1641 H   0  0  0  0  0  0  0  0  0  0  0  0
   -3.2256   -2.7344   -0.5349 H   0  0  0  0  0  0  0  0  0  0  0  0
   -1.4126   -2.2444    0.4801 C   0  0  0  0  0  0  0  0  0  0  0  0
   -0.4686   -2.9534    0.8001 O   0  0  0  0  0  0  0  0  0  0  0  0
   -1.2736   -0.9704    0.1241 N   0  0  0  0  0  0  0  0  0  0  0  0
   -2.0996   -0.4354   -0.1019 H   0  0  0  0  0  0  0  0  0  0  0  0
   -0.0016   -0.2394    0.1271 C   0  0  1  0  0  0  0  0  0  0  0  0
    0.6995   -0.7619   -0.5275 H   0  0  0  0  0  0  0  0  0  0  0  0
   -0.2283    1.1832   -0.4215 C   0  0  0  0  0  0  0  0  0  0  0  0
    0.7340    1.6374   -0.6610 H   0  0  0  0  0  0  0  0  0  0  0  0
   -0.8133    1.1335   -1.3406 H   0  0  0  0  0  0  0  0  0  0  0  0
   -0.9261    2.1113    0.5682 C   0  0  0  0  0  0  0  0  0  0  0  0
   -0.8426    2.0451    1.7876 O   0  0  0  0  0  0  0  0  0  0  0  0
   -1.6935    3.0630    0.0049 O   0  0  0  0  0  0  0  0  0  0  0  0
   -2.0489    3.5771    0.7305 H   0  0  0  0  0  0  0  0  0  0  0  0
    0.5920   -0.2154    1.5497 C   0  0  0  0  0  0  0  0  0  0  0  0
    1.7860   -0.4596    1.7183 O   0  0  0  0  0  0  0  0  0  0  0  0
   -0.2294    0.0669    2.5672 N   0  0  0  0  0  0  0  0  0  0  0  0
   -1.2130    0.1938    2.3518 H   0  0  0  0  0  0  0  0  0  0  0  0
    0.1836    0.1337    3.9673 C   0  0  0  0  0  0  0  0  0  0  0  0
    1.0451    0.7976    4.0666 H   0  0  0  0  0  0  0  0  0  0  0  0
   -0.6344    0.5115    4.5820 H   0  0  0  0  0  0  0  0  0  0  0  0
    0.4676   -0.8609    4.3157 H   0  0  0  0  0  0  0  0  0  0  0  0
  5  6  2  0  0  0  0
  5  7  1  0  0  0  0
  2  3  1  0  0  0  0
  2  4  1  0  0  0  0
  2  5  1  0  0  0  0
  1  2  1  0  0  0  0
 18 19  2  0  0  0  0
 18 20  1  0  0  0  0
 16 17  1  0  0  0  0
 14 15  2  0  0  0  0
 14 16  1  0  0  0  0
 11 12  1  0  0  0  0
 11 13  1  0  0  0  0
 11 14  1  0  0  0  0
  9 10  1  0  0  0  0
  9 11  1  0  0  0  0
  9 18  1  0  0  0  0
  7  8  1  0  0  0  0
  7  9  1  0  0  0  0
 22 23  1  0  0  0  0
 22 24  1  0  0  0  0
 22 25  1  0  0  0  0
 20 21  1  0  0  0  0
 20 22  1  0  0  0  0
M  END
$$$$
default_name
  -OEChem-02102213163D

 25 24  0     1  0  0  0  0  0999 V2000
   -2.7826   -3.8464    0.7821 H   0  0  0  0  0  0  0  0  0  0  0  0
   -2.8156   -2.8034    0.4711 C   0  0  0  0  0  0  0  0  0  0  0  0
   -3.4336   -2.2354    1.1641 H   0  0  0  0  0  0  0  0  0  0  0  0
   -3.2256   -2.7344   -0.5349 H   0  0  0  0  0  0  0  0  0  0  0  0
   -1.4126   -2.2444    0.4801 C   0  0  0  0  0  0  0  0  0  0  0  0
   -0.4686   -2.9534    0.8001 O   0  0  0  0  0  0  0  0  0  0  0  0
   -1.2736   -0.9704    0.1241 N   0  0  0  0  0  0  0  0  0  0  0  0
   -2.0996   -0.4354   -0.1019 H   0  0  0  0  0  0  0  0  0  0  0  0
   -0.0016   -0.2394    0.1271 C   0  0  1  0  0  0  0  0  0  0  0  0
    0.6995   -0.7619   -0.5275 H   0  0  0  0  0  0  0  0  0  0  0  0
   -0.2283    1.1832   -0.4215 C   0  0  0  0  0  0  0  0  0  0  0  0
    0.7340    1.6374   -0.6610 H   0  0  0  0  0  0  0  0  0  0  0  0
   -0.8133    1.1335   -1.3406 H   0  0  0  0  0  0  0  0  0  0  0  0
   -0.9261    2.1113    0.5682 C   0  0  0  0  0  0  0  0  0  0  0  0
   -0.6534    2.2205    1.7565 O   0  0  0  0  0  0  0  0  0  0  0  0
   -1.9246    2.8468    0.0447 O   0  0  0  0  0  0  0  0  0  0  0  0
   -2.2547    3.3892    0.7617 H   0  0  0  0  0  0  0  0  0  0  0  0
    0.5920   -0.2154    1.5497 C   0  0  0  0  0  0  0  0  0  0  0  0
    1.7860   -0.4596    1.7183 O   0  0  0  0  0  0  0  0  0  0  0  0
   -0.2294    0.0669    2.5672 N   0  0  0  0  0  0  0  0  0  0  0  0
   -1.2130    0.1938    2.3518 H   0  0  0  0  0  0  0  0  0  0  0  0
    0.1836    0.1337    3.9673 C   0  0  0  0  0  0  0  0  0  0  0  0
    1.0451    0.7976    4.0666 H   0  0  0  0  0  0  0  0  0  0  0  0
   -0.6344    0.5115    4.5820 H   0  0  0  0  0  0  0  0  0  0  0  0
    0.4676   -0.8609    4.3157 H   0  0  0  0  0  0  0  0  0  0  0  0
  5  6  2  0  0  0  0
  5  7  1  0  0  0  0
  2  3  1  0  0  0  0
  2  4  1  0  0  0  0
  2  5  1  0  0  0  0
  1  2  1  0  0  0  0
 18 19  2  0  0  0  0
 18 20  1  0  0  0  0
 16 17  1  0  0  0  0
 14 15  2  0  0  0  0
 14 16  1  0  0  0  0
 11 12  1  0  0  0  0
 11 13  1  0  0  0  0
 11 14  1  0  0  0  0
  9 10  1  0  0  0  0
  9 11  1  0  0  0  0
  9 18  1  0  0  0  0
  7  8  1  0  0  0  0
  7  9  1  0  0  0  0
 22 23  1  0  0  0  0
 22 24  1  0  0  0  0
 22 25  1  0  0  0  0
 20 21  1  0  0  0  0
 20 22  1  0  0  0  0
M  END
$$$$
default_name
  -OEChem-02102213163D

 25 24  0     1  0  0  0  0  0999 V2000
   -2.7826   -3.8464    0.7821 H   0  0  0  0  0  0  0  0  0  0  0  0
   -2.8156   -2.8034    0.4711 C   0  0  0  0  0  0  0  0  0  0  0  0
   -3.4336   -2.2354    1.1641 H   0  0  0  0  0  0  0  0  0  0  0  0
   -3.2256   -2.7344   -0.5349 H   0  0  0  0  0  0  0  0  0  0  0  0
   -1.4126   -2.2444    0.4801 C   0  0  0  0  0  0  0  0  0  0  0  0
   -0.4686   -2.9534    0.8001 O   0  0  0  0  0  0  0  0  0  0  0  0
   -1.2736   -0.9704    0.1241 N   0  0  0  0  0  0  0  0  0  0  0  0
   -2.0996   -0.4354   -0.1019 H   0  0  0  0  0  0  0  0  0  0  0  0
   -0.0016   -0.2394    0.1271 C   0  0  1  0  0  0  0  0  0  0  0  0
    0.6995   -0.7619   -0.5275 H   0  0  0  0  0  0  0  0  0  0  0  0
   -0.2283    1.1832   -0.4215 C   0  0  0  0  0  0  0  0  0  0  0  0
    0.7340    1.6374   -0.6610 H   0  0  0  0  0  0  0  0  0  0  0  0
   -0.8133    1.1335   -1.3406 H   0  0  0  0  0  0  0  0  0  0  0  0
   -0.9261    2.1113    0.5682 C   0  0  0  0  0  0  0  0  0  0  0  0
   -0.5051    2.4180    1.6759 O   0  0  0  0  0  0  0  0  0  0  0  0
   -2.1053    2.6038    0.1452 O   0  0  0  0  0  0  0  0  0  0  0  0
   -2.4170    3.1768    0.8464 H   0  0  0  0  0  0  0  0  0  0  0  0
    0.5920   -0.2154    1.5497 C   0  0  0  0  0  0  0  0  0  0  0  0
    1.7860   -0.4596    1.7183 O   0  0  0  0  0  0  0  0  0  0  0  0
   -0.2294    0.0669    2.5672 N   0  0  0  0  0  0  0  0  0  0  0  0
   -1.2130    0.1938    2.3518 H   0  0  0  0  0  0  0  0  0  0  0  0
    0.1836    0.1337    3.9673 C   0  0  0  0  0  0  0  0  0  0  0  0
    1.0451    0.7976    4.0666 H   0  0  0  0  0  0  0  0  0  0  0  0
   -0.6344    0.5115    4.5820 H   0  0  0  0  0  0  0  0  0  0  0  0
    0.4676   -0.8609    4.3157 H   0  0  0  0  0  0  0  0  0  0  0  0
  5  6  2  0  0  0  0
  5  7  1  0  0  0  0
  2  3  1  0  0  0  0
  2  4  1  0  0  0  0
  2  5  1  0  0  0  0
  1  2  1  0  0  0  0
 18 19  2  0  0  0  0
 18 20  1  0  0  0  0
 16 17  1  0  0  0  0
 14 15  2  0  0  0  0
 14 16  1  0  0  0  0
 11 12  1  0  0  0  0
 11 13  1  0  0  0  0
 11 14  1  0  0  0  0
  9 10  1  0  0  0  0
  9 11  1  0  0  0  0
  9 18  1  0  0  0  0
  7  8  1  0  0  0  0
  7  9  1  0  0  0  0
 22 23  1  0  0  0  0
 22 24  1  0  0  0  0
 22 25  1  0  0  0  0
 20 21  1  0  0  0  0
 20 22  1  0  0  0  0
M  END
$$$$
default_name
  -OEChem-02102213163D

 25 24  0     1  0  0  0  0  0999 V2000
   -2.7826   -3.8464    0.7821 H   0  0  0  0  0  0  0  0  0  0  0  0
   -2.8156   -2.8034    0.4711 C   0  0  0  0  0  0  0  0  0  0  0  0
   -3.4336   -2.2354    1.1641 H   0  0  0  0  0  0  0  0  0  0  0  0
   -3.2256   -2.7344   -0.5349 H   0  0  0  0  0  0  0  0  0  0  0  0
   -1.4126   -2.2444    0.4801 C   0  0  0  0  0  0  0  0  0  0  0  0
   -0.4686   -2.9534    0.8001 O   0  0  0  0  0  0  0  0  0  0  0  0
   -1.2736   -0.9704    0.1241 N   0  0  0  0  0  0  0  0  0  0  0  0
   -2.0996   -0.4354   -0.1019 H   0  0  0  0  0  0  0  0  0  0  0  0
   -0.0016   -0.2394    0.1271 C   0  0  1  0  0  0  0  0  0  0  0  0
    0.6995   -0.7619   -0.5275 H   0  0  0  0  0  0  0  0  0  0  0  0
   -0.2283    1.1832   -0.4215 C   0  0  0  0  0  0  0  0  0  0  0  0
    0.7340    1.6374   -0.6610 H   0  0  0  0  0  0  0  0  0  0  0  0
   -0.8133    1.1335   -1.3406 H   0  0  0  0  0  0  0  0  0  0  0  0
   -0.9261    2.1113    0.5682 C   0  0  0  0  0  0  0  0  0  0  0  0
   -0.4076    2.6241    1.5513 O   0  0  0  0  0  0  0  0  0  0  0  0
   -2.2232    2.3507    0.2995 O   0  0  0  0  0  0  0  0  0  0  0  0
   -2.5249    2.9544    0.9789 H   0  0  0  0  0  0  0  0  0  0  0  0
    0.5920   -0.2154    1.5497 C   0  0  0  0  0  0  0  0  0  0  0  0
    1.7860   -0.4596    1.7183 O   0  0  0  0  0  0  0  0  0  0  0  0
   -0.2294    0.0669    2.5672 N   0  0  0  0  0  0  0  0  0  0  0  0
   -1.2130    0.1938    2.3518 H   0  0  0  0  0  0  0  0  0  0  0  0
    0.1836    0.1337    3.9673 C   0  0  0  0  0  0  0  0  0  0  0  0
    1.0451    0.7976    4.0666 H   0  0  0  0  0  0  0  0  0  0  0  0
   -0.6344    0.5115    4.5820 H   0  0  0  0  0  0  0  0  0  0  0  0
    0.4676   -0.8609    4.3157 H   0  0  0  0  0  0  0  0  0  0  0  0
  5  6  2  0  0  0  0
  5  7  1  0  0  0  0
  2  3  1  0  0  0  0
  2  4  1  0  0  0  0
  2  5  1  0  0  0  0
  1  2  1  0  0  0  0
 18 19  2  0  0  0  0
 18 20  1  0  0  0  0
 16 17  1  0  0  0  0
 14 15  2  0  0  0  0
 14 16  1  0  0  0  0
 11 12  1  0  0  0  0
 11 13  1  0  0  0  0
 11 14  1  0  0  0  0
  9 10  1  0  0  0  0
  9 11  1  0  0  0  0
  9 18  1  0  0  0  0
  7  8  1  0  0  0  0
  7  9  1  0  0  0  0
 22 23  1  0  0  0  0
 22 24  1  0  0  0  0
 22 25  1  0  0  0  0
 20 21  1  0  0  0  0
 20 22  1  0  0  0  0
M  END
$$$$
default_name
  -OEChem-02102213163D

 25 24  0     1  0  0  0  0  0999 V2000
   -2.7826   -3.8464    0.7821 H   0  0  0  0  0  0  0  0  0  0  0  0
   -2.8156   -2.8034    0.4711 C   0  0  0  0  0  0  0  0  0  0  0  0
   -3.4336   -2.2354    1.1641 H   0  0  0  0  0  0  0  0  0  0  0  0
   -3.2256   -2.7344   -0.5349 H   0  0  0  0  0  0  0  0  0  0  0  0
   -1.4126   -2.2444    0.4801 C   0  0  0  0  0  0  0  0  0  0  0  0
   -0.4686   -2.9534    0.8001 O   0  0  0  0  0  0  0  0  0  0  0  0
   -1.2736   -0.9704    0.1241 N   0  0  0  0  0  0  0  0  0  0  0  0
   -2.0996   -0.4354   -0.1019 H   0  0  0  0  0  0  0  0  0  0  0  0
   -0.0016   -0.2394    0.1271 C   0  0  1  0  0  0  0  0  0  0  0  0
    0.6995   -0.7619   -0.5275 H   0  0  0  0  0  0  0  0  0  0  0  0
   -0.2283    1.1832   -0.4215 C   0  0  0  0  0  0  0  0  0  0  0  0
    0.7340    1.6374   -0.6610 H   0  0  0  0  0  0  0  0  0  0  0  0
   -0.8133    1.1335   -1.3406 H   0  0  0  0  0  0  0  0  0  0  0  0
   -0.9261    2.1113    0.5682 C   0  0  0  0  0  0  0  0  0  0  0  0
   -0.3677    2.8248    1.3912 O   0  0  0  0  0  0  0  0  0  0  0  0
   -2.2703    2.1046    0.4970 O   0  0  0  0  0  0  0  0  0  0  0  0
   -2.5708    2.7372    1.1502 H   0  0  0  0  0  0  0  0  0  0  0  0
    0.5920   -0.2154    1.5497 C   0  0  0  0  0  0  0  0  0  0  0  0
    1.7860   -0.4596    1.7183 O   0  0  0  0  0  0  0  0  0  0  0  0
   -0.2294    0.0669    2.5672 N   0  0  0  0  0  0  0  0  0  0  0  0
   -1.2130    0.1938    2.3518 H   0  0  0  0  0  0  0  0  0  0  0  0
    0.1836    0.1337    3.9673 C   0  0  0  0  0  0  0  0  0  0  0  0
    1.0451    0.7976    4.0666 H   0  0  0  0  0  0  0  0  0  0  0  0
   -0.6344    0.5115    4.5820 H   0  0  0  0  0  0  0  0  0  0  0  0
    0.4676   -0.8609    4.3157 H   0  0  0  0  0  0  0  0  0  0  0  0
  5  6  2  0  0  0  0
  5  7  1  0  0  0  0
  2  3  1  0  0  0  0
  2  4  1  0  0  0  0
  2  5  1  0  0  0  0
  1  2  1  0  0  0  0
 18 19  2  0  0  0  0
 18 20  1  0  0  0  0
 16 17  1  0  0  0  0
 14 15  2  0  0  0  0
 14 16  1  0  0  0  0
 11 12  1  0  0  0  0
 11 13  1  0  0  0  0
 11 14  1  0  0  0  0
  9 10  1  0  0  0  0
  9 11  1  0  0  0  0
  9 18  1  0  0  0  0
  7  8  1  0  0  0  0
  7  9  1  0  0  0  0
 22 23  1  0  0  0  0
 22 24  1  0  0  0  0
 22 25  1  0  0  0  0
 20 21  1  0  0  0  0
 20 22  1  0  0  0  0
M  END
$$$$
default_name
  -OEChem-02102213163D

 25 24  0     1  0  0  0  0  0999 V2000
   -2.7826   -3.8464    0.7821 H   0  0  0  0  0  0  0  0  0  0  0  0
   -2.8156   -2.8034    0.4711 C   0  0  0  0  0  0  0  0  0  0  0  0
   -3.4336   -2.2354    1.1641 H   0  0  0  0  0  0  0  0  0  0  0  0
   -3.2256   -2.7344   -0.5349 H   0  0  0  0  0  0  0  0  0  0  0  0
   -1.4126   -2.2444    0.4801 C   0  0  0  0  0  0  0  0  0  0  0  0
   -0.4686   -2.9534    0.8001 O   0  0  0  0  0  0  0  0  0  0  0  0
   -1.2736   -0.9704    0.1241 N   0  0  0  0  0  0  0  0  0  0  0  0
   -2.0996   -0.4354   -0.1019 H   0  0  0  0  0  0  0  0  0  0  0  0
   -0.0016   -0.2394    0.1271 C   0  0  1  0  0  0  0  0  0  0  0  0
    0.6995   -0.7619   -0.5275 H   0  0  0  0  0  0  0  0  0  0  0  0
   -0.2283    1.1832   -0.4215 C   0  0  0  0  0  0  0  0  0  0  0  0
    0.7340    1.6374   -0.6610 H   0  0  0  0  0  0  0  0  0  0  0  0
   -0.8133    1.1335   -1.3406 H   0  0  0  0  0  0  0  0  0  0  0  0
   -0.9261    2.1113    0.5682 C   0  0  0  0  0  0  0  0  0  0  0  0
   -0.3880    3.0064    1.2065 O   0  0  0  0  0  0  0  0  0  0  0  0
   -2.2433    1.8825    0.7243 O   0  0  0  0  0  0  0  0  0  0  0  0
   -2.5518    2.5400    1.3486 H   0  0  0  0  0  0  0  0  0  0  0  0
    0.5920   -0.2154    1.5497 C   0  0  0  0  0  0  0  0  0  0  0  0
    1.7860   -0.4596    1.7183 O   0  0  0  0  0  0  0  0  0  0  0  0
   -0.2294    0.0669    2.5672 N   0  0  0  0  0  0  0  0  0  0  0  0
   -1.2130    0.1938    2.3518 H   0  0  0  0  0  0  0  0  0  0  0  0
    0.1836    0.1337    3.9673 C   0  0  0  0  0  0  0  0  0  0  0  0
    1.0451    0.7976    4.0666 H   0  0  0  0  0  0  0  0  0  0  0  0
   -0.6344    0.5115    4.5820 H   0  0  0  0  0  0  0  0  0  0  0  0
    0.4676   -0.8609    4.3157 H   0  0  0  0  0  0  0  0  0  0  0  0
  5  6  2  0  0  0  0
  5  7  1  0  0  0  0
  2  3  1  0  0  0  0
  2  4  1  0  0  0  0
  2  5  1  0  0  0  0
  1  2  1  0  0  0  0
 18 19  2  0  0  0  0
 18 20  1  0  0  0  0
 16 17  1  0  0  0  0
 14 15  2  0  0  0  0
 14 16  1  0  0  0  0
 11 12  1  0  0  0  0
 11 13  1  0  0  0  0
 11 14  1  0  0  0  0
  9 10  1  0  0  0  0
  9 11  1  0  0  0  0
  9 18  1  0  0  0  0
  7  8  1  0  0  0  0
  7  9  1  0  0  0  0
 22 23  1  0  0  0  0
 22 24  1  0  0  0  0
 22 25  1  0  0  0  0
 20 21  1  0  0  0  0
 20 22  1  0  0  0  0
M  END
$$$$
default_name
  -OEChem-02102213163D

 25 24  0     1  0  0  0  0  0999 V2000
   -2.7826   -3.8464    0.7821 H   0  0  0  0  0  0  0  0  0  0  0  0
   -2.8156   -2.8034    0.4711 C   0  0  0  0  0  0  0  0  0  0  0  0
   -3.4336   -2.2354    1.1641 H   0  0  0  0  0  0  0  0  0  0  0  0
   -3.2256   -2.7344   -0.5349 H   0  0  0  0  0  0  0  0  0  0  0  0
   -1.4126   -2.2444    0.4801 C   0  0  0  0  0  0  0  0  0  0  0  0
   -0.4686   -2.9534    0.8001 O   0  0  0  0  0  0  0  0  0  0  0  0
   -1.2736   -0.9704    0.1241 N   0  0  0  0  0  0  0  0  0  0  0  0
   -2.0996   -0.4354   -0.1019 H   0  0  0  0  0  0  0  0  0  0  0  0
   -0.0016   -0.2394    0.1271 C   0  0  1  0  0  0  0  0  0  0  0  0
    0.6995   -0.7619   -0.5275 H   0  0  0  0  0  0  0  0  0  0  0  0
   -0.2283    1.1832   -0.4215 C   0  0  0  0  0  0  0  0  0  0  0  0
    0.7340    1.6374   -0.6610 H   0  0  0  0  0  0  0  0  0  0  0  0
   -0.8133    1.1335   -1.3406 H   0  0  0  0  0  0  0  0  0  0  0  0
   -0.9261    2.1113    0.5682 C   0  0  0  0  0  0  0  0  0  0  0  0
   -0.4672    3.1566    1.0099 O   0  0  0  0  0  0  0  0  0  0  0  0
   -2.1443    1.6993    0.9660 O   0  0  0  0  0  0  0  0  0  0  0  0
   -2.4690    2.3761    1.5607 H   0  0  0  0  0  0  0  0  0  0  0  0
    0.5920   -0.2154    1.5497 C   0  0  0  0  0  0  0  0  0  0  0  0
    1.7860   -0.4596    1.7183 O   0  0  0  0  0  0  0  0  0  0  0  0
   -0.2294    0.0669    2.5672 N   0  0  0  0  0  0  0  0  0  0  0  0
   -1.2130    0.1938    2.3518 H   0  0  0  0  0  0  0  0  0  0  0  0
    0.1836    0.1337    3.9673 C   0  0  0  0  0  0  0  0  0  0  0  0
    1.0451    0.7976    4.0666 H   0  0  0  0  0  0  0  0  0  0  0  0
   -0.6344    0.5115    4.5820 H   0  0  0  0  0  0  0  0  0  0  0  0
    0.4676   -0.8609    4.3157 H   0  0  0  0  0  0  0  0  0  0  0  0
  5  6  2  0  0  0  0
  5  7  1  0  0  0  0
  2  3  1  0  0  0  0
  2  4  1  0  0  0  0
  2  5  1  0  0  0  0
  1  2  1  0  0  0  0
 18 19  2  0  0  0  0
 18 20  1  0  0  0  0
 16 17  1  0  0  0  0
 14 15  2  0  0  0  0
 14 16  1  0  0  0  0
 11 12  1  0  0  0  0
 11 13  1  0  0  0  0
 11 14  1  0  0  0  0
  9 10  1  0  0  0  0
  9 11  1  0  0  0  0
  9 18  1  0  0  0  0
  7  8  1  0  0  0  0
  7  9  1  0  0  0  0
 22 23  1  0  0  0  0
 22 24  1  0  0  0  0
 22 25  1  0  0  0  0
 20 21  1  0  0  0  0
 20 22  1  0  0  0  0
M  END
$$$$
default_name
  -OEChem-02102213163D

 25 24  0     1  0  0  0  0  0999 V2000
   -2.7826   -3.8464    0.7821 H   0  0  0  0  0  0  0  0  0  0  0  0
   -2.8156   -2.8034    0.4711 C   0  0  0  0  0  0  0  0  0  0  0  0
   -3.4336   -2.2354    1.1641 H   0  0  0  0  0  0  0  0  0  0  0  0
   -3.2256   -2.7344   -0.5349 H   0  0  0  0  0  0  0  0  0  0  0  0
   -1.4126   -2.2444    0.4801 C   0  0  0  0  0  0  0  0  0  0  0  0
   -0.4686   -2.9534    0.8001 O   0  0  0  0  0  0  0  0  0  0  0  0
   -1.2736   -0.9704    0.1241 N   0  0  0  0  0  0  0  0  0  0  0  0
   -2.0996   -0.4354   -0.1019 H   0  0  0  0  0  0  0  0  0  0  0  0
   -0.0016   -0.2394    0.1271 C   0  0  1  0  0  0  0  0  0  0  0  0
    0.6995   -0.7619   -0.5275 H   0  0  0  0  0  0  0  0  0  0  0  0
   -0.2283    1.1832   -0.4215 C   0  0  0  0  0  0  0  0  0  0  0  0
    0.7340    1.6374   -0.6610 H   0  0  0  0  0  0  0  0  0  0  0  0
   -0.8133    1.1335   -1.3406 H   0  0  0  0  0  0  0  0  0  0  0  0
   -0.9261    2.1113    0.5682 C   0  0  0  0  0  0  0  0  0  0  0  0
   -0.5999    3.2651    0.8146 O   0  0  0  0  0  0  0  0  0  0  0  0
   -1.9797    1.5676    1.2055 O   0  0  0  0  0  0  0  0  0  0  0  0
   -2.3282    2.2569    1.7718 H   0  0  0  0  0  0  0  0  0  0  0  0
    0.5920   -0.2154    1.5497 C   0  0  0  0  0  0  0  0  0  0  0  0
    1.7860   -0.4596    1.7183 O   0  0  0  0  0  0  0  0  0  0  0  0
   -0.2294    0.0669    2.5672 N   0  0  0  0  0  0  0  0  0  0  0  0
   -1.2130    0.1938    2.3518 H   0  0  0  0  0  0  0  0  0  0  0  0
    0.1836    0.1337    3.9673 C   0  0  0  0  0  0  0  0  0  0  0  0
    1.0451    0.7976    4.0666 H   0  0  0  0  0  0  0  0  0  0  0  0
   -0.6344    0.5115    4.5820 H   0  0  0  0  0  0  0  0  0  0  0  0
    0.4676   -0.8609    4.3157 H   0  0  0  0  0  0  0  0  0  0  0  0
  5  6  2  0  0  0  0
  5  7  1  0  0  0  0
  2  3  1  0  0  0  0
  2  4  1  0  0  0  0
  2  5  1  0  0  0  0
  1  2  1  0  0  0  0
 18 19  2  0  0  0  0
 18 20  1  0  0  0  0
 16 17  1  0  0  0  0
 14 15  2  0  0  0  0
 14 16  1  0  0  0  0
 11 12  1  0  0  0  0
 11 13  1  0  0  0  0
 11 14  1  0  0  0  0
  9 10  1  0  0  0  0
  9 11  1  0  0  0  0
  9 18  1  0  0  0  0
  7  8  1  0  0  0  0
  7  9  1  0  0  0  0
 22 23  1  0  0  0  0
 22 24  1  0  0  0  0
 22 25  1  0  0  0  0
 20 21  1  0  0  0  0
 20 22  1  0  0  0  0
M  END
$$$$
default_name
  -OEChem-02102213163D

 25 24  0     1  0  0  0  0  0999 V2000
   -2.7826   -3.8464    0.7821 H   0  0  0  0  0  0  0  0  0  0  0  0
   -2.8156   -2.8034    0.4711 C   0  0  0  0  0  0  0  0  0  0  0  0
   -3.4336   -2.2354    1.1641 H   0  0  0  0  0  0  0  0  0  0  0  0
   -3.2256   -2.7344   -0.5349 H   0  0  0  0  0  0  0  0  0  0  0  0
   -1.4126   -2.2444    0.4801 C   0  0  0  0  0  0  0  0  0  0  0  0
   -0.4686   -2.9534    0.8001 O   0  0  0  0  0  0  0  0  0  0  0  0
   -1.2736   -0.9704    0.1241 N   0  0  0  0  0  0  0  0  0  0  0  0
   -2.0996   -0.4354   -0.1019 H   0  0  0  0  0  0  0  0  0  0  0  0
   -0.0016   -0.2394    0.1271 C   0  0  1  0  0  0  0  0  0  0  0  0
    0.6995   -0.7619   -0.5275 H   0  0  0  0  0  0  0  0  0  0  0  0
   -0.2283    1.1832   -0.4215 C   0  0  0  0  0  0  0  0  0  0  0  0
    0.7340    1.6374   -0.6610 H   0  0  0  0  0  0  0  0  0  0  0  0
   -0.8133    1.1335   -1.3406 H   0  0  0  0  0  0  0  0  0  0  0  0
   -0.9261    2.1113    0.5682 C   0  0  0  0  0  0  0  0  0  0  0  0
   -0.7770    3.3245    0.6340 O   0  0  0  0  0  0  0  0  0  0  0  0
   -1.7610    1.4964    1.4265 O   0  0  0  0  0  0  0  0  0  0  0  0
   -2.1389    2.1903    1.9677 H   0  0  0  0  0  0  0  0  0  0  0  0
    0.5920   -0.2154    1.5497 C   0  0  0  0  0  0  0  0  0  0  0  0
    1.7860   -0.4596    1.7183 O   0  0  0  0  0  0  0  0  0  0  0  0
   -0.2294    0.0669    2.5672 N   0  0  0  0  0  0  0  0  0  0  0  0
   -1.2130    0.1938    2.3518 H   0  0  0  0  0  0  0  0  0  0  0  0
    0.1836    0.1337    3.9673 C   0  0  0  0  0  0  0  0  0  0  0  0
    1.0451    0.7976    4.0666 H   0  0  0  0  0  0  0  0  0  0  0  0
   -0.6344    0.5115    4.5820 H   0  0  0  0  0  0  0  0  0  0  0  0
    0.4676   -0.8609    4.3157 H   0  0  0  0  0  0  0  0  0  0  0  0
  5  6  2  0  0  0  0
  5  7  1  0  0  0  0
  2  3  1  0  0  0  0
  2  4  1  0  0  0  0
  2  5  1  0  0  0  0
  1  2  1  0  0  0  0
 18 19  2  0  0  0  0
 18 20  1  0  0  0  0
 16 17  1  0  0  0  0
 14 15  2  0  0  0  0
 14 16  1  0  0  0  0
 11 12  1  0  0  0  0
 11 13  1  0  0  0  0
 11 14  1  0  0  0  0
  9 10  1  0  0  0  0
  9 11  1  0  0  0  0
  9 18  1  0  0  0  0
  7  8  1  0  0  0  0
  7  9  1  0  0  0  0
 22 23  1  0  0  0  0
 22 24  1  0  0  0  0
 22 25  1  0  0  0  0
 20 21  1  0  0  0  0
 20 22  1  0  0  0  0
M  END
$$$$
default_name
  -OEChem-02102213163D

 25 24  0     1  0  0  0  0  0999 V2000
   -2.7826   -3.8464    0.7821 H   0  0  0  0  0  0  0  0  0  0  0  0
   -2.8156   -2.8034    0.4711 C   0  0  0  0  0  0  0  0  0  0  0  0
   -3.4336   -2.2354    1.1641 H   0  0  0  0  0  0  0  0  0  0  0  0
   -3.2256   -2.7344   -0.5349 H   0  0  0  0  0  0  0  0  0  0  0  0
   -1.4126   -2.2444    0.4801 C   0  0  0  0  0  0  0  0  0  0  0  0
   -0.4686   -2.9534    0.8001 O   0  0  0  0  0  0  0  0  0  0  0  0
   -1.2736   -0.9704    0.1241 N   0  0  0  0  0  0  0  0  0  0  0  0
   -2.0996   -0.4354   -0.1019 H   0  0  0  0  0  0  0  0  0  0  0  0
   -0.0016   -0.2394    0.1271 C   0  0  1  0  0  0  0  0  0  0  0  0
    0.6995   -0.7619   -0.5275 H   0  0  0  0  0  0  0  0  0  0  0  0
   -0.2283    1.1832   -0.4215 C   0  0  0  0  0  0  0  0  0  0  0  0
    0.7340    1.6374   -0.6610 H   0  0  0  0  0  0  0  0  0  0  0  0
   -0.8133    1.1335   -1.3406 H   0  0  0  0  0  0  0  0  0  0  0  0
   -0.9261    2.1113    0.5682 C   0  0  0  0  0  0  0  0  0  0  0  0
   -0.9865    3.3307    0.4805 O   0  0  0  0  0  0  0  0  0  0  0  0
   -1.5030    1.4904    1.6139 O   0  0  0  0  0  0  0  0  0  0  0  0
   -1.9140    2.1810    2.1350 H   0  0  0  0  0  0  0  0  0  0  0  0
    0.5920   -0.2154    1.5497 C   0  0  0  0  0  0  0  0  0  0  0  0
    1.7860   -0.4596    1.7183 O   0  0  0  0  0  0  0  0  0  0  0  0
   -0.2294    0.0669    2.5672 N   0  0  0  0  0  0  0  0  0  0  0  0
   -1.2130    0.1938    2.3518 H   0  0  0  0  0  0  0  0  0  0  0  0
    0.1836    0.1337    3.9673 C   0  0  0  0  0  0  0  0  0  0  0  0
    1.0451    0.7976    4.0666 H   0  0  0  0  0  0  0  0  0  0  0  0
   -0.6344    0.5115    4.5820 H   0  0  0  0  0  0  0  0  0  0  0  0
    0.4676   -0.8609    4.3157 H   0  0  0  0  0  0  0  0  0  0  0  0
  5  6  2  0  0  0  0
  5  7  1  0  0  0  0
  2  3  1  0  0  0  0
  2  4  1  0  0  0  0
  2  5  1  0  0  0  0
  1  2  1  0  0  0  0
 18 19  2  0  0  0  0
 18 20  1  0  0  0  0
 16 17  1  0  0  0  0
 14 15  2  0  0  0  0
 14 16  1  0  0  0  0
 11 12  1  0  0  0  0
 11 13  1  0  0  0  0
 11 14  1  0  0  0  0
  9 10  1  0  0  0  0
  9 11  1  0  0  0  0
  9 18  1  0  0  0  0
  7  8  1  0  0  0  0
  7  9  1  0  0  0  0
 22 23  1  0  0  0  0
 22 24  1  0  0  0  0
 22 25  1  0  0  0  0
 20 21  1  0  0  0  0
 20 22  1  0  0  0  0
M  END
$$$$
default_name
  -OEChem-02102213163D

 25 24  0     1  0  0  0  0  0999 V2000
   -2.7826   -3.8464    0.7821 H   0  0  0  0  0  0  0  0  0  0  0  0
   -2.8156   -2.8034    0.4711 C   0  0  0  0  0  0  0  0  0  0  0  0
   -3.4336   -2.2354    1.1641 H   0  0  0  0  0  0  0  0  0  0  0  0
   -3.2256   -2.7344   -0.5349 H   0  0  0  0  0  0  0  0  0  0  0  0
   -1.4126   -2.2444    0.4801 C   0  0  0  0  0  0  0  0  0  0  0  0
   -0.4686   -2.9534    0.8001 O   0  0  0  0  0  0  0  0  0  0  0  0
   -1.2736   -0.9704    0.1241 N   0  0  0  0  0  0  0  0  0  0  0  0
   -2.0996   -0.4354   -0.1019 H   0  0  0  0  0  0  0  0  0  0  0  0
   -0.0016   -0.2394    0.1271 C   0  0  1  0  0  0  0  0  0  0  0  0
    0.6995   -0.7619   -0.5275 H   0  0  0  0  0  0  0  0  0  0  0  0
   -0.2283    1.1832   -0.4215 C   0  0  0  0  0  0  0  0  0  0  0  0
    0.6840    1.5356   -0.9043 H   0  0  0  0  0  0  0  0  0  0  0  0
   -1.0193    1.1656   -1.1721 H   0  0  0  0  0  0  0  0  0  0  0  0
   -0.5835    2.2007    0.6584 C   0  0  0  0  0  0  0  0  0  0  0  0
   -0.8084    3.3893    0.4713 O   0  0  0  0  0  0  0  0  0  0  0  0
   -0.6342    1.7031    1.9081 O   0  0  0  0  0  0  0  0  0  0  0  0
   -0.8834    2.4357    2.4724 H   0  0  0  0  0  0  0  0  0  0  0  0
    0.5920   -0.2154    1.5497 C   0  0  0  0  0  0  0  0  0  0  0  0
    1.7860   -0.4596    1.7183 O   0  0  0  0  0  0  0  0  0  0  0  0
   -0.2294    0.0669    2.5672 N   0  0  0  0  0  0  0  0  0  0  0  0
   -1.2130    0.1938    2.3518 H   0  0  0  0  0  0  0  0  0  0  0  0
    0.1836    0.1337    3.9673 C   0  0  0  0  0  0  0  0  0  0  0  0
    1.0451    0.7976    4.0666 H   0  0  0  0  0  0  0  0  0  0  0  0
   -0.6344    0.5115    4.5820 H   0  0  0  0  0  0  0  0  0  0  0  0
    0.4676   -0.8609    4.3157 H   0  0  0  0  0  0  0  0  0  0  0  0
  5  6  2  0  0  0  0
  5  7  1  0  0  0  0
  2  3  1  0  0  0  0
  2  4  1  0  0  0  0
  2  5  1  0  0  0  0
  1  2  1  0  0  0  0
 18 19  2  0  0  0  0
 18 20  1  0  0  0  0
 16 17  1  0  0  0  0
 14 15  2  0  0  0  0
 14 16  1  0  0  0  0
 11 12  1  0  0  0  0
 11 13  1  0  0  0  0
 11 14  1  0  0  0  0
  9 10  1  0  0  0  0
  9 11  1  0  0  0  0
  9 18  1  0  0  0  0
  7  8  1  0  0  0  0
  7  9  1  0  0  0  0
 22 23  1  0  0  0  0
 22 24  1  0  0  0  0
 22 25  1  0  0  0  0
 20 21  1  0  0  0  0
 20 22  1  0  0  0  0
M  END
$$$$
default_name
  -OEChem-02102213163D

 25 24  0     1  0  0  0  0  0999 V2000
   -2.7826   -3.8464    0.7821 H   0  0  0  0  0  0  0  0  0  0  0  0
   -2.8156   -2.8034    0.4711 C   0  0  0  0  0  0  0  0  0  0  0  0
   -3.4336   -2.2354    1.1641 H   0  0  0  0  0  0  0  0  0  0  0  0
   -3.2256   -2.7344   -0.5349 H   0  0  0  0  0  0  0  0  0  0  0  0
   -1.4126   -2.2444    0.4801 C   0  0  0  0  0  0  0  0  0  0  0  0
   -0.4686   -2.9534    0.8001 O   0  0  0  0  0  0  0  0  0  0  0  0
   -1.2736   -0.9704    0.1241 N   0  0  0  0  0  0  0  0  0  0  0  0
   -2.0996   -0.4354   -0.1019 H   0  0  0  0  0  0  0  0  0  0  0  0
   -0.0016   -0.2394    0.1271 C   0  0  1  0  0  0  0  0  0  0  0  0
    0.6995   -0.7619   -0.5275 H   0  0  0  0  0  0  0  0  0  0  0  0
   -0.2283    1.1832   -0.4215 C   0  0  0  0  0  0  0  0  0  0  0  0
    0.6840    1.5356   -0.9043 H   0  0  0  0  0  0  0  0  0  0  0  0
   -1.0193    1.1656   -1.1721 H   0  0  0  0  0  0  0  0  0  0  0  0
   -0.5835    2.2007    0.6584 C   0  0  0  0  0  0  0  0  0  0  0  0
   -1.0564    3.3125    0.4621 O   0  0  0  0  0  0  0  0  0  0  0  0
   -0.3300    1.7989    1.9179 O   0  0  0  0  0  0  0  0  0  0  0  0
   -0.6151    2.5163    2.4847 H   0  0  0  0  0  0  0  0  0  0  0  0
    0.5920   -0.2154    1.5497 C   0  0  0  0  0  0  0  0  0  0  0  0
    1.7860   -0.4596    1.7183 O   0  0  0  0  0  0  0  0  0  0  0  0
   -0.2294    0.0669    2.5672 N   0  0  0  0  0  0  0  0  0  0  0  0
   -1.2130    0.1938    2.3518 H   0  0  0  0  0  0  0  0  0  0  0  0
    0.1836    0.1337    3.9673 C   0  0  0  0  0  0  0  0  0  0  0  0
    1.0451    0.7976    4.0666 H   0  0  0  0  0  0  0  0  0  0  0  0
   -0.6344    0.5115    4.5820 H   0  0  0  0  0  0  0  0  0  0  0  0
    0.4676   -0.8609    4.3157 H   0  0  0  0  0  0  0  0  0  0  0  0
  5  6  2  0  0  0  0
  5  7  1  0  0  0  0
  2  3  1  0  0  0  0
  2  4  1  0  0  0  0
  2  5  1  0  0  0  0
  1  2  1  0  0  0  0
 18 19  2  0  0  0  0
 18 20  1  0  0  0  0
 16 17  1  0  0  0  0
 14 15  2  0  0  0  0
 14 16  1  0  0  0  0
 11 12  1  0  0  0  0
 11 13  1  0  0  0  0
 11 14  1  0  0  0  0
  9 10  1  0  0  0  0
  9 11  1  0  0  0  0
  9 18  1  0  0  0  0
  7  8  1  0  0  0  0
  7  9  1  0  0  0  0
 22 23  1  0  0  0  0
 22 24  1  0  0  0  0
 22 25  1  0  0  0  0
 20 21  1  0  0  0  0
 20 22  1  0  0  0  0
M  END
$$$$
default_name
  -OEChem-02102213163D

 25 24  0     1  0  0  0  0  0999 V2000
   -2.7826   -3.8464    0.7821 H   0  0  0  0  0  0  0  0  0  0  0  0
   -2.8156   -2.8034    0.4711 C   0  0  0  0  0  0  0  0  0  0  0  0
   -3.4336   -2.2354    1.1641 H   0  0  0  0  0  0  0  0  0  0  0  0
   -3.2256   -2.7344   -0.5349 H   0  0  0  0  0  0  0  0  0  0  0  0
   -1.4126   -2.2444    0.4801 C   0  0  0  0  0  0  0  0  0  0  0  0
   -0.4686   -2.9534    0.8001 O   0  0  0  0  0  0  0  0  0  0  0  0
   -1.2736   -0.9704    0.1241 N   0  0  0  0  0  0  0  0  0  0  0  0
   -2.0996   -0.4354   -0.1019 H   0  0  0  0  0  0  0  0  0  0  0  0
   -0.0016   -0.2394    0.1271 C   0  0  1  0  0  0  0  0  0  0  0  0
    0.6995   -0.7619   -0.5275 H   0  0  0  0  0  0  0  0  0  0  0  0
   -0.2283    1.1832   -0.4215 C   0  0  0  0  0  0  0  0  0  0  0  0
    0.6840    1.5356   -0.9043 H   0  0  0  0  0  0  0  0  0  0  0  0
   -1.0193    1.1656   -1.1721 H   0  0  0  0  0  0  0  0  0  0  0  0
   -0.5835    2.2007    0.6584 C   0  0  0  0  0  0  0  0  0  0  0  0
   -1.2835    3.1923    0.5006 O   0  0  0  0  0  0  0  0  0  0  0  0
   -0.0521    1.9477    1.8691 O   0  0  0  0  0  0  0  0  0  0  0  0
   -0.3686    2.6441    2.4453 H   0  0  0  0  0  0  0  0  0  0  0  0
    0.5920   -0.2154    1.5497 C   0  0  0  0  0  0  0  0  0  0  0  0
    1.7860   -0.4596    1.7183 O   0  0  0  0  0  0  0  0  0  0  0  0
   -0.2294    0.0669    2.5672 N   0  0  0  0  0  0  0  0  0  0  0  0
   -1.2130    0.1938    2.3518 H   0  0  0  0  0  0  0  0  0  0  0  0
    0.1836    0.1337    3.9673 C   0  0  0  0  0  0  0  0  0  0  0  0
    1.0451    0.7976    4.0666 H   0  0  0  0  0  0  0  0  0  0  0  0
   -0.6344    0.5115    4.5820 H   0  0  0  0  0  0  0  0  0  0  0  0
    0.4676   -0.8609    4.3157 H   0  0  0  0  0  0  0  0  0  0  0  0
  5  6  2  0  0  0  0
  5  7  1  0  0  0  0
  2  3  1  0  0  0  0
  2  4  1  0  0  0  0
  2  5  1  0  0  0  0
  1  2  1  0  0  0  0
 18 19  2  0  0  0  0
 18 20  1  0  0  0  0
 16 17  1  0  0  0  0
 14 15  2  0  0  0  0
 14 16  1  0  0  0  0
 11 12  1  0  0  0  0
 11 13  1  0  0  0  0
 11 14  1  0  0  0  0
  9 10  1  0  0  0  0
  9 11  1  0  0  0  0
  9 18  1  0  0  0  0
  7  8  1  0  0  0  0
  7  9  1  0  0  0  0
 22 23  1  0  0  0  0
 22 24  1  0  0  0  0
 22 25  1  0  0  0  0
 20 21  1  0  0  0  0
 20 22  1  0  0  0  0
M  END
$$$$
default_name
  -OEChem-02102213163D

 25 24  0     1  0  0  0  0  0999 V2000
   -2.7826   -3.8464    0.7821 H   0  0  0  0  0  0  0  0  0  0  0  0
   -2.8156   -2.8034    0.4711 C   0  0  0  0  0  0  0  0  0  0  0  0
   -3.4336   -2.2354    1.1641 H   0  0  0  0  0  0  0  0  0  0  0  0
   -3.2256   -2.7344   -0.5349 H   0  0  0  0  0  0  0  0  0  0  0  0
   -1.4126   -2.2444    0.4801 C   0  0  0  0  0  0  0  0  0  0  0  0
   -0.4686   -2.9534    0.8001 O   0  0  0  0  0  0  0  0  0  0  0  0
   -1.2736   -0.9704    0.1241 N   0  0  0  0  0  0  0  0  0  0  0  0
   -2.0996   -0.4354   -0.1019 H   0  0  0  0  0  0  0  0  0  0  0  0
   -0.0016   -0.2394    0.1271 C   0  0  1  0  0  0  0  0  0  0  0  0
    0.6995   -0.7619   -0.5275 H   0  0  0  0  0  0  0  0  0  0  0  0
   -0.2283    1.1832   -0.4215 C   0  0  0  0  0  0  0  0  0  0  0  0
    0.6840    1.5356   -0.9043 H   0  0  0  0  0  0  0  0  0  0  0  0
   -1.0193    1.1656   -1.1721 H   0  0  0  0  0  0  0  0  0  0  0  0
   -0.5835    2.2007    0.6584 C   0  0  0  0  0  0  0  0  0  0  0  0
   -1.4742    3.0369    0.5842 O   0  0  0  0  0  0  0  0  0  0  0  0
    0.1806    2.1394    1.7650 O   0  0  0  0  0  0  0  0  0  0  0  0
   -0.1607    2.8103    2.3571 H   0  0  0  0  0  0  0  0  0  0  0  0
    0.5920   -0.2154    1.5497 C   0  0  0  0  0  0  0  0  0  0  0  0
    1.7860   -0.4596    1.7183 O   0  0  0  0  0  0  0  0  0  0  0  0
   -0.2294    0.0669    2.5672 N   0  0  0  0  0  0  0  0  0  0  0  0
   -1.2130    0.1938    2.3518 H   0  0  0  0  0  0  0  0  0  0  0  0
    0.1836    0.1337    3.9673 C   0  0  0  0  0  0  0  0  0  0  0  0
    1.0451    0.7976    4.0666 H   0  0  0  0  0  0  0  0  0  0  0  0
   -0.6344    0.5115    4.5820 H   0  0  0  0  0  0  0  0  0  0  0  0
    0.4676   -0.8609    4.3157 H   0  0  0  0  0  0  0  0  0  0  0  0
  5  6  2  0  0  0  0
  5  7  1  0  0  0  0
  2  3  1  0  0  0  0
  2  4  1  0  0  0  0
  2  5  1  0  0  0  0
  1  2  1  0  0  0  0
 18 19  2  0  0  0  0
 18 20  1  0  0  0  0
 16 17  1  0  0  0  0
 14 15  2  0  0  0  0
 14 16  1  0  0  0  0
 11 12  1  0  0  0  0
 11 13  1  0  0  0  0
 11 14  1  0  0  0  0
  9 10  1  0  0  0  0
  9 11  1  0  0  0  0
  9 18  1  0  0  0  0
  7  8  1  0  0  0  0
  7  9  1  0  0  0  0
 22 23  1  0  0  0  0
 22 24  1  0  0  0  0
 22 25  1  0  0  0  0
 20 21  1  0  0  0  0
 20 22  1  0  0  0  0
M  END
$$$$
default_name
  -OEChem-02102213163D

 25 24  0     1  0  0  0  0  0999 V2000
   -2.7826   -3.8464    0.7821 H   0  0  0  0  0  0  0  0  0  0  0  0
   -2.8156   -2.8034    0.4711 C   0  0  0  0  0  0  0  0  0  0  0  0
   -3.4336   -2.2354    1.1641 H   0  0  0  0  0  0  0  0  0  0  0  0
   -3.2256   -2.7344   -0.5349 H   0  0  0  0  0  0  0  0  0  0  0  0
   -1.4126   -2.2444    0.4801 C   0  0  0  0  0  0  0  0  0  0  0  0
   -0.4686   -2.9534    0.8001 O   0  0  0  0  0  0  0  0  0  0  0  0
   -1.2736   -0.9704    0.1241 N   0  0  0  0  0  0  0  0  0  0  0  0
   -2.0996   -0.4354   -0.1019 H   0  0  0  0  0  0  0  0  0  0  0  0
   -0.0016   -0.2394    0.1271 C   0  0  1  0  0  0  0  0  0  0  0  0
    0.6995   -0.7619   -0.5275 H   0  0  0  0  0  0  0  0  0  0  0  0
   -0.2283    1.1832   -0.4215 C   0  0  0  0  0  0  0  0  0  0  0  0
    0.6840    1.5356   -0.9043 H   0  0  0  0  0  0  0  0  0  0  0  0
   -1.0193    1.1656   -1.1721 H   0  0  0  0  0  0  0  0  0  0  0  0
   -0.5835    2.2007    0.6584 C   0  0  0  0  0  0  0  0  0  0  0  0
   -1.6155    2.8570    0.7073 O   0  0  0  0  0  0  0  0  0  0  0  0
    0.3523    2.3610    1.6127 O   0  0  0  0  0  0  0  0  0  0  0  0
   -0.0056    3.0037    2.2259 H   0  0  0  0  0  0  0  0  0  0  0  0
    0.5920   -0.2154    1.5497 C   0  0  0  0  0  0  0  0  0  0  0  0
    1.7860   -0.4596    1.7183 O   0  0  0  0  0  0  0  0  0  0  0  0
   -0.2294    0.0669    2.5672 N   0  0  0  0  0  0  0  0  0  0  0  0
   -1.2130    0.1938    2.3518 H   0  0  0  0  0  0  0  0  0  0  0  0
    0.1836    0.1337    3.9673 C   0  0  0  0  0  0  0  0  0  0  0  0
    1.0451    0.7976    4.0666 H   0  0  0  0  0  0  0  0  0  0  0  0
   -0.6344    0.5115    4.5820 H   0  0  0  0  0  0  0  0  0  0  0  0
    0.4676   -0.8609    4.3157 H   0  0  0  0  0  0  0  0  0  0  0  0
  5  6  2  0  0  0  0
  5  7  1  0  0  0  0
  2  3  1  0  0  0  0
  2  4  1  0  0  0  0
  2  5  1  0  0  0  0
  1  2  1  0  0  0  0
 18 19  2  0  0  0  0
 18 20  1  0  0  0  0
 16 17  1  0  0  0  0
 14 15  2  0  0  0  0
 14 16  1  0  0  0  0
 11 12  1  0  0  0  0
 11 13  1  0  0  0  0
 11 14  1  0  0  0  0
  9 10  1  0  0  0  0
  9 11  1  0  0  0  0
  9 18  1  0  0  0  0
  7  8  1  0  0  0  0
  7  9  1  0  0  0  0
 22 23  1  0  0  0  0
 22 24  1  0  0  0  0
 22 25  1  0  0  0  0
 20 21  1  0  0  0  0
 20 22  1  0  0  0  0
M  END
$$$$
default_name
  -OEChem-02102213163D

 25 24  0     1  0  0  0  0  0999 V2000
   -2.7826   -3.8464    0.7821 H   0  0  0  0  0  0  0  0  0  0  0  0
   -2.8156   -2.8034    0.4711 C   0  0  0  0  0  0  0  0  0  0  0  0
   -3.4336   -2.2354    1.1641 H   0  0  0  0  0  0  0  0  0  0  0  0
   -3.2256   -2.7344   -0.5349 H   0  0  0  0  0  0  0  0  0  0  0  0
   -1.4126   -2.2444    0.4801 C   0  0  0  0  0  0  0  0  0  0  0  0
   -0.4686   -2.9534    0.8001 O   0  0  0  0  0  0  0  0  0  0  0  0
   -1.2736   -0.9704    0.1241 N   0  0  0  0  0  0  0  0  0  0  0  0
   -2.0996   -0.4354   -0.1019 H   0  0  0  0  0  0  0  0  0  0  0  0
   -0.0016   -0.2394    0.1271 C   0  0  1  0  0  0  0  0  0  0  0  0
    0.6995   -0.7619   -0.5275 H   0  0  0  0  0  0  0  0  0  0  0  0
   -0.2283    1.1832   -0.4215 C   0  0  0  0  0  0  0  0  0  0  0  0
    0.6840    1.5356   -0.9043 H   0  0  0  0  0  0  0  0  0  0  0  0
   -1.0193    1.1656   -1.1721 H   0  0  0  0  0  0  0  0  0  0  0  0
   -0.5835    2.2007    0.6584 C   0  0  0  0  0  0  0  0  0  0  0  0
   -1.6978    2.6647    0.8615 O   0  0  0  0  0  0  0  0  0  0  0  0
    0.4513    2.5973    1.4226 O   0  0  0  0  0  0  0  0  0  0  0  0
    0.0862    3.2109    2.0608 H   0  0  0  0  0  0  0  0  0  0  0  0
    0.5920   -0.2154    1.5497 C   0  0  0  0  0  0  0  0  0  0  0  0
    1.7860   -0.4596    1.7183 O   0  0  0  0  0  0  0  0  0  0  0  0
   -0.2294    0.0669    2.5672 N   0  0  0  0  0  0  0  0  0  0  0  0
   -1.2130    0.1938    2.3518 H   0  0  0  0  0  0  0  0  0  0  0  0
    0.1836    0.1337    3.9673 C   0  0  0  0  0  0  0  0  0  0  0  0
    1.0451    0.7976    4.0666 H   0  0  0  0  0  0  0  0  0  0  0  0
   -0.6344    0.5115    4.5820 H   0  0  0  0  0  0  0  0  0  0  0  0
    0.4676   -0.8609    4.3157 H   0  0  0  0  0  0  0  0  0  0  0  0
  5  6  2  0  0  0  0
  5  7  1  0  0  0  0
  2  3  1  0  0  0  0
  2  4  1  0  0  0  0
  2  5  1  0  0  0  0
  1  2  1  0  0  0  0
 18 19  2  0  0  0  0
 18 20  1  0  0  0  0
 16 17  1  0  0  0  0
 14 15  2  0  0  0  0
 14 16  1  0  0  0  0
 11 12  1  0  0  0  0
 11 13  1  0  0  0  0
 11 14  1  0  0  0  0
  9 10  1  0  0  0  0
  9 11  1  0  0  0  0
  9 18  1  0  0  0  0
  7  8  1  0  0  0  0
  7  9  1  0  0  0  0
 22 23  1  0  0  0  0
 22 24  1  0  0  0  0
 22 25  1  0  0  0  0
 20 21  1  0  0  0  0
 20 22  1  0  0  0  0
M  END
$$$$
default_name
  -OEChem-02102213163D

 25 24  0     1  0  0  0  0  0999 V2000
   -2.7826   -3.8464    0.7821 H   0  0  0  0  0  0  0  0  0  0  0  0
   -2.8156   -2.8034    0.4711 C   0  0  0  0  0  0  0  0  0  0  0  0
   -3.4336   -2.2354    1.1641 H   0  0  0  0  0  0  0  0  0  0  0  0
   -3.2256   -2.7344   -0.5349 H   0  0  0  0  0  0  0  0  0  0  0  0
   -1.4126   -2.2444    0.4801 C   0  0  0  0  0  0  0  0  0  0  0  0
   -0.4686   -2.9534    0.8001 O   0  0  0  0  0  0  0  0  0  0  0  0
   -1.2736   -0.9704    0.1241 N   0  0  0  0  0  0  0  0  0  0  0  0
   -2.0996   -0.4354   -0.1019 H   0  0  0  0  0  0  0  0  0  0  0  0
   -0.0016   -0.2394    0.1271 C   0  0  1  0  0  0  0  0  0  0  0  0
    0.6995   -0.7619   -0.5275 H   0  0  0  0  0  0  0  0  0  0  0  0
   -0.2283    1.1832   -0.4215 C   0  0  0  0  0  0  0  0  0  0  0  0
    0.6840    1.5356   -0.9043 H   0  0  0  0  0  0  0  0  0  0  0  0
   -1.0193    1.1656   -1.1721 H   0  0  0  0  0  0  0  0  0  0  0  0
   -0.5835    2.2007    0.6584 C   0  0  0  0  0  0  0  0  0  0  0  0
   -1.7154    2.4731    1.0361 O   0  0  0  0  0  0  0  0  0  0  0  0
    0.4708    2.8322    1.2077 O   0  0  0  0  0  0  0  0  0  0  0  0
    0.1084    3.4180    1.8730 H   0  0  0  0  0  0  0  0  0  0  0  0
    0.5920   -0.2154    1.5497 C   0  0  0  0  0  0  0  0  0  0  0  0
    1.7860   -0.4596    1.7183 O   0  0  0  0  0  0  0  0  0  0  0  0
   -0.2294    0.0669    2.5672 N   0  0  0  0  0  0  0  0  0  0  0  0
   -1.2130    0.1938    2.3518 H   0  0  0  0  0  0  0  0  0  0  0  0
    0.1836    0.1337    3.9673 C   0  0  0  0  0  0  0  0  0  0  0  0
    1.0451    0.7976    4.0666 H   0  0  0  0  0  0  0  0  0  0  0  0
   -0.6344    0.5115    4.5820 H   0  0  0  0  0  0  0  0  0  0  0  0
    0.4676   -0.8609    4.3157 H   0  0  0  0  0  0  0  0  0  0  0  0
  5  6  2  0  0  0  0
  5  7  1  0  0  0  0
  2  3  1  0  0  0  0
  2  4  1  0  0  0  0
  2  5  1  0  0  0  0
  1  2  1  0  0  0  0
 18 19  2  0  0  0  0
 18 20  1  0  0  0  0
 16 17  1  0  0  0  0
 14 15  2  0  0  0  0
 14 16  1  0  0  0  0
 11 12  1  0  0  0  0
 11 13  1  0  0  0  0
 11 14  1  0  0  0  0
  9 10  1  0  0  0  0
  9 11  1  0  0  0  0
  9 18  1  0  0  0  0
  7  8  1  0  0  0  0
  7  9  1  0  0  0  0
 22 23  1  0  0  0  0
 22 24  1  0  0  0  0
 22 25  1  0  0  0  0
 20 21  1  0  0  0  0
 20 22  1  0  0  0  0
M  END
$$$$
default_name
  -OEChem-02102213163D

 25 24  0     1  0  0  0  0  0999 V2000
   -2.7826   -3.8464    0.7821 H   0  0  0  0  0  0  0  0  0  0  0  0
   -2.8156   -2.8034    0.4711 C   0  0  0  0  0  0  0  0  0  0  0  0
   -3.4336   -2.2354    1.1641 H   0  0  0  0  0  0  0  0  0  0  0  0
   -3.2256   -2.7344   -0.5349 H   0  0  0  0  0  0  0  0  0  0  0  0
   -1.4126   -2.2444    0.4801 C   0  0  0  0  0  0  0  0  0  0  0  0
   -0.4686   -2.9534    0.8001 O   0  0  0  0  0  0  0  0  0  0  0  0
   -1.2736   -0.9704    0.1241 N   0  0  0  0  0  0  0  0  0  0  0  0
   -2.0996   -0.4354   -0.1019 H   0  0  0  0  0  0  0  0  0  0  0  0
   -0.0016   -0.2394    0.1271 C   0  0  1  0  0  0  0  0  0  0  0  0
    0.6995   -0.7619   -0.5275 H   0  0  0  0  0  0  0  0  0  0  0  0
   -0.2283    1.1832   -0.4215 C   0  0  0  0  0  0  0  0  0  0  0  0
    0.6840    1.5356   -0.9043 H   0  0  0  0  0  0  0  0  0  0  0  0
   -1.0193    1.1656   -1.1721 H   0  0  0  0  0  0  0  0  0  0  0  0
   -0.5835    2.2007    0.6584 C   0  0  0  0  0  0  0  0  0  0  0  0
   -1.6672    2.2954    1.2194 O   0  0  0  0  0  0  0  0  0  0  0  0
    0.4095    3.0498    0.9826 O   0  0  0  0  0  0  0  0  0  0  0  0
    0.0595    3.6108    1.6753 H   0  0  0  0  0  0  0  0  0  0  0  0
    0.5920   -0.2154    1.5497 C   0  0  0  0  0  0  0  0  0  0  0  0
    1.7860   -0.4596    1.7183 O   0  0  0  0  0  0  0  0  0  0  0  0
   -0.2294    0.0669    2.5672 N   0  0  0  0  0  0  0  0  0  0  0  0
   -1.2130    0.1938    2.3518 H   0  0  0  0  0  0  0  0  0  0  0  0
    0.1836    0.1337    3.9673 C   0  0  0  0  0  0  0  0  0  0  0  0
    1.0451    0.7976    4.0666 H   0  0  0  0  0  0  0  0  0  0  0  0
   -0.6344    0.5115    4.5820 H   0  0  0  0  0  0  0  0  0  0  0  0
    0.4676   -0.8609    4.3157 H   0  0  0  0  0  0  0  0  0  0  0  0
  5  6  2  0  0  0  0
  5  7  1  0  0  0  0
  2  3  1  0  0  0  0
  2  4  1  0  0  0  0
  2  5  1  0  0  0  0
  1  2  1  0  0  0  0
 18 19  2  0  0  0  0
 18 20  1  0  0  0  0
 16 17  1  0  0  0  0
 14 15  2  0  0  0  0
 14 16  1  0  0  0  0
 11 12  1  0  0  0  0
 11 13  1  0  0  0  0
 11 14  1  0  0  0  0
  9 10  1  0  0  0  0
  9 11  1  0  0  0  0
  9 18  1  0  0  0  0
  7  8  1  0  0  0  0
  7  9  1  0  0  0  0
 22 23  1  0  0  0  0
 22 24  1  0  0  0  0
 22 25  1  0  0  0  0
 20 21  1  0  0  0  0
 20 22  1  0  0  0  0
M  END
$$$$
default_name
  -OEChem-02102213163D

 25 24  0     1  0  0  0  0  0999 V2000
   -2.7826   -3.8464    0.7821 H   0  0  0  0  0  0  0  0  0  0  0  0
   -2.8156   -2.8034    0.4711 C   0  0  0  0  0  0  0  0  0  0  0  0
   -3.4336   -2.2354    1.1641 H   0  0  0  0  0  0  0  0  0  0  0  0
   -3.2256   -2.7344   -0.5349 H   0  0  0  0  0  0  0  0  0  0  0  0
   -1.4126   -2.2444    0.4801 C   0  0  0  0  0  0  0  0  0  0  0  0
   -0.4686   -2.9534    0.8001 O   0  0  0  0  0  0  0  0  0  0  0  0
   -1.2736   -0.9704    0.1241 N   0  0  0  0  0  0  0  0  0  0  0  0
   -2.0996   -0.4354   -0.1019 H   0  0  0  0  0  0  0  0  0  0  0  0
   -0.0016   -0.2394    0.1271 C   0  0  1  0  0  0  0  0  0  0  0  0
    0.6995   -0.7619   -0.5275 H   0  0  0  0  0  0  0  0  0  0  0  0
   -0.2283    1.1832   -0.4215 C   0  0  0  0  0  0  0  0  0  0  0  0
    0.6840    1.5356   -0.9043 H   0  0  0  0  0  0  0  0  0  0  0  0
   -1.0193    1.1656   -1.1721 H   0  0  0  0  0  0  0  0  0  0  0  0
   -0.5835    2.2007    0.6584 C   0  0  0  0  0  0  0  0  0  0  0  0
   -1.5565    2.1436    1.3989 O   0  0  0  0  0  0  0  0  0  0  0  0
    0.2716    3.2351    0.7626 O   0  0  0  0  0  0  0  0  0  0  0  0
   -0.0572    3.7761    1.4812 H   0  0  0  0  0  0  0  0  0  0  0  0
    0.5920   -0.2154    1.5497 C   0  0  0  0  0  0  0  0  0  0  0  0
    1.7860   -0.4596    1.7183 O   0  0  0  0  0  0  0  0  0  0  0  0
   -0.2294    0.0669    2.5672 N   0  0  0  0  0  0  0  0  0  0  0  0
   -1.2130    0.1938    2.3518 H   0  0  0  0  0  0  0  0  0  0  0  0
    0.1836    0.1337    3.9673 C   0  0  0  0  0  0  0  0  0  0  0  0
    1.0451    0.7976    4.0666 H   0  0  0  0  0  0  0  0  0  0  0  0
   -0.6344    0.5115    4.5820 H   0  0  0  0  0  0  0  0  0  0  0  0
    0.4676   -0.8609    4.3157 H   0  0  0  0  0  0  0  0  0  0  0  0
  5  6  2  0  0  0  0
  5  7  1  0  0  0  0
  2  3  1  0  0  0  0
  2  4  1  0  0  0  0
  2  5  1  0  0  0  0
  1  2  1  0  0  0  0
 18 19  2  0  0  0  0
 18 20  1  0  0  0  0
 16 17  1  0  0  0  0
 14 15  2  0  0  0  0
 14 16  1  0  0  0  0
 11 12  1  0  0  0  0
 11 13  1  0  0  0  0
 11 14  1  0  0  0  0
  9 10  1  0  0  0  0
  9 11  1  0  0  0  0
  9 18  1  0  0  0  0
  7  8  1  0  0  0  0
  7  9  1  0  0  0  0
 22 23  1  0  0  0  0
 22 24  1  0  0  0  0
 22 25  1  0  0  0  0
 20 21  1  0  0  0  0
 20 22  1  0  0  0  0
M  END
$$$$
default_name
  -OEChem-02102213163D

 25 24  0     1  0  0  0  0  0999 V2000
   -2.7826   -3.8464    0.7821 H   0  0  0  0  0  0  0  0  0  0  0  0
   -2.8156   -2.8034    0.4711 C   0  0  0  0  0  0  0  0  0  0  0  0
   -3.4336   -2.2354    1.1641 H   0  0  0  0  0  0  0  0  0  0  0  0
   -3.2256   -2.7344   -0.5349 H   0  0  0  0  0  0  0  0  0  0  0  0
   -1.4126   -2.2444    0.4801 C   0  0  0  0  0  0  0  0  0  0  0  0
   -0.4686   -2.9534    0.8001 O   0  0  0  0  0  0  0  0  0  0  0  0
   -1.2736   -0.9704    0.1241 N   0  0  0  0  0  0  0  0  0  0  0  0
   -2.0996   -0.4354   -0.1019 H   0  0  0  0  0  0  0  0  0  0  0  0
   -0.0016   -0.2394    0.1271 C   0  0  1  0  0  0  0  0  0  0  0  0
    0.6995   -0.7619   -0.5275 H   0  0  0  0  0  0  0  0  0  0  0  0
   -0.2283    1.1832   -0.4215 C   0  0  0  0  0  0  0  0  0  0  0  0
    0.6840    1.5356   -0.9043 H   0  0  0  0  0  0  0  0  0  0  0  0
   -1.0193    1.1656   -1.1721 H   0  0  0  0  0  0  0  0  0  0  0  0
   -0.5835    2.2007    0.6584 C   0  0  0  0  0  0  0  0  0  0  0  0
   -1.3907    2.0281    1.5622 O   0  0  0  0  0  0  0  0  0  0  0  0
    0.0665    3.3756    0.5627 O   0  0  0  0  0  0  0  0  0  0  0  0
   -0.2337    3.9027    1.3038 H   0  0  0  0  0  0  0  0  0  0  0  0
    0.5920   -0.2154    1.5497 C   0  0  0  0  0  0  0  0  0  0  0  0
    1.7860   -0.4596    1.7183 O   0  0  0  0  0  0  0  0  0  0  0  0
   -0.2294    0.0669    2.5672 N   0  0  0  0  0  0  0  0  0  0  0  0
   -1.2130    0.1938    2.3518 H   0  0  0  0  0  0  0  0  0  0  0  0
    0.1836    0.1337    3.9673 C   0  0  0  0  0  0  0  0  0  0  0  0
    1.0451    0.7976    4.0666 H   0  0  0  0  0  0  0  0  0  0  0  0
   -0.6344    0.5115    4.5820 H   0  0  0  0  0  0  0  0  0  0  0  0
    0.4676   -0.8609    4.3157 H   0  0  0  0  0  0  0  0  0  0  0  0
  5  6  2  0  0  0  0
  5  7  1  0  0  0  0
  2  3  1  0  0  0  0
  2  4  1  0  0  0  0
  2  5  1  0  0  0  0
  1  2  1  0  0  0  0
 18 19  2  0  0  0  0
 18 20  1  0  0  0  0
 16 17  1  0  0  0  0
 14 15  2  0  0  0  0
 14 16  1  0  0  0  0
 11 12  1  0  0  0  0
 11 13  1  0  0  0  0
 11 14  1  0  0  0  0
  9 10  1  0  0  0  0
  9 11  1  0  0  0  0
  9 18  1  0  0  0  0
  7  8  1  0  0  0  0
  7  9  1  0  0  0  0
 22 23  1  0  0  0  0
 22 24  1  0  0  0  0
 22 25  1  0  0  0  0
 20 21  1  0  0  0  0
 20 22  1  0  0  0  0
M  END
$$$$
default_name
  -OEChem-02102213163D

 25 24  0     1  0  0  0  0  0999 V2000
   -2.7826   -3.8464    0.7821 H   0  0  0  0  0  0  0  0  0  0  0  0
   -2.8156   -2.8034    0.4711 C   0  0  0  0  0  0  0  0  0  0  0  0
   -3.4336   -2.2354    1.1641 H   0  0  0  0  0  0  0  0  0  0  0  0
   -3.2256   -2.7344   -0.5349 H   0  0  0  0  0  0  0  0  0  0  0  0
   -1.4126   -2.2444    0.4801 C   0  0  0  0  0  0  0  0  0  0  0  0
   -0.4686   -2.9534    0.8001 O   0  0  0  0  0  0  0  0  0  0  0  0
   -1.2736   -0.9704    0.1241 N   0  0  0  0  0  0  0  0  0  0  0  0
   -2.0996   -0.4354   -0.1019 H   0  0  0  0  0  0  0  0  0  0  0  0
   -0.0016   -0.2394    0.1271 C   0  0  1  0  0  0  0  0  0  0  0  0
    0.6995   -0.7619   -0.5275 H   0  0  0  0  0  0  0  0  0  0  0  0
   -0.2283    1.1832   -0.4215 C   0  0  0  0  0  0  0  0  0  0  0  0
    0.6840    1.5356   -0.9043 H   0  0  0  0  0  0  0  0  0  0  0  0
   -1.0193    1.1656   -1.1721 H   0  0  0  0  0  0  0  0  0  0  0  0
   -0.5835    2.2007    0.6584 C   0  0  0  0  0  0  0  0  0  0  0  0
   -1.1812    1.9567    1.6983 O   0  0  0  0  0  0  0  0  0  0  0  0
   -0.1919    3.4617    0.3966 O   0  0  0  0  0  0  0  0  0  0  0  0
   -0.4580    3.9820    1.1554 H   0  0  0  0  0  0  0  0  0  0  0  0
    0.5920   -0.2154    1.5497 C   0  0  0  0  0  0  0  0  0  0  0  0
    1.7860   -0.4596    1.7183 O   0  0  0  0  0  0  0  0  0  0  0  0
   -0.2294    0.0669    2.5672 N   0  0  0  0  0  0  0  0  0  0  0  0
   -1.2130    0.1938    2.3518 H   0  0  0  0  0  0  0  0  0  0  0  0
    0.1836    0.1337    3.9673 C   0  0  0  0  0  0  0  0  0  0  0  0
    1.0451    0.7976    4.0666 H   0  0  0  0  0  0  0  0  0  0  0  0
   -0.6344    0.5115    4.5820 H   0  0  0  0  0  0  0  0  0  0  0  0
    0.4676   -0.8609    4.3157 H   0  0  0  0  0  0  0  0  0  0  0  0
  5  6  2  0  0  0  0
  5  7  1  0  0  0  0
  2  3  1  0  0  0  0
  2  4  1  0  0  0  0
  2  5  1  0  0  0  0
  1  2  1  0  0  0  0
 18 19  2  0  0  0  0
 18 20  1  0  0  0  0
 16 17  1  0  0  0  0
 14 15  2  0  0  0  0
 14 16  1  0  0  0  0
 11 12  1  0  0  0  0
 11 13  1  0  0  0  0
 11 14  1  0  0  0  0
  9 10  1  0  0  0  0
  9 11  1  0  0  0  0
  9 18  1  0  0  0  0
  7  8  1  0  0  0  0
  7  9  1  0  0  0  0
 22 23  1  0  0  0  0
 22 24  1  0  0  0  0
 22 25  1  0  0  0  0
 20 21  1  0  0  0  0
 20 22  1  0  0  0  0
M  END
$$$$
default_name
  -OEChem-02102213163D

 25 24  0     1  0  0  0  0  0999 V2000
   -2.7826   -3.8464    0.7821 H   0  0  0  0  0  0  0  0  0  0  0  0
   -2.8156   -2.8034    0.4711 C   0  0  0  0  0  0  0  0  0  0  0  0
   -3.4336   -2.2354    1.1641 H   0  0  0  0  0  0  0  0  0  0  0  0
   -3.2256   -2.7344   -0.5349 H   0  0  0  0  0  0  0  0  0  0  0  0
   -1.4126   -2.2444    0.4801 C   0  0  0  0  0  0  0  0  0  0  0  0
   -0.4686   -2.9534    0.8001 O   0  0  0  0  0  0  0  0  0  0  0  0
   -1.2736   -0.9704    0.1241 N   0  0  0  0  0  0  0  0  0  0  0  0
   -2.0996   -0.4354   -0.1019 H   0  0  0  0  0  0  0  0  0  0  0  0
   -0.0016   -0.2394    0.1271 C   0  0  1  0  0  0  0  0  0  0  0  0
    0.6995   -0.7619   -0.5275 H   0  0  0  0  0  0  0  0  0  0  0  0
   -0.2283    1.1832   -0.4215 C   0  0  0  0  0  0  0  0  0  0  0  0
    0.6840    1.5356   -0.9043 H   0  0  0  0  0  0  0  0  0  0  0  0
   -1.0193    1.1656   -1.1721 H   0  0  0  0  0  0  0  0  0  0  0  0
   -0.5835    2.2007    0.6584 C   0  0  0  0  0  0  0  0  0  0  0  0
   -0.9423    1.9344    1.7980 O   0  0  0  0  0  0  0  0  0  0  0  0
   -0.4859    3.4875    0.2756 O   0  0  0  0  0  0  0  0  0  0  0  0
   -0.7149    4.0086    1.0459 H   0  0  0  0  0  0  0  0  0  0  0  0
    0.5920   -0.2154    1.5497 C   0  0  0  0  0  0  0  0  0  0  0  0
    1.7860   -0.4596    1.7183 O   0  0  0  0  0  0  0  0  0  0  0  0
   -0.2294    0.0669    2.5672 N   0  0  0  0  0  0  0  0  0  0  0  0
   -1.2130    0.1938    2.3518 H   0  0  0  0  0  0  0  0  0  0  0  0
    0.1836    0.1337    3.9673 C   0  0  0  0  0  0  0  0  0  0  0  0
    1.0451    0.7976    4.0666 H   0  0  0  0  0  0  0  0  0  0  0  0
   -0.6344    0.5115    4.5820 H   0  0  0  0  0  0  0  0  0  0  0  0
    0.4676   -0.8609    4.3157 H   0  0  0  0  0  0  0  0  0  0  0  0
  5  6  2  0  0  0  0
  5  7  1  0  0  0  0
  2  3  1  0  0  0  0
  2  4  1  0  0  0  0
  2  5  1  0  0  0  0
  1  2  1  0  0  0  0
 18 19  2  0  0  0  0
 18 20  1  0  0  0  0
 16 17  1  0  0  0  0
 14 15  2  0  0  0  0
 14 16  1  0  0  0  0
 11 12  1  0  0  0  0
 11 13  1  0  0  0  0
 11 14  1  0  0  0  0
  9 10  1  0  0  0  0
  9 11  1  0  0  0  0
  9 18  1  0  0  0  0
  7  8  1  0  0  0  0
  7  9  1  0  0  0  0
 22 23  1  0  0  0  0
 22 24  1  0  0  0  0
 22 25  1  0  0  0  0
 20 21  1  0  0  0  0
 20 22  1  0  0  0  0
M  END
$$$$
default_name
  -OEChem-02102213163D

 25 24  0     1  0  0  0  0  0999 V2000
   -2.7826   -3.8464    0.7821 H   0  0  0  0  0  0  0  0  0  0  0  0
   -2.8156   -2.8034    0.4711 C   0  0  0  0  0  0  0  0  0  0  0  0
   -3.4336   -2.2354    1.1641 H   0  0  0  0  0  0  0  0  0  0  0  0
   -3.2256   -2.7344   -0.5349 H   0  0  0  0  0  0  0  0  0  0  0  0
   -1.4126   -2.2444    0.4801 C   0  0  0  0  0  0  0  0  0  0  0  0
   -0.4686   -2.9534    0.8001 O   0  0  0  0  0  0  0  0  0  0  0  0
   -1.2736   -0.9704    0.1241 N   0  0  0  0  0  0  0  0  0  0  0  0
   -2.0996   -0.4354   -0.1019 H   0  0  0  0  0  0  0  0  0  0  0  0
   -0.0016   -0.2394    0.1271 C   0  0  1  0  0  0  0  0  0  0  0  0
    0.6995   -0.7619   -0.5275 H   0  0  0  0  0  0  0  0  0  0  0  0
   -0.2283    1.1832   -0.4215 C   0  0  0  0  0  0  0  0  0  0  0  0
    0.6840    1.5356   -0.9043 H   0  0  0  0  0  0  0  0  0  0  0  0
   -1.0193    1.1656   -1.1721 H   0  0  0  0  0  0  0  0  0  0  0  0
   -0.5835    2.2007    0.6584 C   0  0  0  0  0  0  0  0  0  0  0  0
   -0.6903    1.9626    1.8543 O   0  0  0  0  0  0  0  0  0  0  0  0
   -0.7956    3.4513    0.2079 O   0  0  0  0  0  0  0  0  0  0  0  0
   -0.9867    3.9806    0.9829 H   0  0  0  0  0  0  0  0  0  0  0  0
    0.5920   -0.2154    1.5497 C   0  0  0  0  0  0  0  0  0  0  0  0
    1.7860   -0.4596    1.7183 O   0  0  0  0  0  0  0  0  0  0  0  0
   -0.2294    0.0669    2.5672 N   0  0  0  0  0  0  0  0  0  0  0  0
   -1.2130    0.1938    2.3518 H   0  0  0  0  0  0  0  0  0  0  0  0
    0.1836    0.1337    3.9673 C   0  0  0  0  0  0  0  0  0  0  0  0
    1.0451    0.7976    4.0666 H   0  0  0  0  0  0  0  0  0  0  0  0
   -0.6344    0.5115    4.5820 H   0  0  0  0  0  0  0  0  0  0  0  0
    0.4676   -0.8609    4.3157 H   0  0  0  0  0  0  0  0  0  0  0  0
  5  6  2  0  0  0  0
  5  7  1  0  0  0  0
  2  3  1  0  0  0  0
  2  4  1  0  0  0  0
  2  5  1  0  0  0  0
  1  2  1  0  0  0  0
 18 19  2  0  0  0  0
 18 20  1  0  0  0  0
 16 17  1  0  0  0  0
 14 15  2  0  0  0  0
 14 16  1  0  0  0  0
 11 12  1  0  0  0  0
 11 13  1  0  0  0  0
 11 14  1  0  0  0  0
  9 10  1  0  0  0  0
  9 11  1  0  0  0  0
  9 18  1  0  0  0  0
  7  8  1  0  0  0  0
  7  9  1  0  0  0  0
 22 23  1  0  0  0  0
 22 24  1  0  0  0  0
 22 25  1  0  0  0  0
 20 21  1  0  0  0  0
 20 22  1  0  0  0  0
M  END
$$$$
default_name
  -OEChem-02102213163D

 25 24  0     1  0  0  0  0  0999 V2000
   -2.7826   -3.8464    0.7821 H   0  0  0  0  0  0  0  0  0  0  0  0
   -2.8156   -2.8034    0.4711 C   0  0  0  0  0  0  0  0  0  0  0  0
   -3.4336   -2.2354    1.1641 H   0  0  0  0  0  0  0  0  0  0  0  0
   -3.2256   -2.7344   -0.5349 H   0  0  0  0  0  0  0  0  0  0  0  0
   -1.4126   -2.2444    0.4801 C   0  0  0  0  0  0  0  0  0  0  0  0
   -0.4686   -2.9534    0.8001 O   0  0  0  0  0  0  0  0  0  0  0  0
   -1.2736   -0.9704    0.1241 N   0  0  0  0  0  0  0  0  0  0  0  0
   -2.0996   -0.4354   -0.1019 H   0  0  0  0  0  0  0  0  0  0  0  0
   -0.0016   -0.2394    0.1271 C   0  0  1  0  0  0  0  0  0  0  0  0
    0.6995   -0.7619   -0.5275 H   0  0  0  0  0  0  0  0  0  0  0  0
   -0.2283    1.1832   -0.4215 C   0  0  0  0  0  0  0  0  0  0  0  0
    0.6840    1.5356   -0.9043 H   0  0  0  0  0  0  0  0  0  0  0  0
   -1.0193    1.1656   -1.1721 H   0  0  0  0  0  0  0  0  0  0  0  0
   -0.5835    2.2007    0.6584 C   0  0  0  0  0  0  0  0  0  0  0  0
   -0.4422    2.0393    1.8635 O   0  0  0  0  0  0  0  0  0  0  0  0
   -1.0997    3.3555    0.1982 O   0  0  0  0  0  0  0  0  0  0  0  0
   -1.2550    3.8999    0.9706 H   0  0  0  0  0  0  0  0  0  0  0  0
    0.5920   -0.2154    1.5497 C   0  0  0  0  0  0  0  0  0  0  0  0
    1.7860   -0.4596    1.7183 O   0  0  0  0  0  0  0  0  0  0  0  0
   -0.2294    0.0669    2.5672 N   0  0  0  0  0  0  0  0  0  0  0  0
   -1.2130    0.1938    2.3518 H   0  0  0  0  0  0  0  0  0  0  0  0
    0.1836    0.1337    3.9673 C   0  0  0  0  0  0  0  0  0  0  0  0
    1.0451    0.7976    4.0666 H   0  0  0  0  0  0  0  0  0  0  0  0
   -0.6344    0.5115    4.5820 H   0  0  0  0  0  0  0  0  0  0  0  0
    0.4676   -0.8609    4.3157 H   0  0  0  0  0  0  0  0  0  0  0  0
  5  6  2  0  0  0  0
  5  7  1  0  0  0  0
  2  3  1  0  0  0  0
  2  4  1  0  0  0  0
  2  5  1  0  0  0  0
  1  2  1  0  0  0  0
 18 19  2  0  0  0  0
 18 20  1  0  0  0  0
 16 17  1  0  0  0  0
 14 15  2  0  0  0  0
 14 16  1  0  0  0  0
 11 12  1  0  0  0  0
 11 13  1  0  0  0  0
 11 14  1  0  0  0  0
  9 10  1  0  0  0  0
  9 11  1  0  0  0  0
  9 18  1  0  0  0  0
  7  8  1  0  0  0  0
  7  9  1  0  0  0  0
 22 23  1  0  0  0  0
 22 24  1  0  0  0  0
 22 25  1  0  0  0  0
 20 21  1  0  0  0  0
 20 22  1  0  0  0  0
M  END
$$$$
default_name
  -OEChem-02102213163D

 25 24  0     1  0  0  0  0  0999 V2000
   -2.7826   -3.8464    0.7821 H   0  0  0  0  0  0  0  0  0  0  0  0
   -2.8156   -2.8034    0.4711 C   0  0  0  0  0  0  0  0  0  0  0  0
   -3.4336   -2.2354    1.1641 H   0  0  0  0  0  0  0  0  0  0  0  0
   -3.2256   -2.7344   -0.5349 H   0  0  0  0  0  0  0  0  0  0  0  0
   -1.4126   -2.2444    0.4801 C   0  0  0  0  0  0  0  0  0  0  0  0
   -0.4686   -2.9534    0.8001 O   0  0  0  0  0  0  0  0  0  0  0  0
   -1.2736   -0.9704    0.1241 N   0  0  0  0  0  0  0  0  0  0  0  0
   -2.0996   -0.4354   -0.1019 H   0  0  0  0  0  0  0  0  0  0  0  0
   -0.0016   -0.2394    0.1271 C   0  0  1  0  0  0  0  0  0  0  0  0
    0.6995   -0.7619   -0.5275 H   0  0  0  0  0  0  0  0  0  0  0  0
   -0.2283    1.1832   -0.4215 C   0  0  0  0  0  0  0  0  0  0  0  0
    0.6840    1.5356   -0.9043 H   0  0  0  0  0  0  0  0  0  0  0  0
   -1.0193    1.1656   -1.1721 H   0  0  0  0  0  0  0  0  0  0  0  0
   -0.5835    2.2007    0.6584 C   0  0  0  0  0  0  0  0  0  0  0  0
   -0.2151    2.1595    1.8250 O   0  0  0  0  0  0  0  0  0  0  0  0
   -1.3776    3.2067    0.2470 O   0  0  0  0  0  0  0  0  0  0  0  0
   -1.5015    3.7721    1.0100 H   0  0  0  0  0  0  0  0  0  0  0  0
    0.5920   -0.2154    1.5497 C   0  0  0  0  0  0  0  0  0  0  0  0
    1.7860   -0.4596    1.7183 O   0  0  0  0  0  0  0  0  0  0  0  0
   -0.2294    0.0669    2.5672 N   0  0  0  0  0  0  0  0  0  0  0  0
   -1.2130    0.1938    2.3518 H   0  0  0  0  0  0  0  0  0  0  0  0
    0.1836    0.1337    3.9673 C   0  0  0  0  0  0  0  0  0  0  0  0
    1.0451    0.7976    4.0666 H   0  0  0  0  0  0  0  0  0  0  0  0
   -0.6344    0.5115    4.5820 H   0  0  0  0  0  0  0  0  0  0  0  0
    0.4676   -0.8609    4.3157 H   0  0  0  0  0  0  0  0  0  0  0  0
  5  6  2  0  0  0  0
  5  7  1  0  0  0  0
  2  3  1  0  0  0  0
  2  4  1  0  0  0  0
  2  5  1  0  0  0  0
  1  2  1  0  0  0  0
 18 19  2  0  0  0  0
 18 20  1  0  0  0  0
 16 17  1  0  0  0  0
 14 15  2  0  0  0  0
 14 16  1  0  0  0  0
 11 12  1  0  0  0  0
 11 13  1  0  0  0  0
 11 14  1  0  0  0  0
  9 10  1  0  0  0  0
  9 11  1  0  0  0  0
  9 18  1  0  0  0  0
  7  8  1  0  0  0  0
  7  9  1  0  0  0  0
 22 23  1  0  0  0  0
 22 24  1  0  0  0  0
 22 25  1  0  0  0  0
 20 21  1  0  0  0  0
 20 22  1  0  0  0  0
M  END
$$$$
default_name
  -OEChem-02102213163D

 25 24  0     1  0  0  0  0  0999 V2000
   -2.7826   -3.8464    0.7821 H   0  0  0  0  0  0  0  0  0  0  0  0
   -2.8156   -2.8034    0.4711 C   0  0  0  0  0  0  0  0  0  0  0  0
   -3.4336   -2.2354    1.1641 H   0  0  0  0  0  0  0  0  0  0  0  0
   -3.2256   -2.7344   -0.5349 H   0  0  0  0  0  0  0  0  0  0  0  0
   -1.4126   -2.2444    0.4801 C   0  0  0  0  0  0  0  0  0  0  0  0
   -0.4686   -2.9534    0.8001 O   0  0  0  0  0  0  0  0  0  0  0  0
   -1.2736   -0.9704    0.1241 N   0  0  0  0  0  0  0  0  0  0  0  0
   -2.0996   -0.4354   -0.1019 H   0  0  0  0  0  0  0  0  0  0  0  0
   -0.0016   -0.2394    0.1271 C   0  0  1  0  0  0  0  0  0  0  0  0
    0.6995   -0.7619   -0.5275 H   0  0  0  0  0  0  0  0  0  0  0  0
   -0.2283    1.1832   -0.4215 C   0  0  0  0  0  0  0  0  0  0  0  0
    0.6840    1.5356   -0.9043 H   0  0  0  0  0  0  0  0  0  0  0  0
   -1.0193    1.1656   -1.1721 H   0  0  0  0  0  0  0  0  0  0  0  0
   -0.5835    2.2007    0.6584 C   0  0  0  0  0  0  0  0  0  0  0  0
   -0.0244    2.3149    1.7414 O   0  0  0  0  0  0  0  0  0  0  0  0
   -1.6103    3.0150    0.3511 O   0  0  0  0  0  0  0  0  0  0  0  0
   -1.7094    3.6059    1.0982 H   0  0  0  0  0  0  0  0  0  0  0  0
    0.5920   -0.2154    1.5497 C   0  0  0  0  0  0  0  0  0  0  0  0
    1.7860   -0.4596    1.7183 O   0  0  0  0  0  0  0  0  0  0  0  0
   -0.2294    0.0669    2.5672 N   0  0  0  0  0  0  0  0  0  0  0  0
   -1.2130    0.1938    2.3518 H   0  0  0  0  0  0  0  0  0  0  0  0
    0.1836    0.1337    3.9673 C   0  0  0  0  0  0  0  0  0  0  0  0
    1.0451    0.7976    4.0666 H   0  0  0  0  0  0  0  0  0  0  0  0
   -0.6344    0.5115    4.5820 H   0  0  0  0  0  0  0  0  0  0  0  0
    0.4676   -0.8609    4.3157 H   0  0  0  0  0  0  0  0  0  0  0  0
  5  6  2  0  0  0  0
  5  7  1  0  0  0  0
  2  3  1  0  0  0  0
  2  4  1  0  0  0  0
  2  5  1  0  0  0  0
  1  2  1  0  0  0  0
 18 19  2  0  0  0  0
 18 20  1  0  0  0  0
 16 17  1  0  0  0  0
 14 15  2  0  0  0  0
 14 16  1  0  0  0  0
 11 12  1  0  0  0  0
 11 13  1  0  0  0  0
 11 14  1  0  0  0  0
  9 10  1  0  0  0  0
  9 11  1  0  0  0  0
  9 18  1  0  0  0  0
  7  8  1  0  0  0  0
  7  9  1  0  0  0  0
 22 23  1  0  0  0  0
 22 24  1  0  0  0  0
 22 25  1  0  0  0  0
 20 21  1  0  0  0  0
 20 22  1  0  0  0  0
M  END
$$$$
default_name
  -OEChem-02102213163D

 25 24  0     1  0  0  0  0  0999 V2000
   -2.7826   -3.8464    0.7821 H   0  0  0  0  0  0  0  0  0  0  0  0
   -2.8156   -2.8034    0.4711 C   0  0  0  0  0  0  0  0  0  0  0  0
   -3.4336   -2.2354    1.1641 H   0  0  0  0  0  0  0  0  0  0  0  0
   -3.2256   -2.7344   -0.5349 H   0  0  0  0  0  0  0  0  0  0  0  0
   -1.4126   -2.2444    0.4801 C   0  0  0  0  0  0  0  0  0  0  0  0
   -0.4686   -2.9534    0.8001 O   0  0  0  0  0  0  0  0  0  0  0  0
   -1.2736   -0.9704    0.1241 N   0  0  0  0  0  0  0  0  0  0  0  0
   -2.0996   -0.4354   -0.1019 H   0  0  0  0  0  0  0  0  0  0  0  0
   -0.0016   -0.2394    0.1271 C   0  0  1  0  0  0  0  0  0  0  0  0
    0.6995   -0.7619   -0.5275 H   0  0  0  0  0  0  0  0  0  0  0  0
   -0.2283    1.1832   -0.4215 C   0  0  0  0  0  0  0  0  0  0  0  0
    0.6840    1.5356   -0.9043 H   0  0  0  0  0  0  0  0  0  0  0  0
   -1.0193    1.1656   -1.1721 H   0  0  0  0  0  0  0  0  0  0  0  0
   -0.5835    2.2007    0.6584 C   0  0  0  0  0  0  0  0  0  0  0  0
    0.1169    2.4948    1.6183 O   0  0  0  0  0  0  0  0  0  0  0  0
   -1.7820    2.7934    0.5034 O   0  0  0  0  0  0  0  0  0  0  0  0
   -1.8645    3.4125    1.2294 H   0  0  0  0  0  0  0  0  0  0  0  0
    0.5920   -0.2154    1.5497 C   0  0  0  0  0  0  0  0  0  0  0  0
    1.7860   -0.4596    1.7183 O   0  0  0  0  0  0  0  0  0  0  0  0
   -0.2294    0.0669    2.5672 N   0  0  0  0  0  0  0  0  0  0  0  0
   -1.2130    0.1938    2.3518 H   0  0  0  0  0  0  0  0  0  0  0  0
    0.1836    0.1337    3.9673 C   0  0  0  0  0  0  0  0  0  0  0  0
    1.0451    0.7976    4.0666 H   0  0  0  0  0  0  0  0  0  0  0  0
   -0.6344    0.5115    4.5820 H   0  0  0  0  0  0  0  0  0  0  0  0
    0.4676   -0.8609    4.3157 H   0  0  0  0  0  0  0  0  0  0  0  0
  5  6  2  0  0  0  0
  5  7  1  0  0  0  0
  2  3  1  0  0  0  0
  2  4  1  0  0  0  0
  2  5  1  0  0  0  0
  1  2  1  0  0  0  0
 18 19  2  0  0  0  0
 18 20  1  0  0  0  0
 16 17  1  0  0  0  0
 14 15  2  0  0  0  0
 14 16  1  0  0  0  0
 11 12  1  0  0  0  0
 11 13  1  0  0  0  0
 11 14  1  0  0  0  0
  9 10  1  0  0  0  0
  9 11  1  0  0  0  0
  9 18  1  0  0  0  0
  7  8  1  0  0  0  0
  7  9  1  0  0  0  0
 22 23  1  0  0  0  0
 22 24  1  0  0  0  0
 22 25  1  0  0  0  0
 20 21  1  0  0  0  0
 20 22  1  0  0  0  0
M  END
$$$$
default_name
  -OEChem-02102213163D

 25 24  0     1  0  0  0  0  0999 V2000
   -2.7826   -3.8464    0.7821 H   0  0  0  0  0  0  0  0  0  0  0  0
   -2.8156   -2.8034    0.4711 C   0  0  0  0  0  0  0  0  0  0  0  0
   -3.4336   -2.2354    1.1641 H   0  0  0  0  0  0  0  0  0  0  0  0
   -3.2256   -2.7344   -0.5349 H   0  0  0  0  0  0  0  0  0  0  0  0
   -1.4126   -2.2444    0.4801 C   0  0  0  0  0  0  0  0  0  0  0  0
   -0.4686   -2.9534    0.8001 O   0  0  0  0  0  0  0  0  0  0  0  0
   -1.2736   -0.9704    0.1241 N   0  0  0  0  0  0  0  0  0  0  0  0
   -2.0996   -0.4354   -0.1019 H   0  0  0  0  0  0  0  0  0  0  0  0
   -0.0016   -0.2394    0.1271 C   0  0  1  0  0  0  0  0  0  0  0  0
    0.6995   -0.7619   -0.5275 H   0  0  0  0  0  0  0  0  0  0  0  0
   -0.2283    1.1832   -0.4215 C   0  0  0  0  0  0  0  0  0  0  0  0
    0.6840    1.5356   -0.9043 H   0  0  0  0  0  0  0  0  0  0  0  0
   -1.0193    1.1656   -1.1721 H   0  0  0  0  0  0  0  0  0  0  0  0
   -0.5835    2.2007    0.6584 C   0  0  0  0  0  0  0  0  0  0  0  0
    0.1992    2.6871    1.4641 O   0  0  0  0  0  0  0  0  0  0  0  0
   -1.8810    2.5571    0.6935 O   0  0  0  0  0  0  0  0  0  0  0  0
   -1.9563    3.2053    1.3945 H   0  0  0  0  0  0  0  0  0  0  0  0
    0.5920   -0.2154    1.5497 C   0  0  0  0  0  0  0  0  0  0  0  0
    1.7860   -0.4596    1.7183 O   0  0  0  0  0  0  0  0  0  0  0  0
   -0.2294    0.0669    2.5672 N   0  0  0  0  0  0  0  0  0  0  0  0
   -1.2130    0.1938    2.3518 H   0  0  0  0  0  0  0  0  0  0  0  0
    0.1836    0.1337    3.9673 C   0  0  0  0  0  0  0  0  0  0  0  0
    1.0451    0.7976    4.0666 H   0  0  0  0  0  0  0  0  0  0  0  0
   -0.6344    0.5115    4.5820 H   0  0  0  0  0  0  0  0  0  0  0  0
    0.4676   -0.8609    4.3157 H   0  0  0  0  0  0  0  0  0  0  0  0
  5  6  2  0  0  0  0
  5  7  1  0  0  0  0
  2  3  1  0  0  0  0
  2  4  1  0  0  0  0
  2  5  1  0  0  0  0
  1  2  1  0  0  0  0
 18 19  2  0  0  0  0
 18 20  1  0  0  0  0
 16 17  1  0  0  0  0
 14 15  2  0  0  0  0
 14 16  1  0  0  0  0
 11 12  1  0  0  0  0
 11 13  1  0  0  0  0
 11 14  1  0  0  0  0
  9 10  1  0  0  0  0
  9 11  1  0  0  0  0
  9 18  1  0  0  0  0
  7  8  1  0  0  0  0
  7  9  1  0  0  0  0
 22 23  1  0  0  0  0
 22 24  1  0  0  0  0
 22 25  1  0  0  0  0
 20 21  1  0  0  0  0
 20 22  1  0  0  0  0
M  END
$$$$
default_name
  -OEChem-02102213163D

 25 24  0     1  0  0  0  0  0999 V2000
   -2.7826   -3.8464    0.7821 H   0  0  0  0  0  0  0  0  0  0  0  0
   -2.8156   -2.8034    0.4711 C   0  0  0  0  0  0  0  0  0  0  0  0
   -3.4336   -2.2354    1.1641 H   0  0  0  0  0  0  0  0  0  0  0  0
   -3.2256   -2.7344   -0.5349 H   0  0  0  0  0  0  0  0  0  0  0  0
   -1.4126   -2.2444    0.4801 C   0  0  0  0  0  0  0  0  0  0  0  0
   -0.4686   -2.9534    0.8001 O   0  0  0  0  0  0  0  0  0  0  0  0
   -1.2736   -0.9704    0.1241 N   0  0  0  0  0  0  0  0  0  0  0  0
   -2.0996   -0.4354   -0.1019 H   0  0  0  0  0  0  0  0  0  0  0  0
   -0.0016   -0.2394    0.1271 C   0  0  1  0  0  0  0  0  0  0  0  0
    0.6995   -0.7619   -0.5275 H   0  0  0  0  0  0  0  0  0  0  0  0
   -0.2283    1.1832   -0.4215 C   0  0  0  0  0  0  0  0  0  0  0  0
    0.6840    1.5356   -0.9043 H   0  0  0  0  0  0  0  0  0  0  0  0
   -1.0193    1.1656   -1.1721 H   0  0  0  0  0  0  0  0  0  0  0  0
   -0.5835    2.2007    0.6584 C   0  0  0  0  0  0  0  0  0  0  0  0
    0.2168    2.8787    1.2895 O   0  0  0  0  0  0  0  0  0  0  0  0
   -1.9005    2.3222    0.9084 O   0  0  0  0  0  0  0  0  0  0  0  0
   -1.9785    2.9982    1.5823 H   0  0  0  0  0  0  0  0  0  0  0  0
    0.5920   -0.2154    1.5497 C   0  0  0  0  0  0  0  0  0  0  0  0
    1.7860   -0.4596    1.7183 O   0  0  0  0  0  0  0  0  0  0  0  0
   -0.2294    0.0669    2.5672 N   0  0  0  0  0  0  0  0  0  0  0  0
   -1.2130    0.1938    2.3518 H   0  0  0  0  0  0  0  0  0  0  0  0
    0.1836    0.1337    3.9673 C   0  0  0  0  0  0  0  0  0  0  0  0
    1.0451    0.7976    4.0666 H   0  0  0  0  0  0  0  0  0  0  0  0
   -0.6344    0.5115    4.5820 H   0  0  0  0  0  0  0  0  0  0  0  0
    0.4676   -0.8609    4.3157 H   0  0  0  0  0  0  0  0  0  0  0  0
  5  6  2  0  0  0  0
  5  7  1  0  0  0  0
  2  3  1  0  0  0  0
  2  4  1  0  0  0  0
  2  5  1  0  0  0  0
  1  2  1  0  0  0  0
 18 19  2  0  0  0  0
 18 20  1  0  0  0  0
 16 17  1  0  0  0  0
 14 15  2  0  0  0  0
 14 16  1  0  0  0  0
 11 12  1  0  0  0  0
 11 13  1  0  0  0  0
 11 14  1  0  0  0  0
  9 10  1  0  0  0  0
  9 11  1  0  0  0  0
  9 18  1  0  0  0  0
  7  8  1  0  0  0  0
  7  9  1  0  0  0  0
 22 23  1  0  0  0  0
 22 24  1  0  0  0  0
 22 25  1  0  0  0  0
 20 21  1  0  0  0  0
 20 22  1  0  0  0  0
M  END
$$$$
default_name
  -OEChem-02102213163D

 25 24  0     1  0  0  0  0  0999 V2000
   -2.7826   -3.8464    0.7821 H   0  0  0  0  0  0  0  0  0  0  0  0
   -2.8156   -2.8034    0.4711 C   0  0  0  0  0  0  0  0  0  0  0  0
   -3.4336   -2.2354    1.1641 H   0  0  0  0  0  0  0  0  0  0  0  0
   -3.2256   -2.7344   -0.5349 H   0  0  0  0  0  0  0  0  0  0  0  0
   -1.4126   -2.2444    0.4801 C   0  0  0  0  0  0  0  0  0  0  0  0
   -0.4686   -2.9534    0.8001 O   0  0  0  0  0  0  0  0  0  0  0  0
   -1.2736   -0.9704    0.1241 N   0  0  0  0  0  0  0  0  0  0  0  0
   -2.0996   -0.4354   -0.1019 H   0  0  0  0  0  0  0  0  0  0  0  0
   -0.0016   -0.2394    0.1271 C   0  0  1  0  0  0  0  0  0  0  0  0
    0.6995   -0.7619   -0.5275 H   0  0  0  0  0  0  0  0  0  0  0  0
   -0.2283    1.1832   -0.4215 C   0  0  0  0  0  0  0  0  0  0  0  0
    0.6840    1.5356   -0.9043 H   0  0  0  0  0  0  0  0  0  0  0  0
   -1.0193    1.1656   -1.1721 H   0  0  0  0  0  0  0  0  0  0  0  0
   -0.5835    2.2007    0.6584 C   0  0  0  0  0  0  0  0  0  0  0  0
    0.1686    3.0564    1.1062 O   0  0  0  0  0  0  0  0  0  0  0  0
   -1.8393    2.1046    1.1335 O   0  0  0  0  0  0  0  0  0  0  0  0
   -1.9296    2.8054    1.7800 H   0  0  0  0  0  0  0  0  0  0  0  0
    0.5920   -0.2154    1.5497 C   0  0  0  0  0  0  0  0  0  0  0  0
    1.7860   -0.4596    1.7183 O   0  0  0  0  0  0  0  0  0  0  0  0
   -0.2294    0.0669    2.5672 N   0  0  0  0  0  0  0  0  0  0  0  0
   -1.2130    0.1938    2.3518 H   0  0  0  0  0  0  0  0  0  0  0  0
    0.1836    0.1337    3.9673 C   0  0  0  0  0  0  0  0  0  0  0  0
    1.0451    0.7976    4.0666 H   0  0  0  0  0  0  0  0  0  0  0  0
   -0.6344    0.5115    4.5820 H   0  0  0  0  0  0  0  0  0  0  0  0
    0.4676   -0.8609    4.3157 H   0  0  0  0  0  0  0  0  0  0  0  0
  5  6  2  0  0  0  0
  5  7  1  0  0  0  0
  2  3  1  0  0  0  0
  2  4  1  0  0  0  0
  2  5  1  0  0  0  0
  1  2  1  0  0  0  0
 18 19  2  0  0  0  0
 18 20  1  0  0  0  0
 16 17  1  0  0  0  0
 14 15  2  0  0  0  0
 14 16  1  0  0  0  0
 11 12  1  0  0  0  0
 11 13  1  0  0  0  0
 11 14  1  0  0  0  0
  9 10  1  0  0  0  0
  9 11  1  0  0  0  0
  9 18  1  0  0  0  0
  7  8  1  0  0  0  0
  7  9  1  0  0  0  0
 22 23  1  0  0  0  0
 22 24  1  0  0  0  0
 22 25  1  0  0  0  0
 20 21  1  0  0  0  0
 20 22  1  0  0  0  0
M  END
$$$$
default_name
  -OEChem-02102213163D

 25 24  0     1  0  0  0  0  0999 V2000
   -2.7826   -3.8464    0.7821 H   0  0  0  0  0  0  0  0  0  0  0  0
   -2.8156   -2.8034    0.4711 C   0  0  0  0  0  0  0  0  0  0  0  0
   -3.4336   -2.2354    1.1641 H   0  0  0  0  0  0  0  0  0  0  0  0
   -3.2256   -2.7344   -0.5349 H   0  0  0  0  0  0  0  0  0  0  0  0
   -1.4126   -2.2444    0.4801 C   0  0  0  0  0  0  0  0  0  0  0  0
   -0.4686   -2.9534    0.8001 O   0  0  0  0  0  0  0  0  0  0  0  0
   -1.2736   -0.9704    0.1241 N   0  0  0  0  0  0  0  0  0  0  0  0
   -2.0996   -0.4354   -0.1019 H   0  0  0  0  0  0  0  0  0  0  0  0
   -0.0016   -0.2394    0.1271 C   0  0  1  0  0  0  0  0  0  0  0  0
    0.6995   -0.7619   -0.5275 H   0  0  0  0  0  0  0  0  0  0  0  0
   -0.2283    1.1832   -0.4215 C   0  0  0  0  0  0  0  0  0  0  0  0
    0.6840    1.5356   -0.9043 H   0  0  0  0  0  0  0  0  0  0  0  0
   -1.0193    1.1656   -1.1721 H   0  0  0  0  0  0  0  0  0  0  0  0
   -0.5835    2.2007    0.6584 C   0  0  0  0  0  0  0  0  0  0  0  0
    0.0579    3.2082    0.9267 O   0  0  0  0  0  0  0  0  0  0  0  0
   -1.7013    1.9193    1.3535 O   0  0  0  0  0  0  0  0  0  0  0  0
   -1.8129    2.6401    1.9741 H   0  0  0  0  0  0  0  0  0  0  0  0
    0.5920   -0.2154    1.5497 C   0  0  0  0  0  0  0  0  0  0  0  0
    1.7860   -0.4596    1.7183 O   0  0  0  0  0  0  0  0  0  0  0  0
   -0.2294    0.0669    2.5672 N   0  0  0  0  0  0  0  0  0  0  0  0
   -1.2130    0.1938    2.3518 H   0  0  0  0  0  0  0  0  0  0  0  0
    0.1836    0.1337    3.9673 C   0  0  0  0  0  0  0  0  0  0  0  0
    1.0451    0.7976    4.0666 H   0  0  0  0  0  0  0  0  0  0  0  0
   -0.6344    0.5115    4.5820 H   0  0  0  0  0  0  0  0  0  0  0  0
    0.4676   -0.8609    4.3157 H   0  0  0  0  0  0  0  0  0  0  0  0
  5  6  2  0  0  0  0
  5  7  1  0  0  0  0
  2  3  1  0  0  0  0
  2  4  1  0  0  0  0
  2  5  1  0  0  0  0
  1  2  1  0  0  0  0
 18 19  2  0  0  0  0
 18 20  1  0  0  0  0
 16 17  1  0  0  0  0
 14 15  2  0  0  0  0
 14 16  1  0  0  0  0
 11 12  1  0  0  0  0
 11 13  1  0  0  0  0
 11 14  1  0  0  0  0
  9 10  1  0  0  0  0
  9 11  1  0  0  0  0
  9 18  1  0  0  0  0
  7  8  1  0  0  0  0
  7  9  1  0  0  0  0
 22 23  1  0  0  0  0
 22 24  1  0  0  0  0
 22 25  1  0  0  0  0
 20 21  1  0  0  0  0
 20 22  1  0  0  0  0
M  END
$$$$
default_name
  -OEChem-02102213163D

 25 24  0     1  0  0  0  0  0999 V2000
   -2.7826   -3.8464    0.7821 H   0  0  0  0  0  0  0  0  0  0  0  0
   -2.8156   -2.8034    0.4711 C   0  0  0  0  0  0  0  0  0  0  0  0
   -3.4336   -2.2354    1.1641 H   0  0  0  0  0  0  0  0  0  0  0  0
   -3.2256   -2.7344   -0.5349 H   0  0  0  0  0  0  0  0  0  0  0  0
   -1.4126   -2.2444    0.4801 C   0  0  0  0  0  0  0  0  0  0  0  0
   -0.4686   -2.9534    0.8001 O   0  0  0  0  0  0  0  0  0  0  0  0
   -1.2736   -0.9704    0.1241 N   0  0  0  0  0  0  0  0  0  0  0  0
   -2.0996   -0.4354   -0.1019 H   0  0  0  0  0  0  0  0  0  0  0  0
   -0.0016   -0.2394    0.1271 C   0  0  1  0  0  0  0  0  0  0  0  0
    0.6995   -0.7619   -0.5275 H   0  0  0  0  0  0  0  0  0  0  0  0
   -0.2283    1.1832   -0.4215 C   0  0  0  0  0  0  0  0  0  0  0  0
    0.6840    1.5356   -0.9043 H   0  0  0  0  0  0  0  0  0  0  0  0
   -1.0193    1.1656   -1.1721 H   0  0  0  0  0  0  0  0  0  0  0  0
   -0.5835    2.2007    0.6584 C   0  0  0  0  0  0  0  0  0  0  0  0
   -0.1079    3.3237    0.7634 O   0  0  0  0  0  0  0  0  0  0  0  0
   -1.4962    1.7788    1.5533 O   0  0  0  0  0  0  0  0  0  0  0  0
   -1.6364    2.5135    2.1515 H   0  0  0  0  0  0  0  0  0  0  0  0
    0.5920   -0.2154    1.5497 C   0  0  0  0  0  0  0  0  0  0  0  0
    1.7860   -0.4596    1.7183 O   0  0  0  0  0  0  0  0  0  0  0  0
   -0.2294    0.0669    2.5672 N   0  0  0  0  0  0  0  0  0  0  0  0
   -1.2130    0.1938    2.3518 H   0  0  0  0  0  0  0  0  0  0  0  0
    0.1836    0.1337    3.9673 C   0  0  0  0  0  0  0  0  0  0  0  0
    1.0451    0.7976    4.0666 H   0  0  0  0  0  0  0  0  0  0  0  0
   -0.6344    0.5115    4.5820 H   0  0  0  0  0  0  0  0  0  0  0  0
    0.4676   -0.8609    4.3157 H   0  0  0  0  0  0  0  0  0  0  0  0
  5  6  2  0  0  0  0
  5  7  1  0  0  0  0
  2  3  1  0  0  0  0
  2  4  1  0  0  0  0
  2  5  1  0  0  0  0
  1  2  1  0  0  0  0
 18 19  2  0  0  0  0
 18 20  1  0  0  0  0
 16 17  1  0  0  0  0
 14 15  2  0  0  0  0
 14 16  1  0  0  0  0
 11 12  1  0  0  0  0
 11 13  1  0  0  0  0
 11 14  1  0  0  0  0
  9 10  1  0  0  0  0
  9 11  1  0  0  0  0
  9 18  1  0  0  0  0
  7  8  1  0  0  0  0
  7  9  1  0  0  0  0
 22 23  1  0  0  0  0
 22 24  1  0  0  0  0
 22 25  1  0  0  0  0
 20 21  1  0  0  0  0
 20 22  1  0  0  0  0
M  END
$$$$
default_name
  -OEChem-02102213163D

 25 24  0     1  0  0  0  0  0999 V2000
   -2.7826   -3.8464    0.7821 H   0  0  0  0  0  0  0  0  0  0  0  0
   -2.8156   -2.8034    0.4711 C   0  0  0  0  0  0  0  0  0  0  0  0
   -3.4336   -2.2354    1.1641 H   0  0  0  0  0  0  0  0  0  0  0  0
   -3.2256   -2.7344   -0.5349 H   0  0  0  0  0  0  0  0  0  0  0  0
   -1.4126   -2.2444    0.4801 C   0  0  0  0  0  0  0  0  0  0  0  0
   -0.4686   -2.9534    0.8001 O   0  0  0  0  0  0  0  0  0  0  0  0
   -1.2736   -0.9704    0.1241 N   0  0  0  0  0  0  0  0  0  0  0  0
   -2.0996   -0.4354   -0.1019 H   0  0  0  0  0  0  0  0  0  0  0  0
   -0.0016   -0.2394    0.1271 C   0  0  1  0  0  0  0  0  0  0  0  0
    0.6995   -0.7619   -0.5275 H   0  0  0  0  0  0  0  0  0  0  0  0
   -0.2283    1.1832   -0.4215 C   0  0  0  0  0  0  0  0  0  0  0  0
    0.6840    1.5356   -0.9043 H   0  0  0  0  0  0  0  0  0  0  0  0
   -1.0193    1.1656   -1.1721 H   0  0  0  0  0  0  0  0  0  0  0  0
   -0.5835    2.2007    0.6584 C   0  0  0  0  0  0  0  0  0  0  0  0
   -0.3174    3.3951    0.6273 O   0  0  0  0  0  0  0  0  0  0  0  0
   -1.2378    1.6927    1.7194 O   0  0  0  0  0  0  0  0  0  0  0  0
   -1.4121    2.4342    2.3000 H   0  0  0  0  0  0  0  0  0  0  0  0
    0.5920   -0.2154    1.5497 C   0  0  0  0  0  0  0  0  0  0  0  0
    1.7860   -0.4596    1.7183 O   0  0  0  0  0  0  0  0  0  0  0  0
   -0.2294    0.0669    2.5672 N   0  0  0  0  0  0  0  0  0  0  0  0
   -1.2130    0.1938    2.3518 H   0  0  0  0  0  0  0  0  0  0  0  0
    0.1836    0.1337    3.9673 C   0  0  0  0  0  0  0  0  0  0  0  0
    1.0451    0.7976    4.0666 H   0  0  0  0  0  0  0  0  0  0  0  0
   -0.6344    0.5115    4.5820 H   0  0  0  0  0  0  0  0  0  0  0  0
    0.4676   -0.8609    4.3157 H   0  0  0  0  0  0  0  0  0  0  0  0
  5  6  2  0  0  0  0
  5  7  1  0  0  0  0
  2  3  1  0  0  0  0
  2  4  1  0  0  0  0
  2  5  1  0  0  0  0
  1  2  1  0  0  0  0
 18 19  2  0  0  0  0
 18 20  1  0  0  0  0
 16 17  1  0  0  0  0
 14 15  2  0  0  0  0
 14 16  1  0  0  0  0
 11 12  1  0  0  0  0
 11 13  1  0  0  0  0
 11 14  1  0  0  0  0
  9 10  1  0  0  0  0
  9 11  1  0  0  0  0
  9 18  1  0  0  0  0
  7  8  1  0  0  0  0
  7  9  1  0  0  0  0
 22 23  1  0  0  0  0
 22 24  1  0  0  0  0
 22 25  1  0  0  0  0
 20 21  1  0  0  0  0
 20 22  1  0  0  0  0
M  END
$$$$
default_name
  -OEChem-02102213163D

 25 24  0     1  0  0  0  0  0999 V2000
   -2.7826   -3.8464    0.7821 H   0  0  0  0  0  0  0  0  0  0  0  0
   -2.8156   -2.8034    0.4711 C   0  0  0  0  0  0  0  0  0  0  0  0
   -3.4336   -2.2354    1.1641 H   0  0  0  0  0  0  0  0  0  0  0  0
   -3.2256   -2.7344   -0.5349 H   0  0  0  0  0  0  0  0  0  0  0  0
   -1.4126   -2.2444    0.4801 C   0  0  0  0  0  0  0  0  0  0  0  0
   -0.4686   -2.9534    0.8001 O   0  0  0  0  0  0  0  0  0  0  0  0
   -1.2736   -0.9704    0.1241 N   0  0  0  0  0  0  0  0  0  0  0  0
   -2.0996   -0.4354   -0.1019 H   0  0  0  0  0  0  0  0  0  0  0  0
   -0.0016   -0.2394    0.1271 C   0  0  1  0  0  0  0  0  0  0  0  0
    0.6995   -0.7619   -0.5275 H   0  0  0  0  0  0  0  0  0  0  0  0
   -0.2283    1.1832   -0.4215 C   0  0  0  0  0  0  0  0  0  0  0  0
    0.6840    1.5356   -0.9043 H   0  0  0  0  0  0  0  0  0  0  0  0
   -1.0193    1.1656   -1.1721 H   0  0  0  0  0  0  0  0  0  0  0  0
   -0.5835    2.2007    0.6584 C   0  0  0  0  0  0  0  0  0  0  0  0
   -0.5563    3.4174    0.5276 O   0  0  0  0  0  0  0  0  0  0  0  0
   -0.9438    1.6669    1.8404 O   0  0  0  0  0  0  0  0  0  0  0  0
   -1.1553    2.4077    2.4094 H   0  0  0  0  0  0  0  0  0  0  0  0
    0.5920   -0.2154    1.5497 C   0  0  0  0  0  0  0  0  0  0  0  0
    1.7860   -0.4596    1.7183 O   0  0  0  0  0  0  0  0  0  0  0  0
   -0.2294    0.0669    2.5672 N   0  0  0  0  0  0  0  0  0  0  0  0
   -1.2130    0.1938    2.3518 H   0  0  0  0  0  0  0  0  0  0  0  0
    0.1836    0.1337    3.9673 C   0  0  0  0  0  0  0  0  0  0  0  0
    1.0451    0.7976    4.0666 H   0  0  0  0  0  0  0  0  0  0  0  0
   -0.6344    0.5115    4.5820 H   0  0  0  0  0  0  0  0  0  0  0  0
    0.4676   -0.8609    4.3157 H   0  0  0  0  0  0  0  0  0  0  0  0
  5  6  2  0  0  0  0
  5  7  1  0  0  0  0
  2  3  1  0  0  0  0
  2  4  1  0  0  0  0
  2  5  1  0  0  0  0
  1  2  1  0  0  0  0
 18 19  2  0  0  0  0
 18 20  1  0  0  0  0
 16 17  1  0  0  0  0
 14 15  2  0  0  0  0
 14 16  1  0  0  0  0
 11 12  1  0  0  0  0
 11 13  1  0  0  0  0
 11 14  1  0  0  0  0
  9 10  1  0  0  0  0
  9 11  1  0  0  0  0
  9 18  1  0  0  0  0
  7  8  1  0  0  0  0
  7  9  1  0  0  0  0
 22 23  1  0  0  0  0
 22 24  1  0  0  0  0
 22 25  1  0  0  0  0
 20 21  1  0  0  0  0
 20 22  1  0  0  0  0
M  END
$$$$
default_name
  -OEChem-02102213163D

 25 24  0     1  0  0  0  0  0999 V2000
   -2.7826   -3.8464    0.7821 H   0  0  0  0  0  0  0  0  0  0  0  0
   -2.8156   -2.8034    0.4711 C   0  0  0  0  0  0  0  0  0  0  0  0
   -3.4336   -2.2354    1.1641 H   0  0  0  0  0  0  0  0  0  0  0  0
   -3.2256   -2.7344   -0.5349 H   0  0  0  0  0  0  0  0  0  0  0  0
   -1.4126   -2.2444    0.4801 C   0  0  0  0  0  0  0  0  0  0  0  0
   -0.4686   -2.9534    0.8001 O   0  0  0  0  0  0  0  0  0  0  0  0
   -1.2736   -0.9704    0.1241 N   0  0  0  0  0  0  0  0  0  0  0  0
   -2.0996   -0.4354   -0.1019 H   0  0  0  0  0  0  0  0  0  0  0  0
   -0.0016   -0.2394    0.1271 C   0  0  1  0  0  0  0  0  0  0  0  0
    0.6995   -0.7619   -0.5275 H   0  0  0  0  0  0  0  0  0  0  0  0
   -0.2283    1.1832   -0.4215 C   0  0  0  0  0  0  0  0  0  0  0  0
    0.5682    1.4326   -1.1236 H   0  0  0  0  0  0  0  0  0  0  0  0
   -1.1751    1.2221   -0.9614 H   0  0  0  0  0  0  0  0  0  0  0  0
   -0.2227    2.2589    0.6604 C   0  0  0  0  0  0  0  0  0  0  0  0
   -0.3812    3.4582    0.4736 O   0  0  0  0  0  0  0  0  0  0  0  0
   -0.0145    1.8023    1.9094 O   0  0  0  0  0  0  0  0  0  0  0  0
   -0.0556    2.5705    2.4799 H   0  0  0  0  0  0  0  0  0  0  0  0
    0.5920   -0.2154    1.5497 C   0  0  0  0  0  0  0  0  0  0  0  0
    1.7860   -0.4596    1.7183 O   0  0  0  0  0  0  0  0  0  0  0  0
   -0.2294    0.0669    2.5672 N   0  0  0  0  0  0  0  0  0  0  0  0
   -1.2130    0.1938    2.3518 H   0  0  0  0  0  0  0  0  0  0  0  0
    0.1836    0.1337    3.9673 C   0  0  0  0  0  0  0  0  0  0  0  0
    1.0451    0.7976    4.0666 H   0  0  0  0  0  0  0  0  0  0  0  0
   -0.6344    0.5115    4.5820 H   0  0  0  0  0  0  0  0  0  0  0  0
    0.4676   -0.8609    4.3157 H   0  0  0  0  0  0  0  0  0  0  0  0
  5  6  2  0  0  0  0
  5  7  1  0  0  0  0
  2  3  1  0  0  0  0
  2  4  1  0  0  0  0
  2  5  1  0  0  0  0
  1  2  1  0  0  0  0
 18 19  2  0  0  0  0
 18 20  1  0  0  0  0
 16 17  1  0  0  0  0
 14 15  2  0  0  0  0
 14 16  1  0  0  0  0
 11 12  1  0  0  0  0
 11 13  1  0  0  0  0
 11 14  1  0  0  0  0
  9 10  1  0  0  0  0
  9 11  1  0  0  0  0
  9 18  1  0  0  0  0
  7  8  1  0  0  0  0
  7  9  1  0  0  0  0
 22 23  1  0  0  0  0
 22 24  1  0  0  0  0
 22 25  1  0  0  0  0
 20 21  1  0  0  0  0
 20 22  1  0  0  0  0
M  END
$$$$
default_name
  -OEChem-02102213163D

 25 24  0     1  0  0  0  0  0999 V2000
   -2.7826   -3.8464    0.7821 H   0  0  0  0  0  0  0  0  0  0  0  0
   -2.8156   -2.8034    0.4711 C   0  0  0  0  0  0  0  0  0  0  0  0
   -3.4336   -2.2354    1.1641 H   0  0  0  0  0  0  0  0  0  0  0  0
   -3.2256   -2.7344   -0.5349 H   0  0  0  0  0  0  0  0  0  0  0  0
   -1.4126   -2.2444    0.4801 C   0  0  0  0  0  0  0  0  0  0  0  0
   -0.4686   -2.9534    0.8001 O   0  0  0  0  0  0  0  0  0  0  0  0
   -1.2736   -0.9704    0.1241 N   0  0  0  0  0  0  0  0  0  0  0  0
   -2.0996   -0.4354   -0.1019 H   0  0  0  0  0  0  0  0  0  0  0  0
   -0.0016   -0.2394    0.1271 C   0  0  1  0  0  0  0  0  0  0  0  0
    0.6995   -0.7619   -0.5275 H   0  0  0  0  0  0  0  0  0  0  0  0
   -0.2283    1.1832   -0.4215 C   0  0  0  0  0  0  0  0  0  0  0  0
    0.5682    1.4326   -1.1236 H   0  0  0  0  0  0  0  0  0  0  0  0
   -1.1751    1.2221   -0.9614 H   0  0  0  0  0  0  0  0  0  0  0  0
   -0.2227    2.2589    0.6604 C   0  0  0  0  0  0  0  0  0  0  0  0
   -0.6299    3.4056    0.5272 O   0  0  0  0  0  0  0  0  0  0  0  0
    0.2902    1.8685    1.8421 O   0  0  0  0  0  0  0  0  0  0  0  0
    0.2137    2.6251    2.4243 H   0  0  0  0  0  0  0  0  0  0  0  0
    0.5920   -0.2154    1.5497 C   0  0  0  0  0  0  0  0  0  0  0  0
    1.7860   -0.4596    1.7183 O   0  0  0  0  0  0  0  0  0  0  0  0
   -0.2294    0.0669    2.5672 N   0  0  0  0  0  0  0  0  0  0  0  0
   -1.2130    0.1938    2.3518 H   0  0  0  0  0  0  0  0  0  0  0  0
    0.1836    0.1337    3.9673 C   0  0  0  0  0  0  0  0  0  0  0  0
    1.0451    0.7976    4.0666 H   0  0  0  0  0  0  0  0  0  0  0  0
   -0.6344    0.5115    4.5820 H   0  0  0  0  0  0  0  0  0  0  0  0
    0.4676   -0.8609    4.3157 H   0  0  0  0  0  0  0  0  0  0  0  0
  5  6  2  0  0  0  0
  5  7  1  0  0  0  0
  2  3  1  0  0  0  0
  2  4  1  0  0  0  0
  2  5  1  0  0  0  0
  1  2  1  0  0  0  0
 18 19  2  0  0  0  0
 18 20  1  0  0  0  0
 16 17  1  0  0  0  0
 14 15  2  0  0  0  0
 14 16  1  0  0  0  0
 11 12  1  0  0  0  0
 11 13  1  0  0  0  0
 11 14  1  0  0  0  0
  9 10  1  0  0  0  0
  9 11  1  0  0  0  0
  9 18  1  0  0  0  0
  7  8  1  0  0  0  0
  7  9  1  0  0  0  0
 22 23  1  0  0  0  0
 22 24  1  0  0  0  0
 22 25  1  0  0  0  0
 20 21  1  0  0  0  0
 20 22  1  0  0  0  0
M  END
$$$$
default_name
  -OEChem-02102213163D

 25 24  0     1  0  0  0  0  0999 V2000
   -2.7826   -3.8464    0.7821 H   0  0  0  0  0  0  0  0  0  0  0  0
   -2.8156   -2.8034    0.4711 C   0  0  0  0  0  0  0  0  0  0  0  0
   -3.4336   -2.2354    1.1641 H   0  0  0  0  0  0  0  0  0  0  0  0
   -3.2256   -2.7344   -0.5349 H   0  0  0  0  0  0  0  0  0  0  0  0
   -1.4126   -2.2444    0.4801 C   0  0  0  0  0  0  0  0  0  0  0  0
   -0.4686   -2.9534    0.8001 O   0  0  0  0  0  0  0  0  0  0  0  0
   -1.2736   -0.9704    0.1241 N   0  0  0  0  0  0  0  0  0  0  0  0
   -2.0996   -0.4354   -0.1019 H   0  0  0  0  0  0  0  0  0  0  0  0
   -0.0016   -0.2394    0.1271 C   0  0  1  0  0  0  0  0  0  0  0  0
    0.6995   -0.7619   -0.5275 H   0  0  0  0  0  0  0  0  0  0  0  0
   -0.2283    1.1832   -0.4215 C   0  0  0  0  0  0  0  0  0  0  0  0
    0.5682    1.4326   -1.1236 H   0  0  0  0  0  0  0  0  0  0  0  0
   -1.1751    1.2221   -0.9614 H   0  0  0  0  0  0  0  0  0  0  0  0
   -0.2227    2.2589    0.6604 C   0  0  0  0  0  0  0  0  0  0  0  0
   -0.8507    3.3090    0.6244 O   0  0  0  0  0  0  0  0  0  0  0  0
    0.5601    1.9883    1.7215 O   0  0  0  0  0  0  0  0  0  0  0  0
    0.4538    2.7273    2.3213 H   0  0  0  0  0  0  0  0  0  0  0  0
    0.5920   -0.2154    1.5497 C   0  0  0  0  0  0  0  0  0  0  0  0
    1.7860   -0.4596    1.7183 O   0  0  0  0  0  0  0  0  0  0  0  0
   -0.2294    0.0669    2.5672 N   0  0  0  0  0  0  0  0  0  0  0  0
   -1.2130    0.1938    2.3518 H   0  0  0  0  0  0  0  0  0  0  0  0
    0.1836    0.1337    3.9673 C   0  0  0  0  0  0  0  0  0  0  0  0
    1.0451    0.7976    4.0666 H   0  0  0  0  0  0  0  0  0  0  0  0
   -0.6344    0.5115    4.5820 H   0  0  0  0  0  0  0  0  0  0  0  0
    0.4676   -0.8609    4.3157 H   0  0  0  0  0  0  0  0  0  0  0  0
  5  6  2  0  0  0  0
  5  7  1  0  0  0  0
  2  3  1  0  0  0  0
  2  4  1  0  0  0  0
  2  5  1  0  0  0  0
  1  2  1  0  0  0  0
 18 19  2  0  0  0  0
 18 20  1  0  0  0  0
 16 17  1  0  0  0  0
 14 15  2  0  0  0  0
 14 16  1  0  0  0  0
 11 12  1  0  0  0  0
 11 13  1  0  0  0  0
 11 14  1  0  0  0  0
  9 10  1  0  0  0  0
  9 11  1  0  0  0  0
  9 18  1  0  0  0  0
  7  8  1  0  0  0  0
  7  9  1  0  0  0  0
 22 23  1  0  0  0  0
 22 24  1  0  0  0  0
 22 25  1  0  0  0  0
 20 21  1  0  0  0  0
 20 22  1  0  0  0  0
M  END
$$$$
default_name
  -OEChem-02102213163D

 25 24  0     1  0  0  0  0  0999 V2000
   -2.7826   -3.8464    0.7821 H   0  0  0  0  0  0  0  0  0  0  0  0
   -2.8156   -2.8034    0.4711 C   0  0  0  0  0  0  0  0  0  0  0  0
   -3.4336   -2.2354    1.1641 H   0  0  0  0  0  0  0  0  0  0  0  0
   -3.2256   -2.7344   -0.5349 H   0  0  0  0  0  0  0  0  0  0  0  0
   -1.4126   -2.2444    0.4801 C   0  0  0  0  0  0  0  0  0  0  0  0
   -0.4686   -2.9534    0.8001 O   0  0  0  0  0  0  0  0  0  0  0  0
   -1.2736   -0.9704    0.1241 N   0  0  0  0  0  0  0  0  0  0  0  0
   -2.0996   -0.4354   -0.1019 H   0  0  0  0  0  0  0  0  0  0  0  0
   -0.0016   -0.2394    0.1271 C   0  0  1  0  0  0  0  0  0  0  0  0
    0.6995   -0.7619   -0.5275 H   0  0  0  0  0  0  0  0  0  0  0  0
   -0.2283    1.1832   -0.4215 C   0  0  0  0  0  0  0  0  0  0  0  0
    0.5682    1.4326   -1.1236 H   0  0  0  0  0  0  0  0  0  0  0  0
   -1.1751    1.2221   -0.9614 H   0  0  0  0  0  0  0  0  0  0  0  0
   -0.2227    2.2589    0.6604 C   0  0  0  0  0  0  0  0  0  0  0  0
   -1.0285    3.1751    0.7584 O   0  0  0  0  0  0  0  0  0  0  0  0
    0.7768    2.1538    1.5559 O   0  0  0  0  0  0  0  0  0  0  0  0
    0.6480    2.8702    2.1783 H   0  0  0  0  0  0  0  0  0  0  0  0
    0.5920   -0.2154    1.5497 C   0  0  0  0  0  0  0  0  0  0  0  0
    1.7860   -0.4596    1.7183 O   0  0  0  0  0  0  0  0  0  0  0  0
   -0.2294    0.0669    2.5672 N   0  0  0  0  0  0  0  0  0  0  0  0
   -1.2130    0.1938    2.3518 H   0  0  0  0  0  0  0  0  0  0  0  0
    0.1836    0.1337    3.9673 C   0  0  0  0  0  0  0  0  0  0  0  0
    1.0451    0.7976    4.0666 H   0  0  0  0  0  0  0  0  0  0  0  0
   -0.6344    0.5115    4.5820 H   0  0  0  0  0  0  0  0  0  0  0  0
    0.4676   -0.8609    4.3157 H   0  0  0  0  0  0  0  0  0  0  0  0
  5  6  2  0  0  0  0
  5  7  1  0  0  0  0
  2  3  1  0  0  0  0
  2  4  1  0  0  0  0
  2  5  1  0  0  0  0
  1  2  1  0  0  0  0
 18 19  2  0  0  0  0
 18 20  1  0  0  0  0
 16 17  1  0  0  0  0
 14 15  2  0  0  0  0
 14 16  1  0  0  0  0
 11 12  1  0  0  0  0
 11 13  1  0  0  0  0
 11 14  1  0  0  0  0
  9 10  1  0  0  0  0
  9 11  1  0  0  0  0
  9 18  1  0  0  0  0
  7  8  1  0  0  0  0
  7  9  1  0  0  0  0
 22 23  1  0  0  0  0
 22 24  1  0  0  0  0
 22 25  1  0  0  0  0
 20 21  1  0  0  0  0
 20 22  1  0  0  0  0
M  END
$$$$
default_name
  -OEChem-02102213163D

 25 24  0     1  0  0  0  0  0999 V2000
   -2.7826   -3.8464    0.7821 H   0  0  0  0  0  0  0  0  0  0  0  0
   -2.8156   -2.8034    0.4711 C   0  0  0  0  0  0  0  0  0  0  0  0
   -3.4336   -2.2354    1.1641 H   0  0  0  0  0  0  0  0  0  0  0  0
   -3.2256   -2.7344   -0.5349 H   0  0  0  0  0  0  0  0  0  0  0  0
   -1.4126   -2.2444    0.4801 C   0  0  0  0  0  0  0  0  0  0  0  0
   -0.4686   -2.9534    0.8001 O   0  0  0  0  0  0  0  0  0  0  0  0
   -1.2736   -0.9704    0.1241 N   0  0  0  0  0  0  0  0  0  0  0  0
   -2.0996   -0.4354   -0.1019 H   0  0  0  0  0  0  0  0  0  0  0  0
   -0.0016   -0.2394    0.1271 C   0  0  1  0  0  0  0  0  0  0  0  0
    0.6995   -0.7619   -0.5275 H   0  0  0  0  0  0  0  0  0  0  0  0
   -0.2283    1.1832   -0.4215 C   0  0  0  0  0  0  0  0  0  0  0  0
    0.5682    1.4326   -1.1236 H   0  0  0  0  0  0  0  0  0  0  0  0
   -1.1751    1.2221   -0.9614 H   0  0  0  0  0  0  0  0  0  0  0  0
   -0.2227    2.2589    0.6604 C   0  0  0  0  0  0  0  0  0  0  0  0
   -1.1512    3.0130    0.9202 O   0  0  0  0  0  0  0  0  0  0  0  0
    0.9255    2.3535    1.3565 O   0  0  0  0  0  0  0  0  0  0  0  0
    0.7834    3.0441    2.0047 H   0  0  0  0  0  0  0  0  0  0  0  0
    0.5920   -0.2154    1.5497 C   0  0  0  0  0  0  0  0  0  0  0  0
    1.7860   -0.4596    1.7183 O   0  0  0  0  0  0  0  0  0  0  0  0
   -0.2294    0.0669    2.5672 N   0  0  0  0  0  0  0  0  0  0  0  0
   -1.2130    0.1938    2.3518 H   0  0  0  0  0  0  0  0  0  0  0  0
    0.1836    0.1337    3.9673 C   0  0  0  0  0  0  0  0  0  0  0  0
    1.0451    0.7976    4.0666 H   0  0  0  0  0  0  0  0  0  0  0  0
   -0.6344    0.5115    4.5820 H   0  0  0  0  0  0  0  0  0  0  0  0
    0.4676   -0.8609    4.3157 H   0  0  0  0  0  0  0  0  0  0  0  0
  5  6  2  0  0  0  0
  5  7  1  0  0  0  0
  2  3  1  0  0  0  0
  2  4  1  0  0  0  0
  2  5  1  0  0  0  0
  1  2  1  0  0  0  0
 18 19  2  0  0  0  0
 18 20  1  0  0  0  0
 16 17  1  0  0  0  0
 14 15  2  0  0  0  0
 14 16  1  0  0  0  0
 11 12  1  0  0  0  0
 11 13  1  0  0  0  0
 11 14  1  0  0  0  0
  9 10  1  0  0  0  0
  9 11  1  0  0  0  0
  9 18  1  0  0  0  0
  7  8  1  0  0  0  0
  7  9  1  0  0  0  0
 22 23  1  0  0  0  0
 22 24  1  0  0  0  0
 22 25  1  0  0  0  0
 20 21  1  0  0  0  0
 20 22  1  0  0  0  0
M  END
$$$$
default_name
  -OEChem-02102213163D

 25 24  0     1  0  0  0  0  0999 V2000
   -2.7826   -3.8464    0.7821 H   0  0  0  0  0  0  0  0  0  0  0  0
   -2.8156   -2.8034    0.4711 C   0  0  0  0  0  0  0  0  0  0  0  0
   -3.4336   -2.2354    1.1641 H   0  0  0  0  0  0  0  0  0  0  0  0
   -3.2256   -2.7344   -0.5349 H   0  0  0  0  0  0  0  0  0  0  0  0
   -1.4126   -2.2444    0.4801 C   0  0  0  0  0  0  0  0  0  0  0  0
   -0.4686   -2.9534    0.8001 O   0  0  0  0  0  0  0  0  0  0  0  0
   -1.2736   -0.9704    0.1241 N   0  0  0  0  0  0  0  0  0  0  0  0
   -2.0996   -0.4354   -0.1019 H   0  0  0  0  0  0  0  0  0  0  0  0
   -0.0016   -0.2394    0.1271 C   0  0  1  0  0  0  0  0  0  0  0  0
    0.6995   -0.7619   -0.5275 H   0  0  0  0  0  0  0  0  0  0  0  0
   -0.2283    1.1832   -0.4215 C   0  0  0  0  0  0  0  0  0  0  0  0
    0.5682    1.4326   -1.1236 H   0  0  0  0  0  0  0  0  0  0  0  0
   -1.1751    1.2221   -0.9614 H   0  0  0  0  0  0  0  0  0  0  0  0
   -0.2227    2.2589    0.6604 C   0  0  0  0  0  0  0  0  0  0  0  0
   -1.2105    2.8338    1.0987 O   0  0  0  0  0  0  0  0  0  0  0  0
    0.9962    2.5739    1.1370 O   0  0  0  0  0  0  0  0  0  0  0  0
    0.8505    3.2370    1.8126 H   0  0  0  0  0  0  0  0  0  0  0  0
    0.5920   -0.2154    1.5497 C   0  0  0  0  0  0  0  0  0  0  0  0
    1.7860   -0.4596    1.7183 O   0  0  0  0  0  0  0  0  0  0  0  0
   -0.2294    0.0669    2.5672 N   0  0  0  0  0  0  0  0  0  0  0  0
   -1.2130    0.1938    2.3518 H   0  0  0  0  0  0  0  0  0  0  0  0
    0.1836    0.1337    3.9673 C   0  0  0  0  0  0  0  0  0  0  0  0
    1.0451    0.7976    4.0666 H   0  0  0  0  0  0  0  0  0  0  0  0
   -0.6344    0.5115    4.5820 H   0  0  0  0  0  0  0  0  0  0  0  0
    0.4676   -0.8609    4.3157 H   0  0  0  0  0  0  0  0  0  0  0  0
  5  6  2  0  0  0  0
  5  7  1  0  0  0  0
  2  3  1  0  0  0  0
  2  4  1  0  0  0  0
  2  5  1  0  0  0  0
  1  2  1  0  0  0  0
 18 19  2  0  0  0  0
 18 20  1  0  0  0  0
 16 17  1  0  0  0  0
 14 15  2  0  0  0  0
 14 16  1  0  0  0  0
 11 12  1  0  0  0  0
 11 13  1  0  0  0  0
 11 14  1  0  0  0  0
  9 10  1  0  0  0  0
  9 11  1  0  0  0  0
  9 18  1  0  0  0  0
  7  8  1  0  0  0  0
  7  9  1  0  0  0  0
 22 23  1  0  0  0  0
 22 24  1  0  0  0  0
 22 25  1  0  0  0  0
 20 21  1  0  0  0  0
 20 22  1  0  0  0  0
M  END
$$$$
default_name
  -OEChem-02102213163D

 25 24  0     1  0  0  0  0  0999 V2000
   -2.7826   -3.8464    0.7821 H   0  0  0  0  0  0  0  0  0  0  0  0
   -2.8156   -2.8034    0.4711 C   0  0  0  0  0  0  0  0  0  0  0  0
   -3.4336   -2.2354    1.1641 H   0  0  0  0  0  0  0  0  0  0  0  0
   -3.2256   -2.7344   -0.5349 H   0  0  0  0  0  0  0  0  0  0  0  0
   -1.4126   -2.2444    0.4801 C   0  0  0  0  0  0  0  0  0  0  0  0
   -0.4686   -2.9534    0.8001 O   0  0  0  0  0  0  0  0  0  0  0  0
   -1.2736   -0.9704    0.1241 N   0  0  0  0  0  0  0  0  0  0  0  0
   -2.0996   -0.4354   -0.1019 H   0  0  0  0  0  0  0  0  0  0  0  0
   -0.0016   -0.2394    0.1271 C   0  0  1  0  0  0  0  0  0  0  0  0
    0.6995   -0.7619   -0.5275 H   0  0  0  0  0  0  0  0  0  0  0  0
   -0.2283    1.1832   -0.4215 C   0  0  0  0  0  0  0  0  0  0  0  0
    0.5682    1.4326   -1.1236 H   0  0  0  0  0  0  0  0  0  0  0  0
   -1.1751    1.2221   -0.9614 H   0  0  0  0  0  0  0  0  0  0  0  0
   -0.2227    2.2589    0.6604 C   0  0  0  0  0  0  0  0  0  0  0  0
   -1.2022    2.6496    1.2818 O   0  0  0  0  0  0  0  0  0  0  0  0
    0.9838    2.8000    0.9123 O   0  0  0  0  0  0  0  0  0  0  0  0
    0.8449    3.4358    1.6149 H   0  0  0  0  0  0  0  0  0  0  0  0
    0.5920   -0.2154    1.5497 C   0  0  0  0  0  0  0  0  0  0  0  0
    1.7860   -0.4596    1.7183 O   0  0  0  0  0  0  0  0  0  0  0  0
   -0.2294    0.0669    2.5672 N   0  0  0  0  0  0  0  0  0  0  0  0
   -1.2130    0.1938    2.3518 H   0  0  0  0  0  0  0  0  0  0  0  0
    0.1836    0.1337    3.9673 C   0  0  0  0  0  0  0  0  0  0  0  0
    1.0451    0.7976    4.0666 H   0  0  0  0  0  0  0  0  0  0  0  0
   -0.6344    0.5115    4.5820 H   0  0  0  0  0  0  0  0  0  0  0  0
    0.4676   -0.8609    4.3157 H   0  0  0  0  0  0  0  0  0  0  0  0
  5  6  2  0  0  0  0
  5  7  1  0  0  0  0
  2  3  1  0  0  0  0
  2  4  1  0  0  0  0
  2  5  1  0  0  0  0
  1  2  1  0  0  0  0
 18 19  2  0  0  0  0
 18 20  1  0  0  0  0
 16 17  1  0  0  0  0
 14 15  2  0  0  0  0
 14 16  1  0  0  0  0
 11 12  1  0  0  0  0
 11 13  1  0  0  0  0
 11 14  1  0  0  0  0
  9 10  1  0  0  0  0
  9 11  1  0  0  0  0
  9 18  1  0  0  0  0
  7  8  1  0  0  0  0
  7  9  1  0  0  0  0
 22 23  1  0  0  0  0
 22 24  1  0  0  0  0
 22 25  1  0  0  0  0
 20 21  1  0  0  0  0
 20 22  1  0  0  0  0
M  END
$$$$
default_name
  -OEChem-02102213163D

 25 24  0     1  0  0  0  0  0999 V2000
   -2.7826   -3.8464    0.7821 H   0  0  0  0  0  0  0  0  0  0  0  0
   -2.8156   -2.8034    0.4711 C   0  0  0  0  0  0  0  0  0  0  0  0
   -3.4336   -2.2354    1.1641 H   0  0  0  0  0  0  0  0  0  0  0  0
   -3.2256   -2.7344   -0.5349 H   0  0  0  0  0  0  0  0  0  0  0  0
   -1.4126   -2.2444    0.4801 C   0  0  0  0  0  0  0  0  0  0  0  0
   -0.4686   -2.9534    0.8001 O   0  0  0  0  0  0  0  0  0  0  0  0
   -1.2736   -0.9704    0.1241 N   0  0  0  0  0  0  0  0  0  0  0  0
   -2.0996   -0.4354   -0.1019 H   0  0  0  0  0  0  0  0  0  0  0  0
   -0.0016   -0.2394    0.1271 C   0  0  1  0  0  0  0  0  0  0  0  0
    0.6995   -0.7619   -0.5275 H   0  0  0  0  0  0  0  0  0  0  0  0
   -0.2283    1.1832   -0.4215 C   0  0  0  0  0  0  0  0  0  0  0  0
    0.5682    1.4326   -1.1236 H   0  0  0  0  0  0  0  0  0  0  0  0
   -1.1751    1.2221   -0.9614 H   0  0  0  0  0  0  0  0  0  0  0  0
   -0.2227    2.2589    0.6604 C   0  0  0  0  0  0  0  0  0  0  0  0
   -1.1271    2.4731    1.4570 O   0  0  0  0  0  0  0  0  0  0  0  0
    0.8895    3.0163    0.6976 O   0  0  0  0  0  0  0  0  0  0  0  0
    0.7669    3.6270    1.4252 H   0  0  0  0  0  0  0  0  0  0  0  0
    0.5920   -0.2154    1.5497 C   0  0  0  0  0  0  0  0  0  0  0  0
    1.7860   -0.4596    1.7183 O   0  0  0  0  0  0  0  0  0  0  0  0
   -0.2294    0.0669    2.5672 N   0  0  0  0  0  0  0  0  0  0  0  0
   -1.2130    0.1938    2.3518 H   0  0  0  0  0  0  0  0  0  0  0  0
    0.1836    0.1337    3.9673 C   0  0  0  0  0  0  0  0  0  0  0  0
    1.0451    0.7976    4.0666 H   0  0  0  0  0  0  0  0  0  0  0  0
   -0.6344    0.5115    4.5820 H   0  0  0  0  0  0  0  0  0  0  0  0
    0.4676   -0.8609    4.3157 H   0  0  0  0  0  0  0  0  0  0  0  0
  5  6  2  0  0  0  0
  5  7  1  0  0  0  0
  2  3  1  0  0  0  0
  2  4  1  0  0  0  0
  2  5  1  0  0  0  0
  1  2  1  0  0  0  0
 18 19  2  0  0  0  0
 18 20  1  0  0  0  0
 16 17  1  0  0  0  0
 14 15  2  0  0  0  0
 14 16  1  0  0  0  0
 11 12  1  0  0  0  0
 11 13  1  0  0  0  0
 11 14  1  0  0  0  0
  9 10  1  0  0  0  0
  9 11  1  0  0  0  0
  9 18  1  0  0  0  0
  7  8  1  0  0  0  0
  7  9  1  0  0  0  0
 22 23  1  0  0  0  0
 22 24  1  0  0  0  0
 22 25  1  0  0  0  0
 20 21  1  0  0  0  0
 20 22  1  0  0  0  0
M  END
$$$$
default_name
  -OEChem-02102213163D

 25 24  0     1  0  0  0  0  0999 V2000
   -2.7826   -3.8464    0.7821 H   0  0  0  0  0  0  0  0  0  0  0  0
   -2.8156   -2.8034    0.4711 C   0  0  0  0  0  0  0  0  0  0  0  0
   -3.4336   -2.2354    1.1641 H   0  0  0  0  0  0  0  0  0  0  0  0
   -3.2256   -2.7344   -0.5349 H   0  0  0  0  0  0  0  0  0  0  0  0
   -1.4126   -2.2444    0.4801 C   0  0  0  0  0  0  0  0  0  0  0  0
   -0.4686   -2.9534    0.8001 O   0  0  0  0  0  0  0  0  0  0  0  0
   -1.2736   -0.9704    0.1241 N   0  0  0  0  0  0  0  0  0  0  0  0
   -2.0996   -0.4354   -0.1019 H   0  0  0  0  0  0  0  0  0  0  0  0
   -0.0016   -0.2394    0.1271 C   0  0  1  0  0  0  0  0  0  0  0  0
    0.6995   -0.7619   -0.5275 H   0  0  0  0  0  0  0  0  0  0  0  0
   -0.2283    1.1832   -0.4215 C   0  0  0  0  0  0  0  0  0  0  0  0
    0.5682    1.4326   -1.1236 H   0  0  0  0  0  0  0  0  0  0  0  0
   -1.1751    1.2221   -0.9614 H   0  0  0  0  0  0  0  0  0  0  0  0
   -0.2227    2.2589    0.6604 C   0  0  0  0  0  0  0  0  0  0  0  0
   -0.9901    2.3162    1.6123 O   0  0  0  0  0  0  0  0  0  0  0  0
    0.7194    3.2082    0.5078 O   0  0  0  0  0  0  0  0  0  0  0  0
    0.6218    3.7976    1.2563 H   0  0  0  0  0  0  0  0  0  0  0  0
    0.5920   -0.2154    1.5497 C   0  0  0  0  0  0  0  0  0  0  0  0
    1.7860   -0.4596    1.7183 O   0  0  0  0  0  0  0  0  0  0  0  0
   -0.2294    0.0669    2.5672 N   0  0  0  0  0  0  0  0  0  0  0  0
   -1.2130    0.1938    2.3518 H   0  0  0  0  0  0  0  0  0  0  0  0
    0.1836    0.1337    3.9673 C   0  0  0  0  0  0  0  0  0  0  0  0
    1.0451    0.7976    4.0666 H   0  0  0  0  0  0  0  0  0  0  0  0
   -0.6344    0.5115    4.5820 H   0  0  0  0  0  0  0  0  0  0  0  0
    0.4676   -0.8609    4.3157 H   0  0  0  0  0  0  0  0  0  0  0  0
  5  6  2  0  0  0  0
  5  7  1  0  0  0  0
  2  3  1  0  0  0  0
  2  4  1  0  0  0  0
  2  5  1  0  0  0  0
  1  2  1  0  0  0  0
 18 19  2  0  0  0  0
 18 20  1  0  0  0  0
 16 17  1  0  0  0  0
 14 15  2  0  0  0  0
 14 16  1  0  0  0  0
 11 12  1  0  0  0  0
 11 13  1  0  0  0  0
 11 14  1  0  0  0  0
  9 10  1  0  0  0  0
  9 11  1  0  0  0  0
  9 18  1  0  0  0  0
  7  8  1  0  0  0  0
  7  9  1  0  0  0  0
 22 23  1  0  0  0  0
 22 24  1  0  0  0  0
 22 25  1  0  0  0  0
 20 21  1  0  0  0  0
 20 22  1  0  0  0  0
M  END
$$$$
default_name
  -OEChem-02102213163D

 25 24  0     1  0  0  0  0  0999 V2000
   -2.7826   -3.8464    0.7821 H   0  0  0  0  0  0  0  0  0  0  0  0
   -2.8156   -2.8034    0.4711 C   0  0  0  0  0  0  0  0  0  0  0  0
   -3.4336   -2.2354    1.1641 H   0  0  0  0  0  0  0  0  0  0  0  0
   -3.2256   -2.7344   -0.5349 H   0  0  0  0  0  0  0  0  0  0  0  0
   -1.4126   -2.2444    0.4801 C   0  0  0  0  0  0  0  0  0  0  0  0
   -0.4686   -2.9534    0.8001 O   0  0  0  0  0  0  0  0  0  0  0  0
   -1.2736   -0.9704    0.1241 N   0  0  0  0  0  0  0  0  0  0  0  0
   -2.0996   -0.4354   -0.1019 H   0  0  0  0  0  0  0  0  0  0  0  0
   -0.0016   -0.2394    0.1271 C   0  0  1  0  0  0  0  0  0  0  0  0
    0.6995   -0.7619   -0.5275 H   0  0  0  0  0  0  0  0  0  0  0  0
   -0.2283    1.1832   -0.4215 C   0  0  0  0  0  0  0  0  0  0  0  0
    0.5682    1.4326   -1.1236 H   0  0  0  0  0  0  0  0  0  0  0  0
   -1.1751    1.2221   -0.9614 H   0  0  0  0  0  0  0  0  0  0  0  0
   -0.2227    2.2589    0.6604 C   0  0  0  0  0  0  0  0  0  0  0  0
   -0.8007    2.1896    1.7372 O   0  0  0  0  0  0  0  0  0  0  0  0
    0.4853    3.3625    0.3556 O   0  0  0  0  0  0  0  0  0  0  0  0
    0.4196    3.9359    1.1199 H   0  0  0  0  0  0  0  0  0  0  0  0
    0.5920   -0.2154    1.5497 C   0  0  0  0  0  0  0  0  0  0  0  0
    1.7860   -0.4596    1.7183 O   0  0  0  0  0  0  0  0  0  0  0  0
   -0.2294    0.0669    2.5672 N   0  0  0  0  0  0  0  0  0  0  0  0
   -1.2130    0.1938    2.3518 H   0  0  0  0  0  0  0  0  0  0  0  0
    0.1836    0.1337    3.9673 C   0  0  0  0  0  0  0  0  0  0  0  0
    1.0451    0.7976    4.0666 H   0  0  0  0  0  0  0  0  0  0  0  0
   -0.6344    0.5115    4.5820 H   0  0  0  0  0  0  0  0  0  0  0  0
    0.4676   -0.8609    4.3157 H   0  0  0  0  0  0  0  0  0  0  0  0
  5  6  2  0  0  0  0
  5  7  1  0  0  0  0
  2  3  1  0  0  0  0
  2  4  1  0  0  0  0
  2  5  1  0  0  0  0
  1  2  1  0  0  0  0
 18 19  2  0  0  0  0
 18 20  1  0  0  0  0
 16 17  1  0  0  0  0
 14 15  2  0  0  0  0
 14 16  1  0  0  0  0
 11 12  1  0  0  0  0
 11 13  1  0  0  0  0
 11 14  1  0  0  0  0
  9 10  1  0  0  0  0
  9 11  1  0  0  0  0
  9 18  1  0  0  0  0
  7  8  1  0  0  0  0
  7  9  1  0  0  0  0
 22 23  1  0  0  0  0
 22 24  1  0  0  0  0
 22 25  1  0  0  0  0
 20 21  1  0  0  0  0
 20 22  1  0  0  0  0
M  END
$$$$
default_name
  -OEChem-02102213163D

 25 24  0     1  0  0  0  0  0999 V2000
   -2.7826   -3.8464    0.7821 H   0  0  0  0  0  0  0  0  0  0  0  0
   -2.8156   -2.8034    0.4711 C   0  0  0  0  0  0  0  0  0  0  0  0
   -3.4336   -2.2354    1.1641 H   0  0  0  0  0  0  0  0  0  0  0  0
   -3.2256   -2.7344   -0.5349 H   0  0  0  0  0  0  0  0  0  0  0  0
   -1.4126   -2.2444    0.4801 C   0  0  0  0  0  0  0  0  0  0  0  0
   -0.4686   -2.9534    0.8001 O   0  0  0  0  0  0  0  0  0  0  0  0
   -1.2736   -0.9704    0.1241 N   0  0  0  0  0  0  0  0  0  0  0  0
   -2.0996   -0.4354   -0.1019 H   0  0  0  0  0  0  0  0  0  0  0  0
   -0.0016   -0.2394    0.1271 C   0  0  1  0  0  0  0  0  0  0  0  0
    0.6995   -0.7619   -0.5275 H   0  0  0  0  0  0  0  0  0  0  0  0
   -0.2283    1.1832   -0.4215 C   0  0  0  0  0  0  0  0  0  0  0  0
    0.5682    1.4326   -1.1236 H   0  0  0  0  0  0  0  0  0  0  0  0
   -1.1751    1.2221   -0.9614 H   0  0  0  0  0  0  0  0  0  0  0  0
   -0.2227    2.2589    0.6604 C   0  0  0  0  0  0  0  0  0  0  0  0
   -0.5717    2.1020    1.8231 O   0  0  0  0  0  0  0  0  0  0  0  0
    0.2031    3.4687    0.2515 O   0  0  0  0  0  0  0  0  0  0  0  0
    0.1739    4.0325    1.0251 H   0  0  0  0  0  0  0  0  0  0  0  0
    0.5920   -0.2154    1.5497 C   0  0  0  0  0  0  0  0  0  0  0  0
    1.7860   -0.4596    1.7183 O   0  0  0  0  0  0  0  0  0  0  0  0
   -0.2294    0.0669    2.5672 N   0  0  0  0  0  0  0  0  0  0  0  0
   -1.2130    0.1938    2.3518 H   0  0  0  0  0  0  0  0  0  0  0  0
    0.1836    0.1337    3.9673 C   0  0  0  0  0  0  0  0  0  0  0  0
    1.0451    0.7976    4.0666 H   0  0  0  0  0  0  0  0  0  0  0  0
   -0.6344    0.5115    4.5820 H   0  0  0  0  0  0  0  0  0  0  0  0
    0.4676   -0.8609    4.3157 H   0  0  0  0  0  0  0  0  0  0  0  0
  5  6  2  0  0  0  0
  5  7  1  0  0  0  0
  2  3  1  0  0  0  0
  2  4  1  0  0  0  0
  2  5  1  0  0  0  0
  1  2  1  0  0  0  0
 18 19  2  0  0  0  0
 18 20  1  0  0  0  0
 16 17  1  0  0  0  0
 14 15  2  0  0  0  0
 14 16  1  0  0  0  0
 11 12  1  0  0  0  0
 11 13  1  0  0  0  0
 11 14  1  0  0  0  0
  9 10  1  0  0  0  0
  9 11  1  0  0  0  0
  9 18  1  0  0  0  0
  7  8  1  0  0  0  0
  7  9  1  0  0  0  0
 22 23  1  0  0  0  0
 22 24  1  0  0  0  0
 22 25  1  0  0  0  0
 20 21  1  0  0  0  0
 20 22  1  0  0  0  0
M  END
$$$$
default_name
  -OEChem-02102213163D

 25 24  0     1  0  0  0  0  0999 V2000
   -2.7826   -3.8464    0.7821 H   0  0  0  0  0  0  0  0  0  0  0  0
   -2.8156   -2.8034    0.4711 C   0  0  0  0  0  0  0  0  0  0  0  0
   -3.4336   -2.2354    1.1641 H   0  0  0  0  0  0  0  0  0  0  0  0
   -3.2256   -2.7344   -0.5349 H   0  0  0  0  0  0  0  0  0  0  0  0
   -1.4126   -2.2444    0.4801 C   0  0  0  0  0  0  0  0  0  0  0  0
   -0.4686   -2.9534    0.8001 O   0  0  0  0  0  0  0  0  0  0  0  0
   -1.2736   -0.9704    0.1241 N   0  0  0  0  0  0  0  0  0  0  0  0
   -2.0996   -0.4354   -0.1019 H   0  0  0  0  0  0  0  0  0  0  0  0
   -0.0016   -0.2394    0.1271 C   0  0  1  0  0  0  0  0  0  0  0  0
    0.6995   -0.7619   -0.5275 H   0  0  0  0  0  0  0  0  0  0  0  0
   -0.2283    1.1832   -0.4215 C   0  0  0  0  0  0  0  0  0  0  0  0
    0.5682    1.4326   -1.1236 H   0  0  0  0  0  0  0  0  0  0  0  0
   -1.1751    1.2221   -0.9614 H   0  0  0  0  0  0  0  0  0  0  0  0
   -0.2227    2.2589    0.6604 C   0  0  0  0  0  0  0  0  0  0  0  0
   -0.3187    2.0593    1.8642 O   0  0  0  0  0  0  0  0  0  0  0  0
   -0.1080    3.5195    0.2025 O   0  0  0  0  0  0  0  0  0  0  0  0
   -0.0983    4.0808    0.9784 H   0  0  0  0  0  0  0  0  0  0  0  0
    0.5920   -0.2154    1.5497 C   0  0  0  0  0  0  0  0  0  0  0  0
    1.7860   -0.4596    1.7183 O   0  0  0  0  0  0  0  0  0  0  0  0
   -0.2294    0.0669    2.5672 N   0  0  0  0  0  0  0  0  0  0  0  0
   -1.2130    0.1938    2.3518 H   0  0  0  0  0  0  0  0  0  0  0  0
    0.1836    0.1337    3.9673 C   0  0  0  0  0  0  0  0  0  0  0  0
    1.0451    0.7976    4.0666 H   0  0  0  0  0  0  0  0  0  0  0  0
   -0.6344    0.5115    4.5820 H   0  0  0  0  0  0  0  0  0  0  0  0
    0.4676   -0.8609    4.3157 H   0  0  0  0  0  0  0  0  0  0  0  0
  5  6  2  0  0  0  0
  5  7  1  0  0  0  0
  2  3  1  0  0  0  0
  2  4  1  0  0  0  0
  2  5  1  0  0  0  0
  1  2  1  0  0  0  0
 18 19  2  0  0  0  0
 18 20  1  0  0  0  0
 16 17  1  0  0  0  0
 14 15  2  0  0  0  0
 14 16  1  0  0  0  0
 11 12  1  0  0  0  0
 11 13  1  0  0  0  0
 11 14  1  0  0  0  0
  9 10  1  0  0  0  0
  9 11  1  0  0  0  0
  9 18  1  0  0  0  0
  7  8  1  0  0  0  0
  7  9  1  0  0  0  0
 22 23  1  0  0  0  0
 22 24  1  0  0  0  0
 22 25  1  0  0  0  0
 20 21  1  0  0  0  0
 20 22  1  0  0  0  0
M  END
$$$$
default_name
  -OEChem-02102213163D

 25 24  0     1  0  0  0  0  0999 V2000
   -2.7826   -3.8464    0.7821 H   0  0  0  0  0  0  0  0  0  0  0  0
   -2.8156   -2.8034    0.4711 C   0  0  0  0  0  0  0  0  0  0  0  0
   -3.4336   -2.2354    1.1641 H   0  0  0  0  0  0  0  0  0  0  0  0
   -3.2256   -2.7344   -0.5349 H   0  0  0  0  0  0  0  0  0  0  0  0
   -1.4126   -2.2444    0.4801 C   0  0  0  0  0  0  0  0  0  0  0  0
   -0.4686   -2.9534    0.8001 O   0  0  0  0  0  0  0  0  0  0  0  0
   -1.2736   -0.9704    0.1241 N   0  0  0  0  0  0  0  0  0  0  0  0
   -2.0996   -0.4354   -0.1019 H   0  0  0  0  0  0  0  0  0  0  0  0
   -0.0016   -0.2394    0.1271 C   0  0  1  0  0  0  0  0  0  0  0  0
    0.6995   -0.7619   -0.5275 H   0  0  0  0  0  0  0  0  0  0  0  0
   -0.2283    1.1832   -0.4215 C   0  0  0  0  0  0  0  0  0  0  0  0
    0.5682    1.4326   -1.1236 H   0  0  0  0  0  0  0  0  0  0  0  0
   -1.1751    1.2221   -0.9614 H   0  0  0  0  0  0  0  0  0  0  0  0
   -0.2227    2.2589    0.6604 C   0  0  0  0  0  0  0  0  0  0  0  0
   -0.0590    2.0644    1.8577 O   0  0  0  0  0  0  0  0  0  0  0  0
   -0.4267    3.5116    0.2120 O   0  0  0  0  0  0  0  0  0  0  0  0
   -0.3787    4.0775    0.9831 H   0  0  0  0  0  0  0  0  0  0  0  0
    0.5920   -0.2154    1.5497 C   0  0  0  0  0  0  0  0  0  0  0  0
    1.7860   -0.4596    1.7183 O   0  0  0  0  0  0  0  0  0  0  0  0
   -0.2294    0.0669    2.5672 N   0  0  0  0  0  0  0  0  0  0  0  0
   -1.2130    0.1938    2.3518 H   0  0  0  0  0  0  0  0  0  0  0  0
    0.1836    0.1337    3.9673 C   0  0  0  0  0  0  0  0  0  0  0  0
    1.0451    0.7976    4.0666 H   0  0  0  0  0  0  0  0  0  0  0  0
   -0.6344    0.5115    4.5820 H   0  0  0  0  0  0  0  0  0  0  0  0
    0.4676   -0.8609    4.3157 H   0  0  0  0  0  0  0  0  0  0  0  0
  5  6  2  0  0  0  0
  5  7  1  0  0  0  0
  2  3  1  0  0  0  0
  2  4  1  0  0  0  0
  2  5  1  0  0  0  0
  1  2  1  0  0  0  0
 18 19  2  0  0  0  0
 18 20  1  0  0  0  0
 16 17  1  0  0  0  0
 14 15  2  0  0  0  0
 14 16  1  0  0  0  0
 11 12  1  0  0  0  0
 11 13  1  0  0  0  0
 11 14  1  0  0  0  0
  9 10  1  0  0  0  0
  9 11  1  0  0  0  0
  9 18  1  0  0  0  0
  7  8  1  0  0  0  0
  7  9  1  0  0  0  0
 22 23  1  0  0  0  0
 22 24  1  0  0  0  0
 22 25  1  0  0  0  0
 20 21  1  0  0  0  0
 20 22  1  0  0  0  0
M  END
$$$$
default_name
  -OEChem-02102213163D

 25 24  0     1  0  0  0  0  0999 V2000
   -2.7826   -3.8464    0.7821 H   0  0  0  0  0  0  0  0  0  0  0  0
   -2.8156   -2.8034    0.4711 C   0  0  0  0  0  0  0  0  0  0  0  0
   -3.4336   -2.2354    1.1641 H   0  0  0  0  0  0  0  0  0  0  0  0
   -3.2256   -2.7344   -0.5349 H   0  0  0  0  0  0  0  0  0  0  0  0
   -1.4126   -2.2444    0.4801 C   0  0  0  0  0  0  0  0  0  0  0  0
   -0.4686   -2.9534    0.8001 O   0  0  0  0  0  0  0  0  0  0  0  0
   -1.2736   -0.9704    0.1241 N   0  0  0  0  0  0  0  0  0  0  0  0
   -2.0996   -0.4354   -0.1019 H   0  0  0  0  0  0  0  0  0  0  0  0
   -0.0016   -0.2394    0.1271 C   0  0  1  0  0  0  0  0  0  0  0  0
    0.6995   -0.7619   -0.5275 H   0  0  0  0  0  0  0  0  0  0  0  0
   -0.2283    1.1832   -0.4215 C   0  0  0  0  0  0  0  0  0  0  0  0
    0.5682    1.4326   -1.1236 H   0  0  0  0  0  0  0  0  0  0  0  0
   -1.1751    1.2221   -0.9614 H   0  0  0  0  0  0  0  0  0  0  0  0
   -0.2227    2.2589    0.6604 C   0  0  0  0  0  0  0  0  0  0  0  0
    0.1897    2.1171    1.8041 O   0  0  0  0  0  0  0  0  0  0  0  0
   -0.7315    3.4455    0.2793 O   0  0  0  0  0  0  0  0  0  0  0  0
   -0.6481    4.0229    1.0388 H   0  0  0  0  0  0  0  0  0  0  0  0
    0.5920   -0.2154    1.5497 C   0  0  0  0  0  0  0  0  0  0  0  0
    1.7860   -0.4596    1.7183 O   0  0  0  0  0  0  0  0  0  0  0  0
   -0.2294    0.0669    2.5672 N   0  0  0  0  0  0  0  0  0  0  0  0
   -1.2130    0.1938    2.3518 H   0  0  0  0  0  0  0  0  0  0  0  0
    0.1836    0.1337    3.9673 C   0  0  0  0  0  0  0  0  0  0  0  0
    1.0451    0.7976    4.0666 H   0  0  0  0  0  0  0  0  0  0  0  0
   -0.6344    0.5115    4.5820 H   0  0  0  0  0  0  0  0  0  0  0  0
    0.4676   -0.8609    4.3157 H   0  0  0  0  0  0  0  0  0  0  0  0
  5  6  2  0  0  0  0
  5  7  1  0  0  0  0
  2  3  1  0  0  0  0
  2  4  1  0  0  0  0
  2  5  1  0  0  0  0
  1  2  1  0  0  0  0
 18 19  2  0  0  0  0
 18 20  1  0  0  0  0
 16 17  1  0  0  0  0
 14 15  2  0  0  0  0
 14 16  1  0  0  0  0
 11 12  1  0  0  0  0
 11 13  1  0  0  0  0
 11 14  1  0  0  0  0
  9 10  1  0  0  0  0
  9 11  1  0  0  0  0
  9 18  1  0  0  0  0
  7  8  1  0  0  0  0
  7  9  1  0  0  0  0
 22 23  1  0  0  0  0
 22 24  1  0  0  0  0
 22 25  1  0  0  0  0
 20 21  1  0  0  0  0
 20 22  1  0  0  0  0
M  END
$$$$
default_name
  -OEChem-02102213163D

 25 24  0     1  0  0  0  0  0999 V2000
   -2.7826   -3.8464    0.7821 H   0  0  0  0  0  0  0  0  0  0  0  0
   -2.8156   -2.8034    0.4711 C   0  0  0  0  0  0  0  0  0  0  0  0
   -3.4336   -2.2354    1.1641 H   0  0  0  0  0  0  0  0  0  0  0  0
   -3.2256   -2.7344   -0.5349 H   0  0  0  0  0  0  0  0  0  0  0  0
   -1.4126   -2.2444    0.4801 C   0  0  0  0  0  0  0  0  0  0  0  0
   -0.4686   -2.9534    0.8001 O   0  0  0  0  0  0  0  0  0  0  0  0
   -1.2736   -0.9704    0.1241 N   0  0  0  0  0  0  0  0  0  0  0  0
   -2.0996   -0.4354   -0.1019 H   0  0  0  0  0  0  0  0  0  0  0  0
   -0.0016   -0.2394    0.1271 C   0  0  1  0  0  0  0  0  0  0  0  0
    0.6995   -0.7619   -0.5275 H   0  0  0  0  0  0  0  0  0  0  0  0
   -0.2283    1.1832   -0.4215 C   0  0  0  0  0  0  0  0  0  0  0  0
    0.5682    1.4326   -1.1236 H   0  0  0  0  0  0  0  0  0  0  0  0
   -1.1751    1.2221   -0.9614 H   0  0  0  0  0  0  0  0  0  0  0  0
   -0.2227    2.2589    0.6604 C   0  0  0  0  0  0  0  0  0  0  0  0
    0.4105    2.2137    1.7070 O   0  0  0  0  0  0  0  0  0  0  0  0
   -1.0014    3.3256    0.3999 O   0  0  0  0  0  0  0  0  0  0  0  0
   -0.8881    3.9207    1.1417 H   0  0  0  0  0  0  0  0  0  0  0  0
    0.5920   -0.2154    1.5497 C   0  0  0  0  0  0  0  0  0  0  0  0
    1.7860   -0.4596    1.7183 O   0  0  0  0  0  0  0  0  0  0  0  0
   -0.2294    0.0669    2.5672 N   0  0  0  0  0  0  0  0  0  0  0  0
   -1.2130    0.1938    2.3518 H   0  0  0  0  0  0  0  0  0  0  0  0
    0.1836    0.1337    3.9673 C   0  0  0  0  0  0  0  0  0  0  0  0
    1.0451    0.7976    4.0666 H   0  0  0  0  0  0  0  0  0  0  0  0
   -0.6344    0.5115    4.5820 H   0  0  0  0  0  0  0  0  0  0  0  0
    0.4676   -0.8609    4.3157 H   0  0  0  0  0  0  0  0  0  0  0  0
  5  6  2  0  0  0  0
  5  7  1  0  0  0  0
  2  3  1  0  0  0  0
  2  4  1  0  0  0  0
  2  5  1  0  0  0  0
  1  2  1  0  0  0  0
 18 19  2  0  0  0  0
 18 20  1  0  0  0  0
 16 17  1  0  0  0  0
 14 15  2  0  0  0  0
 14 16  1  0  0  0  0
 11 12  1  0  0  0  0
 11 13  1  0  0  0  0
 11 14  1  0  0  0  0
  9 10  1  0  0  0  0
  9 11  1  0  0  0  0
  9 18  1  0  0  0  0
  7  8  1  0  0  0  0
  7  9  1  0  0  0  0
 22 23  1  0  0  0  0
 22 24  1  0  0  0  0
 22 25  1  0  0  0  0
 20 21  1  0  0  0  0
 20 22  1  0  0  0  0
M  END
$$$$
default_name
  -OEChem-02102213163D

 25 24  0     1  0  0  0  0  0999 V2000
   -2.7826   -3.8464    0.7821 H   0  0  0  0  0  0  0  0  0  0  0  0
   -2.8156   -2.8034    0.4711 C   0  0  0  0  0  0  0  0  0  0  0  0
   -3.4336   -2.2354    1.1641 H   0  0  0  0  0  0  0  0  0  0  0  0
   -3.2256   -2.7344   -0.5349 H   0  0  0  0  0  0  0  0  0  0  0  0
   -1.4126   -2.2444    0.4801 C   0  0  0  0  0  0  0  0  0  0  0  0
   -0.4686   -2.9534    0.8001 O   0  0  0  0  0  0  0  0  0  0  0  0
   -1.2736   -0.9704    0.1241 N   0  0  0  0  0  0  0  0  0  0  0  0
   -2.0996   -0.4354   -0.1019 H   0  0  0  0  0  0  0  0  0  0  0  0
   -0.0016   -0.2394    0.1271 C   0  0  1  0  0  0  0  0  0  0  0  0
    0.6995   -0.7619   -0.5275 H   0  0  0  0  0  0  0  0  0  0  0  0
   -0.2283    1.1832   -0.4215 C   0  0  0  0  0  0  0  0  0  0  0  0
    0.5682    1.4326   -1.1236 H   0  0  0  0  0  0  0  0  0  0  0  0
   -1.1751    1.2221   -0.9614 H   0  0  0  0  0  0  0  0  0  0  0  0
   -0.2227    2.2589    0.6604 C   0  0  0  0  0  0  0  0  0  0  0  0
    0.5883    2.3475    1.5729 O   0  0  0  0  0  0  0  0  0  0  0  0
   -1.2181    3.1602    0.5655 O   0  0  0  0  0  0  0  0  0  0  0  0
   -1.0824    3.7777    1.2848 H   0  0  0  0  0  0  0  0  0  0  0  0
    0.5920   -0.2154    1.5497 C   0  0  0  0  0  0  0  0  0  0  0  0
    1.7860   -0.4596    1.7183 O   0  0  0  0  0  0  0  0  0  0  0  0
   -0.2294    0.0669    2.5672 N   0  0  0  0  0  0  0  0  0  0  0  0
   -1.2130    0.1938    2.3518 H   0  0  0  0  0  0  0  0  0  0  0  0
    0.1836    0.1337    3.9673 C   0  0  0  0  0  0  0  0  0  0  0  0
    1.0451    0.7976    4.0666 H   0  0  0  0  0  0  0  0  0  0  0  0
   -0.6344    0.5115    4.5820 H   0  0  0  0  0  0  0  0  0  0  0  0
    0.4676   -0.8609    4.3157 H   0  0  0  0  0  0  0  0  0  0  0  0
  5  6  2  0  0  0  0
  5  7  1  0  0  0  0
  2  3  1  0  0  0  0
  2  4  1  0  0  0  0
  2  5  1  0  0  0  0
  1  2  1  0  0  0  0
 18 19  2  0  0  0  0
 18 20  1  0  0  0  0
 16 17  1  0  0  0  0
 14 15  2  0  0  0  0
 14 16  1  0  0  0  0
 11 12  1  0  0  0  0
 11 13  1  0  0  0  0
 11 14  1  0  0  0  0
  9 10  1  0  0  0  0
  9 11  1  0  0  0  0
  9 18  1  0  0  0  0
  7  8  1  0  0  0  0
  7  9  1  0  0  0  0
 22 23  1  0  0  0  0
 22 24  1  0  0  0  0
 22 25  1  0  0  0  0
 20 21  1  0  0  0  0
 20 22  1  0  0  0  0
M  END
$$$$
default_name
  -OEChem-02102213163D

 25 24  0     1  0  0  0  0  0999 V2000
   -2.7826   -3.8464    0.7821 H   0  0  0  0  0  0  0  0  0  0  0  0
   -2.8156   -2.8034    0.4711 C   0  0  0  0  0  0  0  0  0  0  0  0
   -3.4336   -2.2354    1.1641 H   0  0  0  0  0  0  0  0  0  0  0  0
   -3.2256   -2.7344   -0.5349 H   0  0  0  0  0  0  0  0  0  0  0  0
   -1.4126   -2.2444    0.4801 C   0  0  0  0  0  0  0  0  0  0  0  0
   -0.4686   -2.9534    0.8001 O   0  0  0  0  0  0  0  0  0  0  0  0
   -1.2736   -0.9704    0.1241 N   0  0  0  0  0  0  0  0  0  0  0  0
   -2.0996   -0.4354   -0.1019 H   0  0  0  0  0  0  0  0  0  0  0  0
   -0.0016   -0.2394    0.1271 C   0  0  1  0  0  0  0  0  0  0  0  0
    0.6995   -0.7619   -0.5275 H   0  0  0  0  0  0  0  0  0  0  0  0
   -0.2283    1.1832   -0.4215 C   0  0  0  0  0  0  0  0  0  0  0  0
    0.5682    1.4326   -1.1236 H   0  0  0  0  0  0  0  0  0  0  0  0
   -1.1751    1.2221   -0.9614 H   0  0  0  0  0  0  0  0  0  0  0  0
   -0.2227    2.2589    0.6604 C   0  0  0  0  0  0  0  0  0  0  0  0
    0.7110    2.5096    1.4111 O   0  0  0  0  0  0  0  0  0  0  0  0
   -1.3668    2.9604    0.7649 O   0  0  0  0  0  0  0  0  0  0  0  0
   -1.2177    3.6039    1.4584 H   0  0  0  0  0  0  0  0  0  0  0  0
    0.5920   -0.2154    1.5497 C   0  0  0  0  0  0  0  0  0  0  0  0
    1.7860   -0.4596    1.7183 O   0  0  0  0  0  0  0  0  0  0  0  0
   -0.2294    0.0669    2.5672 N   0  0  0  0  0  0  0  0  0  0  0  0
   -1.2130    0.1938    2.3518 H   0  0  0  0  0  0  0  0  0  0  0  0
    0.1836    0.1337    3.9673 C   0  0  0  0  0  0  0  0  0  0  0  0
    1.0451    0.7976    4.0666 H   0  0  0  0  0  0  0  0  0  0  0  0
   -0.6344    0.5115    4.5820 H   0  0  0  0  0  0  0  0  0  0  0  0
    0.4676   -0.8609    4.3157 H   0  0  0  0  0  0  0  0  0  0  0  0
  5  6  2  0  0  0  0
  5  7  1  0  0  0  0
  2  3  1  0  0  0  0
  2  4  1  0  0  0  0
  2  5  1  0  0  0  0
  1  2  1  0  0  0  0
 18 19  2  0  0  0  0
 18 20  1  0  0  0  0
 16 17  1  0  0  0  0
 14 15  2  0  0  0  0
 14 16  1  0  0  0  0
 11 12  1  0  0  0  0
 11 13  1  0  0  0  0
 11 14  1  0  0  0  0
  9 10  1  0  0  0  0
  9 11  1  0  0  0  0
  9 18  1  0  0  0  0
  7  8  1  0  0  0  0
  7  9  1  0  0  0  0
 22 23  1  0  0  0  0
 22 24  1  0  0  0  0
 22 25  1  0  0  0  0
 20 21  1  0  0  0  0
 20 22  1  0  0  0  0
M  END
$$$$
default_name
  -OEChem-02102213163D

 25 24  0     1  0  0  0  0  0999 V2000
   -2.7826   -3.8464    0.7821 H   0  0  0  0  0  0  0  0  0  0  0  0
   -2.8156   -2.8034    0.4711 C   0  0  0  0  0  0  0  0  0  0  0  0
   -3.4336   -2.2354    1.1641 H   0  0  0  0  0  0  0  0  0  0  0  0
   -3.2256   -2.7344   -0.5349 H   0  0  0  0  0  0  0  0  0  0  0  0
   -1.4126   -2.2444    0.4801 C   0  0  0  0  0  0  0  0  0  0  0  0
   -0.4686   -2.9534    0.8001 O   0  0  0  0  0  0  0  0  0  0  0  0
   -1.2736   -0.9704    0.1241 N   0  0  0  0  0  0  0  0  0  0  0  0
   -2.0996   -0.4354   -0.1019 H   0  0  0  0  0  0  0  0  0  0  0  0
   -0.0016   -0.2394    0.1271 C   0  0  1  0  0  0  0  0  0  0  0  0
    0.6995   -0.7619   -0.5275 H   0  0  0  0  0  0  0  0  0  0  0  0
   -0.2283    1.1832   -0.4215 C   0  0  0  0  0  0  0  0  0  0  0  0
    0.5682    1.4326   -1.1236 H   0  0  0  0  0  0  0  0  0  0  0  0
   -1.1751    1.2221   -0.9614 H   0  0  0  0  0  0  0  0  0  0  0  0
   -0.2227    2.2589    0.6604 C   0  0  0  0  0  0  0  0  0  0  0  0
    0.7703    2.6888    1.2326 O   0  0  0  0  0  0  0  0  0  0  0  0
   -1.4374    2.7400    0.9844 O   0  0  0  0  0  0  0  0  0  0  0  0
   -1.2848    3.4110    1.6505 H   0  0  0  0  0  0  0  0  0  0  0  0
    0.5920   -0.2154    1.5497 C   0  0  0  0  0  0  0  0  0  0  0  0
    1.7860   -0.4596    1.7183 O   0  0  0  0  0  0  0  0  0  0  0  0
   -0.2294    0.0669    2.5672 N   0  0  0  0  0  0  0  0  0  0  0  0
   -1.2130    0.1938    2.3518 H   0  0  0  0  0  0  0  0  0  0  0  0
    0.1836    0.1337    3.9673 C   0  0  0  0  0  0  0  0  0  0  0  0
    1.0451    0.7976    4.0666 H   0  0  0  0  0  0  0  0  0  0  0  0
   -0.6344    0.5115    4.5820 H   0  0  0  0  0  0  0  0  0  0  0  0
    0.4676   -0.8609    4.3157 H   0  0  0  0  0  0  0  0  0  0  0  0
  5  6  2  0  0  0  0
  5  7  1  0  0  0  0
  2  3  1  0  0  0  0
  2  4  1  0  0  0  0
  2  5  1  0  0  0  0
  1  2  1  0  0  0  0
 18 19  2  0  0  0  0
 18 20  1  0  0  0  0
 16 17  1  0  0  0  0
 14 15  2  0  0  0  0
 14 16  1  0  0  0  0
 11 12  1  0  0  0  0
 11 13  1  0  0  0  0
 11 14  1  0  0  0  0
  9 10  1  0  0  0  0
  9 11  1  0  0  0  0
  9 18  1  0  0  0  0
  7  8  1  0  0  0  0
  7  9  1  0  0  0  0
 22 23  1  0  0  0  0
 22 24  1  0  0  0  0
 22 25  1  0  0  0  0
 20 21  1  0  0  0  0
 20 22  1  0  0  0  0
M  END
$$$$
default_name
  -OEChem-02102213163D

 25 24  0     1  0  0  0  0  0999 V2000
   -2.7826   -3.8464    0.7821 H   0  0  0  0  0  0  0  0  0  0  0  0
   -2.8156   -2.8034    0.4711 C   0  0  0  0  0  0  0  0  0  0  0  0
   -3.4336   -2.2354    1.1641 H   0  0  0  0  0  0  0  0  0  0  0  0
   -3.2256   -2.7344   -0.5349 H   0  0  0  0  0  0  0  0  0  0  0  0
   -1.4126   -2.2444    0.4801 C   0  0  0  0  0  0  0  0  0  0  0  0
   -0.4686   -2.9534    0.8001 O   0  0  0  0  0  0  0  0  0  0  0  0
   -1.2736   -0.9704    0.1241 N   0  0  0  0  0  0  0  0  0  0  0  0
   -2.0996   -0.4354   -0.1019 H   0  0  0  0  0  0  0  0  0  0  0  0
   -0.0016   -0.2394    0.1271 C   0  0  1  0  0  0  0  0  0  0  0  0
    0.6995   -0.7619   -0.5275 H   0  0  0  0  0  0  0  0  0  0  0  0
   -0.2283    1.1832   -0.4215 C   0  0  0  0  0  0  0  0  0  0  0  0
    0.5682    1.4326   -1.1236 H   0  0  0  0  0  0  0  0  0  0  0  0
   -1.1751    1.2221   -0.9614 H   0  0  0  0  0  0  0  0  0  0  0  0
   -0.2227    2.2589    0.6604 C   0  0  0  0  0  0  0  0  0  0  0  0
    0.7621    2.8730    1.0495 O   0  0  0  0  0  0  0  0  0  0  0  0
   -1.4251    2.5139    1.2092 O   0  0  0  0  0  0  0  0  0  0  0  0
   -1.2792    3.2122    1.8482 H   0  0  0  0  0  0  0  0  0  0  0  0
    0.5920   -0.2154    1.5497 C   0  0  0  0  0  0  0  0  0  0  0  0
    1.7860   -0.4596    1.7183 O   0  0  0  0  0  0  0  0  0  0  0  0
   -0.2294    0.0669    2.5672 N   0  0  0  0  0  0  0  0  0  0  0  0
   -1.2130    0.1938    2.3518 H   0  0  0  0  0  0  0  0  0  0  0  0
    0.1836    0.1337    3.9673 C   0  0  0  0  0  0  0  0  0  0  0  0
    1.0451    0.7976    4.0666 H   0  0  0  0  0  0  0  0  0  0  0  0
   -0.6344    0.5115    4.5820 H   0  0  0  0  0  0  0  0  0  0  0  0
    0.4676   -0.8609    4.3157 H   0  0  0  0  0  0  0  0  0  0  0  0
  5  6  2  0  0  0  0
  5  7  1  0  0  0  0
  2  3  1  0  0  0  0
  2  4  1  0  0  0  0
  2  5  1  0  0  0  0
  1  2  1  0  0  0  0
 18 19  2  0  0  0  0
 18 20  1  0  0  0  0
 16 17  1  0  0  0  0
 14 15  2  0  0  0  0
 14 16  1  0  0  0  0
 11 12  1  0  0  0  0
 11 13  1  0  0  0  0
 11 14  1  0  0  0  0
  9 10  1  0  0  0  0
  9 11  1  0  0  0  0
  9 18  1  0  0  0  0
  7  8  1  0  0  0  0
  7  9  1  0  0  0  0
 22 23  1  0  0  0  0
 22 24  1  0  0  0  0
 22 25  1  0  0  0  0
 20 21  1  0  0  0  0
 20 22  1  0  0  0  0
M  END
$$$$
default_name
  -OEChem-02102213163D

 25 24  0     1  0  0  0  0  0999 V2000
   -2.7826   -3.8464    0.7821 H   0  0  0  0  0  0  0  0  0  0  0  0
   -2.8156   -2.8034    0.4711 C   0  0  0  0  0  0  0  0  0  0  0  0
   -3.4336   -2.2354    1.1641 H   0  0  0  0  0  0  0  0  0  0  0  0
   -3.2256   -2.7344   -0.5349 H   0  0  0  0  0  0  0  0  0  0  0  0
   -1.4126   -2.2444    0.4801 C   0  0  0  0  0  0  0  0  0  0  0  0
   -0.4686   -2.9534    0.8001 O   0  0  0  0  0  0  0  0  0  0  0  0
   -1.2736   -0.9704    0.1241 N   0  0  0  0  0  0  0  0  0  0  0  0
   -2.0996   -0.4354   -0.1019 H   0  0  0  0  0  0  0  0  0  0  0  0
   -0.0016   -0.2394    0.1271 C   0  0  1  0  0  0  0  0  0  0  0  0
    0.6995   -0.7619   -0.5275 H   0  0  0  0  0  0  0  0  0  0  0  0
   -0.2283    1.1832   -0.4215 C   0  0  0  0  0  0  0  0  0  0  0  0
    0.5682    1.4326   -1.1236 H   0  0  0  0  0  0  0  0  0  0  0  0
   -1.1751    1.2221   -0.9614 H   0  0  0  0  0  0  0  0  0  0  0  0
   -0.2227    2.2589    0.6604 C   0  0  0  0  0  0  0  0  0  0  0  0
    0.6869    3.0496    0.8744 O   0  0  0  0  0  0  0  0  0  0  0  0
   -1.3307    2.2976    1.4238 O   0  0  0  0  0  0  0  0  0  0  0  0
   -1.2012    3.0210    2.0379 H   0  0  0  0  0  0  0  0  0  0  0  0
    0.5920   -0.2154    1.5497 C   0  0  0  0  0  0  0  0  0  0  0  0
    1.7860   -0.4596    1.7183 O   0  0  0  0  0  0  0  0  0  0  0  0
   -0.2294    0.0669    2.5672 N   0  0  0  0  0  0  0  0  0  0  0  0
   -1.2130    0.1938    2.3518 H   0  0  0  0  0  0  0  0  0  0  0  0
    0.1836    0.1337    3.9673 C   0  0  0  0  0  0  0  0  0  0  0  0
    1.0451    0.7976    4.0666 H   0  0  0  0  0  0  0  0  0  0  0  0
   -0.6344    0.5115    4.5820 H   0  0  0  0  0  0  0  0  0  0  0  0
    0.4676   -0.8609    4.3157 H   0  0  0  0  0  0  0  0  0  0  0  0
  5  6  2  0  0  0  0
  5  7  1  0  0  0  0
  2  3  1  0  0  0  0
  2  4  1  0  0  0  0
  2  5  1  0  0  0  0
  1  2  1  0  0  0  0
 18 19  2  0  0  0  0
 18 20  1  0  0  0  0
 16 17  1  0  0  0  0
 14 15  2  0  0  0  0
 14 16  1  0  0  0  0
 11 12  1  0  0  0  0
 11 13  1  0  0  0  0
 11 14  1  0  0  0  0
  9 10  1  0  0  0  0
  9 11  1  0  0  0  0
  9 18  1  0  0  0  0
  7  8  1  0  0  0  0
  7  9  1  0  0  0  0
 22 23  1  0  0  0  0
 22 24  1  0  0  0  0
 22 25  1  0  0  0  0
 20 21  1  0  0  0  0
 20 22  1  0  0  0  0
M  END
$$$$
default_name
  -OEChem-02102213163D

 25 24  0     1  0  0  0  0  0999 V2000
   -2.7826   -3.8464    0.7821 H   0  0  0  0  0  0  0  0  0  0  0  0
   -2.8156   -2.8034    0.4711 C   0  0  0  0  0  0  0  0  0  0  0  0
   -3.4336   -2.2354    1.1641 H   0  0  0  0  0  0  0  0  0  0  0  0
   -3.2256   -2.7344   -0.5349 H   0  0  0  0  0  0  0  0  0  0  0  0
   -1.4126   -2.2444    0.4801 C   0  0  0  0  0  0  0  0  0  0  0  0
   -0.4686   -2.9534    0.8001 O   0  0  0  0  0  0  0  0  0  0  0  0
   -1.2736   -0.9704    0.1241 N   0  0  0  0  0  0  0  0  0  0  0  0
   -2.0996   -0.4354   -0.1019 H   0  0  0  0  0  0  0  0  0  0  0  0
   -0.0016   -0.2394    0.1271 C   0  0  1  0  0  0  0  0  0  0  0  0
    0.6995   -0.7619   -0.5275 H   0  0  0  0  0  0  0  0  0  0  0  0
   -0.2283    1.1832   -0.4215 C   0  0  0  0  0  0  0  0  0  0  0  0
    0.5682    1.4326   -1.1236 H   0  0  0  0  0  0  0  0  0  0  0  0
   -1.1751    1.2221   -0.9614 H   0  0  0  0  0  0  0  0  0  0  0  0
   -0.2227    2.2589    0.6604 C   0  0  0  0  0  0  0  0  0  0  0  0
    0.5499    3.2065    0.7190 O   0  0  0  0  0  0  0  0  0  0  0  0
   -1.1607    2.1058    1.6136 O   0  0  0  0  0  0  0  0  0  0  0  0
   -1.0561    2.8504    2.2068 H   0  0  0  0  0  0  0  0  0  0  0  0
    0.5920   -0.2154    1.5497 C   0  0  0  0  0  0  0  0  0  0  0  0
    1.7860   -0.4596    1.7183 O   0  0  0  0  0  0  0  0  0  0  0  0
   -0.2294    0.0669    2.5672 N   0  0  0  0  0  0  0  0  0  0  0  0
   -1.2130    0.1938    2.3518 H   0  0  0  0  0  0  0  0  0  0  0  0
    0.1836    0.1337    3.9673 C   0  0  0  0  0  0  0  0  0  0  0  0
    1.0451    0.7976    4.0666 H   0  0  0  0  0  0  0  0  0  0  0  0
   -0.6344    0.5115    4.5820 H   0  0  0  0  0  0  0  0  0  0  0  0
    0.4676   -0.8609    4.3157 H   0  0  0  0  0  0  0  0  0  0  0  0
  5  6  2  0  0  0  0
  5  7  1  0  0  0  0
  2  3  1  0  0  0  0
  2  4  1  0  0  0  0
  2  5  1  0  0  0  0
  1  2  1  0  0  0  0
 18 19  2  0  0  0  0
 18 20  1  0  0  0  0
 16 17  1  0  0  0  0
 14 15  2  0  0  0  0
 14 16  1  0  0  0  0
 11 12  1  0  0  0  0
 11 13  1  0  0  0  0
 11 14  1  0  0  0  0
  9 10  1  0  0  0  0
  9 11  1  0  0  0  0
  9 18  1  0  0  0  0
  7  8  1  0  0  0  0
  7  9  1  0  0  0  0
 22 23  1  0  0  0  0
 22 24  1  0  0  0  0
 22 25  1  0  0  0  0
 20 21  1  0  0  0  0
 20 22  1  0  0  0  0
M  END
$$$$
default_name
  -OEChem-02102213163D

 25 24  0     1  0  0  0  0  0999 V2000
   -2.7826   -3.8464    0.7821 H   0  0  0  0  0  0  0  0  0  0  0  0
   -2.8156   -2.8034    0.4711 C   0  0  0  0  0  0  0  0  0  0  0  0
   -3.4336   -2.2354    1.1641 H   0  0  0  0  0  0  0  0  0  0  0  0
   -3.2256   -2.7344   -0.5349 H   0  0  0  0  0  0  0  0  0  0  0  0
   -1.4126   -2.2444    0.4801 C   0  0  0  0  0  0  0  0  0  0  0  0
   -0.4686   -2.9534    0.8001 O   0  0  0  0  0  0  0  0  0  0  0  0
   -1.2736   -0.9704    0.1241 N   0  0  0  0  0  0  0  0  0  0  0  0
   -2.0996   -0.4354   -0.1019 H   0  0  0  0  0  0  0  0  0  0  0  0
   -0.0016   -0.2394    0.1271 C   0  0  1  0  0  0  0  0  0  0  0  0
    0.6995   -0.7619   -0.5275 H   0  0  0  0  0  0  0  0  0  0  0  0
   -0.2283    1.1832   -0.4215 C   0  0  0  0  0  0  0  0  0  0  0  0
    0.5682    1.4326   -1.1236 H   0  0  0  0  0  0  0  0  0  0  0  0
   -1.1751    1.2221   -0.9614 H   0  0  0  0  0  0  0  0  0  0  0  0
   -0.2227    2.2589    0.6604 C   0  0  0  0  0  0  0  0  0  0  0  0
    0.3605    3.3331    0.5942 O   0  0  0  0  0  0  0  0  0  0  0  0
   -0.9266    1.9515    1.7658 O   0  0  0  0  0  0  0  0  0  0  0  0
   -0.8539    2.7121    2.3432 H   0  0  0  0  0  0  0  0  0  0  0  0
    0.5920   -0.2154    1.5497 C   0  0  0  0  0  0  0  0  0  0  0  0
    1.7860   -0.4596    1.7183 O   0  0  0  0  0  0  0  0  0  0  0  0
   -0.2294    0.0669    2.5672 N   0  0  0  0  0  0  0  0  0  0  0  0
   -1.2130    0.1938    2.3518 H   0  0  0  0  0  0  0  0  0  0  0  0
    0.1836    0.1337    3.9673 C   0  0  0  0  0  0  0  0  0  0  0  0
    1.0451    0.7976    4.0666 H   0  0  0  0  0  0  0  0  0  0  0  0
   -0.6344    0.5115    4.5820 H   0  0  0  0  0  0  0  0  0  0  0  0
    0.4676   -0.8609    4.3157 H   0  0  0  0  0  0  0  0  0  0  0  0
  5  6  2  0  0  0  0
  5  7  1  0  0  0  0
  2  3  1  0  0  0  0
  2  4  1  0  0  0  0
  2  5  1  0  0  0  0
  1  2  1  0  0  0  0
 18 19  2  0  0  0  0
 18 20  1  0  0  0  0
 16 17  1  0  0  0  0
 14 15  2  0  0  0  0
 14 16  1  0  0  0  0
 11 12  1  0  0  0  0
 11 13  1  0  0  0  0
 11 14  1  0  0  0  0
  9 10  1  0  0  0  0
  9 11  1  0  0  0  0
  9 18  1  0  0  0  0
  7  8  1  0  0  0  0
  7  9  1  0  0  0  0
 22 23  1  0  0  0  0
 22 24  1  0  0  0  0
 22 25  1  0  0  0  0
 20 21  1  0  0  0  0
 20 22  1  0  0  0  0
M  END
$$$$
default_name
  -OEChem-02102213163D

 25 24  0     1  0  0  0  0  0999 V2000
   -2.7826   -3.8464    0.7821 H   0  0  0  0  0  0  0  0  0  0  0  0
   -2.8156   -2.8034    0.4711 C   0  0  0  0  0  0  0  0  0  0  0  0
   -3.4336   -2.2354    1.1641 H   0  0  0  0  0  0  0  0  0  0  0  0
   -3.2256   -2.7344   -0.5349 H   0  0  0  0  0  0  0  0  0  0  0  0
   -1.4126   -2.2444    0.4801 C   0  0  0  0  0  0  0  0  0  0  0  0
   -0.4686   -2.9534    0.8001 O   0  0  0  0  0  0  0  0  0  0  0  0
   -1.2736   -0.9704    0.1241 N   0  0  0  0  0  0  0  0  0  0  0  0
   -2.0996   -0.4354   -0.1019 H   0  0  0  0  0  0  0  0  0  0  0  0
   -0.0016   -0.2394    0.1271 C   0  0  1  0  0  0  0  0  0  0  0  0
    0.6995   -0.7619   -0.5275 H   0  0  0  0  0  0  0  0  0  0  0  0
   -0.2283    1.1832   -0.4215 C   0  0  0  0  0  0  0  0  0  0  0  0
    0.5682    1.4326   -1.1236 H   0  0  0  0  0  0  0  0  0  0  0  0
   -1.1751    1.2221   -0.9614 H   0  0  0  0  0  0  0  0  0  0  0  0
   -0.2227    2.2589    0.6604 C   0  0  0  0  0  0  0  0  0  0  0  0
    0.1315    3.4207    0.5082 O   0  0  0  0  0  0  0  0  0  0  0  0
   -0.6444    1.8453    1.8700 O   0  0  0  0  0  0  0  0  0  0  0  0
   -0.6083    2.6155    2.4380 H   0  0  0  0  0  0  0  0  0  0  0  0
    0.5920   -0.2154    1.5497 C   0  0  0  0  0  0  0  0  0  0  0  0
    1.7860   -0.4596    1.7183 O   0  0  0  0  0  0  0  0  0  0  0  0
   -0.2294    0.0669    2.5672 N   0  0  0  0  0  0  0  0  0  0  0  0
   -1.2130    0.1938    2.3518 H   0  0  0  0  0  0  0  0  0  0  0  0
    0.1836    0.1337    3.9673 C   0  0  0  0  0  0  0  0  0  0  0  0
    1.0451    0.7976    4.0666 H   0  0  0  0  0  0  0  0  0  0  0  0
   -0.6344    0.5115    4.5820 H   0  0  0  0  0  0  0  0  0  0  0  0
    0.4676   -0.8609    4.3157 H   0  0  0  0  0  0  0  0  0  0  0  0
  5  6  2  0  0  0  0
  5  7  1  0  0  0  0
  2  3  1  0  0  0  0
  2  4  1  0  0  0  0
  2  5  1  0  0  0  0
  1  2  1  0  0  0  0
 18 19  2  0  0  0  0
 18 20  1  0  0  0  0
 16 17  1  0  0  0  0
 14 15  2  0  0  0  0
 14 16  1  0  0  0  0
 11 12  1  0  0  0  0
 11 13  1  0  0  0  0
 11 14  1  0  0  0  0
  9 10  1  0  0  0  0
  9 11  1  0  0  0  0
  9 18  1  0  0  0  0
  7  8  1  0  0  0  0
  7  9  1  0  0  0  0
 22 23  1  0  0  0  0
 22 24  1  0  0  0  0
 22 25  1  0  0  0  0
 20 21  1  0  0  0  0
 20 22  1  0  0  0  0
M  END
$$$$
default_name
  -OEChem-02102213163D

 25 24  0     1  0  0  0  0  0999 V2000
   -2.7826   -3.8464    0.7821 H   0  0  0  0  0  0  0  0  0  0  0  0
   -2.8156   -2.8034    0.4711 C   0  0  0  0  0  0  0  0  0  0  0  0
   -3.4336   -2.2354    1.1641 H   0  0  0  0  0  0  0  0  0  0  0  0
   -3.2256   -2.7344   -0.5349 H   0  0  0  0  0  0  0  0  0  0  0  0
   -1.4126   -2.2444    0.4801 C   0  0  0  0  0  0  0  0  0  0  0  0
   -0.4686   -2.9534    0.8001 O   0  0  0  0  0  0  0  0  0  0  0  0
   -1.2736   -0.9704    0.1241 N   0  0  0  0  0  0  0  0  0  0  0  0
   -2.0996   -0.4354   -0.1019 H   0  0  0  0  0  0  0  0  0  0  0  0
   -0.0016   -0.2394    0.1271 C   0  0  1  0  0  0  0  0  0  0  0  0
    0.6995   -0.7619   -0.5275 H   0  0  0  0  0  0  0  0  0  0  0  0
   -0.2283    1.1832   -0.4215 C   0  0  0  0  0  0  0  0  0  0  0  0
    0.5682    1.4326   -1.1236 H   0  0  0  0  0  0  0  0  0  0  0  0
   -1.1751    1.2221   -0.9614 H   0  0  0  0  0  0  0  0  0  0  0  0
   -0.2227    2.2589    0.6604 C   0  0  0  0  0  0  0  0  0  0  0  0
   -0.1215    3.4634    0.4671 O   0  0  0  0  0  0  0  0  0  0  0  0
   -0.3333    1.7944    1.9189 O   0  0  0  0  0  0  0  0  0  0  0  0
   -0.3360    2.5672    2.4846 H   0  0  0  0  0  0  0  0  0  0  0  0
    0.5920   -0.2154    1.5497 C   0  0  0  0  0  0  0  0  0  0  0  0
    1.7860   -0.4596    1.7183 O   0  0  0  0  0  0  0  0  0  0  0  0
   -0.2294    0.0669    2.5672 N   0  0  0  0  0  0  0  0  0  0  0  0
   -1.2130    0.1938    2.3518 H   0  0  0  0  0  0  0  0  0  0  0  0
    0.1836    0.1337    3.9673 C   0  0  0  0  0  0  0  0  0  0  0  0
    1.0451    0.7976    4.0666 H   0  0  0  0  0  0  0  0  0  0  0  0
   -0.6344    0.5115    4.5820 H   0  0  0  0  0  0  0  0  0  0  0  0
    0.4676   -0.8609    4.3157 H   0  0  0  0  0  0  0  0  0  0  0  0
  5  6  2  0  0  0  0
  5  7  1  0  0  0  0
  2  3  1  0  0  0  0
  2  4  1  0  0  0  0
  2  5  1  0  0  0  0
  1  2  1  0  0  0  0
 18 19  2  0  0  0  0
 18 20  1  0  0  0  0
 16 17  1  0  0  0  0
 14 15  2  0  0  0  0
 14 16  1  0  0  0  0
 11 12  1  0  0  0  0
 11 13  1  0  0  0  0
 11 14  1  0  0  0  0
  9 10  1  0  0  0  0
  9 11  1  0  0  0  0
  9 18  1  0  0  0  0
  7  8  1  0  0  0  0
  7  9  1  0  0  0  0
 22 23  1  0  0  0  0
 22 24  1  0  0  0  0
 22 25  1  0  0  0  0
 20 21  1  0  0  0  0
 20 22  1  0  0  0  0
M  END
$$$$
default_name
  -OEChem-02102213163D

 25 24  0     1  0  0  0  0  0999 V2000
   -2.7826   -3.8464    0.7821 H   0  0  0  0  0  0  0  0  0  0  0  0
   -2.8156   -2.8034    0.4711 C   0  0  0  0  0  0  0  0  0  0  0  0
   -3.4336   -2.2354    1.1641 H   0  0  0  0  0  0  0  0  0  0  0  0
   -3.2256   -2.7344   -0.5349 H   0  0  0  0  0  0  0  0  0  0  0  0
   -1.4126   -2.2444    0.4801 C   0  0  0  0  0  0  0  0  0  0  0  0
   -0.4686   -2.9534    0.8001 O   0  0  0  0  0  0  0  0  0  0  0  0
   -1.2736   -0.9704    0.1241 N   0  0  0  0  0  0  0  0  0  0  0  0
   -2.0996   -0.4354   -0.1019 H   0  0  0  0  0  0  0  0  0  0  0  0
   -0.0016   -0.2394    0.1271 C   0  0  1  0  0  0  0  0  0  0  0  0
    0.6995   -0.7619   -0.5275 H   0  0  0  0  0  0  0  0  0  0  0  0
   -0.2283    1.1832   -0.4215 C   0  0  0  0  0  0  0  0  0  0  0  0
    0.3945    1.3354   -1.3038 H   0  0  0  0  0  0  0  0  0  0  0  0
   -1.2700    1.2990   -0.7227 H   0  0  0  0  0  0  0  0  0  0  0  0
    0.1316    2.2820    0.5739 C   0  0  0  0  0  0  0  0  0  0  0  0
    0.0384    3.4855    0.3712 O   0  0  0  0  0  0  0  0  0  0  0  0
    0.5935    1.8411    1.7589 O   0  0  0  0  0  0  0  0  0  0  0  0
    0.7582    2.6247    2.2843 H   0  0  0  0  0  0  0  0  0  0  0  0
    0.5920   -0.2154    1.5497 C   0  0  0  0  0  0  0  0  0  0  0  0
    1.7860   -0.4596    1.7183 O   0  0  0  0  0  0  0  0  0  0  0  0
   -0.2294    0.0669    2.5672 N   0  0  0  0  0  0  0  0  0  0  0  0
   -1.2130    0.1938    2.3518 H   0  0  0  0  0  0  0  0  0  0  0  0
    0.1836    0.1337    3.9673 C   0  0  0  0  0  0  0  0  0  0  0  0
    1.0451    0.7976    4.0666 H   0  0  0  0  0  0  0  0  0  0  0  0
   -0.6344    0.5115    4.5820 H   0  0  0  0  0  0  0  0  0  0  0  0
    0.4676   -0.8609    4.3157 H   0  0  0  0  0  0  0  0  0  0  0  0
  5  6  2  0  0  0  0
  5  7  1  0  0  0  0
  2  3  1  0  0  0  0
  2  4  1  0  0  0  0
  2  5  1  0  0  0  0
  1  2  1  0  0  0  0
 18 19  2  0  0  0  0
 18 20  1  0  0  0  0
 16 17  1  0  0  0  0
 14 15  2  0  0  0  0
 14 16  1  0  0  0  0
 11 12  1  0  0  0  0
 11 13  1  0  0  0  0
 11 14  1  0  0  0  0
  9 10  1  0  0  0  0
  9 11  1  0  0  0  0
  9 18  1  0  0  0  0
  7  8  1  0  0  0  0
  7  9  1  0  0  0  0
 22 23  1  0  0  0  0
 22 24  1  0  0  0  0
 22 25  1  0  0  0  0
 20 21  1  0  0  0  0
 20 22  1  0  0  0  0
M  END
$$$$
default_name
  -OEChem-02102213163D

 25 24  0     1  0  0  0  0  0999 V2000
   -2.7826   -3.8464    0.7821 H   0  0  0  0  0  0  0  0  0  0  0  0
   -2.8156   -2.8034    0.4711 C   0  0  0  0  0  0  0  0  0  0  0  0
   -3.4336   -2.2354    1.1641 H   0  0  0  0  0  0  0  0  0  0  0  0
   -3.2256   -2.7344   -0.5349 H   0  0  0  0  0  0  0  0  0  0  0  0
   -1.4126   -2.2444    0.4801 C   0  0  0  0  0  0  0  0  0  0  0  0
   -0.4686   -2.9534    0.8001 O   0  0  0  0  0  0  0  0  0  0  0  0
   -1.2736   -0.9704    0.1241 N   0  0  0  0  0  0  0  0  0  0  0  0
   -2.0996   -0.4354   -0.1019 H   0  0  0  0  0  0  0  0  0  0  0  0
   -0.0016   -0.2394    0.1271 C   0  0  1  0  0  0  0  0  0  0  0  0
    0.6995   -0.7619   -0.5275 H   0  0  0  0  0  0  0  0  0  0  0  0
   -0.2283    1.1832   -0.4215 C   0  0  0  0  0  0  0  0  0  0  0  0
    0.3945    1.3354   -1.3038 H   0  0  0  0  0  0  0  0  0  0  0  0
   -1.2700    1.2990   -0.7227 H   0  0  0  0  0  0  0  0  0  0  0  0
    0.1316    2.2820    0.5739 C   0  0  0  0  0  0  0  0  0  0  0  0
   -0.1938    3.4587    0.4848 O   0  0  0  0  0  0  0  0  0  0  0  0
    0.8776    1.8756    1.6181 O   0  0  0  0  0  0  0  0  0  0  0  0
    1.0100    2.6515    2.1638 H   0  0  0  0  0  0  0  0  0  0  0  0
    0.5920   -0.2154    1.5497 C   0  0  0  0  0  0  0  0  0  0  0  0
    1.7860   -0.4596    1.7183 O   0  0  0  0  0  0  0  0  0  0  0  0
   -0.2294    0.0669    2.5672 N   0  0  0  0  0  0  0  0  0  0  0  0
   -1.2130    0.1938    2.3518 H   0  0  0  0  0  0  0  0  0  0  0  0
    0.1836    0.1337    3.9673 C   0  0  0  0  0  0  0  0  0  0  0  0
    1.0451    0.7976    4.0666 H   0  0  0  0  0  0  0  0  0  0  0  0
   -0.6344    0.5115    4.5820 H   0  0  0  0  0  0  0  0  0  0  0  0
    0.4676   -0.8609    4.3157 H   0  0  0  0  0  0  0  0  0  0  0  0
  5  6  2  0  0  0  0
  5  7  1  0  0  0  0
  2  3  1  0  0  0  0
  2  4  1  0  0  0  0
  2  5  1  0  0  0  0
  1  2  1  0  0  0  0
 18 19  2  0  0  0  0
 18 20  1  0  0  0  0
 16 17  1  0  0  0  0
 14 15  2  0  0  0  0
 14 16  1  0  0  0  0
 11 12  1  0  0  0  0
 11 13  1  0  0  0  0
 11 14  1  0  0  0  0
  9 10  1  0  0  0  0
  9 11  1  0  0  0  0
  9 18  1  0  0  0  0
  7  8  1  0  0  0  0
  7  9  1  0  0  0  0
 22 23  1  0  0  0  0
 22 24  1  0  0  0  0
 22 25  1  0  0  0  0
 20 21  1  0  0  0  0
 20 22  1  0  0  0  0
M  END
$$$$
default_name
  -OEChem-02102213163D

 25 24  0     1  0  0  0  0  0999 V2000
   -2.7826   -3.8464    0.7821 H   0  0  0  0  0  0  0  0  0  0  0  0
   -2.8156   -2.8034    0.4711 C   0  0  0  0  0  0  0  0  0  0  0  0
   -3.4336   -2.2354    1.1641 H   0  0  0  0  0  0  0  0  0  0  0  0
   -3.2256   -2.7344   -0.5349 H   0  0  0  0  0  0  0  0  0  0  0  0
   -1.4126   -2.2444    0.4801 C   0  0  0  0  0  0  0  0  0  0  0  0
   -0.4686   -2.9534    0.8001 O   0  0  0  0  0  0  0  0  0  0  0  0
   -1.2736   -0.9704    0.1241 N   0  0  0  0  0  0  0  0  0  0  0  0
   -2.0996   -0.4354   -0.1019 H   0  0  0  0  0  0  0  0  0  0  0  0
   -0.0016   -0.2394    0.1271 C   0  0  1  0  0  0  0  0  0  0  0  0
    0.6995   -0.7619   -0.5275 H   0  0  0  0  0  0  0  0  0  0  0  0
   -0.2283    1.1832   -0.4215 C   0  0  0  0  0  0  0  0  0  0  0  0
    0.3945    1.3354   -1.3038 H   0  0  0  0  0  0  0  0  0  0  0  0
   -1.2700    1.2990   -0.7227 H   0  0  0  0  0  0  0  0  0  0  0  0
    0.1316    2.2820    0.5739 C   0  0  0  0  0  0  0  0  0  0  0  0
   -0.3922    3.3866    0.6361 O   0  0  0  0  0  0  0  0  0  0  0  0
    1.1200    1.9656    1.4312 O   0  0  0  0  0  0  0  0  0  0  0  0
    1.2262    2.7272    2.0020 H   0  0  0  0  0  0  0  0  0  0  0  0
    0.5920   -0.2154    1.5497 C   0  0  0  0  0  0  0  0  0  0  0  0
    1.7860   -0.4596    1.7183 O   0  0  0  0  0  0  0  0  0  0  0  0
   -0.2294    0.0669    2.5672 N   0  0  0  0  0  0  0  0  0  0  0  0
   -1.2130    0.1938    2.3518 H   0  0  0  0  0  0  0  0  0  0  0  0
    0.1836    0.1337    3.9673 C   0  0  0  0  0  0  0  0  0  0  0  0
    1.0451    0.7976    4.0666 H   0  0  0  0  0  0  0  0  0  0  0  0
   -0.6344    0.5115    4.5820 H   0  0  0  0  0  0  0  0  0  0  0  0
    0.4676   -0.8609    4.3157 H   0  0  0  0  0  0  0  0  0  0  0  0
  5  6  2  0  0  0  0
  5  7  1  0  0  0  0
  2  3  1  0  0  0  0
  2  4  1  0  0  0  0
  2  5  1  0  0  0  0
  1  2  1  0  0  0  0
 18 19  2  0  0  0  0
 18 20  1  0  0  0  0
 16 17  1  0  0  0  0
 14 15  2  0  0  0  0
 14 16  1  0  0  0  0
 11 12  1  0  0  0  0
 11 13  1  0  0  0  0
 11 14  1  0  0  0  0
  9 10  1  0  0  0  0
  9 11  1  0  0  0  0
  9 18  1  0  0  0  0
  7  8  1  0  0  0  0
  7  9  1  0  0  0  0
 22 23  1  0  0  0  0
 22 24  1  0  0  0  0
 22 25  1  0  0  0  0
 20 21  1  0  0  0  0
 20 22  1  0  0  0  0
M  END
$$$$
default_name
  -OEChem-02102213163D

 25 24  0     1  0  0  0  0  0999 V2000
   -2.7826   -3.8464    0.7821 H   0  0  0  0  0  0  0  0  0  0  0  0
   -2.8156   -2.8034    0.4711 C   0  0  0  0  0  0  0  0  0  0  0  0
   -3.4336   -2.2354    1.1641 H   0  0  0  0  0  0  0  0  0  0  0  0
   -3.2256   -2.7344   -0.5349 H   0  0  0  0  0  0  0  0  0  0  0  0
   -1.4126   -2.2444    0.4801 C   0  0  0  0  0  0  0  0  0  0  0  0
   -0.4686   -2.9534    0.8001 O   0  0  0  0  0  0  0  0  0  0  0  0
   -1.2736   -0.9704    0.1241 N   0  0  0  0  0  0  0  0  0  0  0  0
   -2.0996   -0.4354   -0.1019 H   0  0  0  0  0  0  0  0  0  0  0  0
   -0.0016   -0.2394    0.1271 C   0  0  1  0  0  0  0  0  0  0  0  0
    0.6995   -0.7619   -0.5275 H   0  0  0  0  0  0  0  0  0  0  0  0
   -0.2283    1.1832   -0.4215 C   0  0  0  0  0  0  0  0  0  0  0  0
    0.3945    1.3354   -1.3038 H   0  0  0  0  0  0  0  0  0  0  0  0
   -1.2700    1.2990   -0.7227 H   0  0  0  0  0  0  0  0  0  0  0  0
    0.1316    2.2820    0.5739 C   0  0  0  0  0  0  0  0  0  0  0  0
   -0.5436    3.2742    0.8149 O   0  0  0  0  0  0  0  0  0  0  0  0
    1.3041    2.1048    1.2109 O   0  0  0  0  0  0  0  0  0  0  0  0
    1.3920    2.8468    1.8100 H   0  0  0  0  0  0  0  0  0  0  0  0
    0.5920   -0.2154    1.5497 C   0  0  0  0  0  0  0  0  0  0  0  0
    1.7860   -0.4596    1.7183 O   0  0  0  0  0  0  0  0  0  0  0  0
   -0.2294    0.0669    2.5672 N   0  0  0  0  0  0  0  0  0  0  0  0
   -1.2130    0.1938    2.3518 H   0  0  0  0  0  0  0  0  0  0  0  0
    0.1836    0.1337    3.9673 C   0  0  0  0  0  0  0  0  0  0  0  0
    1.0451    0.7976    4.0666 H   0  0  0  0  0  0  0  0  0  0  0  0
   -0.6344    0.5115    4.5820 H   0  0  0  0  0  0  0  0  0  0  0  0
    0.4676   -0.8609    4.3157 H   0  0  0  0  0  0  0  0  0  0  0  0
  5  6  2  0  0  0  0
  5  7  1  0  0  0  0
  2  3  1  0  0  0  0
  2  4  1  0  0  0  0
  2  5  1  0  0  0  0
  1  2  1  0  0  0  0
 18 19  2  0  0  0  0
 18 20  1  0  0  0  0
 16 17  1  0  0  0  0
 14 15  2  0  0  0  0
 14 16  1  0  0  0  0
 11 12  1  0  0  0  0
 11 13  1  0  0  0  0
 11 14  1  0  0  0  0
  9 10  1  0  0  0  0
  9 11  1  0  0  0  0
  9 18  1  0  0  0  0
  7  8  1  0  0  0  0
  7  9  1  0  0  0  0
 22 23  1  0  0  0  0
 22 24  1  0  0  0  0
 22 25  1  0  0  0  0
 20 21  1  0  0  0  0
 20 22  1  0  0  0  0
M  END
$$$$
default_name
  -OEChem-02102213163D

 25 24  0     1  0  0  0  0  0999 V2000
   -2.7826   -3.8464    0.7821 H   0  0  0  0  0  0  0  0  0  0  0  0
   -2.8156   -2.8034    0.4711 C   0  0  0  0  0  0  0  0  0  0  0  0
   -3.4336   -2.2354    1.1641 H   0  0  0  0  0  0  0  0  0  0  0  0
   -3.2256   -2.7344   -0.5349 H   0  0  0  0  0  0  0  0  0  0  0  0
   -1.4126   -2.2444    0.4801 C   0  0  0  0  0  0  0  0  0  0  0  0
   -0.4686   -2.9534    0.8001 O   0  0  0  0  0  0  0  0  0  0  0  0
   -1.2736   -0.9704    0.1241 N   0  0  0  0  0  0  0  0  0  0  0  0
   -2.0996   -0.4354   -0.1019 H   0  0  0  0  0  0  0  0  0  0  0  0
   -0.0016   -0.2394    0.1271 C   0  0  1  0  0  0  0  0  0  0  0  0
    0.6995   -0.7619   -0.5275 H   0  0  0  0  0  0  0  0  0  0  0  0
   -0.2283    1.1832   -0.4215 C   0  0  0  0  0  0  0  0  0  0  0  0
    0.3945    1.3354   -1.3038 H   0  0  0  0  0  0  0  0  0  0  0  0
   -1.2700    1.2990   -0.7227 H   0  0  0  0  0  0  0  0  0  0  0  0
    0.1316    2.2820    0.5739 C   0  0  0  0  0  0  0  0  0  0  0  0
   -0.6375    3.1291    1.0090 O   0  0  0  0  0  0  0  0  0  0  0  0
    1.4173    2.2838    0.9724 O   0  0  0  0  0  0  0  0  0  0  0  0
    1.4963    3.0020    1.6010 H   0  0  0  0  0  0  0  0  0  0  0  0
    0.5920   -0.2154    1.5497 C   0  0  0  0  0  0  0  0  0  0  0  0
    1.7860   -0.4596    1.7183 O   0  0  0  0  0  0  0  0  0  0  0  0
   -0.2294    0.0669    2.5672 N   0  0  0  0  0  0  0  0  0  0  0  0
   -1.2130    0.1938    2.3518 H   0  0  0  0  0  0  0  0  0  0  0  0
    0.1836    0.1337    3.9673 C   0  0  0  0  0  0  0  0  0  0  0  0
    1.0451    0.7976    4.0666 H   0  0  0  0  0  0  0  0  0  0  0  0
   -0.6344    0.5115    4.5820 H   0  0  0  0  0  0  0  0  0  0  0  0
    0.4676   -0.8609    4.3157 H   0  0  0  0  0  0  0  0  0  0  0  0
  5  6  2  0  0  0  0
  5  7  1  0  0  0  0
  2  3  1  0  0  0  0
  2  4  1  0  0  0  0
  2  5  1  0  0  0  0
  1  2  1  0  0  0  0
 18 19  2  0  0  0  0
 18 20  1  0  0  0  0
 16 17  1  0  0  0  0
 14 15  2  0  0  0  0
 14 16  1  0  0  0  0
 11 12  1  0  0  0  0
 11 13  1  0  0  0  0
 11 14  1  0  0  0  0
  9 10  1  0  0  0  0
  9 11  1  0  0  0  0
  9 18  1  0  0  0  0
  7  8  1  0  0  0  0
  7  9  1  0  0  0  0
 22 23  1  0  0  0  0
 22 24  1  0  0  0  0
 22 25  1  0  0  0  0
 20 21  1  0  0  0  0
 20 22  1  0  0  0  0
M  END
$$$$
default_name
  -OEChem-02102213163D

 25 24  0     1  0  0  0  0  0999 V2000
   -2.7826   -3.8464    0.7821 H   0  0  0  0  0  0  0  0  0  0  0  0
   -2.8156   -2.8034    0.4711 C   0  0  0  0  0  0  0  0  0  0  0  0
   -3.4336   -2.2354    1.1641 H   0  0  0  0  0  0  0  0  0  0  0  0
   -3.2256   -2.7344   -0.5349 H   0  0  0  0  0  0  0  0  0  0  0  0
   -1.4126   -2.2444    0.4801 C   0  0  0  0  0  0  0  0  0  0  0  0
   -0.4686   -2.9534    0.8001 O   0  0  0  0  0  0  0  0  0  0  0  0
   -1.2736   -0.9704    0.1241 N   0  0  0  0  0  0  0  0  0  0  0  0
   -2.0996   -0.4354   -0.1019 H   0  0  0  0  0  0  0  0  0  0  0  0
   -0.0016   -0.2394    0.1271 C   0  0  1  0  0  0  0  0  0  0  0  0
    0.6995   -0.7619   -0.5275 H   0  0  0  0  0  0  0  0  0  0  0  0
   -0.2283    1.1832   -0.4215 C   0  0  0  0  0  0  0  0  0  0  0  0
    0.3945    1.3354   -1.3038 H   0  0  0  0  0  0  0  0  0  0  0  0
   -1.2700    1.2990   -0.7227 H   0  0  0  0  0  0  0  0  0  0  0  0
    0.1316    2.2820    0.5739 C   0  0  0  0  0  0  0  0  0  0  0  0
   -0.6675    2.9613    1.2050 O   0  0  0  0  0  0  0  0  0  0  0  0
    1.4520    2.4903    0.7318 O   0  0  0  0  0  0  0  0  0  0  0  0
    1.5318    3.1822    1.3892 H   0  0  0  0  0  0  0  0  0  0  0  0
    0.5920   -0.2154    1.5497 C   0  0  0  0  0  0  0  0  0  0  0  0
    1.7860   -0.4596    1.7183 O   0  0  0  0  0  0  0  0  0  0  0  0
   -0.2294    0.0669    2.5672 N   0  0  0  0  0  0  0  0  0  0  0  0
   -1.2130    0.1938    2.3518 H   0  0  0  0  0  0  0  0  0  0  0  0
    0.1836    0.1337    3.9673 C   0  0  0  0  0  0  0  0  0  0  0  0
    1.0451    0.7976    4.0666 H   0  0  0  0  0  0  0  0  0  0  0  0
   -0.6344    0.5115    4.5820 H   0  0  0  0  0  0  0  0  0  0  0  0
    0.4676   -0.8609    4.3157 H   0  0  0  0  0  0  0  0  0  0  0  0
  5  6  2  0  0  0  0
  5  7  1  0  0  0  0
  2  3  1  0  0  0  0
  2  4  1  0  0  0  0
  2  5  1  0  0  0  0
  1  2  1  0  0  0  0
 18 19  2  0  0  0  0
 18 20  1  0  0  0  0
 16 17  1  0  0  0  0
 14 15  2  0  0  0  0
 14 16  1  0  0  0  0
 11 12  1  0  0  0  0
 11 13  1  0  0  0  0
 11 14  1  0  0  0  0
  9 10  1  0  0  0  0
  9 11  1  0  0  0  0
  9 18  1  0  0  0  0
  7  8  1  0  0  0  0
  7  9  1  0  0  0  0
 22 23  1  0  0  0  0
 22 24  1  0  0  0  0
 22 25  1  0  0  0  0
 20 21  1  0  0  0  0
 20 22  1  0  0  0  0
M  END
$$$$
default_name
  -OEChem-02102213163D

 25 24  0     1  0  0  0  0  0999 V2000
   -2.7826   -3.8464    0.7821 H   0  0  0  0  0  0  0  0  0  0  0  0
   -2.8156   -2.8034    0.4711 C   0  0  0  0  0  0  0  0  0  0  0  0
   -3.4336   -2.2354    1.1641 H   0  0  0  0  0  0  0  0  0  0  0  0
   -3.2256   -2.7344   -0.5349 H   0  0  0  0  0  0  0  0  0  0  0  0
   -1.4126   -2.2444    0.4801 C   0  0  0  0  0  0  0  0  0  0  0  0
   -0.4686   -2.9534    0.8001 O   0  0  0  0  0  0  0  0  0  0  0  0
   -1.2736   -0.9704    0.1241 N   0  0  0  0  0  0  0  0  0  0  0  0
   -2.0996   -0.4354   -0.1019 H   0  0  0  0  0  0  0  0  0  0  0  0
   -0.0016   -0.2394    0.1271 C   0  0  1  0  0  0  0  0  0  0  0  0
    0.6995   -0.7619   -0.5275 H   0  0  0  0  0  0  0  0  0  0  0  0
   -0.2283    1.1832   -0.4215 C   0  0  0  0  0  0  0  0  0  0  0  0
    0.3945    1.3354   -1.3038 H   0  0  0  0  0  0  0  0  0  0  0  0
   -1.2700    1.2990   -0.7227 H   0  0  0  0  0  0  0  0  0  0  0  0
    0.1316    2.2820    0.5739 C   0  0  0  0  0  0  0  0  0  0  0  0
   -0.6316    2.7822    1.3898 O   0  0  0  0  0  0  0  0  0  0  0  0
    1.4059    2.7104    0.5056 O   0  0  0  0  0  0  0  0  0  0  0  0
    1.4962    3.3753    1.1889 H   0  0  0  0  0  0  0  0  0  0  0  0
    0.5920   -0.2154    1.5497 C   0  0  0  0  0  0  0  0  0  0  0  0
    1.7860   -0.4596    1.7183 O   0  0  0  0  0  0  0  0  0  0  0  0
   -0.2294    0.0669    2.5672 N   0  0  0  0  0  0  0  0  0  0  0  0
   -1.2130    0.1938    2.3518 H   0  0  0  0  0  0  0  0  0  0  0  0
    0.1836    0.1337    3.9673 C   0  0  0  0  0  0  0  0  0  0  0  0
    1.0451    0.7976    4.0666 H   0  0  0  0  0  0  0  0  0  0  0  0
   -0.6344    0.5115    4.5820 H   0  0  0  0  0  0  0  0  0  0  0  0
    0.4676   -0.8609    4.3157 H   0  0  0  0  0  0  0  0  0  0  0  0
  5  6  2  0  0  0  0
  5  7  1  0  0  0  0
  2  3  1  0  0  0  0
  2  4  1  0  0  0  0
  2  5  1  0  0  0  0
  1  2  1  0  0  0  0
 18 19  2  0  0  0  0
 18 20  1  0  0  0  0
 16 17  1  0  0  0  0
 14 15  2  0  0  0  0
 14 16  1  0  0  0  0
 11 12  1  0  0  0  0
 11 13  1  0  0  0  0
 11 14  1  0  0  0  0
  9 10  1  0  0  0  0
  9 11  1  0  0  0  0
  9 18  1  0  0  0  0
  7  8  1  0  0  0  0
  7  9  1  0  0  0  0
 22 23  1  0  0  0  0
 22 24  1  0  0  0  0
 22 25  1  0  0  0  0
 20 21  1  0  0  0  0
 20 22  1  0  0  0  0
M  END
$$$$
default_name
  -OEChem-02102213163D

 25 24  0     1  0  0  0  0  0999 V2000
   -2.7826   -3.8464    0.7821 H   0  0  0  0  0  0  0  0  0  0  0  0
   -2.8156   -2.8034    0.4711 C   0  0  0  0  0  0  0  0  0  0  0  0
   -3.4336   -2.2354    1.1641 H   0  0  0  0  0  0  0  0  0  0  0  0
   -3.2256   -2.7344   -0.5349 H   0  0  0  0  0  0  0  0  0  0  0  0
   -1.4126   -2.2444    0.4801 C   0  0  0  0  0  0  0  0  0  0  0  0
   -0.4686   -2.9534    0.8001 O   0  0  0  0  0  0  0  0  0  0  0  0
   -1.2736   -0.9704    0.1241 N   0  0  0  0  0  0  0  0  0  0  0  0
   -2.0996   -0.4354   -0.1019 H   0  0  0  0  0  0  0  0  0  0  0  0
   -0.0016   -0.2394    0.1271 C   0  0  1  0  0  0  0  0  0  0  0  0
    0.6995   -0.7619   -0.5275 H   0  0  0  0  0  0  0  0  0  0  0  0
   -0.2283    1.1832   -0.4215 C   0  0  0  0  0  0  0  0  0  0  0  0
    0.3945    1.3354   -1.3038 H   0  0  0  0  0  0  0  0  0  0  0  0
   -1.2700    1.2990   -0.7227 H   0  0  0  0  0  0  0  0  0  0  0  0
    0.1316    2.2820    0.5739 C   0  0  0  0  0  0  0  0  0  0  0  0
   -0.5322    2.6040    1.5506 O   0  0  0  0  0  0  0  0  0  0  0  0
    1.2819    2.9290    0.3091 O   0  0  0  0  0  0  0  0  0  0  0  0
    1.3919    3.5680    1.0139 H   0  0  0  0  0  0  0  0  0  0  0  0
    0.5920   -0.2154    1.5497 C   0  0  0  0  0  0  0  0  0  0  0  0
    1.7860   -0.4596    1.7183 O   0  0  0  0  0  0  0  0  0  0  0  0
   -0.2294    0.0669    2.5672 N   0  0  0  0  0  0  0  0  0  0  0  0
   -1.2130    0.1938    2.3518 H   0  0  0  0  0  0  0  0  0  0  0  0
    0.1836    0.1337    3.9673 C   0  0  0  0  0  0  0  0  0  0  0  0
    1.0451    0.7976    4.0666 H   0  0  0  0  0  0  0  0  0  0  0  0
   -0.6344    0.5115    4.5820 H   0  0  0  0  0  0  0  0  0  0  0  0
    0.4676   -0.8609    4.3157 H   0  0  0  0  0  0  0  0  0  0  0  0
  5  6  2  0  0  0  0
  5  7  1  0  0  0  0
  2  3  1  0  0  0  0
  2  4  1  0  0  0  0
  2  5  1  0  0  0  0
  1  2  1  0  0  0  0
 18 19  2  0  0  0  0
 18 20  1  0  0  0  0
 16 17  1  0  0  0  0
 14 15  2  0  0  0  0
 14 16  1  0  0  0  0
 11 12  1  0  0  0  0
 11 13  1  0  0  0  0
 11 14  1  0  0  0  0
  9 10  1  0  0  0  0
  9 11  1  0  0  0  0
  9 18  1  0  0  0  0
  7  8  1  0  0  0  0
  7  9  1  0  0  0  0
 22 23  1  0  0  0  0
 22 24  1  0  0  0  0
 22 25  1  0  0  0  0
 20 21  1  0  0  0  0
 20 22  1  0  0  0  0
M  END
$$$$
default_name
  -OEChem-02102213163D

 25 24  0     1  0  0  0  0  0999 V2000
   -2.7826   -3.8464    0.7821 H   0  0  0  0  0  0  0  0  0  0  0  0
   -2.8156   -2.8034    0.4711 C   0  0  0  0  0  0  0  0  0  0  0  0
   -3.4336   -2.2354    1.1641 H   0  0  0  0  0  0  0  0  0  0  0  0
   -3.2256   -2.7344   -0.5349 H   0  0  0  0  0  0  0  0  0  0  0  0
   -1.4126   -2.2444    0.4801 C   0  0  0  0  0  0  0  0  0  0  0  0
   -0.4686   -2.9534    0.8001 O   0  0  0  0  0  0  0  0  0  0  0  0
   -1.2736   -0.9704    0.1241 N   0  0  0  0  0  0  0  0  0  0  0  0
   -2.0996   -0.4354   -0.1019 H   0  0  0  0  0  0  0  0  0  0  0  0
   -0.0016   -0.2394    0.1271 C   0  0  1  0  0  0  0  0  0  0  0  0
    0.6995   -0.7619   -0.5275 H   0  0  0  0  0  0  0  0  0  0  0  0
   -0.2283    1.1832   -0.4215 C   0  0  0  0  0  0  0  0  0  0  0  0
    0.3945    1.3354   -1.3038 H   0  0  0  0  0  0  0  0  0  0  0  0
   -1.2700    1.2990   -0.7227 H   0  0  0  0  0  0  0  0  0  0  0  0
    0.1316    2.2820    0.5739 C   0  0  0  0  0  0  0  0  0  0  0  0
   -0.3762    2.4388    1.6766 O   0  0  0  0  0  0  0  0  0  0  0  0
    1.0886    3.1312    0.1557 O   0  0  0  0  0  0  0  0  0  0  0  0
    1.2260    3.7472    0.8761 H   0  0  0  0  0  0  0  0  0  0  0  0
    0.5920   -0.2154    1.5497 C   0  0  0  0  0  0  0  0  0  0  0  0
    1.7860   -0.4596    1.7183 O   0  0  0  0  0  0  0  0  0  0  0  0
   -0.2294    0.0669    2.5672 N   0  0  0  0  0  0  0  0  0  0  0  0
   -1.2130    0.1938    2.3518 H   0  0  0  0  0  0  0  0  0  0  0  0
    0.1836    0.1337    3.9673 C   0  0  0  0  0  0  0  0  0  0  0  0
    1.0451    0.7976    4.0666 H   0  0  0  0  0  0  0  0  0  0  0  0
   -0.6344    0.5115    4.5820 H   0  0  0  0  0  0  0  0  0  0  0  0
    0.4676   -0.8609    4.3157 H   0  0  0  0  0  0  0  0  0  0  0  0
  5  6  2  0  0  0  0
  5  7  1  0  0  0  0
  2  3  1  0  0  0  0
  2  4  1  0  0  0  0
  2  5  1  0  0  0  0
  1  2  1  0  0  0  0
 18 19  2  0  0  0  0
 18 20  1  0  0  0  0
 16 17  1  0  0  0  0
 14 15  2  0  0  0  0
 14 16  1  0  0  0  0
 11 12  1  0  0  0  0
 11 13  1  0  0  0  0
 11 14  1  0  0  0  0
  9 10  1  0  0  0  0
  9 11  1  0  0  0  0
  9 18  1  0  0  0  0
  7  8  1  0  0  0  0
  7  9  1  0  0  0  0
 22 23  1  0  0  0  0
 22 24  1  0  0  0  0
 22 25  1  0  0  0  0
 20 21  1  0  0  0  0
 20 22  1  0  0  0  0
M  END
$$$$
default_name
  -OEChem-02102213163D

 25 24  0     1  0  0  0  0  0999 V2000
   -2.7826   -3.8464    0.7821 H   0  0  0  0  0  0  0  0  0  0  0  0
   -2.8156   -2.8034    0.4711 C   0  0  0  0  0  0  0  0  0  0  0  0
   -3.4336   -2.2354    1.1641 H   0  0  0  0  0  0  0  0  0  0  0  0
   -3.2256   -2.7344   -0.5349 H   0  0  0  0  0  0  0  0  0  0  0  0
   -1.4126   -2.2444    0.4801 C   0  0  0  0  0  0  0  0  0  0  0  0
   -0.4686   -2.9534    0.8001 O   0  0  0  0  0  0  0  0  0  0  0  0
   -1.2736   -0.9704    0.1241 N   0  0  0  0  0  0  0  0  0  0  0  0
   -2.0996   -0.4354   -0.1019 H   0  0  0  0  0  0  0  0  0  0  0  0
   -0.0016   -0.2394    0.1271 C   0  0  1  0  0  0  0  0  0  0  0  0
    0.6995   -0.7619   -0.5275 H   0  0  0  0  0  0  0  0  0  0  0  0
   -0.2283    1.1832   -0.4215 C   0  0  0  0  0  0  0  0  0  0  0  0
    0.3945    1.3354   -1.3038 H   0  0  0  0  0  0  0  0  0  0  0  0
   -1.2700    1.2990   -0.7227 H   0  0  0  0  0  0  0  0  0  0  0  0
    0.1316    2.2820    0.5739 C   0  0  0  0  0  0  0  0  0  0  0  0
   -0.1741    2.2979    1.7590 O   0  0  0  0  0  0  0  0  0  0  0  0
    0.8392    3.3033    0.0560 O   0  0  0  0  0  0  0  0  0  0  0  0
    1.0097    3.9007    0.7848 H   0  0  0  0  0  0  0  0  0  0  0  0
    0.5920   -0.2154    1.5497 C   0  0  0  0  0  0  0  0  0  0  0  0
    1.7860   -0.4596    1.7183 O   0  0  0  0  0  0  0  0  0  0  0  0
   -0.2294    0.0669    2.5672 N   0  0  0  0  0  0  0  0  0  0  0  0
   -1.2130    0.1938    2.3518 H   0  0  0  0  0  0  0  0  0  0  0  0
    0.1836    0.1337    3.9673 C   0  0  0  0  0  0  0  0  0  0  0  0
    1.0451    0.7976    4.0666 H   0  0  0  0  0  0  0  0  0  0  0  0
   -0.6344    0.5115    4.5820 H   0  0  0  0  0  0  0  0  0  0  0  0
    0.4676   -0.8609    4.3157 H   0  0  0  0  0  0  0  0  0  0  0  0
  5  6  2  0  0  0  0
  5  7  1  0  0  0  0
  2  3  1  0  0  0  0
  2  4  1  0  0  0  0
  2  5  1  0  0  0  0
  1  2  1  0  0  0  0
 18 19  2  0  0  0  0
 18 20  1  0  0  0  0
 16 17  1  0  0  0  0
 14 15  2  0  0  0  0
 14 16  1  0  0  0  0
 11 12  1  0  0  0  0
 11 13  1  0  0  0  0
 11 14  1  0  0  0  0
  9 10  1  0  0  0  0
  9 11  1  0  0  0  0
  9 18  1  0  0  0  0
  7  8  1  0  0  0  0
  7  9  1  0  0  0  0
 22 23  1  0  0  0  0
 22 24  1  0  0  0  0
 22 25  1  0  0  0  0
 20 21  1  0  0  0  0
 20 22  1  0  0  0  0
M  END
$$$$
default_name
  -OEChem-02102213163D

 25 24  0     1  0  0  0  0  0999 V2000
   -2.7826   -3.8464    0.7821 H   0  0  0  0  0  0  0  0  0  0  0  0
   -2.8156   -2.8034    0.4711 C   0  0  0  0  0  0  0  0  0  0  0  0
   -3.4336   -2.2354    1.1641 H   0  0  0  0  0  0  0  0  0  0  0  0
   -3.2256   -2.7344   -0.5349 H   0  0  0  0  0  0  0  0  0  0  0  0
   -1.4126   -2.2444    0.4801 C   0  0  0  0  0  0  0  0  0  0  0  0
   -0.4686   -2.9534    0.8001 O   0  0  0  0  0  0  0  0  0  0  0  0
   -1.2736   -0.9704    0.1241 N   0  0  0  0  0  0  0  0  0  0  0  0
   -2.0996   -0.4354   -0.1019 H   0  0  0  0  0  0  0  0  0  0  0  0
   -0.0016   -0.2394    0.1271 C   0  0  1  0  0  0  0  0  0  0  0  0
    0.6995   -0.7619   -0.5275 H   0  0  0  0  0  0  0  0  0  0  0  0
   -0.2283    1.1832   -0.4215 C   0  0  0  0  0  0  0  0  0  0  0  0
    0.3945    1.3354   -1.3038 H   0  0  0  0  0  0  0  0  0  0  0  0
   -1.2700    1.2990   -0.7227 H   0  0  0  0  0  0  0  0  0  0  0  0
    0.1316    2.2820    0.5739 C   0  0  0  0  0  0  0  0  0  0  0  0
    0.0603    2.1908    1.7924 O   0  0  0  0  0  0  0  0  0  0  0  0
    0.5506    3.4335    0.0166 O   0  0  0  0  0  0  0  0  0  0  0  0
    0.7579    4.0180    0.7463 H   0  0  0  0  0  0  0  0  0  0  0  0
    0.5920   -0.2154    1.5497 C   0  0  0  0  0  0  0  0  0  0  0  0
    1.7860   -0.4596    1.7183 O   0  0  0  0  0  0  0  0  0  0  0  0
   -0.2294    0.0669    2.5672 N   0  0  0  0  0  0  0  0  0  0  0  0
   -1.2130    0.1938    2.3518 H   0  0  0  0  0  0  0  0  0  0  0  0
    0.1836    0.1337    3.9673 C   0  0  0  0  0  0  0  0  0  0  0  0
    1.0451    0.7976    4.0666 H   0  0  0  0  0  0  0  0  0  0  0  0
   -0.6344    0.5115    4.5820 H   0  0  0  0  0  0  0  0  0  0  0  0
    0.4676   -0.8609    4.3157 H   0  0  0  0  0  0  0  0  0  0  0  0
  5  6  2  0  0  0  0
  5  7  1  0  0  0  0
  2  3  1  0  0  0  0
  2  4  1  0  0  0  0
  2  5  1  0  0  0  0
  1  2  1  0  0  0  0
 18 19  2  0  0  0  0
 18 20  1  0  0  0  0
 16 17  1  0  0  0  0
 14 15  2  0  0  0  0
 14 16  1  0  0  0  0
 11 12  1  0  0  0  0
 11 13  1  0  0  0  0
 11 14  1  0  0  0  0
  9 10  1  0  0  0  0
  9 11  1  0  0  0  0
  9 18  1  0  0  0  0
  7  8  1  0  0  0  0
  7  9  1  0  0  0  0
 22 23  1  0  0  0  0
 22 24  1  0  0  0  0
 22 25  1  0  0  0  0
 20 21  1  0  0  0  0
 20 22  1  0  0  0  0
M  END
$$$$
default_name
  -OEChem-02102213163D

 25 24  0     1  0  0  0  0  0999 V2000
   -2.7826   -3.8464    0.7821 H   0  0  0  0  0  0  0  0  0  0  0  0
   -2.8156   -2.8034    0.4711 C   0  0  0  0  0  0  0  0  0  0  0  0
   -3.4336   -2.2354    1.1641 H   0  0  0  0  0  0  0  0  0  0  0  0
   -3.2256   -2.7344   -0.5349 H   0  0  0  0  0  0  0  0  0  0  0  0
   -1.4126   -2.2444    0.4801 C   0  0  0  0  0  0  0  0  0  0  0  0
   -0.4686   -2.9534    0.8001 O   0  0  0  0  0  0  0  0  0  0  0  0
   -1.2736   -0.9704    0.1241 N   0  0  0  0  0  0  0  0  0  0  0  0
   -2.0996   -0.4354   -0.1019 H   0  0  0  0  0  0  0  0  0  0  0  0
   -0.0016   -0.2394    0.1271 C   0  0  1  0  0  0  0  0  0  0  0  0
    0.6995   -0.7619   -0.5275 H   0  0  0  0  0  0  0  0  0  0  0  0
   -0.2283    1.1832   -0.4215 C   0  0  0  0  0  0  0  0  0  0  0  0
    0.3945    1.3354   -1.3038 H   0  0  0  0  0  0  0  0  0  0  0  0
   -1.2700    1.2990   -0.7227 H   0  0  0  0  0  0  0  0  0  0  0  0
    0.1316    2.2820    0.5739 C   0  0  0  0  0  0  0  0  0  0  0  0
    0.3110    2.1250    1.7745 O   0  0  0  0  0  0  0  0  0  0  0  0
    0.2426    3.5129    0.0403 O   0  0  0  0  0  0  0  0  0  0  0  0
    0.4877    4.0912    0.7633 H   0  0  0  0  0  0  0  0  0  0  0  0
    0.5920   -0.2154    1.5497 C   0  0  0  0  0  0  0  0  0  0  0  0
    1.7860   -0.4596    1.7183 O   0  0  0  0  0  0  0  0  0  0  0  0
   -0.2294    0.0669    2.5672 N   0  0  0  0  0  0  0  0  0  0  0  0
   -1.2130    0.1938    2.3518 H   0  0  0  0  0  0  0  0  0  0  0  0
    0.1836    0.1337    3.9673 C   0  0  0  0  0  0  0  0  0  0  0  0
    1.0451    0.7976    4.0666 H   0  0  0  0  0  0  0  0  0  0  0  0
   -0.6344    0.5115    4.5820 H   0  0  0  0  0  0  0  0  0  0  0  0
    0.4676   -0.8609    4.3157 H   0  0  0  0  0  0  0  0  0  0  0  0
  5  6  2  0  0  0  0
  5  7  1  0  0  0  0
  2  3  1  0  0  0  0
  2  4  1  0  0  0  0
  2  5  1  0  0  0  0
  1  2  1  0  0  0  0
 18 19  2  0  0  0  0
 18 20  1  0  0  0  0
 16 17  1  0  0  0  0
 14 15  2  0  0  0  0
 14 16  1  0  0  0  0
 11 12  1  0  0  0  0
 11 13  1  0  0  0  0
 11 14  1  0  0  0  0
  9 10  1  0  0  0  0
  9 11  1  0  0  0  0
  9 18  1  0  0  0  0
  7  8  1  0  0  0  0
  7  9  1  0  0  0  0
 22 23  1  0  0  0  0
 22 24  1  0  0  0  0
 22 25  1  0  0  0  0
 20 21  1  0  0  0  0
 20 22  1  0  0  0  0
M  END
$$$$
default_name
  -OEChem-02102213163D

 25 24  0     1  0  0  0  0  0999 V2000
   -2.7826   -3.8464    0.7821 H   0  0  0  0  0  0  0  0  0  0  0  0
   -2.8156   -2.8034    0.4711 C   0  0  0  0  0  0  0  0  0  0  0  0
   -3.4336   -2.2354    1.1641 H   0  0  0  0  0  0  0  0  0  0  0  0
   -3.2256   -2.7344   -0.5349 H   0  0  0  0  0  0  0  0  0  0  0  0
   -1.4126   -2.2444    0.4801 C   0  0  0  0  0  0  0  0  0  0  0  0
   -0.4686   -2.9534    0.8001 O   0  0  0  0  0  0  0  0  0  0  0  0
   -1.2736   -0.9704    0.1241 N   0  0  0  0  0  0  0  0  0  0  0  0
   -2.0996   -0.4354   -0.1019 H   0  0  0  0  0  0  0  0  0  0  0  0
   -0.0016   -0.2394    0.1271 C   0  0  1  0  0  0  0  0  0  0  0  0
    0.6995   -0.7619   -0.5275 H   0  0  0  0  0  0  0  0  0  0  0  0
   -0.2283    1.1832   -0.4215 C   0  0  0  0  0  0  0  0  0  0  0  0
    0.3945    1.3354   -1.3038 H   0  0  0  0  0  0  0  0  0  0  0  0
   -1.2700    1.2990   -0.7227 H   0  0  0  0  0  0  0  0  0  0  0  0
    0.1316    2.2820    0.5739 C   0  0  0  0  0  0  0  0  0  0  0  0
    0.5609    2.1048    1.7064 O   0  0  0  0  0  0  0  0  0  0  0  0
   -0.0640    3.5361    0.1255 O   0  0  0  0  0  0  0  0  0  0  0  0
    0.2176    4.1152    0.8345 H   0  0  0  0  0  0  0  0  0  0  0  0
    0.5920   -0.2154    1.5497 C   0  0  0  0  0  0  0  0  0  0  0  0
    1.7860   -0.4596    1.7183 O   0  0  0  0  0  0  0  0  0  0  0  0
   -0.2294    0.0669    2.5672 N   0  0  0  0  0  0  0  0  0  0  0  0
   -1.2130    0.1938    2.3518 H   0  0  0  0  0  0  0  0  0  0  0  0
    0.1836    0.1337    3.9673 C   0  0  0  0  0  0  0  0  0  0  0  0
    1.0451    0.7976    4.0666 H   0  0  0  0  0  0  0  0  0  0  0  0
   -0.6344    0.5115    4.5820 H   0  0  0  0  0  0  0  0  0  0  0  0
    0.4676   -0.8609    4.3157 H   0  0  0  0  0  0  0  0  0  0  0  0
  5  6  2  0  0  0  0
  5  7  1  0  0  0  0
  2  3  1  0  0  0  0
  2  4  1  0  0  0  0
  2  5  1  0  0  0  0
  1  2  1  0  0  0  0
 18 19  2  0  0  0  0
 18 20  1  0  0  0  0
 16 17  1  0  0  0  0
 14 15  2  0  0  0  0
 14 16  1  0  0  0  0
 11 12  1  0  0  0  0
 11 13  1  0  0  0  0
 11 14  1  0  0  0  0
  9 10  1  0  0  0  0
  9 11  1  0  0  0  0
  9 18  1  0  0  0  0
  7  8  1  0  0  0  0
  7  9  1  0  0  0  0
 22 23  1  0  0  0  0
 22 24  1  0  0  0  0
 22 25  1  0  0  0  0
 20 21  1  0  0  0  0
 20 22  1  0  0  0  0
M  END
$$$$
default_name
  -OEChem-02102213163D

 25 24  0     1  0  0  0  0  0999 V2000
   -2.7826   -3.8464    0.7821 H   0  0  0  0  0  0  0  0  0  0  0  0
   -2.8156   -2.8034    0.4711 C   0  0  0  0  0  0  0  0  0  0  0  0
   -3.4336   -2.2354    1.1641 H   0  0  0  0  0  0  0  0  0  0  0  0
   -3.2256   -2.7344   -0.5349 H   0  0  0  0  0  0  0  0  0  0  0  0
   -1.4126   -2.2444    0.4801 C   0  0  0  0  0  0  0  0  0  0  0  0
   -0.4686   -2.9534    0.8001 O   0  0  0  0  0  0  0  0  0  0  0  0
   -1.2736   -0.9704    0.1241 N   0  0  0  0  0  0  0  0  0  0  0  0
   -2.0996   -0.4354   -0.1019 H   0  0  0  0  0  0  0  0  0  0  0  0
   -0.0016   -0.2394    0.1271 C   0  0  1  0  0  0  0  0  0  0  0  0
    0.6995   -0.7619   -0.5275 H   0  0  0  0  0  0  0  0  0  0  0  0
   -0.2283    1.1832   -0.4215 C   0  0  0  0  0  0  0  0  0  0  0  0
    0.3945    1.3354   -1.3038 H   0  0  0  0  0  0  0  0  0  0  0  0
   -1.2700    1.2990   -0.7227 H   0  0  0  0  0  0  0  0  0  0  0  0
    0.1316    2.2820    0.5739 C   0  0  0  0  0  0  0  0  0  0  0  0
    0.7931    2.1317    1.5928 O   0  0  0  0  0  0  0  0  0  0  0  0
   -0.3481    3.5016    0.2663 O   0  0  0  0  0  0  0  0  0  0  0  0
   -0.0342    4.0884    0.9551 H   0  0  0  0  0  0  0  0  0  0  0  0
    0.5920   -0.2154    1.5497 C   0  0  0  0  0  0  0  0  0  0  0  0
    1.7860   -0.4596    1.7183 O   0  0  0  0  0  0  0  0  0  0  0  0
   -0.2294    0.0669    2.5672 N   0  0  0  0  0  0  0  0  0  0  0  0
   -1.2130    0.1938    2.3518 H   0  0  0  0  0  0  0  0  0  0  0  0
    0.1836    0.1337    3.9673 C   0  0  0  0  0  0  0  0  0  0  0  0
    1.0451    0.7976    4.0666 H   0  0  0  0  0  0  0  0  0  0  0  0
   -0.6344    0.5115    4.5820 H   0  0  0  0  0  0  0  0  0  0  0  0
    0.4676   -0.8609    4.3157 H   0  0  0  0  0  0  0  0  0  0  0  0
  5  6  2  0  0  0  0
  5  7  1  0  0  0  0
  2  3  1  0  0  0  0
  2  4  1  0  0  0  0
  2  5  1  0  0  0  0
  1  2  1  0  0  0  0
 18 19  2  0  0  0  0
 18 20  1  0  0  0  0
 16 17  1  0  0  0  0
 14 15  2  0  0  0  0
 14 16  1  0  0  0  0
 11 12  1  0  0  0  0
 11 13  1  0  0  0  0
 11 14  1  0  0  0  0
  9 10  1  0  0  0  0
  9 11  1  0  0  0  0
  9 18  1  0  0  0  0
  7  8  1  0  0  0  0
  7  9  1  0  0  0  0
 22 23  1  0  0  0  0
 22 24  1  0  0  0  0
 22 25  1  0  0  0  0
 20 21  1  0  0  0  0
 20 22  1  0  0  0  0
M  END
$$$$
default_name
  -OEChem-02102213163D

 25 24  0     1  0  0  0  0  0999 V2000
   -2.7826   -3.8464    0.7821 H   0  0  0  0  0  0  0  0  0  0  0  0
   -2.8156   -2.8034    0.4711 C   0  0  0  0  0  0  0  0  0  0  0  0
   -3.4336   -2.2354    1.1641 H   0  0  0  0  0  0  0  0  0  0  0  0
   -3.2256   -2.7344   -0.5349 H   0  0  0  0  0  0  0  0  0  0  0  0
   -1.4126   -2.2444    0.4801 C   0  0  0  0  0  0  0  0  0  0  0  0
   -0.4686   -2.9534    0.8001 O   0  0  0  0  0  0  0  0  0  0  0  0
   -1.2736   -0.9704    0.1241 N   0  0  0  0  0  0  0  0  0  0  0  0
   -2.0996   -0.4354   -0.1019 H   0  0  0  0  0  0  0  0  0  0  0  0
   -0.0016   -0.2394    0.1271 C   0  0  1  0  0  0  0  0  0  0  0  0
    0.6995   -0.7619   -0.5275 H   0  0  0  0  0  0  0  0  0  0  0  0
   -0.2283    1.1832   -0.4215 C   0  0  0  0  0  0  0  0  0  0  0  0
    0.3945    1.3354   -1.3038 H   0  0  0  0  0  0  0  0  0  0  0  0
   -1.2700    1.2990   -0.7227 H   0  0  0  0  0  0  0  0  0  0  0  0
    0.1316    2.2820    0.5739 C   0  0  0  0  0  0  0  0  0  0  0  0
    0.9915    2.2038    1.4414 O   0  0  0  0  0  0  0  0  0  0  0  0
   -0.5905    3.4116    0.4532 O   0  0  0  0  0  0  0  0  0  0  0  0
   -0.2504    4.0126    1.1168 H   0  0  0  0  0  0  0  0  0  0  0  0
    0.5920   -0.2154    1.5497 C   0  0  0  0  0  0  0  0  0  0  0  0
    1.7860   -0.4596    1.7183 O   0  0  0  0  0  0  0  0  0  0  0  0
   -0.2294    0.0669    2.5672 N   0  0  0  0  0  0  0  0  0  0  0  0
   -1.2130    0.1938    2.3518 H   0  0  0  0  0  0  0  0  0  0  0  0
    0.1836    0.1337    3.9673 C   0  0  0  0  0  0  0  0  0  0  0  0
    1.0451    0.7976    4.0666 H   0  0  0  0  0  0  0  0  0  0  0  0
   -0.6344    0.5115    4.5820 H   0  0  0  0  0  0  0  0  0  0  0  0
    0.4676   -0.8609    4.3157 H   0  0  0  0  0  0  0  0  0  0  0  0
  5  6  2  0  0  0  0
  5  7  1  0  0  0  0
  2  3  1  0  0  0  0
  2  4  1  0  0  0  0
  2  5  1  0  0  0  0
  1  2  1  0  0  0  0
 18 19  2  0  0  0  0
 18 20  1  0  0  0  0
 16 17  1  0  0  0  0
 14 15  2  0  0  0  0
 14 16  1  0  0  0  0
 11 12  1  0  0  0  0
 11 13  1  0  0  0  0
 11 14  1  0  0  0  0
  9 10  1  0  0  0  0
  9 11  1  0  0  0  0
  9 18  1  0  0  0  0
  7  8  1  0  0  0  0
  7  9  1  0  0  0  0
 22 23  1  0  0  0  0
 22 24  1  0  0  0  0
 22 25  1  0  0  0  0
 20 21  1  0  0  0  0
 20 22  1  0  0  0  0
M  END
$$$$
default_name
  -OEChem-02102213163D

 25 24  0     1  0  0  0  0  0999 V2000
   -2.7826   -3.8464    0.7821 H   0  0  0  0  0  0  0  0  0  0  0  0
   -2.8156   -2.8034    0.4711 C   0  0  0  0  0  0  0  0  0  0  0  0
   -3.4336   -2.2354    1.1641 H   0  0  0  0  0  0  0  0  0  0  0  0
   -3.2256   -2.7344   -0.5349 H   0  0  0  0  0  0  0  0  0  0  0  0
   -1.4126   -2.2444    0.4801 C   0  0  0  0  0  0  0  0  0  0  0  0
   -0.4686   -2.9534    0.8001 O   0  0  0  0  0  0  0  0  0  0  0  0
   -1.2736   -0.9704    0.1241 N   0  0  0  0  0  0  0  0  0  0  0  0
   -2.0996   -0.4354   -0.1019 H   0  0  0  0  0  0  0  0  0  0  0  0
   -0.0016   -0.2394    0.1271 C   0  0  1  0  0  0  0  0  0  0  0  0
    0.6995   -0.7619   -0.5275 H   0  0  0  0  0  0  0  0  0  0  0  0
   -0.2283    1.1832   -0.4215 C   0  0  0  0  0  0  0  0  0  0  0  0
    0.3945    1.3354   -1.3038 H   0  0  0  0  0  0  0  0  0  0  0  0
   -1.2700    1.2990   -0.7227 H   0  0  0  0  0  0  0  0  0  0  0  0
    0.1316    2.2820    0.5739 C   0  0  0  0  0  0  0  0  0  0  0  0
    1.1429    2.3162    1.2626 O   0  0  0  0  0  0  0  0  0  0  0  0
   -0.7746    3.2724    0.6735 O   0  0  0  0  0  0  0  0  0  0  0  0
   -0.4163    3.8931    1.3088 H   0  0  0  0  0  0  0  0  0  0  0  0
    0.5920   -0.2154    1.5497 C   0  0  0  0  0  0  0  0  0  0  0  0
    1.7860   -0.4596    1.7183 O   0  0  0  0  0  0  0  0  0  0  0  0
   -0.2294    0.0669    2.5672 N   0  0  0  0  0  0  0  0  0  0  0  0
   -1.2130    0.1938    2.3518 H   0  0  0  0  0  0  0  0  0  0  0  0
    0.1836    0.1337    3.9673 C   0  0  0  0  0  0  0  0  0  0  0  0
    1.0451    0.7976    4.0666 H   0  0  0  0  0  0  0  0  0  0  0  0
   -0.6344    0.5115    4.5820 H   0  0  0  0  0  0  0  0  0  0  0  0
    0.4676   -0.8609    4.3157 H   0  0  0  0  0  0  0  0  0  0  0  0
  5  6  2  0  0  0  0
  5  7  1  0  0  0  0
  2  3  1  0  0  0  0
  2  4  1  0  0  0  0
  2  5  1  0  0  0  0
  1  2  1  0  0  0  0
 18 19  2  0  0  0  0
 18 20  1  0  0  0  0
 16 17  1  0  0  0  0
 14 15  2  0  0  0  0
 14 16  1  0  0  0  0
 11 12  1  0  0  0  0
 11 13  1  0  0  0  0
 11 14  1  0  0  0  0
  9 10  1  0  0  0  0
  9 11  1  0  0  0  0
  9 18  1  0  0  0  0
  7  8  1  0  0  0  0
  7  9  1  0  0  0  0
 22 23  1  0  0  0  0
 22 24  1  0  0  0  0
 22 25  1  0  0  0  0
 20 21  1  0  0  0  0
 20 22  1  0  0  0  0
M  END
$$$$
default_name
  -OEChem-02102213163D

 25 24  0     1  0  0  0  0  0999 V2000
   -2.7826   -3.8464    0.7821 H   0  0  0  0  0  0  0  0  0  0  0  0
   -2.8156   -2.8034    0.4711 C   0  0  0  0  0  0  0  0  0  0  0  0
   -3.4336   -2.2354    1.1641 H   0  0  0  0  0  0  0  0  0  0  0  0
   -3.2256   -2.7344   -0.5349 H   0  0  0  0  0  0  0  0  0  0  0  0
   -1.4126   -2.2444    0.4801 C   0  0  0  0  0  0  0  0  0  0  0  0
   -0.4686   -2.9534    0.8001 O   0  0  0  0  0  0  0  0  0  0  0  0
   -1.2736   -0.9704    0.1241 N   0  0  0  0  0  0  0  0  0  0  0  0
   -2.0996   -0.4354   -0.1019 H   0  0  0  0  0  0  0  0  0  0  0  0
   -0.0016   -0.2394    0.1271 C   0  0  1  0  0  0  0  0  0  0  0  0
    0.6995   -0.7619   -0.5275 H   0  0  0  0  0  0  0  0  0  0  0  0
   -0.2283    1.1832   -0.4215 C   0  0  0  0  0  0  0  0  0  0  0  0
    0.3945    1.3354   -1.3038 H   0  0  0  0  0  0  0  0  0  0  0  0
   -1.2700    1.2990   -0.7227 H   0  0  0  0  0  0  0  0  0  0  0  0
    0.1316    2.2820    0.5739 C   0  0  0  0  0  0  0  0  0  0  0  0
    1.2368    2.4613    1.0686 O   0  0  0  0  0  0  0  0  0  0  0  0
   -0.8878    3.0934    0.9120 O   0  0  0  0  0  0  0  0  0  0  0  0
   -0.5205    3.7379    1.5178 H   0  0  0  0  0  0  0  0  0  0  0  0
    0.5920   -0.2154    1.5497 C   0  0  0  0  0  0  0  0  0  0  0  0
    1.7860   -0.4596    1.7183 O   0  0  0  0  0  0  0  0  0  0  0  0
   -0.2294    0.0669    2.5672 N   0  0  0  0  0  0  0  0  0  0  0  0
   -1.2130    0.1938    2.3518 H   0  0  0  0  0  0  0  0  0  0  0  0
    0.1836    0.1337    3.9673 C   0  0  0  0  0  0  0  0  0  0  0  0
    1.0451    0.7976    4.0666 H   0  0  0  0  0  0  0  0  0  0  0  0
   -0.6344    0.5115    4.5820 H   0  0  0  0  0  0  0  0  0  0  0  0
    0.4676   -0.8609    4.3157 H   0  0  0  0  0  0  0  0  0  0  0  0
  5  6  2  0  0  0  0
  5  7  1  0  0  0  0
  2  3  1  0  0  0  0
  2  4  1  0  0  0  0
  2  5  1  0  0  0  0
  1  2  1  0  0  0  0
 18 19  2  0  0  0  0
 18 20  1  0  0  0  0
 16 17  1  0  0  0  0
 14 15  2  0  0  0  0
 14 16  1  0  0  0  0
 11 12  1  0  0  0  0
 11 13  1  0  0  0  0
 11 14  1  0  0  0  0
  9 10  1  0  0  0  0
  9 11  1  0  0  0  0
  9 18  1  0  0  0  0
  7  8  1  0  0  0  0
  7  9  1  0  0  0  0
 22 23  1  0  0  0  0
 22 24  1  0  0  0  0
 22 25  1  0  0  0  0
 20 21  1  0  0  0  0
 20 22  1  0  0  0  0
M  END
$$$$
default_name
  -OEChem-02102213163D

 25 24  0     1  0  0  0  0  0999 V2000
   -2.7826   -3.8464    0.7821 H   0  0  0  0  0  0  0  0  0  0  0  0
   -2.8156   -2.8034    0.4711 C   0  0  0  0  0  0  0  0  0  0  0  0
   -3.4336   -2.2354    1.1641 H   0  0  0  0  0  0  0  0  0  0  0  0
   -3.2256   -2.7344   -0.5349 H   0  0  0  0  0  0  0  0  0  0  0  0
   -1.4126   -2.2444    0.4801 C   0  0  0  0  0  0  0  0  0  0  0  0
   -0.4686   -2.9534    0.8001 O   0  0  0  0  0  0  0  0  0  0  0  0
   -1.2736   -0.9704    0.1241 N   0  0  0  0  0  0  0  0  0  0  0  0
   -2.0996   -0.4354   -0.1019 H   0  0  0  0  0  0  0  0  0  0  0  0
   -0.0016   -0.2394    0.1271 C   0  0  1  0  0  0  0  0  0  0  0  0
    0.6995   -0.7619   -0.5275 H   0  0  0  0  0  0  0  0  0  0  0  0
   -0.2283    1.1832   -0.4215 C   0  0  0  0  0  0  0  0  0  0  0  0
    0.3945    1.3354   -1.3038 H   0  0  0  0  0  0  0  0  0  0  0  0
   -1.2700    1.2990   -0.7227 H   0  0  0  0  0  0  0  0  0  0  0  0
    0.1316    2.2820    0.5739 C   0  0  0  0  0  0  0  0  0  0  0  0
    1.2668    2.6291    0.8725 O   0  0  0  0  0  0  0  0  0  0  0  0
   -0.9226    2.8869    1.1526 O   0  0  0  0  0  0  0  0  0  0  0  0
   -0.5561    3.5576    1.7296 H   0  0  0  0  0  0  0  0  0  0  0  0
    0.5920   -0.2154    1.5497 C   0  0  0  0  0  0  0  0  0  0  0  0
    1.7860   -0.4596    1.7183 O   0  0  0  0  0  0  0  0  0  0  0  0
   -0.2294    0.0669    2.5672 N   0  0  0  0  0  0  0  0  0  0  0  0
   -1.2130    0.1938    2.3518 H   0  0  0  0  0  0  0  0  0  0  0  0
    0.1836    0.1337    3.9673 C   0  0  0  0  0  0  0  0  0  0  0  0
    1.0451    0.7976    4.0666 H   0  0  0  0  0  0  0  0  0  0  0  0
   -0.6344    0.5115    4.5820 H   0  0  0  0  0  0  0  0  0  0  0  0
    0.4676   -0.8609    4.3157 H   0  0  0  0  0  0  0  0  0  0  0  0
  5  6  2  0  0  0  0
  5  7  1  0  0  0  0
  2  3  1  0  0  0  0
  2  4  1  0  0  0  0
  2  5  1  0  0  0  0
  1  2  1  0  0  0  0
 18 19  2  0  0  0  0
 18 20  1  0  0  0  0
 16 17  1  0  0  0  0
 14 15  2  0  0  0  0
 14 16  1  0  0  0  0
 11 12  1  0  0  0  0
 11 13  1  0  0  0  0
 11 14  1  0  0  0  0
  9 10  1  0  0  0  0
  9 11  1  0  0  0  0
  9 18  1  0  0  0  0
  7  8  1  0  0  0  0
  7  9  1  0  0  0  0
 22 23  1  0  0  0  0
 22 24  1  0  0  0  0
 22 25  1  0  0  0  0
 20 21  1  0  0  0  0
 20 22  1  0  0  0  0
M  END
$$$$
default_name
  -OEChem-02102213163D

 25 24  0     1  0  0  0  0  0999 V2000
   -2.7826   -3.8464    0.7821 H   0  0  0  0  0  0  0  0  0  0  0  0
   -2.8156   -2.8034    0.4711 C   0  0  0  0  0  0  0  0  0  0  0  0
   -3.4336   -2.2354    1.1641 H   0  0  0  0  0  0  0  0  0  0  0  0
   -3.2256   -2.7344   -0.5349 H   0  0  0  0  0  0  0  0  0  0  0  0
   -1.4126   -2.2444    0.4801 C   0  0  0  0  0  0  0  0  0  0  0  0
   -0.4686   -2.9534    0.8001 O   0  0  0  0  0  0  0  0  0  0  0  0
   -1.2736   -0.9704    0.1241 N   0  0  0  0  0  0  0  0  0  0  0  0
   -2.0996   -0.4354   -0.1019 H   0  0  0  0  0  0  0  0  0  0  0  0
   -0.0016   -0.2394    0.1271 C   0  0  1  0  0  0  0  0  0  0  0  0
    0.6995   -0.7619   -0.5275 H   0  0  0  0  0  0  0  0  0  0  0  0
   -0.2283    1.1832   -0.4215 C   0  0  0  0  0  0  0  0  0  0  0  0
    0.3945    1.3354   -1.3038 H   0  0  0  0  0  0  0  0  0  0  0  0
   -1.2700    1.2990   -0.7227 H   0  0  0  0  0  0  0  0  0  0  0  0
    0.1316    2.2820    0.5739 C   0  0  0  0  0  0  0  0  0  0  0  0
    1.2309    2.8082    0.6877 O   0  0  0  0  0  0  0  0  0  0  0  0
   -0.8764    2.6668    1.3788 O   0  0  0  0  0  0  0  0  0  0  0  0
   -0.5204    3.3646    1.9299 H   0  0  0  0  0  0  0  0  0  0  0  0
    0.5920   -0.2154    1.5497 C   0  0  0  0  0  0  0  0  0  0  0  0
    1.7860   -0.4596    1.7183 O   0  0  0  0  0  0  0  0  0  0  0  0
   -0.2294    0.0669    2.5672 N   0  0  0  0  0  0  0  0  0  0  0  0
   -1.2130    0.1938    2.3518 H   0  0  0  0  0  0  0  0  0  0  0  0
    0.1836    0.1337    3.9673 C   0  0  0  0  0  0  0  0  0  0  0  0
    1.0451    0.7976    4.0666 H   0  0  0  0  0  0  0  0  0  0  0  0
   -0.6344    0.5115    4.5820 H   0  0  0  0  0  0  0  0  0  0  0  0
    0.4676   -0.8609    4.3157 H   0  0  0  0  0  0  0  0  0  0  0  0
  5  6  2  0  0  0  0
  5  7  1  0  0  0  0
  2  3  1  0  0  0  0
  2  4  1  0  0  0  0
  2  5  1  0  0  0  0
  1  2  1  0  0  0  0
 18 19  2  0  0  0  0
 18 20  1  0  0  0  0
 16 17  1  0  0  0  0
 14 15  2  0  0  0  0
 14 16  1  0  0  0  0
 11 12  1  0  0  0  0
 11 13  1  0  0  0  0
 11 14  1  0  0  0  0
  9 10  1  0  0  0  0
  9 11  1  0  0  0  0
  9 18  1  0  0  0  0
  7  8  1  0  0  0  0
  7  9  1  0  0  0  0
 22 23  1  0  0  0  0
 22 24  1  0  0  0  0
 22 25  1  0  0  0  0
 20 21  1  0  0  0  0
 20 22  1  0  0  0  0
M  END
$$$$
default_name
  -OEChem-02102213163D

 25 24  0     1  0  0  0  0  0999 V2000
   -2.7826   -3.8464    0.7821 H   0  0  0  0  0  0  0  0  0  0  0  0
   -2.8156   -2.8034    0.4711 C   0  0  0  0  0  0  0  0  0  0  0  0
   -3.4336   -2.2354    1.1641 H   0  0  0  0  0  0  0  0  0  0  0  0
   -3.2256   -2.7344   -0.5349 H   0  0  0  0  0  0  0  0  0  0  0  0
   -1.4126   -2.2444    0.4801 C   0  0  0  0  0  0  0  0  0  0  0  0
   -0.4686   -2.9534    0.8001 O   0  0  0  0  0  0  0  0  0  0  0  0
   -1.2736   -0.9704    0.1241 N   0  0  0  0  0  0  0  0  0  0  0  0
   -2.0996   -0.4354   -0.1019 H   0  0  0  0  0  0  0  0  0  0  0  0
   -0.0016   -0.2394    0.1271 C   0  0  1  0  0  0  0  0  0  0  0  0
    0.6995   -0.7619   -0.5275 H   0  0  0  0  0  0  0  0  0  0  0  0
   -0.2283    1.1832   -0.4215 C   0  0  0  0  0  0  0  0  0  0  0  0
    0.3945    1.3354   -1.3038 H   0  0  0  0  0  0  0  0  0  0  0  0
   -1.2700    1.2990   -0.7227 H   0  0  0  0  0  0  0  0  0  0  0  0
    0.1316    2.2820    0.5739 C   0  0  0  0  0  0  0  0  0  0  0  0
    1.1315    2.9864    0.5269 O   0  0  0  0  0  0  0  0  0  0  0  0
   -0.7524    2.4482    1.5753 O   0  0  0  0  0  0  0  0  0  0  0  0
   -0.4161    3.1719    2.1049 H   0  0  0  0  0  0  0  0  0  0  0  0
    0.5920   -0.2154    1.5497 C   0  0  0  0  0  0  0  0  0  0  0  0
    1.7860   -0.4596    1.7183 O   0  0  0  0  0  0  0  0  0  0  0  0
   -0.2294    0.0669    2.5672 N   0  0  0  0  0  0  0  0  0  0  0  0
   -1.2130    0.1938    2.3518 H   0  0  0  0  0  0  0  0  0  0  0  0
    0.1836    0.1337    3.9673 C   0  0  0  0  0  0  0  0  0  0  0  0
    1.0451    0.7976    4.0666 H   0  0  0  0  0  0  0  0  0  0  0  0
   -0.6344    0.5115    4.5820 H   0  0  0  0  0  0  0  0  0  0  0  0
    0.4676   -0.8609    4.3157 H   0  0  0  0  0  0  0  0  0  0  0  0
  5  6  2  0  0  0  0
  5  7  1  0  0  0  0
  2  3  1  0  0  0  0
  2  4  1  0  0  0  0
  2  5  1  0  0  0  0
  1  2  1  0  0  0  0
 18 19  2  0  0  0  0
 18 20  1  0  0  0  0
 16 17  1  0  0  0  0
 14 15  2  0  0  0  0
 14 16  1  0  0  0  0
 11 12  1  0  0  0  0
 11 13  1  0  0  0  0
 11 14  1  0  0  0  0
  9 10  1  0  0  0  0
  9 11  1  0  0  0  0
  9 18  1  0  0  0  0
  7  8  1  0  0  0  0
  7  9  1  0  0  0  0
 22 23  1  0  0  0  0
 22 24  1  0  0  0  0
 22 25  1  0  0  0  0
 20 21  1  0  0  0  0
 20 22  1  0  0  0  0
M  END
$$$$
default_name
  -OEChem-02102213163D

 25 24  0     1  0  0  0  0  0999 V2000
   -2.7826   -3.8464    0.7821 H   0  0  0  0  0  0  0  0  0  0  0  0
   -2.8156   -2.8034    0.4711 C   0  0  0  0  0  0  0  0  0  0  0  0
   -3.4336   -2.2354    1.1641 H   0  0  0  0  0  0  0  0  0  0  0  0
   -3.2256   -2.7344   -0.5349 H   0  0  0  0  0  0  0  0  0  0  0  0
   -1.4126   -2.2444    0.4801 C   0  0  0  0  0  0  0  0  0  0  0  0
   -0.4686   -2.9534    0.8001 O   0  0  0  0  0  0  0  0  0  0  0  0
   -1.2736   -0.9704    0.1241 N   0  0  0  0  0  0  0  0  0  0  0  0
   -2.0996   -0.4354   -0.1019 H   0  0  0  0  0  0  0  0  0  0  0  0
   -0.0016   -0.2394    0.1271 C   0  0  1  0  0  0  0  0  0  0  0  0
    0.6995   -0.7619   -0.5275 H   0  0  0  0  0  0  0  0  0  0  0  0
   -0.2283    1.1832   -0.4215 C   0  0  0  0  0  0  0  0  0  0  0  0
    0.3945    1.3354   -1.3038 H   0  0  0  0  0  0  0  0  0  0  0  0
   -1.2700    1.2990   -0.7227 H   0  0  0  0  0  0  0  0  0  0  0  0
    0.1316    2.2820    0.5739 C   0  0  0  0  0  0  0  0  0  0  0  0
    0.9755    3.1516    0.4010 O   0  0  0  0  0  0  0  0  0  0  0  0
   -0.5591    2.2460    1.7287 O   0  0  0  0  0  0  0  0  0  0  0  0
   -0.2502    2.9927    2.2427 H   0  0  0  0  0  0  0  0  0  0  0  0
    0.5920   -0.2154    1.5497 C   0  0  0  0  0  0  0  0  0  0  0  0
    1.7860   -0.4596    1.7183 O   0  0  0  0  0  0  0  0  0  0  0  0
   -0.2294    0.0669    2.5672 N   0  0  0  0  0  0  0  0  0  0  0  0
   -1.2130    0.1938    2.3518 H   0  0  0  0  0  0  0  0  0  0  0  0
    0.1836    0.1337    3.9673 C   0  0  0  0  0  0  0  0  0  0  0  0
    1.0451    0.7976    4.0666 H   0  0  0  0  0  0  0  0  0  0  0  0
   -0.6344    0.5115    4.5820 H   0  0  0  0  0  0  0  0  0  0  0  0
    0.4676   -0.8609    4.3157 H   0  0  0  0  0  0  0  0  0  0  0  0
  5  6  2  0  0  0  0
  5  7  1  0  0  0  0
  2  3  1  0  0  0  0
  2  4  1  0  0  0  0
  2  5  1  0  0  0  0
  1  2  1  0  0  0  0
 18 19  2  0  0  0  0
 18 20  1  0  0  0  0
 16 17  1  0  0  0  0
 14 15  2  0  0  0  0
 14 16  1  0  0  0  0
 11 12  1  0  0  0  0
 11 13  1  0  0  0  0
 11 14  1  0  0  0  0
  9 10  1  0  0  0  0
  9 11  1  0  0  0  0
  9 18  1  0  0  0  0
  7  8  1  0  0  0  0
  7  9  1  0  0  0  0
 22 23  1  0  0  0  0
 22 24  1  0  0  0  0
 22 25  1  0  0  0  0
 20 21  1  0  0  0  0
 20 22  1  0  0  0  0
M  END
$$$$
default_name
  -OEChem-02102213163D

 25 24  0     1  0  0  0  0  0999 V2000
   -2.7826   -3.8464    0.7821 H   0  0  0  0  0  0  0  0  0  0  0  0
   -2.8156   -2.8034    0.4711 C   0  0  0  0  0  0  0  0  0  0  0  0
   -3.4336   -2.2354    1.1641 H   0  0  0  0  0  0  0  0  0  0  0  0
   -3.2256   -2.7344   -0.5349 H   0  0  0  0  0  0  0  0  0  0  0  0
   -1.4126   -2.2444    0.4801 C   0  0  0  0  0  0  0  0  0  0  0  0
   -0.4686   -2.9534    0.8001 O   0  0  0  0  0  0  0  0  0  0  0  0
   -1.2736   -0.9704    0.1241 N   0  0  0  0  0  0  0  0  0  0  0  0
   -2.0996   -0.4354   -0.1019 H   0  0  0  0  0  0  0  0  0  0  0  0
   -0.0016   -0.2394    0.1271 C   0  0  1  0  0  0  0  0  0  0  0  0
    0.6995   -0.7619   -0.5275 H   0  0  0  0  0  0  0  0  0  0  0  0
   -0.2283    1.1832   -0.4215 C   0  0  0  0  0  0  0  0  0  0  0  0
    0.3945    1.3354   -1.3038 H   0  0  0  0  0  0  0  0  0  0  0  0
   -1.2700    1.2990   -0.7227 H   0  0  0  0  0  0  0  0  0  0  0  0
    0.1316    2.2820    0.5739 C   0  0  0  0  0  0  0  0  0  0  0  0
    0.7734    3.2925    0.3185 O   0  0  0  0  0  0  0  0  0  0  0  0
   -0.3097    2.0739    1.8284 O   0  0  0  0  0  0  0  0  0  0  0  0
   -0.0340    2.8392    2.3340 H   0  0  0  0  0  0  0  0  0  0  0  0
    0.5920   -0.2154    1.5497 C   0  0  0  0  0  0  0  0  0  0  0  0
    1.7860   -0.4596    1.7183 O   0  0  0  0  0  0  0  0  0  0  0  0
   -0.2294    0.0669    2.5672 N   0  0  0  0  0  0  0  0  0  0  0  0
   -1.2130    0.1938    2.3518 H   0  0  0  0  0  0  0  0  0  0  0  0
    0.1836    0.1337    3.9673 C   0  0  0  0  0  0  0  0  0  0  0  0
    1.0451    0.7976    4.0666 H   0  0  0  0  0  0  0  0  0  0  0  0
   -0.6344    0.5115    4.5820 H   0  0  0  0  0  0  0  0  0  0  0  0
    0.4676   -0.8609    4.3157 H   0  0  0  0  0  0  0  0  0  0  0  0
  5  6  2  0  0  0  0
  5  7  1  0  0  0  0
  2  3  1  0  0  0  0
  2  4  1  0  0  0  0
  2  5  1  0  0  0  0
  1  2  1  0  0  0  0
 18 19  2  0  0  0  0
 18 20  1  0  0  0  0
 16 17  1  0  0  0  0
 14 15  2  0  0  0  0
 14 16  1  0  0  0  0
 11 12  1  0  0  0  0
 11 13  1  0  0  0  0
 11 14  1  0  0  0  0
  9 10  1  0  0  0  0
  9 11  1  0  0  0  0
  9 18  1  0  0  0  0
  7  8  1  0  0  0  0
  7  9  1  0  0  0  0
 22 23  1  0  0  0  0
 22 24  1  0  0  0  0
 22 25  1  0  0  0  0
 20 21  1  0  0  0  0
 20 22  1  0  0  0  0
M  END
$$$$
default_name
  -OEChem-02102213163D

 25 24  0     1  0  0  0  0  0999 V2000
   -2.7826   -3.8464    0.7821 H   0  0  0  0  0  0  0  0  0  0  0  0
   -2.8156   -2.8034    0.4711 C   0  0  0  0  0  0  0  0  0  0  0  0
   -3.4336   -2.2354    1.1641 H   0  0  0  0  0  0  0  0  0  0  0  0
   -3.2256   -2.7344   -0.5349 H   0  0  0  0  0  0  0  0  0  0  0  0
   -1.4126   -2.2444    0.4801 C   0  0  0  0  0  0  0  0  0  0  0  0
   -0.4686   -2.9534    0.8001 O   0  0  0  0  0  0  0  0  0  0  0  0
   -1.2736   -0.9704    0.1241 N   0  0  0  0  0  0  0  0  0  0  0  0
   -2.0996   -0.4354   -0.1019 H   0  0  0  0  0  0  0  0  0  0  0  0
   -0.0016   -0.2394    0.1271 C   0  0  1  0  0  0  0  0  0  0  0  0
    0.6995   -0.7619   -0.5275 H   0  0  0  0  0  0  0  0  0  0  0  0
   -0.2283    1.1832   -0.4215 C   0  0  0  0  0  0  0  0  0  0  0  0
    0.3945    1.3354   -1.3038 H   0  0  0  0  0  0  0  0  0  0  0  0
   -1.2700    1.2990   -0.7227 H   0  0  0  0  0  0  0  0  0  0  0  0
    0.1316    2.2820    0.5739 C   0  0  0  0  0  0  0  0  0  0  0  0
    0.5390    3.3996    0.2851 O   0  0  0  0  0  0  0  0  0  0  0  0
   -0.0211    1.9437    1.8678 O   0  0  0  0  0  0  0  0  0  0  0  0
    0.2178    2.7218    2.3725 H   0  0  0  0  0  0  0  0  0  0  0  0
    0.5920   -0.2154    1.5497 C   0  0  0  0  0  0  0  0  0  0  0  0
    1.7860   -0.4596    1.7183 O   0  0  0  0  0  0  0  0  0  0  0  0
   -0.2294    0.0669    2.5672 N   0  0  0  0  0  0  0  0  0  0  0  0
   -1.2130    0.1938    2.3518 H   0  0  0  0  0  0  0  0  0  0  0  0
    0.1836    0.1337    3.9673 C   0  0  0  0  0  0  0  0  0  0  0  0
    1.0451    0.7976    4.0666 H   0  0  0  0  0  0  0  0  0  0  0  0
   -0.6344    0.5115    4.5820 H   0  0  0  0  0  0  0  0  0  0  0  0
    0.4676   -0.8609    4.3157 H   0  0  0  0  0  0  0  0  0  0  0  0
  5  6  2  0  0  0  0
  5  7  1  0  0  0  0
  2  3  1  0  0  0  0
  2  4  1  0  0  0  0
  2  5  1  0  0  0  0
  1  2  1  0  0  0  0
 18 19  2  0  0  0  0
 18 20  1  0  0  0  0
 16 17  1  0  0  0  0
 14 15  2  0  0  0  0
 14 16  1  0  0  0  0
 11 12  1  0  0  0  0
 11 13  1  0  0  0  0
 11 14  1  0  0  0  0
  9 10  1  0  0  0  0
  9 11  1  0  0  0  0
  9 18  1  0  0  0  0
  7  8  1  0  0  0  0
  7  9  1  0  0  0  0
 22 23  1  0  0  0  0
 22 24  1  0  0  0  0
 22 25  1  0  0  0  0
 20 21  1  0  0  0  0
 20 22  1  0  0  0  0
M  END
$$$$
default_name
  -OEChem-02102213163D

 25 24  0     1  0  0  0  0  0999 V2000
   -2.7826   -3.8464    0.7821 H   0  0  0  0  0  0  0  0  0  0  0  0
   -2.8156   -2.8034    0.4711 C   0  0  0  0  0  0  0  0  0  0  0  0
   -3.4336   -2.2354    1.1641 H   0  0  0  0  0  0  0  0  0  0  0  0
   -3.2256   -2.7344   -0.5349 H   0  0  0  0  0  0  0  0  0  0  0  0
   -1.4126   -2.2444    0.4801 C   0  0  0  0  0  0  0  0  0  0  0  0
   -0.4686   -2.9534    0.8001 O   0  0  0  0  0  0  0  0  0  0  0  0
   -1.2736   -0.9704    0.1241 N   0  0  0  0  0  0  0  0  0  0  0  0
   -2.0996   -0.4354   -0.1019 H   0  0  0  0  0  0  0  0  0  0  0  0
   -0.0016   -0.2394    0.1271 C   0  0  1  0  0  0  0  0  0  0  0  0
    0.6995   -0.7619   -0.5275 H   0  0  0  0  0  0  0  0  0  0  0  0
   -0.2283    1.1832   -0.4215 C   0  0  0  0  0  0  0  0  0  0  0  0
    0.3945    1.3354   -1.3038 H   0  0  0  0  0  0  0  0  0  0  0  0
   -1.2700    1.2990   -0.7227 H   0  0  0  0  0  0  0  0  0  0  0  0
    0.1316    2.2820    0.5739 C   0  0  0  0  0  0  0  0  0  0  0  0
    0.2883    3.4654    0.3031 O   0  0  0  0  0  0  0  0  0  0  0  0
    0.2869    1.8643    1.8441 O   0  0  0  0  0  0  0  0  0  0  0  0
    0.4880    2.6487    2.3555 H   0  0  0  0  0  0  0  0  0  0  0  0
    0.5920   -0.2154    1.5497 C   0  0  0  0  0  0  0  0  0  0  0  0
    1.7860   -0.4596    1.7183 O   0  0  0  0  0  0  0  0  0  0  0  0
   -0.2294    0.0669    2.5672 N   0  0  0  0  0  0  0  0  0  0  0  0
   -1.2130    0.1938    2.3518 H   0  0  0  0  0  0  0  0  0  0  0  0
    0.1836    0.1337    3.9673 C   0  0  0  0  0  0  0  0  0  0  0  0
    1.0451    0.7976    4.0666 H   0  0  0  0  0  0  0  0  0  0  0  0
   -0.6344    0.5115    4.5820 H   0  0  0  0  0  0  0  0  0  0  0  0
    0.4676   -0.8609    4.3157 H   0  0  0  0  0  0  0  0  0  0  0  0
  5  6  2  0  0  0  0
  5  7  1  0  0  0  0
  2  3  1  0  0  0  0
  2  4  1  0  0  0  0
  2  5  1  0  0  0  0
  1  2  1  0  0  0  0
 18 19  2  0  0  0  0
 18 20  1  0  0  0  0
 16 17  1  0  0  0  0
 14 15  2  0  0  0  0
 14 16  1  0  0  0  0
 11 12  1  0  0  0  0
 11 13  1  0  0  0  0
 11 14  1  0  0  0  0
  9 10  1  0  0  0  0
  9 11  1  0  0  0  0
  9 18  1  0  0  0  0
  7  8  1  0  0  0  0
  7  9  1  0  0  0  0
 22 23  1  0  0  0  0
 22 24  1  0  0  0  0
 22 25  1  0  0  0  0
 20 21  1  0  0  0  0
 20 22  1  0  0  0  0
M  END
$$$$
default_name
  -OEChem-02102213163D

 25 24  0     1  0  0  0  0  0999 V2000
   -2.7826   -3.8464    0.7821 H   0  0  0  0  0  0  0  0  0  0  0  0
   -2.8156   -2.8034    0.4711 C   0  0  0  0  0  0  0  0  0  0  0  0
   -3.4336   -2.2354    1.1641 H   0  0  0  0  0  0  0  0  0  0  0  0
   -3.2256   -2.7344   -0.5349 H   0  0  0  0  0  0  0  0  0  0  0  0
   -1.4126   -2.2444    0.4801 C   0  0  0  0  0  0  0  0  0  0  0  0
   -0.4686   -2.9534    0.8001 O   0  0  0  0  0  0  0  0  0  0  0  0
   -1.2736   -0.9704    0.1241 N   0  0  0  0  0  0  0  0  0  0  0  0
   -2.0996   -0.4354   -0.1019 H   0  0  0  0  0  0  0  0  0  0  0  0
   -0.0016   -0.2394    0.1271 C   0  0  1  0  0  0  0  0  0  0  0  0
    0.6995   -0.7619   -0.5275 H   0  0  0  0  0  0  0  0  0  0  0  0
   -0.2283    1.1832   -0.4215 C   0  0  0  0  0  0  0  0  0  0  0  0
    0.1748    1.2507   -1.4327 H   0  0  0  0  0  0  0  0  0  0  0  0
   -1.2977    1.3911   -0.4725 H   0  0  0  0  0  0  0  0  0  0  0  0
    0.4553    2.2684    0.4048 C   0  0  0  0  0  0  0  0  0  0  0  0
    0.4217    3.4694    0.1710 O   0  0  0  0  0  0  0  0  0  0  0  0
    1.1483    1.8169    1.4668 O   0  0  0  0  0  0  0  0  0  0  0  0
    1.5026    2.5947    1.8990 H   0  0  0  0  0  0  0  0  0  0  0  0
    0.5920   -0.2154    1.5497 C   0  0  0  0  0  0  0  0  0  0  0  0
    1.7860   -0.4596    1.7183 O   0  0  0  0  0  0  0  0  0  0  0  0
   -0.2294    0.0669    2.5672 N   0  0  0  0  0  0  0  0  0  0  0  0
   -1.2130    0.1938    2.3518 H   0  0  0  0  0  0  0  0  0  0  0  0
    0.1836    0.1337    3.9673 C   0  0  0  0  0  0  0  0  0  0  0  0
    1.0451    0.7976    4.0666 H   0  0  0  0  0  0  0  0  0  0  0  0
   -0.6344    0.5115    4.5820 H   0  0  0  0  0  0  0  0  0  0  0  0
    0.4676   -0.8609    4.3157 H   0  0  0  0  0  0  0  0  0  0  0  0
  5  6  2  0  0  0  0
  5  7  1  0  0  0  0
  2  3  1  0  0  0  0
  2  4  1  0  0  0  0
  2  5  1  0  0  0  0
  1  2  1  0  0  0  0
 18 19  2  0  0  0  0
 18 20  1  0  0  0  0
 16 17  1  0  0  0  0
 14 15  2  0  0  0  0
 14 16  1  0  0  0  0
 11 12  1  0  0  0  0
 11 13  1  0  0  0  0
 11 14  1  0  0  0  0
  9 10  1  0  0  0  0
  9 11  1  0  0  0  0
  9 18  1  0  0  0  0
  7  8  1  0  0  0  0
  7  9  1  0  0  0  0
 22 23  1  0  0  0  0
 22 24  1  0  0  0  0
 22 25  1  0  0  0  0
 20 21  1  0  0  0  0
 20 22  1  0  0  0  0
M  END
$$$$
default_name
  -OEChem-02102213163D

 25 24  0     1  0  0  0  0  0999 V2000
   -2.7826   -3.8464    0.7821 H   0  0  0  0  0  0  0  0  0  0  0  0
   -2.8156   -2.8034    0.4711 C   0  0  0  0  0  0  0  0  0  0  0  0
   -3.4336   -2.2354    1.1641 H   0  0  0  0  0  0  0  0  0  0  0  0
   -3.2256   -2.7344   -0.5349 H   0  0  0  0  0  0  0  0  0  0  0  0
   -1.4126   -2.2444    0.4801 C   0  0  0  0  0  0  0  0  0  0  0  0
   -0.4686   -2.9534    0.8001 O   0  0  0  0  0  0  0  0  0  0  0  0
   -1.2736   -0.9704    0.1241 N   0  0  0  0  0  0  0  0  0  0  0  0
   -2.0996   -0.4354   -0.1019 H   0  0  0  0  0  0  0  0  0  0  0  0
   -0.0016   -0.2394    0.1271 C   0  0  1  0  0  0  0  0  0  0  0  0
    0.6995   -0.7619   -0.5275 H   0  0  0  0  0  0  0  0  0  0  0  0
   -0.2283    1.1832   -0.4215 C   0  0  0  0  0  0  0  0  0  0  0  0
    0.1748    1.2507   -1.4327 H   0  0  0  0  0  0  0  0  0  0  0  0
   -1.2977    1.3911   -0.4725 H   0  0  0  0  0  0  0  0  0  0  0  0
    0.4553    2.2684    0.4048 C   0  0  0  0  0  0  0  0  0  0  0  0
    0.2223    3.4682    0.3375 O   0  0  0  0  0  0  0  0  0  0  0  0
    1.3921    1.8200    1.2611 O   0  0  0  0  0  0  0  0  0  0  0  0
    1.7193    2.5937    1.7210 H   0  0  0  0  0  0  0  0  0  0  0  0
    0.5920   -0.2154    1.5497 C   0  0  0  0  0  0  0  0  0  0  0  0
    1.7860   -0.4596    1.7183 O   0  0  0  0  0  0  0  0  0  0  0  0
   -0.2294    0.0669    2.5672 N   0  0  0  0  0  0  0  0  0  0  0  0
   -1.2130    0.1938    2.3518 H   0  0  0  0  0  0  0  0  0  0  0  0
    0.1836    0.1337    3.9673 C   0  0  0  0  0  0  0  0  0  0  0  0
    1.0451    0.7976    4.0666 H   0  0  0  0  0  0  0  0  0  0  0  0
   -0.6344    0.5115    4.5820 H   0  0  0  0  0  0  0  0  0  0  0  0
    0.4676   -0.8609    4.3157 H   0  0  0  0  0  0  0  0  0  0  0  0
  5  6  2  0  0  0  0
  5  7  1  0  0  0  0
  2  3  1  0  0  0  0
  2  4  1  0  0  0  0
  2  5  1  0  0  0  0
  1  2  1  0  0  0  0
 18 19  2  0  0  0  0
 18 20  1  0  0  0  0
 16 17  1  0  0  0  0
 14 15  2  0  0  0  0
 14 16  1  0  0  0  0
 11 12  1  0  0  0  0
 11 13  1  0  0  0  0
 11 14  1  0  0  0  0
  9 10  1  0  0  0  0
  9 11  1  0  0  0  0
  9 18  1  0  0  0  0
  7  8  1  0  0  0  0
  7  9  1  0  0  0  0
 22 23  1  0  0  0  0
 22 24  1  0  0  0  0
 22 25  1  0  0  0  0
 20 21  1  0  0  0  0
 20 22  1  0  0  0  0
M  END
$$$$
default_name
  -OEChem-02102213163D

 25 24  0     1  0  0  0  0  0999 V2000
   -2.7826   -3.8464    0.7821 H   0  0  0  0  0  0  0  0  0  0  0  0
   -2.8156   -2.8034    0.4711 C   0  0  0  0  0  0  0  0  0  0  0  0
   -3.4336   -2.2354    1.1641 H   0  0  0  0  0  0  0  0  0  0  0  0
   -3.2256   -2.7344   -0.5349 H   0  0  0  0  0  0  0  0  0  0  0  0
   -1.4126   -2.2444    0.4801 C   0  0  0  0  0  0  0  0  0  0  0  0
   -0.4686   -2.9534    0.8001 O   0  0  0  0  0  0  0  0  0  0  0  0
   -1.2736   -0.9704    0.1241 N   0  0  0  0  0  0  0  0  0  0  0  0
   -2.0996   -0.4354   -0.1019 H   0  0  0  0  0  0  0  0  0  0  0  0
   -0.0016   -0.2394    0.1271 C   0  0  1  0  0  0  0  0  0  0  0  0
    0.6995   -0.7619   -0.5275 H   0  0  0  0  0  0  0  0  0  0  0  0
   -0.2283    1.1832   -0.4215 C   0  0  0  0  0  0  0  0  0  0  0  0
    0.1748    1.2507   -1.4327 H   0  0  0  0  0  0  0  0  0  0  0  0
   -1.2977    1.3911   -0.4725 H   0  0  0  0  0  0  0  0  0  0  0  0
    0.4553    2.2684    0.4048 C   0  0  0  0  0  0  0  0  0  0  0  0
    0.0605    3.4197    0.5350 O   0  0  0  0  0  0  0  0  0  0  0  0
    1.5893    1.8810    1.0179 O   0  0  0  0  0  0  0  0  0  0  0  0
    1.8960    2.6438    1.5090 H   0  0  0  0  0  0  0  0  0  0  0  0
    0.5920   -0.2154    1.5497 C   0  0  0  0  0  0  0  0  0  0  0  0
    1.7860   -0.4596    1.7183 O   0  0  0  0  0  0  0  0  0  0  0  0
   -0.2294    0.0669    2.5672 N   0  0  0  0  0  0  0  0  0  0  0  0
   -1.2130    0.1938    2.3518 H   0  0  0  0  0  0  0  0  0  0  0  0
    0.1836    0.1337    3.9673 C   0  0  0  0  0  0  0  0  0  0  0  0
    1.0451    0.7976    4.0666 H   0  0  0  0  0  0  0  0  0  0  0  0
   -0.6344    0.5115    4.5820 H   0  0  0  0  0  0  0  0  0  0  0  0
    0.4676   -0.8609    4.3157 H   0  0  0  0  0  0  0  0  0  0  0  0
  5  6  2  0  0  0  0
  5  7  1  0  0  0  0
  2  3  1  0  0  0  0
  2  4  1  0  0  0  0
  2  5  1  0  0  0  0
  1  2  1  0  0  0  0
 18 19  2  0  0  0  0
 18 20  1  0  0  0  0
 16 17  1  0  0  0  0
 14 15  2  0  0  0  0
 14 16  1  0  0  0  0
 11 12  1  0  0  0  0
 11 13  1  0  0  0  0
 11 14  1  0  0  0  0
  9 10  1  0  0  0  0
  9 11  1  0  0  0  0
  9 18  1  0  0  0  0
  7  8  1  0  0  0  0
  7  9  1  0  0  0  0
 22 23  1  0  0  0  0
 22 24  1  0  0  0  0
 22 25  1  0  0  0  0
 20 21  1  0  0  0  0
 20 22  1  0  0  0  0
M  END
$$$$
default_name
  -OEChem-02102213163D

 25 24  0     1  0  0  0  0  0999 V2000
   -2.7826   -3.8464    0.7821 H   0  0  0  0  0  0  0  0  0  0  0  0
   -2.8156   -2.8034    0.4711 C   0  0  0  0  0  0  0  0  0  0  0  0
   -3.4336   -2.2354    1.1641 H   0  0  0  0  0  0  0  0  0  0  0  0
   -3.2256   -2.7344   -0.5349 H   0  0  0  0  0  0  0  0  0  0  0  0
   -1.4126   -2.2444    0.4801 C   0  0  0  0  0  0  0  0  0  0  0  0
   -0.4686   -2.9534    0.8001 O   0  0  0  0  0  0  0  0  0  0  0  0
   -1.2736   -0.9704    0.1241 N   0  0  0  0  0  0  0  0  0  0  0  0
   -2.0996   -0.4354   -0.1019 H   0  0  0  0  0  0  0  0  0  0  0  0
   -0.0016   -0.2394    0.1271 C   0  0  1  0  0  0  0  0  0  0  0  0
    0.6995   -0.7619   -0.5275 H   0  0  0  0  0  0  0  0  0  0  0  0
   -0.2283    1.1832   -0.4215 C   0  0  0  0  0  0  0  0  0  0  0  0
    0.1748    1.2507   -1.4327 H   0  0  0  0  0  0  0  0  0  0  0  0
   -1.2977    1.3911   -0.4725 H   0  0  0  0  0  0  0  0  0  0  0  0
    0.4553    2.2684    0.4048 C   0  0  0  0  0  0  0  0  0  0  0  0
   -0.0526    3.3273    0.7499 O   0  0  0  0  0  0  0  0  0  0  0  0
    1.7264    1.9957    0.7537 O   0  0  0  0  0  0  0  0  0  0  0  0
    2.0206    2.7416    1.2776 H   0  0  0  0  0  0  0  0  0  0  0  0
    0.5920   -0.2154    1.5497 C   0  0  0  0  0  0  0  0  0  0  0  0
    1.7860   -0.4596    1.7183 O   0  0  0  0  0  0  0  0  0  0  0  0
   -0.2294    0.0669    2.5672 N   0  0  0  0  0  0  0  0  0  0  0  0
   -1.2130    0.1938    2.3518 H   0  0  0  0  0  0  0  0  0  0  0  0
    0.1836    0.1337    3.9673 C   0  0  0  0  0  0  0  0  0  0  0  0
    1.0451    0.7976    4.0666 H   0  0  0  0  0  0  0  0  0  0  0  0
   -0.6344    0.5115    4.5820 H   0  0  0  0  0  0  0  0  0  0  0  0
    0.4676   -0.8609    4.3157 H   0  0  0  0  0  0  0  0  0  0  0  0
  5  6  2  0  0  0  0
  5  7  1  0  0  0  0
  2  3  1  0  0  0  0
  2  4  1  0  0  0  0
  2  5  1  0  0  0  0
  1  2  1  0  0  0  0
 18 19  2  0  0  0  0
 18 20  1  0  0  0  0
 16 17  1  0  0  0  0
 14 15  2  0  0  0  0
 14 16  1  0  0  0  0
 11 12  1  0  0  0  0
 11 13  1  0  0  0  0
 11 14  1  0  0  0  0
  9 10  1  0  0  0  0
  9 11  1  0  0  0  0
  9 18  1  0  0  0  0
  7  8  1  0  0  0  0
  7  9  1  0  0  0  0
 22 23  1  0  0  0  0
 22 24  1  0  0  0  0
 22 25  1  0  0  0  0
 20 21  1  0  0  0  0
 20 22  1  0  0  0  0
M  END
$$$$
default_name
  -OEChem-02102213163D

 25 24  0     1  0  0  0  0  0999 V2000
   -2.7826   -3.8464    0.7821 H   0  0  0  0  0  0  0  0  0  0  0  0
   -2.8156   -2.8034    0.4711 C   0  0  0  0  0  0  0  0  0  0  0  0
   -3.4336   -2.2354    1.1641 H   0  0  0  0  0  0  0  0  0  0  0  0
   -3.2256   -2.7344   -0.5349 H   0  0  0  0  0  0  0  0  0  0  0  0
   -1.4126   -2.2444    0.4801 C   0  0  0  0  0  0  0  0  0  0  0  0
   -0.4686   -2.9534    0.8001 O   0  0  0  0  0  0  0  0  0  0  0  0
   -1.2736   -0.9704    0.1241 N   0  0  0  0  0  0  0  0  0  0  0  0
   -2.0996   -0.4354   -0.1019 H   0  0  0  0  0  0  0  0  0  0  0  0
   -0.0016   -0.2394    0.1271 C   0  0  1  0  0  0  0  0  0  0  0  0
    0.6995   -0.7619   -0.5275 H   0  0  0  0  0  0  0  0  0  0  0  0
   -0.2283    1.1832   -0.4215 C   0  0  0  0  0  0  0  0  0  0  0  0
    0.1748    1.2507   -1.4327 H   0  0  0  0  0  0  0  0  0  0  0  0
   -1.2977    1.3911   -0.4725 H   0  0  0  0  0  0  0  0  0  0  0  0
    0.4553    2.2684    0.4048 C   0  0  0  0  0  0  0  0  0  0  0  0
   -0.1093    3.1973    0.9676 O   0  0  0  0  0  0  0  0  0  0  0  0
    1.7942    2.1565    0.4866 O   0  0  0  0  0  0  0  0  0  0  0  0
    2.0846    2.8803    1.0424 H   0  0  0  0  0  0  0  0  0  0  0  0
    0.5920   -0.2154    1.5497 C   0  0  0  0  0  0  0  0  0  0  0  0
    1.7860   -0.4596    1.7183 O   0  0  0  0  0  0  0  0  0  0  0  0
   -0.2294    0.0669    2.5672 N   0  0  0  0  0  0  0  0  0  0  0  0
   -1.2130    0.1938    2.3518 H   0  0  0  0  0  0  0  0  0  0  0  0
    0.1836    0.1337    3.9673 C   0  0  0  0  0  0  0  0  0  0  0  0
    1.0451    0.7976    4.0666 H   0  0  0  0  0  0  0  0  0  0  0  0
   -0.6344    0.5115    4.5820 H   0  0  0  0  0  0  0  0  0  0  0  0
    0.4676   -0.8609    4.3157 H   0  0  0  0  0  0  0  0  0  0  0  0
  5  6  2  0  0  0  0
  5  7  1  0  0  0  0
  2  3  1  0  0  0  0
  2  4  1  0  0  0  0
  2  5  1  0  0  0  0
  1  2  1  0  0  0  0
 18 19  2  0  0  0  0
 18 20  1  0  0  0  0
 16 17  1  0  0  0  0
 14 15  2  0  0  0  0
 14 16  1  0  0  0  0
 11 12  1  0  0  0  0
 11 13  1  0  0  0  0
 11 14  1  0  0  0  0
  9 10  1  0  0  0  0
  9 11  1  0  0  0  0
  9 18  1  0  0  0  0
  7  8  1  0  0  0  0
  7  9  1  0  0  0  0
 22 23  1  0  0  0  0
 22 24  1  0  0  0  0
 22 25  1  0  0  0  0
 20 21  1  0  0  0  0
 20 22  1  0  0  0  0
M  END
$$$$
default_name
  -OEChem-02102213163D

 25 24  0     1  0  0  0  0  0999 V2000
   -2.7826   -3.8464    0.7821 H   0  0  0  0  0  0  0  0  0  0  0  0
   -2.8156   -2.8034    0.4711 C   0  0  0  0  0  0  0  0  0  0  0  0
   -3.4336   -2.2354    1.1641 H   0  0  0  0  0  0  0  0  0  0  0  0
   -3.2256   -2.7344   -0.5349 H   0  0  0  0  0  0  0  0  0  0  0  0
   -1.4126   -2.2444    0.4801 C   0  0  0  0  0  0  0  0  0  0  0  0
   -0.4686   -2.9534    0.8001 O   0  0  0  0  0  0  0  0  0  0  0  0
   -1.2736   -0.9704    0.1241 N   0  0  0  0  0  0  0  0  0  0  0  0
   -2.0996   -0.4354   -0.1019 H   0  0  0  0  0  0  0  0  0  0  0  0
   -0.0016   -0.2394    0.1271 C   0  0  1  0  0  0  0  0  0  0  0  0
    0.6995   -0.7619   -0.5275 H   0  0  0  0  0  0  0  0  0  0  0  0
   -0.2283    1.1832   -0.4215 C   0  0  0  0  0  0  0  0  0  0  0  0
    0.1748    1.2507   -1.4327 H   0  0  0  0  0  0  0  0  0  0  0  0
   -1.2977    1.3911   -0.4725 H   0  0  0  0  0  0  0  0  0  0  0  0
    0.4553    2.2684    0.4048 C   0  0  0  0  0  0  0  0  0  0  0  0
   -0.1058    3.0385    1.1732 O   0  0  0  0  0  0  0  0  0  0  0  0
    1.7879    2.3522    0.2348 O   0  0  0  0  0  0  0  0  0  0  0  0
    2.0838    3.0505    0.8196 H   0  0  0  0  0  0  0  0  0  0  0  0
    0.5920   -0.2154    1.5497 C   0  0  0  0  0  0  0  0  0  0  0  0
    1.7860   -0.4596    1.7183 O   0  0  0  0  0  0  0  0  0  0  0  0
   -0.2294    0.0669    2.5672 N   0  0  0  0  0  0  0  0  0  0  0  0
   -1.2130    0.1938    2.3518 H   0  0  0  0  0  0  0  0  0  0  0  0
    0.1836    0.1337    3.9673 C   0  0  0  0  0  0  0  0  0  0  0  0
    1.0451    0.7976    4.0666 H   0  0  0  0  0  0  0  0  0  0  0  0
   -0.6344    0.5115    4.5820 H   0  0  0  0  0  0  0  0  0  0  0  0
    0.4676   -0.8609    4.3157 H   0  0  0  0  0  0  0  0  0  0  0  0
  5  6  2  0  0  0  0
  5  7  1  0  0  0  0
  2  3  1  0  0  0  0
  2  4  1  0  0  0  0
  2  5  1  0  0  0  0
  1  2  1  0  0  0  0
 18 19  2  0  0  0  0
 18 20  1  0  0  0  0
 16 17  1  0  0  0  0
 14 15  2  0  0  0  0
 14 16  1  0  0  0  0
 11 12  1  0  0  0  0
 11 13  1  0  0  0  0
 11 14  1  0  0  0  0
  9 10  1  0  0  0  0
  9 11  1  0  0  0  0
  9 18  1  0  0  0  0
  7  8  1  0  0  0  0
  7  9  1  0  0  0  0
 22 23  1  0  0  0  0
 22 24  1  0  0  0  0
 22 25  1  0  0  0  0
 20 21  1  0  0  0  0
 20 22  1  0  0  0  0
M  END
$$$$
default_name
  -OEChem-02102213163D

 25 24  0     1  0  0  0  0  0999 V2000
   -2.7826   -3.8464    0.7821 H   0  0  0  0  0  0  0  0  0  0  0  0
   -2.8156   -2.8034    0.4711 C   0  0  0  0  0  0  0  0  0  0  0  0
   -3.4336   -2.2354    1.1641 H   0  0  0  0  0  0  0  0  0  0  0  0
   -3.2256   -2.7344   -0.5349 H   0  0  0  0  0  0  0  0  0  0  0  0
   -1.4126   -2.2444    0.4801 C   0  0  0  0  0  0  0  0  0  0  0  0
   -0.4686   -2.9534    0.8001 O   0  0  0  0  0  0  0  0  0  0  0  0
   -1.2736   -0.9704    0.1241 N   0  0  0  0  0  0  0  0  0  0  0  0
   -2.0996   -0.4354   -0.1019 H   0  0  0  0  0  0  0  0  0  0  0  0
   -0.0016   -0.2394    0.1271 C   0  0  1  0  0  0  0  0  0  0  0  0
    0.6995   -0.7619   -0.5275 H   0  0  0  0  0  0  0  0  0  0  0  0
   -0.2283    1.1832   -0.4215 C   0  0  0  0  0  0  0  0  0  0  0  0
    0.1748    1.2507   -1.4327 H   0  0  0  0  0  0  0  0  0  0  0  0
   -1.2977    1.3911   -0.4725 H   0  0  0  0  0  0  0  0  0  0  0  0
    0.4553    2.2684    0.4048 C   0  0  0  0  0  0  0  0  0  0  0  0
   -0.0424    2.8618    1.3527 O   0  0  0  0  0  0  0  0  0  0  0  0
    1.7081    2.5695    0.0153 O   0  0  0  0  0  0  0  0  0  0  0  0
    2.0181    3.2407    0.6242 H   0  0  0  0  0  0  0  0  0  0  0  0
    0.5920   -0.2154    1.5497 C   0  0  0  0  0  0  0  0  0  0  0  0
    1.7860   -0.4596    1.7183 O   0  0  0  0  0  0  0  0  0  0  0  0
   -0.2294    0.0669    2.5672 N   0  0  0  0  0  0  0  0  0  0  0  0
   -1.2130    0.1938    2.3518 H   0  0  0  0  0  0  0  0  0  0  0  0
    0.1836    0.1337    3.9673 C   0  0  0  0  0  0  0  0  0  0  0  0
    1.0451    0.7976    4.0666 H   0  0  0  0  0  0  0  0  0  0  0  0
   -0.6344    0.5115    4.5820 H   0  0  0  0  0  0  0  0  0  0  0  0
    0.4676   -0.8609    4.3157 H   0  0  0  0  0  0  0  0  0  0  0  0
  5  6  2  0  0  0  0
  5  7  1  0  0  0  0
  2  3  1  0  0  0  0
  2  4  1  0  0  0  0
  2  5  1  0  0  0  0
  1  2  1  0  0  0  0
 18 19  2  0  0  0  0
 18 20  1  0  0  0  0
 16 17  1  0  0  0  0
 14 15  2  0  0  0  0
 14 16  1  0  0  0  0
 11 12  1  0  0  0  0
 11 13  1  0  0  0  0
 11 14  1  0  0  0  0
  9 10  1  0  0  0  0
  9 11  1  0  0  0  0
  9 18  1  0  0  0  0
  7  8  1  0  0  0  0
  7  9  1  0  0  0  0
 22 23  1  0  0  0  0
 22 24  1  0  0  0  0
 22 25  1  0  0  0  0
 20 21  1  0  0  0  0
 20 22  1  0  0  0  0
M  END
$$$$
default_name
  -OEChem-02102213163D

 25 24  0     1  0  0  0  0  0999 V2000
   -2.7826   -3.8464    0.7821 H   0  0  0  0  0  0  0  0  0  0  0  0
   -2.8156   -2.8034    0.4711 C   0  0  0  0  0  0  0  0  0  0  0  0
   -3.4336   -2.2354    1.1641 H   0  0  0  0  0  0  0  0  0  0  0  0
   -3.2256   -2.7344   -0.5349 H   0  0  0  0  0  0  0  0  0  0  0  0
   -1.4126   -2.2444    0.4801 C   0  0  0  0  0  0  0  0  0  0  0  0
   -0.4686   -2.9534    0.8001 O   0  0  0  0  0  0  0  0  0  0  0  0
   -1.2736   -0.9704    0.1241 N   0  0  0  0  0  0  0  0  0  0  0  0
   -2.0996   -0.4354   -0.1019 H   0  0  0  0  0  0  0  0  0  0  0  0
   -0.0016   -0.2394    0.1271 C   0  0  1  0  0  0  0  0  0  0  0  0
    0.6995   -0.7619   -0.5275 H   0  0  0  0  0  0  0  0  0  0  0  0
   -0.2283    1.1832   -0.4215 C   0  0  0  0  0  0  0  0  0  0  0  0
    0.1748    1.2507   -1.4327 H   0  0  0  0  0  0  0  0  0  0  0  0
   -1.2977    1.3911   -0.4725 H   0  0  0  0  0  0  0  0  0  0  0  0
    0.4553    2.2684    0.4048 C   0  0  0  0  0  0  0  0  0  0  0  0
    0.0768    2.6792    1.4940 O   0  0  0  0  0  0  0  0  0  0  0  0
    1.5601    2.7937   -0.1567 O   0  0  0  0  0  0  0  0  0  0  0  0
    1.8919    3.4378    0.4697 H   0  0  0  0  0  0  0  0  0  0  0  0
    0.5920   -0.2154    1.5497 C   0  0  0  0  0  0  0  0  0  0  0  0
    1.7860   -0.4596    1.7183 O   0  0  0  0  0  0  0  0  0  0  0  0
   -0.2294    0.0669    2.5672 N   0  0  0  0  0  0  0  0  0  0  0  0
   -1.2130    0.1938    2.3518 H   0  0  0  0  0  0  0  0  0  0  0  0
    0.1836    0.1337    3.9673 C   0  0  0  0  0  0  0  0  0  0  0  0
    1.0451    0.7976    4.0666 H   0  0  0  0  0  0  0  0  0  0  0  0
   -0.6344    0.5115    4.5820 H   0  0  0  0  0  0  0  0  0  0  0  0
    0.4676   -0.8609    4.3157 H   0  0  0  0  0  0  0  0  0  0  0  0
  5  6  2  0  0  0  0
  5  7  1  0  0  0  0
  2  3  1  0  0  0  0
  2  4  1  0  0  0  0
  2  5  1  0  0  0  0
  1  2  1  0  0  0  0
 18 19  2  0  0  0  0
 18 20  1  0  0  0  0
 16 17  1  0  0  0  0
 14 15  2  0  0  0  0
 14 16  1  0  0  0  0
 11 12  1  0  0  0  0
 11 13  1  0  0  0  0
 11 14  1  0  0  0  0
  9 10  1  0  0  0  0
  9 11  1  0  0  0  0
  9 18  1  0  0  0  0
  7  8  1  0  0  0  0
  7  9  1  0  0  0  0
 22 23  1  0  0  0  0
 22 24  1  0  0  0  0
 22 25  1  0  0  0  0
 20 21  1  0  0  0  0
 20 22  1  0  0  0  0
M  END
$$$$
default_name
  -OEChem-02102213163D

 25 24  0     1  0  0  0  0  0999 V2000
   -2.7826   -3.8464    0.7821 H   0  0  0  0  0  0  0  0  0  0  0  0
   -2.8156   -2.8034    0.4711 C   0  0  0  0  0  0  0  0  0  0  0  0
   -3.4336   -2.2354    1.1641 H   0  0  0  0  0  0  0  0  0  0  0  0
   -3.2256   -2.7344   -0.5349 H   0  0  0  0  0  0  0  0  0  0  0  0
   -1.4126   -2.2444    0.4801 C   0  0  0  0  0  0  0  0  0  0  0  0
   -0.4686   -2.9534    0.8001 O   0  0  0  0  0  0  0  0  0  0  0  0
   -1.2736   -0.9704    0.1241 N   0  0  0  0  0  0  0  0  0  0  0  0
   -2.0996   -0.4354   -0.1019 H   0  0  0  0  0  0  0  0  0  0  0  0
   -0.0016   -0.2394    0.1271 C   0  0  1  0  0  0  0  0  0  0  0  0
    0.6995   -0.7619   -0.5275 H   0  0  0  0  0  0  0  0  0  0  0  0
   -0.2283    1.1832   -0.4215 C   0  0  0  0  0  0  0  0  0  0  0  0
    0.1748    1.2507   -1.4327 H   0  0  0  0  0  0  0  0  0  0  0  0
   -1.2977    1.3911   -0.4725 H   0  0  0  0  0  0  0  0  0  0  0  0
    0.4553    2.2684    0.4048 C   0  0  0  0  0  0  0  0  0  0  0  0
    0.2435    2.5031    1.5874 O   0  0  0  0  0  0  0  0  0  0  0  0
    1.3541    3.0095   -0.2696 O   0  0  0  0  0  0  0  0  0  0  0  0
    1.7141    3.6284    0.3664 H   0  0  0  0  0  0  0  0  0  0  0  0
    0.5920   -0.2154    1.5497 C   0  0  0  0  0  0  0  0  0  0  0  0
    1.7860   -0.4596    1.7183 O   0  0  0  0  0  0  0  0  0  0  0  0
   -0.2294    0.0669    2.5672 N   0  0  0  0  0  0  0  0  0  0  0  0
   -1.2130    0.1938    2.3518 H   0  0  0  0  0  0  0  0  0  0  0  0
    0.1836    0.1337    3.9673 C   0  0  0  0  0  0  0  0  0  0  0  0
    1.0451    0.7976    4.0666 H   0  0  0  0  0  0  0  0  0  0  0  0
   -0.6344    0.5115    4.5820 H   0  0  0  0  0  0  0  0  0  0  0  0
    0.4676   -0.8609    4.3157 H   0  0  0  0  0  0  0  0  0  0  0  0
  5  6  2  0  0  0  0
  5  7  1  0  0  0  0
  2  3  1  0  0  0  0
  2  4  1  0  0  0  0
  2  5  1  0  0  0  0
  1  2  1  0  0  0  0
 18 19  2  0  0  0  0
 18 20  1  0  0  0  0
 16 17  1  0  0  0  0
 14 15  2  0  0  0  0
 14 16  1  0  0  0  0
 11 12  1  0  0  0  0
 11 13  1  0  0  0  0
 11 14  1  0  0  0  0
  9 10  1  0  0  0  0
  9 11  1  0  0  0  0
  9 18  1  0  0  0  0
  7  8  1  0  0  0  0
  7  9  1  0  0  0  0
 22 23  1  0  0  0  0
 22 24  1  0  0  0  0
 22 25  1  0  0  0  0
 20 21  1  0  0  0  0
 20 22  1  0  0  0  0
M  END
$$$$
default_name
  -OEChem-02102213163D

 25 24  0     1  0  0  0  0  0999 V2000
   -2.7826   -3.8464    0.7821 H   0  0  0  0  0  0  0  0  0  0  0  0
   -2.8156   -2.8034    0.4711 C   0  0  0  0  0  0  0  0  0  0  0  0
   -3.4336   -2.2354    1.1641 H   0  0  0  0  0  0  0  0  0  0  0  0
   -3.2256   -2.7344   -0.5349 H   0  0  0  0  0  0  0  0  0  0  0  0
   -1.4126   -2.2444    0.4801 C   0  0  0  0  0  0  0  0  0  0  0  0
   -0.4686   -2.9534    0.8001 O   0  0  0  0  0  0  0  0  0  0  0  0
   -1.2736   -0.9704    0.1241 N   0  0  0  0  0  0  0  0  0  0  0  0
   -2.0996   -0.4354   -0.1019 H   0  0  0  0  0  0  0  0  0  0  0  0
   -0.0016   -0.2394    0.1271 C   0  0  1  0  0  0  0  0  0  0  0  0
    0.6995   -0.7619   -0.5275 H   0  0  0  0  0  0  0  0  0  0  0  0
   -0.2283    1.1832   -0.4215 C   0  0  0  0  0  0  0  0  0  0  0  0
    0.1748    1.2507   -1.4327 H   0  0  0  0  0  0  0  0  0  0  0  0
   -1.2977    1.3911   -0.4725 H   0  0  0  0  0  0  0  0  0  0  0  0
    0.4553    2.2684    0.4048 C   0  0  0  0  0  0  0  0  0  0  0  0
    0.4464    2.3456    1.6264 O   0  0  0  0  0  0  0  0  0  0  0  0
    1.1040    3.2021   -0.3157 O   0  0  0  0  0  0  0  0  0  0  0  0
    1.4965    3.7996    0.3216 H   0  0  0  0  0  0  0  0  0  0  0  0
    0.5920   -0.2154    1.5497 C   0  0  0  0  0  0  0  0  0  0  0  0
    1.7860   -0.4596    1.7183 O   0  0  0  0  0  0  0  0  0  0  0  0
   -0.2294    0.0669    2.5672 N   0  0  0  0  0  0  0  0  0  0  0  0
   -1.2130    0.1938    2.3518 H   0  0  0  0  0  0  0  0  0  0  0  0
    0.1836    0.1337    3.9673 C   0  0  0  0  0  0  0  0  0  0  0  0
    1.0451    0.7976    4.0666 H   0  0  0  0  0  0  0  0  0  0  0  0
   -0.6344    0.5115    4.5820 H   0  0  0  0  0  0  0  0  0  0  0  0
    0.4676   -0.8609    4.3157 H   0  0  0  0  0  0  0  0  0  0  0  0
  5  6  2  0  0  0  0
  5  7  1  0  0  0  0
  2  3  1  0  0  0  0
  2  4  1  0  0  0  0
  2  5  1  0  0  0  0
  1  2  1  0  0  0  0
 18 19  2  0  0  0  0
 18 20  1  0  0  0  0
 16 17  1  0  0  0  0
 14 15  2  0  0  0  0
 14 16  1  0  0  0  0
 11 12  1  0  0  0  0
 11 13  1  0  0  0  0
 11 14  1  0  0  0  0
  9 10  1  0  0  0  0
  9 11  1  0  0  0  0
  9 18  1  0  0  0  0
  7  8  1  0  0  0  0
  7  9  1  0  0  0  0
 22 23  1  0  0  0  0
 22 24  1  0  0  0  0
 22 25  1  0  0  0  0
 20 21  1  0  0  0  0
 20 22  1  0  0  0  0
M  END
$$$$
default_name
  -OEChem-02102213163D

 25 24  0     1  0  0  0  0  0999 V2000
   -2.7826   -3.8464    0.7821 H   0  0  0  0  0  0  0  0  0  0  0  0
   -2.8156   -2.8034    0.4711 C   0  0  0  0  0  0  0  0  0  0  0  0
   -3.4336   -2.2354    1.1641 H   0  0  0  0  0  0  0  0  0  0  0  0
   -3.2256   -2.7344   -0.5349 H   0  0  0  0  0  0  0  0  0  0  0  0
   -1.4126   -2.2444    0.4801 C   0  0  0  0  0  0  0  0  0  0  0  0
   -0.4686   -2.9534    0.8001 O   0  0  0  0  0  0  0  0  0  0  0  0
   -1.2736   -0.9704    0.1241 N   0  0  0  0  0  0  0  0  0  0  0  0
   -2.0996   -0.4354   -0.1019 H   0  0  0  0  0  0  0  0  0  0  0  0
   -0.0016   -0.2394    0.1271 C   0  0  1  0  0  0  0  0  0  0  0  0
    0.6995   -0.7619   -0.5275 H   0  0  0  0  0  0  0  0  0  0  0  0
   -0.2283    1.1832   -0.4215 C   0  0  0  0  0  0  0  0  0  0  0  0
    0.1748    1.2507   -1.4327 H   0  0  0  0  0  0  0  0  0  0  0  0
   -1.2977    1.3911   -0.4725 H   0  0  0  0  0  0  0  0  0  0  0  0
    0.4553    2.2684    0.4048 C   0  0  0  0  0  0  0  0  0  0  0  0
    0.6716    2.2173    1.6085 O   0  0  0  0  0  0  0  0  0  0  0  0
    0.8270    3.3585   -0.2919 O   0  0  0  0  0  0  0  0  0  0  0  0
    1.2541    3.9397    0.3382 H   0  0  0  0  0  0  0  0  0  0  0  0
    0.5920   -0.2154    1.5497 C   0  0  0  0  0  0  0  0  0  0  0  0
    1.7860   -0.4596    1.7183 O   0  0  0  0  0  0  0  0  0  0  0  0
   -0.2294    0.0669    2.5672 N   0  0  0  0  0  0  0  0  0  0  0  0
   -1.2130    0.1938    2.3518 H   0  0  0  0  0  0  0  0  0  0  0  0
    0.1836    0.1337    3.9673 C   0  0  0  0  0  0  0  0  0  0  0  0
    1.0451    0.7976    4.0666 H   0  0  0  0  0  0  0  0  0  0  0  0
   -0.6344    0.5115    4.5820 H   0  0  0  0  0  0  0  0  0  0  0  0
    0.4676   -0.8609    4.3157 H   0  0  0  0  0  0  0  0  0  0  0  0
  5  6  2  0  0  0  0
  5  7  1  0  0  0  0
  2  3  1  0  0  0  0
  2  4  1  0  0  0  0
  2  5  1  0  0  0  0
  1  2  1  0  0  0  0
 18 19  2  0  0  0  0
 18 20  1  0  0  0  0
 16 17  1  0  0  0  0
 14 15  2  0  0  0  0
 14 16  1  0  0  0  0
 11 12  1  0  0  0  0
 11 13  1  0  0  0  0
 11 14  1  0  0  0  0
  9 10  1  0  0  0  0
  9 11  1  0  0  0  0
  9 18  1  0  0  0  0
  7  8  1  0  0  0  0
  7  9  1  0  0  0  0
 22 23  1  0  0  0  0
 22 24  1  0  0  0  0
 22 25  1  0  0  0  0
 20 21  1  0  0  0  0
 20 22  1  0  0  0  0
M  END
$$$$
default_name
  -OEChem-02102213163D

 25 24  0     1  0  0  0  0  0999 V2000
   -2.7826   -3.8464    0.7821 H   0  0  0  0  0  0  0  0  0  0  0  0
   -2.8156   -2.8034    0.4711 C   0  0  0  0  0  0  0  0  0  0  0  0
   -3.4336   -2.2354    1.1641 H   0  0  0  0  0  0  0  0  0  0  0  0
   -3.2256   -2.7344   -0.5349 H   0  0  0  0  0  0  0  0  0  0  0  0
   -1.4126   -2.2444    0.4801 C   0  0  0  0  0  0  0  0  0  0  0  0
   -0.4686   -2.9534    0.8001 O   0  0  0  0  0  0  0  0  0  0  0  0
   -1.2736   -0.9704    0.1241 N   0  0  0  0  0  0  0  0  0  0  0  0
   -2.0996   -0.4354   -0.1019 H   0  0  0  0  0  0  0  0  0  0  0  0
   -0.0016   -0.2394    0.1271 C   0  0  1  0  0  0  0  0  0  0  0  0
    0.6995   -0.7619   -0.5275 H   0  0  0  0  0  0  0  0  0  0  0  0
   -0.2283    1.1832   -0.4215 C   0  0  0  0  0  0  0  0  0  0  0  0
    0.1748    1.2507   -1.4327 H   0  0  0  0  0  0  0  0  0  0  0  0
   -1.2977    1.3911   -0.4725 H   0  0  0  0  0  0  0  0  0  0  0  0
    0.4553    2.2684    0.4048 C   0  0  0  0  0  0  0  0  0  0  0  0
    0.9039    2.1271    1.5349 O   0  0  0  0  0  0  0  0  0  0  0  0
    0.5418    3.4679   -0.1998 O   0  0  0  0  0  0  0  0  0  0  0  0
    1.0034    4.0390    0.4151 H   0  0  0  0  0  0  0  0  0  0  0  0
    0.5920   -0.2154    1.5497 C   0  0  0  0  0  0  0  0  0  0  0  0
    1.7860   -0.4596    1.7183 O   0  0  0  0  0  0  0  0  0  0  0  0
   -0.2294    0.0669    2.5672 N   0  0  0  0  0  0  0  0  0  0  0  0
   -1.2130    0.1938    2.3518 H   0  0  0  0  0  0  0  0  0  0  0  0
    0.1836    0.1337    3.9673 C   0  0  0  0  0  0  0  0  0  0  0  0
    1.0451    0.7976    4.0666 H   0  0  0  0  0  0  0  0  0  0  0  0
   -0.6344    0.5115    4.5820 H   0  0  0  0  0  0  0  0  0  0  0  0
    0.4676   -0.8609    4.3157 H   0  0  0  0  0  0  0  0  0  0  0  0
  5  6  2  0  0  0  0
  5  7  1  0  0  0  0
  2  3  1  0  0  0  0
  2  4  1  0  0  0  0
  2  5  1  0  0  0  0
  1  2  1  0  0  0  0
 18 19  2  0  0  0  0
 18 20  1  0  0  0  0
 16 17  1  0  0  0  0
 14 15  2  0  0  0  0
 14 16  1  0  0  0  0
 11 12  1  0  0  0  0
 11 13  1  0  0  0  0
 11 14  1  0  0  0  0
  9 10  1  0  0  0  0
  9 11  1  0  0  0  0
  9 18  1  0  0  0  0
  7  8  1  0  0  0  0
  7  9  1  0  0  0  0
 22 23  1  0  0  0  0
 22 24  1  0  0  0  0
 22 25  1  0  0  0  0
 20 21  1  0  0  0  0
 20 22  1  0  0  0  0
M  END
$$$$
default_name
  -OEChem-02102213163D

 25 24  0     1  0  0  0  0  0999 V2000
   -2.7826   -3.8464    0.7821 H   0  0  0  0  0  0  0  0  0  0  0  0
   -2.8156   -2.8034    0.4711 C   0  0  0  0  0  0  0  0  0  0  0  0
   -3.4336   -2.2354    1.1641 H   0  0  0  0  0  0  0  0  0  0  0  0
   -3.2256   -2.7344   -0.5349 H   0  0  0  0  0  0  0  0  0  0  0  0
   -1.4126   -2.2444    0.4801 C   0  0  0  0  0  0  0  0  0  0  0  0
   -0.4686   -2.9534    0.8001 O   0  0  0  0  0  0  0  0  0  0  0  0
   -1.2736   -0.9704    0.1241 N   0  0  0  0  0  0  0  0  0  0  0  0
   -2.0996   -0.4354   -0.1019 H   0  0  0  0  0  0  0  0  0  0  0  0
   -0.0016   -0.2394    0.1271 C   0  0  1  0  0  0  0  0  0  0  0  0
    0.6995   -0.7619   -0.5275 H   0  0  0  0  0  0  0  0  0  0  0  0
   -0.2283    1.1832   -0.4215 C   0  0  0  0  0  0  0  0  0  0  0  0
    0.1748    1.2507   -1.4327 H   0  0  0  0  0  0  0  0  0  0  0  0
   -1.2977    1.3911   -0.4725 H   0  0  0  0  0  0  0  0  0  0  0  0
    0.4553    2.2684    0.4048 C   0  0  0  0  0  0  0  0  0  0  0  0
    1.1273    2.0810    1.4106 O   0  0  0  0  0  0  0  0  0  0  0  0
    0.2680    3.5230   -0.0456 O   0  0  0  0  0  0  0  0  0  0  0  0
    0.7614    4.0910    0.5470 H   0  0  0  0  0  0  0  0  0  0  0  0
    0.5920   -0.2154    1.5497 C   0  0  0  0  0  0  0  0  0  0  0  0
    1.7860   -0.4596    1.7183 O   0  0  0  0  0  0  0  0  0  0  0  0
   -0.2294    0.0669    2.5672 N   0  0  0  0  0  0  0  0  0  0  0  0
   -1.2130    0.1938    2.3518 H   0  0  0  0  0  0  0  0  0  0  0  0
    0.1836    0.1337    3.9673 C   0  0  0  0  0  0  0  0  0  0  0  0
    1.0451    0.7976    4.0666 H   0  0  0  0  0  0  0  0  0  0  0  0
   -0.6344    0.5115    4.5820 H   0  0  0  0  0  0  0  0  0  0  0  0
    0.4676   -0.8609    4.3157 H   0  0  0  0  0  0  0  0  0  0  0  0
  5  6  2  0  0  0  0
  5  7  1  0  0  0  0
  2  3  1  0  0  0  0
  2  4  1  0  0  0  0
  2  5  1  0  0  0  0
  1  2  1  0  0  0  0
 18 19  2  0  0  0  0
 18 20  1  0  0  0  0
 16 17  1  0  0  0  0
 14 15  2  0  0  0  0
 14 16  1  0  0  0  0
 11 12  1  0  0  0  0
 11 13  1  0  0  0  0
 11 14  1  0  0  0  0
  9 10  1  0  0  0  0
  9 11  1  0  0  0  0
  9 18  1  0  0  0  0
  7  8  1  0  0  0  0
  7  9  1  0  0  0  0
 22 23  1  0  0  0  0
 22 24  1  0  0  0  0
 22 25  1  0  0  0  0
 20 21  1  0  0  0  0
 20 22  1  0  0  0  0
M  END
$$$$
default_name
  -OEChem-02102213163D

 25 24  0     1  0  0  0  0  0999 V2000
   -2.7826   -3.8464    0.7821 H   0  0  0  0  0  0  0  0  0  0  0  0
   -2.8156   -2.8034    0.4711 C   0  0  0  0  0  0  0  0  0  0  0  0
   -3.4336   -2.2354    1.1641 H   0  0  0  0  0  0  0  0  0  0  0  0
   -3.2256   -2.7344   -0.5349 H   0  0  0  0  0  0  0  0  0  0  0  0
   -1.4126   -2.2444    0.4801 C   0  0  0  0  0  0  0  0  0  0  0  0
   -0.4686   -2.9534    0.8001 O   0  0  0  0  0  0  0  0  0  0  0  0
   -1.2736   -0.9704    0.1241 N   0  0  0  0  0  0  0  0  0  0  0  0
   -2.0996   -0.4354   -0.1019 H   0  0  0  0  0  0  0  0  0  0  0  0
   -0.0016   -0.2394    0.1271 C   0  0  1  0  0  0  0  0  0  0  0  0
    0.6995   -0.7619   -0.5275 H   0  0  0  0  0  0  0  0  0  0  0  0
   -0.2283    1.1832   -0.4215 C   0  0  0  0  0  0  0  0  0  0  0  0
    0.1748    1.2507   -1.4327 H   0  0  0  0  0  0  0  0  0  0  0  0
   -1.2977    1.3911   -0.4725 H   0  0  0  0  0  0  0  0  0  0  0  0
    0.4553    2.2684    0.4048 C   0  0  0  0  0  0  0  0  0  0  0  0
    1.3267    2.0823    1.2440 O   0  0  0  0  0  0  0  0  0  0  0  0
    0.0242    3.5199    0.1601 O   0  0  0  0  0  0  0  0  0  0  0  0
    0.5448    4.0919    0.7250 H   0  0  0  0  0  0  0  0  0  0  0  0
    0.5920   -0.2154    1.5497 C   0  0  0  0  0  0  0  0  0  0  0  0
    1.7860   -0.4596    1.7183 O   0  0  0  0  0  0  0  0  0  0  0  0
   -0.2294    0.0669    2.5672 N   0  0  0  0  0  0  0  0  0  0  0  0
   -1.2130    0.1938    2.3518 H   0  0  0  0  0  0  0  0  0  0  0  0
    0.1836    0.1337    3.9673 C   0  0  0  0  0  0  0  0  0  0  0  0
    1.0451    0.7976    4.0666 H   0  0  0  0  0  0  0  0  0  0  0  0
   -0.6344    0.5115    4.5820 H   0  0  0  0  0  0  0  0  0  0  0  0
    0.4676   -0.8609    4.3157 H   0  0  0  0  0  0  0  0  0  0  0  0
  5  6  2  0  0  0  0
  5  7  1  0  0  0  0
  2  3  1  0  0  0  0
  2  4  1  0  0  0  0
  2  5  1  0  0  0  0
  1  2  1  0  0  0  0
 18 19  2  0  0  0  0
 18 20  1  0  0  0  0
 16 17  1  0  0  0  0
 14 15  2  0  0  0  0
 14 16  1  0  0  0  0
 11 12  1  0  0  0  0
 11 13  1  0  0  0  0
 11 14  1  0  0  0  0
  9 10  1  0  0  0  0
  9 11  1  0  0  0  0
  9 18  1  0  0  0  0
  7  8  1  0  0  0  0
  7  9  1  0  0  0  0
 22 23  1  0  0  0  0
 22 24  1  0  0  0  0
 22 25  1  0  0  0  0
 20 21  1  0  0  0  0
 20 22  1  0  0  0  0
M  END
$$$$
default_name
  -OEChem-02102213163D

 25 24  0     1  0  0  0  0  0999 V2000
   -2.7826   -3.8464    0.7821 H   0  0  0  0  0  0  0  0  0  0  0  0
   -2.8156   -2.8034    0.4711 C   0  0  0  0  0  0  0  0  0  0  0  0
   -3.4336   -2.2354    1.1641 H   0  0  0  0  0  0  0  0  0  0  0  0
   -3.2256   -2.7344   -0.5349 H   0  0  0  0  0  0  0  0  0  0  0  0
   -1.4126   -2.2444    0.4801 C   0  0  0  0  0  0  0  0  0  0  0  0
   -0.4686   -2.9534    0.8001 O   0  0  0  0  0  0  0  0  0  0  0  0
   -1.2736   -0.9704    0.1241 N   0  0  0  0  0  0  0  0  0  0  0  0
   -2.0996   -0.4354   -0.1019 H   0  0  0  0  0  0  0  0  0  0  0  0
   -0.0016   -0.2394    0.1271 C   0  0  1  0  0  0  0  0  0  0  0  0
    0.6995   -0.7619   -0.5275 H   0  0  0  0  0  0  0  0  0  0  0  0
   -0.2283    1.1832   -0.4215 C   0  0  0  0  0  0  0  0  0  0  0  0
    0.1748    1.2507   -1.4327 H   0  0  0  0  0  0  0  0  0  0  0  0
   -1.2977    1.3911   -0.4725 H   0  0  0  0  0  0  0  0  0  0  0  0
    0.4553    2.2684    0.4048 C   0  0  0  0  0  0  0  0  0  0  0  0
    1.4885    2.1307    1.0465 O   0  0  0  0  0  0  0  0  0  0  0  0
   -0.1729    3.4589    0.4033 O   0  0  0  0  0  0  0  0  0  0  0  0
    0.3681    4.0418    0.9369 H   0  0  0  0  0  0  0  0  0  0  0  0
    0.5920   -0.2154    1.5497 C   0  0  0  0  0  0  0  0  0  0  0  0
    1.7860   -0.4596    1.7183 O   0  0  0  0  0  0  0  0  0  0  0  0
   -0.2294    0.0669    2.5672 N   0  0  0  0  0  0  0  0  0  0  0  0
   -1.2130    0.1938    2.3518 H   0  0  0  0  0  0  0  0  0  0  0  0
    0.1836    0.1337    3.9673 C   0  0  0  0  0  0  0  0  0  0  0  0
    1.0451    0.7976    4.0666 H   0  0  0  0  0  0  0  0  0  0  0  0
   -0.6344    0.5115    4.5820 H   0  0  0  0  0  0  0  0  0  0  0  0
    0.4676   -0.8609    4.3157 H   0  0  0  0  0  0  0  0  0  0  0  0
  5  6  2  0  0  0  0
  5  7  1  0  0  0  0
  2  3  1  0  0  0  0
  2  4  1  0  0  0  0
  2  5  1  0  0  0  0
  1  2  1  0  0  0  0
 18 19  2  0  0  0  0
 18 20  1  0  0  0  0
 16 17  1  0  0  0  0
 14 15  2  0  0  0  0
 14 16  1  0  0  0  0
 11 12  1  0  0  0  0
 11 13  1  0  0  0  0
 11 14  1  0  0  0  0
  9 10  1  0  0  0  0
  9 11  1  0  0  0  0
  9 18  1  0  0  0  0
  7  8  1  0  0  0  0
  7  9  1  0  0  0  0
 22 23  1  0  0  0  0
 22 24  1  0  0  0  0
 22 25  1  0  0  0  0
 20 21  1  0  0  0  0
 20 22  1  0  0  0  0
M  END
$$$$
default_name
  -OEChem-02102213163D

 25 24  0     1  0  0  0  0  0999 V2000
   -2.7826   -3.8464    0.7821 H   0  0  0  0  0  0  0  0  0  0  0  0
   -2.8156   -2.8034    0.4711 C   0  0  0  0  0  0  0  0  0  0  0  0
   -3.4336   -2.2354    1.1641 H   0  0  0  0  0  0  0  0  0  0  0  0
   -3.2256   -2.7344   -0.5349 H   0  0  0  0  0  0  0  0  0  0  0  0
   -1.4126   -2.2444    0.4801 C   0  0  0  0  0  0  0  0  0  0  0  0
   -0.4686   -2.9534    0.8001 O   0  0  0  0  0  0  0  0  0  0  0  0
   -1.2736   -0.9704    0.1241 N   0  0  0  0  0  0  0  0  0  0  0  0
   -2.0996   -0.4354   -0.1019 H   0  0  0  0  0  0  0  0  0  0  0  0
   -0.0016   -0.2394    0.1271 C   0  0  1  0  0  0  0  0  0  0  0  0
    0.6995   -0.7619   -0.5275 H   0  0  0  0  0  0  0  0  0  0  0  0
   -0.2283    1.1832   -0.4215 C   0  0  0  0  0  0  0  0  0  0  0  0
    0.1748    1.2507   -1.4327 H   0  0  0  0  0  0  0  0  0  0  0  0
   -1.2977    1.3911   -0.4725 H   0  0  0  0  0  0  0  0  0  0  0  0
    0.4553    2.2684    0.4048 C   0  0  0  0  0  0  0  0  0  0  0  0
    1.6016    2.2231    0.8316 O   0  0  0  0  0  0  0  0  0  0  0  0
   -0.3101    3.3441    0.6675 O   0  0  0  0  0  0  0  0  0  0  0  0
    0.2435    3.9441    1.1684 H   0  0  0  0  0  0  0  0  0  0  0  0
    0.5920   -0.2154    1.5497 C   0  0  0  0  0  0  0  0  0  0  0  0
    1.7860   -0.4596    1.7183 O   0  0  0  0  0  0  0  0  0  0  0  0
   -0.2294    0.0669    2.5672 N   0  0  0  0  0  0  0  0  0  0  0  0
   -1.2130    0.1938    2.3518 H   0  0  0  0  0  0  0  0  0  0  0  0
    0.1836    0.1337    3.9673 C   0  0  0  0  0  0  0  0  0  0  0  0
    1.0451    0.7976    4.0666 H   0  0  0  0  0  0  0  0  0  0  0  0
   -0.6344    0.5115    4.5820 H   0  0  0  0  0  0  0  0  0  0  0  0
    0.4676   -0.8609    4.3157 H   0  0  0  0  0  0  0  0  0  0  0  0
  5  6  2  0  0  0  0
  5  7  1  0  0  0  0
  2  3  1  0  0  0  0
  2  4  1  0  0  0  0
  2  5  1  0  0  0  0
  1  2  1  0  0  0  0
 18 19  2  0  0  0  0
 18 20  1  0  0  0  0
 16 17  1  0  0  0  0
 14 15  2  0  0  0  0
 14 16  1  0  0  0  0
 11 12  1  0  0  0  0
 11 13  1  0  0  0  0
 11 14  1  0  0  0  0
  9 10  1  0  0  0  0
  9 11  1  0  0  0  0
  9 18  1  0  0  0  0
  7  8  1  0  0  0  0
  7  9  1  0  0  0  0
 22 23  1  0  0  0  0
 22 24  1  0  0  0  0
 22 25  1  0  0  0  0
 20 21  1  0  0  0  0
 20 22  1  0  0  0  0
M  END
$$$$
default_name
  -OEChem-02102213163D

 25 24  0     1  0  0  0  0  0999 V2000
   -2.7826   -3.8464    0.7821 H   0  0  0  0  0  0  0  0  0  0  0  0
   -2.8156   -2.8034    0.4711 C   0  0  0  0  0  0  0  0  0  0  0  0
   -3.4336   -2.2354    1.1641 H   0  0  0  0  0  0  0  0  0  0  0  0
   -3.2256   -2.7344   -0.5349 H   0  0  0  0  0  0  0  0  0  0  0  0
   -1.4126   -2.2444    0.4801 C   0  0  0  0  0  0  0  0  0  0  0  0
   -0.4686   -2.9534    0.8001 O   0  0  0  0  0  0  0  0  0  0  0  0
   -1.2736   -0.9704    0.1241 N   0  0  0  0  0  0  0  0  0  0  0  0
   -2.0996   -0.4354   -0.1019 H   0  0  0  0  0  0  0  0  0  0  0  0
   -0.0016   -0.2394    0.1271 C   0  0  1  0  0  0  0  0  0  0  0  0
    0.6995   -0.7619   -0.5275 H   0  0  0  0  0  0  0  0  0  0  0  0
   -0.2283    1.1832   -0.4215 C   0  0  0  0  0  0  0  0  0  0  0  0
    0.1748    1.2507   -1.4327 H   0  0  0  0  0  0  0  0  0  0  0  0
   -1.2977    1.3911   -0.4725 H   0  0  0  0  0  0  0  0  0  0  0  0
    0.4553    2.2684    0.4048 C   0  0  0  0  0  0  0  0  0  0  0  0
    1.6583    2.3531    0.6140 O   0  0  0  0  0  0  0  0  0  0  0  0
   -0.3778    3.1834    0.9346 O   0  0  0  0  0  0  0  0  0  0  0  0
    0.1794    3.8054    1.4035 H   0  0  0  0  0  0  0  0  0  0  0  0
    0.5920   -0.2154    1.5497 C   0  0  0  0  0  0  0  0  0  0  0  0
    1.7860   -0.4596    1.7183 O   0  0  0  0  0  0  0  0  0  0  0  0
   -0.2294    0.0669    2.5672 N   0  0  0  0  0  0  0  0  0  0  0  0
   -1.2130    0.1938    2.3518 H   0  0  0  0  0  0  0  0  0  0  0  0
    0.1836    0.1337    3.9673 C   0  0  0  0  0  0  0  0  0  0  0  0
    1.0451    0.7976    4.0666 H   0  0  0  0  0  0  0  0  0  0  0  0
   -0.6344    0.5115    4.5820 H   0  0  0  0  0  0  0  0  0  0  0  0
    0.4676   -0.8609    4.3157 H   0  0  0  0  0  0  0  0  0  0  0  0
  5  6  2  0  0  0  0
  5  7  1  0  0  0  0
  2  3  1  0  0  0  0
  2  4  1  0  0  0  0
  2  5  1  0  0  0  0
  1  2  1  0  0  0  0
 18 19  2  0  0  0  0
 18 20  1  0  0  0  0
 16 17  1  0  0  0  0
 14 15  2  0  0  0  0
 14 16  1  0  0  0  0
 11 12  1  0  0  0  0
 11 13  1  0  0  0  0
 11 14  1  0  0  0  0
  9 10  1  0  0  0  0
  9 11  1  0  0  0  0
  9 18  1  0  0  0  0
  7  8  1  0  0  0  0
  7  9  1  0  0  0  0
 22 23  1  0  0  0  0
 22 24  1  0  0  0  0
 22 25  1  0  0  0  0
 20 21  1  0  0  0  0
 20 22  1  0  0  0  0
M  END
$$$$
default_name
  -OEChem-02102213163D

 25 24  0     1  0  0  0  0  0999 V2000
   -2.7826   -3.8464    0.7821 H   0  0  0  0  0  0  0  0  0  0  0  0
   -2.8156   -2.8034    0.4711 C   0  0  0  0  0  0  0  0  0  0  0  0
   -3.4336   -2.2354    1.1641 H   0  0  0  0  0  0  0  0  0  0  0  0
   -3.2256   -2.7344   -0.5349 H   0  0  0  0  0  0  0  0  0  0  0  0
   -1.4126   -2.2444    0.4801 C   0  0  0  0  0  0  0  0  0  0  0  0
   -0.4686   -2.9534    0.8001 O   0  0  0  0  0  0  0  0  0  0  0  0
   -1.2736   -0.9704    0.1241 N   0  0  0  0  0  0  0  0  0  0  0  0
   -2.0996   -0.4354   -0.1019 H   0  0  0  0  0  0  0  0  0  0  0  0
   -0.0016   -0.2394    0.1271 C   0  0  1  0  0  0  0  0  0  0  0  0
    0.6995   -0.7619   -0.5275 H   0  0  0  0  0  0  0  0  0  0  0  0
   -0.2283    1.1832   -0.4215 C   0  0  0  0  0  0  0  0  0  0  0  0
    0.1748    1.2507   -1.4327 H   0  0  0  0  0  0  0  0  0  0  0  0
   -1.2977    1.3911   -0.4725 H   0  0  0  0  0  0  0  0  0  0  0  0
    0.4553    2.2684    0.4048 C   0  0  0  0  0  0  0  0  0  0  0  0
    1.6548    2.5119    0.4083 O   0  0  0  0  0  0  0  0  0  0  0  0
   -0.3716    2.9877    1.1864 O   0  0  0  0  0  0  0  0  0  0  0  0
    0.1803    3.6351    1.6264 H   0  0  0  0  0  0  0  0  0  0  0  0
    0.5920   -0.2154    1.5497 C   0  0  0  0  0  0  0  0  0  0  0  0
    1.7860   -0.4596    1.7183 O   0  0  0  0  0  0  0  0  0  0  0  0
   -0.2294    0.0669    2.5672 N   0  0  0  0  0  0  0  0  0  0  0  0
   -1.2130    0.1938    2.3518 H   0  0  0  0  0  0  0  0  0  0  0  0
    0.1836    0.1337    3.9673 C   0  0  0  0  0  0  0  0  0  0  0  0
    1.0451    0.7976    4.0666 H   0  0  0  0  0  0  0  0  0  0  0  0
   -0.6344    0.5115    4.5820 H   0  0  0  0  0  0  0  0  0  0  0  0
    0.4676   -0.8609    4.3157 H   0  0  0  0  0  0  0  0  0  0  0  0
  5  6  2  0  0  0  0
  5  7  1  0  0  0  0
  2  3  1  0  0  0  0
  2  4  1  0  0  0  0
  2  5  1  0  0  0  0
  1  2  1  0  0  0  0
 18 19  2  0  0  0  0
 18 20  1  0  0  0  0
 16 17  1  0  0  0  0
 14 15  2  0  0  0  0
 14 16  1  0  0  0  0
 11 12  1  0  0  0  0
 11 13  1  0  0  0  0
 11 14  1  0  0  0  0
  9 10  1  0  0  0  0
  9 11  1  0  0  0  0
  9 18  1  0  0  0  0
  7  8  1  0  0  0  0
  7  9  1  0  0  0  0
 22 23  1  0  0  0  0
 22 24  1  0  0  0  0
 22 25  1  0  0  0  0
 20 21  1  0  0  0  0
 20 22  1  0  0  0  0
M  END
$$$$
default_name
  -OEChem-02102213163D

 25 24  0     1  0  0  0  0  0999 V2000
   -2.7826   -3.8464    0.7821 H   0  0  0  0  0  0  0  0  0  0  0  0
   -2.8156   -2.8034    0.4711 C   0  0  0  0  0  0  0  0  0  0  0  0
   -3.4336   -2.2354    1.1641 H   0  0  0  0  0  0  0  0  0  0  0  0
   -3.2256   -2.7344   -0.5349 H   0  0  0  0  0  0  0  0  0  0  0  0
   -1.4126   -2.2444    0.4801 C   0  0  0  0  0  0  0  0  0  0  0  0
   -0.4686   -2.9534    0.8001 O   0  0  0  0  0  0  0  0  0  0  0  0
   -1.2736   -0.9704    0.1241 N   0  0  0  0  0  0  0  0  0  0  0  0
   -2.0996   -0.4354   -0.1019 H   0  0  0  0  0  0  0  0  0  0  0  0
   -0.0016   -0.2394    0.1271 C   0  0  1  0  0  0  0  0  0  0  0  0
    0.6995   -0.7619   -0.5275 H   0  0  0  0  0  0  0  0  0  0  0  0
   -0.2283    1.1832   -0.4215 C   0  0  0  0  0  0  0  0  0  0  0  0
    0.1748    1.2507   -1.4327 H   0  0  0  0  0  0  0  0  0  0  0  0
   -1.2977    1.3911   -0.4725 H   0  0  0  0  0  0  0  0  0  0  0  0
    0.4553    2.2684    0.4048 C   0  0  0  0  0  0  0  0  0  0  0  0
    1.5913    2.6886    0.2288 O   0  0  0  0  0  0  0  0  0  0  0  0
   -0.2917    2.7703    1.4059 O   0  0  0  0  0  0  0  0  0  0  0  0
    0.2460    3.4450    1.8218 H   0  0  0  0  0  0  0  0  0  0  0  0
    0.5920   -0.2154    1.5497 C   0  0  0  0  0  0  0  0  0  0  0  0
    1.7860   -0.4596    1.7183 O   0  0  0  0  0  0  0  0  0  0  0  0
   -0.2294    0.0669    2.5672 N   0  0  0  0  0  0  0  0  0  0  0  0
   -1.2130    0.1938    2.3518 H   0  0  0  0  0  0  0  0  0  0  0  0
    0.1836    0.1337    3.9673 C   0  0  0  0  0  0  0  0  0  0  0  0
    1.0451    0.7976    4.0666 H   0  0  0  0  0  0  0  0  0  0  0  0
   -0.6344    0.5115    4.5820 H   0  0  0  0  0  0  0  0  0  0  0  0
    0.4676   -0.8609    4.3157 H   0  0  0  0  0  0  0  0  0  0  0  0
  5  6  2  0  0  0  0
  5  7  1  0  0  0  0
  2  3  1  0  0  0  0
  2  4  1  0  0  0  0
  2  5  1  0  0  0  0
  1  2  1  0  0  0  0
 18 19  2  0  0  0  0
 18 20  1  0  0  0  0
 16 17  1  0  0  0  0
 14 15  2  0  0  0  0
 14 16  1  0  0  0  0
 11 12  1  0  0  0  0
 11 13  1  0  0  0  0
 11 14  1  0  0  0  0
  9 10  1  0  0  0  0
  9 11  1  0  0  0  0
  9 18  1  0  0  0  0
  7  8  1  0  0  0  0
  7  9  1  0  0  0  0
 22 23  1  0  0  0  0
 22 24  1  0  0  0  0
 22 25  1  0  0  0  0
 20 21  1  0  0  0  0
 20 22  1  0  0  0  0
M  END
$$$$
default_name
  -OEChem-02102213163D

 25 24  0     1  0  0  0  0  0999 V2000
   -2.7826   -3.8464    0.7821 H   0  0  0  0  0  0  0  0  0  0  0  0
   -2.8156   -2.8034    0.4711 C   0  0  0  0  0  0  0  0  0  0  0  0
   -3.4336   -2.2354    1.1641 H   0  0  0  0  0  0  0  0  0  0  0  0
   -3.2256   -2.7344   -0.5349 H   0  0  0  0  0  0  0  0  0  0  0  0
   -1.4126   -2.2444    0.4801 C   0  0  0  0  0  0  0  0  0  0  0  0
   -0.4686   -2.9534    0.8001 O   0  0  0  0  0  0  0  0  0  0  0  0
   -1.2736   -0.9704    0.1241 N   0  0  0  0  0  0  0  0  0  0  0  0
   -2.0996   -0.4354   -0.1019 H   0  0  0  0  0  0  0  0  0  0  0  0
   -0.0016   -0.2394    0.1271 C   0  0  1  0  0  0  0  0  0  0  0  0
    0.6995   -0.7619   -0.5275 H   0  0  0  0  0  0  0  0  0  0  0  0
   -0.2283    1.1832   -0.4215 C   0  0  0  0  0  0  0  0  0  0  0  0
    0.1748    1.2507   -1.4327 H   0  0  0  0  0  0  0  0  0  0  0  0
   -1.2977    1.3911   -0.4725 H   0  0  0  0  0  0  0  0  0  0  0  0
    0.4553    2.2684    0.4048 C   0  0  0  0  0  0  0  0  0  0  0  0
    1.4722    2.8713    0.0875 O   0  0  0  0  0  0  0  0  0  0  0  0
   -0.1437    2.5461    1.5779 O   0  0  0  0  0  0  0  0  0  0  0  0
    0.3721    3.2478    1.9763 H   0  0  0  0  0  0  0  0  0  0  0  0
    0.5920   -0.2154    1.5497 C   0  0  0  0  0  0  0  0  0  0  0  0
    1.7860   -0.4596    1.7183 O   0  0  0  0  0  0  0  0  0  0  0  0
   -0.2294    0.0669    2.5672 N   0  0  0  0  0  0  0  0  0  0  0  0
   -1.2130    0.1938    2.3518 H   0  0  0  0  0  0  0  0  0  0  0  0
    0.1836    0.1337    3.9673 C   0  0  0  0  0  0  0  0  0  0  0  0
    1.0451    0.7976    4.0666 H   0  0  0  0  0  0  0  0  0  0  0  0
   -0.6344    0.5115    4.5820 H   0  0  0  0  0  0  0  0  0  0  0  0
    0.4676   -0.8609    4.3157 H   0  0  0  0  0  0  0  0  0  0  0  0
  5  6  2  0  0  0  0
  5  7  1  0  0  0  0
  2  3  1  0  0  0  0
  2  4  1  0  0  0  0
  2  5  1  0  0  0  0
  1  2  1  0  0  0  0
 18 19  2  0  0  0  0
 18 20  1  0  0  0  0
 16 17  1  0  0  0  0
 14 15  2  0  0  0  0
 14 16  1  0  0  0  0
 11 12  1  0  0  0  0
 11 13  1  0  0  0  0
 11 14  1  0  0  0  0
  9 10  1  0  0  0  0
  9 11  1  0  0  0  0
  9 18  1  0  0  0  0
  7  8  1  0  0  0  0
  7  9  1  0  0  0  0
 22 23  1  0  0  0  0
 22 24  1  0  0  0  0
 22 25  1  0  0  0  0
 20 21  1  0  0  0  0
 20 22  1  0  0  0  0
M  END
$$$$
default_name
  -OEChem-02102213163D

 25 24  0     1  0  0  0  0  0999 V2000
   -2.7826   -3.8464    0.7821 H   0  0  0  0  0  0  0  0  0  0  0  0
   -2.8156   -2.8034    0.4711 C   0  0  0  0  0  0  0  0  0  0  0  0
   -3.4336   -2.2354    1.1641 H   0  0  0  0  0  0  0  0  0  0  0  0
   -3.2256   -2.7344   -0.5349 H   0  0  0  0  0  0  0  0  0  0  0  0
   -1.4126   -2.2444    0.4801 C   0  0  0  0  0  0  0  0  0  0  0  0
   -0.4686   -2.9534    0.8001 O   0  0  0  0  0  0  0  0  0  0  0  0
   -1.2736   -0.9704    0.1241 N   0  0  0  0  0  0  0  0  0  0  0  0
   -2.0996   -0.4354   -0.1019 H   0  0  0  0  0  0  0  0  0  0  0  0
   -0.0016   -0.2394    0.1271 C   0  0  1  0  0  0  0  0  0  0  0  0
    0.6995   -0.7619   -0.5275 H   0  0  0  0  0  0  0  0  0  0  0  0
   -0.2283    1.1832   -0.4215 C   0  0  0  0  0  0  0  0  0  0  0  0
    0.1748    1.2507   -1.4327 H   0  0  0  0  0  0  0  0  0  0  0  0
   -1.2977    1.3911   -0.4725 H   0  0  0  0  0  0  0  0  0  0  0  0
    0.4553    2.2684    0.4048 C   0  0  0  0  0  0  0  0  0  0  0  0
    1.3055    3.0473   -0.0058 O   0  0  0  0  0  0  0  0  0  0  0  0
    0.0623    2.3304    1.6908 O   0  0  0  0  0  0  0  0  0  0  0  0
    0.5500    3.0572    2.0795 H   0  0  0  0  0  0  0  0  0  0  0  0
    0.5920   -0.2154    1.5497 C   0  0  0  0  0  0  0  0  0  0  0  0
    1.7860   -0.4596    1.7183 O   0  0  0  0  0  0  0  0  0  0  0  0
   -0.2294    0.0669    2.5672 N   0  0  0  0  0  0  0  0  0  0  0  0
   -1.2130    0.1938    2.3518 H   0  0  0  0  0  0  0  0  0  0  0  0
    0.1836    0.1337    3.9673 C   0  0  0  0  0  0  0  0  0  0  0  0
    1.0451    0.7976    4.0666 H   0  0  0  0  0  0  0  0  0  0  0  0
   -0.6344    0.5115    4.5820 H   0  0  0  0  0  0  0  0  0  0  0  0
    0.4676   -0.8609    4.3157 H   0  0  0  0  0  0  0  0  0  0  0  0
  5  6  2  0  0  0  0
  5  7  1  0  0  0  0
  2  3  1  0  0  0  0
  2  4  1  0  0  0  0
  2  5  1  0  0  0  0
  1  2  1  0  0  0  0
 18 19  2  0  0  0  0
 18 20  1  0  0  0  0
 16 17  1  0  0  0  0
 14 15  2  0  0  0  0
 14 16  1  0  0  0  0
 11 12  1  0  0  0  0
 11 13  1  0  0  0  0
 11 14  1  0  0  0  0
  9 10  1  0  0  0  0
  9 11  1  0  0  0  0
  9 18  1  0  0  0  0
  7  8  1  0  0  0  0
  7  9  1  0  0  0  0
 22 23  1  0  0  0  0
 22 24  1  0  0  0  0
 22 25  1  0  0  0  0
 20 21  1  0  0  0  0
 20 22  1  0  0  0  0
M  END
$$$$
default_name
  -OEChem-02102213163D

 25 24  0     1  0  0  0  0  0999 V2000
   -2.7826   -3.8464    0.7821 H   0  0  0  0  0  0  0  0  0  0  0  0
   -2.8156   -2.8034    0.4711 C   0  0  0  0  0  0  0  0  0  0  0  0
   -3.4336   -2.2354    1.1641 H   0  0  0  0  0  0  0  0  0  0  0  0
   -3.2256   -2.7344   -0.5349 H   0  0  0  0  0  0  0  0  0  0  0  0
   -1.4126   -2.2444    0.4801 C   0  0  0  0  0  0  0  0  0  0  0  0
   -0.4686   -2.9534    0.8001 O   0  0  0  0  0  0  0  0  0  0  0  0
   -1.2736   -0.9704    0.1241 N   0  0  0  0  0  0  0  0  0  0  0  0
   -2.0996   -0.4354   -0.1019 H   0  0  0  0  0  0  0  0  0  0  0  0
   -0.0016   -0.2394    0.1271 C   0  0  1  0  0  0  0  0  0  0  0  0
    0.6995   -0.7619   -0.5275 H   0  0  0  0  0  0  0  0  0  0  0  0
   -0.2283    1.1832   -0.4215 C   0  0  0  0  0  0  0  0  0  0  0  0
    0.1748    1.2507   -1.4327 H   0  0  0  0  0  0  0  0  0  0  0  0
   -1.2977    1.3911   -0.4725 H   0  0  0  0  0  0  0  0  0  0  0  0
    0.4553    2.2684    0.4048 C   0  0  0  0  0  0  0  0  0  0  0  0
    1.1026    3.2049   -0.0449 O   0  0  0  0  0  0  0  0  0  0  0  0
    0.3124    2.1377    1.7369 O   0  0  0  0  0  0  0  0  0  0  0  0
    0.7675    2.8860    2.1244 H   0  0  0  0  0  0  0  0  0  0  0  0
    0.5920   -0.2154    1.5497 C   0  0  0  0  0  0  0  0  0  0  0  0
    1.7860   -0.4596    1.7183 O   0  0  0  0  0  0  0  0  0  0  0  0
   -0.2294    0.0669    2.5672 N   0  0  0  0  0  0  0  0  0  0  0  0
   -1.2130    0.1938    2.3518 H   0  0  0  0  0  0  0  0  0  0  0  0
    0.1836    0.1337    3.9673 C   0  0  0  0  0  0  0  0  0  0  0  0
    1.0451    0.7976    4.0666 H   0  0  0  0  0  0  0  0  0  0  0  0
   -0.6344    0.5115    4.5820 H   0  0  0  0  0  0  0  0  0  0  0  0
    0.4676   -0.8609    4.3157 H   0  0  0  0  0  0  0  0  0  0  0  0
  5  6  2  0  0  0  0
  5  7  1  0  0  0  0
  2  3  1  0  0  0  0
  2  4  1  0  0  0  0
  2  5  1  0  0  0  0
  1  2  1  0  0  0  0
 18 19  2  0  0  0  0
 18 20  1  0  0  0  0
 16 17  1  0  0  0  0
 14 15  2  0  0  0  0
 14 16  1  0  0  0  0
 11 12  1  0  0  0  0
 11 13  1  0  0  0  0
 11 14  1  0  0  0  0
  9 10  1  0  0  0  0
  9 11  1  0  0  0  0
  9 18  1  0  0  0  0
  7  8  1  0  0  0  0
  7  9  1  0  0  0  0
 22 23  1  0  0  0  0
 22 24  1  0  0  0  0
 22 25  1  0  0  0  0
 20 21  1  0  0  0  0
 20 22  1  0  0  0  0
M  END
$$$$
default_name
  -OEChem-02102213163D

 25 24  0     1  0  0  0  0  0999 V2000
   -2.7826   -3.8464    0.7821 H   0  0  0  0  0  0  0  0  0  0  0  0
   -2.8156   -2.8034    0.4711 C   0  0  0  0  0  0  0  0  0  0  0  0
   -3.4336   -2.2354    1.1641 H   0  0  0  0  0  0  0  0  0  0  0  0
   -3.2256   -2.7344   -0.5349 H   0  0  0  0  0  0  0  0  0  0  0  0
   -1.4126   -2.2444    0.4801 C   0  0  0  0  0  0  0  0  0  0  0  0
   -0.4686   -2.9534    0.8001 O   0  0  0  0  0  0  0  0  0  0  0  0
   -1.2736   -0.9704    0.1241 N   0  0  0  0  0  0  0  0  0  0  0  0
   -2.0996   -0.4354   -0.1019 H   0  0  0  0  0  0  0  0  0  0  0  0
   -0.0016   -0.2394    0.1271 C   0  0  1  0  0  0  0  0  0  0  0  0
    0.6995   -0.7619   -0.5275 H   0  0  0  0  0  0  0  0  0  0  0  0
   -0.2283    1.1832   -0.4215 C   0  0  0  0  0  0  0  0  0  0  0  0
    0.1748    1.2507   -1.4327 H   0  0  0  0  0  0  0  0  0  0  0  0
   -1.2977    1.3911   -0.4725 H   0  0  0  0  0  0  0  0  0  0  0  0
    0.4553    2.2684    0.4048 C   0  0  0  0  0  0  0  0  0  0  0  0
    0.8773    3.3331   -0.0270 O   0  0  0  0  0  0  0  0  0  0  0  0
    0.5894    1.9814    1.7131 O   0  0  0  0  0  0  0  0  0  0  0  0
    1.0099    2.7460    2.1078 H   0  0  0  0  0  0  0  0  0  0  0  0
    0.5920   -0.2154    1.5497 C   0  0  0  0  0  0  0  0  0  0  0  0
    1.7860   -0.4596    1.7183 O   0  0  0  0  0  0  0  0  0  0  0  0
   -0.2294    0.0669    2.5672 N   0  0  0  0  0  0  0  0  0  0  0  0
   -1.2130    0.1938    2.3518 H   0  0  0  0  0  0  0  0  0  0  0  0
    0.1836    0.1337    3.9673 C   0  0  0  0  0  0  0  0  0  0  0  0
    1.0451    0.7976    4.0666 H   0  0  0  0  0  0  0  0  0  0  0  0
   -0.6344    0.5115    4.5820 H   0  0  0  0  0  0  0  0  0  0  0  0
    0.4676   -0.8609    4.3157 H   0  0  0  0  0  0  0  0  0  0  0  0
  5  6  2  0  0  0  0
  5  7  1  0  0  0  0
  2  3  1  0  0  0  0
  2  4  1  0  0  0  0
  2  5  1  0  0  0  0
  1  2  1  0  0  0  0
 18 19  2  0  0  0  0
 18 20  1  0  0  0  0
 16 17  1  0  0  0  0
 14 15  2  0  0  0  0
 14 16  1  0  0  0  0
 11 12  1  0  0  0  0
 11 13  1  0  0  0  0
 11 14  1  0  0  0  0
  9 10  1  0  0  0  0
  9 11  1  0  0  0  0
  9 18  1  0  0  0  0
  7  8  1  0  0  0  0
  7  9  1  0  0  0  0
 22 23  1  0  0  0  0
 22 24  1  0  0  0  0
 22 25  1  0  0  0  0
 20 21  1  0  0  0  0
 20 22  1  0  0  0  0
M  END
$$$$
default_name
  -OEChem-02102213163D

 25 24  0     1  0  0  0  0  0999 V2000
   -2.7826   -3.8464    0.7821 H   0  0  0  0  0  0  0  0  0  0  0  0
   -2.8156   -2.8034    0.4711 C   0  0  0  0  0  0  0  0  0  0  0  0
   -3.4336   -2.2354    1.1641 H   0  0  0  0  0  0  0  0  0  0  0  0
   -3.2256   -2.7344   -0.5349 H   0  0  0  0  0  0  0  0  0  0  0  0
   -1.4126   -2.2444    0.4801 C   0  0  0  0  0  0  0  0  0  0  0  0
   -0.4686   -2.9534    0.8001 O   0  0  0  0  0  0  0  0  0  0  0  0
   -1.2736   -0.9704    0.1241 N   0  0  0  0  0  0  0  0  0  0  0  0
   -2.0996   -0.4354   -0.1019 H   0  0  0  0  0  0  0  0  0  0  0  0
   -0.0016   -0.2394    0.1271 C   0  0  1  0  0  0  0  0  0  0  0  0
    0.6995   -0.7619   -0.5275 H   0  0  0  0  0  0  0  0  0  0  0  0
   -0.2283    1.1832   -0.4215 C   0  0  0  0  0  0  0  0  0  0  0  0
    0.1748    1.2507   -1.4327 H   0  0  0  0  0  0  0  0  0  0  0  0
   -1.2977    1.3911   -0.4725 H   0  0  0  0  0  0  0  0  0  0  0  0
    0.4553    2.2684    0.4048 C   0  0  0  0  0  0  0  0  0  0  0  0
    0.6451    3.4234    0.0466 O   0  0  0  0  0  0  0  0  0  0  0  0
    0.8745    1.8719    1.6210 O   0  0  0  0  0  0  0  0  0  0  0  0
    1.2606    2.6466    2.0309 H   0  0  0  0  0  0  0  0  0  0  0  0
    0.5920   -0.2154    1.5497 C   0  0  0  0  0  0  0  0  0  0  0  0
    1.7860   -0.4596    1.7183 O   0  0  0  0  0  0  0  0  0  0  0  0
   -0.2294    0.0669    2.5672 N   0  0  0  0  0  0  0  0  0  0  0  0
   -1.2130    0.1938    2.3518 H   0  0  0  0  0  0  0  0  0  0  0  0
    0.1836    0.1337    3.9673 C   0  0  0  0  0  0  0  0  0  0  0  0
    1.0451    0.7976    4.0666 H   0  0  0  0  0  0  0  0  0  0  0  0
   -0.6344    0.5115    4.5820 H   0  0  0  0  0  0  0  0  0  0  0  0
    0.4676   -0.8609    4.3157 H   0  0  0  0  0  0  0  0  0  0  0  0
  5  6  2  0  0  0  0
  5  7  1  0  0  0  0
  2  3  1  0  0  0  0
  2  4  1  0  0  0  0
  2  5  1  0  0  0  0
  1  2  1  0  0  0  0
 18 19  2  0  0  0  0
 18 20  1  0  0  0  0
 16 17  1  0  0  0  0
 14 15  2  0  0  0  0
 14 16  1  0  0  0  0
 11 12  1  0  0  0  0
 11 13  1  0  0  0  0
 11 14  1  0  0  0  0
  9 10  1  0  0  0  0
  9 11  1  0  0  0  0
  9 18  1  0  0  0  0
  7  8  1  0  0  0  0
  7  9  1  0  0  0  0
 22 23  1  0  0  0  0
 22 24  1  0  0  0  0
 22 25  1  0  0  0  0
 20 21  1  0  0  0  0
 20 22  1  0  0  0  0
M  END
$$$$
default_name
  -OEChem-02102213163D

 25 24  0     1  0  0  0  0  0999 V2000
   -2.7826   -3.8464    0.7821 H   0  0  0  0  0  0  0  0  0  0  0  0
   -2.8156   -2.8034    0.4711 C   0  0  0  0  0  0  0  0  0  0  0  0
   -3.4336   -2.2354    1.1641 H   0  0  0  0  0  0  0  0  0  0  0  0
   -3.2256   -2.7344   -0.5349 H   0  0  0  0  0  0  0  0  0  0  0  0
   -1.4126   -2.2444    0.4801 C   0  0  0  0  0  0  0  0  0  0  0  0
   -0.4686   -2.9534    0.8001 O   0  0  0  0  0  0  0  0  0  0  0  0
   -1.2736   -0.9704    0.1241 N   0  0  0  0  0  0  0  0  0  0  0  0
   -2.0996   -0.4354   -0.1019 H   0  0  0  0  0  0  0  0  0  0  0  0
   -0.0016   -0.2394    0.1271 C   0  0  1  0  0  0  0  0  0  0  0  0
    0.6995   -0.7619   -0.5275 H   0  0  0  0  0  0  0  0  0  0  0  0
   -0.2283    1.1832   -0.4215 C   0  0  0  0  0  0  0  0  0  0  0  0
   -0.0761    1.1842   -1.5015 H   0  0  0  0  0  0  0  0  0  0  0  0
   -1.2561    1.4921   -0.2277 H   0  0  0  0  0  0  0  0  0  0  0  0
    0.7263    2.2190    0.1647 C   0  0  0  0  0  0  0  0  0  0  0  0
    0.7426    3.4109   -0.1133 O   0  0  0  0  0  0  0  0  0  0  0  0
    1.6123    1.7312    1.0530 O   0  0  0  0  0  0  0  0  0  0  0  0
    2.1268    2.4824    1.3500 H   0  0  0  0  0  0  0  0  0  0  0  0
    0.5920   -0.2154    1.5497 C   0  0  0  0  0  0  0  0  0  0  0  0
    1.7860   -0.4596    1.7183 O   0  0  0  0  0  0  0  0  0  0  0  0
   -0.2294    0.0669    2.5672 N   0  0  0  0  0  0  0  0  0  0  0  0
   -1.2130    0.1938    2.3518 H   0  0  0  0  0  0  0  0  0  0  0  0
    0.1836    0.1337    3.9673 C   0  0  0  0  0  0  0  0  0  0  0  0
    1.0451    0.7976    4.0666 H   0  0  0  0  0  0  0  0  0  0  0  0
   -0.6344    0.5115    4.5820 H   0  0  0  0  0  0  0  0  0  0  0  0
    0.4676   -0.8609    4.3157 H   0  0  0  0  0  0  0  0  0  0  0  0
  5  6  2  0  0  0  0
  5  7  1  0  0  0  0
  2  3  1  0  0  0  0
  2  4  1  0  0  0  0
  2  5  1  0  0  0  0
  1  2  1  0  0  0  0
 18 19  2  0  0  0  0
 18 20  1  0  0  0  0
 16 17  1  0  0  0  0
 14 15  2  0  0  0  0
 14 16  1  0  0  0  0
 11 12  1  0  0  0  0
 11 13  1  0  0  0  0
 11 14  1  0  0  0  0
  9 10  1  0  0  0  0
  9 11  1  0  0  0  0
  9 18  1  0  0  0  0
  7  8  1  0  0  0  0
  7  9  1  0  0  0  0
 22 23  1  0  0  0  0
 22 24  1  0  0  0  0
 22 25  1  0  0  0  0
 20 21  1  0  0  0  0
 20 22  1  0  0  0  0
M  END
$$$$
default_name
  -OEChem-02102213163D

 25 24  0     1  0  0  0  0  0999 V2000
   -2.7826   -3.8464    0.7821 H   0  0  0  0  0  0  0  0  0  0  0  0
   -2.8156   -2.8034    0.4711 C   0  0  0  0  0  0  0  0  0  0  0  0
   -3.4336   -2.2354    1.1641 H   0  0  0  0  0  0  0  0  0  0  0  0
   -3.2256   -2.7344   -0.5349 H   0  0  0  0  0  0  0  0  0  0  0  0
   -1.4126   -2.2444    0.4801 C   0  0  0  0  0  0  0  0  0  0  0  0
   -0.4686   -2.9534    0.8001 O   0  0  0  0  0  0  0  0  0  0  0  0
   -1.2736   -0.9704    0.1241 N   0  0  0  0  0  0  0  0  0  0  0  0
   -2.0996   -0.4354   -0.1019 H   0  0  0  0  0  0  0  0  0  0  0  0
   -0.0016   -0.2394    0.1271 C   0  0  1  0  0  0  0  0  0  0  0  0
    0.6995   -0.7619   -0.5275 H   0  0  0  0  0  0  0  0  0  0  0  0
   -0.2283    1.1832   -0.4215 C   0  0  0  0  0  0  0  0  0  0  0  0
   -0.0761    1.1842   -1.5015 H   0  0  0  0  0  0  0  0  0  0  0  0
   -1.2561    1.4921   -0.2277 H   0  0  0  0  0  0  0  0  0  0  0  0
    0.7263    2.2190    0.1647 C   0  0  0  0  0  0  0  0  0  0  0  0
    0.5898    3.4334    0.0956 O   0  0  0  0  0  0  0  0  0  0  0  0
    1.7987    1.7052    0.7955 O   0  0  0  0  0  0  0  0  0  0  0  0
    2.2933    2.4557    1.1260 H   0  0  0  0  0  0  0  0  0  0  0  0
    0.5920   -0.2154    1.5497 C   0  0  0  0  0  0  0  0  0  0  0  0
    1.7860   -0.4596    1.7183 O   0  0  0  0  0  0  0  0  0  0  0  0
   -0.2294    0.0669    2.5672 N   0  0  0  0  0  0  0  0  0  0  0  0
   -1.2130    0.1938    2.3518 H   0  0  0  0  0  0  0  0  0  0  0  0
    0.1836    0.1337    3.9673 C   0  0  0  0  0  0  0  0  0  0  0  0
    1.0451    0.7976    4.0666 H   0  0  0  0  0  0  0  0  0  0  0  0
   -0.6344    0.5115    4.5820 H   0  0  0  0  0  0  0  0  0  0  0  0
    0.4676   -0.8609    4.3157 H   0  0  0  0  0  0  0  0  0  0  0  0
  5  6  2  0  0  0  0
  5  7  1  0  0  0  0
  2  3  1  0  0  0  0
  2  4  1  0  0  0  0
  2  5  1  0  0  0  0
  1  2  1  0  0  0  0
 18 19  2  0  0  0  0
 18 20  1  0  0  0  0
 16 17  1  0  0  0  0
 14 15  2  0  0  0  0
 14 16  1  0  0  0  0
 11 12  1  0  0  0  0
 11 13  1  0  0  0  0
 11 14  1  0  0  0  0
  9 10  1  0  0  0  0
  9 11  1  0  0  0  0
  9 18  1  0  0  0  0
  7  8  1  0  0  0  0
  7  9  1  0  0  0  0
 22 23  1  0  0  0  0
 22 24  1  0  0  0  0
 22 25  1  0  0  0  0
 20 21  1  0  0  0  0
 20 22  1  0  0  0  0
M  END
$$$$
default_name
  -OEChem-02102213163D

 25 24  0     1  0  0  0  0  0999 V2000
   -2.7826   -3.8464    0.7821 H   0  0  0  0  0  0  0  0  0  0  0  0
   -2.8156   -2.8034    0.4711 C   0  0  0  0  0  0  0  0  0  0  0  0
   -3.4336   -2.2354    1.1641 H   0  0  0  0  0  0  0  0  0  0  0  0
   -3.2256   -2.7344   -0.5349 H   0  0  0  0  0  0  0  0  0  0  0  0
   -1.4126   -2.2444    0.4801 C   0  0  0  0  0  0  0  0  0  0  0  0
   -0.4686   -2.9534    0.8001 O   0  0  0  0  0  0  0  0  0  0  0  0
   -1.2736   -0.9704    0.1241 N   0  0  0  0  0  0  0  0  0  0  0  0
   -2.0996   -0.4354   -0.1019 H   0  0  0  0  0  0  0  0  0  0  0  0
   -0.0016   -0.2394    0.1271 C   0  0  1  0  0  0  0  0  0  0  0  0
    0.6995   -0.7619   -0.5275 H   0  0  0  0  0  0  0  0  0  0  0  0
   -0.2283    1.1832   -0.4215 C   0  0  0  0  0  0  0  0  0  0  0  0
   -0.0761    1.1842   -1.5015 H   0  0  0  0  0  0  0  0  0  0  0  0
   -1.2561    1.4921   -0.2277 H   0  0  0  0  0  0  0  0  0  0  0  0
    0.7263    2.2190    0.1647 C   0  0  0  0  0  0  0  0  0  0  0  0
    0.4767    3.4062    0.3279 O   0  0  0  0  0  0  0  0  0  0  0  0
    1.9361    1.7403    0.5097 O   0  0  0  0  0  0  0  0  0  0  0  0
    2.4175    2.4828    0.8760 H   0  0  0  0  0  0  0  0  0  0  0  0
    0.5920   -0.2154    1.5497 C   0  0  0  0  0  0  0  0  0  0  0  0
    1.7860   -0.4596    1.7183 O   0  0  0  0  0  0  0  0  0  0  0  0
   -0.2294    0.0669    2.5672 N   0  0  0  0  0  0  0  0  0  0  0  0
   -1.2130    0.1938    2.3518 H   0  0  0  0  0  0  0  0  0  0  0  0
    0.1836    0.1337    3.9673 C   0  0  0  0  0  0  0  0  0  0  0  0
    1.0451    0.7976    4.0666 H   0  0  0  0  0  0  0  0  0  0  0  0
   -0.6344    0.5115    4.5820 H   0  0  0  0  0  0  0  0  0  0  0  0
    0.4676   -0.8609    4.3157 H   0  0  0  0  0  0  0  0  0  0  0  0
  5  6  2  0  0  0  0
  5  7  1  0  0  0  0
  2  3  1  0  0  0  0
  2  4  1  0  0  0  0
  2  5  1  0  0  0  0
  1  2  1  0  0  0  0
 18 19  2  0  0  0  0
 18 20  1  0  0  0  0
 16 17  1  0  0  0  0
 14 15  2  0  0  0  0
 14 16  1  0  0  0  0
 11 12  1  0  0  0  0
 11 13  1  0  0  0  0
 11 14  1  0  0  0  0
  9 10  1  0  0  0  0
  9 11  1  0  0  0  0
  9 18  1  0  0  0  0
  7  8  1  0  0  0  0
  7  9  1  0  0  0  0
 22 23  1  0  0  0  0
 22 24  1  0  0  0  0
 22 25  1  0  0  0  0
 20 21  1  0  0  0  0
 20 22  1  0  0  0  0
M  END
$$$$
default_name
  -OEChem-02102213163D

 25 24  0     1  0  0  0  0  0999 V2000
   -2.7826   -3.8464    0.7821 H   0  0  0  0  0  0  0  0  0  0  0  0
   -2.8156   -2.8034    0.4711 C   0  0  0  0  0  0  0  0  0  0  0  0
   -3.4336   -2.2354    1.1641 H   0  0  0  0  0  0  0  0  0  0  0  0
   -3.2256   -2.7344   -0.5349 H   0  0  0  0  0  0  0  0  0  0  0  0
   -1.4126   -2.2444    0.4801 C   0  0  0  0  0  0  0  0  0  0  0  0
   -0.4686   -2.9534    0.8001 O   0  0  0  0  0  0  0  0  0  0  0  0
   -1.2736   -0.9704    0.1241 N   0  0  0  0  0  0  0  0  0  0  0  0
   -2.0996   -0.4354   -0.1019 H   0  0  0  0  0  0  0  0  0  0  0  0
   -0.0016   -0.2394    0.1271 C   0  0  1  0  0  0  0  0  0  0  0  0
    0.6995   -0.7619   -0.5275 H   0  0  0  0  0  0  0  0  0  0  0  0
   -0.2283    1.1832   -0.4215 C   0  0  0  0  0  0  0  0  0  0  0  0
   -0.0761    1.1842   -1.5015 H   0  0  0  0  0  0  0  0  0  0  0  0
   -1.2561    1.4921   -0.2277 H   0  0  0  0  0  0  0  0  0  0  0  0
    0.7263    2.2190    0.1647 C   0  0  0  0  0  0  0  0  0  0  0  0
    0.4110    3.3309    0.5678 O   0  0  0  0  0  0  0  0  0  0  0  0
    2.0152    1.8341    0.2153 O   0  0  0  0  0  0  0  0  0  0  0  0
    2.4908    2.5618    0.6171 H   0  0  0  0  0  0  0  0  0  0  0  0
    0.5920   -0.2154    1.5497 C   0  0  0  0  0  0  0  0  0  0  0  0
    1.7860   -0.4596    1.7183 O   0  0  0  0  0  0  0  0  0  0  0  0
   -0.2294    0.0669    2.5672 N   0  0  0  0  0  0  0  0  0  0  0  0
   -1.2130    0.1938    2.3518 H   0  0  0  0  0  0  0  0  0  0  0  0
    0.1836    0.1337    3.9673 C   0  0  0  0  0  0  0  0  0  0  0  0
    1.0451    0.7976    4.0666 H   0  0  0  0  0  0  0  0  0  0  0  0
   -0.6344    0.5115    4.5820 H   0  0  0  0  0  0  0  0  0  0  0  0
    0.4676   -0.8609    4.3157 H   0  0  0  0  0  0  0  0  0  0  0  0
  5  6  2  0  0  0  0
  5  7  1  0  0  0  0
  2  3  1  0  0  0  0
  2  4  1  0  0  0  0
  2  5  1  0  0  0  0
  1  2  1  0  0  0  0
 18 19  2  0  0  0  0
 18 20  1  0  0  0  0
 16 17  1  0  0  0  0
 14 15  2  0  0  0  0
 14 16  1  0  0  0  0
 11 12  1  0  0  0  0
 11 13  1  0  0  0  0
 11 14  1  0  0  0  0
  9 10  1  0  0  0  0
  9 11  1  0  0  0  0
  9 18  1  0  0  0  0
  7  8  1  0  0  0  0
  7  9  1  0  0  0  0
 22 23  1  0  0  0  0
 22 24  1  0  0  0  0
 22 25  1  0  0  0  0
 20 21  1  0  0  0  0
 20 22  1  0  0  0  0
M  END
$$$$
default_name
  -OEChem-02102213163D

 25 24  0     1  0  0  0  0  0999 V2000
   -2.7826   -3.8464    0.7821 H   0  0  0  0  0  0  0  0  0  0  0  0
   -2.8156   -2.8034    0.4711 C   0  0  0  0  0  0  0  0  0  0  0  0
   -3.4336   -2.2354    1.1641 H   0  0  0  0  0  0  0  0  0  0  0  0
   -3.2256   -2.7344   -0.5349 H   0  0  0  0  0  0  0  0  0  0  0  0
   -1.4126   -2.2444    0.4801 C   0  0  0  0  0  0  0  0  0  0  0  0
   -0.4686   -2.9534    0.8001 O   0  0  0  0  0  0  0  0  0  0  0  0
   -1.2736   -0.9704    0.1241 N   0  0  0  0  0  0  0  0  0  0  0  0
   -2.0996   -0.4354   -0.1019 H   0  0  0  0  0  0  0  0  0  0  0  0
   -0.0016   -0.2394    0.1271 C   0  0  1  0  0  0  0  0  0  0  0  0
    0.6995   -0.7619   -0.5275 H   0  0  0  0  0  0  0  0  0  0  0  0
   -0.2283    1.1832   -0.4215 C   0  0  0  0  0  0  0  0  0  0  0  0
   -0.0761    1.1842   -1.5015 H   0  0  0  0  0  0  0  0  0  0  0  0
   -1.2561    1.4921   -0.2277 H   0  0  0  0  0  0  0  0  0  0  0  0
    0.7263    2.2190    0.1647 C   0  0  0  0  0  0  0  0  0  0  0  0
    0.3972    3.2129    0.7988 O   0  0  0  0  0  0  0  0  0  0  0  0
    2.0305    1.9803   -0.0679 O   0  0  0  0  0  0  0  0  0  0  0  0
    2.5083    2.6873    0.3669 H   0  0  0  0  0  0  0  0  0  0  0  0
    0.5920   -0.2154    1.5497 C   0  0  0  0  0  0  0  0  0  0  0  0
    1.7860   -0.4596    1.7183 O   0  0  0  0  0  0  0  0  0  0  0  0
   -0.2294    0.0669    2.5672 N   0  0  0  0  0  0  0  0  0  0  0  0
   -1.2130    0.1938    2.3518 H   0  0  0  0  0  0  0  0  0  0  0  0
    0.1836    0.1337    3.9673 C   0  0  0  0  0  0  0  0  0  0  0  0
    1.0451    0.7976    4.0666 H   0  0  0  0  0  0  0  0  0  0  0  0
   -0.6344    0.5115    4.5820 H   0  0  0  0  0  0  0  0  0  0  0  0
    0.4676   -0.8609    4.3157 H   0  0  0  0  0  0  0  0  0  0  0  0
  5  6  2  0  0  0  0
  5  7  1  0  0  0  0
  2  3  1  0  0  0  0
  2  4  1  0  0  0  0
  2  5  1  0  0  0  0
  1  2  1  0  0  0  0
 18 19  2  0  0  0  0
 18 20  1  0  0  0  0
 16 17  1  0  0  0  0
 14 15  2  0  0  0  0
 14 16  1  0  0  0  0
 11 12  1  0  0  0  0
 11 13  1  0  0  0  0
 11 14  1  0  0  0  0
  9 10  1  0  0  0  0
  9 11  1  0  0  0  0
  9 18  1  0  0  0  0
  7  8  1  0  0  0  0
  7  9  1  0  0  0  0
 22 23  1  0  0  0  0
 22 24  1  0  0  0  0
 22 25  1  0  0  0  0
 20 21  1  0  0  0  0
 20 22  1  0  0  0  0
M  END
$$$$
default_name
  -OEChem-02102213163D

 25 24  0     1  0  0  0  0  0999 V2000
   -2.7826   -3.8464    0.7821 H   0  0  0  0  0  0  0  0  0  0  0  0
   -2.8156   -2.8034    0.4711 C   0  0  0  0  0  0  0  0  0  0  0  0
   -3.4336   -2.2354    1.1641 H   0  0  0  0  0  0  0  0  0  0  0  0
   -3.2256   -2.7344   -0.5349 H   0  0  0  0  0  0  0  0  0  0  0  0
   -1.4126   -2.2444    0.4801 C   0  0  0  0  0  0  0  0  0  0  0  0
   -0.4686   -2.9534    0.8001 O   0  0  0  0  0  0  0  0  0  0  0  0
   -1.2736   -0.9704    0.1241 N   0  0  0  0  0  0  0  0  0  0  0  0
   -2.0996   -0.4354   -0.1019 H   0  0  0  0  0  0  0  0  0  0  0  0
   -0.0016   -0.2394    0.1271 C   0  0  1  0  0  0  0  0  0  0  0  0
    0.6995   -0.7619   -0.5275 H   0  0  0  0  0  0  0  0  0  0  0  0
   -0.2283    1.1832   -0.4215 C   0  0  0  0  0  0  0  0  0  0  0  0
   -0.0761    1.1842   -1.5015 H   0  0  0  0  0  0  0  0  0  0  0  0
   -1.2561    1.4921   -0.2277 H   0  0  0  0  0  0  0  0  0  0  0  0
    0.7263    2.2190    0.1647 C   0  0  0  0  0  0  0  0  0  0  0  0
    0.4362    3.0601    1.0053 O   0  0  0  0  0  0  0  0  0  0  0  0
    1.9809    2.1688   -0.3203 O   0  0  0  0  0  0  0  0  0  0  0  0
    2.4687    2.8508    0.1425 H   0  0  0  0  0  0  0  0  0  0  0  0
    0.5920   -0.2154    1.5497 C   0  0  0  0  0  0  0  0  0  0  0  0
    1.7860   -0.4596    1.7183 O   0  0  0  0  0  0  0  0  0  0  0  0
   -0.2294    0.0669    2.5672 N   0  0  0  0  0  0  0  0  0  0  0  0
   -1.2130    0.1938    2.3518 H   0  0  0  0  0  0  0  0  0  0  0  0
    0.1836    0.1337    3.9673 C   0  0  0  0  0  0  0  0  0  0  0  0
    1.0451    0.7976    4.0666 H   0  0  0  0  0  0  0  0  0  0  0  0
   -0.6344    0.5115    4.5820 H   0  0  0  0  0  0  0  0  0  0  0  0
    0.4676   -0.8609    4.3157 H   0  0  0  0  0  0  0  0  0  0  0  0
  5  6  2  0  0  0  0
  5  7  1  0  0  0  0
  2  3  1  0  0  0  0
  2  4  1  0  0  0  0
  2  5  1  0  0  0  0
  1  2  1  0  0  0  0
 18 19  2  0  0  0  0
 18 20  1  0  0  0  0
 16 17  1  0  0  0  0
 14 15  2  0  0  0  0
 14 16  1  0  0  0  0
 11 12  1  0  0  0  0
 11 13  1  0  0  0  0
 11 14  1  0  0  0  0
  9 10  1  0  0  0  0
  9 11  1  0  0  0  0
  9 18  1  0  0  0  0
  7  8  1  0  0  0  0
  7  9  1  0  0  0  0
 22 23  1  0  0  0  0
 22 24  1  0  0  0  0
 22 25  1  0  0  0  0
 20 21  1  0  0  0  0
 20 22  1  0  0  0  0
M  END
$$$$
default_name
  -OEChem-02102213163D

 25 24  0     1  0  0  0  0  0999 V2000
   -2.7826   -3.8464    0.7821 H   0  0  0  0  0  0  0  0  0  0  0  0
   -2.8156   -2.8034    0.4711 C   0  0  0  0  0  0  0  0  0  0  0  0
   -3.4336   -2.2354    1.1641 H   0  0  0  0  0  0  0  0  0  0  0  0
   -3.2256   -2.7344   -0.5349 H   0  0  0  0  0  0  0  0  0  0  0  0
   -1.4126   -2.2444    0.4801 C   0  0  0  0  0  0  0  0  0  0  0  0
   -0.4686   -2.9534    0.8001 O   0  0  0  0  0  0  0  0  0  0  0  0
   -1.2736   -0.9704    0.1241 N   0  0  0  0  0  0  0  0  0  0  0  0
   -2.0996   -0.4354   -0.1019 H   0  0  0  0  0  0  0  0  0  0  0  0
   -0.0016   -0.2394    0.1271 C   0  0  1  0  0  0  0  0  0  0  0  0
    0.6995   -0.7619   -0.5275 H   0  0  0  0  0  0  0  0  0  0  0  0
   -0.2283    1.1832   -0.4215 C   0  0  0  0  0  0  0  0  0  0  0  0
   -0.0761    1.1842   -1.5015 H   0  0  0  0  0  0  0  0  0  0  0  0
   -1.2561    1.4921   -0.2277 H   0  0  0  0  0  0  0  0  0  0  0  0
    0.7263    2.2190    0.1647 C   0  0  0  0  0  0  0  0  0  0  0  0
    0.5253    2.8830    1.1732 O   0  0  0  0  0  0  0  0  0  0  0  0
    1.8700    2.3869   -0.5250 O   0  0  0  0  0  0  0  0  0  0  0  0
    2.3748    3.0411   -0.0408 H   0  0  0  0  0  0  0  0  0  0  0  0
    0.5920   -0.2154    1.5497 C   0  0  0  0  0  0  0  0  0  0  0  0
    1.7860   -0.4596    1.7183 O   0  0  0  0  0  0  0  0  0  0  0  0
   -0.2294    0.0669    2.5672 N   0  0  0  0  0  0  0  0  0  0  0  0
   -1.2130    0.1938    2.3518 H   0  0  0  0  0  0  0  0  0  0  0  0
    0.1836    0.1337    3.9673 C   0  0  0  0  0  0  0  0  0  0  0  0
    1.0451    0.7976    4.0666 H   0  0  0  0  0  0  0  0  0  0  0  0
   -0.6344    0.5115    4.5820 H   0  0  0  0  0  0  0  0  0  0  0  0
    0.4676   -0.8609    4.3157 H   0  0  0  0  0  0  0  0  0  0  0  0
  5  6  2  0  0  0  0
  5  7  1  0  0  0  0
  2  3  1  0  0  0  0
  2  4  1  0  0  0  0
  2  5  1  0  0  0  0
  1  2  1  0  0  0  0
 18 19  2  0  0  0  0
 18 20  1  0  0  0  0
 16 17  1  0  0  0  0
 14 15  2  0  0  0  0
 14 16  1  0  0  0  0
 11 12  1  0  0  0  0
 11 13  1  0  0  0  0
 11 14  1  0  0  0  0
  9 10  1  0  0  0  0
  9 11  1  0  0  0  0
  9 18  1  0  0  0  0
  7  8  1  0  0  0  0
  7  9  1  0  0  0  0
 22 23  1  0  0  0  0
 22 24  1  0  0  0  0
 22 25  1  0  0  0  0
 20 21  1  0  0  0  0
 20 22  1  0  0  0  0
M  END
$$$$
default_name
  -OEChem-02102213163D

 25 24  0     1  0  0  0  0  0999 V2000
   -2.7826   -3.8464    0.7821 H   0  0  0  0  0  0  0  0  0  0  0  0
   -2.8156   -2.8034    0.4711 C   0  0  0  0  0  0  0  0  0  0  0  0
   -3.4336   -2.2354    1.1641 H   0  0  0  0  0  0  0  0  0  0  0  0
   -3.2256   -2.7344   -0.5349 H   0  0  0  0  0  0  0  0  0  0  0  0
   -1.4126   -2.2444    0.4801 C   0  0  0  0  0  0  0  0  0  0  0  0
   -0.4686   -2.9534    0.8001 O   0  0  0  0  0  0  0  0  0  0  0  0
   -1.2736   -0.9704    0.1241 N   0  0  0  0  0  0  0  0  0  0  0  0
   -2.0996   -0.4354   -0.1019 H   0  0  0  0  0  0  0  0  0  0  0  0
   -0.0016   -0.2394    0.1271 C   0  0  1  0  0  0  0  0  0  0  0  0
    0.6995   -0.7619   -0.5275 H   0  0  0  0  0  0  0  0  0  0  0  0
   -0.2283    1.1832   -0.4215 C   0  0  0  0  0  0  0  0  0  0  0  0
   -0.0761    1.1842   -1.5015 H   0  0  0  0  0  0  0  0  0  0  0  0
   -1.2561    1.4921   -0.2277 H   0  0  0  0  0  0  0  0  0  0  0  0
    0.7263    2.2190    0.1647 C   0  0  0  0  0  0  0  0  0  0  0  0
    0.6585    2.6935    1.2910 O   0  0  0  0  0  0  0  0  0  0  0  0
    1.7051    2.6197   -0.6679 O   0  0  0  0  0  0  0  0  0  0  0  0
    2.2330    3.2452   -0.1706 H   0  0  0  0  0  0  0  0  0  0  0  0
    0.5920   -0.2154    1.5497 C   0  0  0  0  0  0  0  0  0  0  0  0
    1.7860   -0.4596    1.7183 O   0  0  0  0  0  0  0  0  0  0  0  0
   -0.2294    0.0669    2.5672 N   0  0  0  0  0  0  0  0  0  0  0  0
   -1.2130    0.1938    2.3518 H   0  0  0  0  0  0  0  0  0  0  0  0
    0.1836    0.1337    3.9673 C   0  0  0  0  0  0  0  0  0  0  0  0
    1.0451    0.7976    4.0666 H   0  0  0  0  0  0  0  0  0  0  0  0
   -0.6344    0.5115    4.5820 H   0  0  0  0  0  0  0  0  0  0  0  0
    0.4676   -0.8609    4.3157 H   0  0  0  0  0  0  0  0  0  0  0  0
  5  6  2  0  0  0  0
  5  7  1  0  0  0  0
  2  3  1  0  0  0  0
  2  4  1  0  0  0  0
  2  5  1  0  0  0  0
  1  2  1  0  0  0  0
 18 19  2  0  0  0  0
 18 20  1  0  0  0  0
 16 17  1  0  0  0  0
 14 15  2  0  0  0  0
 14 16  1  0  0  0  0
 11 12  1  0  0  0  0
 11 13  1  0  0  0  0
 11 14  1  0  0  0  0
  9 10  1  0  0  0  0
  9 11  1  0  0  0  0
  9 18  1  0  0  0  0
  7  8  1  0  0  0  0
  7  9  1  0  0  0  0
 22 23  1  0  0  0  0
 22 24  1  0  0  0  0
 22 25  1  0  0  0  0
 20 21  1  0  0  0  0
 20 22  1  0  0  0  0
M  END
$$$$
default_name
  -OEChem-02102213163D

 25 24  0     1  0  0  0  0  0999 V2000
   -2.7826   -3.8464    0.7821 H   0  0  0  0  0  0  0  0  0  0  0  0
   -2.8156   -2.8034    0.4711 C   0  0  0  0  0  0  0  0  0  0  0  0
   -3.4336   -2.2354    1.1641 H   0  0  0  0  0  0  0  0  0  0  0  0
   -3.2256   -2.7344   -0.5349 H   0  0  0  0  0  0  0  0  0  0  0  0
   -1.4126   -2.2444    0.4801 C   0  0  0  0  0  0  0  0  0  0  0  0
   -0.4686   -2.9534    0.8001 O   0  0  0  0  0  0  0  0  0  0  0  0
   -1.2736   -0.9704    0.1241 N   0  0  0  0  0  0  0  0  0  0  0  0
   -2.0996   -0.4354   -0.1019 H   0  0  0  0  0  0  0  0  0  0  0  0
   -0.0016   -0.2394    0.1271 C   0  0  1  0  0  0  0  0  0  0  0  0
    0.6995   -0.7619   -0.5275 H   0  0  0  0  0  0  0  0  0  0  0  0
   -0.2283    1.1832   -0.4215 C   0  0  0  0  0  0  0  0  0  0  0  0
   -0.0761    1.1842   -1.5015 H   0  0  0  0  0  0  0  0  0  0  0  0
   -1.2561    1.4921   -0.2277 H   0  0  0  0  0  0  0  0  0  0  0  0
    0.7263    2.2190    0.1647 C   0  0  0  0  0  0  0  0  0  0  0  0
    0.8267    2.5047    1.3507 O   0  0  0  0  0  0  0  0  0  0  0  0
    1.4976    2.8513   -0.7392 O   0  0  0  0  0  0  0  0  0  0  0  0
    2.0529    3.4494   -0.2379 H   0  0  0  0  0  0  0  0  0  0  0  0
    0.5920   -0.2154    1.5497 C   0  0  0  0  0  0  0  0  0  0  0  0
    1.7860   -0.4596    1.7183 O   0  0  0  0  0  0  0  0  0  0  0  0
   -0.2294    0.0669    2.5672 N   0  0  0  0  0  0  0  0  0  0  0  0
   -1.2130    0.1938    2.3518 H   0  0  0  0  0  0  0  0  0  0  0  0
    0.1836    0.1337    3.9673 C   0  0  0  0  0  0  0  0  0  0  0  0
    1.0451    0.7976    4.0666 H   0  0  0  0  0  0  0  0  0  0  0  0
   -0.6344    0.5115    4.5820 H   0  0  0  0  0  0  0  0  0  0  0  0
    0.4676   -0.8609    4.3157 H   0  0  0  0  0  0  0  0  0  0  0  0
  5  6  2  0  0  0  0
  5  7  1  0  0  0  0
  2  3  1  0  0  0  0
  2  4  1  0  0  0  0
  2  5  1  0  0  0  0
  1  2  1  0  0  0  0
 18 19  2  0  0  0  0
 18 20  1  0  0  0  0
 16 17  1  0  0  0  0
 14 15  2  0  0  0  0
 14 16  1  0  0  0  0
 11 12  1  0  0  0  0
 11 13  1  0  0  0  0
 11 14  1  0  0  0  0
  9 10  1  0  0  0  0
  9 11  1  0  0  0  0
  9 18  1  0  0  0  0
  7  8  1  0  0  0  0
  7  9  1  0  0  0  0
 22 23  1  0  0  0  0
 22 24  1  0  0  0  0
 22 25  1  0  0  0  0
 20 21  1  0  0  0  0
 20 22  1  0  0  0  0
M  END
$$$$
default_name
  -OEChem-02102213163D

 25 24  0     1  0  0  0  0  0999 V2000
   -2.7826   -3.8464    0.7821 H   0  0  0  0  0  0  0  0  0  0  0  0
   -2.8156   -2.8034    0.4711 C   0  0  0  0  0  0  0  0  0  0  0  0
   -3.4336   -2.2354    1.1641 H   0  0  0  0  0  0  0  0  0  0  0  0
   -3.2256   -2.7344   -0.5349 H   0  0  0  0  0  0  0  0  0  0  0  0
   -1.4126   -2.2444    0.4801 C   0  0  0  0  0  0  0  0  0  0  0  0
   -0.4686   -2.9534    0.8001 O   0  0  0  0  0  0  0  0  0  0  0  0
   -1.2736   -0.9704    0.1241 N   0  0  0  0  0  0  0  0  0  0  0  0
   -2.0996   -0.4354   -0.1019 H   0  0  0  0  0  0  0  0  0  0  0  0
   -0.0016   -0.2394    0.1271 C   0  0  1  0  0  0  0  0  0  0  0  0
    0.6995   -0.7619   -0.5275 H   0  0  0  0  0  0  0  0  0  0  0  0
   -0.2283    1.1832   -0.4215 C   0  0  0  0  0  0  0  0  0  0  0  0
   -0.0761    1.1842   -1.5015 H   0  0  0  0  0  0  0  0  0  0  0  0
   -1.2561    1.4921   -0.2277 H   0  0  0  0  0  0  0  0  0  0  0  0
    0.7263    2.2190    0.1647 C   0  0  0  0  0  0  0  0  0  0  0  0
    1.0184    2.3294    1.3483 O   0  0  0  0  0  0  0  0  0  0  0  0
    1.2617    3.0659   -0.7342 O   0  0  0  0  0  0  0  0  0  0  0  0
    1.8467    3.6395   -0.2383 H   0  0  0  0  0  0  0  0  0  0  0  0
    0.5920   -0.2154    1.5497 C   0  0  0  0  0  0  0  0  0  0  0  0
    1.7860   -0.4596    1.7183 O   0  0  0  0  0  0  0  0  0  0  0  0
   -0.2294    0.0669    2.5672 N   0  0  0  0  0  0  0  0  0  0  0  0
   -1.2130    0.1938    2.3518 H   0  0  0  0  0  0  0  0  0  0  0  0
    0.1836    0.1337    3.9673 C   0  0  0  0  0  0  0  0  0  0  0  0
    1.0451    0.7976    4.0666 H   0  0  0  0  0  0  0  0  0  0  0  0
   -0.6344    0.5115    4.5820 H   0  0  0  0  0  0  0  0  0  0  0  0
    0.4676   -0.8609    4.3157 H   0  0  0  0  0  0  0  0  0  0  0  0
  5  6  2  0  0  0  0
  5  7  1  0  0  0  0
  2  3  1  0  0  0  0
  2  4  1  0  0  0  0
  2  5  1  0  0  0  0
  1  2  1  0  0  0  0
 18 19  2  0  0  0  0
 18 20  1  0  0  0  0
 16 17  1  0  0  0  0
 14 15  2  0  0  0  0
 14 16  1  0  0  0  0
 11 12  1  0  0  0  0
 11 13  1  0  0  0  0
 11 14  1  0  0  0  0
  9 10  1  0  0  0  0
  9 11  1  0  0  0  0
  9 18  1  0  0  0  0
  7  8  1  0  0  0  0
  7  9  1  0  0  0  0
 22 23  1  0  0  0  0
 22 24  1  0  0  0  0
 22 25  1  0  0  0  0
 20 21  1  0  0  0  0
 20 22  1  0  0  0  0
M  END
$$$$
default_name
  -OEChem-02102213163D

 25 24  0     1  0  0  0  0  0999 V2000
   -2.7826   -3.8464    0.7821 H   0  0  0  0  0  0  0  0  0  0  0  0
   -2.8156   -2.8034    0.4711 C   0  0  0  0  0  0  0  0  0  0  0  0
   -3.4336   -2.2354    1.1641 H   0  0  0  0  0  0  0  0  0  0  0  0
   -3.2256   -2.7344   -0.5349 H   0  0  0  0  0  0  0  0  0  0  0  0
   -1.4126   -2.2444    0.4801 C   0  0  0  0  0  0  0  0  0  0  0  0
   -0.4686   -2.9534    0.8001 O   0  0  0  0  0  0  0  0  0  0  0  0
   -1.2736   -0.9704    0.1241 N   0  0  0  0  0  0  0  0  0  0  0  0
   -2.0996   -0.4354   -0.1019 H   0  0  0  0  0  0  0  0  0  0  0  0
   -0.0016   -0.2394    0.1271 C   0  0  1  0  0  0  0  0  0  0  0  0
    0.6995   -0.7619   -0.5275 H   0  0  0  0  0  0  0  0  0  0  0  0
   -0.2283    1.1832   -0.4215 C   0  0  0  0  0  0  0  0  0  0  0  0
   -0.0761    1.1842   -1.5015 H   0  0  0  0  0  0  0  0  0  0  0  0
   -1.2561    1.4921   -0.2277 H   0  0  0  0  0  0  0  0  0  0  0  0
    0.7263    2.2190    0.1647 C   0  0  0  0  0  0  0  0  0  0  0  0
    1.2206    2.1796    1.2838 O   0  0  0  0  0  0  0  0  0  0  0  0
    1.0133    3.2489   -0.6531 O   0  0  0  0  0  0  0  0  0  0  0  0
    1.6287    3.8027   -0.1716 H   0  0  0  0  0  0  0  0  0  0  0  0
    0.5920   -0.2154    1.5497 C   0  0  0  0  0  0  0  0  0  0  0  0
    1.7860   -0.4596    1.7183 O   0  0  0  0  0  0  0  0  0  0  0  0
   -0.2294    0.0669    2.5672 N   0  0  0  0  0  0  0  0  0  0  0  0
   -1.2130    0.1938    2.3518 H   0  0  0  0  0  0  0  0  0  0  0  0
    0.1836    0.1337    3.9673 C   0  0  0  0  0  0  0  0  0  0  0  0
    1.0451    0.7976    4.0666 H   0  0  0  0  0  0  0  0  0  0  0  0
   -0.6344    0.5115    4.5820 H   0  0  0  0  0  0  0  0  0  0  0  0
    0.4676   -0.8609    4.3157 H   0  0  0  0  0  0  0  0  0  0  0  0
  5  6  2  0  0  0  0
  5  7  1  0  0  0  0
  2  3  1  0  0  0  0
  2  4  1  0  0  0  0
  2  5  1  0  0  0  0
  1  2  1  0  0  0  0
 18 19  2  0  0  0  0
 18 20  1  0  0  0  0
 16 17  1  0  0  0  0
 14 15  2  0  0  0  0
 14 16  1  0  0  0  0
 11 12  1  0  0  0  0
 11 13  1  0  0  0  0
 11 14  1  0  0  0  0
  9 10  1  0  0  0  0
  9 11  1  0  0  0  0
  9 18  1  0  0  0  0
  7  8  1  0  0  0  0
  7  9  1  0  0  0  0
 22 23  1  0  0  0  0
 22 24  1  0  0  0  0
 22 25  1  0  0  0  0
 20 21  1  0  0  0  0
 20 22  1  0  0  0  0
M  END
$$$$
default_name
  -OEChem-02102213163D

 25 24  0     1  0  0  0  0  0999 V2000
   -2.7826   -3.8464    0.7821 H   0  0  0  0  0  0  0  0  0  0  0  0
   -2.8156   -2.8034    0.4711 C   0  0  0  0  0  0  0  0  0  0  0  0
   -3.4336   -2.2354    1.1641 H   0  0  0  0  0  0  0  0  0  0  0  0
   -3.2256   -2.7344   -0.5349 H   0  0  0  0  0  0  0  0  0  0  0  0
   -1.4126   -2.2444    0.4801 C   0  0  0  0  0  0  0  0  0  0  0  0
   -0.4686   -2.9534    0.8001 O   0  0  0  0  0  0  0  0  0  0  0  0
   -1.2736   -0.9704    0.1241 N   0  0  0  0  0  0  0  0  0  0  0  0
   -2.0996   -0.4354   -0.1019 H   0  0  0  0  0  0  0  0  0  0  0  0
   -0.0016   -0.2394    0.1271 C   0  0  1  0  0  0  0  0  0  0  0  0
    0.6995   -0.7619   -0.5275 H   0  0  0  0  0  0  0  0  0  0  0  0
   -0.2283    1.1832   -0.4215 C   0  0  0  0  0  0  0  0  0  0  0  0
   -0.0761    1.1842   -1.5015 H   0  0  0  0  0  0  0  0  0  0  0  0
   -1.2561    1.4921   -0.2277 H   0  0  0  0  0  0  0  0  0  0  0  0
    0.7263    2.2190    0.1647 C   0  0  0  0  0  0  0  0  0  0  0  0
    1.4195    2.0653    1.1618 O   0  0  0  0  0  0  0  0  0  0  0  0
    0.7694    3.3879   -0.5015 O   0  0  0  0  0  0  0  0  0  0  0  0
    1.4135    3.9279   -0.0425 H   0  0  0  0  0  0  0  0  0  0  0  0
    0.5920   -0.2154    1.5497 C   0  0  0  0  0  0  0  0  0  0  0  0
    1.7860   -0.4596    1.7183 O   0  0  0  0  0  0  0  0  0  0  0  0
   -0.2294    0.0669    2.5672 N   0  0  0  0  0  0  0  0  0  0  0  0
   -1.2130    0.1938    2.3518 H   0  0  0  0  0  0  0  0  0  0  0  0
    0.1836    0.1337    3.9673 C   0  0  0  0  0  0  0  0  0  0  0  0
    1.0451    0.7976    4.0666 H   0  0  0  0  0  0  0  0  0  0  0  0
   -0.6344    0.5115    4.5820 H   0  0  0  0  0  0  0  0  0  0  0  0
    0.4676   -0.8609    4.3157 H   0  0  0  0  0  0  0  0  0  0  0  0
  5  6  2  0  0  0  0
  5  7  1  0  0  0  0
  2  3  1  0  0  0  0
  2  4  1  0  0  0  0
  2  5  1  0  0  0  0
  1  2  1  0  0  0  0
 18 19  2  0  0  0  0
 18 20  1  0  0  0  0
 16 17  1  0  0  0  0
 14 15  2  0  0  0  0
 14 16  1  0  0  0  0
 11 12  1  0  0  0  0
 11 13  1  0  0  0  0
 11 14  1  0  0  0  0
  9 10  1  0  0  0  0
  9 11  1  0  0  0  0
  9 18  1  0  0  0  0
  7  8  1  0  0  0  0
  7  9  1  0  0  0  0
 22 23  1  0  0  0  0
 22 24  1  0  0  0  0
 22 25  1  0  0  0  0
 20 21  1  0  0  0  0
 20 22  1  0  0  0  0
M  END
$$$$
default_name
  -OEChem-02102213163D

 25 24  0     1  0  0  0  0  0999 V2000
   -2.7826   -3.8464    0.7821 H   0  0  0  0  0  0  0  0  0  0  0  0
   -2.8156   -2.8034    0.4711 C   0  0  0  0  0  0  0  0  0  0  0  0
   -3.4336   -2.2354    1.1641 H   0  0  0  0  0  0  0  0  0  0  0  0
   -3.2256   -2.7344   -0.5349 H   0  0  0  0  0  0  0  0  0  0  0  0
   -1.4126   -2.2444    0.4801 C   0  0  0  0  0  0  0  0  0  0  0  0
   -0.4686   -2.9534    0.8001 O   0  0  0  0  0  0  0  0  0  0  0  0
   -1.2736   -0.9704    0.1241 N   0  0  0  0  0  0  0  0  0  0  0  0
   -2.0996   -0.4354   -0.1019 H   0  0  0  0  0  0  0  0  0  0  0  0
   -0.0016   -0.2394    0.1271 C   0  0  1  0  0  0  0  0  0  0  0  0
    0.6995   -0.7619   -0.5275 H   0  0  0  0  0  0  0  0  0  0  0  0
   -0.2283    1.1832   -0.4215 C   0  0  0  0  0  0  0  0  0  0  0  0
   -0.0761    1.1842   -1.5015 H   0  0  0  0  0  0  0  0  0  0  0  0
   -1.2561    1.4921   -0.2277 H   0  0  0  0  0  0  0  0  0  0  0  0
    0.7263    2.2190    0.1647 C   0  0  0  0  0  0  0  0  0  0  0  0
    1.6016    1.9945    0.9904 O   0  0  0  0  0  0  0  0  0  0  0  0
    0.5467    3.4733   -0.2897 O   0  0  0  0  0  0  0  0  0  0  0  0
    1.2159    4.0066    0.1403 H   0  0  0  0  0  0  0  0  0  0  0  0
    0.5920   -0.2154    1.5497 C   0  0  0  0  0  0  0  0  0  0  0  0
    1.7860   -0.4596    1.7183 O   0  0  0  0  0  0  0  0  0  0  0  0
   -0.2294    0.0669    2.5672 N   0  0  0  0  0  0  0  0  0  0  0  0
   -1.2130    0.1938    2.3518 H   0  0  0  0  0  0  0  0  0  0  0  0
    0.1836    0.1337    3.9673 C   0  0  0  0  0  0  0  0  0  0  0  0
    1.0451    0.7976    4.0666 H   0  0  0  0  0  0  0  0  0  0  0  0
   -0.6344    0.5115    4.5820 H   0  0  0  0  0  0  0  0  0  0  0  0
    0.4676   -0.8609    4.3157 H   0  0  0  0  0  0  0  0  0  0  0  0
  5  6  2  0  0  0  0
  5  7  1  0  0  0  0
  2  3  1  0  0  0  0
  2  4  1  0  0  0  0
  2  5  1  0  0  0  0
  1  2  1  0  0  0  0
 18 19  2  0  0  0  0
 18 20  1  0  0  0  0
 16 17  1  0  0  0  0
 14 15  2  0  0  0  0
 14 16  1  0  0  0  0
 11 12  1  0  0  0  0
 11 13  1  0  0  0  0
 11 14  1  0  0  0  0
  9 10  1  0  0  0  0
  9 11  1  0  0  0  0
  9 18  1  0  0  0  0
  7  8  1  0  0  0  0
  7  9  1  0  0  0  0
 22 23  1  0  0  0  0
 22 24  1  0  0  0  0
 22 25  1  0  0  0  0
 20 21  1  0  0  0  0
 20 22  1  0  0  0  0
M  END
$$$$
default_name
  -OEChem-02102213163D

 25 24  0     1  0  0  0  0  0999 V2000
   -2.7826   -3.8464    0.7821 H   0  0  0  0  0  0  0  0  0  0  0  0
   -2.8156   -2.8034    0.4711 C   0  0  0  0  0  0  0  0  0  0  0  0
   -3.4336   -2.2354    1.1641 H   0  0  0  0  0  0  0  0  0  0  0  0
   -3.2256   -2.7344   -0.5349 H   0  0  0  0  0  0  0  0  0  0  0  0
   -1.4126   -2.2444    0.4801 C   0  0  0  0  0  0  0  0  0  0  0  0
   -0.4686   -2.9534    0.8001 O   0  0  0  0  0  0  0  0  0  0  0  0
   -1.2736   -0.9704    0.1241 N   0  0  0  0  0  0  0  0  0  0  0  0
   -2.0996   -0.4354   -0.1019 H   0  0  0  0  0  0  0  0  0  0  0  0
   -0.0016   -0.2394    0.1271 C   0  0  1  0  0  0  0  0  0  0  0  0
    0.6995   -0.7619   -0.5275 H   0  0  0  0  0  0  0  0  0  0  0  0
   -0.2283    1.1832   -0.4215 C   0  0  0  0  0  0  0  0  0  0  0  0
   -0.0761    1.1842   -1.5015 H   0  0  0  0  0  0  0  0  0  0  0  0
   -1.2561    1.4921   -0.2277 H   0  0  0  0  0  0  0  0  0  0  0  0
    0.7263    2.2190    0.1647 C   0  0  0  0  0  0  0  0  0  0  0  0
    1.7543    1.9720    0.7815 O   0  0  0  0  0  0  0  0  0  0  0  0
    0.3602    3.4993   -0.0321 O   0  0  0  0  0  0  0  0  0  0  0  0
    1.0494    4.0332    0.3644 H   0  0  0  0  0  0  0  0  0  0  0  0
    0.5920   -0.2154    1.5497 C   0  0  0  0  0  0  0  0  0  0  0  0
    1.7860   -0.4596    1.7183 O   0  0  0  0  0  0  0  0  0  0  0  0
   -0.2294    0.0669    2.5672 N   0  0  0  0  0  0  0  0  0  0  0  0
   -1.2130    0.1938    2.3518 H   0  0  0  0  0  0  0  0  0  0  0  0
    0.1836    0.1337    3.9673 C   0  0  0  0  0  0  0  0  0  0  0  0
    1.0451    0.7976    4.0666 H   0  0  0  0  0  0  0  0  0  0  0  0
   -0.6344    0.5115    4.5820 H   0  0  0  0  0  0  0  0  0  0  0  0
    0.4676   -0.8609    4.3157 H   0  0  0  0  0  0  0  0  0  0  0  0
  5  6  2  0  0  0  0
  5  7  1  0  0  0  0
  2  3  1  0  0  0  0
  2  4  1  0  0  0  0
  2  5  1  0  0  0  0
  1  2  1  0  0  0  0
 18 19  2  0  0  0  0
 18 20  1  0  0  0  0
 16 17  1  0  0  0  0
 14 15  2  0  0  0  0
 14 16  1  0  0  0  0
 11 12  1  0  0  0  0
 11 13  1  0  0  0  0
 11 14  1  0  0  0  0
  9 10  1  0  0  0  0
  9 11  1  0  0  0  0
  9 18  1  0  0  0  0
  7  8  1  0  0  0  0
  7  9  1  0  0  0  0
 22 23  1  0  0  0  0
 22 24  1  0  0  0  0
 22 25  1  0  0  0  0
 20 21  1  0  0  0  0
 20 22  1  0  0  0  0
M  END
$$$$
default_name
  -OEChem-02102213163D

 25 24  0     1  0  0  0  0  0999 V2000
   -2.7826   -3.8464    0.7821 H   0  0  0  0  0  0  0  0  0  0  0  0
   -2.8156   -2.8034    0.4711 C   0  0  0  0  0  0  0  0  0  0  0  0
   -3.4336   -2.2354    1.1641 H   0  0  0  0  0  0  0  0  0  0  0  0
   -3.2256   -2.7344   -0.5349 H   0  0  0  0  0  0  0  0  0  0  0  0
   -1.4126   -2.2444    0.4801 C   0  0  0  0  0  0  0  0  0  0  0  0
   -0.4686   -2.9534    0.8001 O   0  0  0  0  0  0  0  0  0  0  0  0
   -1.2736   -0.9704    0.1241 N   0  0  0  0  0  0  0  0  0  0  0  0
   -2.0996   -0.4354   -0.1019 H   0  0  0  0  0  0  0  0  0  0  0  0
   -0.0016   -0.2394    0.1271 C   0  0  1  0  0  0  0  0  0  0  0  0
    0.6995   -0.7619   -0.5275 H   0  0  0  0  0  0  0  0  0  0  0  0
   -0.2283    1.1832   -0.4215 C   0  0  0  0  0  0  0  0  0  0  0  0
   -0.0761    1.1842   -1.5015 H   0  0  0  0  0  0  0  0  0  0  0  0
   -1.2561    1.4921   -0.2277 H   0  0  0  0  0  0  0  0  0  0  0  0
    0.7263    2.2190    0.1647 C   0  0  0  0  0  0  0  0  0  0  0  0
    1.8674    1.9993    0.5492 O   0  0  0  0  0  0  0  0  0  0  0  0
    0.2228    3.4642    0.2536 O   0  0  0  0  0  0  0  0  0  0  0  0
    0.9252    4.0062    0.6144 H   0  0  0  0  0  0  0  0  0  0  0  0
    0.5920   -0.2154    1.5497 C   0  0  0  0  0  0  0  0  0  0  0  0
    1.7860   -0.4596    1.7183 O   0  0  0  0  0  0  0  0  0  0  0  0
   -0.2294    0.0669    2.5672 N   0  0  0  0  0  0  0  0  0  0  0  0
   -1.2130    0.1938    2.3518 H   0  0  0  0  0  0  0  0  0  0  0  0
    0.1836    0.1337    3.9673 C   0  0  0  0  0  0  0  0  0  0  0  0
    1.0451    0.7976    4.0666 H   0  0  0  0  0  0  0  0  0  0  0  0
   -0.6344    0.5115    4.5820 H   0  0  0  0  0  0  0  0  0  0  0  0
    0.4676   -0.8609    4.3157 H   0  0  0  0  0  0  0  0  0  0  0  0
  5  6  2  0  0  0  0
  5  7  1  0  0  0  0
  2  3  1  0  0  0  0
  2  4  1  0  0  0  0
  2  5  1  0  0  0  0
  1  2  1  0  0  0  0
 18 19  2  0  0  0  0
 18 20  1  0  0  0  0
 16 17  1  0  0  0  0
 14 15  2  0  0  0  0
 14 16  1  0  0  0  0
 11 12  1  0  0  0  0
 11 13  1  0  0  0  0
 11 14  1  0  0  0  0
  9 10  1  0  0  0  0
  9 11  1  0  0  0  0
  9 18  1  0  0  0  0
  7  8  1  0  0  0  0
  7  9  1  0  0  0  0
 22 23  1  0  0  0  0
 22 24  1  0  0  0  0
 22 25  1  0  0  0  0
 20 21  1  0  0  0  0
 20 22  1  0  0  0  0
M  END
$$$$
default_name
  -OEChem-02102213163D

 25 24  0     1  0  0  0  0  0999 V2000
   -2.7826   -3.8464    0.7821 H   0  0  0  0  0  0  0  0  0  0  0  0
   -2.8156   -2.8034    0.4711 C   0  0  0  0  0  0  0  0  0  0  0  0
   -3.4336   -2.2354    1.1641 H   0  0  0  0  0  0  0  0  0  0  0  0
   -3.2256   -2.7344   -0.5349 H   0  0  0  0  0  0  0  0  0  0  0  0
   -1.4126   -2.2444    0.4801 C   0  0  0  0  0  0  0  0  0  0  0  0
   -0.4686   -2.9534    0.8001 O   0  0  0  0  0  0  0  0  0  0  0  0
   -1.2736   -0.9704    0.1241 N   0  0  0  0  0  0  0  0  0  0  0  0
   -2.0996   -0.4354   -0.1019 H   0  0  0  0  0  0  0  0  0  0  0  0
   -0.0016   -0.2394    0.1271 C   0  0  1  0  0  0  0  0  0  0  0  0
    0.6995   -0.7619   -0.5275 H   0  0  0  0  0  0  0  0  0  0  0  0
   -0.2283    1.1832   -0.4215 C   0  0  0  0  0  0  0  0  0  0  0  0
   -0.0761    1.1842   -1.5015 H   0  0  0  0  0  0  0  0  0  0  0  0
   -1.2561    1.4921   -0.2277 H   0  0  0  0  0  0  0  0  0  0  0  0
    0.7263    2.2190    0.1647 C   0  0  0  0  0  0  0  0  0  0  0  0
    1.9331    2.0745    0.3093 O   0  0  0  0  0  0  0  0  0  0  0  0
    0.1438    3.3704    0.5481 O   0  0  0  0  0  0  0  0  0  0  0  0
    0.8519    3.9272    0.8733 H   0  0  0  0  0  0  0  0  0  0  0  0
    0.5920   -0.2154    1.5497 C   0  0  0  0  0  0  0  0  0  0  0  0
    1.7860   -0.4596    1.7183 O   0  0  0  0  0  0  0  0  0  0  0  0
   -0.2294    0.0669    2.5672 N   0  0  0  0  0  0  0  0  0  0  0  0
   -1.2130    0.1938    2.3518 H   0  0  0  0  0  0  0  0  0  0  0  0
    0.1836    0.1337    3.9673 C   0  0  0  0  0  0  0  0  0  0  0  0
    1.0451    0.7976    4.0666 H   0  0  0  0  0  0  0  0  0  0  0  0
   -0.6344    0.5115    4.5820 H   0  0  0  0  0  0  0  0  0  0  0  0
    0.4676   -0.8609    4.3157 H   0  0  0  0  0  0  0  0  0  0  0  0
  5  6  2  0  0  0  0
  5  7  1  0  0  0  0
  2  3  1  0  0  0  0
  2  4  1  0  0  0  0
  2  5  1  0  0  0  0
  1  2  1  0  0  0  0
 18 19  2  0  0  0  0
 18 20  1  0  0  0  0
 16 17  1  0  0  0  0
 14 15  2  0  0  0  0
 14 16  1  0  0  0  0
 11 12  1  0  0  0  0
 11 13  1  0  0  0  0
 11 14  1  0  0  0  0
  9 10  1  0  0  0  0
  9 11  1  0  0  0  0
  9 18  1  0  0  0  0
  7  8  1  0  0  0  0
  7  9  1  0  0  0  0
 22 23  1  0  0  0  0
 22 24  1  0  0  0  0
 22 25  1  0  0  0  0
 20 21  1  0  0  0  0
 20 22  1  0  0  0  0
M  END
$$$$
default_name
  -OEChem-02102213163D

 25 24  0     1  0  0  0  0  0999 V2000
   -2.7826   -3.8464    0.7821 H   0  0  0  0  0  0  0  0  0  0  0  0
   -2.8156   -2.8034    0.4711 C   0  0  0  0  0  0  0  0  0  0  0  0
   -3.4336   -2.2354    1.1641 H   0  0  0  0  0  0  0  0  0  0  0  0
   -3.2256   -2.7344   -0.5349 H   0  0  0  0  0  0  0  0  0  0  0  0
   -1.4126   -2.2444    0.4801 C   0  0  0  0  0  0  0  0  0  0  0  0
   -0.4686   -2.9534    0.8001 O   0  0  0  0  0  0  0  0  0  0  0  0
   -1.2736   -0.9704    0.1241 N   0  0  0  0  0  0  0  0  0  0  0  0
   -2.0996   -0.4354   -0.1019 H   0  0  0  0  0  0  0  0  0  0  0  0
   -0.0016   -0.2394    0.1271 C   0  0  1  0  0  0  0  0  0  0  0  0
    0.6995   -0.7619   -0.5275 H   0  0  0  0  0  0  0  0  0  0  0  0
   -0.2283    1.1832   -0.4215 C   0  0  0  0  0  0  0  0  0  0  0  0
   -0.0761    1.1842   -1.5015 H   0  0  0  0  0  0  0  0  0  0  0  0
   -1.2561    1.4921   -0.2277 H   0  0  0  0  0  0  0  0  0  0  0  0
    0.7263    2.2190    0.1647 C   0  0  0  0  0  0  0  0  0  0  0  0
    1.9470    2.1925    0.0783 O   0  0  0  0  0  0  0  0  0  0  0  0
    0.1285    3.2242    0.8312 O   0  0  0  0  0  0  0  0  0  0  0  0
    0.8344    3.8017    1.1234 H   0  0  0  0  0  0  0  0  0  0  0  0
    0.5920   -0.2154    1.5497 C   0  0  0  0  0  0  0  0  0  0  0  0
    1.7860   -0.4596    1.7183 O   0  0  0  0  0  0  0  0  0  0  0  0
   -0.2294    0.0669    2.5672 N   0  0  0  0  0  0  0  0  0  0  0  0
   -1.2130    0.1938    2.3518 H   0  0  0  0  0  0  0  0  0  0  0  0
    0.1836    0.1337    3.9673 C   0  0  0  0  0  0  0  0  0  0  0  0
    1.0451    0.7976    4.0666 H   0  0  0  0  0  0  0  0  0  0  0  0
   -0.6344    0.5115    4.5820 H   0  0  0  0  0  0  0  0  0  0  0  0
    0.4676   -0.8609    4.3157 H   0  0  0  0  0  0  0  0  0  0  0  0
  5  6  2  0  0  0  0
  5  7  1  0  0  0  0
  2  3  1  0  0  0  0
  2  4  1  0  0  0  0
  2  5  1  0  0  0  0
  1  2  1  0  0  0  0
 18 19  2  0  0  0  0
 18 20  1  0  0  0  0
 16 17  1  0  0  0  0
 14 15  2  0  0  0  0
 14 16  1  0  0  0  0
 11 12  1  0  0  0  0
 11 13  1  0  0  0  0
 11 14  1  0  0  0  0
  9 10  1  0  0  0  0
  9 11  1  0  0  0  0
  9 18  1  0  0  0  0
  7  8  1  0  0  0  0
  7  9  1  0  0  0  0
 22 23  1  0  0  0  0
 22 24  1  0  0  0  0
 22 25  1  0  0  0  0
 20 21  1  0  0  0  0
 20 22  1  0  0  0  0
M  END
$$$$
default_name
  -OEChem-02102213163D

 25 24  0     1  0  0  0  0  0999 V2000
   -2.7826   -3.8464    0.7821 H   0  0  0  0  0  0  0  0  0  0  0  0
   -2.8156   -2.8034    0.4711 C   0  0  0  0  0  0  0  0  0  0  0  0
   -3.4336   -2.2354    1.1641 H   0  0  0  0  0  0  0  0  0  0  0  0
   -3.2256   -2.7344   -0.5349 H   0  0  0  0  0  0  0  0  0  0  0  0
   -1.4126   -2.2444    0.4801 C   0  0  0  0  0  0  0  0  0  0  0  0
   -0.4686   -2.9534    0.8001 O   0  0  0  0  0  0  0  0  0  0  0  0
   -1.2736   -0.9704    0.1241 N   0  0  0  0  0  0  0  0  0  0  0  0
   -2.0996   -0.4354   -0.1019 H   0  0  0  0  0  0  0  0  0  0  0  0
   -0.0016   -0.2394    0.1271 C   0  0  1  0  0  0  0  0  0  0  0  0
    0.6995   -0.7619   -0.5275 H   0  0  0  0  0  0  0  0  0  0  0  0
   -0.2283    1.1832   -0.4215 C   0  0  0  0  0  0  0  0  0  0  0  0
   -0.0761    1.1842   -1.5015 H   0  0  0  0  0  0  0  0  0  0  0  0
   -1.2561    1.4921   -0.2277 H   0  0  0  0  0  0  0  0  0  0  0  0
    0.7263    2.2190    0.1647 C   0  0  0  0  0  0  0  0  0  0  0  0
    1.9080    2.3453   -0.1282 O   0  0  0  0  0  0  0  0  0  0  0  0
    0.1780    3.0356    1.0837 O   0  0  0  0  0  0  0  0  0  0  0  0
    0.8740    3.6382    1.3478 H   0  0  0  0  0  0  0  0  0  0  0  0
    0.5920   -0.2154    1.5497 C   0  0  0  0  0  0  0  0  0  0  0  0
    1.7860   -0.4596    1.7183 O   0  0  0  0  0  0  0  0  0  0  0  0
   -0.2294    0.0669    2.5672 N   0  0  0  0  0  0  0  0  0  0  0  0
   -1.2130    0.1938    2.3518 H   0  0  0  0  0  0  0  0  0  0  0  0
    0.1836    0.1337    3.9673 C   0  0  0  0  0  0  0  0  0  0  0  0
    1.0451    0.7976    4.0666 H   0  0  0  0  0  0  0  0  0  0  0  0
   -0.6344    0.5115    4.5820 H   0  0  0  0  0  0  0  0  0  0  0  0
    0.4676   -0.8609    4.3157 H   0  0  0  0  0  0  0  0  0  0  0  0
  5  6  2  0  0  0  0
  5  7  1  0  0  0  0
  2  3  1  0  0  0  0
  2  4  1  0  0  0  0
  2  5  1  0  0  0  0
  1  2  1  0  0  0  0
 18 19  2  0  0  0  0
 18 20  1  0  0  0  0
 16 17  1  0  0  0  0
 14 15  2  0  0  0  0
 14 16  1  0  0  0  0
 11 12  1  0  0  0  0
 11 13  1  0  0  0  0
 11 14  1  0  0  0  0
  9 10  1  0  0  0  0
  9 11  1  0  0  0  0
  9 18  1  0  0  0  0
  7  8  1  0  0  0  0
  7  9  1  0  0  0  0
 22 23  1  0  0  0  0
 22 24  1  0  0  0  0
 22 25  1  0  0  0  0
 20 21  1  0  0  0  0
 20 22  1  0  0  0  0
M  END
$$$$
default_name
  -OEChem-02102213163D

 25 24  0     1  0  0  0  0  0999 V2000
   -2.7826   -3.8464    0.7821 H   0  0  0  0  0  0  0  0  0  0  0  0
   -2.8156   -2.8034    0.4711 C   0  0  0  0  0  0  0  0  0  0  0  0
   -3.4336   -2.2354    1.1641 H   0  0  0  0  0  0  0  0  0  0  0  0
   -3.2256   -2.7344   -0.5349 H   0  0  0  0  0  0  0  0  0  0  0  0
   -1.4126   -2.2444    0.4801 C   0  0  0  0  0  0  0  0  0  0  0  0
   -0.4686   -2.9534    0.8001 O   0  0  0  0  0  0  0  0  0  0  0  0
   -1.2736   -0.9704    0.1241 N   0  0  0  0  0  0  0  0  0  0  0  0
   -2.0996   -0.4354   -0.1019 H   0  0  0  0  0  0  0  0  0  0  0  0
   -0.0016   -0.2394    0.1271 C   0  0  1  0  0  0  0  0  0  0  0  0
    0.6995   -0.7619   -0.5275 H   0  0  0  0  0  0  0  0  0  0  0  0
   -0.2283    1.1832   -0.4215 C   0  0  0  0  0  0  0  0  0  0  0  0
   -0.0761    1.1842   -1.5015 H   0  0  0  0  0  0  0  0  0  0  0  0
   -1.2561    1.4921   -0.2277 H   0  0  0  0  0  0  0  0  0  0  0  0
    0.7263    2.2190    0.1647 C   0  0  0  0  0  0  0  0  0  0  0  0
    1.8189    2.5225   -0.2961 O   0  0  0  0  0  0  0  0  0  0  0  0
    0.2890    2.8175    1.2883 O   0  0  0  0  0  0  0  0  0  0  0  0
    0.9679    3.4479    1.5312 H   0  0  0  0  0  0  0  0  0  0  0  0
    0.5920   -0.2154    1.5497 C   0  0  0  0  0  0  0  0  0  0  0  0
    1.7860   -0.4596    1.7183 O   0  0  0  0  0  0  0  0  0  0  0  0
   -0.2294    0.0669    2.5672 N   0  0  0  0  0  0  0  0  0  0  0  0
   -1.2130    0.1938    2.3518 H   0  0  0  0  0  0  0  0  0  0  0  0
    0.1836    0.1337    3.9673 C   0  0  0  0  0  0  0  0  0  0  0  0
    1.0451    0.7976    4.0666 H   0  0  0  0  0  0  0  0  0  0  0  0
   -0.6344    0.5115    4.5820 H   0  0  0  0  0  0  0  0  0  0  0  0
    0.4676   -0.8609    4.3157 H   0  0  0  0  0  0  0  0  0  0  0  0
  5  6  2  0  0  0  0
  5  7  1  0  0  0  0
  2  3  1  0  0  0  0
  2  4  1  0  0  0  0
  2  5  1  0  0  0  0
  1  2  1  0  0  0  0
 18 19  2  0  0  0  0
 18 20  1  0  0  0  0
 16 17  1  0  0  0  0
 14 15  2  0  0  0  0
 14 16  1  0  0  0  0
 11 12  1  0  0  0  0
 11 13  1  0  0  0  0
 11 14  1  0  0  0  0
  9 10  1  0  0  0  0
  9 11  1  0  0  0  0
  9 18  1  0  0  0  0
  7  8  1  0  0  0  0
  7  9  1  0  0  0  0
 22 23  1  0  0  0  0
 22 24  1  0  0  0  0
 22 25  1  0  0  0  0
 20 21  1  0  0  0  0
 20 22  1  0  0  0  0
M  END
$$$$
default_name
  -OEChem-02102213163D

 25 24  0     1  0  0  0  0  0999 V2000
   -2.7826   -3.8464    0.7821 H   0  0  0  0  0  0  0  0  0  0  0  0
   -2.8156   -2.8034    0.4711 C   0  0  0  0  0  0  0  0  0  0  0  0
   -3.4336   -2.2354    1.1641 H   0  0  0  0  0  0  0  0  0  0  0  0
   -3.2256   -2.7344   -0.5349 H   0  0  0  0  0  0  0  0  0  0  0  0
   -1.4126   -2.2444    0.4801 C   0  0  0  0  0  0  0  0  0  0  0  0
   -0.4686   -2.9534    0.8001 O   0  0  0  0  0  0  0  0  0  0  0  0
   -1.2736   -0.9704    0.1241 N   0  0  0  0  0  0  0  0  0  0  0  0
   -2.0996   -0.4354   -0.1019 H   0  0  0  0  0  0  0  0  0  0  0  0
   -0.0016   -0.2394    0.1271 C   0  0  1  0  0  0  0  0  0  0  0  0
    0.6995   -0.7619   -0.5275 H   0  0  0  0  0  0  0  0  0  0  0  0
   -0.2283    1.1832   -0.4215 C   0  0  0  0  0  0  0  0  0  0  0  0
   -0.0761    1.1842   -1.5015 H   0  0  0  0  0  0  0  0  0  0  0  0
   -1.2561    1.4921   -0.2277 H   0  0  0  0  0  0  0  0  0  0  0  0
    0.7263    2.2190    0.1647 C   0  0  0  0  0  0  0  0  0  0  0  0
    1.6857    2.7119   -0.4139 O   0  0  0  0  0  0  0  0  0  0  0  0
    0.4538    2.5848    1.4312 O   0  0  0  0  0  0  0  0  0  0  0  0
    1.1097    3.2437    1.6609 H   0  0  0  0  0  0  0  0  0  0  0  0
    0.5920   -0.2154    1.5497 C   0  0  0  0  0  0  0  0  0  0  0  0
    1.7860   -0.4596    1.7183 O   0  0  0  0  0  0  0  0  0  0  0  0
   -0.2294    0.0669    2.5672 N   0  0  0  0  0  0  0  0  0  0  0  0
   -1.2130    0.1938    2.3518 H   0  0  0  0  0  0  0  0  0  0  0  0
    0.1836    0.1337    3.9673 C   0  0  0  0  0  0  0  0  0  0  0  0
    1.0451    0.7976    4.0666 H   0  0  0  0  0  0  0  0  0  0  0  0
   -0.6344    0.5115    4.5820 H   0  0  0  0  0  0  0  0  0  0  0  0
    0.4676   -0.8609    4.3157 H   0  0  0  0  0  0  0  0  0  0  0  0
  5  6  2  0  0  0  0
  5  7  1  0  0  0  0
  2  3  1  0  0  0  0
  2  4  1  0  0  0  0
  2  5  1  0  0  0  0
  1  2  1  0  0  0  0
 18 19  2  0  0  0  0
 18 20  1  0  0  0  0
 16 17  1  0  0  0  0
 14 15  2  0  0  0  0
 14 16  1  0  0  0  0
 11 12  1  0  0  0  0
 11 13  1  0  0  0  0
 11 14  1  0  0  0  0
  9 10  1  0  0  0  0
  9 11  1  0  0  0  0
  9 18  1  0  0  0  0
  7  8  1  0  0  0  0
  7  9  1  0  0  0  0
 22 23  1  0  0  0  0
 22 24  1  0  0  0  0
 22 25  1  0  0  0  0
 20 21  1  0  0  0  0
 20 22  1  0  0  0  0
M  END
$$$$
default_name
  -OEChem-02102213163D

 25 24  0     1  0  0  0  0  0999 V2000
   -2.7826   -3.8464    0.7821 H   0  0  0  0  0  0  0  0  0  0  0  0
   -2.8156   -2.8034    0.4711 C   0  0  0  0  0  0  0  0  0  0  0  0
   -3.4336   -2.2354    1.1641 H   0  0  0  0  0  0  0  0  0  0  0  0
   -3.2256   -2.7344   -0.5349 H   0  0  0  0  0  0  0  0  0  0  0  0
   -1.4126   -2.2444    0.4801 C   0  0  0  0  0  0  0  0  0  0  0  0
   -0.4686   -2.9534    0.8001 O   0  0  0  0  0  0  0  0  0  0  0  0
   -1.2736   -0.9704    0.1241 N   0  0  0  0  0  0  0  0  0  0  0  0
   -2.0996   -0.4354   -0.1019 H   0  0  0  0  0  0  0  0  0  0  0  0
   -0.0016   -0.2394    0.1271 C   0  0  1  0  0  0  0  0  0  0  0  0
    0.6995   -0.7619   -0.5275 H   0  0  0  0  0  0  0  0  0  0  0  0
   -0.2283    1.1832   -0.4215 C   0  0  0  0  0  0  0  0  0  0  0  0
   -0.0761    1.1842   -1.5015 H   0  0  0  0  0  0  0  0  0  0  0  0
   -1.2561    1.4921   -0.2277 H   0  0  0  0  0  0  0  0  0  0  0  0
    0.7263    2.2190    0.1647 C   0  0  0  0  0  0  0  0  0  0  0  0
    1.5175    2.9007   -0.4736 O   0  0  0  0  0  0  0  0  0  0  0  0
    0.6613    2.3532    1.5026 O   0  0  0  0  0  0  0  0  0  0  0  0
    1.2899    3.0396    1.7283 H   0  0  0  0  0  0  0  0  0  0  0  0
    0.5920   -0.2154    1.5497 C   0  0  0  0  0  0  0  0  0  0  0  0
    1.7860   -0.4596    1.7183 O   0  0  0  0  0  0  0  0  0  0  0  0
   -0.2294    0.0669    2.5672 N   0  0  0  0  0  0  0  0  0  0  0  0
   -1.2130    0.1938    2.3518 H   0  0  0  0  0  0  0  0  0  0  0  0
    0.1836    0.1337    3.9673 C   0  0  0  0  0  0  0  0  0  0  0  0
    1.0451    0.7976    4.0666 H   0  0  0  0  0  0  0  0  0  0  0  0
   -0.6344    0.5115    4.5820 H   0  0  0  0  0  0  0  0  0  0  0  0
    0.4676   -0.8609    4.3157 H   0  0  0  0  0  0  0  0  0  0  0  0
  5  6  2  0  0  0  0
  5  7  1  0  0  0  0
  2  3  1  0  0  0  0
  2  4  1  0  0  0  0
  2  5  1  0  0  0  0
  1  2  1  0  0  0  0
 18 19  2  0  0  0  0
 18 20  1  0  0  0  0
 16 17  1  0  0  0  0
 14 15  2  0  0  0  0
 14 16  1  0  0  0  0
 11 12  1  0  0  0  0
 11 13  1  0  0  0  0
 11 14  1  0  0  0  0
  9 10  1  0  0  0  0
  9 11  1  0  0  0  0
  9 18  1  0  0  0  0
  7  8  1  0  0  0  0
  7  9  1  0  0  0  0
 22 23  1  0  0  0  0
 22 24  1  0  0  0  0
 22 25  1  0  0  0  0
 20 21  1  0  0  0  0
 20 22  1  0  0  0  0
M  END
$$$$
default_name
  -OEChem-02102213163D

 25 24  0     1  0  0  0  0  0999 V2000
   -2.7826   -3.8464    0.7821 H   0  0  0  0  0  0  0  0  0  0  0  0
   -2.8156   -2.8034    0.4711 C   0  0  0  0  0  0  0  0  0  0  0  0
   -3.4336   -2.2354    1.1641 H   0  0  0  0  0  0  0  0  0  0  0  0
   -3.2256   -2.7344   -0.5349 H   0  0  0  0  0  0  0  0  0  0  0  0
   -1.4126   -2.2444    0.4801 C   0  0  0  0  0  0  0  0  0  0  0  0
   -0.4686   -2.9534    0.8001 O   0  0  0  0  0  0  0  0  0  0  0  0
   -1.2736   -0.9704    0.1241 N   0  0  0  0  0  0  0  0  0  0  0  0
   -2.0996   -0.4354   -0.1019 H   0  0  0  0  0  0  0  0  0  0  0  0
   -0.0016   -0.2394    0.1271 C   0  0  1  0  0  0  0  0  0  0  0  0
    0.6995   -0.7619   -0.5275 H   0  0  0  0  0  0  0  0  0  0  0  0
   -0.2283    1.1832   -0.4215 C   0  0  0  0  0  0  0  0  0  0  0  0
   -0.0761    1.1842   -1.5015 H   0  0  0  0  0  0  0  0  0  0  0  0
   -1.2561    1.4921   -0.2277 H   0  0  0  0  0  0  0  0  0  0  0  0
    0.7263    2.2190    0.1647 C   0  0  0  0  0  0  0  0  0  0  0  0
    1.3257    3.0760   -0.4712 O   0  0  0  0  0  0  0  0  0  0  0  0
    0.8973    2.1386    1.4975 O   0  0  0  0  0  0  0  0  0  0  0  0
    1.4960    2.8495    1.7287 H   0  0  0  0  0  0  0  0  0  0  0  0
    0.5920   -0.2154    1.5497 C   0  0  0  0  0  0  0  0  0  0  0  0
    1.7860   -0.4596    1.7183 O   0  0  0  0  0  0  0  0  0  0  0  0
   -0.2294    0.0669    2.5672 N   0  0  0  0  0  0  0  0  0  0  0  0
   -1.2130    0.1938    2.3518 H   0  0  0  0  0  0  0  0  0  0  0  0
    0.1836    0.1337    3.9673 C   0  0  0  0  0  0  0  0  0  0  0  0
    1.0451    0.7976    4.0666 H   0  0  0  0  0  0  0  0  0  0  0  0
   -0.6344    0.5115    4.5820 H   0  0  0  0  0  0  0  0  0  0  0  0
    0.4676   -0.8609    4.3157 H   0  0  0  0  0  0  0  0  0  0  0  0
  5  6  2  0  0  0  0
  5  7  1  0  0  0  0
  2  3  1  0  0  0  0
  2  4  1  0  0  0  0
  2  5  1  0  0  0  0
  1  2  1  0  0  0  0
 18 19  2  0  0  0  0
 18 20  1  0  0  0  0
 16 17  1  0  0  0  0
 14 15  2  0  0  0  0
 14 16  1  0  0  0  0
 11 12  1  0  0  0  0
 11 13  1  0  0  0  0
 11 14  1  0  0  0  0
  9 10  1  0  0  0  0
  9 11  1  0  0  0  0
  9 18  1  0  0  0  0
  7  8  1  0  0  0  0
  7  9  1  0  0  0  0
 22 23  1  0  0  0  0
 22 24  1  0  0  0  0
 22 25  1  0  0  0  0
 20 21  1  0  0  0  0
 20 22  1  0  0  0  0
M  END
$$$$
default_name
  -OEChem-02102213163D

 25 24  0     1  0  0  0  0  0999 V2000
   -2.7826   -3.8464    0.7821 H   0  0  0  0  0  0  0  0  0  0  0  0
   -2.8156   -2.8034    0.4711 C   0  0  0  0  0  0  0  0  0  0  0  0
   -3.4336   -2.2354    1.1641 H   0  0  0  0  0  0  0  0  0  0  0  0
   -3.2256   -2.7344   -0.5349 H   0  0  0  0  0  0  0  0  0  0  0  0
   -1.4126   -2.2444    0.4801 C   0  0  0  0  0  0  0  0  0  0  0  0
   -0.4686   -2.9534    0.8001 O   0  0  0  0  0  0  0  0  0  0  0  0
   -1.2736   -0.9704    0.1241 N   0  0  0  0  0  0  0  0  0  0  0  0
   -2.0996   -0.4354   -0.1019 H   0  0  0  0  0  0  0  0  0  0  0  0
   -0.0016   -0.2394    0.1271 C   0  0  1  0  0  0  0  0  0  0  0  0
    0.6995   -0.7619   -0.5275 H   0  0  0  0  0  0  0  0  0  0  0  0
   -0.2283    1.1832   -0.4215 C   0  0  0  0  0  0  0  0  0  0  0  0
   -0.0761    1.1842   -1.5015 H   0  0  0  0  0  0  0  0  0  0  0  0
   -1.2561    1.4921   -0.2277 H   0  0  0  0  0  0  0  0  0  0  0  0
    0.7263    2.2190    0.1647 C   0  0  0  0  0  0  0  0  0  0  0  0
    1.1235    3.2259   -0.4067 O   0  0  0  0  0  0  0  0  0  0  0  0
    1.1457    1.9556    1.4164 O   0  0  0  0  0  0  0  0  0  0  0  0
    1.7140    2.6862    1.6620 H   0  0  0  0  0  0  0  0  0  0  0  0
    0.5920   -0.2154    1.5497 C   0  0  0  0  0  0  0  0  0  0  0  0
    1.7860   -0.4596    1.7183 O   0  0  0  0  0  0  0  0  0  0  0  0
   -0.2294    0.0669    2.5672 N   0  0  0  0  0  0  0  0  0  0  0  0
   -1.2130    0.1938    2.3518 H   0  0  0  0  0  0  0  0  0  0  0  0
    0.1836    0.1337    3.9673 C   0  0  0  0  0  0  0  0  0  0  0  0
    1.0451    0.7976    4.0666 H   0  0  0  0  0  0  0  0  0  0  0  0
   -0.6344    0.5115    4.5820 H   0  0  0  0  0  0  0  0  0  0  0  0
    0.4676   -0.8609    4.3157 H   0  0  0  0  0  0  0  0  0  0  0  0
  5  6  2  0  0  0  0
  5  7  1  0  0  0  0
  2  3  1  0  0  0  0
  2  4  1  0  0  0  0
  2  5  1  0  0  0  0
  1  2  1  0  0  0  0
 18 19  2  0  0  0  0
 18 20  1  0  0  0  0
 16 17  1  0  0  0  0
 14 15  2  0  0  0  0
 14 16  1  0  0  0  0
 11 12  1  0  0  0  0
 11 13  1  0  0  0  0
 11 14  1  0  0  0  0
  9 10  1  0  0  0  0
  9 11  1  0  0  0  0
  9 18  1  0  0  0  0
  7  8  1  0  0  0  0
  7  9  1  0  0  0  0
 22 23  1  0  0  0  0
 22 24  1  0  0  0  0
 22 25  1  0  0  0  0
 20 21  1  0  0  0  0
 20 22  1  0  0  0  0
M  END
$$$$
default_name
  -OEChem-02102213163D

 25 24  0     1  0  0  0  0  0999 V2000
   -2.7826   -3.8464    0.7821 H   0  0  0  0  0  0  0  0  0  0  0  0
   -2.8156   -2.8034    0.4711 C   0  0  0  0  0  0  0  0  0  0  0  0
   -3.4336   -2.2354    1.1641 H   0  0  0  0  0  0  0  0  0  0  0  0
   -3.2256   -2.7344   -0.5349 H   0  0  0  0  0  0  0  0  0  0  0  0
   -1.4126   -2.2444    0.4801 C   0  0  0  0  0  0  0  0  0  0  0  0
   -0.4686   -2.9534    0.8001 O   0  0  0  0  0  0  0  0  0  0  0  0
   -1.2736   -0.9704    0.1241 N   0  0  0  0  0  0  0  0  0  0  0  0
   -2.0996   -0.4354   -0.1019 H   0  0  0  0  0  0  0  0  0  0  0  0
   -0.0016   -0.2394    0.1271 C   0  0  1  0  0  0  0  0  0  0  0  0
    0.6995   -0.7619   -0.5275 H   0  0  0  0  0  0  0  0  0  0  0  0
   -0.2283    1.1832   -0.4215 C   0  0  0  0  0  0  0  0  0  0  0  0
   -0.0761    1.1842   -1.5015 H   0  0  0  0  0  0  0  0  0  0  0  0
   -1.2561    1.4921   -0.2277 H   0  0  0  0  0  0  0  0  0  0  0  0
    0.7263    2.2190    0.1647 C   0  0  0  0  0  0  0  0  0  0  0  0
    0.9246    3.3401   -0.2847 O   0  0  0  0  0  0  0  0  0  0  0  0
    1.3895    1.8166    1.2648 O   0  0  0  0  0  0  0  0  0  0  0  0
    1.9292    2.5610    1.5329 H   0  0  0  0  0  0  0  0  0  0  0  0
    0.5920   -0.2154    1.5497 C   0  0  0  0  0  0  0  0  0  0  0  0
    1.7860   -0.4596    1.7183 O   0  0  0  0  0  0  0  0  0  0  0  0
   -0.2294    0.0669    2.5672 N   0  0  0  0  0  0  0  0  0  0  0  0
   -1.2130    0.1938    2.3518 H   0  0  0  0  0  0  0  0  0  0  0  0
    0.1836    0.1337    3.9673 C   0  0  0  0  0  0  0  0  0  0  0  0
    1.0451    0.7976    4.0666 H   0  0  0  0  0  0  0  0  0  0  0  0
   -0.6344    0.5115    4.5820 H   0  0  0  0  0  0  0  0  0  0  0  0
    0.4676   -0.8609    4.3157 H   0  0  0  0  0  0  0  0  0  0  0  0
  5  6  2  0  0  0  0
  5  7  1  0  0  0  0
  2  3  1  0  0  0  0
  2  4  1  0  0  0  0
  2  5  1  0  0  0  0
  1  2  1  0  0  0  0
 18 19  2  0  0  0  0
 18 20  1  0  0  0  0
 16 17  1  0  0  0  0
 14 15  2  0  0  0  0
 14 16  1  0  0  0  0
 11 12  1  0  0  0  0
 11 13  1  0  0  0  0
 11 14  1  0  0  0  0
  9 10  1  0  0  0  0
  9 11  1  0  0  0  0
  9 18  1  0  0  0  0
  7  8  1  0  0  0  0
  7  9  1  0  0  0  0
 22 23  1  0  0  0  0
 22 24  1  0  0  0  0
 22 25  1  0  0  0  0
 20 21  1  0  0  0  0
 20 22  1  0  0  0  0
M  END
$$$$
default_name
  -OEChem-02102213163D

 25 24  0     1  0  0  0  0  0999 V2000
   -2.7826   -3.8464    0.7821 H   0  0  0  0  0  0  0  0  0  0  0  0
   -2.8156   -2.8034    0.4711 C   0  0  0  0  0  0  0  0  0  0  0  0
   -3.4336   -2.2354    1.1641 H   0  0  0  0  0  0  0  0  0  0  0  0
   -3.2256   -2.7344   -0.5349 H   0  0  0  0  0  0  0  0  0  0  0  0
   -1.4126   -2.2444    0.4801 C   0  0  0  0  0  0  0  0  0  0  0  0
   -0.4686   -2.9534    0.8001 O   0  0  0  0  0  0  0  0  0  0  0  0
   -1.2736   -0.9704    0.1241 N   0  0  0  0  0  0  0  0  0  0  0  0
   -2.0996   -0.4354   -0.1019 H   0  0  0  0  0  0  0  0  0  0  0  0
   -0.0016   -0.2394    0.1271 C   0  0  1  0  0  0  0  0  0  0  0  0
    0.6995   -0.7619   -0.5275 H   0  0  0  0  0  0  0  0  0  0  0  0
   -0.2283    1.1832   -0.4215 C   0  0  0  0  0  0  0  0  0  0  0  0
   -0.3410    1.1405   -1.5055 H   0  0  0  0  0  0  0  0  0  0  0  0
   -1.1482    1.5952   -0.0050 H   0  0  0  0  0  0  0  0  0  0  0  0
    0.9262    2.1372   -0.1300 C   0  0  0  0  0  0  0  0  0  0  0  0
    0.9793    3.3140   -0.4624 O   0  0  0  0  0  0  0  0  0  0  0  0
    1.9537    1.5900    0.5458 O   0  0  0  0  0  0  0  0  0  0  0  0
    2.5883    2.2956    0.6750 H   0  0  0  0  0  0  0  0  0  0  0  0
    0.5920   -0.2154    1.5497 C   0  0  0  0  0  0  0  0  0  0  0  0
    1.7860   -0.4596    1.7183 O   0  0  0  0  0  0  0  0  0  0  0  0
   -0.2294    0.0669    2.5672 N   0  0  0  0  0  0  0  0  0  0  0  0
   -1.2130    0.1938    2.3518 H   0  0  0  0  0  0  0  0  0  0  0  0
    0.1836    0.1337    3.9673 C   0  0  0  0  0  0  0  0  0  0  0  0
    1.0451    0.7976    4.0666 H   0  0  0  0  0  0  0  0  0  0  0  0
   -0.6344    0.5115    4.5820 H   0  0  0  0  0  0  0  0  0  0  0  0
    0.4676   -0.8609    4.3157 H   0  0  0  0  0  0  0  0  0  0  0  0
  5  6  2  0  0  0  0
  5  7  1  0  0  0  0
  2  3  1  0  0  0  0
  2  4  1  0  0  0  0
  2  5  1  0  0  0  0
  1  2  1  0  0  0  0
 18 19  2  0  0  0  0
 18 20  1  0  0  0  0
 16 17  1  0  0  0  0
 14 15  2  0  0  0  0
 14 16  1  0  0  0  0
 11 12  1  0  0  0  0
 11 13  1  0  0  0  0
 11 14  1  0  0  0  0
  9 10  1  0  0  0  0
  9 11  1  0  0  0  0
  9 18  1  0  0  0  0
  7  8  1  0  0  0  0
  7  9  1  0  0  0  0
 22 23  1  0  0  0  0
 22 24  1  0  0  0  0
 22 25  1  0  0  0  0
 20 21  1  0  0  0  0
 20 22  1  0  0  0  0
M  END
$$$$
default_name
  -OEChem-02102213163D

 25 24  0     1  0  0  0  0  0999 V2000
   -2.7826   -3.8464    0.7821 H   0  0  0  0  0  0  0  0  0  0  0  0
   -2.8156   -2.8034    0.4711 C   0  0  0  0  0  0  0  0  0  0  0  0
   -3.4336   -2.2354    1.1641 H   0  0  0  0  0  0  0  0  0  0  0  0
   -3.2256   -2.7344   -0.5349 H   0  0  0  0  0  0  0  0  0  0  0  0
   -1.4126   -2.2444    0.4801 C   0  0  0  0  0  0  0  0  0  0  0  0
   -0.4686   -2.9534    0.8001 O   0  0  0  0  0  0  0  0  0  0  0  0
   -1.2736   -0.9704    0.1241 N   0  0  0  0  0  0  0  0  0  0  0  0
   -2.0996   -0.4354   -0.1019 H   0  0  0  0  0  0  0  0  0  0  0  0
   -0.0016   -0.2394    0.1271 C   0  0  1  0  0  0  0  0  0  0  0  0
    0.6995   -0.7619   -0.5275 H   0  0  0  0  0  0  0  0  0  0  0  0
   -0.2283    1.1832   -0.4215 C   0  0  0  0  0  0  0  0  0  0  0  0
   -0.3410    1.1405   -1.5055 H   0  0  0  0  0  0  0  0  0  0  0  0
   -1.1482    1.5952   -0.0050 H   0  0  0  0  0  0  0  0  0  0  0  0
    0.9262    2.1372   -0.1300 C   0  0  0  0  0  0  0  0  0  0  0  0
    0.8839    3.3568   -0.2246 O   0  0  0  0  0  0  0  0  0  0  0  0
    2.0697    1.5392    0.2530 O   0  0  0  0  0  0  0  0  0  0  0  0
    2.6930    2.2470    0.4195 H   0  0  0  0  0  0  0  0  0  0  0  0
    0.5920   -0.2154    1.5497 C   0  0  0  0  0  0  0  0  0  0  0  0
    1.7860   -0.4596    1.7183 O   0  0  0  0  0  0  0  0  0  0  0  0
   -0.2294    0.0669    2.5672 N   0  0  0  0  0  0  0  0  0  0  0  0
   -1.2130    0.1938    2.3518 H   0  0  0  0  0  0  0  0  0  0  0  0
    0.1836    0.1337    3.9673 C   0  0  0  0  0  0  0  0  0  0  0  0
    1.0451    0.7976    4.0666 H   0  0  0  0  0  0  0  0  0  0  0  0
   -0.6344    0.5115    4.5820 H   0  0  0  0  0  0  0  0  0  0  0  0
    0.4676   -0.8609    4.3157 H   0  0  0  0  0  0  0  0  0  0  0  0
  5  6  2  0  0  0  0
  5  7  1  0  0  0  0
  2  3  1  0  0  0  0
  2  4  1  0  0  0  0
  2  5  1  0  0  0  0
  1  2  1  0  0  0  0
 18 19  2  0  0  0  0
 18 20  1  0  0  0  0
 16 17  1  0  0  0  0
 14 15  2  0  0  0  0
 14 16  1  0  0  0  0
 11 12  1  0  0  0  0
 11 13  1  0  0  0  0
 11 14  1  0  0  0  0
  9 10  1  0  0  0  0
  9 11  1  0  0  0  0
  9 18  1  0  0  0  0
  7  8  1  0  0  0  0
  7  9  1  0  0  0  0
 22 23  1  0  0  0  0
 22 24  1  0  0  0  0
 22 25  1  0  0  0  0
 20 21  1  0  0  0  0
 20 22  1  0  0  0  0
M  END
$$$$
default_name
  -OEChem-02102213163D

 25 24  0     1  0  0  0  0  0999 V2000
   -2.7826   -3.8464    0.7821 H   0  0  0  0  0  0  0  0  0  0  0  0
   -2.8156   -2.8034    0.4711 C   0  0  0  0  0  0  0  0  0  0  0  0
   -3.4336   -2.2354    1.1641 H   0  0  0  0  0  0  0  0  0  0  0  0
   -3.2256   -2.7344   -0.5349 H   0  0  0  0  0  0  0  0  0  0  0  0
   -1.4126   -2.2444    0.4801 C   0  0  0  0  0  0  0  0  0  0  0  0
   -0.4686   -2.9534    0.8001 O   0  0  0  0  0  0  0  0  0  0  0  0
   -1.2736   -0.9704    0.1241 N   0  0  0  0  0  0  0  0  0  0  0  0
   -2.0996   -0.4354   -0.1019 H   0  0  0  0  0  0  0  0  0  0  0  0
   -0.0016   -0.2394    0.1271 C   0  0  1  0  0  0  0  0  0  0  0  0
    0.6995   -0.7619   -0.5275 H   0  0  0  0  0  0  0  0  0  0  0  0
   -0.2283    1.1832   -0.4215 C   0  0  0  0  0  0  0  0  0  0  0  0
   -0.3410    1.1405   -1.5055 H   0  0  0  0  0  0  0  0  0  0  0  0
   -1.1482    1.5952   -0.0050 H   0  0  0  0  0  0  0  0  0  0  0  0
    0.9262    2.1372   -0.1300 C   0  0  0  0  0  0  0  0  0  0  0  0
    0.8281    3.3469    0.0290 O   0  0  0  0  0  0  0  0  0  0  0  0
    2.1368    1.5531   -0.0585 O   0  0  0  0  0  0  0  0  0  0  0  0
    2.7552    2.2552    0.1461 H   0  0  0  0  0  0  0  0  0  0  0  0
    0.5920   -0.2154    1.5497 C   0  0  0  0  0  0  0  0  0  0  0  0
    1.7860   -0.4596    1.7183 O   0  0  0  0  0  0  0  0  0  0  0  0
   -0.2294    0.0669    2.5672 N   0  0  0  0  0  0  0  0  0  0  0  0
   -1.2130    0.1938    2.3518 H   0  0  0  0  0  0  0  0  0  0  0  0
    0.1836    0.1337    3.9673 C   0  0  0  0  0  0  0  0  0  0  0  0
    1.0451    0.7976    4.0666 H   0  0  0  0  0  0  0  0  0  0  0  0
   -0.6344    0.5115    4.5820 H   0  0  0  0  0  0  0  0  0  0  0  0
    0.4676   -0.8609    4.3157 H   0  0  0  0  0  0  0  0  0  0  0  0
  5  6  2  0  0  0  0
  5  7  1  0  0  0  0
  2  3  1  0  0  0  0
  2  4  1  0  0  0  0
  2  5  1  0  0  0  0
  1  2  1  0  0  0  0
 18 19  2  0  0  0  0
 18 20  1  0  0  0  0
 16 17  1  0  0  0  0
 14 15  2  0  0  0  0
 14 16  1  0  0  0  0
 11 12  1  0  0  0  0
 11 13  1  0  0  0  0
 11 14  1  0  0  0  0
  9 10  1  0  0  0  0
  9 11  1  0  0  0  0
  9 18  1  0  0  0  0
  7  8  1  0  0  0  0
  7  9  1  0  0  0  0
 22 23  1  0  0  0  0
 22 24  1  0  0  0  0
 22 25  1  0  0  0  0
 20 21  1  0  0  0  0
 20 22  1  0  0  0  0
M  END
$$$$
default_name
  -OEChem-02102213163D

 25 24  0     1  0  0  0  0  0999 V2000
   -2.7826   -3.8464    0.7821 H   0  0  0  0  0  0  0  0  0  0  0  0
   -2.8156   -2.8034    0.4711 C   0  0  0  0  0  0  0  0  0  0  0  0
   -3.4336   -2.2354    1.1641 H   0  0  0  0  0  0  0  0  0  0  0  0
   -3.2256   -2.7344   -0.5349 H   0  0  0  0  0  0  0  0  0  0  0  0
   -1.4126   -2.2444    0.4801 C   0  0  0  0  0  0  0  0  0  0  0  0
   -0.4686   -2.9534    0.8001 O   0  0  0  0  0  0  0  0  0  0  0  0
   -1.2736   -0.9704    0.1241 N   0  0  0  0  0  0  0  0  0  0  0  0
   -2.0996   -0.4354   -0.1019 H   0  0  0  0  0  0  0  0  0  0  0  0
   -0.0016   -0.2394    0.1271 C   0  0  1  0  0  0  0  0  0  0  0  0
    0.6995   -0.7619   -0.5275 H   0  0  0  0  0  0  0  0  0  0  0  0
   -0.2283    1.1832   -0.4215 C   0  0  0  0  0  0  0  0  0  0  0  0
   -0.3410    1.1405   -1.5055 H   0  0  0  0  0  0  0  0  0  0  0  0
   -1.1482    1.5952   -0.0050 H   0  0  0  0  0  0  0  0  0  0  0  0
    0.9262    2.1372   -0.1300 C   0  0  0  0  0  0  0  0  0  0  0  0
    0.8157    3.2848    0.2810 O   0  0  0  0  0  0  0  0  0  0  0  0
    2.1506    1.6309   -0.3676 O   0  0  0  0  0  0  0  0  0  0  0  0
    2.7707    2.3197   -0.1263 H   0  0  0  0  0  0  0  0  0  0  0  0
    0.5920   -0.2154    1.5497 C   0  0  0  0  0  0  0  0  0  0  0  0
    1.7860   -0.4596    1.7183 O   0  0  0  0  0  0  0  0  0  0  0  0
   -0.2294    0.0669    2.5672 N   0  0  0  0  0  0  0  0  0  0  0  0
   -1.2130    0.1938    2.3518 H   0  0  0  0  0  0  0  0  0  0  0  0
    0.1836    0.1337    3.9673 C   0  0  0  0  0  0  0  0  0  0  0  0
    1.0451    0.7976    4.0666 H   0  0  0  0  0  0  0  0  0  0  0  0
   -0.6344    0.5115    4.5820 H   0  0  0  0  0  0  0  0  0  0  0  0
    0.4676   -0.8609    4.3157 H   0  0  0  0  0  0  0  0  0  0  0  0
  5  6  2  0  0  0  0
  5  7  1  0  0  0  0
  2  3  1  0  0  0  0
  2  4  1  0  0  0  0
  2  5  1  0  0  0  0
  1  2  1  0  0  0  0
 18 19  2  0  0  0  0
 18 20  1  0  0  0  0
 16 17  1  0  0  0  0
 14 15  2  0  0  0  0
 14 16  1  0  0  0  0
 11 12  1  0  0  0  0
 11 13  1  0  0  0  0
 11 14  1  0  0  0  0
  9 10  1  0  0  0  0
  9 11  1  0  0  0  0
  9 18  1  0  0  0  0
  7  8  1  0  0  0  0
  7  9  1  0  0  0  0
 22 23  1  0  0  0  0
 22 24  1  0  0  0  0
 22 25  1  0  0  0  0
 20 21  1  0  0  0  0
 20 22  1  0  0  0  0
M  END
$$$$
default_name
  -OEChem-02102213163D

 25 24  0     1  0  0  0  0  0999 V2000
   -2.7826   -3.8464    0.7821 H   0  0  0  0  0  0  0  0  0  0  0  0
   -2.8156   -2.8034    0.4711 C   0  0  0  0  0  0  0  0  0  0  0  0
   -3.4336   -2.2354    1.1641 H   0  0  0  0  0  0  0  0  0  0  0  0
   -3.2256   -2.7344   -0.5349 H   0  0  0  0  0  0  0  0  0  0  0  0
   -1.4126   -2.2444    0.4801 C   0  0  0  0  0  0  0  0  0  0  0  0
   -0.4686   -2.9534    0.8001 O   0  0  0  0  0  0  0  0  0  0  0  0
   -1.2736   -0.9704    0.1241 N   0  0  0  0  0  0  0  0  0  0  0  0
   -2.0996   -0.4354   -0.1019 H   0  0  0  0  0  0  0  0  0  0  0  0
   -0.0016   -0.2394    0.1271 C   0  0  1  0  0  0  0  0  0  0  0  0
    0.6995   -0.7619   -0.5275 H   0  0  0  0  0  0  0  0  0  0  0  0
   -0.2283    1.1832   -0.4215 C   0  0  0  0  0  0  0  0  0  0  0  0
   -0.3410    1.1405   -1.5055 H   0  0  0  0  0  0  0  0  0  0  0  0
   -1.1482    1.5952   -0.0050 H   0  0  0  0  0  0  0  0  0  0  0  0
    0.9262    2.1372   -0.1300 C   0  0  0  0  0  0  0  0  0  0  0  0
    0.8476    3.1749    0.5143 O   0  0  0  0  0  0  0  0  0  0  0  0
    2.1100    1.7673   -0.6531 O   0  0  0  0  0  0  0  0  0  0  0  0
    2.7384    2.4361   -0.3794 H   0  0  0  0  0  0  0  0  0  0  0  0
    0.5920   -0.2154    1.5497 C   0  0  0  0  0  0  0  0  0  0  0  0
    1.7860   -0.4596    1.7183 O   0  0  0  0  0  0  0  0  0  0  0  0
   -0.2294    0.0669    2.5672 N   0  0  0  0  0  0  0  0  0  0  0  0
   -1.2130    0.1938    2.3518 H   0  0  0  0  0  0  0  0  0  0  0  0
    0.1836    0.1337    3.9673 C   0  0  0  0  0  0  0  0  0  0  0  0
    1.0451    0.7976    4.0666 H   0  0  0  0  0  0  0  0  0  0  0  0
   -0.6344    0.5115    4.5820 H   0  0  0  0  0  0  0  0  0  0  0  0
    0.4676   -0.8609    4.3157 H   0  0  0  0  0  0  0  0  0  0  0  0
  5  6  2  0  0  0  0
  5  7  1  0  0  0  0
  2  3  1  0  0  0  0
  2  4  1  0  0  0  0
  2  5  1  0  0  0  0
  1  2  1  0  0  0  0
 18 19  2  0  0  0  0
 18 20  1  0  0  0  0
 16 17  1  0  0  0  0
 14 15  2  0  0  0  0
 14 16  1  0  0  0  0
 11 12  1  0  0  0  0
 11 13  1  0  0  0  0
 11 14  1  0  0  0  0
  9 10  1  0  0  0  0
  9 11  1  0  0  0  0
  9 18  1  0  0  0  0
  7  8  1  0  0  0  0
  7  9  1  0  0  0  0
 22 23  1  0  0  0  0
 22 24  1  0  0  0  0
 22 25  1  0  0  0  0
 20 21  1  0  0  0  0
 20 22  1  0  0  0  0
M  END
$$$$
default_name
  -OEChem-02102213163D

 25 24  0     1  0  0  0  0  0999 V2000
   -2.7826   -3.8464    0.7821 H   0  0  0  0  0  0  0  0  0  0  0  0
   -2.8156   -2.8034    0.4711 C   0  0  0  0  0  0  0  0  0  0  0  0
   -3.4336   -2.2354    1.1641 H   0  0  0  0  0  0  0  0  0  0  0  0
   -3.2256   -2.7344   -0.5349 H   0  0  0  0  0  0  0  0  0  0  0  0
   -1.4126   -2.2444    0.4801 C   0  0  0  0  0  0  0  0  0  0  0  0
   -0.4686   -2.9534    0.8001 O   0  0  0  0  0  0  0  0  0  0  0  0
   -1.2736   -0.9704    0.1241 N   0  0  0  0  0  0  0  0  0  0  0  0
   -2.0996   -0.4354   -0.1019 H   0  0  0  0  0  0  0  0  0  0  0  0
   -0.0016   -0.2394    0.1271 C   0  0  1  0  0  0  0  0  0  0  0  0
    0.6995   -0.7619   -0.5275 H   0  0  0  0  0  0  0  0  0  0  0  0
   -0.2283    1.1832   -0.4215 C   0  0  0  0  0  0  0  0  0  0  0  0
   -0.3410    1.1405   -1.5055 H   0  0  0  0  0  0  0  0  0  0  0  0
   -1.1482    1.5952   -0.0050 H   0  0  0  0  0  0  0  0  0  0  0  0
    0.9262    2.1372   -0.1300 C   0  0  0  0  0  0  0  0  0  0  0  0
    0.9216    3.0247    0.7129 O   0  0  0  0  0  0  0  0  0  0  0  0
    2.0179    1.9529   -0.8957 O   0  0  0  0  0  0  0  0  0  0  0  0
    2.6604    2.5966   -0.5958 H   0  0  0  0  0  0  0  0  0  0  0  0
    0.5920   -0.2154    1.5497 C   0  0  0  0  0  0  0  0  0  0  0  0
    1.7860   -0.4596    1.7183 O   0  0  0  0  0  0  0  0  0  0  0  0
   -0.2294    0.0669    2.5672 N   0  0  0  0  0  0  0  0  0  0  0  0
   -1.2130    0.1938    2.3518 H   0  0  0  0  0  0  0  0  0  0  0  0
    0.1836    0.1337    3.9673 C   0  0  0  0  0  0  0  0  0  0  0  0
    1.0451    0.7976    4.0666 H   0  0  0  0  0  0  0  0  0  0  0  0
   -0.6344    0.5115    4.5820 H   0  0  0  0  0  0  0  0  0  0  0  0
    0.4676   -0.8609    4.3157 H   0  0  0  0  0  0  0  0  0  0  0  0
  5  6  2  0  0  0  0
  5  7  1  0  0  0  0
  2  3  1  0  0  0  0
  2  4  1  0  0  0  0
  2  5  1  0  0  0  0
  1  2  1  0  0  0  0
 18 19  2  0  0  0  0
 18 20  1  0  0  0  0
 16 17  1  0  0  0  0
 14 15  2  0  0  0  0
 14 16  1  0  0  0  0
 11 12  1  0  0  0  0
 11 13  1  0  0  0  0
 11 14  1  0  0  0  0
  9 10  1  0  0  0  0
  9 11  1  0  0  0  0
  9 18  1  0  0  0  0
  7  8  1  0  0  0  0
  7  9  1  0  0  0  0
 22 23  1  0  0  0  0
 22 24  1  0  0  0  0
 22 25  1  0  0  0  0
 20 21  1  0  0  0  0
 20 22  1  0  0  0  0
M  END
$$$$
default_name
  -OEChem-02102213163D

 25 24  0     1  0  0  0  0  0999 V2000
   -2.7826   -3.8464    0.7821 H   0  0  0  0  0  0  0  0  0  0  0  0
   -2.8156   -2.8034    0.4711 C   0  0  0  0  0  0  0  0  0  0  0  0
   -3.4336   -2.2354    1.1641 H   0  0  0  0  0  0  0  0  0  0  0  0
   -3.2256   -2.7344   -0.5349 H   0  0  0  0  0  0  0  0  0  0  0  0
   -1.4126   -2.2444    0.4801 C   0  0  0  0  0  0  0  0  0  0  0  0
   -0.4686   -2.9534    0.8001 O   0  0  0  0  0  0  0  0  0  0  0  0
   -1.2736   -0.9704    0.1241 N   0  0  0  0  0  0  0  0  0  0  0  0
   -2.0996   -0.4354   -0.1019 H   0  0  0  0  0  0  0  0  0  0  0  0
   -0.0016   -0.2394    0.1271 C   0  0  1  0  0  0  0  0  0  0  0  0
    0.6995   -0.7619   -0.5275 H   0  0  0  0  0  0  0  0  0  0  0  0
   -0.2283    1.1832   -0.4215 C   0  0  0  0  0  0  0  0  0  0  0  0
   -0.3410    1.1405   -1.5055 H   0  0  0  0  0  0  0  0  0  0  0  0
   -1.1482    1.5952   -0.0050 H   0  0  0  0  0  0  0  0  0  0  0  0
    0.9262    2.1372   -0.1300 C   0  0  0  0  0  0  0  0  0  0  0  0
    1.0326    2.8443    0.8634 O   0  0  0  0  0  0  0  0  0  0  0  0
    1.8804    2.1751   -1.0787 O   0  0  0  0  0  0  0  0  0  0  0  0
    2.5422    2.7901   -0.7608 H   0  0  0  0  0  0  0  0  0  0  0  0
    0.5920   -0.2154    1.5497 C   0  0  0  0  0  0  0  0  0  0  0  0
    1.7860   -0.4596    1.7183 O   0  0  0  0  0  0  0  0  0  0  0  0
   -0.2294    0.0669    2.5672 N   0  0  0  0  0  0  0  0  0  0  0  0
   -1.2130    0.1938    2.3518 H   0  0  0  0  0  0  0  0  0  0  0  0
    0.1836    0.1337    3.9673 C   0  0  0  0  0  0  0  0  0  0  0  0
    1.0451    0.7976    4.0666 H   0  0  0  0  0  0  0  0  0  0  0  0
   -0.6344    0.5115    4.5820 H   0  0  0  0  0  0  0  0  0  0  0  0
    0.4676   -0.8609    4.3157 H   0  0  0  0  0  0  0  0  0  0  0  0
  5  6  2  0  0  0  0
  5  7  1  0  0  0  0
  2  3  1  0  0  0  0
  2  4  1  0  0  0  0
  2  5  1  0  0  0  0
  1  2  1  0  0  0  0
 18 19  2  0  0  0  0
 18 20  1  0  0  0  0
 16 17  1  0  0  0  0
 14 15  2  0  0  0  0
 14 16  1  0  0  0  0
 11 12  1  0  0  0  0
 11 13  1  0  0  0  0
 11 14  1  0  0  0  0
  9 10  1  0  0  0  0
  9 11  1  0  0  0  0
  9 18  1  0  0  0  0
  7  8  1  0  0  0  0
  7  9  1  0  0  0  0
 22 23  1  0  0  0  0
 22 24  1  0  0  0  0
 22 25  1  0  0  0  0
 20 21  1  0  0  0  0
 20 22  1  0  0  0  0
M  END
$$$$
default_name
  -OEChem-02102213163D

 25 24  0     1  0  0  0  0  0999 V2000
   -2.7826   -3.8464    0.7821 H   0  0  0  0  0  0  0  0  0  0  0  0
   -2.8156   -2.8034    0.4711 C   0  0  0  0  0  0  0  0  0  0  0  0
   -3.4336   -2.2354    1.1641 H   0  0  0  0  0  0  0  0  0  0  0  0
   -3.2256   -2.7344   -0.5349 H   0  0  0  0  0  0  0  0  0  0  0  0
   -1.4126   -2.2444    0.4801 C   0  0  0  0  0  0  0  0  0  0  0  0
   -0.4686   -2.9534    0.8001 O   0  0  0  0  0  0  0  0  0  0  0  0
   -1.2736   -0.9704    0.1241 N   0  0  0  0  0  0  0  0  0  0  0  0
   -2.0996   -0.4354   -0.1019 H   0  0  0  0  0  0  0  0  0  0  0  0
   -0.0016   -0.2394    0.1271 C   0  0  1  0  0  0  0  0  0  0  0  0
    0.6995   -0.7619   -0.5275 H   0  0  0  0  0  0  0  0  0  0  0  0
   -0.2283    1.1832   -0.4215 C   0  0  0  0  0  0  0  0  0  0  0  0
   -0.3410    1.1405   -1.5055 H   0  0  0  0  0  0  0  0  0  0  0  0
   -1.1482    1.5952   -0.0050 H   0  0  0  0  0  0  0  0  0  0  0  0
    0.9262    2.1372   -0.1300 C   0  0  0  0  0  0  0  0  0  0  0  0
    1.1732    2.6461    0.9554 O   0  0  0  0  0  0  0  0  0  0  0  0
    1.7071    2.4188   -1.1897 O   0  0  0  0  0  0  0  0  0  0  0  0
    2.3917    3.0035   -0.8631 H   0  0  0  0  0  0  0  0  0  0  0  0
    0.5920   -0.2154    1.5497 C   0  0  0  0  0  0  0  0  0  0  0  0
    1.7860   -0.4596    1.7183 O   0  0  0  0  0  0  0  0  0  0  0  0
   -0.2294    0.0669    2.5672 N   0  0  0  0  0  0  0  0  0  0  0  0
   -1.2130    0.1938    2.3518 H   0  0  0  0  0  0  0  0  0  0  0  0
    0.1836    0.1337    3.9673 C   0  0  0  0  0  0  0  0  0  0  0  0
    1.0451    0.7976    4.0666 H   0  0  0  0  0  0  0  0  0  0  0  0
   -0.6344    0.5115    4.5820 H   0  0  0  0  0  0  0  0  0  0  0  0
    0.4676   -0.8609    4.3157 H   0  0  0  0  0  0  0  0  0  0  0  0
  5  6  2  0  0  0  0
  5  7  1  0  0  0  0
  2  3  1  0  0  0  0
  2  4  1  0  0  0  0
  2  5  1  0  0  0  0
  1  2  1  0  0  0  0
 18 19  2  0  0  0  0
 18 20  1  0  0  0  0
 16 17  1  0  0  0  0
 14 15  2  0  0  0  0
 14 16  1  0  0  0  0
 11 12  1  0  0  0  0
 11 13  1  0  0  0  0
 11 14  1  0  0  0  0
  9 10  1  0  0  0  0
  9 11  1  0  0  0  0
  9 18  1  0  0  0  0
  7  8  1  0  0  0  0
  7  9  1  0  0  0  0
 22 23  1  0  0  0  0
 22 24  1  0  0  0  0
 22 25  1  0  0  0  0
 20 21  1  0  0  0  0
 20 22  1  0  0  0  0
M  END
$$$$
default_name
  -OEChem-02102213163D

 25 24  0     1  0  0  0  0  0999 V2000
   -2.7826   -3.8464    0.7821 H   0  0  0  0  0  0  0  0  0  0  0  0
   -2.8156   -2.8034    0.4711 C   0  0  0  0  0  0  0  0  0  0  0  0
   -3.4336   -2.2354    1.1641 H   0  0  0  0  0  0  0  0  0  0  0  0
   -3.2256   -2.7344   -0.5349 H   0  0  0  0  0  0  0  0  0  0  0  0
   -1.4126   -2.2444    0.4801 C   0  0  0  0  0  0  0  0  0  0  0  0
   -0.4686   -2.9534    0.8001 O   0  0  0  0  0  0  0  0  0  0  0  0
   -1.2736   -0.9704    0.1241 N   0  0  0  0  0  0  0  0  0  0  0  0
   -2.0996   -0.4354   -0.1019 H   0  0  0  0  0  0  0  0  0  0  0  0
   -0.0016   -0.2394    0.1271 C   0  0  1  0  0  0  0  0  0  0  0  0
    0.6995   -0.7619   -0.5275 H   0  0  0  0  0  0  0  0  0  0  0  0
   -0.2283    1.1832   -0.4215 C   0  0  0  0  0  0  0  0  0  0  0  0
   -0.3410    1.1405   -1.5055 H   0  0  0  0  0  0  0  0  0  0  0  0
   -1.1482    1.5952   -0.0050 H   0  0  0  0  0  0  0  0  0  0  0  0
    0.9262    2.1372   -0.1300 C   0  0  0  0  0  0  0  0  0  0  0  0
    1.3336    2.4436    0.9828 O   0  0  0  0  0  0  0  0  0  0  0  0
    1.5096    2.6674   -1.2211 O   0  0  0  0  0  0  0  0  0  0  0  0
    2.2192    3.2222   -0.8958 H   0  0  0  0  0  0  0  0  0  0  0  0
    0.5920   -0.2154    1.5497 C   0  0  0  0  0  0  0  0  0  0  0  0
    1.7860   -0.4596    1.7183 O   0  0  0  0  0  0  0  0  0  0  0  0
   -0.2294    0.0669    2.5672 N   0  0  0  0  0  0  0  0  0  0  0  0
   -1.2130    0.1938    2.3518 H   0  0  0  0  0  0  0  0  0  0  0  0
    0.1836    0.1337    3.9673 C   0  0  0  0  0  0  0  0  0  0  0  0
    1.0451    0.7976    4.0666 H   0  0  0  0  0  0  0  0  0  0  0  0
   -0.6344    0.5115    4.5820 H   0  0  0  0  0  0  0  0  0  0  0  0
    0.4676   -0.8609    4.3157 H   0  0  0  0  0  0  0  0  0  0  0  0
  5  6  2  0  0  0  0
  5  7  1  0  0  0  0
  2  3  1  0  0  0  0
  2  4  1  0  0  0  0
  2  5  1  0  0  0  0
  1  2  1  0  0  0  0
 18 19  2  0  0  0  0
 18 20  1  0  0  0  0
 16 17  1  0  0  0  0
 14 15  2  0  0  0  0
 14 16  1  0  0  0  0
 11 12  1  0  0  0  0
 11 13  1  0  0  0  0
 11 14  1  0  0  0  0
  9 10  1  0  0  0  0
  9 11  1  0  0  0  0
  9 18  1  0  0  0  0
  7  8  1  0  0  0  0
  7  9  1  0  0  0  0
 22 23  1  0  0  0  0
 22 24  1  0  0  0  0
 22 25  1  0  0  0  0
 20 21  1  0  0  0  0
 20 22  1  0  0  0  0
M  END
$$$$
default_name
  -OEChem-02102213163D

 25 24  0     1  0  0  0  0  0999 V2000
   -2.7826   -3.8464    0.7821 H   0  0  0  0  0  0  0  0  0  0  0  0
   -2.8156   -2.8034    0.4711 C   0  0  0  0  0  0  0  0  0  0  0  0
   -3.4336   -2.2354    1.1641 H   0  0  0  0  0  0  0  0  0  0  0  0
   -3.2256   -2.7344   -0.5349 H   0  0  0  0  0  0  0  0  0  0  0  0
   -1.4126   -2.2444    0.4801 C   0  0  0  0  0  0  0  0  0  0  0  0
   -0.4686   -2.9534    0.8001 O   0  0  0  0  0  0  0  0  0  0  0  0
   -1.2736   -0.9704    0.1241 N   0  0  0  0  0  0  0  0  0  0  0  0
   -2.0996   -0.4354   -0.1019 H   0  0  0  0  0  0  0  0  0  0  0  0
   -0.0016   -0.2394    0.1271 C   0  0  1  0  0  0  0  0  0  0  0  0
    0.6995   -0.7619   -0.5275 H   0  0  0  0  0  0  0  0  0  0  0  0
   -0.2283    1.1832   -0.4215 C   0  0  0  0  0  0  0  0  0  0  0  0
   -0.3410    1.1405   -1.5055 H   0  0  0  0  0  0  0  0  0  0  0  0
   -1.1482    1.5952   -0.0050 H   0  0  0  0  0  0  0  0  0  0  0  0
    0.9262    2.1372   -0.1300 C   0  0  0  0  0  0  0  0  0  0  0  0
    1.5030    2.2506    0.9436 O   0  0  0  0  0  0  0  0  0  0  0  0
    1.3015    2.9039   -1.1708 O   0  0  0  0  0  0  0  0  0  0  0  0
    2.0366    3.4313   -0.8566 H   0  0  0  0  0  0  0  0  0  0  0  0
    0.5920   -0.2154    1.5497 C   0  0  0  0  0  0  0  0  0  0  0  0
    1.7860   -0.4596    1.7183 O   0  0  0  0  0  0  0  0  0  0  0  0
   -0.2294    0.0669    2.5672 N   0  0  0  0  0  0  0  0  0  0  0  0
   -1.2130    0.1938    2.3518 H   0  0  0  0  0  0  0  0  0  0  0  0
    0.1836    0.1337    3.9673 C   0  0  0  0  0  0  0  0  0  0  0  0
    1.0451    0.7976    4.0666 H   0  0  0  0  0  0  0  0  0  0  0  0
   -0.6344    0.5115    4.5820 H   0  0  0  0  0  0  0  0  0  0  0  0
    0.4676   -0.8609    4.3157 H   0  0  0  0  0  0  0  0  0  0  0  0
  5  6  2  0  0  0  0
  5  7  1  0  0  0  0
  2  3  1  0  0  0  0
  2  4  1  0  0  0  0
  2  5  1  0  0  0  0
  1  2  1  0  0  0  0
 18 19  2  0  0  0  0
 18 20  1  0  0  0  0
 16 17  1  0  0  0  0
 14 15  2  0  0  0  0
 14 16  1  0  0  0  0
 11 12  1  0  0  0  0
 11 13  1  0  0  0  0
 11 14  1  0  0  0  0
  9 10  1  0  0  0  0
  9 11  1  0  0  0  0
  9 18  1  0  0  0  0
  7  8  1  0  0  0  0
  7  9  1  0  0  0  0
 22 23  1  0  0  0  0
 22 24  1  0  0  0  0
 22 25  1  0  0  0  0
 20 21  1  0  0  0  0
 20 22  1  0  0  0  0
M  END
$$$$
default_name
  -OEChem-02102213163D

 25 24  0     1  0  0  0  0  0999 V2000
   -2.7826   -3.8464    0.7821 H   0  0  0  0  0  0  0  0  0  0  0  0
   -2.8156   -2.8034    0.4711 C   0  0  0  0  0  0  0  0  0  0  0  0
   -3.4336   -2.2354    1.1641 H   0  0  0  0  0  0  0  0  0  0  0  0
   -3.2256   -2.7344   -0.5349 H   0  0  0  0  0  0  0  0  0  0  0  0
   -1.4126   -2.2444    0.4801 C   0  0  0  0  0  0  0  0  0  0  0  0
   -0.4686   -2.9534    0.8001 O   0  0  0  0  0  0  0  0  0  0  0  0
   -1.2736   -0.9704    0.1241 N   0  0  0  0  0  0  0  0  0  0  0  0
   -2.0996   -0.4354   -0.1019 H   0  0  0  0  0  0  0  0  0  0  0  0
   -0.0016   -0.2394    0.1271 C   0  0  1  0  0  0  0  0  0  0  0  0
    0.6995   -0.7619   -0.5275 H   0  0  0  0  0  0  0  0  0  0  0  0
   -0.2283    1.1832   -0.4215 C   0  0  0  0  0  0  0  0  0  0  0  0
   -0.3410    1.1405   -1.5055 H   0  0  0  0  0  0  0  0  0  0  0  0
   -1.1482    1.5952   -0.0050 H   0  0  0  0  0  0  0  0  0  0  0  0
    0.9262    2.1372   -0.1300 C   0  0  0  0  0  0  0  0  0  0  0  0
    1.6699    2.0802    0.8405 O   0  0  0  0  0  0  0  0  0  0  0  0
    1.0969    3.1122   -1.0423 O   0  0  0  0  0  0  0  0  0  0  0  0
    1.8561    3.6166   -0.7483 H   0  0  0  0  0  0  0  0  0  0  0  0
    0.5920   -0.2154    1.5497 C   0  0  0  0  0  0  0  0  0  0  0  0
    1.7860   -0.4596    1.7183 O   0  0  0  0  0  0  0  0  0  0  0  0
   -0.2294    0.0669    2.5672 N   0  0  0  0  0  0  0  0  0  0  0  0
   -1.2130    0.1938    2.3518 H   0  0  0  0  0  0  0  0  0  0  0  0
    0.1836    0.1337    3.9673 C   0  0  0  0  0  0  0  0  0  0  0  0
    1.0451    0.7976    4.0666 H   0  0  0  0  0  0  0  0  0  0  0  0
   -0.6344    0.5115    4.5820 H   0  0  0  0  0  0  0  0  0  0  0  0
    0.4676   -0.8609    4.3157 H   0  0  0  0  0  0  0  0  0  0  0  0
  5  6  2  0  0  0  0
  5  7  1  0  0  0  0
  2  3  1  0  0  0  0
  2  4  1  0  0  0  0
  2  5  1  0  0  0  0
  1  2  1  0  0  0  0
 18 19  2  0  0  0  0
 18 20  1  0  0  0  0
 16 17  1  0  0  0  0
 14 15  2  0  0  0  0
 14 16  1  0  0  0  0
 11 12  1  0  0  0  0
 11 13  1  0  0  0  0
 11 14  1  0  0  0  0
  9 10  1  0  0  0  0
  9 11  1  0  0  0  0
  9 18  1  0  0  0  0
  7  8  1  0  0  0  0
  7  9  1  0  0  0  0
 22 23  1  0  0  0  0
 22 24  1  0  0  0  0
 22 25  1  0  0  0  0
 20 21  1  0  0  0  0
 20 22  1  0  0  0  0
M  END
$$$$
default_name
  -OEChem-02102213163D

 25 24  0     1  0  0  0  0  0999 V2000
   -2.7826   -3.8464    0.7821 H   0  0  0  0  0  0  0  0  0  0  0  0
   -2.8156   -2.8034    0.4711 C   0  0  0  0  0  0  0  0  0  0  0  0
   -3.4336   -2.2354    1.1641 H   0  0  0  0  0  0  0  0  0  0  0  0
   -3.2256   -2.7344   -0.5349 H   0  0  0  0  0  0  0  0  0  0  0  0
   -1.4126   -2.2444    0.4801 C   0  0  0  0  0  0  0  0  0  0  0  0
   -0.4686   -2.9534    0.8001 O   0  0  0  0  0  0  0  0  0  0  0  0
   -1.2736   -0.9704    0.1241 N   0  0  0  0  0  0  0  0  0  0  0  0
   -2.0996   -0.4354   -0.1019 H   0  0  0  0  0  0  0  0  0  0  0  0
   -0.0016   -0.2394    0.1271 C   0  0  1  0  0  0  0  0  0  0  0  0
    0.6995   -0.7619   -0.5275 H   0  0  0  0  0  0  0  0  0  0  0  0
   -0.2283    1.1832   -0.4215 C   0  0  0  0  0  0  0  0  0  0  0  0
   -0.3410    1.1405   -1.5055 H   0  0  0  0  0  0  0  0  0  0  0  0
   -1.1482    1.5952   -0.0050 H   0  0  0  0  0  0  0  0  0  0  0  0
    0.9262    2.1372   -0.1300 C   0  0  0  0  0  0  0  0  0  0  0  0
    1.8228    1.9440    0.6805 O   0  0  0  0  0  0  0  0  0  0  0  0
    0.9098    3.2781   -0.8442 O   0  0  0  0  0  0  0  0  0  0  0  0
    1.6901    3.7654   -0.5782 H   0  0  0  0  0  0  0  0  0  0  0  0
    0.5920   -0.2154    1.5497 C   0  0  0  0  0  0  0  0  0  0  0  0
    1.7860   -0.4596    1.7183 O   0  0  0  0  0  0  0  0  0  0  0  0
   -0.2294    0.0669    2.5672 N   0  0  0  0  0  0  0  0  0  0  0  0
   -1.2130    0.1938    2.3518 H   0  0  0  0  0  0  0  0  0  0  0  0
    0.1836    0.1337    3.9673 C   0  0  0  0  0  0  0  0  0  0  0  0
    1.0451    0.7976    4.0666 H   0  0  0  0  0  0  0  0  0  0  0  0
   -0.6344    0.5115    4.5820 H   0  0  0  0  0  0  0  0  0  0  0  0
    0.4676   -0.8609    4.3157 H   0  0  0  0  0  0  0  0  0  0  0  0
  5  6  2  0  0  0  0
  5  7  1  0  0  0  0
  2  3  1  0  0  0  0
  2  4  1  0  0  0  0
  2  5  1  0  0  0  0
  1  2  1  0  0  0  0
 18 19  2  0  0  0  0
 18 20  1  0  0  0  0
 16 17  1  0  0  0  0
 14 15  2  0  0  0  0
 14 16  1  0  0  0  0
 11 12  1  0  0  0  0
 11 13  1  0  0  0  0
 11 14  1  0  0  0  0
  9 10  1  0  0  0  0
  9 11  1  0  0  0  0
  9 18  1  0  0  0  0
  7  8  1  0  0  0  0
  7  9  1  0  0  0  0
 22 23  1  0  0  0  0
 22 24  1  0  0  0  0
 22 25  1  0  0  0  0
 20 21  1  0  0  0  0
 20 22  1  0  0  0  0
M  END
$$$$
default_name
  -OEChem-02102213163D

 25 24  0     1  0  0  0  0  0999 V2000
   -2.7826   -3.8464    0.7821 H   0  0  0  0  0  0  0  0  0  0  0  0
   -2.8156   -2.8034    0.4711 C   0  0  0  0  0  0  0  0  0  0  0  0
   -3.4336   -2.2354    1.1641 H   0  0  0  0  0  0  0  0  0  0  0  0
   -3.2256   -2.7344   -0.5349 H   0  0  0  0  0  0  0  0  0  0  0  0
   -1.4126   -2.2444    0.4801 C   0  0  0  0  0  0  0  0  0  0  0  0
   -0.4686   -2.9534    0.8001 O   0  0  0  0  0  0  0  0  0  0  0  0
   -1.2736   -0.9704    0.1241 N   0  0  0  0  0  0  0  0  0  0  0  0
   -2.0996   -0.4354   -0.1019 H   0  0  0  0  0  0  0  0  0  0  0  0
   -0.0016   -0.2394    0.1271 C   0  0  1  0  0  0  0  0  0  0  0  0
    0.6995   -0.7619   -0.5275 H   0  0  0  0  0  0  0  0  0  0  0  0
   -0.2283    1.1832   -0.4215 C   0  0  0  0  0  0  0  0  0  0  0  0
   -0.3410    1.1405   -1.5055 H   0  0  0  0  0  0  0  0  0  0  0  0
   -1.1482    1.5952   -0.0050 H   0  0  0  0  0  0  0  0  0  0  0  0
    0.9262    2.1372   -0.1300 C   0  0  0  0  0  0  0  0  0  0  0  0
    1.9513    1.8514    0.4746 O   0  0  0  0  0  0  0  0  0  0  0  0
    0.7529    3.3903   -0.5901 O   0  0  0  0  0  0  0  0  0  0  0  0
    1.5500    3.8677   -0.3578 H   0  0  0  0  0  0  0  0  0  0  0  0
    0.5920   -0.2154    1.5497 C   0  0  0  0  0  0  0  0  0  0  0  0
    1.7860   -0.4596    1.7183 O   0  0  0  0  0  0  0  0  0  0  0  0
   -0.2294    0.0669    2.5672 N   0  0  0  0  0  0  0  0  0  0  0  0
   -1.2130    0.1938    2.3518 H   0  0  0  0  0  0  0  0  0  0  0  0
    0.1836    0.1337    3.9673 C   0  0  0  0  0  0  0  0  0  0  0  0
    1.0451    0.7976    4.0666 H   0  0  0  0  0  0  0  0  0  0  0  0
   -0.6344    0.5115    4.5820 H   0  0  0  0  0  0  0  0  0  0  0  0
    0.4676   -0.8609    4.3157 H   0  0  0  0  0  0  0  0  0  0  0  0
  5  6  2  0  0  0  0
  5  7  1  0  0  0  0
  2  3  1  0  0  0  0
  2  4  1  0  0  0  0
  2  5  1  0  0  0  0
  1  2  1  0  0  0  0
 18 19  2  0  0  0  0
 18 20  1  0  0  0  0
 16 17  1  0  0  0  0
 14 15  2  0  0  0  0
 14 16  1  0  0  0  0
 11 12  1  0  0  0  0
 11 13  1  0  0  0  0
 11 14  1  0  0  0  0
  9 10  1  0  0  0  0
  9 11  1  0  0  0  0
  9 18  1  0  0  0  0
  7  8  1  0  0  0  0
  7  9  1  0  0  0  0
 22 23  1  0  0  0  0
 22 24  1  0  0  0  0
 22 25  1  0  0  0  0
 20 21  1  0  0  0  0
 20 22  1  0  0  0  0
M  END
$$$$
default_name
  -OEChem-02102213163D

 25 24  0     1  0  0  0  0  0999 V2000
   -2.7826   -3.8464    0.7821 H   0  0  0  0  0  0  0  0  0  0  0  0
   -2.8156   -2.8034    0.4711 C   0  0  0  0  0  0  0  0  0  0  0  0
   -3.4336   -2.2354    1.1641 H   0  0  0  0  0  0  0  0  0  0  0  0
   -3.2256   -2.7344   -0.5349 H   0  0  0  0  0  0  0  0  0  0  0  0
   -1.4126   -2.2444    0.4801 C   0  0  0  0  0  0  0  0  0  0  0  0
   -0.4686   -2.9534    0.8001 O   0  0  0  0  0  0  0  0  0  0  0  0
   -1.2736   -0.9704    0.1241 N   0  0  0  0  0  0  0  0  0  0  0  0
   -2.0996   -0.4354   -0.1019 H   0  0  0  0  0  0  0  0  0  0  0  0
   -0.0016   -0.2394    0.1271 C   0  0  1  0  0  0  0  0  0  0  0  0
    0.6995   -0.7619   -0.5275 H   0  0  0  0  0  0  0  0  0  0  0  0
   -0.2283    1.1832   -0.4215 C   0  0  0  0  0  0  0  0  0  0  0  0
   -0.3410    1.1405   -1.5055 H   0  0  0  0  0  0  0  0  0  0  0  0
   -1.1482    1.5952   -0.0050 H   0  0  0  0  0  0  0  0  0  0  0  0
    0.9262    2.1372   -0.1300 C   0  0  0  0  0  0  0  0  0  0  0  0
    2.0468    1.8086    0.2368 O   0  0  0  0  0  0  0  0  0  0  0  0
    0.6369    3.4411   -0.2973 O   0  0  0  0  0  0  0  0  0  0  0  0
    1.4452    3.9164   -0.1023 H   0  0  0  0  0  0  0  0  0  0  0  0
    0.5920   -0.2154    1.5497 C   0  0  0  0  0  0  0  0  0  0  0  0
    1.7860   -0.4596    1.7183 O   0  0  0  0  0  0  0  0  0  0  0  0
   -0.2294    0.0669    2.5672 N   0  0  0  0  0  0  0  0  0  0  0  0
   -1.2130    0.1938    2.3518 H   0  0  0  0  0  0  0  0  0  0  0  0
    0.1836    0.1337    3.9673 C   0  0  0  0  0  0  0  0  0  0  0  0
    1.0451    0.7976    4.0666 H   0  0  0  0  0  0  0  0  0  0  0  0
   -0.6344    0.5115    4.5820 H   0  0  0  0  0  0  0  0  0  0  0  0
    0.4676   -0.8609    4.3157 H   0  0  0  0  0  0  0  0  0  0  0  0
  5  6  2  0  0  0  0
  5  7  1  0  0  0  0
  2  3  1  0  0  0  0
  2  4  1  0  0  0  0
  2  5  1  0  0  0  0
  1  2  1  0  0  0  0
 18 19  2  0  0  0  0
 18 20  1  0  0  0  0
 16 17  1  0  0  0  0
 14 15  2  0  0  0  0
 14 16  1  0  0  0  0
 11 12  1  0  0  0  0
 11 13  1  0  0  0  0
 11 14  1  0  0  0  0
  9 10  1  0  0  0  0
  9 11  1  0  0  0  0
  9 18  1  0  0  0  0
  7  8  1  0  0  0  0
  7  9  1  0  0  0  0
 22 23  1  0  0  0  0
 22 24  1  0  0  0  0
 22 25  1  0  0  0  0
 20 21  1  0  0  0  0
 20 22  1  0  0  0  0
M  END
$$$$
default_name
  -OEChem-02102213163D

 25 24  0     1  0  0  0  0  0999 V2000
   -2.7826   -3.8464    0.7821 H   0  0  0  0  0  0  0  0  0  0  0  0
   -2.8156   -2.8034    0.4711 C   0  0  0  0  0  0  0  0  0  0  0  0
   -3.4336   -2.2354    1.1641 H   0  0  0  0  0  0  0  0  0  0  0  0
   -3.2256   -2.7344   -0.5349 H   0  0  0  0  0  0  0  0  0  0  0  0
   -1.4126   -2.2444    0.4801 C   0  0  0  0  0  0  0  0  0  0  0  0
   -0.4686   -2.9534    0.8001 O   0  0  0  0  0  0  0  0  0  0  0  0
   -1.2736   -0.9704    0.1241 N   0  0  0  0  0  0  0  0  0  0  0  0
   -2.0996   -0.4354   -0.1019 H   0  0  0  0  0  0  0  0  0  0  0  0
   -0.0016   -0.2394    0.1271 C   0  0  1  0  0  0  0  0  0  0  0  0
    0.6995   -0.7619   -0.5275 H   0  0  0  0  0  0  0  0  0  0  0  0
   -0.2283    1.1832   -0.4215 C   0  0  0  0  0  0  0  0  0  0  0  0
   -0.3410    1.1405   -1.5055 H   0  0  0  0  0  0  0  0  0  0  0  0
   -1.1482    1.5952   -0.0050 H   0  0  0  0  0  0  0  0  0  0  0  0
    0.9262    2.1372   -0.1300 C   0  0  0  0  0  0  0  0  0  0  0  0
    2.1026    1.8185   -0.0168 O   0  0  0  0  0  0  0  0  0  0  0  0
    0.5698    3.4272    0.0142 O   0  0  0  0  0  0  0  0  0  0  0  0
    1.3830    3.9082    0.1710 H   0  0  0  0  0  0  0  0  0  0  0  0
    0.5920   -0.2154    1.5497 C   0  0  0  0  0  0  0  0  0  0  0  0
    1.7860   -0.4596    1.7183 O   0  0  0  0  0  0  0  0  0  0  0  0
   -0.2294    0.0669    2.5672 N   0  0  0  0  0  0  0  0  0  0  0  0
   -1.2130    0.1938    2.3518 H   0  0  0  0  0  0  0  0  0  0  0  0
    0.1836    0.1337    3.9673 C   0  0  0  0  0  0  0  0  0  0  0  0
    1.0451    0.7976    4.0666 H   0  0  0  0  0  0  0  0  0  0  0  0
   -0.6344    0.5115    4.5820 H   0  0  0  0  0  0  0  0  0  0  0  0
    0.4676   -0.8609    4.3157 H   0  0  0  0  0  0  0  0  0  0  0  0
  5  6  2  0  0  0  0
  5  7  1  0  0  0  0
  2  3  1  0  0  0  0
  2  4  1  0  0  0  0
  2  5  1  0  0  0  0
  1  2  1  0  0  0  0
 18 19  2  0  0  0  0
 18 20  1  0  0  0  0
 16 17  1  0  0  0  0
 14 15  2  0  0  0  0
 14 16  1  0  0  0  0
 11 12  1  0  0  0  0
 11 13  1  0  0  0  0
 11 14  1  0  0  0  0
  9 10  1  0  0  0  0
  9 11  1  0  0  0  0
  9 18  1  0  0  0  0
  7  8  1  0  0  0  0
  7  9  1  0  0  0  0
 22 23  1  0  0  0  0
 22 24  1  0  0  0  0
 22 25  1  0  0  0  0
 20 21  1  0  0  0  0
 20 22  1  0  0  0  0
M  END
$$$$
default_name
  -OEChem-02102213163D

 25 24  0     1  0  0  0  0  0999 V2000
   -2.7826   -3.8464    0.7821 H   0  0  0  0  0  0  0  0  0  0  0  0
   -2.8156   -2.8034    0.4711 C   0  0  0  0  0  0  0  0  0  0  0  0
   -3.4336   -2.2354    1.1641 H   0  0  0  0  0  0  0  0  0  0  0  0
   -3.2256   -2.7344   -0.5349 H   0  0  0  0  0  0  0  0  0  0  0  0
   -1.4126   -2.2444    0.4801 C   0  0  0  0  0  0  0  0  0  0  0  0
   -0.4686   -2.9534    0.8001 O   0  0  0  0  0  0  0  0  0  0  0  0
   -1.2736   -0.9704    0.1241 N   0  0  0  0  0  0  0  0  0  0  0  0
   -2.0996   -0.4354   -0.1019 H   0  0  0  0  0  0  0  0  0  0  0  0
   -0.0016   -0.2394    0.1271 C   0  0  1  0  0  0  0  0  0  0  0  0
    0.6995   -0.7619   -0.5275 H   0  0  0  0  0  0  0  0  0  0  0  0
   -0.2283    1.1832   -0.4215 C   0  0  0  0  0  0  0  0  0  0  0  0
   -0.3410    1.1405   -1.5055 H   0  0  0  0  0  0  0  0  0  0  0  0
   -1.1482    1.5952   -0.0050 H   0  0  0  0  0  0  0  0  0  0  0  0
    0.9262    2.1372   -0.1300 C   0  0  0  0  0  0  0  0  0  0  0  0
    2.1149    1.8806   -0.2688 O   0  0  0  0  0  0  0  0  0  0  0  0
    0.5560    3.3494    0.3233 O   0  0  0  0  0  0  0  0  0  0  0  0
    1.3675    3.8436    0.4435 H   0  0  0  0  0  0  0  0  0  0  0  0
    0.5920   -0.2154    1.5497 C   0  0  0  0  0  0  0  0  0  0  0  0
    1.7860   -0.4596    1.7183 O   0  0  0  0  0  0  0  0  0  0  0  0
   -0.2294    0.0669    2.5672 N   0  0  0  0  0  0  0  0  0  0  0  0
   -1.2130    0.1938    2.3518 H   0  0  0  0  0  0  0  0  0  0  0  0
    0.1836    0.1337    3.9673 C   0  0  0  0  0  0  0  0  0  0  0  0
    1.0451    0.7976    4.0666 H   0  0  0  0  0  0  0  0  0  0  0  0
   -0.6344    0.5115    4.5820 H   0  0  0  0  0  0  0  0  0  0  0  0
    0.4676   -0.8609    4.3157 H   0  0  0  0  0  0  0  0  0  0  0  0
  5  6  2  0  0  0  0
  5  7  1  0  0  0  0
  2  3  1  0  0  0  0
  2  4  1  0  0  0  0
  2  5  1  0  0  0  0
  1  2  1  0  0  0  0
 18 19  2  0  0  0  0
 18 20  1  0  0  0  0
 16 17  1  0  0  0  0
 14 15  2  0  0  0  0
 14 16  1  0  0  0  0
 11 12  1  0  0  0  0
 11 13  1  0  0  0  0
 11 14  1  0  0  0  0
  9 10  1  0  0  0  0
  9 11  1  0  0  0  0
  9 18  1  0  0  0  0
  7  8  1  0  0  0  0
  7  9  1  0  0  0  0
 22 23  1  0  0  0  0
 22 24  1  0  0  0  0
 22 25  1  0  0  0  0
 20 21  1  0  0  0  0
 20 22  1  0  0  0  0
M  END
$$$$
default_name
  -OEChem-02102213163D

 25 24  0     1  0  0  0  0  0999 V2000
   -2.7826   -3.8464    0.7821 H   0  0  0  0  0  0  0  0  0  0  0  0
   -2.8156   -2.8034    0.4711 C   0  0  0  0  0  0  0  0  0  0  0  0
   -3.4336   -2.2354    1.1641 H   0  0  0  0  0  0  0  0  0  0  0  0
   -3.2256   -2.7344   -0.5349 H   0  0  0  0  0  0  0  0  0  0  0  0
   -1.4126   -2.2444    0.4801 C   0  0  0  0  0  0  0  0  0  0  0  0
   -0.4686   -2.9534    0.8001 O   0  0  0  0  0  0  0  0  0  0  0  0
   -1.2736   -0.9704    0.1241 N   0  0  0  0  0  0  0  0  0  0  0  0
   -2.0996   -0.4354   -0.1019 H   0  0  0  0  0  0  0  0  0  0  0  0
   -0.0016   -0.2394    0.1271 C   0  0  1  0  0  0  0  0  0  0  0  0
    0.6995   -0.7619   -0.5275 H   0  0  0  0  0  0  0  0  0  0  0  0
   -0.2283    1.1832   -0.4215 C   0  0  0  0  0  0  0  0  0  0  0  0
   -0.3410    1.1405   -1.5055 H   0  0  0  0  0  0  0  0  0  0  0  0
   -1.1482    1.5952   -0.0050 H   0  0  0  0  0  0  0  0  0  0  0  0
    0.9262    2.1372   -0.1300 C   0  0  0  0  0  0  0  0  0  0  0  0
    2.0830    1.9904   -0.5020 O   0  0  0  0  0  0  0  0  0  0  0  0
    0.5966    3.2130    0.6088 O   0  0  0  0  0  0  0  0  0  0  0  0
    1.3999    3.7272    0.6966 H   0  0  0  0  0  0  0  0  0  0  0  0
    0.5920   -0.2154    1.5497 C   0  0  0  0  0  0  0  0  0  0  0  0
    1.7860   -0.4596    1.7183 O   0  0  0  0  0  0  0  0  0  0  0  0
   -0.2294    0.0669    2.5672 N   0  0  0  0  0  0  0  0  0  0  0  0
   -1.2130    0.1938    2.3518 H   0  0  0  0  0  0  0  0  0  0  0  0
    0.1836    0.1337    3.9673 C   0  0  0  0  0  0  0  0  0  0  0  0
    1.0451    0.7976    4.0666 H   0  0  0  0  0  0  0  0  0  0  0  0
   -0.6344    0.5115    4.5820 H   0  0  0  0  0  0  0  0  0  0  0  0
    0.4676   -0.8609    4.3157 H   0  0  0  0  0  0  0  0  0  0  0  0
  5  6  2  0  0  0  0
  5  7  1  0  0  0  0
  2  3  1  0  0  0  0
  2  4  1  0  0  0  0
  2  5  1  0  0  0  0
  1  2  1  0  0  0  0
 18 19  2  0  0  0  0
 18 20  1  0  0  0  0
 16 17  1  0  0  0  0
 14 15  2  0  0  0  0
 14 16  1  0  0  0  0
 11 12  1  0  0  0  0
 11 13  1  0  0  0  0
 11 14  1  0  0  0  0
  9 10  1  0  0  0  0
  9 11  1  0  0  0  0
  9 18  1  0  0  0  0
  7  8  1  0  0  0  0
  7  9  1  0  0  0  0
 22 23  1  0  0  0  0
 22 24  1  0  0  0  0
 22 25  1  0  0  0  0
 20 21  1  0  0  0  0
 20 22  1  0  0  0  0
M  END
$$$$
default_name
  -OEChem-02102213163D

 25 24  0     1  0  0  0  0  0999 V2000
   -2.7826   -3.8464    0.7821 H   0  0  0  0  0  0  0  0  0  0  0  0
   -2.8156   -2.8034    0.4711 C   0  0  0  0  0  0  0  0  0  0  0  0
   -3.4336   -2.2354    1.1641 H   0  0  0  0  0  0  0  0  0  0  0  0
   -3.2256   -2.7344   -0.5349 H   0  0  0  0  0  0  0  0  0  0  0  0
   -1.4126   -2.2444    0.4801 C   0  0  0  0  0  0  0  0  0  0  0  0
   -0.4686   -2.9534    0.8001 O   0  0  0  0  0  0  0  0  0  0  0  0
   -1.2736   -0.9704    0.1241 N   0  0  0  0  0  0  0  0  0  0  0  0
   -2.0996   -0.4354   -0.1019 H   0  0  0  0  0  0  0  0  0  0  0  0
   -0.0016   -0.2394    0.1271 C   0  0  1  0  0  0  0  0  0  0  0  0
    0.6995   -0.7619   -0.5275 H   0  0  0  0  0  0  0  0  0  0  0  0
   -0.2283    1.1832   -0.4215 C   0  0  0  0  0  0  0  0  0  0  0  0
   -0.3410    1.1405   -1.5055 H   0  0  0  0  0  0  0  0  0  0  0  0
   -1.1482    1.5952   -0.0050 H   0  0  0  0  0  0  0  0  0  0  0  0
    0.9262    2.1372   -0.1300 C   0  0  0  0  0  0  0  0  0  0  0  0
    2.0090    2.1407   -0.7007 O   0  0  0  0  0  0  0  0  0  0  0  0
    0.6888    3.0274    0.8513 O   0  0  0  0  0  0  0  0  0  0  0  0
    1.4778    3.5667    0.9130 H   0  0  0  0  0  0  0  0  0  0  0  0
    0.5920   -0.2154    1.5497 C   0  0  0  0  0  0  0  0  0  0  0  0
    1.7860   -0.4596    1.7183 O   0  0  0  0  0  0  0  0  0  0  0  0
   -0.2294    0.0669    2.5672 N   0  0  0  0  0  0  0  0  0  0  0  0
   -1.2130    0.1938    2.3518 H   0  0  0  0  0  0  0  0  0  0  0  0
    0.1836    0.1337    3.9673 C   0  0  0  0  0  0  0  0  0  0  0  0
    1.0451    0.7976    4.0666 H   0  0  0  0  0  0  0  0  0  0  0  0
   -0.6344    0.5115    4.5820 H   0  0  0  0  0  0  0  0  0  0  0  0
    0.4676   -0.8609    4.3157 H   0  0  0  0  0  0  0  0  0  0  0  0
  5  6  2  0  0  0  0
  5  7  1  0  0  0  0
  2  3  1  0  0  0  0
  2  4  1  0  0  0  0
  2  5  1  0  0  0  0
  1  2  1  0  0  0  0
 18 19  2  0  0  0  0
 18 20  1  0  0  0  0
 16 17  1  0  0  0  0
 14 15  2  0  0  0  0
 14 16  1  0  0  0  0
 11 12  1  0  0  0  0
 11 13  1  0  0  0  0
 11 14  1  0  0  0  0
  9 10  1  0  0  0  0
  9 11  1  0  0  0  0
  9 18  1  0  0  0  0
  7  8  1  0  0  0  0
  7  9  1  0  0  0  0
 22 23  1  0  0  0  0
 22 24  1  0  0  0  0
 22 25  1  0  0  0  0
 20 21  1  0  0  0  0
 20 22  1  0  0  0  0
M  END
$$$$
default_name
  -OEChem-02102213163D

 25 24  0     1  0  0  0  0  0999 V2000
   -2.7826   -3.8464    0.7821 H   0  0  0  0  0  0  0  0  0  0  0  0
   -2.8156   -2.8034    0.4711 C   0  0  0  0  0  0  0  0  0  0  0  0
   -3.4336   -2.2354    1.1641 H   0  0  0  0  0  0  0  0  0  0  0  0
   -3.2256   -2.7344   -0.5349 H   0  0  0  0  0  0  0  0  0  0  0  0
   -1.4126   -2.2444    0.4801 C   0  0  0  0  0  0  0  0  0  0  0  0
   -0.4686   -2.9534    0.8001 O   0  0  0  0  0  0  0  0  0  0  0  0
   -1.2736   -0.9704    0.1241 N   0  0  0  0  0  0  0  0  0  0  0  0
   -2.0996   -0.4354   -0.1019 H   0  0  0  0  0  0  0  0  0  0  0  0
   -0.0016   -0.2394    0.1271 C   0  0  1  0  0  0  0  0  0  0  0  0
    0.6995   -0.7619   -0.5275 H   0  0  0  0  0  0  0  0  0  0  0  0
   -0.2283    1.1832   -0.4215 C   0  0  0  0  0  0  0  0  0  0  0  0
   -0.3410    1.1405   -1.5055 H   0  0  0  0  0  0  0  0  0  0  0  0
   -1.1482    1.5952   -0.0050 H   0  0  0  0  0  0  0  0  0  0  0  0
    0.9262    2.1372   -0.1300 C   0  0  0  0  0  0  0  0  0  0  0  0
    1.8980    2.3210   -0.8511 O   0  0  0  0  0  0  0  0  0  0  0  0
    0.8262    2.8052    1.0343 O   0  0  0  0  0  0  0  0  0  0  0  0
    1.5961    3.3732    1.0779 H   0  0  0  0  0  0  0  0  0  0  0  0
    0.5920   -0.2154    1.5497 C   0  0  0  0  0  0  0  0  0  0  0  0
    1.7860   -0.4596    1.7183 O   0  0  0  0  0  0  0  0  0  0  0  0
   -0.2294    0.0669    2.5672 N   0  0  0  0  0  0  0  0  0  0  0  0
   -1.2130    0.1938    2.3518 H   0  0  0  0  0  0  0  0  0  0  0  0
    0.1836    0.1337    3.9673 C   0  0  0  0  0  0  0  0  0  0  0  0
    1.0451    0.7976    4.0666 H   0  0  0  0  0  0  0  0  0  0  0  0
   -0.6344    0.5115    4.5820 H   0  0  0  0  0  0  0  0  0  0  0  0
    0.4676   -0.8609    4.3157 H   0  0  0  0  0  0  0  0  0  0  0  0
  5  6  2  0  0  0  0
  5  7  1  0  0  0  0
  2  3  1  0  0  0  0
  2  4  1  0  0  0  0
  2  5  1  0  0  0  0
  1  2  1  0  0  0  0
 18 19  2  0  0  0  0
 18 20  1  0  0  0  0
 16 17  1  0  0  0  0
 14 15  2  0  0  0  0
 14 16  1  0  0  0  0
 11 12  1  0  0  0  0
 11 13  1  0  0  0  0
 11 14  1  0  0  0  0
  9 10  1  0  0  0  0
  9 11  1  0  0  0  0
  9 18  1  0  0  0  0
  7  8  1  0  0  0  0
  7  9  1  0  0  0  0
 22 23  1  0  0  0  0
 22 24  1  0  0  0  0
 22 25  1  0  0  0  0
 20 21  1  0  0  0  0
 20 22  1  0  0  0  0
M  END
$$$$
default_name
  -OEChem-02102213163D

 25 24  0     1  0  0  0  0  0999 V2000
   -2.7826   -3.8464    0.7821 H   0  0  0  0  0  0  0  0  0  0  0  0
   -2.8156   -2.8034    0.4711 C   0  0  0  0  0  0  0  0  0  0  0  0
   -3.4336   -2.2354    1.1641 H   0  0  0  0  0  0  0  0  0  0  0  0
   -3.2256   -2.7344   -0.5349 H   0  0  0  0  0  0  0  0  0  0  0  0
   -1.4126   -2.2444    0.4801 C   0  0  0  0  0  0  0  0  0  0  0  0
   -0.4686   -2.9534    0.8001 O   0  0  0  0  0  0  0  0  0  0  0  0
   -1.2736   -0.9704    0.1241 N   0  0  0  0  0  0  0  0  0  0  0  0
   -2.0996   -0.4354   -0.1019 H   0  0  0  0  0  0  0  0  0  0  0  0
   -0.0016   -0.2394    0.1271 C   0  0  1  0  0  0  0  0  0  0  0  0
    0.6995   -0.7619   -0.5275 H   0  0  0  0  0  0  0  0  0  0  0  0
   -0.2283    1.1832   -0.4215 C   0  0  0  0  0  0  0  0  0  0  0  0
   -0.3410    1.1405   -1.5055 H   0  0  0  0  0  0  0  0  0  0  0  0
   -1.1482    1.5952   -0.0050 H   0  0  0  0  0  0  0  0  0  0  0  0
    0.9262    2.1372   -0.1300 C   0  0  0  0  0  0  0  0  0  0  0  0
    1.7574    2.5192   -0.9432 O   0  0  0  0  0  0  0  0  0  0  0  0
    0.9996    2.5615    1.1453 O   0  0  0  0  0  0  0  0  0  0  0  0
    1.7465    3.1598    1.1803 H   0  0  0  0  0  0  0  0  0  0  0  0
    0.5920   -0.2154    1.5497 C   0  0  0  0  0  0  0  0  0  0  0  0
    1.7860   -0.4596    1.7183 O   0  0  0  0  0  0  0  0  0  0  0  0
   -0.2294    0.0669    2.5672 N   0  0  0  0  0  0  0  0  0  0  0  0
   -1.2130    0.1938    2.3518 H   0  0  0  0  0  0  0  0  0  0  0  0
    0.1836    0.1337    3.9673 C   0  0  0  0  0  0  0  0  0  0  0  0
    1.0451    0.7976    4.0666 H   0  0  0  0  0  0  0  0  0  0  0  0
   -0.6344    0.5115    4.5820 H   0  0  0  0  0  0  0  0  0  0  0  0
    0.4676   -0.8609    4.3157 H   0  0  0  0  0  0  0  0  0  0  0  0
  5  6  2  0  0  0  0
  5  7  1  0  0  0  0
  2  3  1  0  0  0  0
  2  4  1  0  0  0  0
  2  5  1  0  0  0  0
  1  2  1  0  0  0  0
 18 19  2  0  0  0  0
 18 20  1  0  0  0  0
 16 17  1  0  0  0  0
 14 15  2  0  0  0  0
 14 16  1  0  0  0  0
 11 12  1  0  0  0  0
 11 13  1  0  0  0  0
 11 14  1  0  0  0  0
  9 10  1  0  0  0  0
  9 11  1  0  0  0  0
  9 18  1  0  0  0  0
  7  8  1  0  0  0  0
  7  9  1  0  0  0  0
 22 23  1  0  0  0  0
 22 24  1  0  0  0  0
 22 25  1  0  0  0  0
 20 21  1  0  0  0  0
 20 22  1  0  0  0  0
M  END
$$$$
default_name
  -OEChem-02102213163D

 25 24  0     1  0  0  0  0  0999 V2000
   -2.7826   -3.8464    0.7821 H   0  0  0  0  0  0  0  0  0  0  0  0
   -2.8156   -2.8034    0.4711 C   0  0  0  0  0  0  0  0  0  0  0  0
   -3.4336   -2.2354    1.1641 H   0  0  0  0  0  0  0  0  0  0  0  0
   -3.2256   -2.7344   -0.5349 H   0  0  0  0  0  0  0  0  0  0  0  0
   -1.4126   -2.2444    0.4801 C   0  0  0  0  0  0  0  0  0  0  0  0
   -0.4686   -2.9534    0.8001 O   0  0  0  0  0  0  0  0  0  0  0  0
   -1.2736   -0.9704    0.1241 N   0  0  0  0  0  0  0  0  0  0  0  0
   -2.0996   -0.4354   -0.1019 H   0  0  0  0  0  0  0  0  0  0  0  0
   -0.0016   -0.2394    0.1271 C   0  0  1  0  0  0  0  0  0  0  0  0
    0.6995   -0.7619   -0.5275 H   0  0  0  0  0  0  0  0  0  0  0  0
   -0.2283    1.1832   -0.4215 C   0  0  0  0  0  0  0  0  0  0  0  0
   -0.3410    1.1405   -1.5055 H   0  0  0  0  0  0  0  0  0  0  0  0
   -1.1482    1.5952   -0.0050 H   0  0  0  0  0  0  0  0  0  0  0  0
    0.9262    2.1372   -0.1300 C   0  0  0  0  0  0  0  0  0  0  0  0
    1.5970    2.7218   -0.9705 O   0  0  0  0  0  0  0  0  0  0  0  0
    1.1970    2.3129    1.1768 O   0  0  0  0  0  0  0  0  0  0  0  0
    1.9190    2.9411    1.2130 H   0  0  0  0  0  0  0  0  0  0  0  0
    0.5920   -0.2154    1.5497 C   0  0  0  0  0  0  0  0  0  0  0  0
    1.7860   -0.4596    1.7183 O   0  0  0  0  0  0  0  0  0  0  0  0
   -0.2294    0.0669    2.5672 N   0  0  0  0  0  0  0  0  0  0  0  0
   -1.2130    0.1938    2.3518 H   0  0  0  0  0  0  0  0  0  0  0  0
    0.1836    0.1337    3.9673 C   0  0  0  0  0  0  0  0  0  0  0  0
    1.0451    0.7976    4.0666 H   0  0  0  0  0  0  0  0  0  0  0  0
   -0.6344    0.5115    4.5820 H   0  0  0  0  0  0  0  0  0  0  0  0
    0.4676   -0.8609    4.3157 H   0  0  0  0  0  0  0  0  0  0  0  0
  5  6  2  0  0  0  0
  5  7  1  0  0  0  0
  2  3  1  0  0  0  0
  2  4  1  0  0  0  0
  2  5  1  0  0  0  0
  1  2  1  0  0  0  0
 18 19  2  0  0  0  0
 18 20  1  0  0  0  0
 16 17  1  0  0  0  0
 14 15  2  0  0  0  0
 14 16  1  0  0  0  0
 11 12  1  0  0  0  0
 11 13  1  0  0  0  0
 11 14  1  0  0  0  0
  9 10  1  0  0  0  0
  9 11  1  0  0  0  0
  9 18  1  0  0  0  0
  7  8  1  0  0  0  0
  7  9  1  0  0  0  0
 22 23  1  0  0  0  0
 22 24  1  0  0  0  0
 22 25  1  0  0  0  0
 20 21  1  0  0  0  0
 20 22  1  0  0  0  0
M  END
$$$$
default_name
  -OEChem-02102213163D

 25 24  0     1  0  0  0  0  0999 V2000
   -2.7826   -3.8464    0.7821 H   0  0  0  0  0  0  0  0  0  0  0  0
   -2.8156   -2.8034    0.4711 C   0  0  0  0  0  0  0  0  0  0  0  0
   -3.4336   -2.2354    1.1641 H   0  0  0  0  0  0  0  0  0  0  0  0
   -3.2256   -2.7344   -0.5349 H   0  0  0  0  0  0  0  0  0  0  0  0
   -1.4126   -2.2444    0.4801 C   0  0  0  0  0  0  0  0  0  0  0  0
   -0.4686   -2.9534    0.8001 O   0  0  0  0  0  0  0  0  0  0  0  0
   -1.2736   -0.9704    0.1241 N   0  0  0  0  0  0  0  0  0  0  0  0
   -2.0996   -0.4354   -0.1019 H   0  0  0  0  0  0  0  0  0  0  0  0
   -0.0016   -0.2394    0.1271 C   0  0  1  0  0  0  0  0  0  0  0  0
    0.6995   -0.7619   -0.5275 H   0  0  0  0  0  0  0  0  0  0  0  0
   -0.2283    1.1832   -0.4215 C   0  0  0  0  0  0  0  0  0  0  0  0
   -0.3410    1.1405   -1.5055 H   0  0  0  0  0  0  0  0  0  0  0  0
   -1.1482    1.5952   -0.0050 H   0  0  0  0  0  0  0  0  0  0  0  0
    0.9262    2.1372   -0.1300 C   0  0  0  0  0  0  0  0  0  0  0  0
    1.4276    2.9148   -0.9313 O   0  0  0  0  0  0  0  0  0  0  0  0
    1.4051    2.0764    1.1265 O   0  0  0  0  0  0  0  0  0  0  0  0
    2.1017    2.7320    1.1738 H   0  0  0  0  0  0  0  0  0  0  0  0
    0.5920   -0.2154    1.5497 C   0  0  0  0  0  0  0  0  0  0  0  0
    1.7860   -0.4596    1.7183 O   0  0  0  0  0  0  0  0  0  0  0  0
   -0.2294    0.0669    2.5672 N   0  0  0  0  0  0  0  0  0  0  0  0
   -1.2130    0.1938    2.3518 H   0  0  0  0  0  0  0  0  0  0  0  0
    0.1836    0.1337    3.9673 C   0  0  0  0  0  0  0  0  0  0  0  0
    1.0451    0.7976    4.0666 H   0  0  0  0  0  0  0  0  0  0  0  0
   -0.6344    0.5115    4.5820 H   0  0  0  0  0  0  0  0  0  0  0  0
    0.4676   -0.8609    4.3157 H   0  0  0  0  0  0  0  0  0  0  0  0
  5  6  2  0  0  0  0
  5  7  1  0  0  0  0
  2  3  1  0  0  0  0
  2  4  1  0  0  0  0
  2  5  1  0  0  0  0
  1  2  1  0  0  0  0
 18 19  2  0  0  0  0
 18 20  1  0  0  0  0
 16 17  1  0  0  0  0
 14 15  2  0  0  0  0
 14 16  1  0  0  0  0
 11 12  1  0  0  0  0
 11 13  1  0  0  0  0
 11 14  1  0  0  0  0
  9 10  1  0  0  0  0
  9 11  1  0  0  0  0
  9 18  1  0  0  0  0
  7  8  1  0  0  0  0
  7  9  1  0  0  0  0
 22 23  1  0  0  0  0
 22 24  1  0  0  0  0
 22 25  1  0  0  0  0
 20 21  1  0  0  0  0
 20 22  1  0  0  0  0
M  END
$$$$
default_name
  -OEChem-02102213163D

 25 24  0     1  0  0  0  0  0999 V2000
   -2.7826   -3.8464    0.7821 H   0  0  0  0  0  0  0  0  0  0  0  0
   -2.8156   -2.8034    0.4711 C   0  0  0  0  0  0  0  0  0  0  0  0
   -3.4336   -2.2354    1.1641 H   0  0  0  0  0  0  0  0  0  0  0  0
   -3.2256   -2.7344   -0.5349 H   0  0  0  0  0  0  0  0  0  0  0  0
   -1.4126   -2.2444    0.4801 C   0  0  0  0  0  0  0  0  0  0  0  0
   -0.4686   -2.9534    0.8001 O   0  0  0  0  0  0  0  0  0  0  0  0
   -1.2736   -0.9704    0.1241 N   0  0  0  0  0  0  0  0  0  0  0  0
   -2.0996   -0.4354   -0.1019 H   0  0  0  0  0  0  0  0  0  0  0  0
   -0.0016   -0.2394    0.1271 C   0  0  1  0  0  0  0  0  0  0  0  0
    0.6995   -0.7619   -0.5275 H   0  0  0  0  0  0  0  0  0  0  0  0
   -0.2283    1.1832   -0.4215 C   0  0  0  0  0  0  0  0  0  0  0  0
   -0.3410    1.1405   -1.5055 H   0  0  0  0  0  0  0  0  0  0  0  0
   -1.1482    1.5952   -0.0050 H   0  0  0  0  0  0  0  0  0  0  0  0
    0.9262    2.1372   -0.1300 C   0  0  0  0  0  0  0  0  0  0  0  0
    1.2607    3.0852   -0.8283 O   0  0  0  0  0  0  0  0  0  0  0  0
    1.6097    1.8681    0.9980 O   0  0  0  0  0  0  0  0  0  0  0  0
    2.2822    2.5467    1.0655 H   0  0  0  0  0  0  0  0  0  0  0  0
    0.5920   -0.2154    1.5497 C   0  0  0  0  0  0  0  0  0  0  0  0
    1.7860   -0.4596    1.7183 O   0  0  0  0  0  0  0  0  0  0  0  0
   -0.2294    0.0669    2.5672 N   0  0  0  0  0  0  0  0  0  0  0  0
   -1.2130    0.1938    2.3518 H   0  0  0  0  0  0  0  0  0  0  0  0
    0.1836    0.1337    3.9673 C   0  0  0  0  0  0  0  0  0  0  0  0
    1.0451    0.7976    4.0666 H   0  0  0  0  0  0  0  0  0  0  0  0
   -0.6344    0.5115    4.5820 H   0  0  0  0  0  0  0  0  0  0  0  0
    0.4676   -0.8609    4.3157 H   0  0  0  0  0  0  0  0  0  0  0  0
  5  6  2  0  0  0  0
  5  7  1  0  0  0  0
  2  3  1  0  0  0  0
  2  4  1  0  0  0  0
  2  5  1  0  0  0  0
  1  2  1  0  0  0  0
 18 19  2  0  0  0  0
 18 20  1  0  0  0  0
 16 17  1  0  0  0  0
 14 15  2  0  0  0  0
 14 16  1  0  0  0  0
 11 12  1  0  0  0  0
 11 13  1  0  0  0  0
 11 14  1  0  0  0  0
  9 10  1  0  0  0  0
  9 11  1  0  0  0  0
  9 18  1  0  0  0  0
  7  8  1  0  0  0  0
  7  9  1  0  0  0  0
 22 23  1  0  0  0  0
 22 24  1  0  0  0  0
 22 25  1  0  0  0  0
 20 21  1  0  0  0  0
 20 22  1  0  0  0  0
M  END
$$$$
default_name
  -OEChem-02102213163D

 25 24  0     1  0  0  0  0  0999 V2000
   -2.7826   -3.8464    0.7821 H   0  0  0  0  0  0  0  0  0  0  0  0
   -2.8156   -2.8034    0.4711 C   0  0  0  0  0  0  0  0  0  0  0  0
   -3.4336   -2.2354    1.1641 H   0  0  0  0  0  0  0  0  0  0  0  0
   -3.2256   -2.7344   -0.5349 H   0  0  0  0  0  0  0  0  0  0  0  0
   -1.4126   -2.2444    0.4801 C   0  0  0  0  0  0  0  0  0  0  0  0
   -0.4686   -2.9534    0.8001 O   0  0  0  0  0  0  0  0  0  0  0  0
   -1.2736   -0.9704    0.1241 N   0  0  0  0  0  0  0  0  0  0  0  0
   -2.0996   -0.4354   -0.1019 H   0  0  0  0  0  0  0  0  0  0  0  0
   -0.0016   -0.2394    0.1271 C   0  0  1  0  0  0  0  0  0  0  0  0
    0.6995   -0.7619   -0.5275 H   0  0  0  0  0  0  0  0  0  0  0  0
   -0.2283    1.1832   -0.4215 C   0  0  0  0  0  0  0  0  0  0  0  0
   -0.3410    1.1405   -1.5055 H   0  0  0  0  0  0  0  0  0  0  0  0
   -1.1482    1.5952   -0.0050 H   0  0  0  0  0  0  0  0  0  0  0  0
    0.9262    2.1372   -0.1300 C   0  0  0  0  0  0  0  0  0  0  0  0
    1.1078    3.2214   -0.6683 O   0  0  0  0  0  0  0  0  0  0  0  0
    1.7968    1.7022    0.7999 O   0  0  0  0  0  0  0  0  0  0  0  0
    2.4481    2.3979    0.8953 H   0  0  0  0  0  0  0  0  0  0  0  0
    0.5920   -0.2154    1.5497 C   0  0  0  0  0  0  0  0  0  0  0  0
    1.7860   -0.4596    1.7183 O   0  0  0  0  0  0  0  0  0  0  0  0
   -0.2294    0.0669    2.5672 N   0  0  0  0  0  0  0  0  0  0  0  0
   -1.2130    0.1938    2.3518 H   0  0  0  0  0  0  0  0  0  0  0  0
    0.1836    0.1337    3.9673 C   0  0  0  0  0  0  0  0  0  0  0  0
    1.0451    0.7976    4.0666 H   0  0  0  0  0  0  0  0  0  0  0  0
   -0.6344    0.5115    4.5820 H   0  0  0  0  0  0  0  0  0  0  0  0
    0.4676   -0.8609    4.3157 H   0  0  0  0  0  0  0  0  0  0  0  0
  5  6  2  0  0  0  0
  5  7  1  0  0  0  0
  2  3  1  0  0  0  0
  2  4  1  0  0  0  0
  2  5  1  0  0  0  0
  1  2  1  0  0  0  0
 18 19  2  0  0  0  0
 18 20  1  0  0  0  0
 16 17  1  0  0  0  0
 14 15  2  0  0  0  0
 14 16  1  0  0  0  0
 11 12  1  0  0  0  0
 11 13  1  0  0  0  0
 11 14  1  0  0  0  0
  9 10  1  0  0  0  0
  9 11  1  0  0  0  0
  9 18  1  0  0  0  0
  7  8  1  0  0  0  0
  7  9  1  0  0  0  0
 22 23  1  0  0  0  0
 22 24  1  0  0  0  0
 22 25  1  0  0  0  0
 20 21  1  0  0  0  0
 20 22  1  0  0  0  0
M  END
$$$$
