
  -OEChem-02062319033D

 48 47  0     1  0  0  0  0  0999 V2000
   -5.5827   -1.3473    1.4591 C   0  0  0  0  0  0  0  0  0  0  0  0
   -5.7053   -2.4696    0.9825 O   0  0  0  0  0  0  0  0  0  0  0  0
   -6.7879   -0.6277    1.9670 C   0  0  0  0  0  0  0  0  0  0  0  0
   -7.2718   -0.0164    1.1885 H   0  0  0  0  0  0  0  0  0  0  0  0
   -7.5699   -1.3171    2.3239 H   0  0  0  0  0  0  0  0  0  0  0  0
   -6.6057    0.0628    2.8060 H   0  0  0  0  0  0  0  0  0  0  0  0
   -4.4001   -0.6377    1.5884 N   0  0  0  0  0  0  0  0  0  0  0  0
   -3.1220   -1.1455    1.1644 C   0  0  2  0  0  0  0  0  0  0  0  0
   -2.2017    0.0428    0.9187 C   0  0  0  0  0  0  0  0  0  0  0  0
   -2.6171    1.1750    0.6807 O   0  0  0  0  0  0  0  0  0  0  0  0
   -3.2533   -1.9992   -0.0873 C   0  0  0  0  0  0  0  0  0  0  0  0
   -4.4370    0.2910    2.0047 H   0  0  0  0  0  0  0  0  0  0  0  0
   -2.7302   -1.7467    1.9921 H   0  0  0  0  0  0  0  0  0  0  0  0
   -3.6446   -1.4140   -0.9275 H   0  0  0  0  0  0  0  0  0  0  0  0
   -2.2844   -2.4081   -0.3922 H   0  0  0  0  0  0  0  0  0  0  0  0
   -3.9388   -2.8365    0.0822 H   0  0  0  0  0  0  0  0  0  0  0  0
   -0.8768   -0.3314    0.9568 N   0  0  0  0  0  0  0  0  0  0  0  0
    0.2070    0.6309    0.7496 C   0  0  2  0  0  0  0  0  0  0  0  0
    0.0038    1.2148   -0.6452 C   0  0  0  0  0  0  0  0  0  0  0  0
    0.1156    2.4161   -0.8813 O   0  0  0  0  0  0  0  0  0  0  0  0
    1.5573   -0.0876    0.8900 C   0  0  0  0  0  0  0  0  0  0  0  0
    1.8426   -0.5822    2.3079 C   0  0  0  0  0  0  0  0  0  0  0  0
    3.1648   -1.3023    2.3990 C   0  0  0  0  0  0  0  0  0  0  0  0
    3.8594   -1.5771    1.4287 O   0  0  0  0  0  0  0  0  0  0  0  0
    3.4953   -1.6396    3.6700 O   0  0  0  0  0  0  0  0  0  0  0  0
   -0.6090   -1.2784    1.1688 H   0  0  0  0  0  0  0  0  0  0  0  0
    0.1229    1.4153    1.5089 H   0  0  0  0  0  0  0  0  0  0  0  0
    1.5847   -0.9432    0.2020 H   0  0  0  0  0  0  0  0  0  0  0  0
    2.3747    0.5814    0.5905 H   0  0  0  0  0  0  0  0  0  0  0  0
    1.8991    0.2729    2.9925 H   0  0  0  0  0  0  0  0  0  0  0  0
    1.0340   -1.2125    2.6924 H   0  0  0  0  0  0  0  0  0  0  0  0
    4.3405   -2.1267    3.7713 H   0  0  0  0  0  0  0  0  0  0  0  0
   -0.2850    0.2405   -1.5892 N   0  0  0  0  0  0  0  0  0  0  0  0
   -0.5191    0.5345   -2.9847 C   0  0  2  0  0  0  0  0  0  0  0  0
   -2.0205    0.6896   -3.1872 C   0  0  0  0  0  0  0  0  0  0  0  0
   -2.8539    0.2009   -2.4271 O   0  0  0  0  0  0  0  0  0  0  0  0
    0.0403   -0.5586   -3.8819 C   0  0  0  0  0  0  0  0  0  0  0  0
   -0.3344   -0.7271   -1.2848 H   0  0  0  0  0  0  0  0  0  0  0  0
   -0.0212    1.4873   -3.1950 H   0  0  0  0  0  0  0  0  0  0  0  0
   -0.4464   -1.5209   -3.6857 H   0  0  0  0  0  0  0  0  0  0  0  0
   -0.1125   -0.3206   -4.9397 H   0  0  0  0  0  0  0  0  0  0  0  0
    1.1148   -0.6892   -3.7135 H   0  0  0  0  0  0  0  0  0  0  0  0
   -2.3209    1.4013   -4.3403 N   0  0  0  0  0  0  0  0  0  0  0  0
   -3.6765    1.6714   -4.7589 C   0  0  0  0  0  0  0  0  0  0  0  0
   -1.5662    1.7858   -4.9010 H   0  0  0  0  0  0  0  0  0  0  0  0
   -4.0136    0.8801   -5.4447 H   0  0  0  0  0  0  0  0  0  0  0  0
   -4.3341    1.6970   -3.8774 H   0  0  0  0  0  0  0  0  0  0  0  0
   -3.7146    2.6430   -5.2732 H   0  0  0  0  0  0  0  0  0  0  0  0
  1  3  1  0  0  0  0
  1  7  1  0  0  0  0
  1  2  2  0  0  0  0
 34 35  1  0  0  0  0
 35 43  1  0  0  0  0
 35 36  2  0  0  0  0
  8  9  1  0  0  0  0
  9 17  1  0  0  0  0
  9 10  2  0  0  0  0
 18 19  1  0  0  0  0
 19 33  1  0  0  0  0
 19 20  2  0  0  0  0
 22 23  1  0  0  0  0
 23 24  2  0  0  0  0
 23 25  1  0  0  0  0
 34 37  1  0  0  0  0
  8 11  1  0  0  0  0
 43 44  1  0  0  0  0
 21 22  1  0  0  0  0
 18 21  1  0  0  0  0
 33 34  1  0  0  0  0
  7  8  1  0  0  0  0
 17 18  1  0  0  0  0
  3  4  1  0  0  0  0
  3  5  1  0  0  0  0
  3  6  1  0  0  0  0
 37 40  1  0  0  0  0
 37 41  1  0  0  0  0
 37 42  1  0  0  0  0
 11 14  1  0  0  0  0
 11 15  1  0  0  0  0
 11 16  1  0  0  0  0
 44 46  1  0  0  0  0
 44 47  1  0  0  0  0
 44 48  1  0  0  0  0
 22 30  1  0  0  0  0
 22 31  1  0  0  0  0
 21 28  1  0  0  0  0
 21 29  1  0  0  0  0
 34 39  1  0  0  0  0
  8 13  1  0  0  0  0
 18 27  1  0  0  0  0
 43 45  1  0  0  0  0
  7 12  1  0  0  0  0
 33 38  1  0  0  0  0
 17 26  1  0  0  0  0
 25 32  1  0  0  0  0
M  END
$$$$

  -OEChem-02062319033D

 48 47  0     1  0  0  0  0  0999 V2000
   -5.5827   -1.3473    1.4591 C   0  0  0  0  0  0  0  0  0  0  0  0
   -5.7053   -2.4696    0.9825 O   0  0  0  0  0  0  0  0  0  0  0  0
   -6.7879   -0.6277    1.9670 C   0  0  0  0  0  0  0  0  0  0  0  0
   -7.2718   -0.0164    1.1885 H   0  0  0  0  0  0  0  0  0  0  0  0
   -7.5699   -1.3171    2.3239 H   0  0  0  0  0  0  0  0  0  0  0  0
   -6.6057    0.0628    2.8060 H   0  0  0  0  0  0  0  0  0  0  0  0
   -4.4001   -0.6377    1.5884 N   0  0  0  0  0  0  0  0  0  0  0  0
   -3.1220   -1.1455    1.1644 C   0  0  2  0  0  0  0  0  0  0  0  0
   -2.2017    0.0428    0.9187 C   0  0  0  0  0  0  0  0  0  0  0  0
   -2.6171    1.1750    0.6807 O   0  0  0  0  0  0  0  0  0  0  0  0
   -3.2533   -1.9992   -0.0873 C   0  0  0  0  0  0  0  0  0  0  0  0
   -4.4370    0.2910    2.0047 H   0  0  0  0  0  0  0  0  0  0  0  0
   -2.7302   -1.7467    1.9921 H   0  0  0  0  0  0  0  0  0  0  0  0
   -3.6446   -1.4140   -0.9275 H   0  0  0  0  0  0  0  0  0  0  0  0
   -2.2844   -2.4081   -0.3922 H   0  0  0  0  0  0  0  0  0  0  0  0
   -3.9388   -2.8365    0.0822 H   0  0  0  0  0  0  0  0  0  0  0  0
   -0.8768   -0.3314    0.9568 N   0  0  0  0  0  0  0  0  0  0  0  0
    0.2032    0.6502    1.0732 C   0  0  2  0  0  0  0  0  0  0  0  0
    0.0880    1.5637   -0.1434 C   0  0  0  0  0  0  0  0  0  0  0  0
    0.1966    2.7858   -0.0647 O   0  0  0  0  0  0  0  0  0  0  0  0
    1.5518   -0.0830    1.1262 C   0  0  0  0  0  0  0  0  0  0  0  0
    1.7459   -0.9158    2.3932 C   0  0  0  0  0  0  0  0  0  0  0  0
    3.0700   -1.6382    2.3962 C   0  0  0  0  0  0  0  0  0  0  0  0
    3.8346   -1.6637    1.4402 O   0  0  0  0  0  0  0  0  0  0  0  0
    3.3168   -2.2822    3.5636 O   0  0  0  0  0  0  0  0  0  0  0  0
   -0.6092   -1.3018    0.9451 H   0  0  0  0  0  0  0  0  0  0  0  0
    0.0540    1.2208    1.9958 H   0  0  0  0  0  0  0  0  0  0  0  0
    1.6406   -0.7401    0.2508 H   0  0  0  0  0  0  0  0  0  0  0  0
    2.3773    0.6382    1.0616 H   0  0  0  0  0  0  0  0  0  0  0  0
    1.7411   -0.2584    3.2713 H   0  0  0  0  0  0  0  0  0  0  0  0
    0.9228   -1.6206    2.5502 H   0  0  0  0  0  0  0  0  0  0  0  0
    4.1606   -2.7807    3.6005 H   0  0  0  0  0  0  0  0  0  0  0  0
   -0.1189    0.8559   -1.3182 N   0  0  0  0  0  0  0  0  0  0  0  0
   -0.2603    1.4889   -2.6097 C   0  0  2  0  0  0  0  0  0  0  0  0
   -1.7464    1.6922   -2.8737 C   0  0  0  0  0  0  0  0  0  0  0  0
   -2.6226    1.0310   -2.3203 O   0  0  0  0  0  0  0  0  0  0  0  0
    0.3775    0.6529   -3.7084 C   0  0  0  0  0  0  0  0  0  0  0  0
   -0.1738   -0.1569   -1.2683 H   0  0  0  0  0  0  0  0  0  0  0  0
    0.2356    2.4632   -2.5404 H   0  0  0  0  0  0  0  0  0  0  0  0
   -0.1062   -0.3271   -3.7928 H   0  0  0  0  0  0  0  0  0  0  0  0
    0.2947    1.1473   -4.6819 H   0  0  0  0  0  0  0  0  0  0  0  0
    1.4396    0.4826   -3.5016 H   0  0  0  0  0  0  0  0  0  0  0  0
   -1.9773    2.6693   -3.8318 N   0  0  0  0  0  0  0  0  0  0  0  0
   -3.3048    3.0376   -4.2656 C   0  0  0  0  0  0  0  0  0  0  0  0
   -1.1918    3.1801   -4.2240 H   0  0  0  0  0  0  0  0  0  0  0  0
   -3.5807    2.4429   -5.1489 H   0  0  0  0  0  0  0  0  0  0  0  0
   -4.0223    2.8439   -3.4546 H   0  0  0  0  0  0  0  0  0  0  0  0
   -3.3227    4.1068   -4.5234 H   0  0  0  0  0  0  0  0  0  0  0  0
  1  3  1  0  0  0  0
  1  7  1  0  0  0  0
  1  2  2  0  0  0  0
 34 35  1  0  0  0  0
 35 43  1  0  0  0  0
 35 36  2  0  0  0  0
  8  9  1  0  0  0  0
  9 17  1  0  0  0  0
  9 10  2  0  0  0  0
 18 19  1  0  0  0  0
 19 33  1  0  0  0  0
 19 20  2  0  0  0  0
 22 23  1  0  0  0  0
 23 24  2  0  0  0  0
 23 25  1  0  0  0  0
 34 37  1  0  0  0  0
  8 11  1  0  0  0  0
 43 44  1  0  0  0  0
 21 22  1  0  0  0  0
 18 21  1  0  0  0  0
 33 34  1  0  0  0  0
  7  8  1  0  0  0  0
 17 18  1  0  0  0  0
  3  4  1  0  0  0  0
  3  5  1  0  0  0  0
  3  6  1  0  0  0  0
 37 40  1  0  0  0  0
 37 41  1  0  0  0  0
 37 42  1  0  0  0  0
 11 14  1  0  0  0  0
 11 15  1  0  0  0  0
 11 16  1  0  0  0  0
 44 46  1  0  0  0  0
 44 47  1  0  0  0  0
 44 48  1  0  0  0  0
 22 30  1  0  0  0  0
 22 31  1  0  0  0  0
 21 28  1  0  0  0  0
 21 29  1  0  0  0  0
 34 39  1  0  0  0  0
  8 13  1  0  0  0  0
 18 27  1  0  0  0  0
 43 45  1  0  0  0  0
  7 12  1  0  0  0  0
 33 38  1  0  0  0  0
 17 26  1  0  0  0  0
 25 32  1  0  0  0  0
M  END
$$$$

  -OEChem-02062319033D

 48 47  0     1  0  0  0  0  0999 V2000
   -5.5827   -1.3473    1.4591 C   0  0  0  0  0  0  0  0  0  0  0  0
   -5.7053   -2.4696    0.9825 O   0  0  0  0  0  0  0  0  0  0  0  0
   -6.7879   -0.6277    1.9670 C   0  0  0  0  0  0  0  0  0  0  0  0
   -7.2718   -0.0164    1.1885 H   0  0  0  0  0  0  0  0  0  0  0  0
   -7.5699   -1.3171    2.3239 H   0  0  0  0  0  0  0  0  0  0  0  0
   -6.6057    0.0628    2.8060 H   0  0  0  0  0  0  0  0  0  0  0  0
   -4.4001   -0.6377    1.5884 N   0  0  0  0  0  0  0  0  0  0  0  0
   -3.1220   -1.1455    1.1644 C   0  0  2  0  0  0  0  0  0  0  0  0
   -2.2017    0.0428    0.9187 C   0  0  0  0  0  0  0  0  0  0  0  0
   -2.6171    1.1750    0.6807 O   0  0  0  0  0  0  0  0  0  0  0  0
   -3.2533   -1.9992   -0.0873 C   0  0  0  0  0  0  0  0  0  0  0  0
   -4.4370    0.2910    2.0047 H   0  0  0  0  0  0  0  0  0  0  0  0
   -2.7302   -1.7467    1.9921 H   0  0  0  0  0  0  0  0  0  0  0  0
   -3.6446   -1.4140   -0.9275 H   0  0  0  0  0  0  0  0  0  0  0  0
   -2.2844   -2.4081   -0.3922 H   0  0  0  0  0  0  0  0  0  0  0  0
   -3.9388   -2.8365    0.0822 H   0  0  0  0  0  0  0  0  0  0  0  0
   -0.8768   -0.3314    0.9568 N   0  0  0  0  0  0  0  0  0  0  0  0
    0.1766    0.5883    1.3903 C   0  0  2  0  0  0  0  0  0  0  0  0
    0.1315    1.7764    0.4342 C   0  0  0  0  0  0  0  0  0  0  0  0
    0.2147    2.9401    0.8219 O   0  0  0  0  0  0  0  0  0  0  0  0
    1.5299   -0.1373    1.3553 C   0  0  0  0  0  0  0  0  0  0  0  0
    1.6489   -1.2600    2.3858 C   0  0  0  0  0  0  0  0  0  0  0  0
    2.9811   -1.9627    2.3033 C   0  0  0  0  0  0  0  0  0  0  0  0
    3.8105   -1.7504    1.4279 O   0  0  0  0  0  0  0  0  0  0  0  0
    3.1565   -2.8778    3.2884 O   0  0  0  0  0  0  0  0  0  0  0  0
   -0.5935   -1.2688    0.7232 H   0  0  0  0  0  0  0  0  0  0  0  0
   -0.0454    0.9112    2.4127 H   0  0  0  0  0  0  0  0  0  0  0  0
    1.6898   -0.5557    0.3525 H   0  0  0  0  0  0  0  0  0  0  0  0
    2.3461    0.5758    1.5310 H   0  0  0  0  0  0  0  0  0  0  0  0
    1.5726   -0.8421    3.3971 H   0  0  0  0  0  0  0  0  0  0  0  0
    0.8284   -1.9803    2.3035 H   0  0  0  0  0  0  0  0  0  0  0  0
    4.0036   -3.3712    3.2601 H   0  0  0  0  0  0  0  0  0  0  0  0
    0.0180    1.3841   -0.8914 N   0  0  0  0  0  0  0  0  0  0  0  0
   -0.0435    2.3192   -1.9916 C   0  0  2  0  0  0  0  0  0  0  0  0
   -1.5107    2.5846   -2.3019 C   0  0  0  0  0  0  0  0  0  0  0  0
   -2.4125    1.8078   -1.9943 O   0  0  0  0  0  0  0  0  0  0  0  0
    0.6824    1.7823   -3.2154 C   0  0  0  0  0  0  0  0  0  0  0  0
   -0.0239    0.3909   -1.0991 H   0  0  0  0  0  0  0  0  0  0  0  0
    0.4307    3.2447   -1.6470 H   0  0  0  0  0  0  0  0  0  0  0  0
    0.2215    0.8552   -3.5751 H   0  0  0  0  0  0  0  0  0  0  0  0
    0.6594    2.5039   -4.0386 H   0  0  0  0  0  0  0  0  0  0  0  0
    1.7302    1.5640   -2.9824 H   0  0  0  0  0  0  0  0  0  0  0  0
   -1.6903    3.7701   -3.0008 N   0  0  0  0  0  0  0  0  0  0  0  0
   -2.9902    4.2371   -3.4227 C   0  0  0  0  0  0  0  0  0  0  0  0
   -0.8877    4.3611   -3.1967 H   0  0  0  0  0  0  0  0  0  0  0  0
   -3.1945    3.8818   -4.4435 H   0  0  0  0  0  0  0  0  0  0  0  0
   -3.7591    3.8487   -2.7387 H   0  0  0  0  0  0  0  0  0  0  0  0
   -3.0073    5.3369   -3.4071 H   0  0  0  0  0  0  0  0  0  0  0  0
  1  3  1  0  0  0  0
  1  7  1  0  0  0  0
  1  2  2  0  0  0  0
 34 35  1  0  0  0  0
 35 43  1  0  0  0  0
 35 36  2  0  0  0  0
  8  9  1  0  0  0  0
  9 17  1  0  0  0  0
  9 10  2  0  0  0  0
 18 19  1  0  0  0  0
 19 33  1  0  0  0  0
 19 20  2  0  0  0  0
 22 23  1  0  0  0  0
 23 24  2  0  0  0  0
 23 25  1  0  0  0  0
 34 37  1  0  0  0  0
  8 11  1  0  0  0  0
 43 44  1  0  0  0  0
 21 22  1  0  0  0  0
 18 21  1  0  0  0  0
 33 34  1  0  0  0  0
  7  8  1  0  0  0  0
 17 18  1  0  0  0  0
  3  4  1  0  0  0  0
  3  5  1  0  0  0  0
  3  6  1  0  0  0  0
 37 40  1  0  0  0  0
 37 41  1  0  0  0  0
 37 42  1  0  0  0  0
 11 14  1  0  0  0  0
 11 15  1  0  0  0  0
 11 16  1  0  0  0  0
 44 46  1  0  0  0  0
 44 47  1  0  0  0  0
 44 48  1  0  0  0  0
 22 30  1  0  0  0  0
 22 31  1  0  0  0  0
 21 28  1  0  0  0  0
 21 29  1  0  0  0  0
 34 39  1  0  0  0  0
  8 13  1  0  0  0  0
 18 27  1  0  0  0  0
 43 45  1  0  0  0  0
  7 12  1  0  0  0  0
 33 38  1  0  0  0  0
 17 26  1  0  0  0  0
 25 32  1  0  0  0  0
M  END
$$$$

  -OEChem-02062319033D

 48 47  0     1  0  0  0  0  0999 V2000
   -5.5827   -1.3473    1.4591 C   0  0  0  0  0  0  0  0  0  0  0  0
   -5.7053   -2.4696    0.9825 O   0  0  0  0  0  0  0  0  0  0  0  0
   -6.7879   -0.6277    1.9670 C   0  0  0  0  0  0  0  0  0  0  0  0
   -7.2718   -0.0164    1.1885 H   0  0  0  0  0  0  0  0  0  0  0  0
   -7.5699   -1.3171    2.3239 H   0  0  0  0  0  0  0  0  0  0  0  0
   -6.6057    0.0628    2.8060 H   0  0  0  0  0  0  0  0  0  0  0  0
   -4.4001   -0.6377    1.5884 N   0  0  0  0  0  0  0  0  0  0  0  0
   -3.1220   -1.1455    1.1644 C   0  0  2  0  0  0  0  0  0  0  0  0
   -2.2017    0.0428    0.9187 C   0  0  0  0  0  0  0  0  0  0  0  0
   -2.6171    1.1750    0.6807 O   0  0  0  0  0  0  0  0  0  0  0  0
   -3.2533   -1.9992   -0.0873 C   0  0  0  0  0  0  0  0  0  0  0  0
   -4.4370    0.2910    2.0047 H   0  0  0  0  0  0  0  0  0  0  0  0
   -2.7302   -1.7467    1.9921 H   0  0  0  0  0  0  0  0  0  0  0  0
   -3.6446   -1.4140   -0.9275 H   0  0  0  0  0  0  0  0  0  0  0  0
   -2.2844   -2.4081   -0.3922 H   0  0  0  0  0  0  0  0  0  0  0  0
   -3.9388   -2.8365    0.0822 H   0  0  0  0  0  0  0  0  0  0  0  0
   -0.8768   -0.3314    0.9568 N   0  0  0  0  0  0  0  0  0  0  0  0
    0.1290    0.4494    1.6793 C   0  0  2  0  0  0  0  0  0  0  0  0
    0.1313    1.8383    1.0480 C   0  0  0  0  0  0  0  0  0  0  0  0
    0.1687    2.8685    1.7179 O   0  0  0  0  0  0  0  0  0  0  0  0
    1.4930   -0.2470    1.5614 C   0  0  0  0  0  0  0  0  0  0  0  0
    1.5582   -1.5913    2.2861 C   0  0  0  0  0  0  0  0  0  0  0  0
    2.9040   -2.2536    2.1265 C   0  0  0  0  0  0  0  0  0  0  0  0
    3.7886   -1.8313    1.3928 O   0  0  0  0  0  0  0  0  0  0  0  0
    3.0253   -3.3856    2.8629 O   0  0  0  0  0  0  0  0  0  0  0  0
   -0.5629   -1.1815    0.5182 H   0  0  0  0  0  0  0  0  0  0  0  0
   -0.1685    0.5077    2.7315 H   0  0  0  0  0  0  0  0  0  0  0  0
    1.7288   -0.4025    0.5001 H   0  0  0  0  0  0  0  0  0  0  0  0
    2.2835    0.3984    1.9666 H   0  0  0  0  0  0  0  0  0  0  0  0
    1.4052   -1.4385    3.3614 H   0  0  0  0  0  0  0  0  0  0  0  0
    0.7570   -2.2669    1.9690 H   0  0  0  0  0  0  0  0  0  0  0  0
    3.8802   -3.8579    2.7733 H   0  0  0  0  0  0  0  0  0  0  0  0
    0.1165    1.7890   -0.3381 N   0  0  0  0  0  0  0  0  0  0  0  0
    0.1165    2.9690   -1.1726 C   0  0  2  0  0  0  0  0  0  0  0  0
   -1.3297    3.3058   -1.5108 C   0  0  0  0  0  0  0  0  0  0  0  0
   -2.2381    2.4785   -1.4711 O   0  0  0  0  0  0  0  0  0  0  0  0
    0.9341    2.7527   -2.4365 C   0  0  0  0  0  0  0  0  0  0  0  0
    0.1050    0.8790   -0.7887 H   0  0  0  0  0  0  0  0  0  0  0  0
    0.5507    3.7785   -0.5757 H   0  0  0  0  0  0  0  0  0  0  0  0
    0.5143    1.9453   -3.0475 H   0  0  0  0  0  0  0  0  0  0  0  0
    0.9567    3.6568   -3.0539 H   0  0  0  0  0  0  0  0  0  0  0  0
    1.9666    2.4814   -2.1911 H   0  0  0  0  0  0  0  0  0  0  0  0
   -1.4793    4.6284   -1.9039 N   0  0  0  0  0  0  0  0  0  0  0  0
   -2.7542    5.1882   -2.2879 C   0  0  0  0  0  0  0  0  0  0  0  0
   -0.6747    5.2482   -1.8889 H   0  0  0  0  0  0  0  0  0  0  0  0
   -2.8814    5.0989   -3.3768 H   0  0  0  0  0  0  0  0  0  0  0  0
   -3.5623    4.6429   -1.7785 H   0  0  0  0  0  0  0  0  0  0  0  0
   -2.7900    6.2494   -2.0005 H   0  0  0  0  0  0  0  0  0  0  0  0
  1  3  1  0  0  0  0
  1  7  1  0  0  0  0
  1  2  2  0  0  0  0
 34 35  1  0  0  0  0
 35 43  1  0  0  0  0
 35 36  2  0  0  0  0
  8  9  1  0  0  0  0
  9 17  1  0  0  0  0
  9 10  2  0  0  0  0
 18 19  1  0  0  0  0
 19 33  1  0  0  0  0
 19 20  2  0  0  0  0
 22 23  1  0  0  0  0
 23 24  2  0  0  0  0
 23 25  1  0  0  0  0
 34 37  1  0  0  0  0
  8 11  1  0  0  0  0
 43 44  1  0  0  0  0
 21 22  1  0  0  0  0
 18 21  1  0  0  0  0
 33 34  1  0  0  0  0
  7  8  1  0  0  0  0
 17 18  1  0  0  0  0
  3  4  1  0  0  0  0
  3  5  1  0  0  0  0
  3  6  1  0  0  0  0
 37 40  1  0  0  0  0
 37 41  1  0  0  0  0
 37 42  1  0  0  0  0
 11 14  1  0  0  0  0
 11 15  1  0  0  0  0
 11 16  1  0  0  0  0
 44 46  1  0  0  0  0
 44 47  1  0  0  0  0
 44 48  1  0  0  0  0
 22 30  1  0  0  0  0
 22 31  1  0  0  0  0
 21 28  1  0  0  0  0
 21 29  1  0  0  0  0
 34 39  1  0  0  0  0
  8 13  1  0  0  0  0
 18 27  1  0  0  0  0
 43 45  1  0  0  0  0
  7 12  1  0  0  0  0
 33 38  1  0  0  0  0
 17 26  1  0  0  0  0
 25 32  1  0  0  0  0
M  END
$$$$

  -OEChem-02062319033D

 48 47  0     1  0  0  0  0  0999 V2000
   -5.5827   -1.3473    1.4591 C   0  0  0  0  0  0  0  0  0  0  0  0
   -5.7053   -2.4696    0.9825 O   0  0  0  0  0  0  0  0  0  0  0  0
   -6.7879   -0.6277    1.9670 C   0  0  0  0  0  0  0  0  0  0  0  0
   -7.2718   -0.0164    1.1885 H   0  0  0  0  0  0  0  0  0  0  0  0
   -7.5699   -1.3171    2.3239 H   0  0  0  0  0  0  0  0  0  0  0  0
   -6.6057    0.0628    2.8060 H   0  0  0  0  0  0  0  0  0  0  0  0
   -4.4001   -0.6377    1.5884 N   0  0  0  0  0  0  0  0  0  0  0  0
   -3.1220   -1.1455    1.1644 C   0  0  2  0  0  0  0  0  0  0  0  0
   -2.2017    0.0428    0.9187 C   0  0  0  0  0  0  0  0  0  0  0  0
   -2.6171    1.1750    0.6807 O   0  0  0  0  0  0  0  0  0  0  0  0
   -3.2533   -1.9992   -0.0873 C   0  0  0  0  0  0  0  0  0  0  0  0
   -4.4370    0.2910    2.0047 H   0  0  0  0  0  0  0  0  0  0  0  0
   -2.7302   -1.7467    1.9921 H   0  0  0  0  0  0  0  0  0  0  0  0
   -3.6446   -1.4140   -0.9275 H   0  0  0  0  0  0  0  0  0  0  0  0
   -2.2844   -2.4081   -0.3922 H   0  0  0  0  0  0  0  0  0  0  0  0
   -3.9388   -2.8365    0.0822 H   0  0  0  0  0  0  0  0  0  0  0  0
   -0.8768   -0.3314    0.9568 N   0  0  0  0  0  0  0  0  0  0  0  0
    0.0638    0.2429    1.9206 C   0  0  2  0  0  0  0  0  0  0  0  0
    0.0876    1.7453    1.6564 C   0  0  0  0  0  0  0  0  0  0  0  0
    0.0619    2.5760    2.5624 O   0  0  0  0  0  0  0  0  0  0  0  0
    1.4437   -0.4045    1.7306 C   0  0  0  0  0  0  0  0  0  0  0  0
    1.4800   -1.8871    2.1009 C   0  0  0  0  0  0  0  0  0  0  0  0
    2.8440   -2.4911    1.8779 C   0  0  0  0  0  0  0  0  0  0  0  0
    3.7706   -1.9008    1.3372 O   0  0  0  0  0  0  0  0  0  0  0  0
    2.9321   -3.7711    2.3163 O   0  0  0  0  0  0  0  0  0  0  0  0
   -0.5196   -1.0459    0.3441 H   0  0  0  0  0  0  0  0  0  0  0  0
   -0.3070    0.0376    2.9302 H   0  0  0  0  0  0  0  0  0  0  0  0
    1.7550   -0.2910    0.6836 H   0  0  0  0  0  0  0  0  0  0  0  0
    2.1937    0.1181    2.3388 H   0  0  0  0  0  0  0  0  0  0  0  0
    1.2502   -2.0069    3.1667 H   0  0  0  0  0  0  0  0  0  0  0  0
    0.7137   -2.4609    1.5695 H   0  0  0  0  0  0  0  0  0  0  0  0
    3.7986   -4.2077    2.1731 H   0  0  0  0  0  0  0  0  0  0  0  0
    0.1698    2.0431    0.3042 N   0  0  0  0  0  0  0  0  0  0  0  0
    0.2088    3.3938   -0.2085 C   0  0  2  0  0  0  0  0  0  0  0  0
   -1.2157    3.8068   -0.5544 C   0  0  0  0  0  0  0  0  0  0  0  0
   -2.1112    2.9973   -0.7865 O   0  0  0  0  0  0  0  0  0  0  0  0
    1.1155    3.4979   -1.4249 C   0  0  0  0  0  0  0  0  0  0  0  0
    0.2042    1.2741   -0.3582 H   0  0  0  0  0  0  0  0  0  0  0  0
    0.5874    4.0282    0.6003 H   0  0  0  0  0  0  0  0  0  0  0  0
    0.7521    2.8690   -2.2458 H   0  0  0  0  0  0  0  0  0  0  0  0
    1.1665    4.5273   -1.7948 H   0  0  0  0  0  0  0  0  0  0  0  0
    2.1327    3.1722   -1.1818 H   0  0  0  0  0  0  0  0  0  0  0  0
   -1.3589    5.1859   -0.6158 N   0  0  0  0  0  0  0  0  0  0  0  0
   -2.6128    5.8260   -0.9383 C   0  0  0  0  0  0  0  0  0  0  0  0
   -0.5673    5.7810   -0.3899 H   0  0  0  0  0  0  0  0  0  0  0  0
   -2.6627    6.0111   -2.0214 H   0  0  0  0  0  0  0  0  0  0  0  0
   -3.4455    5.1723   -0.6394 H   0  0  0  0  0  0  0  0  0  0  0  0
   -2.6855    6.7821   -0.3993 H   0  0  0  0  0  0  0  0  0  0  0  0
  1  3  1  0  0  0  0
  1  7  1  0  0  0  0
  1  2  2  0  0  0  0
 34 35  1  0  0  0  0
 35 43  1  0  0  0  0
 35 36  2  0  0  0  0
  8  9  1  0  0  0  0
  9 17  1  0  0  0  0
  9 10  2  0  0  0  0
 18 19  1  0  0  0  0
 19 33  1  0  0  0  0
 19 20  2  0  0  0  0
 22 23  1  0  0  0  0
 23 24  2  0  0  0  0
 23 25  1  0  0  0  0
 34 37  1  0  0  0  0
  8 11  1  0  0  0  0
 43 44  1  0  0  0  0
 21 22  1  0  0  0  0
 18 21  1  0  0  0  0
 33 34  1  0  0  0  0
  7  8  1  0  0  0  0
 17 18  1  0  0  0  0
  3  4  1  0  0  0  0
  3  5  1  0  0  0  0
  3  6  1  0  0  0  0
 37 40  1  0  0  0  0
 37 41  1  0  0  0  0
 37 42  1  0  0  0  0
 11 14  1  0  0  0  0
 11 15  1  0  0  0  0
 11 16  1  0  0  0  0
 44 46  1  0  0  0  0
 44 47  1  0  0  0  0
 44 48  1  0  0  0  0
 22 30  1  0  0  0  0
 22 31  1  0  0  0  0
 21 28  1  0  0  0  0
 21 29  1  0  0  0  0
 34 39  1  0  0  0  0
  8 13  1  0  0  0  0
 18 27  1  0  0  0  0
 43 45  1  0  0  0  0
  7 12  1  0  0  0  0
 33 38  1  0  0  0  0
 17 26  1  0  0  0  0
 25 32  1  0  0  0  0
M  END
$$$$

  -OEChem-02062319033D

 48 47  0     1  0  0  0  0  0999 V2000
   -5.5827   -1.3473    1.4591 C   0  0  0  0  0  0  0  0  0  0  0  0
   -5.7053   -2.4696    0.9825 O   0  0  0  0  0  0  0  0  0  0  0  0
   -6.7879   -0.6277    1.9670 C   0  0  0  0  0  0  0  0  0  0  0  0
   -7.2718   -0.0164    1.1885 H   0  0  0  0  0  0  0  0  0  0  0  0
   -7.5699   -1.3171    2.3239 H   0  0  0  0  0  0  0  0  0  0  0  0
   -6.6057    0.0628    2.8060 H   0  0  0  0  0  0  0  0  0  0  0  0
   -4.4001   -0.6377    1.5884 N   0  0  0  0  0  0  0  0  0  0  0  0
   -3.1220   -1.1455    1.1644 C   0  0  2  0  0  0  0  0  0  0  0  0
   -2.2017    0.0428    0.9187 C   0  0  0  0  0  0  0  0  0  0  0  0
   -2.6171    1.1750    0.6807 O   0  0  0  0  0  0  0  0  0  0  0  0
   -3.2533   -1.9992   -0.0873 C   0  0  0  0  0  0  0  0  0  0  0  0
   -4.4370    0.2910    2.0047 H   0  0  0  0  0  0  0  0  0  0  0  0
   -2.7302   -1.7467    1.9921 H   0  0  0  0  0  0  0  0  0  0  0  0
   -3.6446   -1.4140   -0.9275 H   0  0  0  0  0  0  0  0  0  0  0  0
   -2.2844   -2.4081   -0.3922 H   0  0  0  0  0  0  0  0  0  0  0  0
   -3.9388   -2.8365    0.0822 H   0  0  0  0  0  0  0  0  0  0  0  0
   -0.8768   -0.3314    0.9568 N   0  0  0  0  0  0  0  0  0  0  0  0
   -0.0147   -0.0171    2.0976 C   0  0  2  0  0  0  0  0  0  0  0  0
    0.0032    1.5037    2.2178 C   0  0  0  0  0  0  0  0  0  0  0  0
   -0.0987    2.0824    3.2977 O   0  0  0  0  0  0  0  0  0  0  0  0
    1.3852   -0.5991    1.8514 C   0  0  0  0  0  0  0  0  0  0  0  0
    1.4195   -2.1273    1.8428 C   0  0  0  0  0  0  0  0  0  0  0  0
    2.8053   -2.6591    1.5744 C   0  0  0  0  0  0  0  0  0  0  0  0
    3.7576   -1.9543    1.2649 O   0  0  0  0  0  0  0  0  0  0  0  0
    2.8833   -4.0081    1.6858 O   0  0  0  0  0  0  0  0  0  0  0  0
   -0.4665   -0.8712    0.2126 H   0  0  0  0  0  0  0  0  0  0  0  0
   -0.4514   -0.4669    2.9954 H   0  0  0  0  0  0  0  0  0  0  0  0
    1.7667   -0.2288    0.8904 H   0  0  0  0  0  0  0  0  0  0  0  0
    2.0827   -0.2459    2.6223 H   0  0  0  0  0  0  0  0  0  0  0  0
    1.1183   -2.5086    2.8262 H   0  0  0  0  0  0  0  0  0  0  0  0
    0.7013   -2.5492    1.1322 H   0  0  0  0  0  0  0  0  0  0  0  0
    3.7645   -4.3967    1.5006 H   0  0  0  0  0  0  0  0  0  0  0  0
    0.1743    2.1290    0.9915 N   0  0  0  0  0  0  0  0  0  0  0  0
    0.2271    3.5647    0.8351 C   0  0  2  0  0  0  0  0  0  0  0  0
   -1.1764    4.0535    0.5022 C   0  0  0  0  0  0  0  0  0  0  0  0
   -2.0405    3.3289    0.0129 O   0  0  0  0  0  0  0  0  0  0  0  0
    1.2143    3.9672   -0.2494 C   0  0  0  0  0  0  0  0  0  0  0  0
    0.2670    1.5493    0.1629 H   0  0  0  0  0  0  0  0  0  0  0  0
    0.5385    3.9769    1.8011 H   0  0  0  0  0  0  0  0  0  0  0  0
    0.9189    3.5633   -1.2247 H   0  0  0  0  0  0  0  0  0  0  0  0
    1.2743    5.0562   -0.3471 H   0  0  0  0  0  0  0  0  0  0  0  0
    2.2172    3.5894   -0.0232 H   0  0  0  0  0  0  0  0  0  0  0  0
   -1.3371    5.4046    0.7757 N   0  0  0  0  0  0  0  0  0  0  0  0
   -2.5757    6.1070    0.5341 C   0  0  0  0  0  0  0  0  0  0  0  0
   -0.5728    5.9232    1.1983 H   0  0  0  0  0  0  0  0  0  0  0  0
   -2.5532    6.5563   -0.4697 H   0  0  0  0  0  0  0  0  0  0  0  0
   -3.4165    5.4010    0.6009 H   0  0  0  0  0  0  0  0  0  0  0  0
   -2.7010    6.8988    1.2874 H   0  0  0  0  0  0  0  0  0  0  0  0
  1  3  1  0  0  0  0
  1  7  1  0  0  0  0
  1  2  2  0  0  0  0
 34 35  1  0  0  0  0
 35 43  1  0  0  0  0
 35 36  2  0  0  0  0
  8  9  1  0  0  0  0
  9 17  1  0  0  0  0
  9 10  2  0  0  0  0
 18 19  1  0  0  0  0
 19 33  1  0  0  0  0
 19 20  2  0  0  0  0
 22 23  1  0  0  0  0
 23 24  2  0  0  0  0
 23 25  1  0  0  0  0
 34 37  1  0  0  0  0
  8 11  1  0  0  0  0
 43 44  1  0  0  0  0
 21 22  1  0  0  0  0
 18 21  1  0  0  0  0
 33 34  1  0  0  0  0
  7  8  1  0  0  0  0
 17 18  1  0  0  0  0
  3  4  1  0  0  0  0
  3  5  1  0  0  0  0
  3  6  1  0  0  0  0
 37 40  1  0  0  0  0
 37 41  1  0  0  0  0
 37 42  1  0  0  0  0
 11 14  1  0  0  0  0
 11 15  1  0  0  0  0
 11 16  1  0  0  0  0
 44 46  1  0  0  0  0
 44 47  1  0  0  0  0
 44 48  1  0  0  0  0
 22 30  1  0  0  0  0
 22 31  1  0  0  0  0
 21 28  1  0  0  0  0
 21 29  1  0  0  0  0
 34 39  1  0  0  0  0
  8 13  1  0  0  0  0
 18 27  1  0  0  0  0
 43 45  1  0  0  0  0
  7 12  1  0  0  0  0
 33 38  1  0  0  0  0
 17 26  1  0  0  0  0
 25 32  1  0  0  0  0
M  END
$$$$

  -OEChem-02062319033D

 48 47  0     1  0  0  0  0  0999 V2000
   -5.5827   -1.3473    1.4591 C   0  0  0  0  0  0  0  0  0  0  0  0
   -5.7053   -2.4696    0.9825 O   0  0  0  0  0  0  0  0  0  0  0  0
   -6.7879   -0.6277    1.9670 C   0  0  0  0  0  0  0  0  0  0  0  0
   -7.2718   -0.0164    1.1885 H   0  0  0  0  0  0  0  0  0  0  0  0
   -7.5699   -1.3171    2.3239 H   0  0  0  0  0  0  0  0  0  0  0  0
   -6.6057    0.0628    2.8060 H   0  0  0  0  0  0  0  0  0  0  0  0
   -4.4001   -0.6377    1.5884 N   0  0  0  0  0  0  0  0  0  0  0  0
   -3.1220   -1.1455    1.1644 C   0  0  2  0  0  0  0  0  0  0  0  0
   -2.2017    0.0428    0.9187 C   0  0  0  0  0  0  0  0  0  0  0  0
   -2.6171    1.1750    0.6807 O   0  0  0  0  0  0  0  0  0  0  0  0
   -3.2533   -1.9992   -0.0873 C   0  0  0  0  0  0  0  0  0  0  0  0
   -4.4370    0.2910    2.0047 H   0  0  0  0  0  0  0  0  0  0  0  0
   -2.7302   -1.7467    1.9921 H   0  0  0  0  0  0  0  0  0  0  0  0
   -3.6446   -1.4140   -0.9275 H   0  0  0  0  0  0  0  0  0  0  0  0
   -2.2844   -2.4081   -0.3922 H   0  0  0  0  0  0  0  0  0  0  0  0
   -3.9388   -2.8365    0.0822 H   0  0  0  0  0  0  0  0  0  0  0  0
   -0.8768   -0.3314    0.9568 N   0  0  0  0  0  0  0  0  0  0  0  0
   -0.1012   -0.3129    2.1983 C   0  0  2  0  0  0  0  0  0  0  0  0
   -0.1160    1.1300    2.6940 C   0  0  0  0  0  0  0  0  0  0  0  0
   -0.3019    1.4214    3.8738 O   0  0  0  0  0  0  0  0  0  0  0  0
    1.3217   -0.8176    1.9154 C   0  0  0  0  0  0  0  0  0  0  0  0
    1.3810   -2.2955    1.5295 C   0  0  0  0  0  0  0  0  0  0  0  0
    2.7905   -2.7460    1.2367 C   0  0  0  0  0  0  0  0  0  0  0  0
    3.7505   -1.9880    1.1809 O   0  0  0  0  0  0  0  0  0  0  0  0
    2.8821   -4.0804    1.0143 O   0  0  0  0  0  0  0  0  0  0  0  0
   -0.4072   -0.6695    0.1329 H   0  0  0  0  0  0  0  0  0  0  0  0
   -0.5918   -0.9714    2.9225 H   0  0  0  0  0  0  0  0  0  0  0  0
    1.7629   -0.2202    1.1064 H   0  0  0  0  0  0  0  0  0  0  0  0
    1.9582   -0.6689    2.7976 H   0  0  0  0  0  0  0  0  0  0  0  0
    1.0184   -2.9093    2.3632 H   0  0  0  0  0  0  0  0  0  0  0  0
    0.7207   -2.5258    0.6870 H   0  0  0  0  0  0  0  0  0  0  0  0
    3.7802   -4.4121    0.8015 H   0  0  0  0  0  0  0  0  0  0  0  0
    0.1297    2.0408    1.6772 N   0  0  0  0  0  0  0  0  0  0  0  0
    0.1702    3.4702    1.8869 C   0  0  2  0  0  0  0  0  0  0  0  0
   -1.2145    4.0289    1.5869 C   0  0  0  0  0  0  0  0  0  0  0  0
   -2.0308    3.4507    0.8725 O   0  0  0  0  0  0  0  0  0  0  0  0
    1.2237    4.1285    1.0097 C   0  0  0  0  0  0  0  0  0  0  0  0
    0.2890    1.6858    0.7391 H   0  0  0  0  0  0  0  0  0  0  0  0
    0.4071    3.6280    2.9447 H   0  0  0  0  0  0  0  0  0  0  0  0
    1.0033    3.9810   -0.0538 H   0  0  0  0  0  0  0  0  0  0  0  0
    1.2728    5.2074    1.1905 H   0  0  0  0  0  0  0  0  0  0  0  0
    2.2145    3.7044    1.2057 H   0  0  0  0  0  0  0  0  0  0  0  0
   -1.4154    5.2695    2.1758 N   0  0  0  0  0  0  0  0  0  0  0  0
   -2.6454    6.0122    2.0289 C   0  0  0  0  0  0  0  0  0  0  0  0
   -0.6907    5.6651    2.7674 H   0  0  0  0  0  0  0  0  0  0  0  0
   -2.5605    6.6974    1.1726 H   0  0  0  0  0  0  0  0  0  0  0  0
   -3.4774    5.3132    1.8579 H   0  0  0  0  0  0  0  0  0  0  0  0
   -2.8354    6.5914    2.9445 H   0  0  0  0  0  0  0  0  0  0  0  0
  1  3  1  0  0  0  0
  1  7  1  0  0  0  0
  1  2  2  0  0  0  0
 34 35  1  0  0  0  0
 35 43  1  0  0  0  0
 35 36  2  0  0  0  0
  8  9  1  0  0  0  0
  9 17  1  0  0  0  0
  9 10  2  0  0  0  0
 18 19  1  0  0  0  0
 19 33  1  0  0  0  0
 19 20  2  0  0  0  0
 22 23  1  0  0  0  0
 23 24  2  0  0  0  0
 23 25  1  0  0  0  0
 34 37  1  0  0  0  0
  8 11  1  0  0  0  0
 43 44  1  0  0  0  0
 21 22  1  0  0  0  0
 18 21  1  0  0  0  0
 33 34  1  0  0  0  0
  7  8  1  0  0  0  0
 17 18  1  0  0  0  0
  3  4  1  0  0  0  0
  3  5  1  0  0  0  0
  3  6  1  0  0  0  0
 37 40  1  0  0  0  0
 37 41  1  0  0  0  0
 37 42  1  0  0  0  0
 11 14  1  0  0  0  0
 11 15  1  0  0  0  0
 11 16  1  0  0  0  0
 44 46  1  0  0  0  0
 44 47  1  0  0  0  0
 44 48  1  0  0  0  0
 22 30  1  0  0  0  0
 22 31  1  0  0  0  0
 21 28  1  0  0  0  0
 21 29  1  0  0  0  0
 34 39  1  0  0  0  0
  8 13  1  0  0  0  0
 18 27  1  0  0  0  0
 43 45  1  0  0  0  0
  7 12  1  0  0  0  0
 33 38  1  0  0  0  0
 17 26  1  0  0  0  0
 25 32  1  0  0  0  0
M  END
$$$$

  -OEChem-02062319033D

 48 47  0     1  0  0  0  0  0999 V2000
   -5.5827   -1.3473    1.4591 C   0  0  0  0  0  0  0  0  0  0  0  0
   -5.7053   -2.4696    0.9825 O   0  0  0  0  0  0  0  0  0  0  0  0
   -6.7879   -0.6277    1.9670 C   0  0  0  0  0  0  0  0  0  0  0  0
   -7.2718   -0.0164    1.1885 H   0  0  0  0  0  0  0  0  0  0  0  0
   -7.5699   -1.3171    2.3239 H   0  0  0  0  0  0  0  0  0  0  0  0
   -6.6057    0.0628    2.8060 H   0  0  0  0  0  0  0  0  0  0  0  0
   -4.4001   -0.6377    1.5884 N   0  0  0  0  0  0  0  0  0  0  0  0
   -3.1220   -1.1455    1.1644 C   0  0  2  0  0  0  0  0  0  0  0  0
   -2.2017    0.0428    0.9187 C   0  0  0  0  0  0  0  0  0  0  0  0
   -2.6171    1.1750    0.6807 O   0  0  0  0  0  0  0  0  0  0  0  0
   -3.2533   -1.9992   -0.0873 C   0  0  0  0  0  0  0  0  0  0  0  0
   -4.4370    0.2910    2.0047 H   0  0  0  0  0  0  0  0  0  0  0  0
   -2.7302   -1.7467    1.9921 H   0  0  0  0  0  0  0  0  0  0  0  0
   -3.6446   -1.4140   -0.9275 H   0  0  0  0  0  0  0  0  0  0  0  0
   -2.2844   -2.4081   -0.3922 H   0  0  0  0  0  0  0  0  0  0  0  0
   -3.9388   -2.8365    0.0822 H   0  0  0  0  0  0  0  0  0  0  0  0
   -0.8768   -0.3314    0.9568 N   0  0  0  0  0  0  0  0  0  0  0  0
   -0.1896   -0.6242    2.2159 C   0  0  2  0  0  0  0  0  0  0  0  0
   -0.2620    0.6495    3.0525 C   0  0  0  0  0  0  0  0  0  0  0  0
   -0.5340    0.6381    4.2514 O   0  0  0  0  0  0  0  0  0  0  0  0
    1.2574   -1.0451    1.9184 C   0  0  0  0  0  0  0  0  0  0  0  0
    1.3671   -2.3803    1.1823 C   0  0  0  0  0  0  0  0  0  0  0  0
    2.8005   -2.7460    0.8878 C   0  0  0  0  0  0  0  0  0  0  0  0
    3.7497   -1.9997    1.0908 O   0  0  0  0  0  0  0  0  0  0  0  0
    2.9288   -3.9830    0.3476 O   0  0  0  0  0  0  0  0  0  0  0  0
   -0.3458   -0.4543    0.1103 H   0  0  0  0  0  0  0  0  0  0  0  0
   -0.7187   -1.4417    2.7167 H   0  0  0  0  0  0  0  0  0  0  0  0
    1.7440   -0.2656    1.3170 H   0  0  0  0  0  0  0  0  0  0  0  0
    1.8286   -1.1221    2.8529 H   0  0  0  0  0  0  0  0  0  0  0  0
    0.9574   -3.1818    1.8091 H   0  0  0  0  0  0  0  0  0  0  0  0
    0.7706   -2.3921    0.2642 H   0  0  0  0  0  0  0  0  0  0  0  0
    3.8447   -4.2528    0.1235 H   0  0  0  0  0  0  0  0  0  0  0  0
    0.0391    1.7846    2.3144 N   0  0  0  0  0  0  0  0  0  0  0  0
    0.0419    3.1165    2.8753 C   0  0  2  0  0  0  0  0  0  0  0  0
   -1.3274    3.7348    2.6259 C   0  0  0  0  0  0  0  0  0  0  0  0
   -2.0828    3.3544    1.7339 O   0  0  0  0  0  0  0  0  0  0  0  0
    1.1431    3.9709    2.2668 C   0  0  0  0  0  0  0  0  0  0  0  0
    0.2688    1.6743    1.3313 H   0  0  0  0  0  0  0  0  0  0  0  0
    0.2022    3.0053    3.9533 H   0  0  0  0  0  0  0  0  0  0  0  0
    0.9994    4.0934    1.1871 H   0  0  0  0  0  0  0  0  0  0  0  0
    1.1622    4.9705    2.7133 H   0  0  0  0  0  0  0  0  0  0  0  0
    2.1245    3.5096    2.4212 H   0  0  0  0  0  0  0  0  0  0  0  0
   -1.5886    4.7899    3.4890 N   0  0  0  0  0  0  0  0  0  0  0  0
   -2.8172    5.5479    3.4442 C   0  0  0  0  0  0  0  0  0  0  0  0
   -0.9132    5.0242    4.2105 H   0  0  0  0  0  0  0  0  0  0  0  0
   -2.6841    6.4248    2.7936 H   0  0  0  0  0  0  0  0  0  0  0  0
   -3.6240    4.9150    3.0459 H   0  0  0  0  0  0  0  0  0  0  0  0
   -3.0796    5.8810    4.4592 H   0  0  0  0  0  0  0  0  0  0  0  0
  1  3  1  0  0  0  0
  1  7  1  0  0  0  0
  1  2  2  0  0  0  0
 34 35  1  0  0  0  0
 35 43  1  0  0  0  0
 35 36  2  0  0  0  0
  8  9  1  0  0  0  0
  9 17  1  0  0  0  0
  9 10  2  0  0  0  0
 18 19  1  0  0  0  0
 19 33  1  0  0  0  0
 19 20  2  0  0  0  0
 22 23  1  0  0  0  0
 23 24  2  0  0  0  0
 23 25  1  0  0  0  0
 34 37  1  0  0  0  0
  8 11  1  0  0  0  0
 43 44  1  0  0  0  0
 21 22  1  0  0  0  0
 18 21  1  0  0  0  0
 33 34  1  0  0  0  0
  7  8  1  0  0  0  0
 17 18  1  0  0  0  0
  3  4  1  0  0  0  0
  3  5  1  0  0  0  0
  3  6  1  0  0  0  0
 37 40  1  0  0  0  0
 37 41  1  0  0  0  0
 37 42  1  0  0  0  0
 11 14  1  0  0  0  0
 11 15  1  0  0  0  0
 11 16  1  0  0  0  0
 44 46  1  0  0  0  0
 44 47  1  0  0  0  0
 44 48  1  0  0  0  0
 22 30  1  0  0  0  0
 22 31  1  0  0  0  0
 21 28  1  0  0  0  0
 21 29  1  0  0  0  0
 34 39  1  0  0  0  0
  8 13  1  0  0  0  0
 18 27  1  0  0  0  0
 43 45  1  0  0  0  0
  7 12  1  0  0  0  0
 33 38  1  0  0  0  0
 17 26  1  0  0  0  0
 25 32  1  0  0  0  0
M  END
$$$$

  -OEChem-02062319033D

 48 47  0     1  0  0  0  0  0999 V2000
   -5.5827   -1.3473    1.4591 C   0  0  0  0  0  0  0  0  0  0  0  0
   -5.7053   -2.4696    0.9825 O   0  0  0  0  0  0  0  0  0  0  0  0
   -6.7879   -0.6277    1.9670 C   0  0  0  0  0  0  0  0  0  0  0  0
   -7.2718   -0.0164    1.1885 H   0  0  0  0  0  0  0  0  0  0  0  0
   -7.5699   -1.3171    2.3239 H   0  0  0  0  0  0  0  0  0  0  0  0
   -6.6057    0.0628    2.8060 H   0  0  0  0  0  0  0  0  0  0  0  0
   -4.4001   -0.6377    1.5884 N   0  0  0  0  0  0  0  0  0  0  0  0
   -3.1220   -1.1455    1.1644 C   0  0  2  0  0  0  0  0  0  0  0  0
   -2.2017    0.0428    0.9187 C   0  0  0  0  0  0  0  0  0  0  0  0
   -2.6171    1.1750    0.6807 O   0  0  0  0  0  0  0  0  0  0  0  0
   -3.2533   -1.9992   -0.0873 C   0  0  0  0  0  0  0  0  0  0  0  0
   -4.4370    0.2910    2.0047 H   0  0  0  0  0  0  0  0  0  0  0  0
   -2.7302   -1.7467    1.9921 H   0  0  0  0  0  0  0  0  0  0  0  0
   -3.6446   -1.4140   -0.9275 H   0  0  0  0  0  0  0  0  0  0  0  0
   -2.2844   -2.4081   -0.3922 H   0  0  0  0  0  0  0  0  0  0  0  0
   -3.9388   -2.8365    0.0822 H   0  0  0  0  0  0  0  0  0  0  0  0
   -0.8768   -0.3314    0.9568 N   0  0  0  0  0  0  0  0  0  0  0  0
   -0.2741   -0.9300    2.1492 C   0  0  2  0  0  0  0  0  0  0  0  0
   -0.4248    0.0952    3.2689 C   0  0  0  0  0  0  0  0  0  0  0  0
   -0.7791   -0.2142    4.4048 O   0  0  0  0  0  0  0  0  0  0  0  0
    1.1966   -1.2660    1.8602 C   0  0  0  0  0  0  0  0  0  0  0  0
    1.3786   -2.3758    0.8249 C   0  0  0  0  0  0  0  0  0  0  0  0
    2.8347   -2.6591    0.5515 C   0  0  0  0  0  0  0  0  0  0  0  0
    3.7555   -1.9886    1.0008 O   0  0  0  0  0  0  0  0  0  0  0  0
    3.0200   -3.7226   -0.2688 O   0  0  0  0  0  0  0  0  0  0  0  0
   -0.2864   -0.2404    0.1464 H   0  0  0  0  0  0  0  0  0  0  0  0
   -0.8234   -1.8456    2.3919 H   0  0  0  0  0  0  0  0  0  0  0  0
    1.7113   -0.3621    1.5078 H   0  0  0  0  0  0  0  0  0  0  0  0
    1.7028   -1.5745    2.7844 H   0  0  0  0  0  0  0  0  0  0  0  0
    0.9393   -3.3075    1.2017 H   0  0  0  0  0  0  0  0  0  0  0  0
    0.8476   -2.1573   -0.1074 H   0  0  0  0  0  0  0  0  0  0  0  0
    3.9535   -3.9297   -0.4871 H   0  0  0  0  0  0  0  0  0  0  0  0
   -0.0915    1.3779    2.8597 N   0  0  0  0  0  0  0  0  0  0  0  0
   -0.1489    2.5279    3.7330 C   0  0  2  0  0  0  0  0  0  0  0  0
   -1.5074    3.1913    3.5484 C   0  0  0  0  0  0  0  0  0  0  0  0
   -2.1928    3.0465    2.5383 O   0  0  0  0  0  0  0  0  0  0  0  0
    0.9779    3.5050    3.4362 C   0  0  0  0  0  0  0  0  0  0  0  0
    0.2077    1.5157    1.8990 H   0  0  0  0  0  0  0  0  0  0  0  0
   -0.0621    2.1513    4.7580 H   0  0  0  0  0  0  0  0  0  0  0  0
    0.9076    3.8931    2.4135 H   0  0  0  0  0  0  0  0  0  0  0  0
    0.9499    4.3618    4.1174 H   0  0  0  0  0  0  0  0  0  0  0  0
    1.9536    3.0181    3.5405 H   0  0  0  0  0  0  0  0  0  0  0  0
   -1.8448    3.9984    4.6258 N   0  0  0  0  0  0  0  0  0  0  0  0
   -3.0793    4.7458    4.6836 C   0  0  0  0  0  0  0  0  0  0  0  0
   -1.2249    4.0443    5.4292 H   0  0  0  0  0  0  0  0  0  0  0  0
   -2.9155    5.7569    4.2827 H   0  0  0  0  0  0  0  0  0  0  0  0
   -3.8463    4.2336    4.0840 H   0  0  0  0  0  0  0  0  0  0  0  0
   -3.4169    4.8158    5.7282 H   0  0  0  0  0  0  0  0  0  0  0  0
  1  3  1  0  0  0  0
  1  7  1  0  0  0  0
  1  2  2  0  0  0  0
 34 35  1  0  0  0  0
 35 43  1  0  0  0  0
 35 36  2  0  0  0  0
  8  9  1  0  0  0  0
  9 17  1  0  0  0  0
  9 10  2  0  0  0  0
 18 19  1  0  0  0  0
 19 33  1  0  0  0  0
 19 20  2  0  0  0  0
 22 23  1  0  0  0  0
 23 24  2  0  0  0  0
 23 25  1  0  0  0  0
 34 37  1  0  0  0  0
  8 11  1  0  0  0  0
 43 44  1  0  0  0  0
 21 22  1  0  0  0  0
 18 21  1  0  0  0  0
 33 34  1  0  0  0  0
  7  8  1  0  0  0  0
 17 18  1  0  0  0  0
  3  4  1  0  0  0  0
  3  5  1  0  0  0  0
  3  6  1  0  0  0  0
 37 40  1  0  0  0  0
 37 41  1  0  0  0  0
 37 42  1  0  0  0  0
 11 14  1  0  0  0  0
 11 15  1  0  0  0  0
 11 16  1  0  0  0  0
 44 46  1  0  0  0  0
 44 47  1  0  0  0  0
 44 48  1  0  0  0  0
 22 30  1  0  0  0  0
 22 31  1  0  0  0  0
 21 28  1  0  0  0  0
 21 29  1  0  0  0  0
 34 39  1  0  0  0  0
  8 13  1  0  0  0  0
 18 27  1  0  0  0  0
 43 45  1  0  0  0  0
  7 12  1  0  0  0  0
 33 38  1  0  0  0  0
 17 26  1  0  0  0  0
 25 32  1  0  0  0  0
M  END
$$$$

  -OEChem-02062319033D

 48 47  0     1  0  0  0  0  0999 V2000
   -5.5827   -1.3473    1.4591 C   0  0  0  0  0  0  0  0  0  0  0  0
   -5.7053   -2.4696    0.9825 O   0  0  0  0  0  0  0  0  0  0  0  0
   -6.7879   -0.6277    1.9670 C   0  0  0  0  0  0  0  0  0  0  0  0
   -7.2718   -0.0164    1.1885 H   0  0  0  0  0  0  0  0  0  0  0  0
   -7.5699   -1.3171    2.3239 H   0  0  0  0  0  0  0  0  0  0  0  0
   -6.6057    0.0628    2.8060 H   0  0  0  0  0  0  0  0  0  0  0  0
   -4.4001   -0.6377    1.5884 N   0  0  0  0  0  0  0  0  0  0  0  0
   -3.1220   -1.1455    1.1644 C   0  0  2  0  0  0  0  0  0  0  0  0
   -2.2017    0.0428    0.9187 C   0  0  0  0  0  0  0  0  0  0  0  0
   -2.6171    1.1750    0.6807 O   0  0  0  0  0  0  0  0  0  0  0  0
   -3.2533   -1.9992   -0.0873 C   0  0  0  0  0  0  0  0  0  0  0  0
   -4.4370    0.2910    2.0047 H   0  0  0  0  0  0  0  0  0  0  0  0
   -2.7302   -1.7467    1.9921 H   0  0  0  0  0  0  0  0  0  0  0  0
   -3.6446   -1.4140   -0.9275 H   0  0  0  0  0  0  0  0  0  0  0  0
   -2.2844   -2.4081   -0.3922 H   0  0  0  0  0  0  0  0  0  0  0  0
   -3.9388   -2.8365    0.0822 H   0  0  0  0  0  0  0  0  0  0  0  0
   -0.8768   -0.3314    0.9568 N   0  0  0  0  0  0  0  0  0  0  0  0
   -0.3488   -1.2094    2.0026 C   0  0  2  0  0  0  0  0  0  0  0  0
   -0.5933   -0.4954    3.3285 C   0  0  0  0  0  0  0  0  0  0  0  0
   -1.0206   -1.0775    4.3235 O   0  0  0  0  0  0  0  0  0  0  0  0
    1.1437   -1.4653    1.7447 C   0  0  0  0  0  0  0  0  0  0  0  0
    1.4149   -2.2823    0.4815 C   0  0  0  0  0  0  0  0  0  0  0  0
    2.8908   -2.4911    0.2507 C   0  0  0  0  0  0  0  0  0  0  0  0
    3.7672   -1.9554    0.9171 O   0  0  0  0  0  0  0  0  0  0  0  0
    3.1497   -3.3170   -0.7930 O   0  0  0  0  0  0  0  0  0  0  0  0
   -0.2332   -0.0423    0.2387 H   0  0  0  0  0  0  0  0  0  0  0  0
   -0.8989   -2.1556    1.9702 H   0  0  0  0  0  0  0  0  0  0  0  0
    1.6669   -0.5030    1.6657 H   0  0  0  0  0  0  0  0  0  0  0  0
    1.5894   -1.9953    2.5967 H   0  0  0  0  0  0  0  0  0  0  0  0
    0.9655   -3.2778    0.5825 H   0  0  0  0  0  0  0  0  0  0  0  0
    0.9464   -1.8375   -0.4025 H   0  0  0  0  0  0  0  0  0  0  0  0
    4.0992   -3.4648   -0.9889 H   0  0  0  0  0  0  0  0  0  0  0  0
   -0.2530    0.8483    3.2759 N   0  0  0  0  0  0  0  0  0  0  0  0
   -0.3894    1.7445    4.4015 C   0  0  2  0  0  0  0  0  0  0  0  0
   -1.7423    2.4353    4.2914 C   0  0  0  0  0  0  0  0  0  0  0  0
   -2.3535    2.5480    3.2309 O   0  0  0  0  0  0  0  0  0  0  0  0
    0.7395    2.7627    4.4381 C   0  0  0  0  0  0  0  0  0  0  0  0
    0.1098    1.2206    2.4036 H   0  0  0  0  0  0  0  0  0  0  0  0
   -0.3679    1.1241    5.3042 H   0  0  0  0  0  0  0  0  0  0  0  0
    0.7341    3.3936    3.5417 H   0  0  0  0  0  0  0  0  0  0  0  0
    0.6505    3.4228    5.3073 H   0  0  0  0  0  0  0  0  0  0  0  0
    1.7132    2.2635    4.4872 H   0  0  0  0  0  0  0  0  0  0  0  0
   -2.1666    2.9490    5.5089 N   0  0  0  0  0  0  0  0  0  0  0  0
   -3.4140    3.6606    5.6626 C   0  0  0  0  0  0  0  0  0  0  0  0
   -1.6048    2.7921    6.3405 H   0  0  0  0  0  0  0  0  0  0  0  0
   -3.2390    4.7394    5.5386 H   0  0  0  0  0  0  0  0  0  0  0  0
   -4.1291    3.3153    4.9015 H   0  0  0  0  0  0  0  0  0  0  0  0
   -3.8243    3.4687    6.6650 H   0  0  0  0  0  0  0  0  0  0  0  0
  1  3  1  0  0  0  0
  1  7  1  0  0  0  0
  1  2  2  0  0  0  0
 34 35  1  0  0  0  0
 35 43  1  0  0  0  0
 35 36  2  0  0  0  0
  8  9  1  0  0  0  0
  9 17  1  0  0  0  0
  9 10  2  0  0  0  0
 18 19  1  0  0  0  0
 19 33  1  0  0  0  0
 19 20  2  0  0  0  0
 22 23  1  0  0  0  0
 23 24  2  0  0  0  0
 23 25  1  0  0  0  0
 34 37  1  0  0  0  0
  8 11  1  0  0  0  0
 43 44  1  0  0  0  0
 21 22  1  0  0  0  0
 18 21  1  0  0  0  0
 33 34  1  0  0  0  0
  7  8  1  0  0  0  0
 17 18  1  0  0  0  0
  3  4  1  0  0  0  0
  3  5  1  0  0  0  0
  3  6  1  0  0  0  0
 37 40  1  0  0  0  0
 37 41  1  0  0  0  0
 37 42  1  0  0  0  0
 11 14  1  0  0  0  0
 11 15  1  0  0  0  0
 11 16  1  0  0  0  0
 44 46  1  0  0  0  0
 44 47  1  0  0  0  0
 44 48  1  0  0  0  0
 22 30  1  0  0  0  0
 22 31  1  0  0  0  0
 21 28  1  0  0  0  0
 21 29  1  0  0  0  0
 34 39  1  0  0  0  0
  8 13  1  0  0  0  0
 18 27  1  0  0  0  0
 43 45  1  0  0  0  0
  7 12  1  0  0  0  0
 33 38  1  0  0  0  0
 17 26  1  0  0  0  0
 25 32  1  0  0  0  0
M  END
$$$$

  -OEChem-02062319033D

 48 47  0     1  0  0  0  0  0999 V2000
   -5.5827   -1.3473    1.4591 C   0  0  0  0  0  0  0  0  0  0  0  0
   -5.7053   -2.4696    0.9825 O   0  0  0  0  0  0  0  0  0  0  0  0
   -6.7879   -0.6277    1.9670 C   0  0  0  0  0  0  0  0  0  0  0  0
   -7.2718   -0.0164    1.1885 H   0  0  0  0  0  0  0  0  0  0  0  0
   -7.5699   -1.3171    2.3239 H   0  0  0  0  0  0  0  0  0  0  0  0
   -6.6057    0.0628    2.8060 H   0  0  0  0  0  0  0  0  0  0  0  0
   -4.4001   -0.6377    1.5884 N   0  0  0  0  0  0  0  0  0  0  0  0
   -3.1220   -1.1455    1.1644 C   0  0  2  0  0  0  0  0  0  0  0  0
   -2.2017    0.0428    0.9187 C   0  0  0  0  0  0  0  0  0  0  0  0
   -2.6171    1.1750    0.6807 O   0  0  0  0  0  0  0  0  0  0  0  0
   -3.2533   -1.9992   -0.0873 C   0  0  0  0  0  0  0  0  0  0  0  0
   -4.4370    0.2910    2.0047 H   0  0  0  0  0  0  0  0  0  0  0  0
   -2.7302   -1.7467    1.9921 H   0  0  0  0  0  0  0  0  0  0  0  0
   -3.6446   -1.4140   -0.9275 H   0  0  0  0  0  0  0  0  0  0  0  0
   -2.2844   -2.4081   -0.3922 H   0  0  0  0  0  0  0  0  0  0  0  0
   -3.9388   -2.8365    0.0822 H   0  0  0  0  0  0  0  0  0  0  0  0
   -0.8768   -0.3314    0.9568 N   0  0  0  0  0  0  0  0  0  0  0  0
   -0.4086   -1.4433    1.7862 C   0  0  2  0  0  0  0  0  0  0  0  0
   -0.7560   -1.0818    3.2272 C   0  0  0  0  0  0  0  0  0  0  0  0
   -1.2420   -1.8928    4.0130 O   0  0  0  0  0  0  0  0  0  0  0  0
    1.1020   -1.6294    1.5797 C   0  0  0  0  0  0  0  0  0  0  0  0
    1.4734   -2.1063    0.1757 C   0  0  0  0  0  0  0  0  0  0  0  0
    2.9649   -2.2536    0.0059 C   0  0  0  0  0  0  0  0  0  0  0  0
    3.7843   -1.9024    0.8453 O   0  0  0  0  0  0  0  0  0  0  0  0
    3.3088   -2.7937   -1.1892 O   0  0  0  0  0  0  0  0  0  0  0  0
   -0.1896    0.1264    0.3809 H   0  0  0  0  0  0  0  0  0  0  0  0
   -0.9399   -2.3505    1.4804 H   0  0  0  0  0  0  0  0  0  0  0  0
    1.6140   -0.6788    1.7801 H   0  0  0  0  0  0  0  0  0  0  0  0
    1.4960   -2.3558    2.3027 H   0  0  0  0  0  0  0  0  0  0  0  0
    1.0341   -3.0948   -0.0064 H   0  0  0  0  0  0  0  0  0  0  0  0
    1.0603   -1.4544   -0.6010 H   0  0  0  0  0  0  0  0  0  0  0  0
    4.2720   -2.8897   -1.3476 H   0  0  0  0  0  0  0  0  0  0  0  0
   -0.4345    0.2319    3.5348 N   0  0  0  0  0  0  0  0  0  0  0  0
   -0.6631    0.8195    4.8353 C   0  0  2  0  0  0  0  0  0  0  0  0
   -2.0160    1.5184    4.8044 C   0  0  0  0  0  0  0  0  0  0  0  0
   -2.5538    1.8930    3.7644 O   0  0  0  0  0  0  0  0  0  0  0  0
    0.4440    1.7946    5.2042 C   0  0  0  0  0  0  0  0  0  0  0  0
   -0.0180    0.8093    2.8106 H   0  0  0  0  0  0  0  0  0  0  0  0
   -0.6944   -0.0063    5.5544 H   0  0  0  0  0  0  0  0  0  0  0  0
    0.4908    2.6289    4.4949 H   0  0  0  0  0  0  0  0  0  0  0  0
    0.2844    2.2173    6.2017 H   0  0  0  0  0  0  0  0  0  0  0  0
    1.4199    1.2971    5.1969 H   0  0  0  0  0  0  0  0  0  0  0  0
   -2.5320    1.7132    6.0779 N   0  0  0  0  0  0  0  0  0  0  0  0
   -3.7983    2.3662    6.3146 C   0  0  0  0  0  0  0  0  0  0  0  0
   -2.0268    1.3530    6.8822 H   0  0  0  0  0  0  0  0  0  0  0  0
   -3.6324    3.4416    6.4756 H   0  0  0  0  0  0  0  0  0  0  0  0
   -4.4532    2.2228    5.4425 H   0  0  0  0  0  0  0  0  0  0  0  0
   -4.2741    1.9312    7.2059 H   0  0  0  0  0  0  0  0  0  0  0  0
  1  3  1  0  0  0  0
  1  7  1  0  0  0  0
  1  2  2  0  0  0  0
 34 35  1  0  0  0  0
 35 43  1  0  0  0  0
 35 36  2  0  0  0  0
  8  9  1  0  0  0  0
  9 17  1  0  0  0  0
  9 10  2  0  0  0  0
 18 19  1  0  0  0  0
 19 33  1  0  0  0  0
 19 20  2  0  0  0  0
 22 23  1  0  0  0  0
 23 24  2  0  0  0  0
 23 25  1  0  0  0  0
 34 37  1  0  0  0  0
  8 11  1  0  0  0  0
 43 44  1  0  0  0  0
 21 22  1  0  0  0  0
 18 21  1  0  0  0  0
 33 34  1  0  0  0  0
  7  8  1  0  0  0  0
 17 18  1  0  0  0  0
  3  4  1  0  0  0  0
  3  5  1  0  0  0  0
  3  6  1  0  0  0  0
 37 40  1  0  0  0  0
 37 41  1  0  0  0  0
 37 42  1  0  0  0  0
 11 14  1  0  0  0  0
 11 15  1  0  0  0  0
 11 16  1  0  0  0  0
 44 46  1  0  0  0  0
 44 47  1  0  0  0  0
 44 48  1  0  0  0  0
 22 30  1  0  0  0  0
 22 31  1  0  0  0  0
 21 28  1  0  0  0  0
 21 29  1  0  0  0  0
 34 39  1  0  0  0  0
  8 13  1  0  0  0  0
 18 27  1  0  0  0  0
 43 45  1  0  0  0  0
  7 12  1  0  0  0  0
 33 38  1  0  0  0  0
 17 26  1  0  0  0  0
 25 32  1  0  0  0  0
M  END
$$$$

  -OEChem-02062319033D

 48 47  0     1  0  0  0  0  0999 V2000
   -5.5827   -1.3473    1.4591 C   0  0  0  0  0  0  0  0  0  0  0  0
   -5.7053   -2.4696    0.9825 O   0  0  0  0  0  0  0  0  0  0  0  0
   -6.7879   -0.6277    1.9670 C   0  0  0  0  0  0  0  0  0  0  0  0
   -7.2718   -0.0164    1.1885 H   0  0  0  0  0  0  0  0  0  0  0  0
   -7.5699   -1.3171    2.3239 H   0  0  0  0  0  0  0  0  0  0  0  0
   -6.6057    0.0628    2.8060 H   0  0  0  0  0  0  0  0  0  0  0  0
   -4.4001   -0.6377    1.5884 N   0  0  0  0  0  0  0  0  0  0  0  0
   -3.1220   -1.1455    1.1644 C   0  0  2  0  0  0  0  0  0  0  0  0
   -2.2017    0.0428    0.9187 C   0  0  0  0  0  0  0  0  0  0  0  0
   -2.6171    1.1750    0.6807 O   0  0  0  0  0  0  0  0  0  0  0  0
   -3.2533   -1.9992   -0.0873 C   0  0  0  0  0  0  0  0  0  0  0  0
   -4.4370    0.2910    2.0047 H   0  0  0  0  0  0  0  0  0  0  0  0
   -2.7302   -1.7467    1.9921 H   0  0  0  0  0  0  0  0  0  0  0  0
   -3.6446   -1.4140   -0.9275 H   0  0  0  0  0  0  0  0  0  0  0  0
   -2.2844   -2.4081   -0.3922 H   0  0  0  0  0  0  0  0  0  0  0  0
   -3.9388   -2.8365    0.0822 H   0  0  0  0  0  0  0  0  0  0  0  0
   -0.8768   -0.3314    0.9568 N   0  0  0  0  0  0  0  0  0  0  0  0
   -0.4495   -1.6157    1.5148 C   0  0  2  0  0  0  0  0  0  0  0  0
   -0.9019   -1.6242    2.9718 C   0  0  0  0  0  0  0  0  0  0  0  0
   -1.4281   -2.6046    3.4946 O   0  0  0  0  0  0  0  0  0  0  0  0
    1.0746   -1.7472    1.3766 C   0  0  0  0  0  0  0  0  0  0  0  0
    1.5501   -1.8598   -0.0718 C   0  0  0  0  0  0  0  0  0  0  0  0
    3.0520   -1.9627   -0.1662 C   0  0  0  0  0  0  0  0  0  0  0  0
    3.8054   -1.8333    0.7903 O   0  0  0  0  0  0  0  0  0  0  0  0
    3.4867   -2.1885   -1.4305 O   0  0  0  0  0  0  0  0  0  0  0  0
   -0.1587    0.2543    0.5633 H   0  0  0  0  0  0  0  0  0  0  0  0
   -0.9437   -2.4172    0.9559 H   0  0  0  0  0  0  0  0  0  0  0  0
    1.5561   -0.8774    1.8431 H   0  0  0  0  0  0  0  0  0  0  0  0
    1.4290   -2.6316    1.9224 H   0  0  0  0  0  0  0  0  0  0  0  0
    1.1404   -2.7709   -0.5248 H   0  0  0  0  0  0  0  0  0  0  0  0
    1.1815   -1.0341   -0.6893 H   0  0  0  0  0  0  0  0  0  0  0  0
    4.4599   -2.2437   -1.5387 H   0  0  0  0  0  0  0  0  0  0  0  0
   -0.6237   -0.4292    3.6187 N   0  0  0  0  0  0  0  0  0  0  0  0
   -0.9514   -0.1838    5.0047 C   0  0  2  0  0  0  0  0  0  0  0  0
   -2.3099    0.5030    5.0523 C   0  0  0  0  0  0  0  0  0  0  0  0
   -2.7802    1.1259    4.1026 O   0  0  0  0  0  0  0  0  0  0  0  0
    0.1117    0.6665    5.6825 C   0  0  0  0  0  0  0  0  0  0  0  0
   -0.1672    0.3098    3.0924 H   0  0  0  0  0  0  0  0  0  0  0  0
   -1.0192   -1.1627    5.4917 H   0  0  0  0  0  0  0  0  0  0  0  0
    0.1941    1.6513    5.2082 H   0  0  0  0  0  0  0  0  0  0  0  0
   -0.1236    0.8276    6.7397 H   0  0  0  0  0  0  0  0  0  0  0  0
    1.0936    0.1849    5.6212 H   0  0  0  0  0  0  0  0  0  0  0  0
   -2.9161    0.3752    6.2942 N   0  0  0  0  0  0  0  0  0  0  0  0
   -4.2061    0.9508    6.5950 C   0  0  0  0  0  0  0  0  0  0  0  0
   -2.4623   -0.1749    7.0175 H   0  0  0  0  0  0  0  0  0  0  0  0
   -4.0691    1.9519    7.0298 H   0  0  0  0  0  0  0  0  0  0  0  0
   -4.7966    1.0305    5.6703 H   0  0  0  0  0  0  0  0  0  0  0  0
   -4.7356    0.3083    7.3139 H   0  0  0  0  0  0  0  0  0  0  0  0
  1  3  1  0  0  0  0
  1  7  1  0  0  0  0
  1  2  2  0  0  0  0
 34 35  1  0  0  0  0
 35 43  1  0  0  0  0
 35 36  2  0  0  0  0
  8  9  1  0  0  0  0
  9 17  1  0  0  0  0
  9 10  2  0  0  0  0
 18 19  1  0  0  0  0
 19 33  1  0  0  0  0
 19 20  2  0  0  0  0
 22 23  1  0  0  0  0
 23 24  2  0  0  0  0
 23 25  1  0  0  0  0
 34 37  1  0  0  0  0
  8 11  1  0  0  0  0
 43 44  1  0  0  0  0
 21 22  1  0  0  0  0
 18 21  1  0  0  0  0
 33 34  1  0  0  0  0
  7  8  1  0  0  0  0
 17 18  1  0  0  0  0
  3  4  1  0  0  0  0
  3  5  1  0  0  0  0
  3  6  1  0  0  0  0
 37 40  1  0  0  0  0
 37 41  1  0  0  0  0
 37 42  1  0  0  0  0
 11 14  1  0  0  0  0
 11 15  1  0  0  0  0
 11 16  1  0  0  0  0
 44 46  1  0  0  0  0
 44 47  1  0  0  0  0
 44 48  1  0  0  0  0
 22 30  1  0  0  0  0
 22 31  1  0  0  0  0
 21 28  1  0  0  0  0
 21 29  1  0  0  0  0
 34 39  1  0  0  0  0
  8 13  1  0  0  0  0
 18 27  1  0  0  0  0
 43 45  1  0  0  0  0
  7 12  1  0  0  0  0
 33 38  1  0  0  0  0
 17 26  1  0  0  0  0
 25 32  1  0  0  0  0
M  END
$$$$

  -OEChem-02062319033D

 48 47  0     1  0  0  0  0  0999 V2000
   -5.5827   -1.3473    1.4591 C   0  0  0  0  0  0  0  0  0  0  0  0
   -5.7053   -2.4696    0.9825 O   0  0  0  0  0  0  0  0  0  0  0  0
   -6.7879   -0.6277    1.9670 C   0  0  0  0  0  0  0  0  0  0  0  0
   -7.2718   -0.0164    1.1885 H   0  0  0  0  0  0  0  0  0  0  0  0
   -7.5699   -1.3171    2.3239 H   0  0  0  0  0  0  0  0  0  0  0  0
   -6.6057    0.0628    2.8060 H   0  0  0  0  0  0  0  0  0  0  0  0
   -4.4001   -0.6377    1.5884 N   0  0  0  0  0  0  0  0  0  0  0  0
   -3.1220   -1.1455    1.1644 C   0  0  2  0  0  0  0  0  0  0  0  0
   -2.2017    0.0428    0.9187 C   0  0  0  0  0  0  0  0  0  0  0  0
   -2.6171    1.1750    0.6807 O   0  0  0  0  0  0  0  0  0  0  0  0
   -3.2533   -1.9992   -0.0873 C   0  0  0  0  0  0  0  0  0  0  0  0
   -4.4370    0.2910    2.0047 H   0  0  0  0  0  0  0  0  0  0  0  0
   -2.7302   -1.7467    1.9921 H   0  0  0  0  0  0  0  0  0  0  0  0
   -3.6446   -1.4140   -0.9275 H   0  0  0  0  0  0  0  0  0  0  0  0
   -2.2844   -2.4081   -0.3922 H   0  0  0  0  0  0  0  0  0  0  0  0
   -3.9388   -2.8365    0.0822 H   0  0  0  0  0  0  0  0  0  0  0  0
   -0.8768   -0.3314    0.9568 N   0  0  0  0  0  0  0  0  0  0  0  0
   -0.4687   -1.7150    1.2068 C   0  0  2  0  0  0  0  0  0  0  0  0
   -1.0209   -2.0856    2.5799 C   0  0  0  0  0  0  0  0  0  0  0  0
   -1.5664   -3.1644    2.8035 O   0  0  0  0  0  0  0  0  0  0  0  0
    1.0632   -1.8106    1.1492 C   0  0  0  0  0  0  0  0  0  0  0  0
    1.6399   -1.5595   -0.2440 C   0  0  0  0  0  0  0  0  0  0  0  0
    3.1461   -1.6382   -0.2538 C   0  0  0  0  0  0  0  0  0  0  0  0
    3.8291   -1.7526    0.7560 O   0  0  0  0  0  0  0  0  0  0  0  0
    3.6711   -1.5426   -1.5003 O   0  0  0  0  0  0  0  0  0  0  0  0
   -0.1426    0.3326    0.7735 H   0  0  0  0  0  0  0  0  0  0  0  0
   -0.9099   -2.3511    0.4324 H   0  0  0  0  0  0  0  0  0  0  0  0
    1.4972   -1.0853    1.8504 H   0  0  0  0  0  0  0  0  0  0  0  0
    1.3930   -2.8037    1.4816 H   0  0  0  0  0  0  0  0  0  0  0  0
    1.2773   -2.3282   -0.9374 H   0  0  0  0  0  0  0  0  0  0  0  0
    1.3018   -0.6053   -0.6614 H   0  0  0  0  0  0  0  0  0  0  0  0
    4.6503   -1.5707   -1.5492 H   0  0  0  0  0  0  0  0  0  0  0  0
   -0.8075   -1.0900    3.5217 N   0  0  0  0  0  0  0  0  0  0  0  0
   -1.2346   -1.1972    4.8983 C   0  0  2  0  0  0  0  0  0  0  0  0
   -2.6039   -0.5415    5.0183 C   0  0  0  0  0  0  0  0  0  0  0  0
   -3.0171    0.2992    4.2224 O   0  0  0  0  0  0  0  0  0  0  0  0
   -0.2349   -0.5445    5.8402 C   0  0  0  0  0  0  0  0  0  0  0  0
   -0.3276   -0.2440    3.2297 H   0  0  0  0  0  0  0  0  0  0  0  0
   -1.3203   -2.2665    5.1204 H   0  0  0  0  0  0  0  0  0  0  0  0
   -0.1355    0.5272    5.6328 H   0  0  0  0  0  0  0  0  0  0  0  0
   -0.5456   -0.6516    6.8847 H   0  0  0  0  0  0  0  0  0  0  0  0
    0.7565   -0.9974    5.7311 H   0  0  0  0  0  0  0  0  0  0  0  0
   -3.2928   -0.9738    6.1429 N   0  0  0  0  0  0  0  0  0  0  0  0
   -4.6096   -0.4891    6.4848 C   0  0  0  0  0  0  0  0  0  0  0  0
   -2.8815   -1.6876    6.7371 H   0  0  0  0  0  0  0  0  0  0  0  0
   -4.5192    0.3718    7.1636 H   0  0  0  0  0  0  0  0  0  0  0  0
   -5.1357   -0.1804    5.5694 H   0  0  0  0  0  0  0  0  0  0  0  0
   -5.1773   -1.2896    6.9817 H   0  0  0  0  0  0  0  0  0  0  0  0
  1  3  1  0  0  0  0
  1  7  1  0  0  0  0
  1  2  2  0  0  0  0
 34 35  1  0  0  0  0
 35 43  1  0  0  0  0
 35 36  2  0  0  0  0
  8  9  1  0  0  0  0
  9 17  1  0  0  0  0
  9 10  2  0  0  0  0
 18 19  1  0  0  0  0
 19 33  1  0  0  0  0
 19 20  2  0  0  0  0
 22 23  1  0  0  0  0
 23 24  2  0  0  0  0
 23 25  1  0  0  0  0
 34 37  1  0  0  0  0
  8 11  1  0  0  0  0
 43 44  1  0  0  0  0
 21 22  1  0  0  0  0
 18 21  1  0  0  0  0
 33 34  1  0  0  0  0
  7  8  1  0  0  0  0
 17 18  1  0  0  0  0
  3  4  1  0  0  0  0
  3  5  1  0  0  0  0
  3  6  1  0  0  0  0
 37 40  1  0  0  0  0
 37 41  1  0  0  0  0
 37 42  1  0  0  0  0
 11 14  1  0  0  0  0
 11 15  1  0  0  0  0
 11 16  1  0  0  0  0
 44 46  1  0  0  0  0
 44 47  1  0  0  0  0
 44 48  1  0  0  0  0
 22 30  1  0  0  0  0
 22 31  1  0  0  0  0
 21 28  1  0  0  0  0
 21 29  1  0  0  0  0
 34 39  1  0  0  0  0
  8 13  1  0  0  0  0
 18 27  1  0  0  0  0
 43 45  1  0  0  0  0
  7 12  1  0  0  0  0
 33 38  1  0  0  0  0
 17 26  1  0  0  0  0
 25 32  1  0  0  0  0
M  END
$$$$

  -OEChem-02062319033D

 48 47  0     1  0  0  0  0  0999 V2000
   -5.5827   -1.3473    1.4591 C   0  0  0  0  0  0  0  0  0  0  0  0
   -5.7053   -2.4696    0.9825 O   0  0  0  0  0  0  0  0  0  0  0  0
   -6.7879   -0.6277    1.9670 C   0  0  0  0  0  0  0  0  0  0  0  0
   -7.2718   -0.0164    1.1885 H   0  0  0  0  0  0  0  0  0  0  0  0
   -7.5699   -1.3171    2.3239 H   0  0  0  0  0  0  0  0  0  0  0  0
   -6.6057    0.0628    2.8060 H   0  0  0  0  0  0  0  0  0  0  0  0
   -4.4001   -0.6377    1.5884 N   0  0  0  0  0  0  0  0  0  0  0  0
   -3.1220   -1.1455    1.1644 C   0  0  2  0  0  0  0  0  0  0  0  0
   -2.2017    0.0428    0.9187 C   0  0  0  0  0  0  0  0  0  0  0  0
   -2.6171    1.1750    0.6807 O   0  0  0  0  0  0  0  0  0  0  0  0
   -3.2533   -1.9992   -0.0873 C   0  0  0  0  0  0  0  0  0  0  0  0
   -4.4370    0.2910    2.0047 H   0  0  0  0  0  0  0  0  0  0  0  0
   -2.7302   -1.7467    1.9921 H   0  0  0  0  0  0  0  0  0  0  0  0
   -3.6446   -1.4140   -0.9275 H   0  0  0  0  0  0  0  0  0  0  0  0
   -2.2844   -2.4081   -0.3922 H   0  0  0  0  0  0  0  0  0  0  0  0
   -3.9388   -2.8365    0.0822 H   0  0  0  0  0  0  0  0  0  0  0  0
   -0.8768   -0.3314    0.9568 N   0  0  0  0  0  0  0  0  0  0  0  0
   -0.4649   -1.7344    0.8832 C   0  0  2  0  0  0  0  0  0  0  0  0
   -1.1051   -2.4345    2.0780 C   0  0  0  0  0  0  0  0  0  0  0  0
   -1.6474   -3.5341    1.9869 O   0  0  0  0  0  0  0  0  0  0  0  0
    1.0687   -1.8153    0.9129 C   0  0  0  0  0  0  0  0  0  0  0  0
    1.7365   -1.2259   -0.3293 C   0  0  0  0  0  0  0  0  0  0  0  0
    3.2409   -1.3023   -0.2511 C   0  0  0  0  0  0  0  0  0  0  0  0
    3.8539   -1.6660    0.7445 O   0  0  0  0  0  0  0  0  0  0  0  0
    3.8496   -0.9000   -1.3939 O   0  0  0  0  0  0  0  0  0  0  0  0
   -0.1424    0.3560    0.9972 H   0  0  0  0  0  0  0  0  0  0  0  0
   -0.8410   -2.1566   -0.0545 H   0  0  0  0  0  0  0  0  0  0  0  0
    1.4412   -1.2884    1.8016 H   0  0  0  0  0  0  0  0  0  0  0  0
    1.3905   -2.8605    1.0105 H   0  0  0  0  0  0  0  0  0  0  0  0
    1.4354   -1.7969   -1.2161 H   0  0  0  0  0  0  0  0  0  0  0  0
    1.4130   -0.1972   -0.5193 H   0  0  0  0  0  0  0  0  0  0  0  0
    4.8301   -0.9168   -1.3785 H   0  0  0  0  0  0  0  0  0  0  0  0
   -0.9736   -1.7054    3.2507 N   0  0  0  0  0  0  0  0  0  0  0  0
   -1.4934   -2.1517    4.5232 C   0  0  2  0  0  0  0  0  0  0  0  0
   -2.8781   -1.5441    4.7048 C   0  0  0  0  0  0  0  0  0  0  0  0
   -3.2485   -0.5308    4.1156 O   0  0  0  0  0  0  0  0  0  0  0  0
   -0.5721   -1.7560    5.6667 C   0  0  0  0  0  0  0  0  0  0  0  0
   -0.4881   -0.8142    3.2132 H   0  0  0  0  0  0  0  0  0  0  0  0
   -1.5771   -3.2424    4.4657 H   0  0  0  0  0  0  0  0  0  0  0  0
   -0.4758   -0.6666    5.7400 H   0  0  0  0  0  0  0  0  0  0  0  0
   -0.9528   -2.1195    6.6269 H   0  0  0  0  0  0  0  0  0  0  0  0
    0.4316   -2.1692    5.5193 H   0  0  0  0  0  0  0  0  0  0  0  0
   -3.6363   -2.2419    5.6345 N   0  0  0  0  0  0  0  0  0  0  0  0
   -4.9813   -1.8553    5.9915 C   0  0  0  0  0  0  0  0  0  0  0  0
   -3.2558   -3.0820    6.0602 H   0  0  0  0  0  0  0  0  0  0  0  0
   -4.9521   -1.1909    6.8677 H   0  0  0  0  0  0  0  0  0  0  0  0
   -5.4475   -1.3273    5.1465 H   0  0  0  0  0  0  0  0  0  0  0  0
   -5.5692   -2.7534    6.2319 H   0  0  0  0  0  0  0  0  0  0  0  0
  1  3  1  0  0  0  0
  1  7  1  0  0  0  0
  1  2  2  0  0  0  0
 34 35  1  0  0  0  0
 35 43  1  0  0  0  0
 35 36  2  0  0  0  0
  8  9  1  0  0  0  0
  9 17  1  0  0  0  0
  9 10  2  0  0  0  0
 18 19  1  0  0  0  0
 19 33  1  0  0  0  0
 19 20  2  0  0  0  0
 22 23  1  0  0  0  0
 23 24  2  0  0  0  0
 23 25  1  0  0  0  0
 34 37  1  0  0  0  0
  8 11  1  0  0  0  0
 43 44  1  0  0  0  0
 21 22  1  0  0  0  0
 18 21  1  0  0  0  0
 33 34  1  0  0  0  0
  7  8  1  0  0  0  0
 17 18  1  0  0  0  0
  3  4  1  0  0  0  0
  3  5  1  0  0  0  0
  3  6  1  0  0  0  0
 37 40  1  0  0  0  0
 37 41  1  0  0  0  0
 37 42  1  0  0  0  0
 11 14  1  0  0  0  0
 11 15  1  0  0  0  0
 11 16  1  0  0  0  0
 44 46  1  0  0  0  0
 44 47  1  0  0  0  0
 44 48  1  0  0  0  0
 22 30  1  0  0  0  0
 22 31  1  0  0  0  0
 21 28  1  0  0  0  0
 21 29  1  0  0  0  0
 34 39  1  0  0  0  0
  8 13  1  0  0  0  0
 18 27  1  0  0  0  0
 43 45  1  0  0  0  0
  7 12  1  0  0  0  0
 33 38  1  0  0  0  0
 17 26  1  0  0  0  0
 25 32  1  0  0  0  0
M  END
$$$$

  -OEChem-02062319033D

 48 47  0     1  0  0  0  0  0999 V2000
   -5.5827   -1.3473    1.4591 C   0  0  0  0  0  0  0  0  0  0  0  0
   -5.7053   -2.4696    0.9825 O   0  0  0  0  0  0  0  0  0  0  0  0
   -6.7879   -0.6277    1.9670 C   0  0  0  0  0  0  0  0  0  0  0  0
   -7.2718   -0.0164    1.1885 H   0  0  0  0  0  0  0  0  0  0  0  0
   -7.5699   -1.3171    2.3239 H   0  0  0  0  0  0  0  0  0  0  0  0
   -6.6057    0.0628    2.8060 H   0  0  0  0  0  0  0  0  0  0  0  0
   -4.4001   -0.6377    1.5884 N   0  0  0  0  0  0  0  0  0  0  0  0
   -3.1220   -1.1455    1.1644 C   0  0  2  0  0  0  0  0  0  0  0  0
   -2.2017    0.0428    0.9187 C   0  0  0  0  0  0  0  0  0  0  0  0
   -2.6171    1.1750    0.6807 O   0  0  0  0  0  0  0  0  0  0  0  0
   -3.2533   -1.9992   -0.0873 C   0  0  0  0  0  0  0  0  0  0  0  0
   -4.4370    0.2910    2.0047 H   0  0  0  0  0  0  0  0  0  0  0  0
   -2.7302   -1.7467    1.9921 H   0  0  0  0  0  0  0  0  0  0  0  0
   -3.6446   -1.4140   -0.9275 H   0  0  0  0  0  0  0  0  0  0  0  0
   -2.2844   -2.4081   -0.3922 H   0  0  0  0  0  0  0  0  0  0  0  0
   -3.9388   -2.8365    0.0822 H   0  0  0  0  0  0  0  0  0  0  0  0
   -0.8768   -0.3314    0.9568 N   0  0  0  0  0  0  0  0  0  0  0  0
   -0.4383   -1.6725    0.5661 C   0  0  2  0  0  0  0  0  0  0  0  0
   -1.1486   -2.6472    1.5005 C   0  0  0  0  0  0  0  0  0  0  0  0
   -1.6655   -3.6884    1.1003 O   0  0  0  0  0  0  0  0  0  0  0  0
    1.0906   -1.7609    0.6839 C   0  0  0  0  0  0  0  0  0  0  0  0
    1.8335   -0.8817   -0.3219 C   0  0  0  0  0  0  0  0  0  0  0  0
    3.3299   -0.9779   -0.1582 C   0  0  0  0  0  0  0  0  0  0  0  0
    3.8781   -1.5793    0.7567 O   0  0  0  0  0  0  0  0  0  0  0  0
    4.0099   -0.3044   -1.1187 O   0  0  0  0  0  0  0  0  0  0  0  0
   -0.1581    0.3230    1.2191 H   0  0  0  0  0  0  0  0  0  0  0  0
   -0.7416   -1.8470   -0.4715 H   0  0  0  0  0  0  0  0  0  0  0  0
    1.3920   -1.4729    1.6999 H   0  0  0  0  0  0  0  0  0  0  0  0
    1.4217   -2.7980    0.5411 H   0  0  0  0  0  0  0  0  0  0  0  0
    1.6039   -1.2131   -1.3420 H   0  0  0  0  0  0  0  0  0  0  0  0
    1.5075    0.1624   -0.2725 H   0  0  0  0  0  0  0  0  0  0  0  0
    4.9871   -0.3263   -1.0380 H   0  0  0  0  0  0  0  0  0  0  0  0
   -1.1105   -2.2336    2.8239 N   0  0  0  0  0  0  0  0  0  0  0  0
   -1.7101   -2.9820    3.9051 C   0  0  2  0  0  0  0  0  0  0  0  0
   -3.1137   -2.4365    4.1330 C   0  0  0  0  0  0  0  0  0  0  0  0
   -3.4586   -1.3077    3.7895 O   0  0  0  0  0  0  0  0  0  0  0  0
   -0.8769   -2.8855    5.1737 C   0  0  0  0  0  0  0  0  0  0  0  0
   -0.6380   -1.3620    3.0439 H   0  0  0  0  0  0  0  0  0  0  0  0
   -1.7722   -4.0239    3.5723 H   0  0  0  0  0  0  0  0  0  0  0  0
   -0.8035   -1.8489    5.5223 H   0  0  0  0  0  0  0  0  0  0  0  0
   -1.3175   -3.4762    5.9836 H   0  0  0  0  0  0  0  0  0  0  0  0
    0.1411   -3.2506    5.0000 H   0  0  0  0  0  0  0  0  0  0  0  0
   -3.9233   -3.3426    4.8035 N   0  0  0  0  0  0  0  0  0  0  0  0
   -5.2959   -3.0548    5.1487 C   0  0  0  0  0  0  0  0  0  0  0  0
   -3.5599   -4.2630    5.0328 H   0  0  0  0  0  0  0  0  0  0  0  0
   -5.3383   -2.6299    6.1624 H   0  0  0  0  0  0  0  0  0  0  0  0
   -5.7107   -2.3321    4.4306 H   0  0  0  0  0  0  0  0  0  0  0  0
   -5.8846   -3.9835    5.1157 H   0  0  0  0  0  0  0  0  0  0  0  0
  1  3  1  0  0  0  0
  1  7  1  0  0  0  0
  1  2  2  0  0  0  0
 34 35  1  0  0  0  0
 35 43  1  0  0  0  0
 35 36  2  0  0  0  0
  8  9  1  0  0  0  0
  9 17  1  0  0  0  0
  9 10  2  0  0  0  0
 18 19  1  0  0  0  0
 19 33  1  0  0  0  0
 19 20  2  0  0  0  0
 22 23  1  0  0  0  0
 23 24  2  0  0  0  0
 23 25  1  0  0  0  0
 34 37  1  0  0  0  0
  8 11  1  0  0  0  0
 43 44  1  0  0  0  0
 21 22  1  0  0  0  0
 18 21  1  0  0  0  0
 33 34  1  0  0  0  0
  7  8  1  0  0  0  0
 17 18  1  0  0  0  0
  3  4  1  0  0  0  0
  3  5  1  0  0  0  0
  3  6  1  0  0  0  0
 37 40  1  0  0  0  0
 37 41  1  0  0  0  0
 37 42  1  0  0  0  0
 11 14  1  0  0  0  0
 11 15  1  0  0  0  0
 11 16  1  0  0  0  0
 44 46  1  0  0  0  0
 44 47  1  0  0  0  0
 44 48  1  0  0  0  0
 22 30  1  0  0  0  0
 22 31  1  0  0  0  0
 21 28  1  0  0  0  0
 21 29  1  0  0  0  0
 34 39  1  0  0  0  0
  8 13  1  0  0  0  0
 18 27  1  0  0  0  0
 43 45  1  0  0  0  0
  7 12  1  0  0  0  0
 33 38  1  0  0  0  0
 17 26  1  0  0  0  0
 25 32  1  0  0  0  0
M  END
$$$$

  -OEChem-02062319033D

 48 47  0     1  0  0  0  0  0999 V2000
   -5.5827   -1.3473    1.4591 C   0  0  0  0  0  0  0  0  0  0  0  0
   -5.7053   -2.4696    0.9825 O   0  0  0  0  0  0  0  0  0  0  0  0
   -6.7879   -0.6277    1.9670 C   0  0  0  0  0  0  0  0  0  0  0  0
   -7.2718   -0.0164    1.1885 H   0  0  0  0  0  0  0  0  0  0  0  0
   -7.5699   -1.3171    2.3239 H   0  0  0  0  0  0  0  0  0  0  0  0
   -6.6057    0.0628    2.8060 H   0  0  0  0  0  0  0  0  0  0  0  0
   -4.4001   -0.6377    1.5884 N   0  0  0  0  0  0  0  0  0  0  0  0
   -3.1220   -1.1455    1.1644 C   0  0  2  0  0  0  0  0  0  0  0  0
   -2.2017    0.0428    0.9187 C   0  0  0  0  0  0  0  0  0  0  0  0
   -2.6171    1.1750    0.6807 O   0  0  0  0  0  0  0  0  0  0  0  0
   -3.2533   -1.9992   -0.0873 C   0  0  0  0  0  0  0  0  0  0  0  0
   -4.4370    0.2910    2.0047 H   0  0  0  0  0  0  0  0  0  0  0  0
   -2.7302   -1.7467    1.9921 H   0  0  0  0  0  0  0  0  0  0  0  0
   -3.6446   -1.4140   -0.9275 H   0  0  0  0  0  0  0  0  0  0  0  0
   -2.2844   -2.4081   -0.3922 H   0  0  0  0  0  0  0  0  0  0  0  0
   -3.9388   -2.8365    0.0822 H   0  0  0  0  0  0  0  0  0  0  0  0
   -0.8768   -0.3314    0.9568 N   0  0  0  0  0  0  0  0  0  0  0  0
   -0.3908   -1.5336    0.2770 C   0  0  2  0  0  0  0  0  0  0  0  0
   -1.1484   -2.7092    0.8866 C   0  0  0  0  0  0  0  0  0  0  0  0
   -1.6196   -3.6169    0.2043 O   0  0  0  0  0  0  0  0  0  0  0  0
    1.1275   -1.6513    0.4778 C   0  0  0  0  0  0  0  0  0  0  0  0
    1.9243   -0.5504   -0.2222 C   0  0  0  0  0  0  0  0  0  0  0  0
    3.4070   -0.6870    0.0186 C   0  0  0  0  0  0  0  0  0  0  0  0
    3.8999   -1.4984    0.7919 O   0  0  0  0  0  0  0  0  0  0  0  0
    4.1411    0.2034   -0.6932 O   0  0  0  0  0  0  0  0  0  0  0  0
   -0.1887    0.2357    1.4241 H   0  0  0  0  0  0  0  0  0  0  0  0
   -0.6185   -1.4435   -0.7902 H   0  0  0  0  0  0  0  0  0  0  0  0
    1.3530   -1.6260    1.5523 H   0  0  0  0  0  0  0  0  0  0  0  0
    1.4843   -2.6206    0.1055 H   0  0  0  0  0  0  0  0  0  0  0  0
    1.7713   -0.6167   -1.3063 H   0  0  0  0  0  0  0  0  0  0  0  0
    1.5789    0.4490    0.0620 H   0  0  0  0  0  0  0  0  0  0  0  0
    5.1106    0.1604   -0.5512 H   0  0  0  0  0  0  0  0  0  0  0  0
   -1.2090   -2.6385    2.2706 N   0  0  0  0  0  0  0  0  0  0  0  0
   -1.8701   -3.6317    3.0861 C   0  0  2  0  0  0  0  0  0  0  0  0
   -3.2947   -3.1577    3.3419 C   0  0  0  0  0  0  0  0  0  0  0  0
   -3.6330   -1.9784    3.2664 O   0  0  0  0  0  0  0  0  0  0  0  0
   -1.1286   -3.8559    4.3948 C   0  0  0  0  0  0  0  0  0  0  0  0
   -0.7670   -1.8501    2.7335 H   0  0  0  0  0  0  0  0  0  0  0  0
   -1.8922   -4.5576    2.5011 H   0  0  0  0  0  0  0  0  0  0  0  0
   -1.0962   -2.9390    4.9946 H   0  0  0  0  0  0  0  0  0  0  0  0
   -1.6148   -4.6290    4.9989 H   0  0  0  0  0  0  0  0  0  0  0  0
   -0.0953   -4.1680    4.2088 H   0  0  0  0  0  0  0  0  0  0  0  0
   -4.1343   -4.2010    3.7066 N   0  0  0  0  0  0  0  0  0  0  0  0
   -5.5320   -4.0059    4.0138 C   0  0  0  0  0  0  0  0  0  0  0  0
   -3.7729   -5.1501    3.7251 H   0  0  0  0  0  0  0  0  0  0  0  0
   -5.6514   -3.8469    5.0957 H   0  0  0  0  0  0  0  0  0  0  0  0
   -5.9074   -3.1263    3.4704 H   0  0  0  0  0  0  0  0  0  0  0  0
   -6.1019   -4.8960    3.7090 H   0  0  0  0  0  0  0  0  0  0  0  0
  1  3  1  0  0  0  0
  1  7  1  0  0  0  0
  1  2  2  0  0  0  0
 34 35  1  0  0  0  0
 35 43  1  0  0  0  0
 35 36  2  0  0  0  0
  8  9  1  0  0  0  0
  9 17  1  0  0  0  0
  9 10  2  0  0  0  0
 18 19  1  0  0  0  0
 19 33  1  0  0  0  0
 19 20  2  0  0  0  0
 22 23  1  0  0  0  0
 23 24  2  0  0  0  0
 23 25  1  0  0  0  0
 34 37  1  0  0  0  0
  8 11  1  0  0  0  0
 43 44  1  0  0  0  0
 21 22  1  0  0  0  0
 18 21  1  0  0  0  0
 33 34  1  0  0  0  0
  7  8  1  0  0  0  0
 17 18  1  0  0  0  0
  3  4  1  0  0  0  0
  3  5  1  0  0  0  0
  3  6  1  0  0  0  0
 37 40  1  0  0  0  0
 37 41  1  0  0  0  0
 37 42  1  0  0  0  0
 11 14  1  0  0  0  0
 11 15  1  0  0  0  0
 11 16  1  0  0  0  0
 44 46  1  0  0  0  0
 44 47  1  0  0  0  0
 44 48  1  0  0  0  0
 22 30  1  0  0  0  0
 22 31  1  0  0  0  0
 21 28  1  0  0  0  0
 21 29  1  0  0  0  0
 34 39  1  0  0  0  0
  8 13  1  0  0  0  0
 18 27  1  0  0  0  0
 43 45  1  0  0  0  0
  7 12  1  0  0  0  0
 33 38  1  0  0  0  0
 17 26  1  0  0  0  0
 25 32  1  0  0  0  0
M  END
$$$$

  -OEChem-02062319033D

 48 47  0     1  0  0  0  0  0999 V2000
   -5.5827   -1.3473    1.4591 C   0  0  0  0  0  0  0  0  0  0  0  0
   -5.7053   -2.4696    0.9825 O   0  0  0  0  0  0  0  0  0  0  0  0
   -6.7879   -0.6277    1.9670 C   0  0  0  0  0  0  0  0  0  0  0  0
   -7.2718   -0.0164    1.1885 H   0  0  0  0  0  0  0  0  0  0  0  0
   -7.5699   -1.3171    2.3239 H   0  0  0  0  0  0  0  0  0  0  0  0
   -6.6057    0.0628    2.8060 H   0  0  0  0  0  0  0  0  0  0  0  0
   -4.4001   -0.6377    1.5884 N   0  0  0  0  0  0  0  0  0  0  0  0
   -3.1220   -1.1455    1.1644 C   0  0  2  0  0  0  0  0  0  0  0  0
   -2.2017    0.0428    0.9187 C   0  0  0  0  0  0  0  0  0  0  0  0
   -2.6171    1.1750    0.6807 O   0  0  0  0  0  0  0  0  0  0  0  0
   -3.2533   -1.9992   -0.0873 C   0  0  0  0  0  0  0  0  0  0  0  0
   -4.4370    0.2910    2.0047 H   0  0  0  0  0  0  0  0  0  0  0  0
   -2.7302   -1.7467    1.9921 H   0  0  0  0  0  0  0  0  0  0  0  0
   -3.6446   -1.4140   -0.9275 H   0  0  0  0  0  0  0  0  0  0  0  0
   -2.2844   -2.4081   -0.3922 H   0  0  0  0  0  0  0  0  0  0  0  0
   -3.9388   -2.8365    0.0822 H   0  0  0  0  0  0  0  0  0  0  0  0
   -0.8768   -0.3314    0.9568 N   0  0  0  0  0  0  0  0  0  0  0  0
   -0.3255   -1.3271    0.0358 C   0  0  2  0  0  0  0  0  0  0  0  0
   -1.1047   -2.6162    0.2783 C   0  0  0  0  0  0  0  0  0  0  0  0
   -1.5127   -3.3243   -0.6401 O   0  0  0  0  0  0  0  0  0  0  0  0
    1.1769   -1.4938    0.3085 C   0  0  0  0  0  0  0  0  0  0  0  0
    2.0025   -0.2546   -0.0370 C   0  0  0  0  0  0  0  0  0  0  0  0
    3.4669   -0.4495    0.2672 C   0  0  0  0  0  0  0  0  0  0  0  0
    3.9180   -1.4288    0.8475 O   0  0  0  0  0  0  0  0  0  0  0  0
    4.2343    0.5889   -0.1466 O   0  0  0  0  0  0  0  0  0  0  0  0
   -0.2320    0.1001    1.5983 H   0  0  0  0  0  0  0  0  0  0  0  0
   -0.4800   -0.9734   -0.9889 H   0  0  0  0  0  0  0  0  0  0  0  0
    1.3268   -1.7375    1.3688 H   0  0  0  0  0  0  0  0  0  0  0  0
    1.5741   -2.3404   -0.2667 H   0  0  0  0  0  0  0  0  0  0  0  0
    1.9263   -0.0483   -1.1116 H   0  0  0  0  0  0  0  0  0  0  0  0
    1.6222    0.6431    0.4615 H   0  0  0  0  0  0  0  0  0  0  0  0
    5.1921    0.5102    0.0490 H   0  0  0  0  0  0  0  0  0  0  0  0
   -1.2623   -2.8926    1.6283 N   0  0  0  0  0  0  0  0  0  0  0  0
   -1.9624   -4.0566    2.1220 C   0  0  2  0  0  0  0  0  0  0  0  0
   -3.4087   -3.6588    2.3855 C   0  0  0  0  0  0  0  0  0  0  0  0
   -3.7599   -2.4972    2.5818 O   0  0  0  0  0  0  0  0  0  0  0  0
   -1.3101   -4.6011    3.3832 C   0  0  0  0  0  0  0  0  0  0  0  0
   -0.8662   -2.2452    2.3031 H   0  0  0  0  0  0  0  0  0  0  0  0
   -1.9289   -4.8074    1.3250 H   0  0  0  0  0  0  0  0  0  0  0  0
   -1.3341   -3.8627    4.1929 H   0  0  0  0  0  0  0  0  0  0  0  0
   -1.8245   -5.4995    3.7398 H   0  0  0  0  0  0  0  0  0  0  0  0
   -0.2614   -4.8588    3.1995 H   0  0  0  0  0  0  0  0  0  0  0  0
   -4.2548   -4.7585    2.4185 N   0  0  0  0  0  0  0  0  0  0  0  0
   -5.6734   -4.6437    2.6642 C   0  0  0  0  0  0  0  0  0  0  0  0
   -3.8803   -5.6829    2.2260 H   0  0  0  0  0  0  0  0  0  0  0  0
   -5.8701   -4.7591    3.7403 H   0  0  0  0  0  0  0  0  0  0  0  0
   -6.0243   -3.6557    2.3313 H   0  0  0  0  0  0  0  0  0  0  0  0
   -6.2064   -5.4287    2.1078 H   0  0  0  0  0  0  0  0  0  0  0  0
  1  3  1  0  0  0  0
  1  7  1  0  0  0  0
  1  2  2  0  0  0  0
 34 35  1  0  0  0  0
 35 43  1  0  0  0  0
 35 36  2  0  0  0  0
  8  9  1  0  0  0  0
  9 17  1  0  0  0  0
  9 10  2  0  0  0  0
 18 19  1  0  0  0  0
 19 33  1  0  0  0  0
 19 20  2  0  0  0  0
 22 23  1  0  0  0  0
 23 24  2  0  0  0  0
 23 25  1  0  0  0  0
 34 37  1  0  0  0  0
  8 11  1  0  0  0  0
 43 44  1  0  0  0  0
 21 22  1  0  0  0  0
 18 21  1  0  0  0  0
 33 34  1  0  0  0  0
  7  8  1  0  0  0  0
 17 18  1  0  0  0  0
  3  4  1  0  0  0  0
  3  5  1  0  0  0  0
  3  6  1  0  0  0  0
 37 40  1  0  0  0  0
 37 41  1  0  0  0  0
 37 42  1  0  0  0  0
 11 14  1  0  0  0  0
 11 15  1  0  0  0  0
 11 16  1  0  0  0  0
 44 46  1  0  0  0  0
 44 47  1  0  0  0  0
 44 48  1  0  0  0  0
 22 30  1  0  0  0  0
 22 31  1  0  0  0  0
 21 28  1  0  0  0  0
 21 29  1  0  0  0  0
 34 39  1  0  0  0  0
  8 13  1  0  0  0  0
 18 27  1  0  0  0  0
 43 45  1  0  0  0  0
  7 12  1  0  0  0  0
 33 38  1  0  0  0  0
 17 26  1  0  0  0  0
 25 32  1  0  0  0  0
M  END
$$$$

  -OEChem-02062319033D

 48 47  0     1  0  0  0  0  0999 V2000
   -5.5827   -1.3473    1.4591 C   0  0  0  0  0  0  0  0  0  0  0  0
   -5.7053   -2.4696    0.9825 O   0  0  0  0  0  0  0  0  0  0  0  0
   -6.7879   -0.6277    1.9670 C   0  0  0  0  0  0  0  0  0  0  0  0
   -7.2718   -0.0164    1.1885 H   0  0  0  0  0  0  0  0  0  0  0  0
   -7.5699   -1.3171    2.3239 H   0  0  0  0  0  0  0  0  0  0  0  0
   -6.6057    0.0628    2.8060 H   0  0  0  0  0  0  0  0  0  0  0  0
   -4.4001   -0.6377    1.5884 N   0  0  0  0  0  0  0  0  0  0  0  0
   -3.1220   -1.1455    1.1644 C   0  0  2  0  0  0  0  0  0  0  0  0
   -2.2017    0.0428    0.9187 C   0  0  0  0  0  0  0  0  0  0  0  0
   -2.6171    1.1750    0.6807 O   0  0  0  0  0  0  0  0  0  0  0  0
   -3.2533   -1.9992   -0.0873 C   0  0  0  0  0  0  0  0  0  0  0  0
   -4.4370    0.2910    2.0047 H   0  0  0  0  0  0  0  0  0  0  0  0
   -2.7302   -1.7467    1.9921 H   0  0  0  0  0  0  0  0  0  0  0  0
   -3.6446   -1.4140   -0.9275 H   0  0  0  0  0  0  0  0  0  0  0  0
   -2.2844   -2.4081   -0.3922 H   0  0  0  0  0  0  0  0  0  0  0  0
   -3.9388   -2.8365    0.0822 H   0  0  0  0  0  0  0  0  0  0  0  0
   -0.8768   -0.3314    0.9568 N   0  0  0  0  0  0  0  0  0  0  0  0
   -0.2470   -1.0671   -0.1412 C   0  0  2  0  0  0  0  0  0  0  0  0
   -1.0203   -2.3746   -0.2831 C   0  0  0  0  0  0  0  0  0  0  0  0
   -1.3522   -2.8308   -1.3755 O   0  0  0  0  0  0  0  0  0  0  0  0
    1.2353   -1.2991    0.1878 C   0  0  0  0  0  0  0  0  0  0  0  0
    2.0629   -0.0144    0.2211 C   0  0  0  0  0  0  0  0  0  0  0  0
    3.5057   -0.2815    0.5708 C   0  0  0  0  0  0  0  0  0  0  0  0
    3.9310   -1.3754    0.9198 O   0  0  0  0  0  0  0  0  0  0  0  0
    4.2831    0.8259    0.4839 O   0  0  0  0  0  0  0  0  0  0  0  0
   -0.2851   -0.0746    1.7297 H   0  0  0  0  0  0  0  0  0  0  0  0
   -0.3357   -0.4689   -1.0541 H   0  0  0  0  0  0  0  0  0  0  0  0
    1.3152   -1.7997    1.1620 H   0  0  0  0  0  0  0  0  0  0  0  0
    1.6851   -1.9763   -0.5502 H   0  0  0  0  0  0  0  0  0  0  0  0
    2.0582    0.4533   -0.7711 H   0  0  0  0  0  0  0  0  0  0  0  0
    1.6346    0.7314    0.8987 H   0  0  0  0  0  0  0  0  0  0  0  0
    5.2262    0.6993    0.7215 H   0  0  0  0  0  0  0  0  0  0  0  0
   -1.2668   -2.9785    0.9410 N   0  0  0  0  0  0  0  0  0  0  0  0
   -1.9807   -4.2275    1.0785 C   0  0  2  0  0  0  0  0  0  0  0  0
   -3.4481   -3.9054    1.3289 C   0  0  0  0  0  0  0  0  0  0  0  0
   -3.8306   -2.8288    1.7824 O   0  0  0  0  0  0  0  0  0  0  0  0
   -1.4089   -5.0703    2.2077 C   0  0  0  0  0  0  0  0  0  0  0  0
   -0.9290   -2.5204    1.7820 H   0  0  0  0  0  0  0  0  0  0  0  0
   -1.8800   -4.7561    0.1243 H   0  0  0  0  0  0  0  0  0  0  0  0
   -1.5009   -4.5570    3.1719 H   0  0  0  0  0  0  0  0  0  0  0  0
   -1.9323   -6.0284    2.2921 H   0  0  0  0  0  0  0  0  0  0  0  0
   -0.3460   -5.2760    2.0408 H   0  0  0  0  0  0  0  0  0  0  0  0
   -4.2765   -4.9771    1.0270 N   0  0  0  0  0  0  0  0  0  0  0  0
   -5.7104   -4.9247    1.1918 C   0  0  0  0  0  0  0  0  0  0  0  0
   -3.8749   -5.8251    0.6378 H   0  0  0  0  0  0  0  0  0  0  0  0
   -5.9796   -5.3044    2.1885 H   0  0  0  0  0  0  0  0  0  0  0  0
   -6.0532   -3.8844    1.0910 H   0  0  0  0  0  0  0  0  0  0  0  0
   -6.1909   -5.5454    0.4212 H   0  0  0  0  0  0  0  0  0  0  0  0
  1  3  1  0  0  0  0
  1  7  1  0  0  0  0
  1  2  2  0  0  0  0
 34 35  1  0  0  0  0
 35 43  1  0  0  0  0
 35 36  2  0  0  0  0
  8  9  1  0  0  0  0
  9 17  1  0  0  0  0
  9 10  2  0  0  0  0
 18 19  1  0  0  0  0
 19 33  1  0  0  0  0
 19 20  2  0  0  0  0
 22 23  1  0  0  0  0
 23 24  2  0  0  0  0
 23 25  1  0  0  0  0
 34 37  1  0  0  0  0
  8 11  1  0  0  0  0
 43 44  1  0  0  0  0
 21 22  1  0  0  0  0
 18 21  1  0  0  0  0
 33 34  1  0  0  0  0
  7  8  1  0  0  0  0
 17 18  1  0  0  0  0
  3  4  1  0  0  0  0
  3  5  1  0  0  0  0
  3  6  1  0  0  0  0
 37 40  1  0  0  0  0
 37 41  1  0  0  0  0
 37 42  1  0  0  0  0
 11 14  1  0  0  0  0
 11 15  1  0  0  0  0
 11 16  1  0  0  0  0
 44 46  1  0  0  0  0
 44 47  1  0  0  0  0
 44 48  1  0  0  0  0
 22 30  1  0  0  0  0
 22 31  1  0  0  0  0
 21 28  1  0  0  0  0
 21 29  1  0  0  0  0
 34 39  1  0  0  0  0
  8 13  1  0  0  0  0
 18 27  1  0  0  0  0
 43 45  1  0  0  0  0
  7 12  1  0  0  0  0
 33 38  1  0  0  0  0
 17 26  1  0  0  0  0
 25 32  1  0  0  0  0
M  END
$$$$

  -OEChem-02062319033D

 48 47  0     1  0  0  0  0  0999 V2000
   -5.5827   -1.3473    1.4591 C   0  0  0  0  0  0  0  0  0  0  0  0
   -5.7053   -2.4696    0.9825 O   0  0  0  0  0  0  0  0  0  0  0  0
   -6.7879   -0.6277    1.9670 C   0  0  0  0  0  0  0  0  0  0  0  0
   -7.2718   -0.0164    1.1885 H   0  0  0  0  0  0  0  0  0  0  0  0
   -7.5699   -1.3171    2.3239 H   0  0  0  0  0  0  0  0  0  0  0  0
   -6.6057    0.0628    2.8060 H   0  0  0  0  0  0  0  0  0  0  0  0
   -4.4001   -0.6377    1.5884 N   0  0  0  0  0  0  0  0  0  0  0  0
   -3.1220   -1.1455    1.1644 C   0  0  2  0  0  0  0  0  0  0  0  0
   -2.2017    0.0428    0.9187 C   0  0  0  0  0  0  0  0  0  0  0  0
   -2.6171    1.1750    0.6807 O   0  0  0  0  0  0  0  0  0  0  0  0
   -3.2533   -1.9992   -0.0873 C   0  0  0  0  0  0  0  0  0  0  0  0
   -4.4370    0.2910    2.0047 H   0  0  0  0  0  0  0  0  0  0  0  0
   -2.7302   -1.7467    1.9921 H   0  0  0  0  0  0  0  0  0  0  0  0
   -3.6446   -1.4140   -0.9275 H   0  0  0  0  0  0  0  0  0  0  0  0
   -2.2844   -2.4081   -0.3922 H   0  0  0  0  0  0  0  0  0  0  0  0
   -3.9388   -2.8365    0.0822 H   0  0  0  0  0  0  0  0  0  0  0  0
   -0.8768   -0.3314    0.9568 N   0  0  0  0  0  0  0  0  0  0  0  0
   -0.1606   -0.7713   -0.2420 C   0  0  2  0  0  0  0  0  0  0  0  0
   -0.9011   -2.0008   -0.7593 C   0  0  0  0  0  0  0  0  0  0  0  0
   -1.1489   -2.1698   -1.9516 O   0  0  0  0  0  0  0  0  0  0  0  0
    1.2988   -1.0806    0.1237 C   0  0  0  0  0  0  0  0  0  0  0  0
    2.1014    0.1538    0.5344 C   0  0  0  0  0  0  0  0  0  0  0  0
    3.5205   -0.1946    0.9085 C   0  0  0  0  0  0  0  0  0  0  0  0
    3.9381   -1.3417    1.0038 O   0  0  0  0  0  0  0  0  0  0  0  0
    4.2843    0.8982    1.1554 O   0  0  0  0  0  0  0  0  0  0  0  0
   -0.3444   -0.2763    1.8094 H   0  0  0  0  0  0  0  0  0  0  0  0
   -0.1952    0.0356   -0.9813 H   0  0  0  0  0  0  0  0  0  0  0  0
    1.3189   -1.8083    0.9459 H   0  0  0  0  0  0  0  0  0  0  0  0
    1.8096   -1.5533   -0.7255 H   0  0  0  0  0  0  0  0  0  0  0  0
    2.1581    0.8540   -0.3081 H   0  0  0  0  0  0  0  0  0  0  0  0
    1.6152    0.7079    1.3439 H   0  0  0  0  0  0  0  0  0  0  0  0
    5.2105    0.7147    1.4206 H   0  0  0  0  0  0  0  0  0  0  0  0
   -1.2222   -2.8903    0.2553 N   0  0  0  0  0  0  0  0  0  0  0  0
   -1.9238   -4.1329    0.0266 C   0  0  2  0  0  0  0  0  0  0  0  0
   -3.4100   -3.8808    0.2441 C   0  0  0  0  0  0  0  0  0  0  0  0
   -3.8403   -2.9506    0.9227 O   0  0  0  0  0  0  0  0  0  0  0  0
   -1.4183   -5.2316    0.9486 C   0  0  0  0  0  0  0  0  0  0  0  0
   -0.9510   -2.6569    1.2058 H   0  0  0  0  0  0  0  0  0  0  0  0
   -1.7486   -4.4072   -1.0194 H   0  0  0  0  0  0  0  0  0  0  0  0
   -1.5852   -4.9747    2.0010 H   0  0  0  0  0  0  0  0  0  0  0  0
   -1.9309   -6.1796    0.7545 H   0  0  0  0  0  0  0  0  0  0  0  0
   -0.3432   -5.3911    0.8119 H   0  0  0  0  0  0  0  0  0  0  0  0
   -4.1982   -4.8420   -0.3731 N   0  0  0  0  0  0  0  0  0  0  0  0
   -5.6407   -4.8299   -0.3029 C   0  0  0  0  0  0  0  0  0  0  0  0
   -3.7569   -5.5669   -0.9313 H   0  0  0  0  0  0  0  0  0  0  0  0
   -5.9723   -5.4455    0.5462 H   0  0  0  0  0  0  0  0  0  0  0  0
   -5.9923   -3.7966   -0.1659 H   0  0  0  0  0  0  0  0  0  0  0  0
   -6.0565   -5.2380   -1.2360 H   0  0  0  0  0  0  0  0  0  0  0  0
  1  3  1  0  0  0  0
  1  7  1  0  0  0  0
  1  2  2  0  0  0  0
 34 35  1  0  0  0  0
 35 43  1  0  0  0  0
 35 36  2  0  0  0  0
  8  9  1  0  0  0  0
  9 17  1  0  0  0  0
  9 10  2  0  0  0  0
 18 19  1  0  0  0  0
 19 33  1  0  0  0  0
 19 20  2  0  0  0  0
 22 23  1  0  0  0  0
 23 24  2  0  0  0  0
 23 25  1  0  0  0  0
 34 37  1  0  0  0  0
  8 11  1  0  0  0  0
 43 44  1  0  0  0  0
 21 22  1  0  0  0  0
 18 21  1  0  0  0  0
 33 34  1  0  0  0  0
  7  8  1  0  0  0  0
 17 18  1  0  0  0  0
  3  4  1  0  0  0  0
  3  5  1  0  0  0  0
  3  6  1  0  0  0  0
 37 40  1  0  0  0  0
 37 41  1  0  0  0  0
 37 42  1  0  0  0  0
 11 14  1  0  0  0  0
 11 15  1  0  0  0  0
 11 16  1  0  0  0  0
 44 46  1  0  0  0  0
 44 47  1  0  0  0  0
 44 48  1  0  0  0  0
 22 30  1  0  0  0  0
 22 31  1  0  0  0  0
 21 28  1  0  0  0  0
 21 29  1  0  0  0  0
 34 39  1  0  0  0  0
  8 13  1  0  0  0  0
 18 27  1  0  0  0  0
 43 45  1  0  0  0  0
  7 12  1  0  0  0  0
 33 38  1  0  0  0  0
 17 26  1  0  0  0  0
 25 32  1  0  0  0  0
M  END
$$$$

  -OEChem-02062319033D

 48 47  0     1  0  0  0  0  0999 V2000
   -5.5827   -1.3473    1.4591 C   0  0  0  0  0  0  0  0  0  0  0  0
   -5.7053   -2.4696    0.9825 O   0  0  0  0  0  0  0  0  0  0  0  0
   -6.7879   -0.6277    1.9670 C   0  0  0  0  0  0  0  0  0  0  0  0
   -7.2718   -0.0164    1.1885 H   0  0  0  0  0  0  0  0  0  0  0  0
   -7.5699   -1.3171    2.3239 H   0  0  0  0  0  0  0  0  0  0  0  0
   -6.6057    0.0628    2.8060 H   0  0  0  0  0  0  0  0  0  0  0  0
   -4.4001   -0.6377    1.5884 N   0  0  0  0  0  0  0  0  0  0  0  0
   -3.1220   -1.1455    1.1644 C   0  0  2  0  0  0  0  0  0  0  0  0
   -2.2017    0.0428    0.9187 C   0  0  0  0  0  0  0  0  0  0  0  0
   -2.6171    1.1750    0.6807 O   0  0  0  0  0  0  0  0  0  0  0  0
   -3.2533   -1.9992   -0.0873 C   0  0  0  0  0  0  0  0  0  0  0  0
   -4.4370    0.2910    2.0047 H   0  0  0  0  0  0  0  0  0  0  0  0
   -2.7302   -1.7467    1.9921 H   0  0  0  0  0  0  0  0  0  0  0  0
   -3.6446   -1.4140   -0.9275 H   0  0  0  0  0  0  0  0  0  0  0  0
   -2.2844   -2.4081   -0.3922 H   0  0  0  0  0  0  0  0  0  0  0  0
   -3.9388   -2.8365    0.0822 H   0  0  0  0  0  0  0  0  0  0  0  0
   -0.8768   -0.3314    0.9568 N   0  0  0  0  0  0  0  0  0  0  0  0
   -0.0721   -0.4599   -0.2596 C   0  0  2  0  0  0  0  0  0  0  0  0
   -0.7551   -1.5204   -1.1178 C   0  0  0  0  0  0  0  0  0  0  0  0
   -0.9168   -1.3864   -2.3292 O   0  0  0  0  0  0  0  0  0  0  0  0
    1.3632   -0.8532    0.1207 C   0  0  0  0  0  0  0  0  0  0  0  0
    2.1154    0.2386    0.8816 C   0  0  0  0  0  0  0  0  0  0  0  0
    3.5105   -0.1946    1.2574 C   0  0  0  0  0  0  0  0  0  0  0  0
    3.9388   -1.3299    1.0939 O   0  0  0  0  0  0  0  0  0  0  0  0
    4.2376    0.8008    1.8221 O   0  0  0  0  0  0  0  0  0  0  0  0
   -0.4058   -0.4915    1.8320 H   0  0  0  0  0  0  0  0  0  0  0  0
   -0.0683    0.5059   -0.7754 H   0  0  0  0  0  0  0  0  0  0  0  0
    1.3378   -1.7629    0.7354 H   0  0  0  0  0  0  0  0  0  0  0  0
    1.9392   -1.1002   -0.7808 H   0  0  0  0  0  0  0  0  0  0  0  0
    2.2191    1.1265    0.2460 H   0  0  0  0  0  0  0  0  0  0  0  0
    1.5653    0.5742    1.7667 H   0  0  0  0  0  0  0  0  0  0  0  0
    5.1460    0.5554    2.0985 H   0  0  0  0  0  0  0  0  0  0  0  0
   -1.1316   -2.6341   -0.3818 N   0  0  0  0  0  0  0  0  0  0  0  0
   -1.7956   -3.7793   -0.9618 C   0  0  2  0  0  0  0  0  0  0  0  0
   -3.2971   -3.5868   -0.7949 C   0  0  0  0  0  0  0  0  0  0  0  0
   -3.7883   -2.8542    0.0614 O   0  0  0  0  0  0  0  0  0  0  0  0
   -1.3376   -5.0740   -0.3085 C   0  0  0  0  0  0  0  0  0  0  0  0
   -0.9307   -2.6454    0.6136 H   0  0  0  0  0  0  0  0  0  0  0  0
   -1.5437   -3.7845   -2.0279 H   0  0  0  0  0  0  0  0  0  0  0  0
   -1.5814   -5.0872    0.7601 H   0  0  0  0  0  0  0  0  0  0  0  0
   -1.8202   -5.9427   -0.7683 H   0  0  0  0  0  0  0  0  0  0  0  0
   -0.2533   -5.1962   -0.4036 H   0  0  0  0  0  0  0  0  0  0  0  0
   -4.0250   -4.3624   -1.6863 N   0  0  0  0  0  0  0  0  0  0  0  0
   -5.4689   -4.3656   -1.7183 C   0  0  0  0  0  0  0  0  0  0  0  0
   -3.5345   -4.9261   -2.3743 H   0  0  0  0  0  0  0  0  0  0  0  0
   -5.8487   -5.1728   -1.0747 H   0  0  0  0  0  0  0  0  0  0  0  0
   -5.8458   -3.3985   -1.3540 H   0  0  0  0  0  0  0  0  0  0  0  0
   -5.8124   -4.5276   -2.7506 H   0  0  0  0  0  0  0  0  0  0  0  0
  1  3  1  0  0  0  0
  1  7  1  0  0  0  0
  1  2  2  0  0  0  0
 34 35  1  0  0  0  0
 35 43  1  0  0  0  0
 35 36  2  0  0  0  0
  8  9  1  0  0  0  0
  9 17  1  0  0  0  0
  9 10  2  0  0  0  0
 18 19  1  0  0  0  0
 19 33  1  0  0  0  0
 19 20  2  0  0  0  0
 22 23  1  0  0  0  0
 23 24  2  0  0  0  0
 23 25  1  0  0  0  0
 34 37  1  0  0  0  0
  8 11  1  0  0  0  0
 43 44  1  0  0  0  0
 21 22  1  0  0  0  0
 18 21  1  0  0  0  0
 33 34  1  0  0  0  0
  7  8  1  0  0  0  0
 17 18  1  0  0  0  0
  3  4  1  0  0  0  0
  3  5  1  0  0  0  0
  3  6  1  0  0  0  0
 37 40  1  0  0  0  0
 37 41  1  0  0  0  0
 37 42  1  0  0  0  0
 11 14  1  0  0  0  0
 11 15  1  0  0  0  0
 11 16  1  0  0  0  0
 44 46  1  0  0  0  0
 44 47  1  0  0  0  0
 44 48  1  0  0  0  0
 22 30  1  0  0  0  0
 22 31  1  0  0  0  0
 21 28  1  0  0  0  0
 21 29  1  0  0  0  0
 34 39  1  0  0  0  0
  8 13  1  0  0  0  0
 18 27  1  0  0  0  0
 43 45  1  0  0  0  0
  7 12  1  0  0  0  0
 33 38  1  0  0  0  0
 17 26  1  0  0  0  0
 25 32  1  0  0  0  0
M  END
$$$$

  -OEChem-02062319033D

 48 47  0     1  0  0  0  0  0999 V2000
   -5.5827   -1.3473    1.4591 C   0  0  0  0  0  0  0  0  0  0  0  0
   -5.7053   -2.4696    0.9825 O   0  0  0  0  0  0  0  0  0  0  0  0
   -6.7879   -0.6277    1.9670 C   0  0  0  0  0  0  0  0  0  0  0  0
   -7.2718   -0.0164    1.1885 H   0  0  0  0  0  0  0  0  0  0  0  0
   -7.5699   -1.3171    2.3239 H   0  0  0  0  0  0  0  0  0  0  0  0
   -6.6057    0.0628    2.8060 H   0  0  0  0  0  0  0  0  0  0  0  0
   -4.4001   -0.6377    1.5884 N   0  0  0  0  0  0  0  0  0  0  0  0
   -3.1220   -1.1455    1.1644 C   0  0  2  0  0  0  0  0  0  0  0  0
   -2.2017    0.0428    0.9187 C   0  0  0  0  0  0  0  0  0  0  0  0
   -2.6171    1.1750    0.6807 O   0  0  0  0  0  0  0  0  0  0  0  0
   -3.2533   -1.9992   -0.0873 C   0  0  0  0  0  0  0  0  0  0  0  0
   -4.4370    0.2910    2.0047 H   0  0  0  0  0  0  0  0  0  0  0  0
   -2.7302   -1.7467    1.9921 H   0  0  0  0  0  0  0  0  0  0  0  0
   -3.6446   -1.4140   -0.9275 H   0  0  0  0  0  0  0  0  0  0  0  0
   -2.2844   -2.4081   -0.3922 H   0  0  0  0  0  0  0  0  0  0  0  0
   -3.9388   -2.8365    0.0822 H   0  0  0  0  0  0  0  0  0  0  0  0
   -0.8768   -0.3314    0.9568 N   0  0  0  0  0  0  0  0  0  0  0  0
    0.0123   -0.1541   -0.1928 C   0  0  2  0  0  0  0  0  0  0  0  0
   -0.5923   -0.9660   -1.3343 C   0  0  0  0  0  0  0  0  0  0  0  0
   -0.6717   -0.5341   -2.4826 O   0  0  0  0  0  0  0  0  0  0  0  0
    1.4239   -0.6323    0.1789 C   0  0  0  0  0  0  0  0  0  0  0  0
    2.1039    0.2341    1.2390 C   0  0  0  0  0  0  0  0  0  0  0  0
    3.4763   -0.2815    1.5936 C   0  0  0  0  0  0  0  0  0  0  0  0
    3.9331   -1.3411    1.1839 O   0  0  0  0  0  0  0  0  0  0  0  0
    4.1464    0.5404    2.4385 O   0  0  0  0  0  0  0  0  0  0  0  0
   -0.4652   -0.7054    1.7959 H   0  0  0  0  0  0  0  0  0  0  0  0
    0.0364    0.9098   -0.4506 H   0  0  0  0  0  0  0  0  0  0  0  0
    1.3705   -1.6664    0.5446 H   0  0  0  0  0  0  0  0  0  0  0  0
    2.0650   -0.6478   -0.7123 H   0  0  0  0  0  0  0  0  0  0  0  0
    2.2372    1.2522    0.8534 H   0  0  0  0  0  0  0  0  0  0  0  0
    1.4883    0.3395    2.1384 H   0  0  0  0  0  0  0  0  0  0  0  0
    5.0372    0.2322    2.7092 H   0  0  0  0  0  0  0  0  0  0  0  0
   -1.0010   -2.2274   -0.9272 N   0  0  0  0  0  0  0  0  0  0  0  0
   -1.6047   -3.1907   -1.8195 C   0  0  2  0  0  0  0  0  0  0  0  0
   -3.1171   -3.0432   -1.7173 C   0  0  0  0  0  0  0  0  0  0  0  0
   -3.6782   -2.5463   -0.7430 O   0  0  0  0  0  0  0  0  0  0  0  0
   -1.1725   -4.6082   -1.4779 C   0  0  0  0  0  0  0  0  0  0  0  0
   -0.8696   -2.4868    0.0459 H   0  0  0  0  0  0  0  0  0  0  0  0
   -1.2794   -2.9305   -2.8327 H   0  0  0  0  0  0  0  0  0  0  0  0
   -1.4895   -4.8868   -0.4663 H   0  0  0  0  0  0  0  0  0  0  0  0
   -1.6080   -5.3341   -2.1724 H   0  0  0  0  0  0  0  0  0  0  0  0
   -0.0823   -4.7047   -1.5229 H   0  0  0  0  0  0  0  0  0  0  0  0
   -3.7688   -3.5709   -2.8232 N   0  0  0  0  0  0  0  0  0  0  0  0
   -5.2068   -3.5635   -2.9577 C   0  0  0  0  0  0  0  0  0  0  0  0
   -3.2227   -3.9462   -3.5930 H   0  0  0  0  0  0  0  0  0  0  0  0
   -5.6173   -4.5050   -2.5639 H   0  0  0  0  0  0  0  0  0  0  0  0
   -5.6235   -2.7170   -2.3921 H   0  0  0  0  0  0  0  0  0  0  0  0
   -5.4751   -3.4624   -4.0197 H   0  0  0  0  0  0  0  0  0  0  0  0
  1  3  1  0  0  0  0
  1  7  1  0  0  0  0
  1  2  2  0  0  0  0
 34 35  1  0  0  0  0
 35 43  1  0  0  0  0
 35 36  2  0  0  0  0
  8  9  1  0  0  0  0
  9 17  1  0  0  0  0
  9 10  2  0  0  0  0
 18 19  1  0  0  0  0
 19 33  1  0  0  0  0
 19 20  2  0  0  0  0
 22 23  1  0  0  0  0
 23 24  2  0  0  0  0
 23 25  1  0  0  0  0
 34 37  1  0  0  0  0
  8 11  1  0  0  0  0
 43 44  1  0  0  0  0
 21 22  1  0  0  0  0
 18 21  1  0  0  0  0
 33 34  1  0  0  0  0
  7  8  1  0  0  0  0
 17 18  1  0  0  0  0
  3  4  1  0  0  0  0
  3  5  1  0  0  0  0
  3  6  1  0  0  0  0
 37 40  1  0  0  0  0
 37 41  1  0  0  0  0
 37 42  1  0  0  0  0
 11 14  1  0  0  0  0
 11 15  1  0  0  0  0
 11 16  1  0  0  0  0
 44 46  1  0  0  0  0
 44 47  1  0  0  0  0
 44 48  1  0  0  0  0
 22 30  1  0  0  0  0
 22 31  1  0  0  0  0
 21 28  1  0  0  0  0
 21 29  1  0  0  0  0
 34 39  1  0  0  0  0
  8 13  1  0  0  0  0
 18 27  1  0  0  0  0
 43 45  1  0  0  0  0
  7 12  1  0  0  0  0
 33 38  1  0  0  0  0
 17 26  1  0  0  0  0
 25 32  1  0  0  0  0
M  END
$$$$

  -OEChem-02062319033D

 48 47  0     1  0  0  0  0  0999 V2000
   -5.5827   -1.3473    1.4591 C   0  0  0  0  0  0  0  0  0  0  0  0
   -5.7053   -2.4696    0.9825 O   0  0  0  0  0  0  0  0  0  0  0  0
   -6.7879   -0.6277    1.9670 C   0  0  0  0  0  0  0  0  0  0  0  0
   -7.2718   -0.0164    1.1885 H   0  0  0  0  0  0  0  0  0  0  0  0
   -7.5699   -1.3171    2.3239 H   0  0  0  0  0  0  0  0  0  0  0  0
   -6.6057    0.0628    2.8060 H   0  0  0  0  0  0  0  0  0  0  0  0
   -4.4001   -0.6377    1.5884 N   0  0  0  0  0  0  0  0  0  0  0  0
   -3.1220   -1.1455    1.1644 C   0  0  2  0  0  0  0  0  0  0  0  0
   -2.2017    0.0428    0.9187 C   0  0  0  0  0  0  0  0  0  0  0  0
   -2.6171    1.1750    0.6807 O   0  0  0  0  0  0  0  0  0  0  0  0
   -3.2533   -1.9992   -0.0873 C   0  0  0  0  0  0  0  0  0  0  0  0
   -4.4370    0.2910    2.0047 H   0  0  0  0  0  0  0  0  0  0  0  0
   -2.7302   -1.7467    1.9921 H   0  0  0  0  0  0  0  0  0  0  0  0
   -3.6446   -1.4140   -0.9275 H   0  0  0  0  0  0  0  0  0  0  0  0
   -2.2844   -2.4081   -0.3922 H   0  0  0  0  0  0  0  0  0  0  0  0
   -3.9388   -2.8365    0.0822 H   0  0  0  0  0  0  0  0  0  0  0  0
   -0.8768   -0.3314    0.9568 N   0  0  0  0  0  0  0  0  0  0  0  0
    0.0870    0.1252   -0.0462 C   0  0  2  0  0  0  0  0  0  0  0  0
   -0.4238   -0.3755   -1.3938 C   0  0  0  0  0  0  0  0  0  0  0  0
   -0.4302    0.3292   -2.4013 O   0  0  0  0  0  0  0  0  0  0  0  0
    1.4769   -0.4330    0.2945 C   0  0  0  0  0  0  0  0  0  0  0  0
    2.0676    0.1406    1.5824 C   0  0  0  0  0  0  0  0  0  0  0  0
    3.4202   -0.4495    1.8944 C   0  0  0  0  0  0  0  0  0  0  0  0
    3.9213   -1.3742    1.2676 O   0  0  0  0  0  0  0  0  0  0  0  0
    4.0167    0.1348    2.9627 O   0  0  0  0  0  0  0  0  0  0  0  0
   -0.5185   -0.9035    1.7036 H   0  0  0  0  0  0  0  0  0  0  0  0
    0.1119    1.2198   -0.0290 H   0  0  0  0  0  0  0  0  0  0  0  0
    1.4149   -1.5255    0.3866 H   0  0  0  0  0  0  0  0  0  0  0  0
    2.1784   -0.2270   -0.5247 H   0  0  0  0  0  0  0  0  0  0  0  0
    2.2110    1.2226    1.4726 H   0  0  0  0  0  0  0  0  0  0  0  0
    1.3895    0.0197    2.4335 H   0  0  0  0  0  0  0  0  0  0  0  0
    4.8915   -0.2327    3.2110 H   0  0  0  0  0  0  0  0  0  0  0  0
   -0.8395   -1.6978   -1.3434 N   0  0  0  0  0  0  0  0  0  0  0  0
   -1.3642   -2.4072   -2.4880 C   0  0  2  0  0  0  0  0  0  0  0  0
   -2.8822   -2.2872   -2.4603 C   0  0  0  0  0  0  0  0  0  0  0  0
   -3.5176   -2.0479   -1.4356 O   0  0  0  0  0  0  0  0  0  0  0  0
   -0.9340   -3.8659   -2.4798 C   0  0  0  0  0  0  0  0  0  0  0  0
   -0.7718   -2.1918   -0.4587 H   0  0  0  0  0  0  0  0  0  0  0  0
   -0.9736   -1.9033   -3.3788 H   0  0  0  0  0  0  0  0  0  0  0  0
   -1.3161   -4.3873   -1.5945 H   0  0  0  0  0  0  0  0  0  0  0  0
   -1.3086   -4.3950   -3.3623 H   0  0  0  0  0  0  0  0  0  0  0  0
    0.1580   -3.9501   -2.4696 H   0  0  0  0  0  0  0  0  0  0  0  0
   -3.4470   -2.5215   -3.7062 N   0  0  0  0  0  0  0  0  0  0  0  0
   -4.8722   -2.4783   -3.9367 C   0  0  0  0  0  0  0  0  0  0  0  0
   -2.8429   -2.6940   -4.5043 H   0  0  0  0  0  0  0  0  0  0  0  0
   -5.2938   -3.4875   -3.8197 H   0  0  0  0  0  0  0  0  0  0  0  0
   -5.3406   -1.7987   -3.2095 H   0  0  0  0  0  0  0  0  0  0  0  0
   -5.0677   -2.1153   -4.9565 H   0  0  0  0  0  0  0  0  0  0  0  0
  1  3  1  0  0  0  0
  1  7  1  0  0  0  0
  1  2  2  0  0  0  0
 34 35  1  0  0  0  0
 35 43  1  0  0  0  0
 35 36  2  0  0  0  0
  8  9  1  0  0  0  0
  9 17  1  0  0  0  0
  9 10  2  0  0  0  0
 18 19  1  0  0  0  0
 19 33  1  0  0  0  0
 19 20  2  0  0  0  0
 22 23  1  0  0  0  0
 23 24  2  0  0  0  0
 23 25  1  0  0  0  0
 34 37  1  0  0  0  0
  8 11  1  0  0  0  0
 43 44  1  0  0  0  0
 21 22  1  0  0  0  0
 18 21  1  0  0  0  0
 33 34  1  0  0  0  0
  7  8  1  0  0  0  0
 17 18  1  0  0  0  0
  3  4  1  0  0  0  0
  3  5  1  0  0  0  0
  3  6  1  0  0  0  0
 37 40  1  0  0  0  0
 37 41  1  0  0  0  0
 37 42  1  0  0  0  0
 11 14  1  0  0  0  0
 11 15  1  0  0  0  0
 11 16  1  0  0  0  0
 44 46  1  0  0  0  0
 44 47  1  0  0  0  0
 44 48  1  0  0  0  0
 22 30  1  0  0  0  0
 22 31  1  0  0  0  0
 21 28  1  0  0  0  0
 21 29  1  0  0  0  0
 34 39  1  0  0  0  0
  8 13  1  0  0  0  0
 18 27  1  0  0  0  0
 43 45  1  0  0  0  0
  7 12  1  0  0  0  0
 33 38  1  0  0  0  0
 17 26  1  0  0  0  0
 25 32  1  0  0  0  0
M  END
$$$$

  -OEChem-02062319033D

 48 47  0     1  0  0  0  0  0999 V2000
   -5.5827   -1.3473    1.4591 C   0  0  0  0  0  0  0  0  0  0  0  0
   -5.7053   -2.4696    0.9825 O   0  0  0  0  0  0  0  0  0  0  0  0
   -6.7879   -0.6277    1.9670 C   0  0  0  0  0  0  0  0  0  0  0  0
   -7.2718   -0.0164    1.1885 H   0  0  0  0  0  0  0  0  0  0  0  0
   -7.5699   -1.3171    2.3239 H   0  0  0  0  0  0  0  0  0  0  0  0
   -6.6057    0.0628    2.8060 H   0  0  0  0  0  0  0  0  0  0  0  0
   -4.4001   -0.6377    1.5884 N   0  0  0  0  0  0  0  0  0  0  0  0
   -3.1220   -1.1455    1.1644 C   0  0  2  0  0  0  0  0  0  0  0  0
   -2.2017    0.0428    0.9187 C   0  0  0  0  0  0  0  0  0  0  0  0
   -2.6171    1.1750    0.6807 O   0  0  0  0  0  0  0  0  0  0  0  0
   -3.2533   -1.9992   -0.0873 C   0  0  0  0  0  0  0  0  0  0  0  0
   -4.4370    0.2910    2.0047 H   0  0  0  0  0  0  0  0  0  0  0  0
   -2.7302   -1.7467    1.9921 H   0  0  0  0  0  0  0  0  0  0  0  0
   -3.6446   -1.4140   -0.9275 H   0  0  0  0  0  0  0  0  0  0  0  0
   -2.2844   -2.4081   -0.3922 H   0  0  0  0  0  0  0  0  0  0  0  0
   -3.9388   -2.8365    0.0822 H   0  0  0  0  0  0  0  0  0  0  0  0
   -0.8768   -0.3314    0.9568 N   0  0  0  0  0  0  0  0  0  0  0  0
    0.1469    0.3591    0.1701 C   0  0  2  0  0  0  0  0  0  0  0  0
   -0.2611    0.2110   -1.2925 C   0  0  0  0  0  0  0  0  0  0  0  0
   -0.2088    1.1445   -2.0908 O   0  0  0  0  0  0  0  0  0  0  0  0
    1.5185   -0.2688    0.4594 C   0  0  0  0  0  0  0  0  0  0  0  0
    2.0091   -0.0353    1.8882 C   0  0  0  0  0  0  0  0  0  0  0  0
    3.3461   -0.6870    2.1392 C   0  0  0  0  0  0  0  0  0  0  0  0
    3.9043   -1.4272    1.3394 O   0  0  0  0  0  0  0  0  0  0  0  0
    3.8576   -0.3885    3.3589 O   0  0  0  0  0  0  0  0  0  0  0  0
   -0.5620   -1.0722    1.5614 H   0  0  0  0  0  0  0  0  0  0  0  0
    0.1529    1.4147    0.4608 H   0  0  0  0  0  0  0  0  0  0  0  0
    1.4678   -1.3498    0.2723 H   0  0  0  0  0  0  0  0  0  0  0  0
    2.2718    0.1336   -0.2306 H   0  0  0  0  0  0  0  0  0  0  0  0
    2.1424    1.0395    2.0615 H   0  0  0  0  0  0  0  0  0  0  0  0
    1.2756   -0.3634    2.6319 H   0  0  0  0  0  0  0  0  0  0  0  0
    4.7188   -0.8078    3.5697 H   0  0  0  0  0  0  0  0  0  0  0  0
   -0.6580   -1.0814   -1.6023 N   0  0  0  0  0  0  0  0  0  0  0  0
   -1.0905   -1.4823   -2.9217 C   0  0  2  0  0  0  0  0  0  0  0  0
   -2.6085   -1.3703   -2.9733 C   0  0  0  0  0  0  0  0  0  0  0  0
   -3.3172   -1.3928   -1.9692 O   0  0  0  0  0  0  0  0  0  0  0  0
   -0.6386   -2.8977   -3.2459 C   0  0  0  0  0  0  0  0  0  0  0  0
   -0.6439   -1.7804   -0.8657 H   0  0  0  0  0  0  0  0  0  0  0  0
   -0.6472   -0.7729   -3.6290 H   0  0  0  0  0  0  0  0  0  0  0  0
   -1.0727   -3.6226   -2.5477 H   0  0  0  0  0  0  0  0  0  0  0  0
   -0.9424   -3.1895   -4.2567 H   0  0  0  0  0  0  0  0  0  0  0  0
    0.4513   -2.9837   -3.1793 H   0  0  0  0  0  0  0  0  0  0  0  0
   -3.0817   -1.2857   -4.2752 N   0  0  0  0  0  0  0  0  0  0  0  0
   -4.4879   -1.1839   -4.5887 C   0  0  0  0  0  0  0  0  0  0  0  0
   -2.4208   -1.2549   -5.0460 H   0  0  0  0  0  0  0  0  0  0  0  0
   -4.9004   -2.1896   -4.7567 H   0  0  0  0  0  0  0  0  0  0  0  0
   -5.0165   -0.7062   -3.7506 H   0  0  0  0  0  0  0  0  0  0  0  0
   -4.6179   -0.5778   -5.4974 H   0  0  0  0  0  0  0  0  0  0  0  0
  1  3  1  0  0  0  0
  1  7  1  0  0  0  0
  1  2  2  0  0  0  0
 34 35  1  0  0  0  0
 35 43  1  0  0  0  0
 35 36  2  0  0  0  0
  8  9  1  0  0  0  0
  9 17  1  0  0  0  0
  9 10  2  0  0  0  0
 18 19  1  0  0  0  0
 19 33  1  0  0  0  0
 19 20  2  0  0  0  0
 22 23  1  0  0  0  0
 23 24  2  0  0  0  0
 23 25  1  0  0  0  0
 34 37  1  0  0  0  0
  8 11  1  0  0  0  0
 43 44  1  0  0  0  0
 21 22  1  0  0  0  0
 18 21  1  0  0  0  0
 33 34  1  0  0  0  0
  7  8  1  0  0  0  0
 17 18  1  0  0  0  0
  3  4  1  0  0  0  0
  3  5  1  0  0  0  0
  3  6  1  0  0  0  0
 37 40  1  0  0  0  0
 37 41  1  0  0  0  0
 37 42  1  0  0  0  0
 11 14  1  0  0  0  0
 11 15  1  0  0  0  0
 11 16  1  0  0  0  0
 44 46  1  0  0  0  0
 44 47  1  0  0  0  0
 44 48  1  0  0  0  0
 22 30  1  0  0  0  0
 22 31  1  0  0  0  0
 21 28  1  0  0  0  0
 21 29  1  0  0  0  0
 34 39  1  0  0  0  0
  8 13  1  0  0  0  0
 18 27  1  0  0  0  0
 43 45  1  0  0  0  0
  7 12  1  0  0  0  0
 33 38  1  0  0  0  0
 17 26  1  0  0  0  0
 25 32  1  0  0  0  0
M  END
$$$$

  -OEChem-02062319033D

 48 47  0     1  0  0  0  0  0999 V2000
   -5.5827   -1.3473    1.4591 C   0  0  0  0  0  0  0  0  0  0  0  0
   -5.7053   -2.4696    0.9825 O   0  0  0  0  0  0  0  0  0  0  0  0
   -6.7879   -0.6277    1.9670 C   0  0  0  0  0  0  0  0  0  0  0  0
   -7.2718   -0.0164    1.1885 H   0  0  0  0  0  0  0  0  0  0  0  0
   -7.5699   -1.3171    2.3239 H   0  0  0  0  0  0  0  0  0  0  0  0
   -6.6057    0.0628    2.8060 H   0  0  0  0  0  0  0  0  0  0  0  0
   -4.4001   -0.6377    1.5884 N   0  0  0  0  0  0  0  0  0  0  0  0
   -3.1220   -1.1455    1.1644 C   0  0  2  0  0  0  0  0  0  0  0  0
   -2.2017    0.0428    0.9187 C   0  0  0  0  0  0  0  0  0  0  0  0
   -2.6171    1.1750    0.6807 O   0  0  0  0  0  0  0  0  0  0  0  0
   -3.2533   -1.9992   -0.0873 C   0  0  0  0  0  0  0  0  0  0  0  0
   -4.4370    0.2910    2.0047 H   0  0  0  0  0  0  0  0  0  0  0  0
   -2.7302   -1.7467    1.9921 H   0  0  0  0  0  0  0  0  0  0  0  0
   -3.6446   -1.4140   -0.9275 H   0  0  0  0  0  0  0  0  0  0  0  0
   -2.2844   -2.4081   -0.3922 H   0  0  0  0  0  0  0  0  0  0  0  0
   -3.9388   -2.8365    0.0822 H   0  0  0  0  0  0  0  0  0  0  0  0
   -0.8768   -0.3314    0.9568 N   0  0  0  0  0  0  0  0  0  0  0  0
    0.1878    0.5316    0.4416 C   0  0  2  0  0  0  0  0  0  0  0  0
   -0.1152    0.7534   -1.0371 C   0  0  0  0  0  0  0  0  0  0  0  0
   -0.0227    1.8563   -1.5724 O   0  0  0  0  0  0  0  0  0  0  0  0
    1.5459   -0.1510    0.6625 C   0  0  0  0  0  0  0  0  0  0  0  0
    1.9324   -0.2819    2.1357 C   0  0  0  0  0  0  0  0  0  0  0  0
    3.2590   -0.9779    2.3113 C   0  0  0  0  0  0  0  0  0  0  0  0
    3.8832   -1.4964    1.3944 O   0  0  0  0  0  0  0  0  0  0  0  0
    3.6797   -0.9937    3.6002 O   0  0  0  0  0  0  0  0  0  0  0  0
   -0.5929   -1.2001    1.3790 H   0  0  0  0  0  0  0  0  0  0  0  0
    0.1566    1.4814    0.9854 H   0  0  0  0  0  0  0  0  0  0  0  0
    1.5257   -1.1511    0.2093 H   0  0  0  0  0  0  0  0  0  0  0  0
    2.3388    0.4093    0.1497 H   0  0  0  0  0  0  0  0  0  0  0  0
    2.0360    0.7156    2.5799 H   0  0  0  0  0  0  0  0  0  0  0  0
    1.1544   -0.7837    2.7202 H   0  0  0  0  0  0  0  0  0  0  0  0
    4.5308   -1.4538    3.7608 H   0  0  0  0  0  0  0  0  0  0  0  0
   -0.4688   -0.4203   -1.6861 N   0  0  0  0  0  0  0  0  0  0  0  0
   -0.8022   -0.4790   -3.0912 C   0  0  2  0  0  0  0  0  0  0  0  0
   -2.3146   -0.3550   -3.2212 C   0  0  0  0  0  0  0  0  0  0  0  0
   -3.0909   -0.6258   -2.3074 O   0  0  0  0  0  0  0  0  0  0  0  0
   -0.3062   -1.7697   -3.7242 C   0  0  0  0  0  0  0  0  0  0  0  0
   -0.4947   -1.2809   -1.1475 H   0  0  0  0  0  0  0  0  0  0  0  0
   -0.3223    0.3835   -3.5664 H   0  0  0  0  0  0  0  0  0  0  0  0
   -0.7761   -2.6450   -3.2610 H   0  0  0  0  0  0  0  0  0  0  0  0
   -0.5345   -1.7998   -4.7947 H   0  0  0  0  0  0  0  0  0  0  0  0
    0.7777   -1.8715   -3.6036 H   0  0  0  0  0  0  0  0  0  0  0  0
   -2.6975    0.0523   -4.4915 N   0  0  0  0  0  0  0  0  0  0  0  0
   -4.0800    0.2315   -4.8691 C   0  0  0  0  0  0  0  0  0  0  0  0
   -1.9854    0.2731   -5.1813 H   0  0  0  0  0  0  0  0  0  0  0  0
   -4.4637   -0.6999   -5.3110 H   0  0  0  0  0  0  0  0  0  0  0  0
   -4.6732    0.4861   -3.9784 H   0  0  0  0  0  0  0  0  0  0  0  0
   -4.1564    1.0451   -5.6054 H   0  0  0  0  0  0  0  0  0  0  0  0
  1  3  1  0  0  0  0
  1  7  1  0  0  0  0
  1  2  2  0  0  0  0
 34 35  1  0  0  0  0
 35 43  1  0  0  0  0
 35 36  2  0  0  0  0
  8  9  1  0  0  0  0
  9 17  1  0  0  0  0
  9 10  2  0  0  0  0
 18 19  1  0  0  0  0
 19 33  1  0  0  0  0
 19 20  2  0  0  0  0
 22 23  1  0  0  0  0
 23 24  2  0  0  0  0
 23 25  1  0  0  0  0
 34 37  1  0  0  0  0
  8 11  1  0  0  0  0
 43 44  1  0  0  0  0
 21 22  1  0  0  0  0
 18 21  1  0  0  0  0
 33 34  1  0  0  0  0
  7  8  1  0  0  0  0
 17 18  1  0  0  0  0
  3  4  1  0  0  0  0
  3  5  1  0  0  0  0
  3  6  1  0  0  0  0
 37 40  1  0  0  0  0
 37 41  1  0  0  0  0
 37 42  1  0  0  0  0
 11 14  1  0  0  0  0
 11 15  1  0  0  0  0
 11 16  1  0  0  0  0
 44 46  1  0  0  0  0
 44 47  1  0  0  0  0
 44 48  1  0  0  0  0
 22 30  1  0  0  0  0
 22 31  1  0  0  0  0
 21 28  1  0  0  0  0
 21 29  1  0  0  0  0
 34 39  1  0  0  0  0
  8 13  1  0  0  0  0
 18 27  1  0  0  0  0
 43 45  1  0  0  0  0
  7 12  1  0  0  0  0
 33 38  1  0  0  0  0
 17 26  1  0  0  0  0
 25 32  1  0  0  0  0
M  END
$$$$
