
  -OEChem-02062319073D

 48 47  0     1  0  0  0  0  0999 V2000
   -4.0878   -0.8247    2.3686 C   0  0  0  0  0  0  0  0  0  0  0  0
   -3.9247   -1.8716    2.9755 O   0  0  0  0  0  0  0  0  0  0  0  0
   -5.3582   -0.0193    2.5635 C   0  0  0  0  0  0  0  0  0  0  0  0
   -5.8926    0.0669    1.6143 H   0  0  0  0  0  0  0  0  0  0  0  0
   -6.0092   -0.5113    3.2914 H   0  0  0  0  0  0  0  0  0  0  0  0
   -5.1144    0.9814    2.9286 H   0  0  0  0  0  0  0  0  0  0  0  0
   -3.1159   -0.3690    1.5043 N   0  0  0  0  0  0  0  0  0  0  0  0
   -1.8009   -0.9972    1.3268 C   0  0  2  0  0  0  0  0  0  0  0  0
   -0.6919    0.0526    1.1008 C   0  0  0  0  0  0  0  0  0  0  0  0
   -0.9813    1.2192    0.8645 O   0  0  0  0  0  0  0  0  0  0  0  0
   -1.8951   -1.9633    0.1428 C   0  0  0  0  0  0  0  0  0  0  0  0
   -3.2335    0.5667    1.1171 H   0  0  0  0  0  0  0  0  0  0  0  0
   -1.5327   -1.5590    2.2279 H   0  0  0  0  0  0  0  0  0  0  0  0
   -2.1951   -1.4290   -0.7640 H   0  0  0  0  0  0  0  0  0  0  0  0
   -0.9323   -2.4485   -0.0414 H   0  0  0  0  0  0  0  0  0  0  0  0
   -2.6388   -2.7397    0.3487 H   0  0  0  0  0  0  0  0  0  0  0  0
    0.6433   -0.3007    1.2129 N   0  0  0  0  0  0  0  0  0  0  0  0
    1.7660    0.6363    1.0141 C   0  0  2  0  0  0  0  0  0  0  0  0
    1.7946    1.2598   -0.3965 C   0  0  0  0  0  0  0  0  0  0  0  0
    2.1199    2.4297   -0.5468 O   0  0  0  0  0  0  0  0  0  0  0  0
    3.0923   -0.0872    1.2935 C   0  0  0  0  0  0  0  0  0  0  0  0
    3.2478   -0.4456    2.7864 C   0  0  0  0  0  0  0  0  0  0  0  0
    4.5609   -1.1614    3.0975 C   0  0  0  0  0  0  0  0  0  0  0  0
    5.0791   -1.8584    2.2431 O   0  0  0  0  0  0  0  0  0  0  0  0
    5.0816   -0.9937    4.3308 O   0  0  0  0  0  0  0  0  0  0  0  0
    0.8472   -1.2741    1.4219 H   0  0  0  0  0  0  0  0  0  0  0  0
    1.6595    1.4684    1.7194 H   0  0  0  0  0  0  0  0  0  0  0  0
    3.1522   -0.9919    0.6780 H   0  0  0  0  0  0  0  0  0  0  0  0
    3.9247    0.5639    1.0009 H   0  0  0  0  0  0  0  0  0  0  0  0
    3.2082    0.4710    3.3823 H   0  0  0  0  0  0  0  0  0  0  0  0
    2.4280   -1.0900    3.1125 H   0  0  0  0  0  0  0  0  0  0  0  0
    5.8986   -1.5161    4.3346 H   0  0  0  0  0  0  0  0  0  0  0  0
    1.5942    0.4537   -1.5009 N   0  0  0  0  0  0  0  0  0  0  0  0
    1.2324    0.9971   -2.8141 C   0  0  2  0  0  0  0  0  0  0  0  0
   -0.2628    0.7517   -3.0960 C   0  0  0  0  0  0  0  0  0  0  0  0
   -0.7815   -0.3028   -2.7414 O   0  0  0  0  0  0  0  0  0  0  0  0
    2.1038    0.3116   -3.8671 C   0  0  0  0  0  0  0  0  0  0  0  0
    1.1889   -0.4539   -1.2844 H   0  0  0  0  0  0  0  0  0  0  0  0
    1.4164    2.0753   -2.8592 H   0  0  0  0  0  0  0  0  0  0  0  0
    1.9282   -0.7690   -3.8676 H   0  0  0  0  0  0  0  0  0  0  0  0
    1.8753    0.7019   -4.8635 H   0  0  0  0  0  0  0  0  0  0  0  0
    3.1625    0.4931   -3.6572 H   0  0  0  0  0  0  0  0  0  0  0  0
   -1.0198    1.7013   -3.7556 N   0  0  0  0  0  0  0  0  0  0  0  0
   -2.4562    1.5675   -3.9634 C   0  0  0  0  0  0  0  0  0  0  0  0
   -0.5838    2.6036   -3.9252 H   0  0  0  0  0  0  0  0  0  0  0  0
   -2.6820    0.6449   -4.5087 H   0  0  0  0  0  0  0  0  0  0  0  0
   -2.9814    1.5470   -3.0028 H   0  0  0  0  0  0  0  0  0  0  0  0
   -2.8335    2.4128   -4.5472 H   0  0  0  0  0  0  0  0  0  0  0  0
  1  2  2  0  0  0  0
  1  3  1  0  0  0  0
  1  7  1  0  0  0  0
  3  4  1  0  0  0  0
  3  5  1  0  0  0  0
  3  6  1  0  0  0  0
  7  8  1  0  0  0  0
  7 12  1  0  0  0  0
  8  9  1  0  0  0  0
  8 11  1  0  0  0  0
  8 13  1  0  0  0  0
  9 10  2  0  0  0  0
  9 17  1  0  0  0  0
 11 14  1  0  0  0  0
 11 15  1  0  0  0  0
 11 16  1  0  0  0  0
 17 18  1  0  0  0  0
 17 26  1  0  0  0  0
 18 19  1  0  0  0  0
 18 21  1  0  0  0  0
 18 27  1  0  0  0  0
 19 20  2  0  0  0  0
 19 33  1  0  0  0  0
 21 22  1  0  0  0  0
 21 28  1  0  0  0  0
 21 29  1  0  0  0  0
 22 23  1  0  0  0  0
 22 30  1  0  0  0  0
 22 31  1  0  0  0  0
 23 24  2  0  0  0  0
 23 25  1  0  0  0  0
 25 32  1  0  0  0  0
 33 34  1  0  0  0  0
 33 38  1  0  0  0  0
 34 35  1  0  0  0  0
 34 37  1  0  0  0  0
 34 39  1  0  0  0  0
 35 36  2  0  0  0  0
 35 43  1  0  0  0  0
 37 40  1  0  0  0  0
 37 41  1  0  0  0  0
 37 42  1  0  0  0  0
 43 44  1  0  0  0  0
 43 45  1  0  0  0  0
 44 46  1  0  0  0  0
 44 47  1  0  0  0  0
 44 48  1  0  0  0  0
M  END
$$$$

  -OEChem-02062319073D

 48 47  0     1  0  0  0  0  0999 V2000
   -3.9794   -0.6964    2.2598 C   0  0  0  0  0  0  0  0  0  0  0  0
   -3.8191   -1.7866    2.7859 O   0  0  0  0  0  0  0  0  0  0  0  0
   -5.1809    0.1549    2.6248 C   0  0  0  0  0  0  0  0  0  0  0  0
   -5.7749    0.3642    1.7318 H   0  0  0  0  0  0  0  0  0  0  0  0
   -5.8084   -0.3706    3.3502 H   0  0  0  0  0  0  0  0  0  0  0  0
   -4.8497    1.0991    3.0640 H   0  0  0  0  0  0  0  0  0  0  0  0
   -3.0630   -0.2292    1.3422 N   0  0  0  0  0  0  0  0  0  0  0  0
   -1.7752   -0.8760    1.0587 C   0  0  2  0  0  0  0  0  0  0  0  0
   -0.6341    0.1540    0.9314 C   0  0  0  0  0  0  0  0  0  0  0  0
   -0.8940    1.3481    0.8416 O   0  0  0  0  0  0  0  0  0  0  0  0
   -1.9200   -1.6800   -0.2359 C   0  0  0  0  0  0  0  0  0  0  0  0
   -3.1536    0.7443    1.0540 H   0  0  0  0  0  0  0  0  0  0  0  0
   -1.5081   -1.5559    1.8744 H   0  0  0  0  0  0  0  0  0  0  0  0
   -2.2076   -1.0244   -1.0645 H   0  0  0  0  0  0  0  0  0  0  0  0
   -0.9763   -2.1699   -0.4942 H   0  0  0  0  0  0  0  0  0  0  0  0
   -2.6888   -2.4503   -0.1185 H   0  0  0  0  0  0  0  0  0  0  0  0
    0.6824   -0.2456    1.1011 N   0  0  0  0  0  0  0  0  0  0  0  0
    1.8096    0.6836    1.3128 C   0  0  2  0  0  0  0  0  0  0  0  0
    1.9840    1.6668    0.1371 C   0  0  0  0  0  0  0  0  0  0  0  0
    2.2514    2.8434    0.3397 O   0  0  0  0  0  0  0  0  0  0  0  0
    3.1013   -0.1207    1.5244 C   0  0  0  0  0  0  0  0  0  0  0  0
    3.0931   -0.8764    2.8690 C   0  0  0  0  0  0  0  0  0  0  0  0
    4.3646   -1.6921    3.0869 C   0  0  0  0  0  0  0  0  0  0  0  0
    4.8148   -2.3398    2.1588 O   0  0  0  0  0  0  0  0  0  0  0  0
    4.9294   -1.6618    4.3120 O   0  0  0  0  0  0  0  0  0  0  0  0
    0.8385   -1.2382    1.2514 H   0  0  0  0  0  0  0  0  0  0  0  0
    1.6129    1.2897    2.2047 H   0  0  0  0  0  0  0  0  0  0  0  0
    3.2326   -0.8244    0.6947 H   0  0  0  0  0  0  0  0  0  0  0  0
    3.9576    0.5638    1.5114 H   0  0  0  0  0  0  0  0  0  0  0  0
    2.9973   -0.1576    3.6881 H   0  0  0  0  0  0  0  0  0  0  0  0
    2.2414   -1.5582    2.9228 H   0  0  0  0  0  0  0  0  0  0  0  0
    5.7133   -2.2289    4.2456 H   0  0  0  0  0  0  0  0  0  0  0  0
    1.9177    1.1785   -1.1532 N   0  0  0  0  0  0  0  0  0  0  0  0
    1.4647    2.0208   -2.2635 C   0  0  2  0  0  0  0  0  0  0  0  0
    0.0212    1.6349   -2.6491 C   0  0  0  0  0  0  0  0  0  0  0  0
   -0.3453    0.4667   -2.5439 O   0  0  0  0  0  0  0  0  0  0  0  0
    2.4179    1.8148   -3.4415 C   0  0  0  0  0  0  0  0  0  0  0  0
    1.5757    0.2203   -1.1971 H   0  0  0  0  0  0  0  0  0  0  0  0
    1.4740    3.0796   -1.9841 H   0  0  0  0  0  0  0  0  0  0  0  0
    2.4199    0.7658   -3.7550 H   0  0  0  0  0  0  0  0  0  0  0  0
    2.1129    2.4319   -4.2920 H   0  0  0  0  0  0  0  0  0  0  0  0
    3.4365    2.0957   -3.1563 H   0  0  0  0  0  0  0  0  0  0  0  0
   -0.8623    2.5889   -3.1177 N   0  0  0  0  0  0  0  0  0  0  0  0
   -2.2685    2.3047   -3.3745 C   0  0  0  0  0  0  0  0  0  0  0  0
   -0.5607    3.5583   -3.0743 H   0  0  0  0  0  0  0  0  0  0  0  0
   -2.3695    1.4950   -4.1049 H   0  0  0  0  0  0  0  0  0  0  0  0
   -2.7736    2.0103   -2.4485 H   0  0  0  0  0  0  0  0  0  0  0  0
   -2.7667    3.1928   -3.7751 H   0  0  0  0  0  0  0  0  0  0  0  0
  1  2  2  0  0  0  0
  1  3  1  0  0  0  0
  1  7  1  0  0  0  0
  3  4  1  0  0  0  0
  3  5  1  0  0  0  0
  3  6  1  0  0  0  0
  7  8  1  0  0  0  0
  7 12  1  0  0  0  0
  8  9  1  0  0  0  0
  8 11  1  0  0  0  0
  8 13  1  0  0  0  0
  9 10  2  0  0  0  0
  9 17  1  0  0  0  0
 11 14  1  0  0  0  0
 11 15  1  0  0  0  0
 11 16  1  0  0  0  0
 17 18  1  0  0  0  0
 17 26  1  0  0  0  0
 18 19  1  0  0  0  0
 18 21  1  0  0  0  0
 18 27  1  0  0  0  0
 19 20  2  0  0  0  0
 19 33  1  0  0  0  0
 21 22  1  0  0  0  0
 21 28  1  0  0  0  0
 21 29  1  0  0  0  0
 22 23  1  0  0  0  0
 22 30  1  0  0  0  0
 22 31  1  0  0  0  0
 23 24  2  0  0  0  0
 23 25  1  0  0  0  0
 25 32  1  0  0  0  0
 33 34  1  0  0  0  0
 33 38  1  0  0  0  0
 34 35  1  0  0  0  0
 34 37  1  0  0  0  0
 34 39  1  0  0  0  0
 35 36  2  0  0  0  0
 35 43  1  0  0  0  0
 37 40  1  0  0  0  0
 37 41  1  0  0  0  0
 37 42  1  0  0  0  0
 43 44  1  0  0  0  0
 43 45  1  0  0  0  0
 44 46  1  0  0  0  0
 44 47  1  0  0  0  0
 44 48  1  0  0  0  0
M  END
$$$$

  -OEChem-02062319073D

 48 47  0     1  0  0  0  0  0999 V2000
   -3.9229   -0.6478    2.2786 C   0  0  0  0  0  0  0  0  0  0  0  0
   -3.8008   -1.8114    2.6282 O   0  0  0  0  0  0  0  0  0  0  0  0
   -5.0754    0.1881    2.8021 C   0  0  0  0  0  0  0  0  0  0  0  0
   -5.7018    0.5213    1.9712 H   0  0  0  0  0  0  0  0  0  0  0  0
   -5.6872   -0.4019    3.4903 H   0  0  0  0  0  0  0  0  0  0  0  0
   -4.6914    1.0623    3.3334 H   0  0  0  0  0  0  0  0  0  0  0  0
   -3.0052   -0.0850    1.4176 N   0  0  0  0  0  0  0  0  0  0  0  0
   -1.7581   -0.7373    0.9973 C   0  0  2  0  0  0  0  0  0  0  0  0
   -0.5875    0.2627    0.9029 C   0  0  0  0  0  0  0  0  0  0  0  0
   -0.8214    1.4641    0.9730 O   0  0  0  0  0  0  0  0  0  0  0  0
   -1.9947   -1.3962   -0.3639 C   0  0  0  0  0  0  0  0  0  0  0  0
   -3.0562    0.9240    1.2813 H   0  0  0  0  0  0  0  0  0  0  0  0
   -1.4761   -1.5055    1.7251 H   0  0  0  0  0  0  0  0  0  0  0  0
   -2.2610   -0.6428   -1.1130 H   0  0  0  0  0  0  0  0  0  0  0  0
   -1.0936   -1.9166   -0.7020 H   0  0  0  0  0  0  0  0  0  0  0  0
   -2.8092   -2.1244   -0.2957 H   0  0  0  0  0  0  0  0  0  0  0  0
    0.7146   -0.1906    1.0565 N   0  0  0  0  0  0  0  0  0  0  0  0
    1.8101    0.6347    1.6049 C   0  0  2  0  0  0  0  0  0  0  0  0
    2.0631    1.9002    0.7598 C   0  0  0  0  0  0  0  0  0  0  0  0
    2.2753    2.9805    1.2941 O   0  0  0  0  0  0  0  0  0  0  0  0
    3.0927   -0.2066    1.6977 C   0  0  0  0  0  0  0  0  0  0  0  0
    2.9840   -1.2974    2.7815 C   0  0  0  0  0  0  0  0  0  0  0  0
    4.2490   -2.1444    2.8612 C   0  0  0  0  0  0  0  0  0  0  0  0
    4.6429   -2.6969    1.8500 O   0  0  0  0  0  0  0  0  0  0  0  0
    4.8743   -2.2413    4.0530 O   0  0  0  0  0  0  0  0  0  0  0  0
    0.8247   -1.2000    1.0894 H   0  0  0  0  0  0  0  0  0  0  0  0
    1.5327    0.9784    2.6078 H   0  0  0  0  0  0  0  0  0  0  0  0
    3.3037   -0.6620    0.7231 H   0  0  0  0  0  0  0  0  0  0  0  0
    3.9363    0.4500    1.9424 H   0  0  0  0  0  0  0  0  0  0  0  0
    2.8123   -0.8306    3.7559 H   0  0  0  0  0  0  0  0  0  0  0  0
    2.1424   -1.9631    2.5780 H   0  0  0  0  0  0  0  0  0  0  0  0
    5.6437   -2.8092    3.8920 H   0  0  0  0  0  0  0  0  0  0  0  0
    2.1041    1.7781   -0.6151 N   0  0  0  0  0  0  0  0  0  0  0  0
    1.6283    2.8620   -1.4788 C   0  0  2  0  0  0  0  0  0  0  0  0
    0.2725    2.4663   -2.1030 C   0  0  0  0  0  0  0  0  0  0  0  0
    0.0258    1.2832   -2.3285 O   0  0  0  0  0  0  0  0  0  0  0  0
    2.6789    3.1090   -2.5623 C   0  0  0  0  0  0  0  0  0  0  0  0
    1.8173    0.8536   -0.9341 H   0  0  0  0  0  0  0  0  0  0  0  0
    1.4838    3.7853   -0.9076 H   0  0  0  0  0  0  0  0  0  0  0  0
    2.8339    2.2044   -3.1590 H   0  0  0  0  0  0  0  0  0  0  0  0
    2.3582    3.9155   -3.2286 H   0  0  0  0  0  0  0  0  0  0  0  0
    3.6320    3.3937   -2.1057 H   0  0  0  0  0  0  0  0  0  0  0  0
   -0.6678    3.4300   -2.4153 N   0  0  0  0  0  0  0  0  0  0  0  0
   -2.0113    3.1002   -2.8743 C   0  0  0  0  0  0  0  0  0  0  0  0
   -0.4805    4.3762   -2.0957 H   0  0  0  0  0  0  0  0  0  0  0  0
   -1.9686    2.4743   -3.7721 H   0  0  0  0  0  0  0  0  0  0  0  0
   -2.5588    2.5606   -2.0943 H   0  0  0  0  0  0  0  0  0  0  0  0
   -2.5624    4.0133   -3.1190 H   0  0  0  0  0  0  0  0  0  0  0  0
  1  2  2  0  0  0  0
  1  3  1  0  0  0  0
  1  7  1  0  0  0  0
  3  4  1  0  0  0  0
  3  5  1  0  0  0  0
  3  6  1  0  0  0  0
  7  8  1  0  0  0  0
  7 12  1  0  0  0  0
  8  9  1  0  0  0  0
  8 11  1  0  0  0  0
  8 13  1  0  0  0  0
  9 10  2  0  0  0  0
  9 17  1  0  0  0  0
 11 14  1  0  0  0  0
 11 15  1  0  0  0  0
 11 16  1  0  0  0  0
 17 18  1  0  0  0  0
 17 26  1  0  0  0  0
 18 19  1  0  0  0  0
 18 21  1  0  0  0  0
 18 27  1  0  0  0  0
 19 20  2  0  0  0  0
 19 33  1  0  0  0  0
 21 22  1  0  0  0  0
 21 28  1  0  0  0  0
 21 29  1  0  0  0  0
 22 23  1  0  0  0  0
 22 30  1  0  0  0  0
 22 31  1  0  0  0  0
 23 24  2  0  0  0  0
 23 25  1  0  0  0  0
 25 32  1  0  0  0  0
 33 34  1  0  0  0  0
 33 38  1  0  0  0  0
 34 35  1  0  0  0  0
 34 37  1  0  0  0  0
 34 39  1  0  0  0  0
 35 36  2  0  0  0  0
 35 43  1  0  0  0  0
 37 40  1  0  0  0  0
 37 41  1  0  0  0  0
 37 42  1  0  0  0  0
 43 44  1  0  0  0  0
 43 45  1  0  0  0  0
 44 46  1  0  0  0  0
 44 47  1  0  0  0  0
 44 48  1  0  0  0  0
M  END
$$$$

  -OEChem-02062319073D

 48 47  0     1  0  0  0  0  0999 V2000
   -3.9756   -0.8051    2.3657 C   0  0  0  0  0  0  0  0  0  0  0  0
   -3.8339   -1.9632    2.7262 O   0  0  0  0  0  0  0  0  0  0  0  0
   -5.1686    0.0011    2.8428 C   0  0  0  0  0  0  0  0  0  0  0  0
   -5.7586    0.3368    1.9865 H   0  0  0  0  0  0  0  0  0  0  0  0
   -5.8031   -0.6117    3.4893 H   0  0  0  0  0  0  0  0  0  0  0  0
   -4.8285    0.8731    3.4068 H   0  0  0  0  0  0  0  0  0  0  0  0
   -3.0398   -0.2232    1.5374 N   0  0  0  0  0  0  0  0  0  0  0  0
   -1.7671   -0.8526    1.1616 C   0  0  2  0  0  0  0  0  0  0  0  0
   -0.6411    0.1839    0.9566 C   0  0  0  0  0  0  0  0  0  0  0  0
   -0.9091    1.3755    1.0470 O   0  0  0  0  0  0  0  0  0  0  0  0
   -1.9861   -1.6560   -0.1235 C   0  0  0  0  0  0  0  0  0  0  0  0
   -3.1157    0.7818    1.3818 H   0  0  0  0  0  0  0  0  0  0  0  0
   -1.4448   -1.5302    1.9597 H   0  0  0  0  0  0  0  0  0  0  0  0
   -2.2957   -0.9946   -0.9394 H   0  0  0  0  0  0  0  0  0  0  0  0
   -1.0663   -2.1686   -0.4204 H   0  0  0  0  0  0  0  0  0  0  0  0
   -2.7652   -2.4097    0.0285 H   0  0  0  0  0  0  0  0  0  0  0  0
    0.6806   -0.2268    1.0529 N   0  0  0  0  0  0  0  0  0  0  0  0
    1.7066    0.5362    1.7946 C   0  0  2  0  0  0  0  0  0  0  0  0
    1.9255    1.9674    1.2589 C   0  0  0  0  0  0  0  0  0  0  0  0
    2.1235    2.8915    2.0368 O   0  0  0  0  0  0  0  0  0  0  0  0
    3.0366   -0.2338    1.7624 C   0  0  0  0  0  0  0  0  0  0  0  0
    2.9765   -1.5255    2.6041 C   0  0  0  0  0  0  0  0  0  0  0  0
    4.3044   -2.2801    2.6372 C   0  0  0  0  0  0  0  0  0  0  0  0
    5.0473   -2.2259    1.6735 O   0  0  0  0  0  0  0  0  0  0  0  0
    4.5847   -2.9927    3.7482 O   0  0  0  0  0  0  0  0  0  0  0  0
    0.8039   -1.2348    1.0307 H   0  0  0  0  0  0  0  0  0  0  0  0
    1.3822    0.6457    2.8358 H   0  0  0  0  0  0  0  0  0  0  0  0
    3.2987   -0.4692    0.7245 H   0  0  0  0  0  0  0  0  0  0  0  0
    3.8314    0.4070    2.1624 H   0  0  0  0  0  0  0  0  0  0  0  0
    2.7032   -1.2731    3.6329 H   0  0  0  0  0  0  0  0  0  0  0  0
    2.2154   -2.2029    2.2116 H   0  0  0  0  0  0  0  0  0  0  0  0
    5.4543   -3.3892    3.5827 H   0  0  0  0  0  0  0  0  0  0  0  0
    2.0253    2.1673   -0.1042 N   0  0  0  0  0  0  0  0  0  0  0  0
    1.8231    3.4801   -0.7231 C   0  0  2  0  0  0  0  0  0  0  0  0
    0.4832    3.4983   -1.4860 C   0  0  0  0  0  0  0  0  0  0  0  0
    0.1749    2.5469   -2.1980 O   0  0  0  0  0  0  0  0  0  0  0  0
    2.9955    3.7471   -1.6688 C   0  0  0  0  0  0  0  0  0  0  0  0
    1.6926    1.3795   -0.6575 H   0  0  0  0  0  0  0  0  0  0  0  0
    1.7970    4.2720    0.0326 H   0  0  0  0  0  0  0  0  0  0  0  0
    3.0458    2.9772   -2.4455 H   0  0  0  0  0  0  0  0  0  0  0  0
    2.8805    4.7220   -2.1520 H   0  0  0  0  0  0  0  0  0  0  0  0
    3.9378    3.7437   -1.1122 H   0  0  0  0  0  0  0  0  0  0  0  0
   -0.3686    4.5818   -1.3806 N   0  0  0  0  0  0  0  0  0  0  0  0
   -1.7075    4.5906   -1.9557 C   0  0  0  0  0  0  0  0  0  0  0  0
   -0.1383    5.2765   -0.6759 H   0  0  0  0  0  0  0  0  0  0  0  0
   -1.6657    4.3897   -3.0315 H   0  0  0  0  0  0  0  0  0  0  0  0
   -2.3330    3.8287   -1.4784 H   0  0  0  0  0  0  0  0  0  0  0  0
   -2.1752    5.5687   -1.8072 H   0  0  0  0  0  0  0  0  0  0  0  0
  1  2  2  0  0  0  0
  1  3  1  0  0  0  0
  1  7  1  0  0  0  0
  3  4  1  0  0  0  0
  3  5  1  0  0  0  0
  3  6  1  0  0  0  0
  7  8  1  0  0  0  0
  7 12  1  0  0  0  0
  8  9  1  0  0  0  0
  8 11  1  0  0  0  0
  8 13  1  0  0  0  0
  9 10  2  0  0  0  0
  9 17  1  0  0  0  0
 11 14  1  0  0  0  0
 11 15  1  0  0  0  0
 11 16  1  0  0  0  0
 17 18  1  0  0  0  0
 17 26  1  0  0  0  0
 18 19  1  0  0  0  0
 18 21  1  0  0  0  0
 18 27  1  0  0  0  0
 19 20  2  0  0  0  0
 19 33  1  0  0  0  0
 21 22  1  0  0  0  0
 21 28  1  0  0  0  0
 21 29  1  0  0  0  0
 22 23  1  0  0  0  0
 22 30  1  0  0  0  0
 22 31  1  0  0  0  0
 23 24  2  0  0  0  0
 23 25  1  0  0  0  0
 25 32  1  0  0  0  0
 33 34  1  0  0  0  0
 33 38  1  0  0  0  0
 34 35  1  0  0  0  0
 34 37  1  0  0  0  0
 34 39  1  0  0  0  0
 35 36  2  0  0  0  0
 35 43  1  0  0  0  0
 37 40  1  0  0  0  0
 37 41  1  0  0  0  0
 37 42  1  0  0  0  0
 43 44  1  0  0  0  0
 43 45  1  0  0  0  0
 44 46  1  0  0  0  0
 44 47  1  0  0  0  0
 44 48  1  0  0  0  0
M  END
$$$$

  -OEChem-02062319073D

 48 47  0     1  0  0  0  0  0999 V2000
   -3.7510   -0.8072    2.5050 C   0  0  0  0  0  0  0  0  0  0  0  0
   -3.4895   -1.9288    2.9097 O   0  0  0  0  0  0  0  0  0  0  0  0
   -4.8764   -0.0100    3.1369 C   0  0  0  0  0  0  0  0  0  0  0  0
   -5.5963    0.2914    2.3721 H   0  0  0  0  0  0  0  0  0  0  0  0
   -5.3930   -0.6159    3.8867 H   0  0  0  0  0  0  0  0  0  0  0  0
   -4.4746    0.8832    3.6217 H   0  0  0  0  0  0  0  0  0  0  0  0
   -3.0095   -0.2563    1.4806 N   0  0  0  0  0  0  0  0  0  0  0  0
   -1.7904   -0.8624    0.9279 C   0  0  2  0  0  0  0  0  0  0  0  0
   -0.6729    0.1801    0.7152 C   0  0  0  0  0  0  0  0  0  0  0  0
   -0.9623    1.3684    0.6505 O   0  0  0  0  0  0  0  0  0  0  0  0
   -2.1508   -1.5406   -0.3957 C   0  0  0  0  0  0  0  0  0  0  0  0
   -3.1675    0.7299    1.2778 H   0  0  0  0  0  0  0  0  0  0  0  0
   -1.4026   -1.6187    1.6190 H   0  0  0  0  0  0  0  0  0  0  0  0
   -2.5366   -0.8067   -1.1106 H   0  0  0  0  0  0  0  0  0  0  0  0
   -1.2719   -2.0246   -0.8321 H   0  0  0  0  0  0  0  0  0  0  0  0
   -2.9189   -2.3035   -0.2316 H   0  0  0  0  0  0  0  0  0  0  0  0
    0.6468   -0.1767    0.9371 N   0  0  0  0  0  0  0  0  0  0  0  0
    1.4698    0.5265    1.9441 C   0  0  2  0  0  0  0  0  0  0  0  0
    1.6525    2.0422    1.7059 C   0  0  0  0  0  0  0  0  0  0  0  0
    1.6574    2.8033    2.6614 O   0  0  0  0  0  0  0  0  0  0  0  0
    2.8539   -0.1410    2.0130 C   0  0  0  0  0  0  0  0  0  0  0  0
    2.7882   -1.5680    2.5995 C   0  0  0  0  0  0  0  0  0  0  0  0
    4.1536   -2.2474    2.7038 C   0  0  0  0  0  0  0  0  0  0  0  0
    5.0872   -1.8337    2.0399 O   0  0  0  0  0  0  0  0  0  0  0  0
    4.2477   -3.3092    3.5306 O   0  0  0  0  0  0  0  0  0  0  0  0
    0.7873   -1.1827    0.9165 H   0  0  0  0  0  0  0  0  0  0  0  0
    0.9828    0.4324    2.9218 H   0  0  0  0  0  0  0  0  0  0  0  0
    3.2979   -0.1658    1.0112 H   0  0  0  0  0  0  0  0  0  0  0  0
    3.5123    0.4652    2.6472 H   0  0  0  0  0  0  0  0  0  0  0  0
    2.3549   -1.5256    3.6030 H   0  0  0  0  0  0  0  0  0  0  0  0
    2.1494   -2.2049    1.9847 H   0  0  0  0  0  0  0  0  0  0  0  0
    5.1711   -3.6001    3.4676 H   0  0  0  0  0  0  0  0  0  0  0  0
    1.9524    2.5190    0.4436 N   0  0  0  0  0  0  0  0  0  0  0  0
    2.1788    3.9390    0.1275 C   0  0  2  0  0  0  0  0  0  0  0  0
    0.8942    4.7076   -0.2675 C   0  0  0  0  0  0  0  0  0  0  0  0
    0.9762    5.8147   -0.7859 O   0  0  0  0  0  0  0  0  0  0  0  0
    3.2265    3.9830   -0.9909 C   0  0  0  0  0  0  0  0  0  0  0  0
    1.8186    1.8667   -0.3235 H   0  0  0  0  0  0  0  0  0  0  0  0
    2.5958    4.4497    1.0021 H   0  0  0  0  0  0  0  0  0  0  0  0
    2.8344    3.5245   -1.9040 H   0  0  0  0  0  0  0  0  0  0  0  0
    3.5020    5.0187   -1.2147 H   0  0  0  0  0  0  0  0  0  0  0  0
    4.1311    3.4469   -0.6875 H   0  0  0  0  0  0  0  0  0  0  0  0
   -0.3589    4.1433   -0.1112 N   0  0  0  0  0  0  0  0  0  0  0  0
   -1.5989    4.8187   -0.4672 C   0  0  0  0  0  0  0  0  0  0  0  0
   -0.4100    3.2222    0.3306 H   0  0  0  0  0  0  0  0  0  0  0  0
   -1.7126    5.7413    0.1116 H   0  0  0  0  0  0  0  0  0  0  0  0
   -1.6078    5.0670   -1.5336 H   0  0  0  0  0  0  0  0  0  0  0  0
   -2.4539    4.1693   -0.2564 H   0  0  0  0  0  0  0  0  0  0  0  0
  1  2  2  0  0  0  0
  1  3  1  0  0  0  0
  1  7  1  0  0  0  0
  3  4  1  0  0  0  0
  3  5  1  0  0  0  0
  3  6  1  0  0  0  0
  7  8  1  0  0  0  0
  7 12  1  0  0  0  0
  8  9  1  0  0  0  0
  8 11  1  0  0  0  0
  8 13  1  0  0  0  0
  9 10  2  0  0  0  0
  9 17  1  0  0  0  0
 11 14  1  0  0  0  0
 11 15  1  0  0  0  0
 11 16  1  0  0  0  0
 17 18  1  0  0  0  0
 17 26  1  0  0  0  0
 18 19  1  0  0  0  0
 18 21  1  0  0  0  0
 18 27  1  0  0  0  0
 19 20  2  0  0  0  0
 19 33  1  0  0  0  0
 21 22  1  0  0  0  0
 21 28  1  0  0  0  0
 21 29  1  0  0  0  0
 22 23  1  0  0  0  0
 22 30  1  0  0  0  0
 22 31  1  0  0  0  0
 23 24  2  0  0  0  0
 23 25  1  0  0  0  0
 25 32  1  0  0  0  0
 33 34  1  0  0  0  0
 33 38  1  0  0  0  0
 34 35  1  0  0  0  0
 34 37  1  0  0  0  0
 34 39  1  0  0  0  0
 35 36  2  0  0  0  0
 35 43  1  0  0  0  0
 37 40  1  0  0  0  0
 37 41  1  0  0  0  0
 37 42  1  0  0  0  0
 43 44  1  0  0  0  0
 43 45  1  0  0  0  0
 44 46  1  0  0  0  0
 44 47  1  0  0  0  0
 44 48  1  0  0  0  0
M  END
$$$$

  -OEChem-02062319073D

 48 47  0     1  0  0  0  0  0999 V2000
   -1.7374   -2.0966    2.1942 C   0  0  0  0  0  0  0  0  0  0  0  0
   -0.8105   -2.5663    1.5516 O   0  0  0  0  0  0  0  0  0  0  0  0
   -2.1221   -2.6855    3.5375 C   0  0  0  0  0  0  0  0  0  0  0  0
   -3.1784   -2.9657    3.5343 H   0  0  0  0  0  0  0  0  0  0  0  0
   -1.5231   -3.5772    3.7445 H   0  0  0  0  0  0  0  0  0  0  0  0
   -1.9494   -1.9536    4.3307 H   0  0  0  0  0  0  0  0  0  0  0  0
   -2.3672   -0.9652    1.7212 N   0  0  0  0  0  0  0  0  0  0  0  0
   -2.1048   -0.3748    0.3987 C   0  0  2  0  0  0  0  0  0  0  0  0
   -0.8134    0.4836    0.3509 C   0  0  0  0  0  0  0  0  0  0  0  0
   -0.8544    1.6580    0.0108 O   0  0  0  0  0  0  0  0  0  0  0  0
   -3.3604    0.4162    0.0057 C   0  0  0  0  0  0  0  0  0  0  0  0
   -3.1159   -0.5747    2.2880 H   0  0  0  0  0  0  0  0  0  0  0  0
   -1.9769   -1.1773   -0.3364 H   0  0  0  0  0  0  0  0  0  0  0  0
   -3.5277    1.2459    0.7004 H   0  0  0  0  0  0  0  0  0  0  0  0
   -3.2504    0.8279   -1.0028 H   0  0  0  0  0  0  0  0  0  0  0  0
   -4.2411   -0.2334    0.0158 H   0  0  0  0  0  0  0  0  0  0  0  0
    0.3558    0.0387    0.9436 N   0  0  0  0  0  0  0  0  0  0  0  0
    0.7969    0.6419    2.2178 C   0  0  2  0  0  0  0  0  0  0  0  0
    1.0607    2.1630    2.1714 C   0  0  0  0  0  0  0  0  0  0  0  0
    0.7501    2.8467    3.1358 O   0  0  0  0  0  0  0  0  0  0  0  0
    2.0953   -0.0448    2.6848 C   0  0  0  0  0  0  0  0  0  0  0  0
    1.9118   -1.5452    2.9884 C   0  0  0  0  0  0  0  0  0  0  0  0
    3.1355   -2.1731    3.6509 C   0  0  0  0  0  0  0  0  0  0  0  0
    4.2468   -1.7698    3.3575 O   0  0  0  0  0  0  0  0  0  0  0  0
    2.9193   -3.1587    4.5477 O   0  0  0  0  0  0  0  0  0  0  0  0
    0.3409   -0.9836    0.9952 H   0  0  0  0  0  0  0  0  0  0  0  0
    0.0191    0.4821    2.9723 H   0  0  0  0  0  0  0  0  0  0  0  0
    2.8719    0.0808    1.9213 H   0  0  0  0  0  0  0  0  0  0  0  0
    2.4478    0.4549    3.5954 H   0  0  0  0  0  0  0  0  0  0  0  0
    1.0566   -1.6823    3.6547 H   0  0  0  0  0  0  0  0  0  0  0  0
    1.7153   -2.0955    2.0657 H   0  0  0  0  0  0  0  0  0  0  0  0
    3.8029   -3.4214    4.8491 H   0  0  0  0  0  0  0  0  0  0  0  0
    1.7702    2.7236    1.1267 N   0  0  0  0  0  0  0  0  0  0  0  0
    2.1080    4.1535    1.0348 C   0  0  2  0  0  0  0  0  0  0  0  0
    1.0075    5.0318    0.3935 C   0  0  0  0  0  0  0  0  0  0  0  0
    1.2028    6.2308    0.2349 O   0  0  0  0  0  0  0  0  0  0  0  0
    3.4150    4.2509    0.2417 C   0  0  0  0  0  0  0  0  0  0  0  0
    1.8559    2.1462    0.2940 H   0  0  0  0  0  0  0  0  0  0  0  0
    2.2870    4.5525    2.0394 H   0  0  0  0  0  0  0  0  0  0  0  0
    3.2689    3.8994   -0.7843 H   0  0  0  0  0  0  0  0  0  0  0  0
    3.7618    5.2887    0.2064 H   0  0  0  0  0  0  0  0  0  0  0  0
    4.1940    3.6450    0.7143 H   0  0  0  0  0  0  0  0  0  0  0  0
   -0.1682    4.4825   -0.0836 N   0  0  0  0  0  0  0  0  0  0  0  0
   -1.2368    5.2604   -0.6933 C   0  0  0  0  0  0  0  0  0  0  0  0
   -0.3199    3.4840    0.0783 H   0  0  0  0  0  0  0  0  0  0  0  0
   -1.6484    5.9748    0.0270 H   0  0  0  0  0  0  0  0  0  0  0  0
   -0.8637    5.8101   -1.5637 H   0  0  0  0  0  0  0  0  0  0  0  0
   -2.0419    4.5969   -1.0233 H   0  0  0  0  0  0  0  0  0  0  0  0
  1  2  2  0  0  0  0
  1  3  1  0  0  0  0
  1  7  1  0  0  0  0
  3  4  1  0  0  0  0
  3  5  1  0  0  0  0
  3  6  1  0  0  0  0
  7  8  1  0  0  0  0
  7 12  1  0  0  0  0
  8  9  1  0  0  0  0
  8 11  1  0  0  0  0
  8 13  1  0  0  0  0
  9 10  2  0  0  0  0
  9 17  1  0  0  0  0
 11 14  1  0  0  0  0
 11 15  1  0  0  0  0
 11 16  1  0  0  0  0
 17 18  1  0  0  0  0
 17 26  1  0  0  0  0
 18 19  1  0  0  0  0
 18 21  1  0  0  0  0
 18 27  1  0  0  0  0
 19 20  2  0  0  0  0
 19 33  1  0  0  0  0
 21 22  1  0  0  0  0
 21 28  1  0  0  0  0
 21 29  1  0  0  0  0
 22 23  1  0  0  0  0
 22 30  1  0  0  0  0
 22 31  1  0  0  0  0
 23 24  2  0  0  0  0
 23 25  1  0  0  0  0
 25 32  1  0  0  0  0
 33 34  1  0  0  0  0
 33 38  1  0  0  0  0
 34 35  1  0  0  0  0
 34 37  1  0  0  0  0
 34 39  1  0  0  0  0
 35 36  2  0  0  0  0
 35 43  1  0  0  0  0
 37 40  1  0  0  0  0
 37 41  1  0  0  0  0
 37 42  1  0  0  0  0
 43 44  1  0  0  0  0
 43 45  1  0  0  0  0
 44 46  1  0  0  0  0
 44 47  1  0  0  0  0
 44 48  1  0  0  0  0
M  END
$$$$

  -OEChem-02062319073D

 48 47  0     1  0  0  0  0  0999 V2000
   -3.1288    0.4934    2.4306 C   0  0  0  0  0  0  0  0  0  0  0  0
   -2.3256    0.4506    3.3498 O   0  0  0  0  0  0  0  0  0  0  0  0
   -4.3166    1.4344    2.4935 C   0  0  0  0  0  0  0  0  0  0  0  0
   -5.2448    0.8746    2.3561 H   0  0  0  0  0  0  0  0  0  0  0  0
   -4.3491    1.9352    3.4648 H   0  0  0  0  0  0  0  0  0  0  0  0
   -4.2356    2.1907    1.7087 H   0  0  0  0  0  0  0  0  0  0  0  0
   -2.9261   -0.2877    1.3112 N   0  0  0  0  0  0  0  0  0  0  0  0
   -1.6631   -1.0049    1.0930 C   0  0  2  0  0  0  0  0  0  0  0  0
   -0.5161   -0.0290    0.7616 C   0  0  0  0  0  0  0  0  0  0  0  0
   -0.6557    0.8354   -0.0904 O   0  0  0  0  0  0  0  0  0  0  0  0
   -1.8741   -2.0121   -0.0400 C   0  0  0  0  0  0  0  0  0  0  0  0
   -3.4780   -0.0428    0.4937 H   0  0  0  0  0  0  0  0  0  0  0  0
   -1.3910   -1.5549    2.0002 H   0  0  0  0  0  0  0  0  0  0  0  0
   -2.1467   -1.4981   -0.9674 H   0  0  0  0  0  0  0  0  0  0  0  0
   -0.9569   -2.5826   -0.2162 H   0  0  0  0  0  0  0  0  0  0  0  0
   -2.6727   -2.7140    0.2194 H   0  0  0  0  0  0  0  0  0  0  0  0
    0.8056   -0.3560    0.9227 N   0  0  0  0  0  0  0  0  0  0  0  0
    1.4145   -0.0640    2.2291 C   0  0  2  0  0  0  0  0  0  0  0  0
    1.3710    1.4329    2.6051 C   0  0  0  0  0  0  0  0  0  0  0  0
    1.2082    1.7450    3.7763 O   0  0  0  0  0  0  0  0  0  0  0  0
    2.8692   -0.5607    2.2334 C   0  0  0  0  0  0  0  0  0  0  0  0
    2.9513   -2.0972    2.1183 C   0  0  0  0  0  0  0  0  0  0  0  0
    4.3819   -2.6316    2.1578 C   0  0  0  0  0  0  0  0  0  0  0  0
    5.2999   -1.9200    1.7901 O   0  0  0  0  0  0  0  0  0  0  0  0
    4.5572   -3.8947    2.5991 O   0  0  0  0  0  0  0  0  0  0  0  0
    1.3352    0.0149    0.1378 H   0  0  0  0  0  0  0  0  0  0  0  0
    0.8597   -0.5979    3.0101 H   0  0  0  0  0  0  0  0  0  0  0  0
    3.4201   -0.0940    1.4091 H   0  0  0  0  0  0  0  0  0  0  0  0
    3.3519   -0.2494    3.1676 H   0  0  0  0  0  0  0  0  0  0  0  0
    2.3950   -2.5512    2.9432 H   0  0  0  0  0  0  0  0  0  0  0  0
    2.4946   -2.4297    1.1830 H   0  0  0  0  0  0  0  0  0  0  0  0
    5.5140   -4.0474    2.5560 H   0  0  0  0  0  0  0  0  0  0  0  0
    1.6967    2.4177    1.6900 N   0  0  0  0  0  0  0  0  0  0  0  0
    1.6490    3.8532    2.0139 C   0  0  2  0  0  0  0  0  0  0  0  0
    0.2018    4.3988    2.1365 C   0  0  0  0  0  0  0  0  0  0  0  0
   -0.1923    5.3366    1.4530 O   0  0  0  0  0  0  0  0  0  0  0  0
    2.4700    4.5831    0.9440 C   0  0  0  0  0  0  0  0  0  0  0  0
    1.5843    2.1611    0.7121 H   0  0  0  0  0  0  0  0  0  0  0  0
    2.1359    4.0237    2.9800 H   0  0  0  0  0  0  0  0  0  0  0  0
    2.0108    4.4622   -0.0425 H   0  0  0  0  0  0  0  0  0  0  0  0
    2.5234    5.6526    1.1718 H   0  0  0  0  0  0  0  0  0  0  0  0
    3.4896    4.1873    0.9084 H   0  0  0  0  0  0  0  0  0  0  0  0
   -0.6635    3.8347    3.0539 N   0  0  0  0  0  0  0  0  0  0  0  0
   -2.0314    4.2796    3.2718 C   0  0  0  0  0  0  0  0  0  0  0  0
   -0.2979    3.0537    3.6062 H   0  0  0  0  0  0  0  0  0  0  0  0
   -2.0465    5.3261    3.5936 H   0  0  0  0  0  0  0  0  0  0  0  0
   -2.6157    4.1835    2.3512 H   0  0  0  0  0  0  0  0  0  0  0  0
   -2.5035    3.6706    4.0487 H   0  0  0  0  0  0  0  0  0  0  0  0
  1  2  2  0  0  0  0
  1  3  1  0  0  0  0
  1  7  1  0  0  0  0
  3  4  1  0  0  0  0
  3  5  1  0  0  0  0
  3  6  1  0  0  0  0
  7  8  1  0  0  0  0
  7 12  1  0  0  0  0
  8  9  1  0  0  0  0
  8 11  1  0  0  0  0
  8 13  1  0  0  0  0
  9 10  2  0  0  0  0
  9 17  1  0  0  0  0
 11 14  1  0  0  0  0
 11 15  1  0  0  0  0
 11 16  1  0  0  0  0
 17 18  1  0  0  0  0
 17 26  1  0  0  0  0
 18 19  1  0  0  0  0
 18 21  1  0  0  0  0
 18 27  1  0  0  0  0
 19 20  2  0  0  0  0
 19 33  1  0  0  0  0
 21 22  1  0  0  0  0
 21 28  1  0  0  0  0
 21 29  1  0  0  0  0
 22 23  1  0  0  0  0
 22 30  1  0  0  0  0
 22 31  1  0  0  0  0
 23 24  2  0  0  0  0
 23 25  1  0  0  0  0
 25 32  1  0  0  0  0
 33 34  1  0  0  0  0
 33 38  1  0  0  0  0
 34 35  1  0  0  0  0
 34 37  1  0  0  0  0
 34 39  1  0  0  0  0
 35 36  2  0  0  0  0
 35 43  1  0  0  0  0
 37 40  1  0  0  0  0
 37 41  1  0  0  0  0
 37 42  1  0  0  0  0
 43 44  1  0  0  0  0
 43 45  1  0  0  0  0
 44 46  1  0  0  0  0
 44 47  1  0  0  0  0
 44 48  1  0  0  0  0
M  END
$$$$

  -OEChem-02062319073D

 48 47  0     1  0  0  0  0  0999 V2000
   -3.2305    0.4220    2.6093 C   0  0  0  0  0  0  0  0  0  0  0  0
   -2.4818    0.3788    3.5730 O   0  0  0  0  0  0  0  0  0  0  0  0
   -4.4482    1.3260    2.6252 C   0  0  0  0  0  0  0  0  0  0  0  0
   -5.3289    0.7739    2.2884 H   0  0  0  0  0  0  0  0  0  0  0  0
   -4.6321    1.6940    3.6384 H   0  0  0  0  0  0  0  0  0  0  0  0
   -4.2860    2.1794    1.9622 H   0  0  0  0  0  0  0  0  0  0  0  0
   -2.9455   -0.3268    1.4862 N   0  0  0  0  0  0  0  0  0  0  0  0
   -1.6604   -1.0163    1.3189 C   0  0  2  0  0  0  0  0  0  0  0  0
   -0.5458   -0.0383    0.8933 C   0  0  0  0  0  0  0  0  0  0  0  0
   -0.7434    0.8054    0.0326 O   0  0  0  0  0  0  0  0  0  0  0  0
   -1.8448   -2.1200    0.2753 C   0  0  0  0  0  0  0  0  0  0  0  0
   -3.4545   -0.0726    0.6440 H   0  0  0  0  0  0  0  0  0  0  0  0
   -1.3660   -1.4840    2.2642 H   0  0  0  0  0  0  0  0  0  0  0  0
   -2.1288   -1.6929   -0.6919 H   0  0  0  0  0  0  0  0  0  0  0  0
   -0.9134   -2.6803    0.1474 H   0  0  0  0  0  0  0  0  0  0  0  0
   -2.6260   -2.8171    0.5937 H   0  0  0  0  0  0  0  0  0  0  0  0
    0.7886   -0.3290    1.0263 N   0  0  0  0  0  0  0  0  0  0  0  0
    1.3938   -0.2813    2.3657 C   0  0  2  0  0  0  0  0  0  0  0  0
    1.2916    1.1068    3.0336 C   0  0  0  0  0  0  0  0  0  0  0  0
    1.0924    1.1759    4.2373 O   0  0  0  0  0  0  0  0  0  0  0  0
    2.8667   -0.7092    2.2657 C   0  0  0  0  0  0  0  0  0  0  0  0
    3.0067   -2.1888    1.8469 C   0  0  0  0  0  0  0  0  0  0  0  0
    4.4558   -2.6603    1.7300 C   0  0  0  0  0  0  0  0  0  0  0  0
    5.3616   -1.8453    1.7284 O   0  0  0  0  0  0  0  0  0  0  0  0
    4.6590   -3.9898    1.6217 O   0  0  0  0  0  0  0  0  0  0  0  0
    1.3152    0.1562    0.3038 H   0  0  0  0  0  0  0  0  0  0  0  0
    0.8725   -0.9851    3.0247 H   0  0  0  0  0  0  0  0  0  0  0  0
    3.3891   -0.0669    1.5479 H   0  0  0  0  0  0  0  0  0  0  0  0
    3.3490   -0.5705    3.2408 H   0  0  0  0  0  0  0  0  0  0  0  0
    2.5035   -2.8214    2.5832 H   0  0  0  0  0  0  0  0  0  0  0  0
    2.5245   -2.3531    0.8800 H   0  0  0  0  0  0  0  0  0  0  0  0
    5.6214   -4.0946    1.5621 H   0  0  0  0  0  0  0  0  0  0  0  0
    1.5731    2.2660    2.3337 N   0  0  0  0  0  0  0  0  0  0  0  0
    1.5141    3.6080    2.9357 C   0  0  2  0  0  0  0  0  0  0  0  0
    0.0641    4.1186    3.1372 C   0  0  0  0  0  0  0  0  0  0  0  0
   -0.3116    5.1846    2.6634 O   0  0  0  0  0  0  0  0  0  0  0  0
    2.3553    4.5354    2.0496 C   0  0  0  0  0  0  0  0  0  0  0  0
    1.5380    2.2022    1.3199 H   0  0  0  0  0  0  0  0  0  0  0  0
    1.9811    3.5828    3.9263 H   0  0  0  0  0  0  0  0  0  0  0  0
    1.9151    4.6170    1.0506 H   0  0  0  0  0  0  0  0  0  0  0  0
    2.4050    5.5370    2.4886 H   0  0  0  0  0  0  0  0  0  0  0  0
    3.3755    4.1513    1.9541 H   0  0  0  0  0  0  0  0  0  0  0  0
   -0.8255    3.3735    3.8864 N   0  0  0  0  0  0  0  0  0  0  0  0
   -2.1888    3.7866    4.1846 C   0  0  0  0  0  0  0  0  0  0  0  0
   -0.4815    2.4854    4.2621 H   0  0  0  0  0  0  0  0  0  0  0  0
   -2.1905    4.7344    4.7326 H   0  0  0  0  0  0  0  0  0  0  0  0
   -2.7616    3.9116    3.2602 H   0  0  0  0  0  0  0  0  0  0  0  0
   -2.6832    3.0299    4.8015 H   0  0  0  0  0  0  0  0  0  0  0  0
  1  2  2  0  0  0  0
  1  3  1  0  0  0  0
  1  7  1  0  0  0  0
  3  4  1  0  0  0  0
  3  5  1  0  0  0  0
  3  6  1  0  0  0  0
  7  8  1  0  0  0  0
  7 12  1  0  0  0  0
  8  9  1  0  0  0  0
  8 11  1  0  0  0  0
  8 13  1  0  0  0  0
  9 10  2  0  0  0  0
  9 17  1  0  0  0  0
 11 14  1  0  0  0  0
 11 15  1  0  0  0  0
 11 16  1  0  0  0  0
 17 18  1  0  0  0  0
 17 26  1  0  0  0  0
 18 19  1  0  0  0  0
 18 21  1  0  0  0  0
 18 27  1  0  0  0  0
 19 20  2  0  0  0  0
 19 33  1  0  0  0  0
 21 22  1  0  0  0  0
 21 28  1  0  0  0  0
 21 29  1  0  0  0  0
 22 23  1  0  0  0  0
 22 30  1  0  0  0  0
 22 31  1  0  0  0  0
 23 24  2  0  0  0  0
 23 25  1  0  0  0  0
 25 32  1  0  0  0  0
 33 34  1  0  0  0  0
 33 38  1  0  0  0  0
 34 35  1  0  0  0  0
 34 37  1  0  0  0  0
 34 39  1  0  0  0  0
 35 36  2  0  0  0  0
 35 43  1  0  0  0  0
 37 40  1  0  0  0  0
 37 41  1  0  0  0  0
 37 42  1  0  0  0  0
 43 44  1  0  0  0  0
 43 45  1  0  0  0  0
 44 46  1  0  0  0  0
 44 47  1  0  0  0  0
 44 48  1  0  0  0  0
M  END
$$$$

  -OEChem-02062319073D

 48 47  0     1  0  0  0  0  0999 V2000
   -3.3807    0.2703    2.7147 C   0  0  0  0  0  0  0  0  0  0  0  0
   -2.7553    0.0114    3.7303 O   0  0  0  0  0  0  0  0  0  0  0  0
   -4.5631    1.2186    2.7675 C   0  0  0  0  0  0  0  0  0  0  0  0
   -5.4349    0.7563    2.2981 H   0  0  0  0  0  0  0  0  0  0  0  0
   -4.8095    1.4570    3.8057 H   0  0  0  0  0  0  0  0  0  0  0  0
   -4.3212    2.1449    2.2403 H   0  0  0  0  0  0  0  0  0  0  0  0
   -2.9949   -0.2779    1.5091 N   0  0  0  0  0  0  0  0  0  0  0  0
   -1.7222   -0.9908    1.3341 C   0  0  2  0  0  0  0  0  0  0  0  0
   -0.5958   -0.0272    0.9041 C   0  0  0  0  0  0  0  0  0  0  0  0
   -0.8046    0.8633    0.0951 O   0  0  0  0  0  0  0  0  0  0  0  0
   -1.9338   -2.0798    0.2803 C   0  0  0  0  0  0  0  0  0  0  0  0
   -3.4071    0.1445    0.6808 H   0  0  0  0  0  0  0  0  0  0  0  0
   -1.4286   -1.4760    2.2705 H   0  0  0  0  0  0  0  0  0  0  0  0
   -2.2125   -1.6371   -0.6815 H   0  0  0  0  0  0  0  0  0  0  0  0
   -1.0155   -2.6590    0.1431 H   0  0  0  0  0  0  0  0  0  0  0  0
   -2.7295   -2.7625    0.5943 H   0  0  0  0  0  0  0  0  0  0  0  0
    0.7427   -0.3069    1.0400 N   0  0  0  0  0  0  0  0  0  0  0  0
    1.3226   -0.5730    2.3651 C   0  0  2  0  0  0  0  0  0  0  0  0
    1.1602    0.6058    3.3484 C   0  0  0  0  0  0  0  0  0  0  0  0
    0.9271    0.3765    4.5256 O   0  0  0  0  0  0  0  0  0  0  0  0
    2.8153   -0.9031    2.2017 C   0  0  0  0  0  0  0  0  0  0  0  0
    3.0357   -2.2174    1.4227 C   0  0  0  0  0  0  0  0  0  0  0  0
    4.5085   -2.5944    1.2653 C   0  0  0  0  0  0  0  0  0  0  0  0
    5.3727   -1.7612    1.4738 O   0  0  0  0  0  0  0  0  0  0  0  0
    4.7801   -3.8605    0.8863 O   0  0  0  0  0  0  0  0  0  0  0  0
    1.2936    0.2849    0.4224 H   0  0  0  0  0  0  0  0  0  0  0  0
    0.8245   -1.4378    2.8172 H   0  0  0  0  0  0  0  0  0  0  0  0
    3.3216   -0.0775    1.6888 H   0  0  0  0  0  0  0  0  0  0  0  0
    3.2713   -1.0003    3.1945 H   0  0  0  0  0  0  0  0  0  0  0  0
    2.5310   -3.0355    1.9438 H   0  0  0  0  0  0  0  0  0  0  0  0
    2.6015   -2.1401    0.4228 H   0  0  0  0  0  0  0  0  0  0  0  0
    5.7479   -3.9095    0.8436 H   0  0  0  0  0  0  0  0  0  0  0  0
    1.4160    1.9065    2.9550 N   0  0  0  0  0  0  0  0  0  0  0  0
    1.3786    3.0601    3.8676 C   0  0  2  0  0  0  0  0  0  0  0  0
   -0.0614    3.5272    4.1975 C   0  0  0  0  0  0  0  0  0  0  0  0
   -0.4302    4.6744    3.9740 O   0  0  0  0  0  0  0  0  0  0  0  0
    2.2333    4.1646    3.2334 C   0  0  0  0  0  0  0  0  0  0  0  0
    1.4568    2.0881    1.9560 H   0  0  0  0  0  0  0  0  0  0  0  0
    1.8464    2.7847    4.8189 H   0  0  0  0  0  0  0  0  0  0  0  0
    1.8046    4.4833    2.2780 H   0  0  0  0  0  0  0  0  0  0  0  0
    2.2833    5.0340    3.8968 H   0  0  0  0  0  0  0  0  0  0  0  0
    3.2523    3.8066    3.0591 H   0  0  0  0  0  0  0  0  0  0  0  0
   -0.9471    2.6448    4.7831 N   0  0  0  0  0  0  0  0  0  0  0  0
   -2.3024    2.9942    5.1829 C   0  0  0  0  0  0  0  0  0  0  0  0
   -0.6174    1.6867    4.9291 H   0  0  0  0  0  0  0  0  0  0  0  0
   -2.2855    3.7821    5.9427 H   0  0  0  0  0  0  0  0  0  0  0  0
   -2.8773    3.3461    4.3207 H   0  0  0  0  0  0  0  0  0  0  0  0
   -2.8081    2.1191    5.6024 H   0  0  0  0  0  0  0  0  0  0  0  0
  1  2  2  0  0  0  0
  1  3  1  0  0  0  0
  1  7  1  0  0  0  0
  3  4  1  0  0  0  0
  3  5  1  0  0  0  0
  3  6  1  0  0  0  0
  7  8  1  0  0  0  0
  7 12  1  0  0  0  0
  8  9  1  0  0  0  0
  8 11  1  0  0  0  0
  8 13  1  0  0  0  0
  9 10  2  0  0  0  0
  9 17  1  0  0  0  0
 11 14  1  0  0  0  0
 11 15  1  0  0  0  0
 11 16  1  0  0  0  0
 17 18  1  0  0  0  0
 17 26  1  0  0  0  0
 18 19  1  0  0  0  0
 18 21  1  0  0  0  0
 18 27  1  0  0  0  0
 19 20  2  0  0  0  0
 19 33  1  0  0  0  0
 21 22  1  0  0  0  0
 21 28  1  0  0  0  0
 21 29  1  0  0  0  0
 22 23  1  0  0  0  0
 22 30  1  0  0  0  0
 22 31  1  0  0  0  0
 23 24  2  0  0  0  0
 23 25  1  0  0  0  0
 25 32  1  0  0  0  0
 33 34  1  0  0  0  0
 33 38  1  0  0  0  0
 34 35  1  0  0  0  0
 34 37  1  0  0  0  0
 34 39  1  0  0  0  0
 35 36  2  0  0  0  0
 35 43  1  0  0  0  0
 37 40  1  0  0  0  0
 37 41  1  0  0  0  0
 37 42  1  0  0  0  0
 43 44  1  0  0  0  0
 43 45  1  0  0  0  0
 44 46  1  0  0  0  0
 44 47  1  0  0  0  0
 44 48  1  0  0  0  0
M  END
$$$$

  -OEChem-02062319073D

 48 47  0     1  0  0  0  0  0999 V2000
   -3.6385    0.1120    2.6912 C   0  0  0  0  0  0  0  0  0  0  0  0
   -3.6051   -0.8337    3.4639 O   0  0  0  0  0  0  0  0  0  0  0  0
   -4.5803    1.2725    2.9484 C   0  0  0  0  0  0  0  0  0  0  0  0
   -5.2735    1.3826    2.1113 H   0  0  0  0  0  0  0  0  0  0  0  0
   -5.1540    1.0996    3.8627 H   0  0  0  0  0  0  0  0  0  0  0  0
   -4.0059    2.1959    3.0609 H   0  0  0  0  0  0  0  0  0  0  0  0
   -2.8287    0.1354    1.5767 N   0  0  0  0  0  0  0  0  0  0  0  0
   -1.6574   -0.7313    1.4031 C   0  0  2  0  0  0  0  0  0  0  0  0
   -0.4483    0.1254    0.9765 C   0  0  0  0  0  0  0  0  0  0  0  0
   -0.5892    1.0938    0.2446 O   0  0  0  0  0  0  0  0  0  0  0  0
   -1.9835   -1.7903    0.3494 C   0  0  0  0  0  0  0  0  0  0  0  0
   -2.7974    1.0248    1.0789 H   0  0  0  0  0  0  0  0  0  0  0  0
   -1.4074   -1.2262    2.3470 H   0  0  0  0  0  0  0  0  0  0  0  0
   -2.2336   -1.3171   -0.6056 H   0  0  0  0  0  0  0  0  0  0  0  0
   -1.1271   -2.4539    0.1968 H   0  0  0  0  0  0  0  0  0  0  0  0
   -2.8370   -2.3933    0.6746 H   0  0  0  0  0  0  0  0  0  0  0  0
    0.8699   -0.2481    1.0864 N   0  0  0  0  0  0  0  0  0  0  0  0
    1.4141   -0.8825    2.2951 C   0  0  2  0  0  0  0  0  0  0  0  0
    1.2575    0.0097    3.5416 C   0  0  0  0  0  0  0  0  0  0  0  0
    0.9391   -0.5040    4.6046 O   0  0  0  0  0  0  0  0  0  0  0  0
    2.8976   -1.2124    2.0690 C   0  0  0  0  0  0  0  0  0  0  0  0
    3.0883   -2.2771    0.9667 C   0  0  0  0  0  0  0  0  0  0  0  0
    4.5498   -2.6448    0.7126 C   0  0  0  0  0  0  0  0  0  0  0  0
    5.4393   -1.9661    1.1953 O   0  0  0  0  0  0  0  0  0  0  0  0
    4.7828   -3.7249   -0.0619 O   0  0  0  0  0  0  0  0  0  0  0  0
    1.4789    0.3891    0.5789 H   0  0  0  0  0  0  0  0  0  0  0  0
    0.8771   -1.8171    2.4938 H   0  0  0  0  0  0  0  0  0  0  0  0
    3.4421   -0.2988    1.8045 H   0  0  0  0  0  0  0  0  0  0  0  0
    3.3268   -1.5905    3.0047 H   0  0  0  0  0  0  0  0  0  0  0  0
    2.5543   -3.1887    1.2484 H   0  0  0  0  0  0  0  0  0  0  0  0
    2.6657   -1.9219    0.0236 H   0  0  0  0  0  0  0  0  0  0  0  0
    5.7486   -3.7981   -0.1109 H   0  0  0  0  0  0  0  0  0  0  0  0
    1.5538    1.3597    3.5024 N   0  0  0  0  0  0  0  0  0  0  0  0
    1.0643    2.2415    4.5704 C   0  0  2  0  0  0  0  0  0  0  0  0
   -0.4816    2.2375    4.6652 C   0  0  0  0  0  0  0  0  0  0  0  0
   -1.1648    2.4589    3.6702 O   0  0  0  0  0  0  0  0  0  0  0  0
    1.5815    3.6555    4.2954 C   0  0  0  0  0  0  0  0  0  0  0  0
    1.5924    1.7588    2.5681 H   0  0  0  0  0  0  0  0  0  0  0  0
    1.4708    1.9050    5.5300 H   0  0  0  0  0  0  0  0  0  0  0  0
    1.1980    4.0275    3.3393 H   0  0  0  0  0  0  0  0  0  0  0  0
    1.2572    4.3381    5.0870 H   0  0  0  0  0  0  0  0  0  0  0  0
    2.6754    3.6610    4.2601 H   0  0  0  0  0  0  0  0  0  0  0  0
   -1.0949    1.9524    5.8705 N   0  0  0  0  0  0  0  0  0  0  0  0
   -2.5305    1.7329    5.9925 C   0  0  0  0  0  0  0  0  0  0  0  0
   -0.4950    1.5484    6.5846 H   0  0  0  0  0  0  0  0  0  0  0  0
   -3.0900    2.5501    5.5257 H   0  0  0  0  0  0  0  0  0  0  0  0
   -2.8132    0.7903    5.5141 H   0  0  0  0  0  0  0  0  0  0  0  0
   -2.8153    1.6846    7.0477 H   0  0  0  0  0  0  0  0  0  0  0  0
  1  2  2  0  0  0  0
  1  3  1  0  0  0  0
  1  7  1  0  0  0  0
  3  4  1  0  0  0  0
  3  5  1  0  0  0  0
  3  6  1  0  0  0  0
  7  8  1  0  0  0  0
  7 12  1  0  0  0  0
  8  9  1  0  0  0  0
  8 11  1  0  0  0  0
  8 13  1  0  0  0  0
  9 10  2  0  0  0  0
  9 17  1  0  0  0  0
 11 14  1  0  0  0  0
 11 15  1  0  0  0  0
 11 16  1  0  0  0  0
 17 18  1  0  0  0  0
 17 26  1  0  0  0  0
 18 19  1  0  0  0  0
 18 21  1  0  0  0  0
 18 27  1  0  0  0  0
 19 20  2  0  0  0  0
 19 33  1  0  0  0  0
 21 22  1  0  0  0  0
 21 28  1  0  0  0  0
 21 29  1  0  0  0  0
 22 23  1  0  0  0  0
 22 30  1  0  0  0  0
 22 31  1  0  0  0  0
 23 24  2  0  0  0  0
 23 25  1  0  0  0  0
 25 32  1  0  0  0  0
 33 34  1  0  0  0  0
 33 38  1  0  0  0  0
 34 35  1  0  0  0  0
 34 37  1  0  0  0  0
 34 39  1  0  0  0  0
 35 36  2  0  0  0  0
 35 43  1  0  0  0  0
 37 40  1  0  0  0  0
 37 41  1  0  0  0  0
 37 42  1  0  0  0  0
 43 44  1  0  0  0  0
 43 45  1  0  0  0  0
 44 46  1  0  0  0  0
 44 47  1  0  0  0  0
 44 48  1  0  0  0  0
M  END
$$$$

  -OEChem-02062319073D

 48 47  0     1  0  0  0  0  0999 V2000
   -3.7744   -0.1457    2.6999 C   0  0  0  0  0  0  0  0  0  0  0  0
   -3.7967   -1.2184    3.2845 O   0  0  0  0  0  0  0  0  0  0  0  0
   -4.7625    0.9425    3.0742 C   0  0  0  0  0  0  0  0  0  0  0  0
   -5.4068    1.1706    2.2220 H   0  0  0  0  0  0  0  0  0  0  0  0
   -5.3850    0.6160    3.9115 H   0  0  0  0  0  0  0  0  0  0  0  0
   -4.2231    1.8469    3.3668 H   0  0  0  0  0  0  0  0  0  0  0  0
   -2.8632    0.0836    1.6924 N   0  0  0  0  0  0  0  0  0  0  0  0
   -1.6832   -0.7550    1.4573 C   0  0  2  0  0  0  0  0  0  0  0  0
   -0.4894    0.1254    1.0275 C   0  0  0  0  0  0  0  0  0  0  0  0
   -0.6548    1.1677    0.4110 O   0  0  0  0  0  0  0  0  0  0  0  0
   -2.0181   -1.7895    0.3813 C   0  0  0  0  0  0  0  0  0  0  0  0
   -2.7983    1.0462    1.3627 H   0  0  0  0  0  0  0  0  0  0  0  0
   -1.4098   -1.2720    2.3830 H   0  0  0  0  0  0  0  0  0  0  0  0
   -2.2979   -1.2942   -0.5539 H   0  0  0  0  0  0  0  0  0  0  0  0
   -1.1564   -2.4360    0.1910 H   0  0  0  0  0  0  0  0  0  0  0  0
   -2.8544   -2.4152    0.7085 H   0  0  0  0  0  0  0  0  0  0  0  0
    0.8365   -0.2330    1.1151 N   0  0  0  0  0  0  0  0  0  0  0  0
    1.3770   -1.1457    2.1325 C   0  0  2  0  0  0  0  0  0  0  0  0
    1.1465   -0.6277    3.5656 C   0  0  0  0  0  0  0  0  0  0  0  0
    0.7915   -1.4113    4.4339 O   0  0  0  0  0  0  0  0  0  0  0  0
    2.8808   -1.3470    1.8871 C   0  0  0  0  0  0  0  0  0  0  0  0
    3.1567   -2.0796    0.5561 C   0  0  0  0  0  0  0  0  0  0  0  0
    4.6427   -2.3051    0.2772 C   0  0  0  0  0  0  0  0  0  0  0  0
    5.4807   -1.7454    0.9623 O   0  0  0  0  0  0  0  0  0  0  0  0
    4.9551   -3.1260   -0.7468 O   0  0  0  0  0  0  0  0  0  0  0  0
    1.4561    0.4673    0.7143 H   0  0  0  0  0  0  0  0  0  0  0  0
    0.8780   -2.1179    2.0519 H   0  0  0  0  0  0  0  0  0  0  0  0
    3.3875   -0.3752    1.8898 H   0  0  0  0  0  0  0  0  0  0  0  0
    3.3014   -1.9386    2.7091 H   0  0  0  0  0  0  0  0  0  0  0  0
    2.6633   -3.0554    0.5713 H   0  0  0  0  0  0  0  0  0  0  0  0
    2.7429   -1.5106   -0.2804 H   0  0  0  0  0  0  0  0  0  0  0  0
    5.9244   -3.1432   -0.7715 H   0  0  0  0  0  0  0  0  0  0  0  0
    1.3834    0.6937    3.8950 N   0  0  0  0  0  0  0  0  0  0  0  0
    0.8460    1.2482    5.1443 C   0  0  2  0  0  0  0  0  0  0  0  0
   -0.6986    1.3319    5.1280 C   0  0  0  0  0  0  0  0  0  0  0  0
   -1.2856    1.7412    4.1307 O   0  0  0  0  0  0  0  0  0  0  0  0
    1.4554    2.6364    5.3508 C   0  0  0  0  0  0  0  0  0  0  0  0
    1.4363    1.3272    3.1015 H   0  0  0  0  0  0  0  0  0  0  0  0
    1.1480    0.6117    5.9830 H   0  0  0  0  0  0  0  0  0  0  0  0
    1.1707    3.3079    4.5342 H   0  0  0  0  0  0  0  0  0  0  0  0
    1.1041    3.0686    6.2929 H   0  0  0  0  0  0  0  0  0  0  0  0
    2.5472    2.5710    5.3863 H   0  0  0  0  0  0  0  0  0  0  0  0
   -1.4206    0.9550    6.2451 N   0  0  0  0  0  0  0  0  0  0  0  0
   -2.8744    0.8486    6.2526 C   0  0  0  0  0  0  0  0  0  0  0  0
   -0.9052    0.4545    6.9635 H   0  0  0  0  0  0  0  0  0  0  0  0
   -3.3335    1.7474    5.8281 H   0  0  0  0  0  0  0  0  0  0  0  0
   -3.1944   -0.0218    5.6715 H   0  0  0  0  0  0  0  0  0  0  0  0
   -3.2387    0.7339    7.2781 H   0  0  0  0  0  0  0  0  0  0  0  0
  1  2  2  0  0  0  0
  1  3  1  0  0  0  0
  1  7  1  0  0  0  0
  3  4  1  0  0  0  0
  3  5  1  0  0  0  0
  3  6  1  0  0  0  0
  7  8  1  0  0  0  0
  7 12  1  0  0  0  0
  8  9  1  0  0  0  0
  8 11  1  0  0  0  0
  8 13  1  0  0  0  0
  9 10  2  0  0  0  0
  9 17  1  0  0  0  0
 11 14  1  0  0  0  0
 11 15  1  0  0  0  0
 11 16  1  0  0  0  0
 17 18  1  0  0  0  0
 17 26  1  0  0  0  0
 18 19  1  0  0  0  0
 18 21  1  0  0  0  0
 18 27  1  0  0  0  0
 19 20  2  0  0  0  0
 19 33  1  0  0  0  0
 21 22  1  0  0  0  0
 21 28  1  0  0  0  0
 21 29  1  0  0  0  0
 22 23  1  0  0  0  0
 22 30  1  0  0  0  0
 22 31  1  0  0  0  0
 23 24  2  0  0  0  0
 23 25  1  0  0  0  0
 25 32  1  0  0  0  0
 33 34  1  0  0  0  0
 33 38  1  0  0  0  0
 34 35  1  0  0  0  0
 34 37  1  0  0  0  0
 34 39  1  0  0  0  0
 35 36  2  0  0  0  0
 35 43  1  0  0  0  0
 37 40  1  0  0  0  0
 37 41  1  0  0  0  0
 37 42  1  0  0  0  0
 43 44  1  0  0  0  0
 43 45  1  0  0  0  0
 44 46  1  0  0  0  0
 44 47  1  0  0  0  0
 44 48  1  0  0  0  0
M  END
$$$$

  -OEChem-02062319073D

 48 47  0     1  0  0  0  0  0999 V2000
   -3.8852   -0.4038    2.6620 C   0  0  0  0  0  0  0  0  0  0  0  0
   -3.9216   -1.5246    3.1473 O   0  0  0  0  0  0  0  0  0  0  0  0
   -4.8941    0.6433    3.0927 C   0  0  0  0  0  0  0  0  0  0  0  0
   -5.4909    0.9612    2.2346 H   0  0  0  0  0  0  0  0  0  0  0  0
   -5.5615    0.2347    3.8561 H   0  0  0  0  0  0  0  0  0  0  0  0
   -4.3718    1.5099    3.5064 H   0  0  0  0  0  0  0  0  0  0  0  0
   -2.9396   -0.0803    1.7139 N   0  0  0  0  0  0  0  0  0  0  0  0
   -1.7416   -0.8846    1.4526 C   0  0  2  0  0  0  0  0  0  0  0  0
   -0.5641    0.0305    1.0435 C   0  0  0  0  0  0  0  0  0  0  0  0
   -0.7554    1.1235    0.5307 O   0  0  0  0  0  0  0  0  0  0  0  0
   -2.0558   -1.8881    0.3407 C   0  0  0  0  0  0  0  0  0  0  0  0
   -2.8790    0.9050    1.4599 H   0  0  0  0  0  0  0  0  0  0  0  0
   -1.4634   -1.4272    2.3613 H   0  0  0  0  0  0  0  0  0  0  0  0
   -2.3514   -1.3649   -0.5742 H   0  0  0  0  0  0  0  0  0  0  0  0
   -1.1802   -2.5065    0.1231 H   0  0  0  0  0  0  0  0  0  0  0  0
   -2.8755   -2.5461    0.6466 H   0  0  0  0  0  0  0  0  0  0  0  0
    0.7735   -0.2846    1.1396 N   0  0  0  0  0  0  0  0  0  0  0  0
    1.3488   -1.3927    1.9155 C   0  0  2  0  0  0  0  0  0  0  0  0
    1.0324   -1.2887    3.4201 C   0  0  0  0  0  0  0  0  0  0  0  0
    0.6896   -2.2886    4.0328 O   0  0  0  0  0  0  0  0  0  0  0  0
    2.8714   -1.4188    1.7066 C   0  0  0  0  0  0  0  0  0  0  0  0
    3.2516   -1.7467    0.2462 C   0  0  0  0  0  0  0  0  0  0  0  0
    4.7593   -1.7799   -0.0045 C   0  0  0  0  0  0  0  0  0  0  0  0
    5.5301   -1.4382    0.8753 O   0  0  0  0  0  0  0  0  0  0  0  0
    5.1662   -2.1873   -1.2246 O   0  0  0  0  0  0  0  0  0  0  0  0
    1.3857    0.4572    0.8094 H   0  0  0  0  0  0  0  0  0  0  0  0
    0.9303   -2.3408    1.5600 H   0  0  0  0  0  0  0  0  0  0  0  0
    3.2983   -0.4512    1.9942 H   0  0  0  0  0  0  0  0  0  0  0  0
    3.3093   -2.1789    2.3646 H   0  0  0  0  0  0  0  0  0  0  0  0
    2.8421   -2.7236   -0.0247 H   0  0  0  0  0  0  0  0  0  0  0  0
    2.8189   -1.0059   -0.4307 H   0  0  0  0  0  0  0  0  0  0  0  0
    6.1346   -2.1406   -1.1975 H   0  0  0  0  0  0  0  0  0  0  0  0
    1.1595   -0.0832    4.0834 N   0  0  0  0  0  0  0  0  0  0  0  0
    0.5772    0.1178    5.4167 C   0  0  2  0  0  0  0  0  0  0  0  0
   -0.9435    0.3847    5.3574 C   0  0  0  0  0  0  0  0  0  0  0  0
   -1.4205    1.0289    4.4280 O   0  0  0  0  0  0  0  0  0  0  0  0
    1.2989    1.2967    6.0721 C   0  0  0  0  0  0  0  0  0  0  0  0
    1.2033    0.7334    3.4783 H   0  0  0  0  0  0  0  0  0  0  0  0
    0.7458   -0.7723    6.0326 H   0  0  0  0  0  0  0  0  0  0  0  0
    1.1489    2.2117    5.4898 H   0  0  0  0  0  0  0  0  0  0  0  0
    0.9149    1.4626    7.0836 H   0  0  0  0  0  0  0  0  0  0  0  0
    2.3727    1.0953    6.1386 H   0  0  0  0  0  0  0  0  0  0  0  0
   -1.7606   -0.0600    6.3802 N   0  0  0  0  0  0  0  0  0  0  0  0
   -3.2136    0.0540    6.3524 C   0  0  0  0  0  0  0  0  0  0  0  0
   -1.3457   -0.7087    7.0428 H   0  0  0  0  0  0  0  0  0  0  0  0
   -3.5214    1.0510    6.0201 H   0  0  0  0  0  0  0  0  0  0  0  0
   -3.6405   -0.6926    5.6764 H   0  0  0  0  0  0  0  0  0  0  0  0
   -3.6232   -0.1105    7.3536 H   0  0  0  0  0  0  0  0  0  0  0  0
  1  2  2  0  0  0  0
  1  3  1  0  0  0  0
  1  7  1  0  0  0  0
  3  4  1  0  0  0  0
  3  5  1  0  0  0  0
  3  6  1  0  0  0  0
  7  8  1  0  0  0  0
  7 12  1  0  0  0  0
  8  9  1  0  0  0  0
  8 11  1  0  0  0  0
  8 13  1  0  0  0  0
  9 10  2  0  0  0  0
  9 17  1  0  0  0  0
 11 14  1  0  0  0  0
 11 15  1  0  0  0  0
 11 16  1  0  0  0  0
 17 18  1  0  0  0  0
 17 26  1  0  0  0  0
 18 19  1  0  0  0  0
 18 21  1  0  0  0  0
 18 27  1  0  0  0  0
 19 20  2  0  0  0  0
 19 33  1  0  0  0  0
 21 22  1  0  0  0  0
 21 28  1  0  0  0  0
 21 29  1  0  0  0  0
 22 23  1  0  0  0  0
 22 30  1  0  0  0  0
 22 31  1  0  0  0  0
 23 24  2  0  0  0  0
 23 25  1  0  0  0  0
 25 32  1  0  0  0  0
 33 34  1  0  0  0  0
 33 38  1  0  0  0  0
 34 35  1  0  0  0  0
 34 37  1  0  0  0  0
 34 39  1  0  0  0  0
 35 36  2  0  0  0  0
 35 43  1  0  0  0  0
 37 40  1  0  0  0  0
 37 41  1  0  0  0  0
 37 42  1  0  0  0  0
 43 44  1  0  0  0  0
 43 45  1  0  0  0  0
 44 46  1  0  0  0  0
 44 47  1  0  0  0  0
 44 48  1  0  0  0  0
M  END
$$$$

  -OEChem-02062319073D

 48 47  0     1  0  0  0  0  0999 V2000
   -3.9763   -0.7412    2.5719 C   0  0  0  0  0  0  0  0  0  0  0  0
   -3.9199   -1.8451    3.0929 O   0  0  0  0  0  0  0  0  0  0  0  0
   -5.0657    0.2332    2.9774 C   0  0  0  0  0  0  0  0  0  0  0  0
   -5.6162    0.5675    2.0947 H   0  0  0  0  0  0  0  0  0  0  0  0
   -5.7650   -0.2473    3.6667 H   0  0  0  0  0  0  0  0  0  0  0  0
   -4.6202    1.1000    3.4722 H   0  0  0  0  0  0  0  0  0  0  0  0
   -3.0617   -0.3692    1.6109 N   0  0  0  0  0  0  0  0  0  0  0  0
   -1.8069   -1.0864    1.3595 C   0  0  2  0  0  0  0  0  0  0  0  0
   -0.6783   -0.0840    1.0186 C   0  0  0  0  0  0  0  0  0  0  0  0
   -0.9363    1.0321    0.5907 O   0  0  0  0  0  0  0  0  0  0  0  0
   -2.0306   -2.0687    0.2076 C   0  0  0  0  0  0  0  0  0  0  0  0
   -3.0763    0.6112    1.3325 H   0  0  0  0  0  0  0  0  0  0  0  0
   -1.5231   -1.6419    2.2572 H   0  0  0  0  0  0  0  0  0  0  0  0
   -2.3176   -1.5326   -0.7027 H   0  0  0  0  0  0  0  0  0  0  0  0
   -1.1202   -2.6395    0.0051 H   0  0  0  0  0  0  0  0  0  0  0  0
   -2.8274   -2.7741    0.4638 H   0  0  0  0  0  0  0  0  0  0  0  0
    0.6770   -0.3062    1.1382 N   0  0  0  0  0  0  0  0  0  0  0  0
    1.3438   -1.5295    1.6105 C   0  0  2  0  0  0  0  0  0  0  0  0
    0.9571   -1.9135    3.0510 C   0  0  0  0  0  0  0  0  0  0  0  0
    0.6904   -3.0774    3.3084 O   0  0  0  0  0  0  0  0  0  0  0  0
    2.8656   -1.3314    1.5192 C   0  0  0  0  0  0  0  0  0  0  0  0
    3.3455   -1.2156    0.0560 C   0  0  0  0  0  0  0  0  0  0  0  0
    4.8586   -1.0516   -0.0819 C   0  0  0  0  0  0  0  0  0  0  0  0
    5.5241   -0.7298    0.8866 O   0  0  0  0  0  0  0  0  0  0  0  0
    5.3886   -1.2685   -1.3036 O   0  0  0  0  0  0  0  0  0  0  0  0
    1.2439    0.4916    0.8614 H   0  0  0  0  0  0  0  0  0  0  0  0
    1.0609   -2.3689    0.9660 H   0  0  0  0  0  0  0  0  0  0  0  0
    3.1536   -0.4343    2.0792 H   0  0  0  0  0  0  0  0  0  0  0  0
    3.3672   -2.1862    1.9887 H   0  0  0  0  0  0  0  0  0  0  0  0
    3.0520   -2.1150   -0.4923 H   0  0  0  0  0  0  0  0  0  0  0  0
    2.8726   -0.3595   -0.4312 H   0  0  0  0  0  0  0  0  0  0  0  0
    6.3406   -1.1165   -1.1984 H   0  0  0  0  0  0  0  0  0  0  0  0
    0.9143   -0.9481    4.0374 N   0  0  0  0  0  0  0  0  0  0  0  0
    0.2317   -1.1562    5.3223 C   0  0  2  0  0  0  0  0  0  0  0  0
   -1.1656   -0.4987    5.3515 C   0  0  0  0  0  0  0  0  0  0  0  0
   -1.4409    0.4003    4.5623 O   0  0  0  0  0  0  0  0  0  0  0  0
    1.1249   -0.5663    6.4159 C   0  0  0  0  0  0  0  0  0  0  0  0
    0.9221    0.0093    3.6901 H   0  0  0  0  0  0  0  0  0  0  0  0
    0.1001   -2.2247    5.5228 H   0  0  0  0  0  0  0  0  0  0  0  0
    1.2595    0.5095    6.2633 H   0  0  0  0  0  0  0  0  0  0  0  0
    0.6782   -0.7242    7.4024 H   0  0  0  0  0  0  0  0  0  0  0  0
    2.1080   -1.0472    6.4010 H   0  0  0  0  0  0  0  0  0  0  0  0
   -2.0858   -0.8804    6.3102 N   0  0  0  0  0  0  0  0  0  0  0  0
   -3.4427   -0.3529    6.3801 C   0  0  0  0  0  0  0  0  0  0  0  0
   -1.8615   -1.7052    6.8591 H   0  0  0  0  0  0  0  0  0  0  0  0
   -3.4450    0.7351    6.2543 H   0  0  0  0  0  0  0  0  0  0  0  0
   -4.0669   -0.8011    5.6017 H   0  0  0  0  0  0  0  0  0  0  0  0
   -3.8851   -0.5829    7.3540 H   0  0  0  0  0  0  0  0  0  0  0  0
  1  2  2  0  0  0  0
  1  3  1  0  0  0  0
  1  7  1  0  0  0  0
  3  4  1  0  0  0  0
  3  5  1  0  0  0  0
  3  6  1  0  0  0  0
  7  8  1  0  0  0  0
  7 12  1  0  0  0  0
  8  9  1  0  0  0  0
  8 11  1  0  0  0  0
  8 13  1  0  0  0  0
  9 10  2  0  0  0  0
  9 17  1  0  0  0  0
 11 14  1  0  0  0  0
 11 15  1  0  0  0  0
 11 16  1  0  0  0  0
 17 18  1  0  0  0  0
 17 26  1  0  0  0  0
 18 19  1  0  0  0  0
 18 21  1  0  0  0  0
 18 27  1  0  0  0  0
 19 20  2  0  0  0  0
 19 33  1  0  0  0  0
 21 22  1  0  0  0  0
 21 28  1  0  0  0  0
 21 29  1  0  0  0  0
 22 23  1  0  0  0  0
 22 30  1  0  0  0  0
 22 31  1  0  0  0  0
 23 24  2  0  0  0  0
 23 25  1  0  0  0  0
 25 32  1  0  0  0  0
 33 34  1  0  0  0  0
 33 38  1  0  0  0  0
 34 35  1  0  0  0  0
 34 37  1  0  0  0  0
 34 39  1  0  0  0  0
 35 36  2  0  0  0  0
 35 43  1  0  0  0  0
 37 40  1  0  0  0  0
 37 41  1  0  0  0  0
 37 42  1  0  0  0  0
 43 44  1  0  0  0  0
 43 45  1  0  0  0  0
 44 46  1  0  0  0  0
 44 47  1  0  0  0  0
 44 48  1  0  0  0  0
M  END
$$$$

  -OEChem-02062319073D

 48 47  0     1  0  0  0  0  0999 V2000
   -3.9621   -1.2258    2.5607 C   0  0  0  0  0  0  0  0  0  0  0  0
   -3.6194   -2.1084    3.3358 O   0  0  0  0  0  0  0  0  0  0  0  0
   -5.2007   -0.4026    2.8599 C   0  0  0  0  0  0  0  0  0  0  0  0
   -5.9382   -0.5360    2.0645 H   0  0  0  0  0  0  0  0  0  0  0  0
   -5.6450   -0.7163    3.8087 H   0  0  0  0  0  0  0  0  0  0  0  0
   -4.9366    0.6558    2.9290 H   0  0  0  0  0  0  0  0  0  0  0  0
   -3.2173   -0.9423    1.4341 N   0  0  0  0  0  0  0  0  0  0  0  0
   -1.8699   -1.4726    1.1773 C   0  0  2  0  0  0  0  0  0  0  0  0
   -0.8515   -0.3271    0.9393 C   0  0  0  0  0  0  0  0  0  0  0  0
   -1.2433    0.7842    0.6138 O   0  0  0  0  0  0  0  0  0  0  0  0
   -1.9515   -2.3914   -0.0431 C   0  0  0  0  0  0  0  0  0  0  0  0
   -3.4610   -0.0838    0.9422 H   0  0  0  0  0  0  0  0  0  0  0  0
   -1.5427   -2.0613    2.0340 H   0  0  0  0  0  0  0  0  0  0  0  0
   -2.2637   -1.8284   -0.9284 H   0  0  0  0  0  0  0  0  0  0  0  0
   -0.9796   -2.8507   -0.2450 H   0  0  0  0  0  0  0  0  0  0  0  0
   -2.6761   -3.1919    0.1364 H   0  0  0  0  0  0  0  0  0  0  0  0
    0.5146   -0.3747    1.1403 N   0  0  0  0  0  0  0  0  0  0  0  0
    1.3433   -1.5791    1.3271 C   0  0  2  0  0  0  0  0  0  0  0  0
    0.9278   -2.4075    2.5570 C   0  0  0  0  0  0  0  0  0  0  0  0
    0.6222   -3.5809    2.4072 O   0  0  0  0  0  0  0  0  0  0  0  0
    2.8150   -1.1574    1.4677 C   0  0  0  0  0  0  0  0  0  0  0  0
    3.3772   -0.5590    0.1593 C   0  0  0  0  0  0  0  0  0  0  0  0
    4.8491   -0.1553    0.2515 C   0  0  0  0  0  0  0  0  0  0  0  0
    5.4333   -0.2263    1.3180 O   0  0  0  0  0  0  0  0  0  0  0  0
    5.4365    0.2747   -0.8842 O   0  0  0  0  0  0  0  0  0  0  0  0
    0.9764    0.5102    0.9451 H   0  0  0  0  0  0  0  0  0  0  0  0
    1.2474   -2.2270    0.4489 H   0  0  0  0  0  0  0  0  0  0  0  0
    2.9138   -0.4300    2.2818 H   0  0  0  0  0  0  0  0  0  0  0  0
    3.4129   -2.0358    1.7386 H   0  0  0  0  0  0  0  0  0  0  0  0
    3.2787   -1.2911   -0.6468 H   0  0  0  0  0  0  0  0  0  0  0  0
    2.8070    0.3285   -0.1252 H   0  0  0  0  0  0  0  0  0  0  0  0
    6.3501    0.4819   -0.6328 H   0  0  0  0  0  0  0  0  0  0  0  0
    0.6670   -1.7706    3.7535 N   0  0  0  0  0  0  0  0  0  0  0  0
   -0.2668   -2.2833    4.7630 C   0  0  2  0  0  0  0  0  0  0  0  0
   -1.0155   -1.1152    5.4382 C   0  0  0  0  0  0  0  0  0  0  0  0
   -0.4356   -0.0493    5.6204 O   0  0  0  0  0  0  0  0  0  0  0  0
    0.5165   -3.0946    5.7974 C   0  0  0  0  0  0  0  0  0  0  0  0
    0.8392   -0.7653    3.7818 H   0  0  0  0  0  0  0  0  0  0  0  0
   -1.0145   -2.9310    4.2920 H   0  0  0  0  0  0  0  0  0  0  0  0
    1.2699   -2.4688    6.2861 H   0  0  0  0  0  0  0  0  0  0  0  0
   -0.1587   -3.4898    6.5626 H   0  0  0  0  0  0  0  0  0  0  0  0
    1.0221   -3.9362    5.3140 H   0  0  0  0  0  0  0  0  0  0  0  0
   -2.3474   -1.2336    5.7838 N   0  0  0  0  0  0  0  0  0  0  0  0
   -3.1227   -0.1122    6.2982 C   0  0  0  0  0  0  0  0  0  0  0  0
   -2.8567   -1.9795    5.3042 H   0  0  0  0  0  0  0  0  0  0  0  0
   -2.6799    0.2669    7.2252 H   0  0  0  0  0  0  0  0  0  0  0  0
   -3.1561    0.7001    5.5648 H   0  0  0  0  0  0  0  0  0  0  0  0
   -4.1476   -0.4303    6.5118 H   0  0  0  0  0  0  0  0  0  0  0  0
  1  2  2  0  0  0  0
  1  3  1  0  0  0  0
  1  7  1  0  0  0  0
  3  4  1  0  0  0  0
  3  5  1  0  0  0  0
  3  6  1  0  0  0  0
  7  8  1  0  0  0  0
  7 12  1  0  0  0  0
  8  9  1  0  0  0  0
  8 11  1  0  0  0  0
  8 13  1  0  0  0  0
  9 10  2  0  0  0  0
  9 17  1  0  0  0  0
 11 14  1  0  0  0  0
 11 15  1  0  0  0  0
 11 16  1  0  0  0  0
 17 18  1  0  0  0  0
 17 26  1  0  0  0  0
 18 19  1  0  0  0  0
 18 21  1  0  0  0  0
 18 27  1  0  0  0  0
 19 20  2  0  0  0  0
 19 33  1  0  0  0  0
 21 22  1  0  0  0  0
 21 28  1  0  0  0  0
 21 29  1  0  0  0  0
 22 23  1  0  0  0  0
 22 30  1  0  0  0  0
 22 31  1  0  0  0  0
 23 24  2  0  0  0  0
 23 25  1  0  0  0  0
 25 32  1  0  0  0  0
 33 34  1  0  0  0  0
 33 38  1  0  0  0  0
 34 35  1  0  0  0  0
 34 37  1  0  0  0  0
 34 39  1  0  0  0  0
 35 36  2  0  0  0  0
 35 43  1  0  0  0  0
 37 40  1  0  0  0  0
 37 41  1  0  0  0  0
 37 42  1  0  0  0  0
 43 44  1  0  0  0  0
 43 45  1  0  0  0  0
 44 46  1  0  0  0  0
 44 47  1  0  0  0  0
 44 48  1  0  0  0  0
M  END
$$$$

  -OEChem-02062319073D

 48 47  0     1  0  0  0  0  0999 V2000
   -4.0861   -1.3230    2.1934 C   0  0  0  0  0  0  0  0  0  0  0  0
   -3.8637   -2.4210    2.6862 O   0  0  0  0  0  0  0  0  0  0  0  0
   -5.3086   -0.5369    2.6269 C   0  0  0  0  0  0  0  0  0  0  0  0
   -5.9368   -0.3143    1.7610 H   0  0  0  0  0  0  0  0  0  0  0  0
   -5.8939   -1.1154    3.3469 H   0  0  0  0  0  0  0  0  0  0  0  0
   -5.0004    0.4010    3.0955 H   0  0  0  0  0  0  0  0  0  0  0  0
   -3.2086   -0.7743    1.2810 N   0  0  0  0  0  0  0  0  0  0  0  0
   -1.8865   -1.3356    0.9739 C   0  0  2  0  0  0  0  0  0  0  0  0
   -0.8174   -0.2292    0.7890 C   0  0  0  0  0  0  0  0  0  0  0  0
   -1.1672    0.9171    0.5481 O   0  0  0  0  0  0  0  0  0  0  0  0
   -2.0054   -2.1844   -0.2943 C   0  0  0  0  0  0  0  0  0  0  0  0
   -3.3655    0.1963    1.0109 H   0  0  0  0  0  0  0  0  0  0  0  0
   -1.5828   -1.9751    1.7990 H   0  0  0  0  0  0  0  0  0  0  0  0
   -2.3135   -1.5658   -1.1432 H   0  0  0  0  0  0  0  0  0  0  0  0
   -1.0474   -2.6550   -0.5344 H   0  0  0  0  0  0  0  0  0  0  0  0
   -2.7476   -2.9762   -0.1505 H   0  0  0  0  0  0  0  0  0  0  0  0
    0.5305   -0.3159    1.0834 N   0  0  0  0  0  0  0  0  0  0  0  0
    1.3556   -1.5387    1.0423 C   0  0  2  0  0  0  0  0  0  0  0  0
    0.8704   -2.6440    2.0008 C   0  0  0  0  0  0  0  0  0  0  0  0
    0.5891   -3.7456    1.5544 O   0  0  0  0  0  0  0  0  0  0  0  0
    2.8098   -1.1724    1.3824 C   0  0  0  0  0  0  0  0  0  0  0  0
    3.4615   -0.2987    0.2882 C   0  0  0  0  0  0  0  0  0  0  0  0
    4.9188    0.0634    0.5770 C   0  0  0  0  0  0  0  0  0  0  0  0
    5.4343   -0.2776    1.6267 O   0  0  0  0  0  0  0  0  0  0  0  0
    5.5717    0.7659   -0.3718 O   0  0  0  0  0  0  0  0  0  0  0  0
    1.0021    0.5781    0.9712 H   0  0  0  0  0  0  0  0  0  0  0  0
    1.3271   -1.9569    0.0296 H   0  0  0  0  0  0  0  0  0  0  0  0
    2.8429   -0.6490    2.3450 H   0  0  0  0  0  0  0  0  0  0  0  0
    3.3943   -2.0941    1.4900 H   0  0  0  0  0  0  0  0  0  0  0  0
    3.4299   -0.8295   -0.6673 H   0  0  0  0  0  0  0  0  0  0  0  0
    2.9055    0.6342    0.1701 H   0  0  0  0  0  0  0  0  0  0  0  0
    6.4647    0.8998   -0.0173 H   0  0  0  0  0  0  0  0  0  0  0  0
    0.5193   -2.3118    3.2948 N   0  0  0  0  0  0  0  0  0  0  0  0
   -0.4234   -3.0742    4.1228 C   0  0  2  0  0  0  0  0  0  0  0  0
   -1.2324   -2.1182    5.0248 C   0  0  0  0  0  0  0  0  0  0  0  0
   -0.6935   -1.1098    5.4702 O   0  0  0  0  0  0  0  0  0  0  0  0
    0.3606   -4.0778    4.9705 C   0  0  0  0  0  0  0  0  0  0  0  0
    0.6785   -1.3441    3.5774 H   0  0  0  0  0  0  0  0  0  0  0  0
   -1.1315   -3.6176    3.4874 H   0  0  0  0  0  0  0  0  0  0  0  0
    1.0704   -3.5576    5.6217 H   0  0  0  0  0  0  0  0  0  0  0  0
   -0.3214   -4.6628    5.5949 H   0  0  0  0  0  0  0  0  0  0  0  0
    0.9167   -4.7655    4.3259 H   0  0  0  0  0  0  0  0  0  0  0  0
   -2.5677   -2.3496    5.2924 N   0  0  0  0  0  0  0  0  0  0  0  0
   -3.3889   -1.4003    6.0329 C   0  0  0  0  0  0  0  0  0  0  0  0
   -3.0453   -2.9680    4.6337 H   0  0  0  0  0  0  0  0  0  0  0  0
   -2.9666   -1.2213    7.0273 H   0  0  0  0  0  0  0  0  0  0  0  0
   -3.4490   -0.4469    5.4979 H   0  0  0  0  0  0  0  0  0  0  0  0
   -4.4019   -1.7953    6.1560 H   0  0  0  0  0  0  0  0  0  0  0  0
  1  2  2  0  0  0  0
  1  3  1  0  0  0  0
  1  7  1  0  0  0  0
  3  4  1  0  0  0  0
  3  5  1  0  0  0  0
  3  6  1  0  0  0  0
  7  8  1  0  0  0  0
  7 12  1  0  0  0  0
  8  9  1  0  0  0  0
  8 11  1  0  0  0  0
  8 13  1  0  0  0  0
  9 10  2  0  0  0  0
  9 17  1  0  0  0  0
 11 14  1  0  0  0  0
 11 15  1  0  0  0  0
 11 16  1  0  0  0  0
 17 18  1  0  0  0  0
 17 26  1  0  0  0  0
 18 19  1  0  0  0  0
 18 21  1  0  0  0  0
 18 27  1  0  0  0  0
 19 20  2  0  0  0  0
 19 33  1  0  0  0  0
 21 22  1  0  0  0  0
 21 28  1  0  0  0  0
 21 29  1  0  0  0  0
 22 23  1  0  0  0  0
 22 30  1  0  0  0  0
 22 31  1  0  0  0  0
 23 24  2  0  0  0  0
 23 25  1  0  0  0  0
 25 32  1  0  0  0  0
 33 34  1  0  0  0  0
 33 38  1  0  0  0  0
 34 35  1  0  0  0  0
 34 37  1  0  0  0  0
 34 39  1  0  0  0  0
 35 36  2  0  0  0  0
 35 43  1  0  0  0  0
 37 40  1  0  0  0  0
 37 41  1  0  0  0  0
 37 42  1  0  0  0  0
 43 44  1  0  0  0  0
 43 45  1  0  0  0  0
 44 46  1  0  0  0  0
 44 47  1  0  0  0  0
 44 48  1  0  0  0  0
M  END
$$$$

  -OEChem-02062319073D

 48 47  0     1  0  0  0  0  0999 V2000
   -4.1613   -1.1385    1.8695 C   0  0  0  0  0  0  0  0  0  0  0  0
   -4.0571   -2.3276    2.1367 O   0  0  0  0  0  0  0  0  0  0  0  0
   -5.3686   -0.3558    2.3500 C   0  0  0  0  0  0  0  0  0  0  0  0
   -5.8941    0.0802    1.4970 H   0  0  0  0  0  0  0  0  0  0  0  0
   -6.0558   -1.0142    2.8885 H   0  0  0  0  0  0  0  0  0  0  0  0
   -5.0504    0.4458    3.0211 H   0  0  0  0  0  0  0  0  0  0  0  0
   -3.1786   -0.5012    1.1409 N   0  0  0  0  0  0  0  0  0  0  0  0
   -1.8935   -1.1144    0.7861 C   0  0  2  0  0  0  0  0  0  0  0  0
   -0.7585   -0.0683    0.6651 C   0  0  0  0  0  0  0  0  0  0  0  0
   -1.0433    1.1083    0.4944 O   0  0  0  0  0  0  0  0  0  0  0  0
   -2.0659   -1.8623   -0.5400 C   0  0  0  0  0  0  0  0  0  0  0  0
   -3.2562    0.5085    1.0238 H   0  0  0  0  0  0  0  0  0  0  0  0
   -1.6293   -1.8212    1.5678 H   0  0  0  0  0  0  0  0  0  0  0  0
   -2.3795   -1.1729   -1.3303 H   0  0  0  0  0  0  0  0  0  0  0  0
   -1.1280   -2.3348   -0.8447 H   0  0  0  0  0  0  0  0  0  0  0  0
   -2.8245   -2.6446   -0.4382 H   0  0  0  0  0  0  0  0  0  0  0  0
    0.5599   -0.2180    1.0522 N   0  0  0  0  0  0  0  0  0  0  0  0
    1.3914   -1.4083    0.7841 C   0  0  2  0  0  0  0  0  0  0  0  0
    0.8545   -2.7184    1.3959 C   0  0  0  0  0  0  0  0  0  0  0  0
    0.6710   -3.6938    0.6838 O   0  0  0  0  0  0  0  0  0  0  0  0
    2.8137   -1.1524    1.3096 C   0  0  0  0  0  0  0  0  0  0  0  0
    3.5354   -0.0368    0.5219 C   0  0  0  0  0  0  0  0  0  0  0  0
    4.9851    0.1821    0.9556 C   0  0  0  0  0  0  0  0  0  0  0  0
    5.4181   -0.3877    1.9414 O   0  0  0  0  0  0  0  0  0  0  0  0
    5.7266    1.0207    0.2028 O   0  0  0  0  0  0  0  0  0  0  0  0
    1.0365    0.6802    1.0491 H   0  0  0  0  0  0  0  0  0  0  0  0
    1.4421   -1.5660   -0.2993 H   0  0  0  0  0  0  0  0  0  0  0  0
    2.7737   -0.8899    2.3733 H   0  0  0  0  0  0  0  0  0  0  0  0
    3.3960   -2.0776    1.2220 H   0  0  0  0  0  0  0  0  0  0  0  0
    3.5387   -0.2865   -0.5426 H   0  0  0  0  0  0  0  0  0  0  0  0
    3.0060    0.9114    0.6412 H   0  0  0  0  0  0  0  0  0  0  0  0
    6.6002    1.0336    0.6241 H   0  0  0  0  0  0  0  0  0  0  0  0
    0.4024   -2.7206    2.7007 N   0  0  0  0  0  0  0  0  0  0  0  0
   -0.5463   -3.6952    3.2543 C   0  0  2  0  0  0  0  0  0  0  0  0
   -1.4547   -3.0211    4.3067 C   0  0  0  0  0  0  0  0  0  0  0  0
   -1.1094   -1.9553    4.8100 O   0  0  0  0  0  0  0  0  0  0  0  0
    0.2398   -4.8512    3.8769 C   0  0  0  0  0  0  0  0  0  0  0  0
    0.4658   -1.8342    3.2042 H   0  0  0  0  0  0  0  0  0  0  0  0
   -1.1919   -4.0833    2.4588 H   0  0  0  0  0  0  0  0  0  0  0  0
    0.8884   -4.4846    4.6791 H   0  0  0  0  0  0  0  0  0  0  0  0
   -0.4434   -5.5976    4.2935 H   0  0  0  0  0  0  0  0  0  0  0  0
    0.8622   -5.3374    3.1190 H   0  0  0  0  0  0  0  0  0  0  0  0
   -2.6654   -3.5831    4.6634 N   0  0  0  0  0  0  0  0  0  0  0  0
   -3.6175   -2.8964    5.5274 C   0  0  0  0  0  0  0  0  0  0  0  0
   -3.0274   -4.2964    4.0356 H   0  0  0  0  0  0  0  0  0  0  0  0
   -3.1706   -2.6944    6.5064 H   0  0  0  0  0  0  0  0  0  0  0  0
   -3.9272   -1.9471    5.0781 H   0  0  0  0  0  0  0  0  0  0  0  0
   -4.5069   -3.5158    5.6767 H   0  0  0  0  0  0  0  0  0  0  0  0
  1  2  2  0  0  0  0
  1  3  1  0  0  0  0
  1  7  1  0  0  0  0
  3  4  1  0  0  0  0
  3  5  1  0  0  0  0
  3  6  1  0  0  0  0
  7  8  1  0  0  0  0
  7 12  1  0  0  0  0
  8  9  1  0  0  0  0
  8 11  1  0  0  0  0
  8 13  1  0  0  0  0
  9 10  2  0  0  0  0
  9 17  1  0  0  0  0
 11 14  1  0  0  0  0
 11 15  1  0  0  0  0
 11 16  1  0  0  0  0
 17 18  1  0  0  0  0
 17 26  1  0  0  0  0
 18 19  1  0  0  0  0
 18 21  1  0  0  0  0
 18 27  1  0  0  0  0
 19 20  2  0  0  0  0
 19 33  1  0  0  0  0
 21 22  1  0  0  0  0
 21 28  1  0  0  0  0
 21 29  1  0  0  0  0
 22 23  1  0  0  0  0
 22 30  1  0  0  0  0
 22 31  1  0  0  0  0
 23 24  2  0  0  0  0
 23 25  1  0  0  0  0
 25 32  1  0  0  0  0
 33 34  1  0  0  0  0
 33 38  1  0  0  0  0
 34 35  1  0  0  0  0
 34 37  1  0  0  0  0
 34 39  1  0  0  0  0
 35 36  2  0  0  0  0
 35 43  1  0  0  0  0
 37 40  1  0  0  0  0
 37 41  1  0  0  0  0
 37 42  1  0  0  0  0
 43 44  1  0  0  0  0
 43 45  1  0  0  0  0
 44 46  1  0  0  0  0
 44 47  1  0  0  0  0
 44 48  1  0  0  0  0
M  END
$$$$

  -OEChem-02062319073D

 48 47  0     1  0  0  0  0  0999 V2000
   -4.2055   -0.8976    1.7434 C   0  0  0  0  0  0  0  0  0  0  0  0
   -4.2015   -2.1189    1.7995 O   0  0  0  0  0  0  0  0  0  0  0  0
   -5.3781   -0.1164    2.3045 C   0  0  0  0  0  0  0  0  0  0  0  0
   -5.8510    0.4681    1.5115 H   0  0  0  0  0  0  0  0  0  0  0  0
   -6.1188   -0.8003    2.7280 H   0  0  0  0  0  0  0  0  0  0  0  0
   -5.0335    0.5596    3.0908 H   0  0  0  0  0  0  0  0  0  0  0  0
   -3.1485   -0.2254    1.1657 N   0  0  0  0  0  0  0  0  0  0  0  0
   -1.9158   -0.8719    0.7014 C   0  0  2  0  0  0  0  0  0  0  0  0
   -0.7188    0.1081    0.6470 C   0  0  0  0  0  0  0  0  0  0  0  0
   -0.9391    1.3095    0.5906 O   0  0  0  0  0  0  0  0  0  0  0  0
   -2.1789   -1.4562   -0.6926 C   0  0  0  0  0  0  0  0  0  0  0  0
   -3.1572    0.7932    1.1948 H   0  0  0  0  0  0  0  0  0  0  0  0
   -1.6726   -1.6697    1.3990 H   0  0  0  0  0  0  0  0  0  0  0  0
   -1.2771   -1.9183   -1.1015 H   0  0  0  0  0  0  0  0  0  0  0  0
   -2.5034   -0.6687   -1.3801 H   0  0  0  0  0  0  0  0  0  0  0  0
   -2.9608   -2.2202   -0.6454 H   0  0  0  0  0  0  0  0  0  0  0  0
    0.5706   -0.1342    1.0808 N   0  0  0  0  0  0  0  0  0  0  0  0
    1.4191   -1.2178    0.5443 C   0  0  2  0  0  0  0  0  0  0  0  0
    0.8573   -2.6421    0.7316 C   0  0  0  0  0  0  0  0  0  0  0  0
    0.7402   -3.3855   -0.2304 O   0  0  0  0  0  0  0  0  0  0  0  0
    2.8032   -1.1406    1.2122 C   0  0  0  0  0  0  0  0  0  0  0  0
    3.5724    0.1416    0.8253 C   0  0  0  0  0  0  0  0  0  0  0  0
    4.9869    0.2073    1.4023 C   0  0  0  0  0  0  0  0  0  0  0  0
    5.3528   -0.6230    2.2151 O   0  0  0  0  0  0  0  0  0  0  0  0
    5.7745    1.2135    0.9697 O   0  0  0  0  0  0  0  0  0  0  0  0
    1.0444    0.7527    1.2329 H   0  0  0  0  0  0  0  0  0  0  0  0
    1.5406   -1.0680   -0.5349 H   0  0  0  0  0  0  0  0  0  0  0  0
    2.6904   -1.1900    2.3016 H   0  0  0  0  0  0  0  0  0  0  0  0
    3.3952   -2.0110    0.9040 H   0  0  0  0  0  0  0  0  0  0  0  0
    3.6513    0.2030   -0.2635 H   0  0  0  0  0  0  0  0  0  0  0  0
    3.0317    1.0250    1.1727 H   0  0  0  0  0  0  0  0  0  0  0  0
    6.6158    1.0949    1.4375 H   0  0  0  0  0  0  0  0  0  0  0  0
    0.3282   -3.0070    1.9528 N   0  0  0  0  0  0  0  0  0  0  0  0
   -0.6082   -4.1157    2.1718 C   0  0  2  0  0  0  0  0  0  0  0  0
   -1.5258   -3.8073    3.3764 C   0  0  0  0  0  0  0  0  0  0  0  0
   -1.2133   -2.9148    4.1602 O   0  0  0  0  0  0  0  0  0  0  0  0
    0.1885   -5.4011    2.4101 C   0  0  0  0  0  0  0  0  0  0  0  0
    0.3630   -2.3048    2.6939 H   0  0  0  0  0  0  0  0  0  0  0  0
   -1.2462   -4.2425    1.2905 H   0  0  0  0  0  0  0  0  0  0  0  0
    0.8324   -5.2949    3.2890 H   0  0  0  0  0  0  0  0  0  0  0  0
   -0.4876   -6.2459    2.5726 H   0  0  0  0  0  0  0  0  0  0  0  0
    0.8171   -5.6252    1.5424 H   0  0  0  0  0  0  0  0  0  0  0  0
   -2.7049   -4.5023    3.5657 N   0  0  0  0  0  0  0  0  0  0  0  0
   -3.6768   -4.1275    4.5852 C   0  0  0  0  0  0  0  0  0  0  0  0
   -3.0252   -5.0736    2.7893 H   0  0  0  0  0  0  0  0  0  0  0  0
   -3.2306   -4.1930    5.5830 H   0  0  0  0  0  0  0  0  0  0  0  0
   -4.0280   -3.1032    4.4224 H   0  0  0  0  0  0  0  0  0  0  0  0
   -4.5399   -4.7988    4.5491 H   0  0  0  0  0  0  0  0  0  0  0  0
  1  2  2  0  0  0  0
  1  3  1  0  0  0  0
  1  7  1  0  0  0  0
  3  4  1  0  0  0  0
  3  5  1  0  0  0  0
  3  6  1  0  0  0  0
  7  8  1  0  0  0  0
  7 12  1  0  0  0  0
  8  9  1  0  0  0  0
  8 11  1  0  0  0  0
  8 13  1  0  0  0  0
  9 10  2  0  0  0  0
  9 17  1  0  0  0  0
 11 14  1  0  0  0  0
 11 15  1  0  0  0  0
 11 16  1  0  0  0  0
 17 18  1  0  0  0  0
 17 26  1  0  0  0  0
 18 19  1  0  0  0  0
 18 21  1  0  0  0  0
 18 27  1  0  0  0  0
 19 20  2  0  0  0  0
 19 33  1  0  0  0  0
 21 22  1  0  0  0  0
 21 28  1  0  0  0  0
 21 29  1  0  0  0  0
 22 23  1  0  0  0  0
 22 30  1  0  0  0  0
 22 31  1  0  0  0  0
 23 24  2  0  0  0  0
 23 25  1  0  0  0  0
 25 32  1  0  0  0  0
 33 34  1  0  0  0  0
 33 38  1  0  0  0  0
 34 35  1  0  0  0  0
 34 37  1  0  0  0  0
 34 39  1  0  0  0  0
 35 36  2  0  0  0  0
 35 43  1  0  0  0  0
 37 40  1  0  0  0  0
 37 41  1  0  0  0  0
 37 42  1  0  0  0  0
 43 44  1  0  0  0  0
 43 45  1  0  0  0  0
 44 46  1  0  0  0  0
 44 47  1  0  0  0  0
 44 48  1  0  0  0  0
M  END
$$$$

  -OEChem-02062319073D

 48 47  0     1  0  0  0  0  0999 V2000
   -4.2200   -0.7066    1.6505 C   0  0  0  0  0  0  0  0  0  0  0  0
   -4.2863   -1.9255    1.5952 O   0  0  0  0  0  0  0  0  0  0  0  0
   -5.3561    0.0874    2.2666 C   0  0  0  0  0  0  0  0  0  0  0  0
   -5.7736    0.7764    1.5285 H   0  0  0  0  0  0  0  0  0  0  0  0
   -6.1469   -0.5875    2.6055 H   0  0  0  0  0  0  0  0  0  0  0  0
   -4.9900    0.6588    3.1231 H   0  0  0  0  0  0  0  0  0  0  0  0
   -3.1191   -0.0478    1.1438 N   0  0  0  0  0  0  0  0  0  0  0  0
   -1.9282   -0.7136    0.6017 C   0  0  2  0  0  0  0  0  0  0  0  0
   -0.6948    0.2219    0.5869 C   0  0  0  0  0  0  0  0  0  0  0  0
   -0.8727    1.4316    0.5899 O   0  0  0  0  0  0  0  0  0  0  0  0
   -2.2533   -1.1780   -0.8246 C   0  0  0  0  0  0  0  0  0  0  0  0
   -3.0852    0.9668    1.2329 H   0  0  0  0  0  0  0  0  0  0  0  0
   -1.6992   -1.5727    1.2327 H   0  0  0  0  0  0  0  0  0  0  0  0
   -2.5535   -0.3259   -1.4428 H   0  0  0  0  0  0  0  0  0  0  0  0
   -1.3869   -1.6515   -1.2919 H   0  0  0  0  0  0  0  0  0  0  0  0
   -3.0718   -1.9040   -0.8140 H   0  0  0  0  0  0  0  0  0  0  0  0
    0.5574   -0.0832    1.0808 N   0  0  0  0  0  0  0  0  0  0  0  0
    1.4697   -0.9945    0.3620 C   0  0  2  0  0  0  0  0  0  0  0  0
    0.9247   -2.4219    0.1545 C   0  0  0  0  0  0  0  0  0  0  0  0
    0.8934   -2.9116   -0.9641 O   0  0  0  0  0  0  0  0  0  0  0  0
    2.7960   -1.0800    1.1380 C   0  0  0  0  0  0  0  0  0  0  0  0
    3.5573    0.2638    1.1573 C   0  0  0  0  0  0  0  0  0  0  0  0
    4.9133    0.1928    1.8607 C   0  0  0  0  0  0  0  0  0  0  0  0
    5.2488   -0.8269    2.4368 O   0  0  0  0  0  0  0  0  0  0  0  0
    5.6847    1.2983    1.8085 O   0  0  0  0  0  0  0  0  0  0  0  0
    0.9960    0.7809    1.3889 H   0  0  0  0  0  0  0  0  0  0  0  0
    1.6682   -0.5843   -0.6350 H   0  0  0  0  0  0  0  0  0  0  0  0
    2.6005   -1.4078    2.1657 H   0  0  0  0  0  0  0  0  0  0  0  0
    3.4339   -1.8380    0.6680 H   0  0  0  0  0  0  0  0  0  0  0  0
    3.7283    0.6001    0.1311 H   0  0  0  0  0  0  0  0  0  0  0  0
    2.9625    1.0261    1.6657 H   0  0  0  0  0  0  0  0  0  0  0  0
    6.4879    1.0699    2.3022 H   0  0  0  0  0  0  0  0  0  0  0  0
    0.3166   -3.0712    1.2083 N   0  0  0  0  0  0  0  0  0  0  0  0
   -0.5692   -4.2355    1.1027 C   0  0  2  0  0  0  0  0  0  0  0  0
   -1.5225   -4.2843    2.3173 C   0  0  0  0  0  0  0  0  0  0  0  0
   -1.2547   -3.6267    3.3193 O   0  0  0  0  0  0  0  0  0  0  0  0
    0.2786   -5.5094    1.0350 C   0  0  0  0  0  0  0  0  0  0  0  0
    0.2984   -2.5787    2.1032 H   0  0  0  0  0  0  0  0  0  0  0  0
   -1.1799   -4.1543    0.1972 H   0  0  0  0  0  0  0  0  0  0  0  0
    0.9005   -5.6022    1.9312 H   0  0  0  0  0  0  0  0  0  0  0  0
   -0.3627   -6.3930    0.9626 H   0  0  0  0  0  0  0  0  0  0  0  0
    0.9327   -5.4864    0.1578 H   0  0  0  0  0  0  0  0  0  0  0  0
   -2.6807   -5.0367    2.2800 N   0  0  0  0  0  0  0  0  0  0  0  0
   -3.6854   -4.9773    3.3348 C   0  0  0  0  0  0  0  0  0  0  0  0
   -2.9485   -5.4265    1.3814 H   0  0  0  0  0  0  0  0  0  0  0  0
   -3.2518   -5.2765    4.2949 H   0  0  0  0  0  0  0  0  0  0  0  0
   -4.0826   -3.9610    3.4299 H   0  0  0  0  0  0  0  0  0  0  0  0
   -4.5147   -5.6531    3.1055 H   0  0  0  0  0  0  0  0  0  0  0  0
  1  2  2  0  0  0  0
  1  3  1  0  0  0  0
  1  7  1  0  0  0  0
  3  4  1  0  0  0  0
  3  5  1  0  0  0  0
  3  6  1  0  0  0  0
  7  8  1  0  0  0  0
  7 12  1  0  0  0  0
  8  9  1  0  0  0  0
  8 11  1  0  0  0  0
  8 13  1  0  0  0  0
  9 10  2  0  0  0  0
  9 17  1  0  0  0  0
 11 14  1  0  0  0  0
 11 15  1  0  0  0  0
 11 16  1  0  0  0  0
 17 18  1  0  0  0  0
 17 26  1  0  0  0  0
 18 19  1  0  0  0  0
 18 21  1  0  0  0  0
 18 27  1  0  0  0  0
 19 20  2  0  0  0  0
 19 33  1  0  0  0  0
 21 22  1  0  0  0  0
 21 28  1  0  0  0  0
 21 29  1  0  0  0  0
 22 23  1  0  0  0  0
 22 30  1  0  0  0  0
 22 31  1  0  0  0  0
 23 24  2  0  0  0  0
 23 25  1  0  0  0  0
 25 32  1  0  0  0  0
 33 34  1  0  0  0  0
 33 38  1  0  0  0  0
 34 35  1  0  0  0  0
 34 37  1  0  0  0  0
 34 39  1  0  0  0  0
 35 36  2  0  0  0  0
 35 43  1  0  0  0  0
 37 40  1  0  0  0  0
 37 41  1  0  0  0  0
 37 42  1  0  0  0  0
 43 44  1  0  0  0  0
 43 45  1  0  0  0  0
 44 46  1  0  0  0  0
 44 47  1  0  0  0  0
 44 48  1  0  0  0  0
M  END
$$$$

  -OEChem-02062319073D

 48 47  0     1  0  0  0  0  0999 V2000
   -4.2429   -0.5095    1.5219 C   0  0  0  0  0  0  0  0  0  0  0  0
   -4.3613   -1.7247    1.5009 O   0  0  0  0  0  0  0  0  0  0  0  0
   -5.3600    0.3511    2.0811 C   0  0  0  0  0  0  0  0  0  0  0  0
   -5.7651    0.9929    1.2949 H   0  0  0  0  0  0  0  0  0  0  0  0
   -6.1636   -0.2800    2.4705 H   0  0  0  0  0  0  0  0  0  0  0  0
   -4.9797    0.9758    2.8929 H   0  0  0  0  0  0  0  0  0  0  0  0
   -3.1063    0.0884    1.0189 N   0  0  0  0  0  0  0  0  0  0  0  0
   -1.9462   -0.6320    0.4775 C   0  0  2  0  0  0  0  0  0  0  0  0
   -0.6919    0.2725    0.4128 C   0  0  0  0  0  0  0  0  0  0  0  0
   -0.8399    1.4847    0.3479 O   0  0  0  0  0  0  0  0  0  0  0  0
   -2.3079   -1.1235   -0.9312 C   0  0  0  0  0  0  0  0  0  0  0  0
   -3.0472    1.1052    1.0532 H   0  0  0  0  0  0  0  0  0  0  0  0
   -1.7224   -1.4837    1.1257 H   0  0  0  0  0  0  0  0  0  0  0  0
   -2.5940   -0.2787   -1.5658 H   0  0  0  0  0  0  0  0  0  0  0  0
   -3.1457   -1.8258   -0.8895 H   0  0  0  0  0  0  0  0  0  0  0  0
   -1.4631   -1.6320   -1.4001 H   0  0  0  0  0  0  0  0  0  0  0  0
    0.5267   -0.0370    0.9782 N   0  0  0  0  0  0  0  0  0  0  0  0
    1.5171   -0.7823    0.1778 C   0  0  2  0  0  0  0  0  0  0  0  0
    1.0286   -2.1694   -0.2829 C   0  0  0  0  0  0  0  0  0  0  0  0
    1.0741   -2.4813   -1.4631 O   0  0  0  0  0  0  0  0  0  0  0  0
    2.8060   -0.9551    0.9986 C   0  0  0  0  0  0  0  0  0  0  0  0
    3.5104    0.3896    1.2791 C   0  0  0  0  0  0  0  0  0  0  0  0
    4.8382    0.2432    2.0234 C   0  0  0  0  0  0  0  0  0  0  0  0
    5.2172   -0.8571    2.3841 O   0  0  0  0  0  0  0  0  0  0  0  0
    5.5373    1.3745    2.2501 O   0  0  0  0  0  0  0  0  0  0  0  0
    0.9065    0.8188    1.3753 H   0  0  0  0  0  0  0  0  0  0  0  0
    1.7479   -0.2101   -0.7286 H   0  0  0  0  0  0  0  0  0  0  0  0
    2.5762   -1.4554    1.9465 H   0  0  0  0  0  0  0  0  0  0  0  0
    3.4939   -1.6038    0.4429 H   0  0  0  0  0  0  0  0  0  0  0  0
    3.7099    0.9011    0.3335 H   0  0  0  0  0  0  0  0  0  0  0  0
    2.8636    1.0335    1.8797 H   0  0  0  0  0  0  0  0  0  0  0  0
    6.3340    1.0880    2.7234 H   0  0  0  0  0  0  0  0  0  0  0  0
    0.3883   -2.9888    0.6227 N   0  0  0  0  0  0  0  0  0  0  0  0
   -0.4012   -4.1801    0.2976 C   0  0  2  0  0  0  0  0  0  0  0  0
   -1.4421   -4.4367    1.4084 C   0  0  0  0  0  0  0  0  0  0  0  0
   -1.2666   -3.9460    2.5196 O   0  0  0  0  0  0  0  0  0  0  0  0
    0.5399   -5.3791    0.1524 C   0  0  0  0  0  0  0  0  0  0  0  0
    0.3101   -2.6470    1.5822 H   0  0  0  0  0  0  0  0  0  0  0  0
   -0.9394   -4.0233   -0.6428 H   0  0  0  0  0  0  0  0  0  0  0  0
    1.0919   -5.5457    1.0830 H   0  0  0  0  0  0  0  0  0  0  0  0
   -0.0272   -6.2844   -0.0840 H   0  0  0  0  0  0  0  0  0  0  0  0
    1.2603   -5.2030   -0.6528 H   0  0  0  0  0  0  0  0  0  0  0  0
   -2.5824   -5.1753    1.1566 N   0  0  0  0  0  0  0  0  0  0  0  0
   -3.6709   -5.2898    2.1206 C   0  0  0  0  0  0  0  0  0  0  0  0
   -2.7533   -5.4582    0.1965 H   0  0  0  0  0  0  0  0  0  0  0  0
   -3.3084   -5.7200    3.0601 H   0  0  0  0  0  0  0  0  0  0  0  0
   -4.1046   -4.3063    2.3287 H   0  0  0  0  0  0  0  0  0  0  0  0
   -4.4589   -5.9383    1.7265 H   0  0  0  0  0  0  0  0  0  0  0  0
  1  2  2  0  0  0  0
  1  3  1  0  0  0  0
  1  7  1  0  0  0  0
  3  4  1  0  0  0  0
  3  5  1  0  0  0  0
  3  6  1  0  0  0  0
  7  8  1  0  0  0  0
  7 12  1  0  0  0  0
  8  9  1  0  0  0  0
  8 11  1  0  0  0  0
  8 13  1  0  0  0  0
  9 10  2  0  0  0  0
  9 17  1  0  0  0  0
 11 14  1  0  0  0  0
 11 15  1  0  0  0  0
 11 16  1  0  0  0  0
 17 18  1  0  0  0  0
 17 26  1  0  0  0  0
 18 19  1  0  0  0  0
 18 21  1  0  0  0  0
 18 27  1  0  0  0  0
 19 20  2  0  0  0  0
 19 33  1  0  0  0  0
 21 22  1  0  0  0  0
 21 28  1  0  0  0  0
 21 29  1  0  0  0  0
 22 23  1  0  0  0  0
 22 30  1  0  0  0  0
 22 31  1  0  0  0  0
 23 24  2  0  0  0  0
 23 25  1  0  0  0  0
 25 32  1  0  0  0  0
 33 34  1  0  0  0  0
 33 38  1  0  0  0  0
 34 35  1  0  0  0  0
 34 37  1  0  0  0  0
 34 39  1  0  0  0  0
 35 36  2  0  0  0  0
 35 43  1  0  0  0  0
 37 40  1  0  0  0  0
 37 41  1  0  0  0  0
 37 42  1  0  0  0  0
 43 44  1  0  0  0  0
 43 45  1  0  0  0  0
 44 46  1  0  0  0  0
 44 47  1  0  0  0  0
 44 48  1  0  0  0  0
M  END
$$$$

  -OEChem-02062319073D

 48 47  0     1  0  0  0  0  0999 V2000
   -2.4711   -1.2289    2.1988 C   0  0  0  0  0  0  0  0  0  0  0  0
   -1.4116   -1.8298    2.0782 O   0  0  0  0  0  0  0  0  0  0  0  0
   -3.2548   -1.3063    3.4946 C   0  0  0  0  0  0  0  0  0  0  0  0
   -4.2583   -1.6945    3.3027 H   0  0  0  0  0  0  0  0  0  0  0  0
   -2.7507   -1.9707    4.2025 H   0  0  0  0  0  0  0  0  0  0  0  0
   -3.3359   -0.3126    3.9427 H   0  0  0  0  0  0  0  0  0  0  0  0
   -2.9266   -0.4491    1.1555 N   0  0  0  0  0  0  0  0  0  0  0  0
   -2.2754   -0.3358   -0.1628 C   0  0  2  0  0  0  0  0  0  0  0  0
   -0.9941    0.5360   -0.1296 C   0  0  0  0  0  0  0  0  0  0  0  0
   -0.7449    1.3086   -1.0423 O   0  0  0  0  0  0  0  0  0  0  0  0
   -3.3310    0.1970   -1.1397 C   0  0  0  0  0  0  0  0  0  0  0  0
   -3.7879    0.0703    1.3090 H   0  0  0  0  0  0  0  0  0  0  0  0
   -1.9811   -1.3267   -0.5171 H   0  0  0  0  0  0  0  0  0  0  0  0
   -2.9261    0.2256   -2.1570 H   0  0  0  0  0  0  0  0  0  0  0  0
   -4.2127   -0.4510   -1.1432 H   0  0  0  0  0  0  0  0  0  0  0  0
   -3.6379    1.2104   -0.8616 H   0  0  0  0  0  0  0  0  0  0  0  0
    0.0606    0.1672    0.6843 N   0  0  0  0  0  0  0  0  0  0  0  0
    1.2631   -0.4230    0.0719 C   0  0  2  0  0  0  0  0  0  0  0  0
    1.0261   -1.7356   -0.7087 C   0  0  0  0  0  0  0  0  0  0  0  0
    1.6623   -1.9341   -1.7313 O   0  0  0  0  0  0  0  0  0  0  0  0
    2.3054   -0.6670    1.1748 C   0  0  0  0  0  0  0  0  0  0  0  0
    2.7977    0.6548    1.8007 C   0  0  0  0  0  0  0  0  0  0  0  0
    3.8554    0.4581    2.8853 C   0  0  0  0  0  0  0  0  0  0  0  0
    3.9549   -0.6205    3.4446 O   0  0  0  0  0  0  0  0  0  0  0  0
    4.6354    1.5182    3.1844 O   0  0  0  0  0  0  0  0  0  0  0  0
   -0.2745   -0.3813    1.4775 H   0  0  0  0  0  0  0  0  0  0  0  0
    1.6773    0.2951   -0.6463 H   0  0  0  0  0  0  0  0  0  0  0  0
    1.8748   -1.3112    1.9497 H   0  0  0  0  0  0  0  0  0  0  0  0
    3.1655   -1.1955    0.7468 H   0  0  0  0  0  0  0  0  0  0  0  0
    3.2247    1.2869    1.0171 H   0  0  0  0  0  0  0  0  0  0  0  0
    1.9592    1.1967    2.2445 H   0  0  0  0  0  0  0  0  0  0  0  0
    5.2369    1.2018    3.8757 H   0  0  0  0  0  0  0  0  0  0  0  0
    0.2390   -2.7543   -0.1912 N   0  0  0  0  0  0  0  0  0  0  0  0
    0.2149   -4.1215   -0.7461 C   0  0  2  0  0  0  0  0  0  0  0  0
   -0.9093   -4.3851   -1.7806 C   0  0  0  0  0  0  0  0  0  0  0  0
   -0.6504   -4.8561   -2.8752 O   0  0  0  0  0  0  0  0  0  0  0  0
    0.1662   -5.1144    0.4199 C   0  0  0  0  0  0  0  0  0  0  0  0
   -0.2195   -2.5775    0.7053 H   0  0  0  0  0  0  0  0  0  0  0  0
    1.1566   -4.3084   -1.2755 H   0  0  0  0  0  0  0  0  0  0  0  0
   -0.7109   -4.9495    1.0504 H   0  0  0  0  0  0  0  0  0  0  0  0
    0.1342   -6.1403    0.0393 H   0  0  0  0  0  0  0  0  0  0  0  0
    1.0603   -5.0059    1.0418 H   0  0  0  0  0  0  0  0  0  0  0  0
   -2.2629   -4.1838   -1.6060 N   0  0  0  0  0  0  0  0  0  0  0  0
   -2.9433   -4.0500   -0.3286 C   0  0  0  0  0  0  0  0  0  0  0  0
   -2.8062   -4.4938   -2.4082 H   0  0  0  0  0  0  0  0  0  0  0  0
   -2.3587   -3.4508    0.3681 H   0  0  0  0  0  0  0  0  0  0  0  0
   -3.9103   -3.5578   -0.4699 H   0  0  0  0  0  0  0  0  0  0  0  0
   -3.1136   -5.0358    0.1156 H   0  0  0  0  0  0  0  0  0  0  0  0
  1  2  2  0  0  0  0
  1  3  1  0  0  0  0
  1  7  1  0  0  0  0
  3  4  1  0  0  0  0
  3  5  1  0  0  0  0
  3  6  1  0  0  0  0
  7  8  1  0  0  0  0
  7 12  1  0  0  0  0
  8  9  1  0  0  0  0
  8 11  1  0  0  0  0
  8 13  1  0  0  0  0
  9 10  2  0  0  0  0
  9 17  1  0  0  0  0
 11 14  1  0  0  0  0
 11 15  1  0  0  0  0
 11 16  1  0  0  0  0
 17 18  1  0  0  0  0
 17 26  1  0  0  0  0
 18 19  1  0  0  0  0
 18 21  1  0  0  0  0
 18 27  1  0  0  0  0
 19 20  2  0  0  0  0
 19 33  1  0  0  0  0
 21 22  1  0  0  0  0
 21 28  1  0  0  0  0
 21 29  1  0  0  0  0
 22 23  1  0  0  0  0
 22 30  1  0  0  0  0
 22 31  1  0  0  0  0
 23 24  2  0  0  0  0
 23 25  1  0  0  0  0
 25 32  1  0  0  0  0
 33 34  1  0  0  0  0
 33 38  1  0  0  0  0
 34 35  1  0  0  0  0
 34 37  1  0  0  0  0
 34 39  1  0  0  0  0
 35 36  2  0  0  0  0
 35 43  1  0  0  0  0
 37 40  1  0  0  0  0
 37 41  1  0  0  0  0
 37 42  1  0  0  0  0
 43 44  1  0  0  0  0
 43 45  1  0  0  0  0
 44 46  1  0  0  0  0
 44 47  1  0  0  0  0
 44 48  1  0  0  0  0
M  END
$$$$

  -OEChem-02062319073D

 48 47  0     1  0  0  0  0  0999 V2000
   -4.2093   -0.7832    2.7786 C   0  0  0  0  0  0  0  0  0  0  0  0
   -4.0313   -1.4806    3.7650 O   0  0  0  0  0  0  0  0  0  0  0  0
   -5.5612   -0.1426    2.5275 C   0  0  0  0  0  0  0  0  0  0  0  0
   -5.9709   -0.4979    1.5788 H   0  0  0  0  0  0  0  0  0  0  0  0
   -6.2569   -0.4022    3.3304 H   0  0  0  0  0  0  0  0  0  0  0  0
   -5.4586    0.9446    2.4875 H   0  0  0  0  0  0  0  0  0  0  0  0
   -3.1759   -0.5715    1.8908 N   0  0  0  0  0  0  0  0  0  0  0  0
   -1.8000   -1.0471    2.0848 C   0  0  2  0  0  0  0  0  0  0  0  0
   -0.7677   -0.0300    1.5296 C   0  0  0  0  0  0  0  0  0  0  0  0
   -1.1768    0.8637    0.7986 O   0  0  0  0  0  0  0  0  0  0  0  0
   -1.7115   -2.4432    1.4703 C   0  0  0  0  0  0  0  0  0  0  0  0
   -3.3225    0.1231    1.1587 H   0  0  0  0  0  0  0  0  0  0  0  0
   -1.5945   -1.1312    3.1573 H   0  0  0  0  0  0  0  0  0  0  0  0
   -1.9181   -2.3968    0.3984 H   0  0  0  0  0  0  0  0  0  0  0  0
   -0.7241   -2.8795    1.6371 H   0  0  0  0  0  0  0  0  0  0  0  0
   -2.4521   -3.1054    1.9307 H   0  0  0  0  0  0  0  0  0  0  0  0
    0.5905   -0.3026    1.4464 N   0  0  0  0  0  0  0  0  0  0  0  0
    1.3122   -0.2720    0.1534 C   0  0  2  0  0  0  0  0  0  0  0  0
    0.8493   -1.2369   -0.9594 C   0  0  0  0  0  0  0  0  0  0  0  0
    0.7722   -0.8387   -2.1134 O   0  0  0  0  0  0  0  0  0  0  0  0
    2.8049   -0.5141    0.4337 C   0  0  0  0  0  0  0  0  0  0  0  0
    3.4317    0.6309    1.2592 C   0  0  0  0  0  0  0  0  0  0  0  0
    4.9173    0.4245    1.5506 C   0  0  0  0  0  0  0  0  0  0  0  0
    5.3872   -0.6993    1.5069 O   0  0  0  0  0  0  0  0  0  0  0  0
    5.6438    1.5182    1.8615 O   0  0  0  0  0  0  0  0  0  0  0  0
    0.8988   -1.0181    2.0978 H   0  0  0  0  0  0  0  0  0  0  0  0
    1.2040    0.7356   -0.2661 H   0  0  0  0  0  0  0  0  0  0  0  0
    2.9305   -1.4674    0.9588 H   0  0  0  0  0  0  0  0  0  0  0  0
    3.3433   -0.5908   -0.5186 H   0  0  0  0  0  0  0  0  0  0  0  0
    3.3178    1.5726    0.7143 H   0  0  0  0  0  0  0  0  0  0  0  0
    2.9152    0.7377    2.2163 H   0  0  0  0  0  0  0  0  0  0  0  0
    6.5447    1.1923    2.0117 H   0  0  0  0  0  0  0  0  0  0  0  0
    0.5672   -2.5665   -0.7080 N   0  0  0  0  0  0  0  0  0  0  0  0
    0.1429   -3.5284   -1.7387 C   0  0  2  0  0  0  0  0  0  0  0  0
   -1.3440   -3.3480   -2.1330 C   0  0  0  0  0  0  0  0  0  0  0  0
   -2.1804   -4.2082   -1.8862 O   0  0  0  0  0  0  0  0  0  0  0  0
    0.4509   -4.9318   -1.2025 C   0  0  0  0  0  0  0  0  0  0  0  0
    0.6257   -2.8858    0.2524 H   0  0  0  0  0  0  0  0  0  0  0  0
    0.7373   -3.3802   -2.6470 H   0  0  0  0  0  0  0  0  0  0  0  0
   -0.1204   -5.1305   -0.2898 H   0  0  0  0  0  0  0  0  0  0  0  0
    0.1849   -5.6884   -1.9475 H   0  0  0  0  0  0  0  0  0  0  0  0
    1.5173   -5.0299   -0.9786 H   0  0  0  0  0  0  0  0  0  0  0  0
   -1.7523   -2.1553   -2.6964 N   0  0  0  0  0  0  0  0  0  0  0  0
   -3.1450   -1.8080   -2.9423 C   0  0  0  0  0  0  0  0  0  0  0  0
   -1.0356   -1.4286   -2.7762 H   0  0  0  0  0  0  0  0  0  0  0  0
   -3.7001   -1.7650   -1.9996 H   0  0  0  0  0  0  0  0  0  0  0  0
   -3.2087   -0.8295   -3.4281 H   0  0  0  0  0  0  0  0  0  0  0  0
   -3.6158   -2.5491   -3.5965 H   0  0  0  0  0  0  0  0  0  0  0  0
  1  2  2  0  0  0  0
  1  3  1  0  0  0  0
  1  7  1  0  0  0  0
  3  4  1  0  0  0  0
  3  5  1  0  0  0  0
  3  6  1  0  0  0  0
  7  8  1  0  0  0  0
  7 12  1  0  0  0  0
  8  9  1  0  0  0  0
  8 11  1  0  0  0  0
  8 13  1  0  0  0  0
  9 10  2  0  0  0  0
  9 17  1  0  0  0  0
 11 14  1  0  0  0  0
 11 15  1  0  0  0  0
 11 16  1  0  0  0  0
 17 18  1  0  0  0  0
 17 26  1  0  0  0  0
 18 19  1  0  0  0  0
 18 21  1  0  0  0  0
 18 27  1  0  0  0  0
 19 20  2  0  0  0  0
 19 33  1  0  0  0  0
 21 22  1  0  0  0  0
 21 28  1  0  0  0  0
 21 29  1  0  0  0  0
 22 23  1  0  0  0  0
 22 30  1  0  0  0  0
 22 31  1  0  0  0  0
 23 24  2  0  0  0  0
 23 25  1  0  0  0  0
 25 32  1  0  0  0  0
 33 34  1  0  0  0  0
 33 38  1  0  0  0  0
 34 35  1  0  0  0  0
 34 37  1  0  0  0  0
 34 39  1  0  0  0  0
 35 36  2  0  0  0  0
 35 43  1  0  0  0  0
 37 40  1  0  0  0  0
 37 41  1  0  0  0  0
 37 42  1  0  0  0  0
 43 44  1  0  0  0  0
 43 45  1  0  0  0  0
 44 46  1  0  0  0  0
 44 47  1  0  0  0  0
 44 48  1  0  0  0  0
M  END
$$$$

  -OEChem-02062319073D

 48 47  0     1  0  0  0  0  0999 V2000
   -3.4818   -0.4675    3.1994 C   0  0  0  0  0  0  0  0  0  0  0  0
   -2.5947   -0.7293    3.9976 O   0  0  0  0  0  0  0  0  0  0  0  0
   -4.7091    0.3064    3.6425 C   0  0  0  0  0  0  0  0  0  0  0  0
   -5.6136   -0.2595    3.4066 H   0  0  0  0  0  0  0  0  0  0  0  0
   -4.6757    0.4812    4.7215 H   0  0  0  0  0  0  0  0  0  0  0  0
   -4.7470    1.2711    3.1305 H   0  0  0  0  0  0  0  0  0  0  0  0
   -3.3456   -0.8485    1.8806 N   0  0  0  0  0  0  0  0  0  0  0  0
   -2.0936   -1.3972    1.3463 C   0  0  2  0  0  0  0  0  0  0  0  0
   -1.0942   -0.2727    0.9913 C   0  0  0  0  0  0  0  0  0  0  0  0
   -1.4498    0.6201    0.2336 O   0  0  0  0  0  0  0  0  0  0  0  0
   -2.4498   -2.2575    0.1317 C   0  0  0  0  0  0  0  0  0  0  0  0
   -3.9963   -0.4310    1.2200 H   0  0  0  0  0  0  0  0  0  0  0  0
   -1.6280   -2.0472    2.0945 H   0  0  0  0  0  0  0  0  0  0  0  0
   -2.8423   -1.6383   -0.6811 H   0  0  0  0  0  0  0  0  0  0  0  0
   -1.5683   -2.7902   -0.2311 H   0  0  0  0  0  0  0  0  0  0  0  0
   -3.2074   -3.0006    0.3997 H   0  0  0  0  0  0  0  0  0  0  0  0
    0.2655   -0.4547    1.1852 N   0  0  0  0  0  0  0  0  0  0  0  0
    1.2643   -0.0604    0.1716 C   0  0  2  0  0  0  0  0  0  0  0  0
    1.1047   -0.7673   -1.1899 C   0  0  0  0  0  0  0  0  0  0  0  0
    1.2345   -0.1373   -2.2309 O   0  0  0  0  0  0  0  0  0  0  0  0
    2.6734   -0.3217    0.7261 C   0  0  0  0  0  0  0  0  0  0  0  0
    2.9936    0.5845    1.9341 C   0  0  0  0  0  0  0  0  0  0  0  0
    4.3900    0.3579    2.5121 C   0  0  0  0  0  0  0  0  0  0  0  0
    4.9798   -0.6816    2.2729 O   0  0  0  0  0  0  0  0  0  0  0  0
    4.9036    1.3380    3.2845 O   0  0  0  0  0  0  0  0  0  0  0  0
    0.5141   -1.2091    1.8191 H   0  0  0  0  0  0  0  0  0  0  0  0
    1.1595    1.0142   -0.0216 H   0  0  0  0  0  0  0  0  0  0  0  0
    2.7667   -1.3752    1.0116 H   0  0  0  0  0  0  0  0  0  0  0  0
    3.4107   -0.1288   -0.0623 H   0  0  0  0  0  0  0  0  0  0  0  0
    2.9171    1.6318    1.6284 H   0  0  0  0  0  0  0  0  0  0  0  0
    2.2693    0.4193    2.7355 H   0  0  0  0  0  0  0  0  0  0  0  0
    5.7781    1.0180    3.5551 H   0  0  0  0  0  0  0  0  0  0  0  0
    0.8743   -2.1292   -1.2635 N   0  0  0  0  0  0  0  0  0  0  0  0
    0.6098   -2.8432   -2.5222 C   0  0  2  0  0  0  0  0  0  0  0  0
   -0.8149   -2.5615   -3.0607 C   0  0  0  0  0  0  0  0  0  0  0  0
   -1.6756   -3.4335   -3.0835 O   0  0  0  0  0  0  0  0  0  0  0  0
    0.8692   -4.3336   -2.2687 C   0  0  0  0  0  0  0  0  0  0  0  0
    0.7154   -2.6183   -0.3895 H   0  0  0  0  0  0  0  0  0  0  0  0
    1.3168   -2.5084   -3.2891 H   0  0  0  0  0  0  0  0  0  0  0  0
    0.1898   -4.7206   -1.5025 H   0  0  0  0  0  0  0  0  0  0  0  0
    0.7140   -4.9060   -3.1888 H   0  0  0  0  0  0  0  0  0  0  0  0
    1.8997   -4.4908   -1.9360 H   0  0  0  0  0  0  0  0  0  0  0  0
   -1.1441   -1.2800   -3.4544 N   0  0  0  0  0  0  0  0  0  0  0  0
   -2.4828   -0.8670   -3.8513 C   0  0  0  0  0  0  0  0  0  0  0  0
   -0.4325   -0.5627   -3.2870 H   0  0  0  0  0  0  0  0  0  0  0  0
   -2.8053   -1.4187   -4.7403 H   0  0  0  0  0  0  0  0  0  0  0  0
   -3.1979   -1.0499   -3.0431 H   0  0  0  0  0  0  0  0  0  0  0  0
   -2.4919    0.2019   -4.0853 H   0  0  0  0  0  0  0  0  0  0  0  0
  1  2  2  0  0  0  0
  1  3  1  0  0  0  0
  1  7  1  0  0  0  0
  3  4  1  0  0  0  0
  3  5  1  0  0  0  0
  3  6  1  0  0  0  0
  7  8  1  0  0  0  0
  7 12  1  0  0  0  0
  8  9  1  0  0  0  0
  8 11  1  0  0  0  0
  8 13  1  0  0  0  0
  9 10  2  0  0  0  0
  9 17  1  0  0  0  0
 11 14  1  0  0  0  0
 11 15  1  0  0  0  0
 11 16  1  0  0  0  0
 17 18  1  0  0  0  0
 17 26  1  0  0  0  0
 18 19  1  0  0  0  0
 18 21  1  0  0  0  0
 18 27  1  0  0  0  0
 19 20  2  0  0  0  0
 19 33  1  0  0  0  0
 21 22  1  0  0  0  0
 21 28  1  0  0  0  0
 21 29  1  0  0  0  0
 22 23  1  0  0  0  0
 22 30  1  0  0  0  0
 22 31  1  0  0  0  0
 23 24  2  0  0  0  0
 23 25  1  0  0  0  0
 25 32  1  0  0  0  0
 33 34  1  0  0  0  0
 33 38  1  0  0  0  0
 34 35  1  0  0  0  0
 34 37  1  0  0  0  0
 34 39  1  0  0  0  0
 35 36  2  0  0  0  0
 35 43  1  0  0  0  0
 37 40  1  0  0  0  0
 37 41  1  0  0  0  0
 37 42  1  0  0  0  0
 43 44  1  0  0  0  0
 43 45  1  0  0  0  0
 44 46  1  0  0  0  0
 44 47  1  0  0  0  0
 44 48  1  0  0  0  0
M  END
$$$$

  -OEChem-02062319073D

 48 47  0     1  0  0  0  0  0999 V2000
   -3.3972   -0.7756    2.9806 C   0  0  0  0  0  0  0  0  0  0  0  0
   -2.4741   -1.0542    3.7311 O   0  0  0  0  0  0  0  0  0  0  0  0
   -4.6413   -0.0922    3.5162 C   0  0  0  0  0  0  0  0  0  0  0  0
   -5.5227   -0.7035    3.3074 H   0  0  0  0  0  0  0  0  0  0  0  0
   -4.5590    0.0485    4.5977 H   0  0  0  0  0  0  0  0  0  0  0  0
   -4.7636    0.8853    3.0429 H   0  0  0  0  0  0  0  0  0  0  0  0
   -3.2885   -1.0543    1.6338 N   0  0  0  0  0  0  0  0  0  0  0  0
   -2.0307   -1.5065    1.0282 C   0  0  2  0  0  0  0  0  0  0  0  0
   -1.0770   -0.3246    0.7525 C   0  0  0  0  0  0  0  0  0  0  0  0
   -1.4555    0.6165    0.0677 O   0  0  0  0  0  0  0  0  0  0  0  0
   -2.3659   -2.2596   -0.2622 C   0  0  0  0  0  0  0  0  0  0  0  0
   -3.9748   -0.6165    1.0245 H   0  0  0  0  0  0  0  0  0  0  0  0
   -1.5273   -2.2062    1.7039 H   0  0  0  0  0  0  0  0  0  0  0  0
   -2.8608   -1.5983   -0.9807 H   0  0  0  0  0  0  0  0  0  0  0  0
   -1.4548   -2.6501   -0.7247 H   0  0  0  0  0  0  0  0  0  0  0  0
   -3.0313   -3.1021   -0.0499 H   0  0  0  0  0  0  0  0  0  0  0  0
    0.2742   -0.4451    1.0291 N   0  0  0  0  0  0  0  0  0  0  0  0
    1.3184    0.2753    0.2772 C   0  0  2  0  0  0  0  0  0  0  0  0
    1.3205   -0.0714   -1.2257 C   0  0  0  0  0  0  0  0  0  0  0  0
    1.4429    0.8082   -2.0681 O   0  0  0  0  0  0  0  0  0  0  0  0
    2.6910   -0.0325    0.8941 C   0  0  0  0  0  0  0  0  0  0  0  0
    2.8240    0.5531    2.3166 C   0  0  0  0  0  0  0  0  0  0  0  0
    4.1744    0.2601    2.9691 C   0  0  0  0  0  0  0  0  0  0  0  0
    4.8430   -0.6786    2.5724 O   0  0  0  0  0  0  0  0  0  0  0  0
    4.5601    1.0670    3.9795 O   0  0  0  0  0  0  0  0  0  0  0  0
    0.5479   -1.2383    1.6030 H   0  0  0  0  0  0  0  0  0  0  0  0
    1.1306    1.3529    0.3536 H   0  0  0  0  0  0  0  0  0  0  0  0
    2.8484   -1.1165    0.9170 H   0  0  0  0  0  0  0  0  0  0  0  0
    3.4748    0.4000    0.2611 H   0  0  0  0  0  0  0  0  0  0  0  0
    2.6945    1.6383    2.2729 H   0  0  0  0  0  0  0  0  0  0  0  0
    2.0436    0.1527    2.9684 H   0  0  0  0  0  0  0  0  0  0  0  0
    5.4245    0.7285    4.2599 H   0  0  0  0  0  0  0  0  0  0  0  0
    1.2119   -1.3870   -1.6396 N   0  0  0  0  0  0  0  0  0  0  0  0
    0.9441   -1.7641   -3.0344 C   0  0  2  0  0  0  0  0  0  0  0  0
   -0.5172   -1.4463   -3.4354 C   0  0  0  0  0  0  0  0  0  0  0  0
   -1.3511   -2.3355   -3.5650 O   0  0  0  0  0  0  0  0  0  0  0  0
    1.2966   -3.2484   -3.1880 C   0  0  0  0  0  0  0  0  0  0  0  0
    0.9983   -2.0658   -0.9169 H   0  0  0  0  0  0  0  0  0  0  0  0
    1.5980   -1.1953   -3.7045 H   0  0  0  0  0  0  0  0  0  0  0  0
    0.6755   -3.8649   -2.5301 H   0  0  0  0  0  0  0  0  0  0  0  0
    1.1312   -3.5709   -4.2210 H   0  0  0  0  0  0  0  0  0  0  0  0
    2.3483   -3.4179   -2.9375 H   0  0  0  0  0  0  0  0  0  0  0  0
   -0.9047   -0.1267   -3.5580 N   0  0  0  0  0  0  0  0  0  0  0  0
   -2.2899    0.2971   -3.7067 C   0  0  0  0  0  0  0  0  0  0  0  0
   -0.2178    0.5626   -3.2395 H   0  0  0  0  0  0  0  0  0  0  0  0
   -2.7761   -0.2482   -4.5224 H   0  0  0  0  0  0  0  0  0  0  0  0
   -2.8455    0.1192   -2.7807 H   0  0  0  0  0  0  0  0  0  0  0  0
   -2.3319    1.3659   -3.9370 H   0  0  0  0  0  0  0  0  0  0  0  0
  1  2  2  0  0  0  0
  1  3  1  0  0  0  0
  1  7  1  0  0  0  0
  3  4  1  0  0  0  0
  3  5  1  0  0  0  0
  3  6  1  0  0  0  0
  7  8  1  0  0  0  0
  7 12  1  0  0  0  0
  8  9  1  0  0  0  0
  8 11  1  0  0  0  0
  8 13  1  0  0  0  0
  9 10  2  0  0  0  0
  9 17  1  0  0  0  0
 11 14  1  0  0  0  0
 11 15  1  0  0  0  0
 11 16  1  0  0  0  0
 17 18  1  0  0  0  0
 17 26  1  0  0  0  0
 18 19  1  0  0  0  0
 18 21  1  0  0  0  0
 18 27  1  0  0  0  0
 19 20  2  0  0  0  0
 19 33  1  0  0  0  0
 21 22  1  0  0  0  0
 21 28  1  0  0  0  0
 21 29  1  0  0  0  0
 22 23  1  0  0  0  0
 22 30  1  0  0  0  0
 22 31  1  0  0  0  0
 23 24  2  0  0  0  0
 23 25  1  0  0  0  0
 25 32  1  0  0  0  0
 33 34  1  0  0  0  0
 33 38  1  0  0  0  0
 34 35  1  0  0  0  0
 34 37  1  0  0  0  0
 34 39  1  0  0  0  0
 35 36  2  0  0  0  0
 35 43  1  0  0  0  0
 37 40  1  0  0  0  0
 37 41  1  0  0  0  0
 37 42  1  0  0  0  0
 43 44  1  0  0  0  0
 43 45  1  0  0  0  0
 44 46  1  0  0  0  0
 44 47  1  0  0  0  0
 44 48  1  0  0  0  0
M  END
$$$$

  -OEChem-02062319073D

 48 47  0     1  0  0  0  0  0999 V2000
   -4.1477   -0.8718    2.5568 C   0  0  0  0  0  0  0  0  0  0  0  0
   -3.9650   -1.8345    3.2855 O   0  0  0  0  0  0  0  0  0  0  0  0
   -5.4540   -0.1037    2.6218 C   0  0  0  0  0  0  0  0  0  0  0  0
   -5.9613   -0.1497    1.6551 H   0  0  0  0  0  0  0  0  0  0  0  0
   -6.1082   -0.5354    3.3844 H   0  0  0  0  0  0  0  0  0  0  0  0
   -5.2606    0.9415    2.8748 H   0  0  0  0  0  0  0  0  0  0  0  0
   -3.1632   -0.4755    1.6771 N   0  0  0  0  0  0  0  0  0  0  0  0
   -1.8192   -1.0631    1.6151 C   0  0  2  0  0  0  0  0  0  0  0  0
   -0.7443    0.0000    1.3008 C   0  0  0  0  0  0  0  0  0  0  0  0
   -1.0693    1.1233    0.9377 O   0  0  0  0  0  0  0  0  0  0  0  0
   -1.8386   -2.1713    0.5590 C   0  0  0  0  0  0  0  0  0  0  0  0
   -3.3044    0.4038    1.1808 H   0  0  0  0  0  0  0  0  0  0  0  0
   -1.5596   -1.4994    2.5857 H   0  0  0  0  0  0  0  0  0  0  0  0
   -2.1387   -1.7669   -0.4120 H   0  0  0  0  0  0  0  0  0  0  0  0
   -0.8522   -2.6326    0.4570 H   0  0  0  0  0  0  0  0  0  0  0  0
   -2.5535   -2.9497    0.8442 H   0  0  0  0  0  0  0  0  0  0  0  0
    0.6009   -0.3260    1.3407 N   0  0  0  0  0  0  0  0  0  0  0  0
    1.6631    0.5167    0.7588 C   0  0  2  0  0  0  0  0  0  0  0  0
    1.5259    0.7538   -0.7605 C   0  0  0  0  0  0  0  0  0  0  0  0
    1.8650    1.8277   -1.2386 O   0  0  0  0  0  0  0  0  0  0  0  0
    3.0316   -0.1131    1.0660 C   0  0  0  0  0  0  0  0  0  0  0  0
    3.3536   -0.0742    2.5749 C   0  0  0  0  0  0  0  0  0  0  0  0
    4.7122   -0.6823    2.9178 C   0  0  0  0  0  0  0  0  0  0  0  0
    5.1666   -1.5669    2.2138 O   0  0  0  0  0  0  0  0  0  0  0  0
    5.3447   -0.2096    4.0121 O   0  0  0  0  0  0  0  0  0  0  0  0
    0.8283   -1.2830    1.5960 H   0  0  0  0  0  0  0  0  0  0  0  0
    1.6181    1.5062    1.2291 H   0  0  0  0  0  0  0  0  0  0  0  0
    3.0507   -1.1460    0.7005 H   0  0  0  0  0  0  0  0  0  0  0  0
    3.8107    0.4389    0.5269 H   0  0  0  0  0  0  0  0  0  0  0  0
    3.3488    0.9649    2.9161 H   0  0  0  0  0  0  0  0  0  0  0  0
    2.5913   -0.6138    3.1415 H   0  0  0  0  0  0  0  0  0  0  0  0
    6.1746   -0.7088    4.0629 H   0  0  0  0  0  0  0  0  0  0  0  0
    1.2251   -0.2989   -1.6057 N   0  0  0  0  0  0  0  0  0  0  0  0
    0.9429   -0.1270   -3.0368 C   0  0  2  0  0  0  0  0  0  0  0  0
   -0.5673   -0.2423   -3.3181 C   0  0  0  0  0  0  0  0  0  0  0  0
   -1.2153   -1.1379   -2.7873 O   0  0  0  0  0  0  0  0  0  0  0  0
    1.7196   -1.2014   -3.8007 C   0  0  0  0  0  0  0  0  0  0  0  0
    0.7983   -1.1059   -1.1592 H   0  0  0  0  0  0  0  0  0  0  0  0
    1.2798    0.8537   -3.3882 H   0  0  0  0  0  0  0  0  0  0  0  0
    1.4081   -2.2019   -3.4830 H   0  0  0  0  0  0  0  0  0  0  0  0
    1.5414   -1.1077   -4.8764 H   0  0  0  0  0  0  0  0  0  0  0  0
    2.7932   -1.0948   -3.6164 H   0  0  0  0  0  0  0  0  0  0  0  0
   -1.1929    0.6370   -4.1817 N   0  0  0  0  0  0  0  0  0  0  0  0
   -2.6300    0.6223   -4.4256 C   0  0  0  0  0  0  0  0  0  0  0  0
   -0.6495    1.4316   -4.5079 H   0  0  0  0  0  0  0  0  0  0  0  0
   -2.9474   -0.3600   -4.7912 H   0  0  0  0  0  0  0  0  0  0  0  0
   -3.1767    0.8490   -3.5043 H   0  0  0  0  0  0  0  0  0  0  0  0
   -2.8939    1.3704   -5.1794 H   0  0  0  0  0  0  0  0  0  0  0  0
  1  2  2  0  0  0  0
  1  3  1  0  0  0  0
  1  7  1  0  0  0  0
  3  4  1  0  0  0  0
  3  5  1  0  0  0  0
  3  6  1  0  0  0  0
  7  8  1  0  0  0  0
  7 12  1  0  0  0  0
  8  9  1  0  0  0  0
  8 11  1  0  0  0  0
  8 13  1  0  0  0  0
  9 10  2  0  0  0  0
  9 17  1  0  0  0  0
 11 14  1  0  0  0  0
 11 15  1  0  0  0  0
 11 16  1  0  0  0  0
 17 18  1  0  0  0  0
 17 26  1  0  0  0  0
 18 19  1  0  0  0  0
 18 21  1  0  0  0  0
 18 27  1  0  0  0  0
 19 20  2  0  0  0  0
 19 33  1  0  0  0  0
 21 22  1  0  0  0  0
 21 28  1  0  0  0  0
 21 29  1  0  0  0  0
 22 23  1  0  0  0  0
 22 30  1  0  0  0  0
 22 31  1  0  0  0  0
 23 24  2  0  0  0  0
 23 25  1  0  0  0  0
 25 32  1  0  0  0  0
 33 34  1  0  0  0  0
 33 38  1  0  0  0  0
 34 35  1  0  0  0  0
 34 37  1  0  0  0  0
 34 39  1  0  0  0  0
 35 36  2  0  0  0  0
 35 43  1  0  0  0  0
 37 40  1  0  0  0  0
 37 41  1  0  0  0  0
 37 42  1  0  0  0  0
 43 44  1  0  0  0  0
 43 45  1  0  0  0  0
 44 46  1  0  0  0  0
 44 47  1  0  0  0  0
 44 48  1  0  0  0  0
M  END
$$$$
