
  -OEChem-02062319033D

 49 48  0     1  0  0  0  0  0999 V2000
   -1.9833   -0.0509   -3.3423 C   0  0  0  0  0  0  0  0  0  0  0  0
   -1.6199   -1.0613   -2.7518 O   0  0  0  0  0  0  0  0  0  0  0  0
   -3.3243   -0.0235   -3.9975 C   0  0  0  0  0  0  0  0  0  0  0  0
   -3.2886   -0.3689   -5.0432 H   0  0  0  0  0  0  0  0  0  0  0  0
   -4.0503   -0.6845   -3.4973 H   0  0  0  0  0  0  0  0  0  0  0  0
   -3.8104    0.9645   -4.0351 H   0  0  0  0  0  0  0  0  0  0  0  0
   -1.2607    1.1231   -3.4768 N   0  0  0  0  0  0  0  0  0  0  0  0
    0.0536    1.3115   -2.9213 C   0  0  2  0  0  0  0  0  0  0  0  0
    0.0266    0.8315   -1.4761 C   0  0  0  0  0  0  0  0  0  0  0  0
   -1.0065    0.7530   -0.8146 O   0  0  0  0  0  0  0  0  0  0  0  0
    0.4852    2.7674   -3.0025 C   0  0  0  0  0  0  0  0  0  0  0  0
   -1.6809    1.8924   -3.9952 H   0  0  0  0  0  0  0  0  0  0  0  0
    0.7360    0.6822   -3.5030 H   0  0  0  0  0  0  0  0  0  0  0  0
   -0.1867    3.4133   -2.4256 H   0  0  0  0  0  0  0  0  0  0  0  0
    1.4966    2.9042   -2.6056 H   0  0  0  0  0  0  0  0  0  0  0  0
    0.4754    3.1196   -4.0397 H   0  0  0  0  0  0  0  0  0  0  0  0
    1.2978    0.5411   -0.9947 N   0  0  0  0  0  0  0  0  0  0  0  0
    1.5359    0.0693    0.3452 C   0  0  2  0  0  0  0  0  0  0  0  0
    1.0174    1.1392    1.2996 C   0  0  0  0  0  0  0  0  0  0  0  0
    0.3045    0.8832    2.2677 O   0  0  0  0  0  0  0  0  0  0  0  0
    3.0224   -0.2041    0.6072 C   0  0  0  0  0  0  0  0  0  0  0  0
    3.5774   -1.3768   -0.2036 C   0  0  0  0  0  0  0  0  0  0  0  0
    5.0535   -1.6342    0.0357 C   0  0  0  0  0  0  0  0  0  0  0  0
    5.7659   -0.9324    0.7475 O   0  0  0  0  0  0  0  0  0  0  0  0
    5.5131   -2.7329   -0.6583 N   0  0  0  0  0  0  0  0  0  0  0  0
    2.0959    0.6263   -1.6203 H   0  0  0  0  0  0  0  0  0  0  0  0
    0.9373   -0.8395    0.4691 H   0  0  0  0  0  0  0  0  0  0  0  0
    3.6034    0.6941    0.3587 H   0  0  0  0  0  0  0  0  0  0  0  0
    3.1881   -0.3879    1.6762 H   0  0  0  0  0  0  0  0  0  0  0  0
    3.4620   -1.1529   -1.2713 H   0  0  0  0  0  0  0  0  0  0  0  0
    3.0117   -2.2930   -0.0004 H   0  0  0  0  0  0  0  0  0  0  0  0
    4.8631   -3.2510   -1.2400 H   0  0  0  0  0  0  0  0  0  0  0  0
    6.4785   -3.0423   -0.6082 H   0  0  0  0  0  0  0  0  0  0  0  0
    1.4044    2.4142    0.9110 N   0  0  0  0  0  0  0  0  0  0  0  0
    1.0291    3.6107    1.6295 C   0  0  2  0  0  0  0  0  0  0  0  0
    1.3254    3.3850    3.1062 C   0  0  0  0  0  0  0  0  0  0  0  0
    1.4134    2.2669    3.6094 O   0  0  0  0  0  0  0  0  0  0  0  0
   -0.4382    3.9478    1.4148 C   0  0  0  0  0  0  0  0  0  0  0  0
    1.9803    2.5112    0.0800 H   0  0  0  0  0  0  0  0  0  0  0  0
    1.6621    4.4198    1.2490 H   0  0  0  0  0  0  0  0  0  0  0  0
   -1.0879    3.1486    1.7899 H   0  0  0  0  0  0  0  0  0  0  0  0
   -0.7139    4.8701    1.9366 H   0  0  0  0  0  0  0  0  0  0  0  0
   -0.6558    4.0805    0.3496 H   0  0  0  0  0  0  0  0  0  0  0  0
    1.4372    4.5791    3.8046 N   0  0  0  0  0  0  0  0  0  0  0  0
    1.7036    4.6307    5.2232 C   0  0  0  0  0  0  0  0  0  0  0  0
    1.3687    5.4597    3.3029 H   0  0  0  0  0  0  0  0  0  0  0  0
    0.7524    4.6729    5.7741 H   0  0  0  0  0  0  0  0  0  0  0  0
    2.2618    3.7319    5.5242 H   0  0  0  0  0  0  0  0  0  0  0  0
    2.2997    5.5264    5.4519 H   0  0  0  0  0  0  0  0  0  0  0  0
  1  3  1  0  0  0  0
  1  7  1  0  0  0  0
  1  2  2  0  0  0  0
 22 23  1  0  0  0  0
 23 25  1  0  0  0  0
 23 24  2  0  0  0  0
 35 36  1  0  0  0  0
 36 44  1  0  0  0  0
 36 37  2  0  0  0  0
  8  9  1  0  0  0  0
  9 17  1  0  0  0  0
  9 10  2  0  0  0  0
 18 19  1  0  0  0  0
 19 34  1  0  0  0  0
 19 20  2  0  0  0  0
 35 38  1  0  0  0  0
  8 11  1  0  0  0  0
 44 45  1  0  0  0  0
 21 22  1  0  0  0  0
 18 21  1  0  0  0  0
 34 35  1  0  0  0  0
  7  8  1  0  0  0  0
 17 18  1  0  0  0  0
  3  4  1  0  0  0  0
  3  5  1  0  0  0  0
  3  6  1  0  0  0  0
 38 41  1  0  0  0  0
 38 42  1  0  0  0  0
 38 43  1  0  0  0  0
 11 14  1  0  0  0  0
 11 15  1  0  0  0  0
 11 16  1  0  0  0  0
 45 47  1  0  0  0  0
 45 48  1  0  0  0  0
 45 49  1  0  0  0  0
 22 30  1  0  0  0  0
 22 31  1  0  0  0  0
 21 28  1  0  0  0  0
 21 29  1  0  0  0  0
 35 40  1  0  0  0  0
  8 13  1  0  0  0  0
 18 27  1  0  0  0  0
 25 32  1  0  0  0  0
 25 33  1  0  0  0  0
 44 46  1  0  0  0  0
  7 12  1  0  0  0  0
 34 39  1  0  0  0  0
 17 26  1  0  0  0  0
M  END
$$$$

  -OEChem-02062319033D

 49 48  0     1  0  0  0  0  0999 V2000
   -1.9833   -0.0509   -3.3423 C   0  0  0  0  0  0  0  0  0  0  0  0
   -1.6199   -1.0613   -2.7518 O   0  0  0  0  0  0  0  0  0  0  0  0
   -3.3243   -0.0235   -3.9975 C   0  0  0  0  0  0  0  0  0  0  0  0
   -3.2886   -0.3689   -5.0432 H   0  0  0  0  0  0  0  0  0  0  0  0
   -4.0503   -0.6845   -3.4973 H   0  0  0  0  0  0  0  0  0  0  0  0
   -3.8104    0.9645   -4.0351 H   0  0  0  0  0  0  0  0  0  0  0  0
   -1.2607    1.1231   -3.4768 N   0  0  0  0  0  0  0  0  0  0  0  0
    0.0536    1.3115   -2.9213 C   0  0  2  0  0  0  0  0  0  0  0  0
    0.0266    0.8315   -1.4761 C   0  0  0  0  0  0  0  0  0  0  0  0
   -1.0065    0.7530   -0.8146 O   0  0  0  0  0  0  0  0  0  0  0  0
    0.4852    2.7674   -3.0025 C   0  0  0  0  0  0  0  0  0  0  0  0
   -1.6809    1.8924   -3.9952 H   0  0  0  0  0  0  0  0  0  0  0  0
    0.7360    0.6822   -3.5030 H   0  0  0  0  0  0  0  0  0  0  0  0
   -0.1867    3.4133   -2.4256 H   0  0  0  0  0  0  0  0  0  0  0  0
    1.4966    2.9042   -2.6056 H   0  0  0  0  0  0  0  0  0  0  0  0
    0.4754    3.1196   -4.0397 H   0  0  0  0  0  0  0  0  0  0  0  0
    1.2978    0.5411   -0.9947 N   0  0  0  0  0  0  0  0  0  0  0  0
    1.5220   -0.2160    0.2099 C   0  0  2  0  0  0  0  0  0  0  0  0
    0.8621    0.5477    1.3527 C   0  0  0  0  0  0  0  0  0  0  0  0
    0.1359    0.0093    2.1855 O   0  0  0  0  0  0  0  0  0  0  0  0
    3.0151   -0.4196    0.4965 C   0  0  0  0  0  0  0  0  0  0  0  0
    3.7148   -1.3141   -0.5287 C   0  0  0  0  0  0  0  0  0  0  0  0
    5.1971   -1.4976   -0.2611 C   0  0  0  0  0  0  0  0  0  0  0  0
    5.8072   -0.9297    0.6400 O   0  0  0  0  0  0  0  0  0  0  0  0
    5.7899   -2.3563   -1.1618 N   0  0  0  0  0  0  0  0  0  0  0  0
    2.1103    0.8395   -1.5298 H   0  0  0  0  0  0  0  0  0  0  0  0
    1.0087   -1.1746    0.0784 H   0  0  0  0  0  0  0  0  0  0  0  0
    3.5173    0.5570    0.5035 H   0  0  0  0  0  0  0  0  0  0  0  0
    3.1513   -0.8393    1.5012 H   0  0  0  0  0  0  0  0  0  0  0  0
    3.6248   -0.8516   -1.5194 H   0  0  0  0  0  0  0  0  0  0  0  0
    3.2316   -2.2960   -0.5829 H   0  0  0  0  0  0  0  0  0  0  0  0
    5.2184   -2.7724   -1.8896 H   0  0  0  0  0  0  0  0  0  0  0  0
    6.7774   -2.5873   -1.1230 H   0  0  0  0  0  0  0  0  0  0  0  0
    1.1412    1.9062    1.2995 N   0  0  0  0  0  0  0  0  0  0  0  0
    0.6219    2.8607    2.2524 C   0  0  2  0  0  0  0  0  0  0  0  0
    0.8743    2.3138    3.6512 C   0  0  0  0  0  0  0  0  0  0  0  0
    1.0475    1.1191    3.8831 O   0  0  0  0  0  0  0  0  0  0  0  0
   -0.8604    3.1161    2.0279 C   0  0  0  0  0  0  0  0  0  0  0  0
    1.7405    2.2467    0.5535 H   0  0  0  0  0  0  0  0  0  0  0  0
    1.1900    3.7870    2.1138 H   0  0  0  0  0  0  0  0  0  0  0  0
   -1.4459    2.1993    2.1624 H   0  0  0  0  0  0  0  0  0  0  0  0
   -1.2458    3.8607    2.7322 H   0  0  0  0  0  0  0  0  0  0  0  0
   -1.0434    3.4812    1.0116 H   0  0  0  0  0  0  0  0  0  0  0  0
    0.8404    3.3113    4.6156 N   0  0  0  0  0  0  0  0  0  0  0  0
    1.0389    3.0440    6.0210 C   0  0  0  0  0  0  0  0  0  0  0  0
    0.7093    4.2774    4.3308 H   0  0  0  0  0  0  0  0  0  0  0  0
    0.0651    2.8741    6.5036 H   0  0  0  0  0  0  0  0  0  0  0  0
    1.6675    2.1490    6.1387 H   0  0  0  0  0  0  0  0  0  0  0  0
    1.5357    3.9054    6.4913 H   0  0  0  0  0  0  0  0  0  0  0  0
  1  3  1  0  0  0  0
  1  7  1  0  0  0  0
  1  2  2  0  0  0  0
 22 23  1  0  0  0  0
 23 25  1  0  0  0  0
 23 24  2  0  0  0  0
 35 36  1  0  0  0  0
 36 44  1  0  0  0  0
 36 37  2  0  0  0  0
  8  9  1  0  0  0  0
  9 17  1  0  0  0  0
  9 10  2  0  0  0  0
 18 19  1  0  0  0  0
 19 34  1  0  0  0  0
 19 20  2  0  0  0  0
 35 38  1  0  0  0  0
  8 11  1  0  0  0  0
 44 45  1  0  0  0  0
 21 22  1  0  0  0  0
 18 21  1  0  0  0  0
 34 35  1  0  0  0  0
  7  8  1  0  0  0  0
 17 18  1  0  0  0  0
  3  4  1  0  0  0  0
  3  5  1  0  0  0  0
  3  6  1  0  0  0  0
 38 41  1  0  0  0  0
 38 42  1  0  0  0  0
 38 43  1  0  0  0  0
 11 14  1  0  0  0  0
 11 15  1  0  0  0  0
 11 16  1  0  0  0  0
 45 47  1  0  0  0  0
 45 48  1  0  0  0  0
 45 49  1  0  0  0  0
 22 30  1  0  0  0  0
 22 31  1  0  0  0  0
 21 28  1  0  0  0  0
 21 29  1  0  0  0  0
 35 40  1  0  0  0  0
  8 13  1  0  0  0  0
 18 27  1  0  0  0  0
 25 32  1  0  0  0  0
 25 33  1  0  0  0  0
 44 46  1  0  0  0  0
  7 12  1  0  0  0  0
 34 39  1  0  0  0  0
 17 26  1  0  0  0  0
M  END
$$$$

  -OEChem-02062319033D

 49 48  0     1  0  0  0  0  0999 V2000
   -1.9833   -0.0509   -3.3423 C   0  0  0  0  0  0  0  0  0  0  0  0
   -1.6199   -1.0613   -2.7518 O   0  0  0  0  0  0  0  0  0  0  0  0
   -3.3243   -0.0235   -3.9975 C   0  0  0  0  0  0  0  0  0  0  0  0
   -3.2886   -0.3689   -5.0432 H   0  0  0  0  0  0  0  0  0  0  0  0
   -4.0503   -0.6845   -3.4973 H   0  0  0  0  0  0  0  0  0  0  0  0
   -3.8104    0.9645   -4.0351 H   0  0  0  0  0  0  0  0  0  0  0  0
   -1.2607    1.1231   -3.4768 N   0  0  0  0  0  0  0  0  0  0  0  0
    0.0536    1.3115   -2.9213 C   0  0  2  0  0  0  0  0  0  0  0  0
    0.0266    0.8315   -1.4761 C   0  0  0  0  0  0  0  0  0  0  0  0
   -1.0065    0.7530   -0.8146 O   0  0  0  0  0  0  0  0  0  0  0  0
    0.4852    2.7674   -3.0025 C   0  0  0  0  0  0  0  0  0  0  0  0
   -1.6809    1.8924   -3.9952 H   0  0  0  0  0  0  0  0  0  0  0  0
    0.7360    0.6822   -3.5030 H   0  0  0  0  0  0  0  0  0  0  0  0
   -0.1867    3.4133   -2.4256 H   0  0  0  0  0  0  0  0  0  0  0  0
    1.4966    2.9042   -2.6056 H   0  0  0  0  0  0  0  0  0  0  0  0
    0.4754    3.1196   -4.0397 H   0  0  0  0  0  0  0  0  0  0  0  0
    1.2978    0.5411   -0.9947 N   0  0  0  0  0  0  0  0  0  0  0  0
    1.5414   -0.4608    0.0110 C   0  0  2  0  0  0  0  0  0  0  0  0
    0.7623   -0.0502    1.2556 C   0  0  0  0  0  0  0  0  0  0  0  0
    0.0558   -0.8306    1.8902 O   0  0  0  0  0  0  0  0  0  0  0  0
    3.0333   -0.6022    0.3381 C   0  0  0  0  0  0  0  0  0  0  0  0
    3.8595   -1.1642   -0.8204 C   0  0  0  0  0  0  0  0  0  0  0  0
    5.3396   -1.2825   -0.5076 C   0  0  0  0  0  0  0  0  0  0  0  0
    5.8527   -0.8979    0.5390 O   0  0  0  0  0  0  0  0  0  0  0  0
    6.0506   -1.8486   -1.5440 N   0  0  0  0  0  0  0  0  0  0  0  0
    2.1003    1.0253   -1.3911 H   0  0  0  0  0  0  0  0  0  0  0  0
    1.1288   -1.3994   -0.3744 H   0  0  0  0  0  0  0  0  0  0  0  0
    3.4385    0.3827    0.6063 H   0  0  0  0  0  0  0  0  0  0  0  0
    3.1656   -1.2372    1.2232 H   0  0  0  0  0  0  0  0  0  0  0  0
    3.7684   -0.4874   -1.6789 H   0  0  0  0  0  0  0  0  0  0  0  0
    3.4758   -2.1413   -1.1343 H   0  0  0  0  0  0  0  0  0  0  0  0
    5.5539   -2.1245   -2.3846 H   0  0  0  0  0  0  0  0  0  0  0  0
    7.0532   -1.9992   -1.4965 H   0  0  0  0  0  0  0  0  0  0  0  0
    0.9115    1.3000    1.5404 N   0  0  0  0  0  0  0  0  0  0  0  0
    0.2620    1.9523    2.6545 C   0  0  2  0  0  0  0  0  0  0  0  0
    0.5050    1.1096    3.8996 C   0  0  0  0  0  0  0  0  0  0  0  0
    0.7822   -0.0872    3.8560 O   0  0  0  0  0  0  0  0  0  0  0  0
   -1.2268    2.1299    2.4004 C   0  0  0  0  0  0  0  0  0  0  0  0
    1.5070    1.8576    0.9354 H   0  0  0  0  0  0  0  0  0  0  0  0
    0.7439    2.9288    2.7739 H   0  0  0  0  0  0  0  0  0  0  0  0
   -1.7267    1.1621    2.2782 H   0  0  0  0  0  0  0  0  0  0  0  0
   -1.7122    2.6498    3.2330 H   0  0  0  0  0  0  0  0  0  0  0  0
   -1.3999    2.7110    1.4882 H   0  0  0  0  0  0  0  0  0  0  0  0
    0.3337    1.8412    5.0665 N   0  0  0  0  0  0  0  0  0  0  0  0
    0.4960    1.2630    6.3801 C   0  0  0  0  0  0  0  0  0  0  0  0
    0.1228    2.8331    5.0081 H   0  0  0  0  0  0  0  0  0  0  0  0
   -0.4769    0.9022    6.7452 H   0  0  0  0  0  0  0  0  0  0  0  0
    1.2020    0.4212    6.3254 H   0  0  0  0  0  0  0  0  0  0  0  0
    0.8868    2.0251    7.0703 H   0  0  0  0  0  0  0  0  0  0  0  0
  1  3  1  0  0  0  0
  1  7  1  0  0  0  0
  1  2  2  0  0  0  0
 22 23  1  0  0  0  0
 23 25  1  0  0  0  0
 23 24  2  0  0  0  0
 35 36  1  0  0  0  0
 36 44  1  0  0  0  0
 36 37  2  0  0  0  0
  8  9  1  0  0  0  0
  9 17  1  0  0  0  0
  9 10  2  0  0  0  0
 18 19  1  0  0  0  0
 19 34  1  0  0  0  0
 19 20  2  0  0  0  0
 35 38  1  0  0  0  0
  8 11  1  0  0  0  0
 44 45  1  0  0  0  0
 21 22  1  0  0  0  0
 18 21  1  0  0  0  0
 34 35  1  0  0  0  0
  7  8  1  0  0  0  0
 17 18  1  0  0  0  0
  3  4  1  0  0  0  0
  3  5  1  0  0  0  0
  3  6  1  0  0  0  0
 38 41  1  0  0  0  0
 38 42  1  0  0  0  0
 38 43  1  0  0  0  0
 11 14  1  0  0  0  0
 11 15  1  0  0  0  0
 11 16  1  0  0  0  0
 45 47  1  0  0  0  0
 45 48  1  0  0  0  0
 45 49  1  0  0  0  0
 22 30  1  0  0  0  0
 22 31  1  0  0  0  0
 21 28  1  0  0  0  0
 21 29  1  0  0  0  0
 35 40  1  0  0  0  0
  8 13  1  0  0  0  0
 18 27  1  0  0  0  0
 25 32  1  0  0  0  0
 25 33  1  0  0  0  0
 44 46  1  0  0  0  0
  7 12  1  0  0  0  0
 34 39  1  0  0  0  0
 17 26  1  0  0  0  0
M  END
$$$$

  -OEChem-02062319033D

 49 48  0     1  0  0  0  0  0999 V2000
   -1.9833   -0.0509   -3.3423 C   0  0  0  0  0  0  0  0  0  0  0  0
   -1.6199   -1.0613   -2.7518 O   0  0  0  0  0  0  0  0  0  0  0  0
   -3.3243   -0.0235   -3.9975 C   0  0  0  0  0  0  0  0  0  0  0  0
   -3.2886   -0.3689   -5.0432 H   0  0  0  0  0  0  0  0  0  0  0  0
   -4.0503   -0.6845   -3.4973 H   0  0  0  0  0  0  0  0  0  0  0  0
   -3.8104    0.9645   -4.0351 H   0  0  0  0  0  0  0  0  0  0  0  0
   -1.2607    1.1231   -3.4768 N   0  0  0  0  0  0  0  0  0  0  0  0
    0.0536    1.3115   -2.9213 C   0  0  2  0  0  0  0  0  0  0  0  0
    0.0266    0.8315   -1.4761 C   0  0  0  0  0  0  0  0  0  0  0  0
   -1.0065    0.7530   -0.8146 O   0  0  0  0  0  0  0  0  0  0  0  0
    0.4852    2.7674   -3.0025 C   0  0  0  0  0  0  0  0  0  0  0  0
   -1.6809    1.8924   -3.9952 H   0  0  0  0  0  0  0  0  0  0  0  0
    0.7360    0.6822   -3.5030 H   0  0  0  0  0  0  0  0  0  0  0  0
   -0.1867    3.4133   -2.4256 H   0  0  0  0  0  0  0  0  0  0  0  0
    1.4966    2.9042   -2.6056 H   0  0  0  0  0  0  0  0  0  0  0  0
    0.4754    3.1196   -4.0397 H   0  0  0  0  0  0  0  0  0  0  0  0
    1.2978    0.5411   -0.9947 N   0  0  0  0  0  0  0  0  0  0  0  0
    1.5928   -0.6485   -0.2381 C   0  0  2  0  0  0  0  0  0  0  0  0
    0.7247   -0.6136    1.0148 C   0  0  0  0  0  0  0  0  0  0  0  0
    0.0697   -1.5791    1.4018 O   0  0  0  0  0  0  0  0  0  0  0  0
    3.0758   -0.7395    0.1430 C   0  0  0  0  0  0  0  0  0  0  0  0
    4.0016   -0.9374   -1.0589 C   0  0  0  0  0  0  0  0  0  0  0  0
    5.4713   -1.0036   -0.6872 C   0  0  0  0  0  0  0  0  0  0  0  0
    5.8993   -0.8393    0.4515 O   0  0  0  0  0  0  0  0  0  0  0  0
    6.2777   -1.2443   -1.7789 N   0  0  0  0  0  0  0  0  0  0  0  0
    2.0664    1.1710   -1.2138 H   0  0  0  0  0  0  0  0  0  0  0  0
    1.2894   -1.4986   -0.8585 H   0  0  0  0  0  0  0  0  0  0  0  0
    3.3725    0.1828    0.6601 H   0  0  0  0  0  0  0  0  0  0  0  0
    3.2301   -1.5545    0.8614 H   0  0  0  0  0  0  0  0  0  0  0  0
    3.8832   -0.0848   -1.7390 H   0  0  0  0  0  0  0  0  0  0  0  0
    3.7276   -1.8395   -1.6172 H   0  0  0  0  0  0  0  0  0  0  0  0
    5.8466   -1.3515   -2.6911 H   0  0  0  0  0  0  0  0  0  0  0  0
    7.2871   -1.3181   -1.7031 H   0  0  0  0  0  0  0  0  0  0  0  0
    0.7309    0.6369    1.6170 N   0  0  0  0  0  0  0  0  0  0  0  0
   -0.0259    0.9475    2.8085 C   0  0  2  0  0  0  0  0  0  0  0  0
    0.2429   -0.1454    3.8346 C   0  0  0  0  0  0  0  0  0  0  0  0
    0.6354   -1.2697    3.5299 O   0  0  0  0  0  0  0  0  0  0  0  0
   -1.5125    1.0563    2.5070 C   0  0  0  0  0  0  0  0  0  0  0  0
    1.2957    1.3705    1.1994 H   0  0  0  0  0  0  0  0  0  0  0  0
    0.3543    1.9036    3.1843 H   0  0  0  0  0  0  0  0  0  0  0  0
   -1.9113    0.1077    2.1293 H   0  0  0  0  0  0  0  0  0  0  0  0
   -2.0812    1.3197    3.4049 H   0  0  0  0  0  0  0  0  0  0  0  0
   -1.7010    1.8222    1.7470 H   0  0  0  0  0  0  0  0  0  0  0  0
   -0.0483    0.2690    5.1267 N   0  0  0  0  0  0  0  0  0  0  0  0
    0.1118   -0.5910    6.2760 C   0  0  0  0  0  0  0  0  0  0  0  0
   -0.3509    1.2250    5.2887 H   0  0  0  0  0  0  0  0  0  0  0  0
   -0.8368   -1.1082    6.4826 H   0  0  0  0  0  0  0  0  0  0  0  0
    0.8971   -1.3336    6.0715 H   0  0  0  0  0  0  0  0  0  0  0  0
    0.3973    0.0137    7.1494 H   0  0  0  0  0  0  0  0  0  0  0  0
  1  3  1  0  0  0  0
  1  7  1  0  0  0  0
  1  2  2  0  0  0  0
 22 23  1  0  0  0  0
 23 25  1  0  0  0  0
 23 24  2  0  0  0  0
 35 36  1  0  0  0  0
 36 44  1  0  0  0  0
 36 37  2  0  0  0  0
  8  9  1  0  0  0  0
  9 17  1  0  0  0  0
  9 10  2  0  0  0  0
 18 19  1  0  0  0  0
 19 34  1  0  0  0  0
 19 20  2  0  0  0  0
 35 38  1  0  0  0  0
  8 11  1  0  0  0  0
 44 45  1  0  0  0  0
 21 22  1  0  0  0  0
 18 21  1  0  0  0  0
 34 35  1  0  0  0  0
  7  8  1  0  0  0  0
 17 18  1  0  0  0  0
  3  4  1  0  0  0  0
  3  5  1  0  0  0  0
  3  6  1  0  0  0  0
 38 41  1  0  0  0  0
 38 42  1  0  0  0  0
 38 43  1  0  0  0  0
 11 14  1  0  0  0  0
 11 15  1  0  0  0  0
 11 16  1  0  0  0  0
 45 47  1  0  0  0  0
 45 48  1  0  0  0  0
 45 49  1  0  0  0  0
 22 30  1  0  0  0  0
 22 31  1  0  0  0  0
 21 28  1  0  0  0  0
 21 29  1  0  0  0  0
 35 40  1  0  0  0  0
  8 13  1  0  0  0  0
 18 27  1  0  0  0  0
 25 32  1  0  0  0  0
 25 33  1  0  0  0  0
 44 46  1  0  0  0  0
  7 12  1  0  0  0  0
 34 39  1  0  0  0  0
 17 26  1  0  0  0  0
M  END
$$$$

  -OEChem-02062319033D

 49 48  0     1  0  0  0  0  0999 V2000
   -1.9833   -0.0509   -3.3423 C   0  0  0  0  0  0  0  0  0  0  0  0
   -1.6199   -1.0613   -2.7518 O   0  0  0  0  0  0  0  0  0  0  0  0
   -3.3243   -0.0235   -3.9975 C   0  0  0  0  0  0  0  0  0  0  0  0
   -3.2886   -0.3689   -5.0432 H   0  0  0  0  0  0  0  0  0  0  0  0
   -4.0503   -0.6845   -3.4973 H   0  0  0  0  0  0  0  0  0  0  0  0
   -3.8104    0.9645   -4.0351 H   0  0  0  0  0  0  0  0  0  0  0  0
   -1.2607    1.1231   -3.4768 N   0  0  0  0  0  0  0  0  0  0  0  0
    0.0536    1.3115   -2.9213 C   0  0  2  0  0  0  0  0  0  0  0  0
    0.0266    0.8315   -1.4761 C   0  0  0  0  0  0  0  0  0  0  0  0
   -1.0065    0.7530   -0.8146 O   0  0  0  0  0  0  0  0  0  0  0  0
    0.4852    2.7674   -3.0025 C   0  0  0  0  0  0  0  0  0  0  0  0
   -1.6809    1.8924   -3.9952 H   0  0  0  0  0  0  0  0  0  0  0  0
    0.7360    0.6822   -3.5030 H   0  0  0  0  0  0  0  0  0  0  0  0
   -0.1867    3.4133   -2.4256 H   0  0  0  0  0  0  0  0  0  0  0  0
    1.4966    2.9042   -2.6056 H   0  0  0  0  0  0  0  0  0  0  0  0
    0.4754    3.1196   -4.0397 H   0  0  0  0  0  0  0  0  0  0  0  0
    1.2978    0.5411   -0.9947 N   0  0  0  0  0  0  0  0  0  0  0  0
    1.6728   -0.7662   -0.5203 C   0  0  2  0  0  0  0  0  0  0  0  0
    0.7519   -1.1043    0.6469 C   0  0  0  0  0  0  0  0  0  0  0  0
    0.1767   -2.1853    0.7537 O   0  0  0  0  0  0  0  0  0  0  0  0
    3.1398   -0.8221   -0.0758 C   0  0  0  0  0  0  0  0  0  0  0  0
    4.1315   -0.6491   -1.2278 C   0  0  0  0  0  0  0  0  0  0  0  0
    5.5832   -0.6800   -0.7875 C   0  0  0  0  0  0  0  0  0  0  0  0
    5.9438   -0.7577    0.3833 O   0  0  0  0  0  0  0  0  0  0  0  0
    6.4555   -0.5846   -1.8505 N   0  0  0  0  0  0  0  0  0  0  0  0
    2.0111    1.2667   -1.0098 H   0  0  0  0  0  0  0  0  0  0  0  0
    1.4797   -1.4654   -1.3409 H   0  0  0  0  0  0  0  0  0  0  0  0
    3.3237   -0.0288    0.6611 H   0  0  0  0  0  0  0  0  0  0  0  0
    3.3405   -1.7695    0.4402 H   0  0  0  0  0  0  0  0  0  0  0  0
    3.9612    0.3285   -1.6956 H   0  0  0  0  0  0  0  0  0  0  0  0
    3.9699   -1.4111   -1.9985 H   0  0  0  0  0  0  0  0  0  0  0  0
    6.0767   -0.5060   -2.7885 H   0  0  0  0  0  0  0  0  0  0  0  0
    7.4631   -0.5902   -1.7287 H   0  0  0  0  0  0  0  0  0  0  0  0
    0.6118   -0.0380    1.5244 N   0  0  0  0  0  0  0  0  0  0  0  0
   -0.2222   -0.0854    2.7037 C   0  0  2  0  0  0  0  0  0  0  0  0
    0.1057   -1.3657    3.4605 C   0  0  0  0  0  0  0  0  0  0  0  0
    0.6174   -2.3479    2.9271 O   0  0  0  0  0  0  0  0  0  0  0  0
   -1.6979   -0.0316    2.3403 C   0  0  0  0  0  0  0  0  0  0  0  0
    1.1210    0.8185    1.3278 H   0  0  0  0  0  0  0  0  0  0  0  0
    0.0476    0.7813    3.3169 H   0  0  0  0  0  0  0  0  0  0  0  0
   -1.9870   -0.8921    1.7259 H   0  0  0  0  0  0  0  0  0  0  0  0
   -2.3277   -0.0388    3.2361 H   0  0  0  0  0  0  0  0  0  0  0  0
   -1.9261    0.8755    1.7703 H   0  0  0  0  0  0  0  0  0  0  0  0
   -0.2797   -1.2981    4.7921 N   0  0  0  0  0  0  0  0  0  0  0  0
   -0.0876   -2.3916    5.7158 C   0  0  0  0  0  0  0  0  0  0  0  0
   -0.6795   -0.4371    5.1535 H   0  0  0  0  0  0  0  0  0  0  0  0
   -0.9901   -3.0202    5.7335 H   0  0  0  0  0  0  0  0  0  0  0  0
    0.7737   -2.9958    5.3945 H   0  0  0  0  0  0  0  0  0  0  0  0
    0.1004   -1.9918    6.7232 H   0  0  0  0  0  0  0  0  0  0  0  0
  1  3  1  0  0  0  0
  1  7  1  0  0  0  0
  1  2  2  0  0  0  0
 22 23  1  0  0  0  0
 23 25  1  0  0  0  0
 23 24  2  0  0  0  0
 35 36  1  0  0  0  0
 36 44  1  0  0  0  0
 36 37  2  0  0  0  0
  8  9  1  0  0  0  0
  9 17  1  0  0  0  0
  9 10  2  0  0  0  0
 18 19  1  0  0  0  0
 19 34  1  0  0  0  0
 19 20  2  0  0  0  0
 35 38  1  0  0  0  0
  8 11  1  0  0  0  0
 44 45  1  0  0  0  0
 21 22  1  0  0  0  0
 18 21  1  0  0  0  0
 34 35  1  0  0  0  0
  7  8  1  0  0  0  0
 17 18  1  0  0  0  0
  3  4  1  0  0  0  0
  3  5  1  0  0  0  0
  3  6  1  0  0  0  0
 38 41  1  0  0  0  0
 38 42  1  0  0  0  0
 38 43  1  0  0  0  0
 11 14  1  0  0  0  0
 11 15  1  0  0  0  0
 11 16  1  0  0  0  0
 45 47  1  0  0  0  0
 45 48  1  0  0  0  0
 45 49  1  0  0  0  0
 22 30  1  0  0  0  0
 22 31  1  0  0  0  0
 21 28  1  0  0  0  0
 21 29  1  0  0  0  0
 35 40  1  0  0  0  0
  8 13  1  0  0  0  0
 18 27  1  0  0  0  0
 25 32  1  0  0  0  0
 25 33  1  0  0  0  0
 44 46  1  0  0  0  0
  7 12  1  0  0  0  0
 34 39  1  0  0  0  0
 17 26  1  0  0  0  0
M  END
$$$$

  -OEChem-02062319033D

 49 48  0     1  0  0  0  0  0999 V2000
   -1.9833   -0.0509   -3.3423 C   0  0  0  0  0  0  0  0  0  0  0  0
   -1.6199   -1.0613   -2.7518 O   0  0  0  0  0  0  0  0  0  0  0  0
   -3.3243   -0.0235   -3.9975 C   0  0  0  0  0  0  0  0  0  0  0  0
   -3.2886   -0.3689   -5.0432 H   0  0  0  0  0  0  0  0  0  0  0  0
   -4.0503   -0.6845   -3.4973 H   0  0  0  0  0  0  0  0  0  0  0  0
   -3.8104    0.9645   -4.0351 H   0  0  0  0  0  0  0  0  0  0  0  0
   -1.2607    1.1231   -3.4768 N   0  0  0  0  0  0  0  0  0  0  0  0
    0.0536    1.3115   -2.9213 C   0  0  2  0  0  0  0  0  0  0  0  0
    0.0266    0.8315   -1.4761 C   0  0  0  0  0  0  0  0  0  0  0  0
   -1.0065    0.7530   -0.8146 O   0  0  0  0  0  0  0  0  0  0  0  0
    0.4852    2.7674   -3.0025 C   0  0  0  0  0  0  0  0  0  0  0  0
   -1.6809    1.8924   -3.9952 H   0  0  0  0  0  0  0  0  0  0  0  0
    0.7360    0.6822   -3.5030 H   0  0  0  0  0  0  0  0  0  0  0  0
   -0.1867    3.4133   -2.4256 H   0  0  0  0  0  0  0  0  0  0  0  0
    1.4966    2.9042   -2.6056 H   0  0  0  0  0  0  0  0  0  0  0  0
    0.4754    3.1196   -4.0397 H   0  0  0  0  0  0  0  0  0  0  0  0
    1.2978    0.5411   -0.9947 N   0  0  0  0  0  0  0  0  0  0  0  0
    1.7758   -0.8059   -0.8164 C   0  0  2  0  0  0  0  0  0  0  0  0
    0.8421   -1.4887    0.1769 C   0  0  0  0  0  0  0  0  0  0  0  0
    0.3694   -2.6078   -0.0101 O   0  0  0  0  0  0  0  0  0  0  0  0
    3.2208   -0.8443   -0.3031 C   0  0  0  0  0  0  0  0  0  0  0  0
    4.2402   -0.3191   -1.3158 C   0  0  0  0  0  0  0  0  0  0  0  0
    5.6678   -0.3335   -0.8017 C   0  0  0  0  0  0  0  0  0  0  0  0
    5.9831   -0.6588    0.3392 O   0  0  0  0  0  0  0  0  0  0  0  0
    6.5720    0.0855   -1.7539 N   0  0  0  0  0  0  0  0  0  0  0  0
    1.9380    1.3060   -0.7931 H   0  0  0  0  0  0  0  0  0  0  0  0
    1.6866   -1.3021   -1.7887 H   0  0  0  0  0  0  0  0  0  0  0  0
    3.2955   -0.2379    0.6094 H   0  0  0  0  0  0  0  0  0  0  0  0
    3.4891   -1.8676   -0.0115 H   0  0  0  0  0  0  0  0  0  0  0  0
    3.9971    0.7244   -1.5516 H   0  0  0  0  0  0  0  0  0  0  0  0
    4.1861   -0.8853   -2.2523 H   0  0  0  0  0  0  0  0  0  0  0  0
    6.2284    0.3544   -2.6699 H   0  0  0  0  0  0  0  0  0  0  0  0
    7.5693    0.1347   -1.5717 H   0  0  0  0  0  0  0  0  0  0  0  0
    0.5623   -0.6787    1.2687 N   0  0  0  0  0  0  0  0  0  0  0  0
   -0.3136   -1.0759    2.3475 C   0  0  2  0  0  0  0  0  0  0  0  0
    0.1028   -2.4682    2.8030 C   0  0  0  0  0  0  0  0  0  0  0  0
    0.7291   -3.2483    2.0886 O   0  0  0  0  0  0  0  0  0  0  0  0
   -1.7706   -1.0596    1.9118 C   0  0  0  0  0  0  0  0  0  0  0  0
    0.9948    0.2393    1.3117 H   0  0  0  0  0  0  0  0  0  0  0  0
   -0.1552   -0.3616    3.1628 H   0  0  0  0  0  0  0  0  0  0  0  0
   -1.9486   -1.7691    1.0955 H   0  0  0  0  0  0  0  0  0  0  0  0
   -2.4349   -1.3331    2.7382 H   0  0  0  0  0  0  0  0  0  0  0  0
   -2.0600   -0.0647    1.5565 H   0  0  0  0  0  0  0  0  0  0  0  0
   -0.3446   -2.7533    4.0854 N   0  0  0  0  0  0  0  0  0  0  0  0
   -0.0884   -4.0162    4.7378 C   0  0  0  0  0  0  0  0  0  0  0  0
   -0.8406   -2.0400    4.6117 H   0  0  0  0  0  0  0  0  0  0  0  0
   -0.9262   -4.7035    4.5491 H   0  0  0  0  0  0  0  0  0  0  0  0
    0.8401   -4.4522    4.3405 H   0  0  0  0  0  0  0  0  0  0  0  0
    0.0165   -3.8547    5.8208 H   0  0  0  0  0  0  0  0  0  0  0  0
  1  3  1  0  0  0  0
  1  7  1  0  0  0  0
  1  2  2  0  0  0  0
 22 23  1  0  0  0  0
 23 25  1  0  0  0  0
 23 24  2  0  0  0  0
 35 36  1  0  0  0  0
 36 44  1  0  0  0  0
 36 37  2  0  0  0  0
  8  9  1  0  0  0  0
  9 17  1  0  0  0  0
  9 10  2  0  0  0  0
 18 19  1  0  0  0  0
 19 34  1  0  0  0  0
 19 20  2  0  0  0  0
 35 38  1  0  0  0  0
  8 11  1  0  0  0  0
 44 45  1  0  0  0  0
 21 22  1  0  0  0  0
 18 21  1  0  0  0  0
 34 35  1  0  0  0  0
  7  8  1  0  0  0  0
 17 18  1  0  0  0  0
  3  4  1  0  0  0  0
  3  5  1  0  0  0  0
  3  6  1  0  0  0  0
 38 41  1  0  0  0  0
 38 42  1  0  0  0  0
 38 43  1  0  0  0  0
 11 14  1  0  0  0  0
 11 15  1  0  0  0  0
 11 16  1  0  0  0  0
 45 47  1  0  0  0  0
 45 48  1  0  0  0  0
 45 49  1  0  0  0  0
 22 30  1  0  0  0  0
 22 31  1  0  0  0  0
 21 28  1  0  0  0  0
 21 29  1  0  0  0  0
 35 40  1  0  0  0  0
  8 13  1  0  0  0  0
 18 27  1  0  0  0  0
 25 32  1  0  0  0  0
 25 33  1  0  0  0  0
 44 46  1  0  0  0  0
  7 12  1  0  0  0  0
 34 39  1  0  0  0  0
 17 26  1  0  0  0  0
M  END
$$$$

  -OEChem-02062319033D

 49 48  0     1  0  0  0  0  0999 V2000
   -1.9833   -0.0509   -3.3423 C   0  0  0  0  0  0  0  0  0  0  0  0
   -1.6199   -1.0613   -2.7518 O   0  0  0  0  0  0  0  0  0  0  0  0
   -3.3243   -0.0235   -3.9975 C   0  0  0  0  0  0  0  0  0  0  0  0
   -3.2886   -0.3689   -5.0432 H   0  0  0  0  0  0  0  0  0  0  0  0
   -4.0503   -0.6845   -3.4973 H   0  0  0  0  0  0  0  0  0  0  0  0
   -3.8104    0.9645   -4.0351 H   0  0  0  0  0  0  0  0  0  0  0  0
   -1.2607    1.1231   -3.4768 N   0  0  0  0  0  0  0  0  0  0  0  0
    0.0536    1.3115   -2.9213 C   0  0  2  0  0  0  0  0  0  0  0  0
    0.0266    0.8315   -1.4761 C   0  0  0  0  0  0  0  0  0  0  0  0
   -1.0065    0.7530   -0.8146 O   0  0  0  0  0  0  0  0  0  0  0  0
    0.4852    2.7674   -3.0025 C   0  0  0  0  0  0  0  0  0  0  0  0
   -1.6809    1.8924   -3.9952 H   0  0  0  0  0  0  0  0  0  0  0  0
    0.7360    0.6822   -3.5030 H   0  0  0  0  0  0  0  0  0  0  0  0
   -0.1867    3.4133   -2.4256 H   0  0  0  0  0  0  0  0  0  0  0  0
    1.4966    2.9042   -2.6056 H   0  0  0  0  0  0  0  0  0  0  0  0
    0.4754    3.1196   -4.0397 H   0  0  0  0  0  0  0  0  0  0  0  0
    1.2978    0.5411   -0.9947 N   0  0  0  0  0  0  0  0  0  0  0  0
    1.8949   -0.7649   -1.1062 C   0  0  2  0  0  0  0  0  0  0  0  0
    0.9890   -1.7406   -0.3633 C   0  0  0  0  0  0  0  0  0  0  0  0
    0.6347   -2.8179   -0.8375 O   0  0  0  0  0  0  0  0  0  0  0  0
    3.3133   -0.8047   -0.5236 C   0  0  0  0  0  0  0  0  0  0  0  0
    4.3204    0.0303   -1.3168 C   0  0  0  0  0  0  0  0  0  0  0  0
    5.7191    0.0120   -0.7288 C   0  0  0  0  0  0  0  0  0  0  0  0
    6.0146   -0.5493    0.3221 O   0  0  0  0  0  0  0  0  0  0  0  0
    6.6193    0.7203   -1.4957 N   0  0  0  0  0  0  0  0  0  0  0  0
    1.8521    1.2860   -0.5784 H   0  0  0  0  0  0  0  0  0  0  0  0
    1.8960   -1.0198   -2.1714 H   0  0  0  0  0  0  0  0  0  0  0  0
    3.2899   -0.4301    0.5085 H   0  0  0  0  0  0  0  0  0  0  0  0
    3.6659   -1.8421   -0.4630 H   0  0  0  0  0  0  0  0  0  0  0  0
    3.9885    1.0760   -1.3168 H   0  0  0  0  0  0  0  0  0  0  0  0
    4.3616   -0.2980   -2.3613 H   0  0  0  0  0  0  0  0  0  0  0  0
    6.2913    1.1709   -2.3435 H   0  0  0  0  0  0  0  0  0  0  0  0
    7.5984    0.8072   -1.2428 H   0  0  0  0  0  0  0  0  0  0  0  0
    0.5856   -1.2414    0.8674 N   0  0  0  0  0  0  0  0  0  0  0  0
   -0.2939   -1.9565    1.7639 C   0  0  2  0  0  0  0  0  0  0  0  0
    0.2344   -3.3778    1.9067 C   0  0  0  0  0  0  0  0  0  0  0  0
    0.9631   -3.9096    1.0717 O   0  0  0  0  0  0  0  0  0  0  0  0
   -1.7254   -1.9577    1.2507 C   0  0  0  0  0  0  0  0  0  0  0  0
    0.9256   -0.3276    1.1521 H   0  0  0  0  0  0  0  0  0  0  0  0
   -0.2403   -1.4473    2.7324 H   0  0  0  0  0  0  0  0  0  0  0  0
   -1.7989   -2.4636    0.2811 H   0  0  0  0  0  0  0  0  0  0  0  0
   -2.3955   -2.4751    1.9451 H   0  0  0  0  0  0  0  0  0  0  0  0
   -2.0935   -0.9343    1.1203 H   0  0  0  0  0  0  0  0  0  0  0  0
   -0.2386   -3.9975    3.0549 N   0  0  0  0  0  0  0  0  0  0  0  0
    0.1093   -5.3539    3.4085 C   0  0  0  0  0  0  0  0  0  0  0  0
   -0.8232   -3.4746    3.7003 H   0  0  0  0  0  0  0  0  0  0  0  0
   -0.6496   -6.0434    3.0101 H   0  0  0  0  0  0  0  0  0  0  0  0
    1.0917   -5.6036    2.9812 H   0  0  0  0  0  0  0  0  0  0  0  0
    0.1512   -5.4480    4.5036 H   0  0  0  0  0  0  0  0  0  0  0  0
  1  3  1  0  0  0  0
  1  7  1  0  0  0  0
  1  2  2  0  0  0  0
 22 23  1  0  0  0  0
 23 25  1  0  0  0  0
 23 24  2  0  0  0  0
 35 36  1  0  0  0  0
 36 44  1  0  0  0  0
 36 37  2  0  0  0  0
  8  9  1  0  0  0  0
  9 17  1  0  0  0  0
  9 10  2  0  0  0  0
 18 19  1  0  0  0  0
 19 34  1  0  0  0  0
 19 20  2  0  0  0  0
 35 38  1  0  0  0  0
  8 11  1  0  0  0  0
 44 45  1  0  0  0  0
 21 22  1  0  0  0  0
 18 21  1  0  0  0  0
 34 35  1  0  0  0  0
  7  8  1  0  0  0  0
 17 18  1  0  0  0  0
  3  4  1  0  0  0  0
  3  5  1  0  0  0  0
  3  6  1  0  0  0  0
 38 41  1  0  0  0  0
 38 42  1  0  0  0  0
 38 43  1  0  0  0  0
 11 14  1  0  0  0  0
 11 15  1  0  0  0  0
 11 16  1  0  0  0  0
 45 47  1  0  0  0  0
 45 48  1  0  0  0  0
 45 49  1  0  0  0  0
 22 30  1  0  0  0  0
 22 31  1  0  0  0  0
 21 28  1  0  0  0  0
 21 29  1  0  0  0  0
 35 40  1  0  0  0  0
  8 13  1  0  0  0  0
 18 27  1  0  0  0  0
 25 32  1  0  0  0  0
 25 33  1  0  0  0  0
 44 46  1  0  0  0  0
  7 12  1  0  0  0  0
 34 39  1  0  0  0  0
 17 26  1  0  0  0  0
M  END
$$$$

  -OEChem-02062319033D

 49 48  0     1  0  0  0  0  0999 V2000
   -1.9833   -0.0509   -3.3423 C   0  0  0  0  0  0  0  0  0  0  0  0
   -1.6199   -1.0613   -2.7518 O   0  0  0  0  0  0  0  0  0  0  0  0
   -3.3243   -0.0235   -3.9975 C   0  0  0  0  0  0  0  0  0  0  0  0
   -3.2886   -0.3689   -5.0432 H   0  0  0  0  0  0  0  0  0  0  0  0
   -4.0503   -0.6845   -3.4973 H   0  0  0  0  0  0  0  0  0  0  0  0
   -3.8104    0.9645   -4.0351 H   0  0  0  0  0  0  0  0  0  0  0  0
   -1.2607    1.1231   -3.4768 N   0  0  0  0  0  0  0  0  0  0  0  0
    0.0536    1.3115   -2.9213 C   0  0  2  0  0  0  0  0  0  0  0  0
    0.0266    0.8315   -1.4761 C   0  0  0  0  0  0  0  0  0  0  0  0
   -1.0065    0.7530   -0.8146 O   0  0  0  0  0  0  0  0  0  0  0  0
    0.4852    2.7674   -3.0025 C   0  0  0  0  0  0  0  0  0  0  0  0
   -1.6809    1.8924   -3.9952 H   0  0  0  0  0  0  0  0  0  0  0  0
    0.7360    0.6822   -3.5030 H   0  0  0  0  0  0  0  0  0  0  0  0
   -0.1867    3.4133   -2.4256 H   0  0  0  0  0  0  0  0  0  0  0  0
    1.4966    2.9042   -2.6056 H   0  0  0  0  0  0  0  0  0  0  0  0
    0.4754    3.1196   -4.0397 H   0  0  0  0  0  0  0  0  0  0  0  0
    1.2978    0.5411   -0.9947 N   0  0  0  0  0  0  0  0  0  0  0  0
    2.0220   -0.6461   -1.3701 C   0  0  2  0  0  0  0  0  0  0  0  0
    1.1828   -1.8430   -0.9367 C   0  0  0  0  0  0  0  0  0  0  0  0
    0.9545   -2.8011   -1.6720 O   0  0  0  0  0  0  0  0  0  0  0  0
    3.4111   -0.7060   -0.7222 C   0  0  0  0  0  0  0  0  0  0  0  0
    4.3666    0.3752   -1.2306 C   0  0  0  0  0  0  0  0  0  0  0  0
    5.7338    0.3332   -0.5739 C   0  0  0  0  0  0  0  0  0  0  0  0
    6.0361   -0.4366    0.3332 O   0  0  0  0  0  0  0  0  0  0  0  0
    6.5941    1.2766   -1.0935 N   0  0  0  0  0  0  0  0  0  0  0  0
    1.7594    1.2083   -0.3805 H   0  0  0  0  0  0  0  0  0  0  0  0
    2.0937   -0.6378   -2.4629 H   0  0  0  0  0  0  0  0  0  0  0  0
    3.3070   -0.5924    0.3651 H   0  0  0  0  0  0  0  0  0  0  0  0
    3.8588   -1.6948   -0.8836 H   0  0  0  0  0  0  0  0  0  0  0  0
    3.9360    1.3592   -1.0073 H   0  0  0  0  0  0  0  0  0  0  0  0
    4.4843    0.3109   -2.3181 H   0  0  0  0  0  0  0  0  0  0  0  0
    6.2613    1.8881   -1.8316 H   0  0  0  0  0  0  0  0  0  0  0  0
    7.5484    1.3816   -0.7642 H   0  0  0  0  0  0  0  0  0  0  0  0
    0.6804   -1.6879    0.3478 N   0  0  0  0  0  0  0  0  0  0  0  0
   -0.1643   -2.6672    0.9929 C   0  0  2  0  0  0  0  0  0  0  0  0
    0.4915   -4.0324    0.8327 C   0  0  0  0  0  0  0  0  0  0  0  0
    1.3035   -4.2866   -0.0545 O   0  0  0  0  0  0  0  0  0  0  0  0
   -1.5655   -2.6646    0.4019 C   0  0  0  0  0  0  0  0  0  0  0  0
    0.9183   -0.8437    0.8601 H   0  0  0  0  0  0  0  0  0  0  0  0
   -0.2019   -2.4018    2.0551 H   0  0  0  0  0  0  0  0  0  0  0  0
   -1.5480   -2.9282   -0.6619 H   0  0  0  0  0  0  0  0  0  0  0  0
   -2.2122   -3.3869    0.9108 H   0  0  0  0  0  0  0  0  0  0  0  0
   -2.0243   -1.6740    0.4913 H   0  0  0  0  0  0  0  0  0  0  0  0
    0.0310   -4.9459    1.7706 N   0  0  0  0  0  0  0  0  0  0  0  0
    0.4921   -6.3137    1.8185 C   0  0  0  0  0  0  0  0  0  0  0  0
   -0.6285   -4.6429    2.4813 H   0  0  0  0  0  0  0  0  0  0  0  0
   -0.1790   -6.9486    1.2214 H   0  0  0  0  0  0  0  0  0  0  0  0
    1.5115   -6.3714    1.4093 H   0  0  0  0  0  0  0  0  0  0  0  0
    0.4954   -6.6632    2.8615 H   0  0  0  0  0  0  0  0  0  0  0  0
  1  3  1  0  0  0  0
  1  7  1  0  0  0  0
  1  2  2  0  0  0  0
 22 23  1  0  0  0  0
 23 25  1  0  0  0  0
 23 24  2  0  0  0  0
 35 36  1  0  0  0  0
 36 44  1  0  0  0  0
 36 37  2  0  0  0  0
  8  9  1  0  0  0  0
  9 17  1  0  0  0  0
  9 10  2  0  0  0  0
 18 19  1  0  0  0  0
 19 34  1  0  0  0  0
 19 20  2  0  0  0  0
 35 38  1  0  0  0  0
  8 11  1  0  0  0  0
 44 45  1  0  0  0  0
 21 22  1  0  0  0  0
 18 21  1  0  0  0  0
 34 35  1  0  0  0  0
  7  8  1  0  0  0  0
 17 18  1  0  0  0  0
  3  4  1  0  0  0  0
  3  5  1  0  0  0  0
  3  6  1  0  0  0  0
 38 41  1  0  0  0  0
 38 42  1  0  0  0  0
 38 43  1  0  0  0  0
 11 14  1  0  0  0  0
 11 15  1  0  0  0  0
 11 16  1  0  0  0  0
 45 47  1  0  0  0  0
 45 48  1  0  0  0  0
 45 49  1  0  0  0  0
 22 30  1  0  0  0  0
 22 31  1  0  0  0  0
 21 28  1  0  0  0  0
 21 29  1  0  0  0  0
 35 40  1  0  0  0  0
  8 13  1  0  0  0  0
 18 27  1  0  0  0  0
 25 32  1  0  0  0  0
 25 33  1  0  0  0  0
 44 46  1  0  0  0  0
  7 12  1  0  0  0  0
 34 39  1  0  0  0  0
 17 26  1  0  0  0  0
M  END
$$$$

  -OEChem-02062319033D

 49 48  0     1  0  0  0  0  0999 V2000
   -1.9833   -0.0509   -3.3423 C   0  0  0  0  0  0  0  0  0  0  0  0
   -1.6199   -1.0613   -2.7518 O   0  0  0  0  0  0  0  0  0  0  0  0
   -3.3243   -0.0235   -3.9975 C   0  0  0  0  0  0  0  0  0  0  0  0
   -3.2886   -0.3689   -5.0432 H   0  0  0  0  0  0  0  0  0  0  0  0
   -4.0503   -0.6845   -3.4973 H   0  0  0  0  0  0  0  0  0  0  0  0
   -3.8104    0.9645   -4.0351 H   0  0  0  0  0  0  0  0  0  0  0  0
   -1.2607    1.1231   -3.4768 N   0  0  0  0  0  0  0  0  0  0  0  0
    0.0536    1.3115   -2.9213 C   0  0  2  0  0  0  0  0  0  0  0  0
    0.0266    0.8315   -1.4761 C   0  0  0  0  0  0  0  0  0  0  0  0
   -1.0065    0.7530   -0.8146 O   0  0  0  0  0  0  0  0  0  0  0  0
    0.4852    2.7674   -3.0025 C   0  0  0  0  0  0  0  0  0  0  0  0
   -1.6809    1.8924   -3.9952 H   0  0  0  0  0  0  0  0  0  0  0  0
    0.7360    0.6822   -3.5030 H   0  0  0  0  0  0  0  0  0  0  0  0
   -0.1867    3.4133   -2.4256 H   0  0  0  0  0  0  0  0  0  0  0  0
    1.4966    2.9042   -2.6056 H   0  0  0  0  0  0  0  0  0  0  0  0
    0.4754    3.1196   -4.0397 H   0  0  0  0  0  0  0  0  0  0  0  0
    1.2978    0.5411   -0.9947 N   0  0  0  0  0  0  0  0  0  0  0  0
    2.1483   -0.4574   -1.5899 C   0  0  2  0  0  0  0  0  0  0  0  0
    1.4101   -1.7887   -1.5043 C   0  0  0  0  0  0  0  0  0  0  0  0
    1.3071   -2.5588   -2.4568 O   0  0  0  0  0  0  0  0  0  0  0  0
    3.5074   -0.5549   -0.8854 C   0  0  0  0  0  0  0  0  0  0  0  0
    4.3757    0.6922   -1.0633 C   0  0  0  0  0  0  0  0  0  0  0  0
    5.7109    0.6080   -0.3474 C   0  0  0  0  0  0  0  0  0  0  0  0
    6.0462   -0.3285    0.3718 O   0  0  0  0  0  0  0  0  0  0  0  0
    6.4981    1.7165   -0.5746 N   0  0  0  0  0  0  0  0  0  0  0  0
    1.6661    1.0780   -0.2127 H   0  0  0  0  0  0  0  0  0  0  0  0
    2.2661   -0.1821   -2.6434 H   0  0  0  0  0  0  0  0  0  0  0  0
    3.3460   -0.7137    0.1892 H   0  0  0  0  0  0  0  0  0  0  0  0
    4.0547   -1.4356   -1.2445 H   0  0  0  0  0  0  0  0  0  0  0  0
    3.8432    1.5549   -0.6441 H   0  0  0  0  0  0  0  0  0  0  0  0
    4.5460    0.8998   -2.1256 H   0  0  0  0  0  0  0  0  0  0  0  0
    6.1404    2.4569   -1.1689 H   0  0  0  0  0  0  0  0  0  0  0  0
    7.4228    1.8186   -0.1687 H   0  0  0  0  0  0  0  0  0  0  0  0
    0.8400   -1.9877   -0.2546 N   0  0  0  0  0  0  0  0  0  0  0  0
    0.0663   -3.1596    0.0870 C   0  0  2  0  0  0  0  0  0  0  0  0
    0.8566   -4.3875   -0.3457 C   0  0  0  0  0  0  0  0  0  0  0  0
    1.7269   -4.3537   -1.2131 O   0  0  0  0  0  0  0  0  0  0  0  0
   -1.3018   -3.1321   -0.5766 C   0  0  0  0  0  0  0  0  0  0  0  0
    0.9732   -1.2738    0.4555 H   0  0  0  0  0  0  0  0  0  0  0  0
   -0.0426   -3.1600    1.1770 H   0  0  0  0  0  0  0  0  0  0  0  0
   -1.2130   -3.1313   -1.6692 H   0  0  0  0  0  0  0  0  0  0  0  0
   -1.8974   -4.0065   -0.2941 H   0  0  0  0  0  0  0  0  0  0  0  0
   -1.8572   -2.2333   -0.2877 H   0  0  0  0  0  0  0  0  0  0  0  0
    0.4459   -5.5338    0.3203 N   0  0  0  0  0  0  0  0  0  0  0  0
    1.0339   -6.8302    0.0762 C   0  0  0  0  0  0  0  0  0  0  0  0
   -0.2699   -5.4655    1.0378 H   0  0  0  0  0  0  0  0  0  0  0  0
    0.4534   -7.3573   -0.6953 H   0  0  0  0  0  0  0  0  0  0  0  0
    2.0709   -6.7033   -0.2681 H   0  0  0  0  0  0  0  0  0  0  0  0
    1.0256   -7.4174    1.0063 H   0  0  0  0  0  0  0  0  0  0  0  0
  1  3  1  0  0  0  0
  1  7  1  0  0  0  0
  1  2  2  0  0  0  0
 22 23  1  0  0  0  0
 23 25  1  0  0  0  0
 23 24  2  0  0  0  0
 35 36  1  0  0  0  0
 36 44  1  0  0  0  0
 36 37  2  0  0  0  0
  8  9  1  0  0  0  0
  9 17  1  0  0  0  0
  9 10  2  0  0  0  0
 18 19  1  0  0  0  0
 19 34  1  0  0  0  0
 19 20  2  0  0  0  0
 35 38  1  0  0  0  0
  8 11  1  0  0  0  0
 44 45  1  0  0  0  0
 21 22  1  0  0  0  0
 18 21  1  0  0  0  0
 34 35  1  0  0  0  0
  7  8  1  0  0  0  0
 17 18  1  0  0  0  0
  3  4  1  0  0  0  0
  3  5  1  0  0  0  0
  3  6  1  0  0  0  0
 38 41  1  0  0  0  0
 38 42  1  0  0  0  0
 38 43  1  0  0  0  0
 11 14  1  0  0  0  0
 11 15  1  0  0  0  0
 11 16  1  0  0  0  0
 45 47  1  0  0  0  0
 45 48  1  0  0  0  0
 45 49  1  0  0  0  0
 22 30  1  0  0  0  0
 22 31  1  0  0  0  0
 21 28  1  0  0  0  0
 21 29  1  0  0  0  0
 35 40  1  0  0  0  0
  8 13  1  0  0  0  0
 18 27  1  0  0  0  0
 25 32  1  0  0  0  0
 25 33  1  0  0  0  0
 44 46  1  0  0  0  0
  7 12  1  0  0  0  0
 34 39  1  0  0  0  0
 17 26  1  0  0  0  0
M  END
$$$$

  -OEChem-02062319033D

 49 48  0     1  0  0  0  0  0999 V2000
   -1.9833   -0.0509   -3.3423 C   0  0  0  0  0  0  0  0  0  0  0  0
   -1.6199   -1.0613   -2.7518 O   0  0  0  0  0  0  0  0  0  0  0  0
   -3.3243   -0.0235   -3.9975 C   0  0  0  0  0  0  0  0  0  0  0  0
   -3.2886   -0.3689   -5.0432 H   0  0  0  0  0  0  0  0  0  0  0  0
   -4.0503   -0.6845   -3.4973 H   0  0  0  0  0  0  0  0  0  0  0  0
   -3.8104    0.9645   -4.0351 H   0  0  0  0  0  0  0  0  0  0  0  0
   -1.2607    1.1231   -3.4768 N   0  0  0  0  0  0  0  0  0  0  0  0
    0.0536    1.3115   -2.9213 C   0  0  2  0  0  0  0  0  0  0  0  0
    0.0266    0.8315   -1.4761 C   0  0  0  0  0  0  0  0  0  0  0  0
   -1.0065    0.7530   -0.8146 O   0  0  0  0  0  0  0  0  0  0  0  0
    0.4852    2.7674   -3.0025 C   0  0  0  0  0  0  0  0  0  0  0  0
   -1.6809    1.8924   -3.9952 H   0  0  0  0  0  0  0  0  0  0  0  0
    0.7360    0.6822   -3.5030 H   0  0  0  0  0  0  0  0  0  0  0  0
   -0.1867    3.4133   -2.4256 H   0  0  0  0  0  0  0  0  0  0  0  0
    1.4966    2.9042   -2.6056 H   0  0  0  0  0  0  0  0  0  0  0  0
    0.4754    3.1196   -4.0397 H   0  0  0  0  0  0  0  0  0  0  0  0
    1.2978    0.5411   -0.9947 N   0  0  0  0  0  0  0  0  0  0  0  0
    2.2654   -0.2119   -1.7508 C   0  0  2  0  0  0  0  0  0  0  0  0
    1.6556   -1.5816   -2.0275 C   0  0  0  0  0  0  0  0  0  0  0  0
    1.6684   -2.1073   -3.1385 O   0  0  0  0  0  0  0  0  0  0  0  0
    3.5958   -0.3617   -1.0020 C   0  0  0  0  0  0  0  0  0  0  0  0
    4.3470    0.9595   -0.8262 C   0  0  0  0  0  0  0  0  0  0  0  0
    5.6518    0.8178   -0.0648 C   0  0  0  0  0  0  0  0  0  0  0  0
    6.0442   -0.2323    0.4352 O   0  0  0  0  0  0  0  0  0  0  0  0
    6.3379    2.0100    0.0255 N   0  0  0  0  0  0  0  0  0  0  0  0
    1.5785    0.9040   -0.0865 H   0  0  0  0  0  0  0  0  0  0  0  0
    2.4016    0.3162   -2.7006 H   0  0  0  0  0  0  0  0  0  0  0  0
    3.4039   -0.7857   -0.0073 H   0  0  0  0  0  0  0  0  0  0  0  0
    4.2402   -1.0823   -1.5211 H   0  0  0  0  0  0  0  0  0  0  0  0
    3.7164    1.6496   -0.2520 H   0  0  0  0  0  0  0  0  0  0  0  0
    4.5424    1.4285   -1.7970 H   0  0  0  0  0  0  0  0  0  0  0  0
    5.9367    2.8386   -0.4008 H   0  0  0  0  0  0  0  0  0  0  0  0
    7.2301    2.0885    0.5031 H   0  0  0  0  0  0  0  0  0  0  0  0
    1.0536   -2.1203   -0.8988 N   0  0  0  0  0  0  0  0  0  0  0  0
    0.3821   -3.4001   -0.8922 C   0  0  2  0  0  0  0  0  0  0  0  0
    1.3048   -4.4188   -1.5482 C   0  0  0  0  0  0  0  0  0  0  0  0
    2.2045   -4.1063   -2.3253 O   0  0  0  0  0  0  0  0  0  0  0  0
   -0.9522   -3.3285   -1.6182 C   0  0  0  0  0  0  0  0  0  0  0  0
    1.0868   -1.5885   -0.0341 H   0  0  0  0  0  0  0  0  0  0  0  0
    0.2267   -3.6702    0.1580 H   0  0  0  0  0  0  0  0  0  0  0  0
   -0.8167   -3.0591   -2.6720 H   0  0  0  0  0  0  0  0  0  0  0  0
   -1.4727   -4.2914   -1.5876 H   0  0  0  0  0  0  0  0  0  0  0  0
   -1.6034   -2.5743   -1.1634 H   0  0  0  0  0  0  0  0  0  0  0  0
    0.9778   -5.7211   -1.1974 N   0  0  0  0  0  0  0  0  0  0  0  0
    1.6977   -6.8680   -1.6997 C   0  0  0  0  0  0  0  0  0  0  0  0
    0.2284   -5.8862   -0.5318 H   0  0  0  0  0  0  0  0  0  0  0  0
    1.2045   -7.2417   -2.6091 H   0  0  0  0  0  0  0  0  0  0  0  0
    2.7316   -6.5768   -1.9367 H   0  0  0  0  0  0  0  0  0  0  0  0
    1.7056   -7.6593   -0.9355 H   0  0  0  0  0  0  0  0  0  0  0  0
  1  3  1  0  0  0  0
  1  7  1  0  0  0  0
  1  2  2  0  0  0  0
 22 23  1  0  0  0  0
 23 25  1  0  0  0  0
 23 24  2  0  0  0  0
 35 36  1  0  0  0  0
 36 44  1  0  0  0  0
 36 37  2  0  0  0  0
  8  9  1  0  0  0  0
  9 17  1  0  0  0  0
  9 10  2  0  0  0  0
 18 19  1  0  0  0  0
 19 34  1  0  0  0  0
 19 20  2  0  0  0  0
 35 38  1  0  0  0  0
  8 11  1  0  0  0  0
 44 45  1  0  0  0  0
 21 22  1  0  0  0  0
 18 21  1  0  0  0  0
 34 35  1  0  0  0  0
  7  8  1  0  0  0  0
 17 18  1  0  0  0  0
  3  4  1  0  0  0  0
  3  5  1  0  0  0  0
  3  6  1  0  0  0  0
 38 41  1  0  0  0  0
 38 42  1  0  0  0  0
 38 43  1  0  0  0  0
 11 14  1  0  0  0  0
 11 15  1  0  0  0  0
 11 16  1  0  0  0  0
 45 47  1  0  0  0  0
 45 48  1  0  0  0  0
 45 49  1  0  0  0  0
 22 30  1  0  0  0  0
 22 31  1  0  0  0  0
 21 28  1  0  0  0  0
 21 29  1  0  0  0  0
 35 40  1  0  0  0  0
  8 13  1  0  0  0  0
 18 27  1  0  0  0  0
 25 32  1  0  0  0  0
 25 33  1  0  0  0  0
 44 46  1  0  0  0  0
  7 12  1  0  0  0  0
 34 39  1  0  0  0  0
 17 26  1  0  0  0  0
M  END
$$$$

  -OEChem-02062319033D

 49 48  0     1  0  0  0  0  0999 V2000
   -1.9833   -0.0509   -3.3423 C   0  0  0  0  0  0  0  0  0  0  0  0
   -1.6199   -1.0613   -2.7518 O   0  0  0  0  0  0  0  0  0  0  0  0
   -3.3243   -0.0235   -3.9975 C   0  0  0  0  0  0  0  0  0  0  0  0
   -3.2886   -0.3689   -5.0432 H   0  0  0  0  0  0  0  0  0  0  0  0
   -4.0503   -0.6845   -3.4973 H   0  0  0  0  0  0  0  0  0  0  0  0
   -3.8104    0.9645   -4.0351 H   0  0  0  0  0  0  0  0  0  0  0  0
   -1.2607    1.1231   -3.4768 N   0  0  0  0  0  0  0  0  0  0  0  0
    0.0536    1.3115   -2.9213 C   0  0  2  0  0  0  0  0  0  0  0  0
    0.0266    0.8315   -1.4761 C   0  0  0  0  0  0  0  0  0  0  0  0
   -1.0065    0.7530   -0.8146 O   0  0  0  0  0  0  0  0  0  0  0  0
    0.4852    2.7674   -3.0025 C   0  0  0  0  0  0  0  0  0  0  0  0
   -1.6809    1.8924   -3.9952 H   0  0  0  0  0  0  0  0  0  0  0  0
    0.7360    0.6822   -3.5030 H   0  0  0  0  0  0  0  0  0  0  0  0
   -0.1867    3.4133   -2.4256 H   0  0  0  0  0  0  0  0  0  0  0  0
    1.4966    2.9042   -2.6056 H   0  0  0  0  0  0  0  0  0  0  0  0
    0.4754    3.1196   -4.0397 H   0  0  0  0  0  0  0  0  0  0  0  0
    1.2978    0.5411   -0.9947 N   0  0  0  0  0  0  0  0  0  0  0  0
    2.3651    0.0739   -1.8417 C   0  0  2  0  0  0  0  0  0  0  0  0
    1.9024   -1.2357   -2.4705 C   0  0  0  0  0  0  0  0  0  0  0  0
    2.0137   -1.4775   -3.6705 O   0  0  0  0  0  0  0  0  0  0  0  0
    3.6701   -0.1395   -1.0642 C   0  0  0  0  0  0  0  0  0  0  0  0
    4.2824    1.1590   -0.5354 C   0  0  0  0  0  0  0  0  0  0  0  0
    5.5607    0.9483    0.2546 C   0  0  0  0  0  0  0  0  0  0  0  0
    6.0302   -0.1546    0.5191 O   0  0  0  0  0  0  0  0  0  0  0  0
    6.1244    2.1370    0.6659 N   0  0  0  0  0  0  0  0  0  0  0  0
    1.5028    0.6983   -0.0105 H   0  0  0  0  0  0  0  0  0  0  0  0
    2.4909    0.8233   -2.6305 H   0  0  0  0  0  0  0  0  0  0  0  0
    3.4770   -0.8036   -0.2111 H   0  0  0  0  0  0  0  0  0  0  0  0
    4.4027   -0.6590   -1.6947 H   0  0  0  0  0  0  0  0  0  0  0  0
    3.5642    1.6369    0.1422 H   0  0  0  0  0  0  0  0  0  0  0  0
    4.4737    1.8612   -1.3545 H   0  0  0  0  0  0  0  0  0  0  0  0
    5.6643    3.0073    0.4205 H   0  0  0  0  0  0  0  0  0  0  0  0
    6.9834    2.1730    1.2055 H   0  0  0  0  0  0  0  0  0  0  0  0
    1.3067   -2.0768   -1.5410 N   0  0  0  0  0  0  0  0  0  0  0  0
    0.7617   -3.3723   -1.8778 C   0  0  2  0  0  0  0  0  0  0  0  0
    1.8056   -4.1242   -2.6929 C   0  0  0  0  0  0  0  0  0  0  0  0
    2.7039   -3.5612   -3.3151 O   0  0  0  0  0  0  0  0  0  0  0  0
   -0.5407   -3.2403   -2.6519 C   0  0  0  0  0  0  0  0  0  0  0  0
    1.2511   -1.7664   -0.5755 H   0  0  0  0  0  0  0  0  0  0  0  0
    0.5876   -3.8977   -0.9325 H   0  0  0  0  0  0  0  0  0  0  0  0
   -0.3862   -2.7163   -3.6022 H   0  0  0  0  0  0  0  0  0  0  0  0
   -0.9670   -4.2224   -2.8815 H   0  0  0  0  0  0  0  0  0  0  0  0
   -1.2804   -2.6736   -2.0763 H   0  0  0  0  0  0  0  0  0  0  0  0
    1.5904   -5.4952   -2.6789 N   0  0  0  0  0  0  0  0  0  0  0  0
    2.4383   -6.4248   -3.3881 C   0  0  0  0  0  0  0  0  0  0  0  0
    0.8322   -5.8763   -2.1206 H   0  0  0  0  0  0  0  0  0  0  0  0
    2.0232   -6.6098   -4.3898 H   0  0  0  0  0  0  0  0  0  0  0  0
    3.4487   -6.0004   -3.4827 H   0  0  0  0  0  0  0  0  0  0  0  0
    2.4892   -7.3723   -2.8317 H   0  0  0  0  0  0  0  0  0  0  0  0
  1  3  1  0  0  0  0
  1  7  1  0  0  0  0
  1  2  2  0  0  0  0
 22 23  1  0  0  0  0
 23 25  1  0  0  0  0
 23 24  2  0  0  0  0
 35 36  1  0  0  0  0
 36 44  1  0  0  0  0
 36 37  2  0  0  0  0
  8  9  1  0  0  0  0
  9 17  1  0  0  0  0
  9 10  2  0  0  0  0
 18 19  1  0  0  0  0
 19 34  1  0  0  0  0
 19 20  2  0  0  0  0
 35 38  1  0  0  0  0
  8 11  1  0  0  0  0
 44 45  1  0  0  0  0
 21 22  1  0  0  0  0
 18 21  1  0  0  0  0
 34 35  1  0  0  0  0
  7  8  1  0  0  0  0
 17 18  1  0  0  0  0
  3  4  1  0  0  0  0
  3  5  1  0  0  0  0
  3  6  1  0  0  0  0
 38 41  1  0  0  0  0
 38 42  1  0  0  0  0
 38 43  1  0  0  0  0
 11 14  1  0  0  0  0
 11 15  1  0  0  0  0
 11 16  1  0  0  0  0
 45 47  1  0  0  0  0
 45 48  1  0  0  0  0
 45 49  1  0  0  0  0
 22 30  1  0  0  0  0
 22 31  1  0  0  0  0
 21 28  1  0  0  0  0
 21 29  1  0  0  0  0
 35 40  1  0  0  0  0
  8 13  1  0  0  0  0
 18 27  1  0  0  0  0
 25 32  1  0  0  0  0
 25 33  1  0  0  0  0
 44 46  1  0  0  0  0
  7 12  1  0  0  0  0
 34 39  1  0  0  0  0
 17 26  1  0  0  0  0
M  END
$$$$

  -OEChem-02062319033D

 49 48  0     1  0  0  0  0  0999 V2000
   -1.9833   -0.0509   -3.3423 C   0  0  0  0  0  0  0  0  0  0  0  0
   -1.6199   -1.0613   -2.7518 O   0  0  0  0  0  0  0  0  0  0  0  0
   -3.3243   -0.0235   -3.9975 C   0  0  0  0  0  0  0  0  0  0  0  0
   -3.2886   -0.3689   -5.0432 H   0  0  0  0  0  0  0  0  0  0  0  0
   -4.0503   -0.6845   -3.4973 H   0  0  0  0  0  0  0  0  0  0  0  0
   -3.8104    0.9645   -4.0351 H   0  0  0  0  0  0  0  0  0  0  0  0
   -1.2607    1.1231   -3.4768 N   0  0  0  0  0  0  0  0  0  0  0  0
    0.0536    1.3115   -2.9213 C   0  0  2  0  0  0  0  0  0  0  0  0
    0.0266    0.8315   -1.4761 C   0  0  0  0  0  0  0  0  0  0  0  0
   -1.0065    0.7530   -0.8146 O   0  0  0  0  0  0  0  0  0  0  0  0
    0.4852    2.7674   -3.0025 C   0  0  0  0  0  0  0  0  0  0  0  0
   -1.6809    1.8924   -3.9952 H   0  0  0  0  0  0  0  0  0  0  0  0
    0.7360    0.6822   -3.5030 H   0  0  0  0  0  0  0  0  0  0  0  0
   -0.1867    3.4133   -2.4256 H   0  0  0  0  0  0  0  0  0  0  0  0
    1.4966    2.9042   -2.6056 H   0  0  0  0  0  0  0  0  0  0  0  0
    0.4754    3.1196   -4.0397 H   0  0  0  0  0  0  0  0  0  0  0  0
    1.2978    0.5411   -0.9947 N   0  0  0  0  0  0  0  0  0  0  0  0
    2.4407    0.3804   -1.8565 C   0  0  2  0  0  0  0  0  0  0  0  0
    2.1337   -0.7746   -2.8032 C   0  0  0  0  0  0  0  0  0  0  0  0
    2.3197   -0.7123   -4.0167 O   0  0  0  0  0  0  0  0  0  0  0  0
    3.7253    0.0965   -1.0676 C   0  0  0  0  0  0  0  0  0  0  0  0
    4.1865    1.2771   -0.2108 C   0  0  0  0  0  0  0  0  0  0  0  0
    5.4437    0.9906    0.5891 C   0  0  0  0  0  0  0  0  0  0  0  0
    6.0051   -0.1006    0.6177 O   0  0  0  0  0  0  0  0  0  0  0  0
    5.8722    2.0890    1.3031 N   0  0  0  0  0  0  0  0  0  0  0  0
    1.4439    0.4748    0.0101 H   0  0  0  0  0  0  0  0  0  0  0  0
    2.5280    1.3045   -2.4379 H   0  0  0  0  0  0  0  0  0  0  0  0
    3.5602   -0.7661   -0.4082 H   0  0  0  0  0  0  0  0  0  0  0  0
    4.5310   -0.1944   -1.7534 H   0  0  0  0  0  0  0  0  0  0  0  0
    3.3970    1.5176    0.5118 H   0  0  0  0  0  0  0  0  0  0  0  0
    4.3446    2.1682   -0.8285 H   0  0  0  0  0  0  0  0  0  0  0  0
    5.3415    2.9514    1.2391 H   0  0  0  0  0  0  0  0  0  0  0  0
    6.6995    2.0662    1.8906 H   0  0  0  0  0  0  0  0  0  0  0  0
    1.5820   -1.8601   -2.1372 N   0  0  0  0  0  0  0  0  0  0  0  0
    1.1792   -3.0781   -2.8028 C   0  0  2  0  0  0  0  0  0  0  0  0
    2.3248   -3.5238   -3.7018 C   0  0  0  0  0  0  0  0  0  0  0  0
    3.1909   -2.7557   -4.1152 O   0  0  0  0  0  0  0  0  0  0  0  0
   -0.0951   -2.8736   -3.6072 C   0  0  0  0  0  0  0  0  0  0  0  0
    1.4551   -1.7953   -1.1316 H   0  0  0  0  0  0  0  0  0  0  0  0
    1.0157   -3.8270   -2.0202 H   0  0  0  0  0  0  0  0  0  0  0  0
    0.0493   -2.1266   -4.3963 H   0  0  0  0  0  0  0  0  0  0  0  0
   -0.4147   -3.8042   -4.0877 H   0  0  0  0  0  0  0  0  0  0  0  0
   -0.9102   -2.5244   -2.9642 H   0  0  0  0  0  0  0  0  0  0  0  0
    2.2420   -4.8714   -4.0233 N   0  0  0  0  0  0  0  0  0  0  0  0
    3.2053   -5.5306   -4.8740 C   0  0  0  0  0  0  0  0  0  0  0  0
    1.5006   -5.4366   -3.6202 H   0  0  0  0  0  0  0  0  0  0  0  0
    2.8536   -5.5045   -5.9159 H   0  0  0  0  0  0  0  0  0  0  0  0
    4.1734   -5.0134   -4.8008 H   0  0  0  0  0  0  0  0  0  0  0  0
    3.3229   -6.5761   -4.5529 H   0  0  0  0  0  0  0  0  0  0  0  0
  1  3  1  0  0  0  0
  1  7  1  0  0  0  0
  1  2  2  0  0  0  0
 22 23  1  0  0  0  0
 23 25  1  0  0  0  0
 23 24  2  0  0  0  0
 35 36  1  0  0  0  0
 36 44  1  0  0  0  0
 36 37  2  0  0  0  0
  8  9  1  0  0  0  0
  9 17  1  0  0  0  0
  9 10  2  0  0  0  0
 18 19  1  0  0  0  0
 19 34  1  0  0  0  0
 19 20  2  0  0  0  0
 35 38  1  0  0  0  0
  8 11  1  0  0  0  0
 44 45  1  0  0  0  0
 21 22  1  0  0  0  0
 18 21  1  0  0  0  0
 34 35  1  0  0  0  0
  7  8  1  0  0  0  0
 17 18  1  0  0  0  0
  3  4  1  0  0  0  0
  3  5  1  0  0  0  0
  3  6  1  0  0  0  0
 38 41  1  0  0  0  0
 38 42  1  0  0  0  0
 38 43  1  0  0  0  0
 11 14  1  0  0  0  0
 11 15  1  0  0  0  0
 11 16  1  0  0  0  0
 45 47  1  0  0  0  0
 45 48  1  0  0  0  0
 45 49  1  0  0  0  0
 22 30  1  0  0  0  0
 22 31  1  0  0  0  0
 21 28  1  0  0  0  0
 21 29  1  0  0  0  0
 35 40  1  0  0  0  0
  8 13  1  0  0  0  0
 18 27  1  0  0  0  0
 25 32  1  0  0  0  0
 25 33  1  0  0  0  0
 44 46  1  0  0  0  0
  7 12  1  0  0  0  0
 34 39  1  0  0  0  0
 17 26  1  0  0  0  0
M  END
$$$$

  -OEChem-02062319033D

 49 48  0     1  0  0  0  0  0999 V2000
   -1.9833   -0.0509   -3.3423 C   0  0  0  0  0  0  0  0  0  0  0  0
   -1.6199   -1.0613   -2.7518 O   0  0  0  0  0  0  0  0  0  0  0  0
   -3.3243   -0.0235   -3.9975 C   0  0  0  0  0  0  0  0  0  0  0  0
   -3.2886   -0.3689   -5.0432 H   0  0  0  0  0  0  0  0  0  0  0  0
   -4.0503   -0.6845   -3.4973 H   0  0  0  0  0  0  0  0  0  0  0  0
   -3.8104    0.9645   -4.0351 H   0  0  0  0  0  0  0  0  0  0  0  0
   -1.2607    1.1231   -3.4768 N   0  0  0  0  0  0  0  0  0  0  0  0
    0.0536    1.3115   -2.9213 C   0  0  2  0  0  0  0  0  0  0  0  0
    0.0266    0.8315   -1.4761 C   0  0  0  0  0  0  0  0  0  0  0  0
   -1.0065    0.7530   -0.8146 O   0  0  0  0  0  0  0  0  0  0  0  0
    0.4852    2.7674   -3.0025 C   0  0  0  0  0  0  0  0  0  0  0  0
   -1.6809    1.8924   -3.9952 H   0  0  0  0  0  0  0  0  0  0  0  0
    0.7360    0.6822   -3.5030 H   0  0  0  0  0  0  0  0  0  0  0  0
   -0.1867    3.4133   -2.4256 H   0  0  0  0  0  0  0  0  0  0  0  0
    1.4966    2.9042   -2.6056 H   0  0  0  0  0  0  0  0  0  0  0  0
    0.4754    3.1196   -4.0397 H   0  0  0  0  0  0  0  0  0  0  0  0
    1.2978    0.5411   -0.9947 N   0  0  0  0  0  0  0  0  0  0  0  0
    2.4871    0.6868   -1.7941 C   0  0  2  0  0  0  0  0  0  0  0  0
    2.3339   -0.2297   -3.0029 C   0  0  0  0  0  0  0  0  0  0  0  0
    2.5653    0.1363   -4.1533 O   0  0  0  0  0  0  0  0  0  0  0  0
    3.7576    0.3302   -1.0121 C   0  0  0  0  0  0  0  0  0  0  0  0
    4.0657    1.3057    0.1255 C   0  0  0  0  0  0  0  0  0  0  0  0
    5.3088    0.9417    0.9158 C   0  0  0  0  0  0  0  0  0  0  0  0
    5.9708   -0.0741    0.7245 O   0  0  0  0  0  0  0  0  0  0  0  0
    5.5984    1.8693    1.8936 N   0  0  0  0  0  0  0  0  0  0  0  0
    1.4059    0.2488   -0.0261 H   0  0  0  0  0  0  0  0  0  0  0  0
    2.5102    1.7270   -2.1360 H   0  0  0  0  0  0  0  0  0  0  0  0
    3.6479   -0.6757   -0.5852 H   0  0  0  0  0  0  0  0  0  0  0  0
    4.6166    0.2798   -1.6932 H   0  0  0  0  0  0  0  0  0  0  0  0
    3.2261    1.2999    0.8316 H   0  0  0  0  0  0  0  0  0  0  0  0
    4.1640    2.3287   -0.2547 H   0  0  0  0  0  0  0  0  0  0  0  0
    4.9905    2.6747    1.9990 H   0  0  0  0  0  0  0  0  0  0  0  0
    6.3979    1.7754    2.5118 H   0  0  0  0  0  0  0  0  0  0  0  0
    1.8608   -1.4850   -2.6470 N   0  0  0  0  0  0  0  0  0  0  0  0
    1.6061   -2.5376   -3.6040 C   0  0  2  0  0  0  0  0  0  0  0  0
    2.8271   -2.6585   -4.5062 C   0  0  0  0  0  0  0  0  0  0  0  0
    3.6325   -1.7446   -4.6711 O   0  0  0  0  0  0  0  0  0  0  0  0
    0.3541   -2.2533   -4.4191 C   0  0  0  0  0  0  0  0  0  0  0  0
    1.6847   -1.6734   -1.6645 H   0  0  0  0  0  0  0  0  0  0  0  0
    1.4816   -3.4628   -3.0309 H   0  0  0  0  0  0  0  0  0  0  0  0
    0.4600   -1.3299   -5.0001 H   0  0  0  0  0  0  0  0  0  0  0  0
    0.1465   -3.0652   -5.1239 H   0  0  0  0  0  0  0  0  0  0  0  0
   -0.5179   -2.1371   -3.7664 H   0  0  0  0  0  0  0  0  0  0  0  0
    2.8883   -3.8922   -5.1391 N   0  0  0  0  0  0  0  0  0  0  0  0
    3.9464   -4.2464   -6.0561 C   0  0  0  0  0  0  0  0  0  0  0  0
    2.1878   -4.5971   -4.9285 H   0  0  0  0  0  0  0  0  0  0  0  0
    3.6393   -4.0012   -7.0835 H   0  0  0  0  0  0  0  0  0  0  0  0
    4.8562   -3.6831   -5.8011 H   0  0  0  0  0  0  0  0  0  0  0  0
    4.1500   -5.3248   -5.9819 H   0  0  0  0  0  0  0  0  0  0  0  0
  1  3  1  0  0  0  0
  1  7  1  0  0  0  0
  1  2  2  0  0  0  0
 22 23  1  0  0  0  0
 23 25  1  0  0  0  0
 23 24  2  0  0  0  0
 35 36  1  0  0  0  0
 36 44  1  0  0  0  0
 36 37  2  0  0  0  0
  8  9  1  0  0  0  0
  9 17  1  0  0  0  0
  9 10  2  0  0  0  0
 18 19  1  0  0  0  0
 19 34  1  0  0  0  0
 19 20  2  0  0  0  0
 35 38  1  0  0  0  0
  8 11  1  0  0  0  0
 44 45  1  0  0  0  0
 21 22  1  0  0  0  0
 18 21  1  0  0  0  0
 34 35  1  0  0  0  0
  7  8  1  0  0  0  0
 17 18  1  0  0  0  0
  3  4  1  0  0  0  0
  3  5  1  0  0  0  0
  3  6  1  0  0  0  0
 38 41  1  0  0  0  0
 38 42  1  0  0  0  0
 38 43  1  0  0  0  0
 11 14  1  0  0  0  0
 11 15  1  0  0  0  0
 11 16  1  0  0  0  0
 45 47  1  0  0  0  0
 45 48  1  0  0  0  0
 45 49  1  0  0  0  0
 22 30  1  0  0  0  0
 22 31  1  0  0  0  0
 21 28  1  0  0  0  0
 21 29  1  0  0  0  0
 35 40  1  0  0  0  0
  8 13  1  0  0  0  0
 18 27  1  0  0  0  0
 25 32  1  0  0  0  0
 25 33  1  0  0  0  0
 44 46  1  0  0  0  0
  7 12  1  0  0  0  0
 34 39  1  0  0  0  0
 17 26  1  0  0  0  0
M  END
$$$$

  -OEChem-02062319033D

 49 48  0     1  0  0  0  0  0999 V2000
   -1.9833   -0.0509   -3.3423 C   0  0  0  0  0  0  0  0  0  0  0  0
   -1.6199   -1.0613   -2.7518 O   0  0  0  0  0  0  0  0  0  0  0  0
   -3.3243   -0.0235   -3.9975 C   0  0  0  0  0  0  0  0  0  0  0  0
   -3.2886   -0.3689   -5.0432 H   0  0  0  0  0  0  0  0  0  0  0  0
   -4.0503   -0.6845   -3.4973 H   0  0  0  0  0  0  0  0  0  0  0  0
   -3.8104    0.9645   -4.0351 H   0  0  0  0  0  0  0  0  0  0  0  0
   -1.2607    1.1231   -3.4768 N   0  0  0  0  0  0  0  0  0  0  0  0
    0.0536    1.3115   -2.9213 C   0  0  2  0  0  0  0  0  0  0  0  0
    0.0266    0.8315   -1.4761 C   0  0  0  0  0  0  0  0  0  0  0  0
   -1.0065    0.7530   -0.8146 O   0  0  0  0  0  0  0  0  0  0  0  0
    0.4852    2.7674   -3.0025 C   0  0  0  0  0  0  0  0  0  0  0  0
   -1.6809    1.8924   -3.9952 H   0  0  0  0  0  0  0  0  0  0  0  0
    0.7360    0.6822   -3.5030 H   0  0  0  0  0  0  0  0  0  0  0  0
   -0.1867    3.4133   -2.4256 H   0  0  0  0  0  0  0  0  0  0  0  0
    1.4966    2.9042   -2.6056 H   0  0  0  0  0  0  0  0  0  0  0  0
    0.4754    3.1196   -4.0397 H   0  0  0  0  0  0  0  0  0  0  0  0
    1.2978    0.5411   -0.9947 N   0  0  0  0  0  0  0  0  0  0  0  0
    2.5011    0.9721   -1.6589 C   0  0  2  0  0  0  0  0  0  0  0  0
    2.4891    0.3618   -3.0560 C   0  0  0  0  0  0  0  0  0  0  0  0
    2.7339    1.0102   -4.0712 O   0  0  0  0  0  0  0  0  0  0  0  0
    3.7650    0.5457   -0.9014 C   0  0  0  0  0  0  0  0  0  0  0  0
    3.9283    1.2429    0.4505 C   0  0  0  0  0  0  0  0  0  0  0  0
    5.1652    0.8051    1.2126 C   0  0  0  0  0  0  0  0  0  0  0  0
    5.9294   -0.0768    0.8320 O   0  0  0  0  0  0  0  0  0  0  0  0
    5.3217    1.4927    2.3971 N   0  0  0  0  0  0  0  0  0  0  0  0
    1.3915    0.0356   -0.1166 H   0  0  0  0  0  0  0  0  0  0  0  0
    2.4388    2.0621   -1.7453 H   0  0  0  0  0  0  0  0  0  0  0  0
    3.7340   -0.5387   -0.7300 H   0  0  0  0  0  0  0  0  0  0  0  0
    4.6534    0.7312   -1.5181 H   0  0  0  0  0  0  0  0  0  0  0  0
    3.0634    0.9987    1.0797 H   0  0  0  0  0  0  0  0  0  0  0  0
    3.9441    2.3317    0.3278 H   0  0  0  0  0  0  0  0  0  0  0  0
    4.6352    2.1961    2.6486 H   0  0  0  0  0  0  0  0  0  0  0  0
    6.0989    1.3204    3.0266 H   0  0  0  0  0  0  0  0  0  0  0  0
    2.1240   -0.9771   -3.0355 N   0  0  0  0  0  0  0  0  0  0  0  0
    2.0133   -1.7876   -4.2269 C   0  0  2  0  0  0  0  0  0  0  0  0
    3.2782   -1.5873   -5.0511 C   0  0  0  0  0  0  0  0  0  0  0  0
    3.9984   -0.5968   -4.9447 O   0  0  0  0  0  0  0  0  0  0  0  0
    0.7762   -1.4217   -5.0322 C   0  0  0  0  0  0  0  0  0  0  0  0
    1.9245   -1.4089   -2.1381 H   0  0  0  0  0  0  0  0  0  0  0  0
    1.9537   -2.8301   -3.8958 H   0  0  0  0  0  0  0  0  0  0  0  0
    0.8179   -0.3806   -5.3726 H   0  0  0  0  0  0  0  0  0  0  0  0
    0.6785   -2.0558   -5.9195 H   0  0  0  0  0  0  0  0  0  0  0  0
   -0.1303   -1.5378   -4.4284 H   0  0  0  0  0  0  0  0  0  0  0  0
    3.4851   -2.6243   -5.9500 N   0  0  0  0  0  0  0  0  0  0  0  0
    4.6110   -2.6597   -6.8539 C   0  0  0  0  0  0  0  0  0  0  0  0
    2.8472   -3.4148   -5.9564 H   0  0  0  0  0  0  0  0  0  0  0  0
    4.3265   -2.2023   -7.8129 H   0  0  0  0  0  0  0  0  0  0  0  0
    5.4506   -2.1001   -6.4156 H   0  0  0  0  0  0  0  0  0  0  0  0
    4.9140   -3.7038   -7.0213 H   0  0  0  0  0  0  0  0  0  0  0  0
  1  3  1  0  0  0  0
  1  7  1  0  0  0  0
  1  2  2  0  0  0  0
 22 23  1  0  0  0  0
 23 25  1  0  0  0  0
 23 24  2  0  0  0  0
 35 36  1  0  0  0  0
 36 44  1  0  0  0  0
 36 37  2  0  0  0  0
  8  9  1  0  0  0  0
  9 17  1  0  0  0  0
  9 10  2  0  0  0  0
 18 19  1  0  0  0  0
 19 34  1  0  0  0  0
 19 20  2  0  0  0  0
 35 38  1  0  0  0  0
  8 11  1  0  0  0  0
 44 45  1  0  0  0  0
 21 22  1  0  0  0  0
 18 21  1  0  0  0  0
 34 35  1  0  0  0  0
  7  8  1  0  0  0  0
 17 18  1  0  0  0  0
  3  4  1  0  0  0  0
  3  5  1  0  0  0  0
  3  6  1  0  0  0  0
 38 41  1  0  0  0  0
 38 42  1  0  0  0  0
 38 43  1  0  0  0  0
 11 14  1  0  0  0  0
 11 15  1  0  0  0  0
 11 16  1  0  0  0  0
 45 47  1  0  0  0  0
 45 48  1  0  0  0  0
 45 49  1  0  0  0  0
 22 30  1  0  0  0  0
 22 31  1  0  0  0  0
 21 28  1  0  0  0  0
 21 29  1  0  0  0  0
 35 40  1  0  0  0  0
  8 13  1  0  0  0  0
 18 27  1  0  0  0  0
 25 32  1  0  0  0  0
 25 33  1  0  0  0  0
 44 46  1  0  0  0  0
  7 12  1  0  0  0  0
 34 39  1  0  0  0  0
 17 26  1  0  0  0  0
M  END
$$$$

  -OEChem-02062319033D

 49 48  0     1  0  0  0  0  0999 V2000
   -1.9833   -0.0509   -3.3423 C   0  0  0  0  0  0  0  0  0  0  0  0
   -1.6199   -1.0613   -2.7518 O   0  0  0  0  0  0  0  0  0  0  0  0
   -3.3243   -0.0235   -3.9975 C   0  0  0  0  0  0  0  0  0  0  0  0
   -3.2886   -0.3689   -5.0432 H   0  0  0  0  0  0  0  0  0  0  0  0
   -4.0503   -0.6845   -3.4973 H   0  0  0  0  0  0  0  0  0  0  0  0
   -3.8104    0.9645   -4.0351 H   0  0  0  0  0  0  0  0  0  0  0  0
   -1.2607    1.1231   -3.4768 N   0  0  0  0  0  0  0  0  0  0  0  0
    0.0536    1.3115   -2.9213 C   0  0  2  0  0  0  0  0  0  0  0  0
    0.0266    0.8315   -1.4761 C   0  0  0  0  0  0  0  0  0  0  0  0
   -1.0065    0.7530   -0.8146 O   0  0  0  0  0  0  0  0  0  0  0  0
    0.4852    2.7674   -3.0025 C   0  0  0  0  0  0  0  0  0  0  0  0
   -1.6809    1.8924   -3.9952 H   0  0  0  0  0  0  0  0  0  0  0  0
    0.7360    0.6822   -3.5030 H   0  0  0  0  0  0  0  0  0  0  0  0
   -0.1867    3.4133   -2.4256 H   0  0  0  0  0  0  0  0  0  0  0  0
    1.4966    2.9042   -2.6056 H   0  0  0  0  0  0  0  0  0  0  0  0
    0.4754    3.1196   -4.0397 H   0  0  0  0  0  0  0  0  0  0  0  0
    1.2978    0.5411   -0.9947 N   0  0  0  0  0  0  0  0  0  0  0  0
    2.4817    1.2169   -1.4599 C   0  0  2  0  0  0  0  0  0  0  0  0
    2.5890    0.9597   -2.9589 C   0  0  0  0  0  0  0  0  0  0  0  0
    2.8140    1.8501   -3.7759 O   0  0  0  0  0  0  0  0  0  0  0  0
    3.7467    0.7283   -0.7431 C   0  0  0  0  0  0  0  0  0  0  0  0
    3.7835    1.0931    0.7423 C   0  0  0  0  0  0  0  0  0  0  0  0
    5.0227    0.5901    1.4592 C   0  0  0  0  0  0  0  0  0  0  0  0
    5.8839   -0.1086    0.9330 O   0  0  0  0  0  0  0  0  0  0  0  0
    5.0609    0.9849    2.7793 N   0  0  0  0  0  0  0  0  0  0  0  0
    1.4016   -0.1502   -0.2552 H   0  0  0  0  0  0  0  0  0  0  0  0
    2.3187    2.2869   -1.2925 H   0  0  0  0  0  0  0  0  0  0  0  0
    3.8128   -0.3643   -0.8328 H   0  0  0  0  0  0  0  0  0  0  0  0
    4.6391    1.1291   -1.2402 H   0  0  0  0  0  0  0  0  0  0  0  0
    2.9197    0.6344    1.2392 H   0  0  0  0  0  0  0  0  0  0  0  0
    3.7000    2.1770    0.8792 H   0  0  0  0  0  0  0  0  0  0  0  0
    4.2998    1.5483    3.1435 H   0  0  0  0  0  0  0  0  0  0  0  0
    5.8232    0.7323    3.4001 H   0  0  0  0  0  0  0  0  0  0  0  0
    2.3537   -0.3708   -3.2763 N   0  0  0  0  0  0  0  0  0  0  0  0
    2.3731   -0.8792   -4.6290 C   0  0  2  0  0  0  0  0  0  0  0  0
    3.6475   -0.3832   -5.2996 C   0  0  0  0  0  0  0  0  0  0  0  0
    4.2637    0.6095   -4.9176 O   0  0  0  0  0  0  0  0  0  0  0  0
    1.1427   -0.4354   -5.4047 C   0  0  0  0  0  0  0  0  0  0  0  0
    2.1580   -1.0198   -2.5199 H   0  0  0  0  0  0  0  0  0  0  0  0
    2.3998   -1.9719   -4.5559 H   0  0  0  0  0  0  0  0  0  0  0  0
    1.0988    0.6566   -5.4884 H   0  0  0  0  0  0  0  0  0  0  0  0
    1.1448   -0.8449   -6.4203 H   0  0  0  0  0  0  0  0  0  0  0  0
    0.2262   -0.7676   -4.9050 H   0  0  0  0  0  0  0  0  0  0  0  0
    3.9917   -1.1542   -6.4010 N   0  0  0  0  0  0  0  0  0  0  0  0
    5.1540   -0.8787   -7.2130 C   0  0  0  0  0  0  0  0  0  0  0  0
    3.4337   -1.9704   -6.6337 H   0  0  0  0  0  0  0  0  0  0  0  0
    4.8686   -0.2304   -8.0546 H   0  0  0  0  0  0  0  0  0  0  0  0
    5.9160   -0.3724   -6.6023 H   0  0  0  0  0  0  0  0  0  0  0  0
    5.5628   -1.8236   -7.6003 H   0  0  0  0  0  0  0  0  0  0  0  0
  1  3  1  0  0  0  0
  1  7  1  0  0  0  0
  1  2  2  0  0  0  0
 22 23  1  0  0  0  0
 23 25  1  0  0  0  0
 23 24  2  0  0  0  0
 35 36  1  0  0  0  0
 36 44  1  0  0  0  0
 36 37  2  0  0  0  0
  8  9  1  0  0  0  0
  9 17  1  0  0  0  0
  9 10  2  0  0  0  0
 18 19  1  0  0  0  0
 19 34  1  0  0  0  0
 19 20  2  0  0  0  0
 35 38  1  0  0  0  0
  8 11  1  0  0  0  0
 44 45  1  0  0  0  0
 21 22  1  0  0  0  0
 18 21  1  0  0  0  0
 34 35  1  0  0  0  0
  7  8  1  0  0  0  0
 17 18  1  0  0  0  0
  3  4  1  0  0  0  0
  3  5  1  0  0  0  0
  3  6  1  0  0  0  0
 38 41  1  0  0  0  0
 38 42  1  0  0  0  0
 38 43  1  0  0  0  0
 11 14  1  0  0  0  0
 11 15  1  0  0  0  0
 11 16  1  0  0  0  0
 45 47  1  0  0  0  0
 45 48  1  0  0  0  0
 45 49  1  0  0  0  0
 22 30  1  0  0  0  0
 22 31  1  0  0  0  0
 21 28  1  0  0  0  0
 21 29  1  0  0  0  0
 35 40  1  0  0  0  0
  8 13  1  0  0  0  0
 18 27  1  0  0  0  0
 25 32  1  0  0  0  0
 25 33  1  0  0  0  0
 44 46  1  0  0  0  0
  7 12  1  0  0  0  0
 34 39  1  0  0  0  0
 17 26  1  0  0  0  0
M  END
$$$$

  -OEChem-02062319033D

 49 48  0     1  0  0  0  0  0999 V2000
   -1.9833   -0.0509   -3.3423 C   0  0  0  0  0  0  0  0  0  0  0  0
   -1.6199   -1.0613   -2.7518 O   0  0  0  0  0  0  0  0  0  0  0  0
   -3.3243   -0.0235   -3.9975 C   0  0  0  0  0  0  0  0  0  0  0  0
   -3.2886   -0.3689   -5.0432 H   0  0  0  0  0  0  0  0  0  0  0  0
   -4.0503   -0.6845   -3.4973 H   0  0  0  0  0  0  0  0  0  0  0  0
   -3.8104    0.9645   -4.0351 H   0  0  0  0  0  0  0  0  0  0  0  0
   -1.2607    1.1231   -3.4768 N   0  0  0  0  0  0  0  0  0  0  0  0
    0.0536    1.3115   -2.9213 C   0  0  2  0  0  0  0  0  0  0  0  0
    0.0266    0.8315   -1.4761 C   0  0  0  0  0  0  0  0  0  0  0  0
   -1.0065    0.7530   -0.8146 O   0  0  0  0  0  0  0  0  0  0  0  0
    0.4852    2.7674   -3.0025 C   0  0  0  0  0  0  0  0  0  0  0  0
   -1.6809    1.8924   -3.9952 H   0  0  0  0  0  0  0  0  0  0  0  0
    0.7360    0.6822   -3.5030 H   0  0  0  0  0  0  0  0  0  0  0  0
   -0.1867    3.4133   -2.4256 H   0  0  0  0  0  0  0  0  0  0  0  0
    1.4966    2.9042   -2.6056 H   0  0  0  0  0  0  0  0  0  0  0  0
    0.4754    3.1196   -4.0397 H   0  0  0  0  0  0  0  0  0  0  0  0
    1.2978    0.5411   -0.9947 N   0  0  0  0  0  0  0  0  0  0  0  0
    2.4303    1.4045   -1.2109 C   0  0  2  0  0  0  0  0  0  0  0  0
    2.6265    1.5231   -2.7182 C   0  0  0  0  0  0  0  0  0  0  0  0
    2.8001    2.5986   -3.2875 O   0  0  0  0  0  0  0  0  0  0  0  0
    3.7042    0.8655   -0.5479 C   0  0  0  0  0  0  0  0  0  0  0  0
    3.6414    0.8662    0.9807 C   0  0  0  0  0  0  0  0  0  0  0  0
    4.8910    0.3112    1.6387 C   0  0  0  0  0  0  0  0  0  0  0  0
    5.8374   -0.1672    1.0205 O   0  0  0  0  0  0  0  0  0  0  0  0
    4.8339    0.3806    3.0142 N   0  0  0  0  0  0  0  0  0  0  0  0
    1.4354   -0.2959   -0.4326 H   0  0  0  0  0  0  0  0  0  0  0  0
    2.1581    2.3861   -0.8084 H   0  0  0  0  0  0  0  0  0  0  0  0
    3.8788   -0.1645   -0.8866 H   0  0  0  0  0  0  0  0  0  0  0  0
    4.5746    1.4464   -0.8783 H   0  0  0  0  0  0  0  0  0  0  0  0
    2.8050    0.2319    1.2993 H   0  0  0  0  0  0  0  0  0  0  0  0
    3.4482    1.8751    1.3621 H   0  0  0  0  0  0  0  0  0  0  0  0
    4.0070    0.7752    3.4501 H   0  0  0  0  0  0  0  0  0  0  0  0
    5.5893    0.0511    3.6067 H   0  0  0  0  0  0  0  0  0  0  0  0
    2.5342    0.2923   -3.3530 N   0  0  0  0  0  0  0  0  0  0  0  0
    2.6610    0.1257   -4.7830 C   0  0  2  0  0  0  0  0  0  0  0  0
    3.9096    0.8718   -5.2345 C   0  0  0  0  0  0  0  0  0  0  0  0
    4.4104    1.7920   -4.5915 O   0  0  0  0  0  0  0  0  0  0  0  0
    1.4283    0.6382   -5.5113 C   0  0  0  0  0  0  0  0  0  0  0  0
    2.3693   -0.5327   -2.7840 H   0  0  0  0  0  0  0  0  0  0  0  0
    2.7894   -0.9467   -4.9662 H   0  0  0  0  0  0  0  0  0  0  0  0
    1.2833    1.7110   -5.3395 H   0  0  0  0  0  0  0  0  0  0  0  0
    1.5138    0.4852   -6.5921 H   0  0  0  0  0  0  0  0  0  0  0  0
    0.5273    0.1212   -5.1638 H   0  0  0  0  0  0  0  0  0  0  0  0
    4.3738    0.4179   -6.4612 N   0  0  0  0  0  0  0  0  0  0  0  0
    5.5382    0.9753   -7.1089 C   0  0  0  0  0  0  0  0  0  0  0  0
    3.9074   -0.3624   -6.9143 H   0  0  0  0  0  0  0  0  0  0  0  0
    5.2285    1.7800   -7.7919 H   0  0  0  0  0  0  0  0  0  0  0  0
    6.2209    1.3824   -6.3485 H   0  0  0  0  0  0  0  0  0  0  0  0
    6.0524    0.1878   -7.6794 H   0  0  0  0  0  0  0  0  0  0  0  0
  1  3  1  0  0  0  0
  1  7  1  0  0  0  0
  1  2  2  0  0  0  0
 22 23  1  0  0  0  0
 23 25  1  0  0  0  0
 23 24  2  0  0  0  0
 35 36  1  0  0  0  0
 36 44  1  0  0  0  0
 36 37  2  0  0  0  0
  8  9  1  0  0  0  0
  9 17  1  0  0  0  0
  9 10  2  0  0  0  0
 18 19  1  0  0  0  0
 19 34  1  0  0  0  0
 19 20  2  0  0  0  0
 35 38  1  0  0  0  0
  8 11  1  0  0  0  0
 44 45  1  0  0  0  0
 21 22  1  0  0  0  0
 18 21  1  0  0  0  0
 34 35  1  0  0  0  0
  7  8  1  0  0  0  0
 17 18  1  0  0  0  0
  3  4  1  0  0  0  0
  3  5  1  0  0  0  0
  3  6  1  0  0  0  0
 38 41  1  0  0  0  0
 38 42  1  0  0  0  0
 38 43  1  0  0  0  0
 11 14  1  0  0  0  0
 11 15  1  0  0  0  0
 11 16  1  0  0  0  0
 45 47  1  0  0  0  0
 45 48  1  0  0  0  0
 45 49  1  0  0  0  0
 22 30  1  0  0  0  0
 22 31  1  0  0  0  0
 21 28  1  0  0  0  0
 21 29  1  0  0  0  0
 35 40  1  0  0  0  0
  8 13  1  0  0  0  0
 18 27  1  0  0  0  0
 25 32  1  0  0  0  0
 25 33  1  0  0  0  0
 44 46  1  0  0  0  0
  7 12  1  0  0  0  0
 34 39  1  0  0  0  0
 17 26  1  0  0  0  0
M  END
$$$$

  -OEChem-02062319033D

 49 48  0     1  0  0  0  0  0999 V2000
   -1.9833   -0.0509   -3.3423 C   0  0  0  0  0  0  0  0  0  0  0  0
   -1.6199   -1.0613   -2.7518 O   0  0  0  0  0  0  0  0  0  0  0  0
   -3.3243   -0.0235   -3.9975 C   0  0  0  0  0  0  0  0  0  0  0  0
   -3.2886   -0.3689   -5.0432 H   0  0  0  0  0  0  0  0  0  0  0  0
   -4.0503   -0.6845   -3.4973 H   0  0  0  0  0  0  0  0  0  0  0  0
   -3.8104    0.9645   -4.0351 H   0  0  0  0  0  0  0  0  0  0  0  0
   -1.2607    1.1231   -3.4768 N   0  0  0  0  0  0  0  0  0  0  0  0
    0.0536    1.3115   -2.9213 C   0  0  2  0  0  0  0  0  0  0  0  0
    0.0266    0.8315   -1.4761 C   0  0  0  0  0  0  0  0  0  0  0  0
   -1.0065    0.7530   -0.8146 O   0  0  0  0  0  0  0  0  0  0  0  0
    0.4852    2.7674   -3.0025 C   0  0  0  0  0  0  0  0  0  0  0  0
   -1.6809    1.8924   -3.9952 H   0  0  0  0  0  0  0  0  0  0  0  0
    0.7360    0.6822   -3.5030 H   0  0  0  0  0  0  0  0  0  0  0  0
   -0.1867    3.4133   -2.4256 H   0  0  0  0  0  0  0  0  0  0  0  0
    1.4966    2.9042   -2.6056 H   0  0  0  0  0  0  0  0  0  0  0  0
    0.4754    3.1196   -4.0397 H   0  0  0  0  0  0  0  0  0  0  0  0
    1.2978    0.5411   -0.9947 N   0  0  0  0  0  0  0  0  0  0  0  0
    2.3503    1.5222   -0.9287 C   0  0  2  0  0  0  0  0  0  0  0  0
    2.5993    2.0138   -2.3503 C   0  0  0  0  0  0  0  0  0  0  0  0
    2.6931    3.2048   -2.6393 O   0  0  0  0  0  0  0  0  0  0  0  0
    3.6402    0.9481   -0.3292 C   0  0  0  0  0  0  0  0  0  0  0  0
    3.5116    0.5780    1.1497 C   0  0  0  0  0  0  0  0  0  0  0  0
    4.7790   -0.0125    1.7390 C   0  0  0  0  0  0  0  0  0  0  0  0
    5.7929   -0.2488    1.0887 O   0  0  0  0  0  0  0  0  0  0  0  0
    4.6560   -0.2791    3.0858 N   0  0  0  0  0  0  0  0  0  0  0  0
    1.4908   -0.3916   -0.6365 H   0  0  0  0  0  0  0  0  0  0  0  0
    1.9678    2.3529   -0.3260 H   0  0  0  0  0  0  0  0  0  0  0  0
    3.9276    0.0472   -0.8876 H   0  0  0  0  0  0  0  0  0  0  0  0
    4.4642    1.6614   -0.4572 H   0  0  0  0  0  0  0  0  0  0  0  0
    2.7270   -0.1814    1.2559 H   0  0  0  0  0  0  0  0  0  0  0  0
    3.2059    1.4467    1.7434 H   0  0  0  0  0  0  0  0  0  0  0  0
    3.7770   -0.0703    3.5474 H   0  0  0  0  0  0  0  0  0  0  0  0
    5.4133   -0.6767    3.6323 H   0  0  0  0  0  0  0  0  0  0  0  0
    2.6534    0.9672   -3.2603 N   0  0  0  0  0  0  0  0  0  0  0  0
    2.8574    1.1585   -4.6782 C   0  0  2  0  0  0  0  0  0  0  0  0
    4.0468    2.0921   -4.8605 C   0  0  0  0  0  0  0  0  0  0  0  0
    4.4285    2.8702   -3.9887 O   0  0  0  0  0  0  0  0  0  0  0  0
    1.6138    1.7261   -5.3446 C   0  0  0  0  0  0  0  0  0  0  0  0
    2.5440    0.0193   -2.9123 H   0  0  0  0  0  0  0  0  0  0  0  0
    3.0961    0.1756   -5.0989 H   0  0  0  0  0  0  0  0  0  0  0  0
    1.3590    2.7108   -4.9361 H   0  0  0  0  0  0  0  0  0  0  0  0
    1.7603    1.8437   -6.4234 H   0  0  0  0  0  0  0  0  0  0  0  0
    0.7525    1.0680   -5.1871 H   0  0  0  0  0  0  0  0  0  0  0  0
    4.6051    1.9850   -6.1266 N   0  0  0  0  0  0  0  0  0  0  0  0
    5.7375    2.7759   -6.5487 C   0  0  0  0  0  0  0  0  0  0  0  0
    4.2360    1.2997   -6.7791 H   0  0  0  0  0  0  0  0  0  0  0  0
    5.3818    3.6920   -7.0429 H   0  0  0  0  0  0  0  0  0  0  0  0
    6.3443    3.0447   -5.6715 H   0  0  0  0  0  0  0  0  0  0  0  0
    6.3493    2.1933   -7.2532 H   0  0  0  0  0  0  0  0  0  0  0  0
  1  3  1  0  0  0  0
  1  7  1  0  0  0  0
  1  2  2  0  0  0  0
 22 23  1  0  0  0  0
 23 25  1  0  0  0  0
 23 24  2  0  0  0  0
 35 36  1  0  0  0  0
 36 44  1  0  0  0  0
 36 37  2  0  0  0  0
  8  9  1  0  0  0  0
  9 17  1  0  0  0  0
  9 10  2  0  0  0  0
 18 19  1  0  0  0  0
 19 34  1  0  0  0  0
 19 20  2  0  0  0  0
 35 38  1  0  0  0  0
  8 11  1  0  0  0  0
 44 45  1  0  0  0  0
 21 22  1  0  0  0  0
 18 21  1  0  0  0  0
 34 35  1  0  0  0  0
  7  8  1  0  0  0  0
 17 18  1  0  0  0  0
  3  4  1  0  0  0  0
  3  5  1  0  0  0  0
  3  6  1  0  0  0  0
 38 41  1  0  0  0  0
 38 42  1  0  0  0  0
 38 43  1  0  0  0  0
 11 14  1  0  0  0  0
 11 15  1  0  0  0  0
 11 16  1  0  0  0  0
 45 47  1  0  0  0  0
 45 48  1  0  0  0  0
 45 49  1  0  0  0  0
 22 30  1  0  0  0  0
 22 31  1  0  0  0  0
 21 28  1  0  0  0  0
 21 29  1  0  0  0  0
 35 40  1  0  0  0  0
  8 13  1  0  0  0  0
 18 27  1  0  0  0  0
 25 32  1  0  0  0  0
 25 33  1  0  0  0  0
 44 46  1  0  0  0  0
  7 12  1  0  0  0  0
 34 39  1  0  0  0  0
 17 26  1  0  0  0  0
M  END
$$$$

  -OEChem-02062319033D

 49 48  0     1  0  0  0  0  0999 V2000
   -1.9833   -0.0509   -3.3423 C   0  0  0  0  0  0  0  0  0  0  0  0
   -1.6199   -1.0613   -2.7518 O   0  0  0  0  0  0  0  0  0  0  0  0
   -3.3243   -0.0235   -3.9975 C   0  0  0  0  0  0  0  0  0  0  0  0
   -3.2886   -0.3689   -5.0432 H   0  0  0  0  0  0  0  0  0  0  0  0
   -4.0503   -0.6845   -3.4973 H   0  0  0  0  0  0  0  0  0  0  0  0
   -3.8104    0.9645   -4.0351 H   0  0  0  0  0  0  0  0  0  0  0  0
   -1.2607    1.1231   -3.4768 N   0  0  0  0  0  0  0  0  0  0  0  0
    0.0536    1.3115   -2.9213 C   0  0  2  0  0  0  0  0  0  0  0  0
    0.0266    0.8315   -1.4761 C   0  0  0  0  0  0  0  0  0  0  0  0
   -1.0065    0.7530   -0.8146 O   0  0  0  0  0  0  0  0  0  0  0  0
    0.4852    2.7674   -3.0025 C   0  0  0  0  0  0  0  0  0  0  0  0
   -1.6809    1.8924   -3.9952 H   0  0  0  0  0  0  0  0  0  0  0  0
    0.7360    0.6822   -3.5030 H   0  0  0  0  0  0  0  0  0  0  0  0
   -0.1867    3.4133   -2.4256 H   0  0  0  0  0  0  0  0  0  0  0  0
    1.4966    2.9042   -2.6056 H   0  0  0  0  0  0  0  0  0  0  0  0
    0.4754    3.1196   -4.0397 H   0  0  0  0  0  0  0  0  0  0  0  0
    1.2978    0.5411   -0.9947 N   0  0  0  0  0  0  0  0  0  0  0  0
    2.2472    1.5619   -0.6326 C   0  0  2  0  0  0  0  0  0  0  0  0
    2.5092    2.3982   -1.8802 C   0  0  0  0  0  0  0  0  0  0  0  0
    2.5004    3.6273   -1.8755 O   0  0  0  0  0  0  0  0  0  0  0  0
    3.5592    0.9704   -0.1018 C   0  0  0  0  0  0  0  0  0  0  0  0
    3.4028    0.2479    1.2377 C   0  0  0  0  0  0  0  0  0  0  0  0
    4.6945   -0.3589    1.7532 C   0  0  0  0  0  0  0  0  0  0  0  0
    5.7536   -0.3477    1.1328 O   0  0  0  0  0  0  0  0  0  0  0  0
    4.5395   -0.9491    2.9892 N   0  0  0  0  0  0  0  0  0  0  0  0
    1.5639   -0.4309   -0.8532 H   0  0  0  0  0  0  0  0  0  0  0  0
    1.7609    2.1896    0.1218 H   0  0  0  0  0  0  0  0  0  0  0  0
    3.9558    0.2563   -0.8359 H   0  0  0  0  0  0  0  0  0  0  0  0
    4.3156    1.7595   -0.0054 H   0  0  0  0  0  0  0  0  0  0  0  0
    2.6911   -0.5774    1.1119 H   0  0  0  0  0  0  0  0  0  0  0  0
    2.9896    0.9209    1.9972 H   0  0  0  0  0  0  0  0  0  0  0  0
    3.6253   -0.9306    3.4288 H   0  0  0  0  0  0  0  0  0  0  0  0
    5.3071   -1.4016    3.4753 H   0  0  0  0  0  0  0  0  0  0  0  0
    2.7029    1.6079   -3.0046 N   0  0  0  0  0  0  0  0  0  0  0  0
    2.9488    2.1490   -4.3220 C   0  0  2  0  0  0  0  0  0  0  0  0
    4.0497    3.1947   -4.2029 C   0  0  0  0  0  0  0  0  0  0  0  0
    4.3168    3.7706   -3.1503 O   0  0  0  0  0  0  0  0  0  0  0  0
    1.6864    2.7541   -4.9161 C   0  0  0  0  0  0  0  0  0  0  0  0
    2.6702    0.5985   -2.8962 H   0  0  0  0  0  0  0  0  0  0  0  0
    3.2989    1.3186   -4.9447 H   0  0  0  0  0  0  0  0  0  0  0  0
    1.3207    3.5878   -4.3057 H   0  0  0  0  0  0  0  0  0  0  0  0
    1.8675    3.1380   -5.9255 H   0  0  0  0  0  0  0  0  0  0  0  0
    0.8863    2.0082   -4.9734 H   0  0  0  0  0  0  0  0  0  0  0  0
    4.6700    3.4403   -5.4199 N   0  0  0  0  0  0  0  0  0  0  0  0
    5.7383    4.4005   -5.5707 C   0  0  0  0  0  0  0  0  0  0  0  0
    4.3971    2.9027   -6.2373 H   0  0  0  0  0  0  0  0  0  0  0  0
    5.3179    5.3753   -5.8585 H   0  0  0  0  0  0  0  0  0  0  0  0
    6.2780    4.5011   -4.6174 H   0  0  0  0  0  0  0  0  0  0  0  0
    6.4332    4.0562   -6.3508 H   0  0  0  0  0  0  0  0  0  0  0  0
  1  3  1  0  0  0  0
  1  7  1  0  0  0  0
  1  2  2  0  0  0  0
 22 23  1  0  0  0  0
 23 25  1  0  0  0  0
 23 24  2  0  0  0  0
 35 36  1  0  0  0  0
 36 44  1  0  0  0  0
 36 37  2  0  0  0  0
  8  9  1  0  0  0  0
  9 17  1  0  0  0  0
  9 10  2  0  0  0  0
 18 19  1  0  0  0  0
 19 34  1  0  0  0  0
 19 20  2  0  0  0  0
 35 38  1  0  0  0  0
  8 11  1  0  0  0  0
 44 45  1  0  0  0  0
 21 22  1  0  0  0  0
 18 21  1  0  0  0  0
 34 35  1  0  0  0  0
  7  8  1  0  0  0  0
 17 18  1  0  0  0  0
  3  4  1  0  0  0  0
  3  5  1  0  0  0  0
  3  6  1  0  0  0  0
 38 41  1  0  0  0  0
 38 42  1  0  0  0  0
 38 43  1  0  0  0  0
 11 14  1  0  0  0  0
 11 15  1  0  0  0  0
 11 16  1  0  0  0  0
 45 47  1  0  0  0  0
 45 48  1  0  0  0  0
 45 49  1  0  0  0  0
 22 30  1  0  0  0  0
 22 31  1  0  0  0  0
 21 28  1  0  0  0  0
 21 29  1  0  0  0  0
 35 40  1  0  0  0  0
  8 13  1  0  0  0  0
 18 27  1  0  0  0  0
 25 32  1  0  0  0  0
 25 33  1  0  0  0  0
 44 46  1  0  0  0  0
  7 12  1  0  0  0  0
 34 39  1  0  0  0  0
 17 26  1  0  0  0  0
M  END
$$$$

  -OEChem-02062319033D

 49 48  0     1  0  0  0  0  0999 V2000
   -1.9833   -0.0509   -3.3423 C   0  0  0  0  0  0  0  0  0  0  0  0
   -1.6199   -1.0613   -2.7518 O   0  0  0  0  0  0  0  0  0  0  0  0
   -3.3243   -0.0235   -3.9975 C   0  0  0  0  0  0  0  0  0  0  0  0
   -3.2886   -0.3689   -5.0432 H   0  0  0  0  0  0  0  0  0  0  0  0
   -4.0503   -0.6845   -3.4973 H   0  0  0  0  0  0  0  0  0  0  0  0
   -3.8104    0.9645   -4.0351 H   0  0  0  0  0  0  0  0  0  0  0  0
   -1.2607    1.1231   -3.4768 N   0  0  0  0  0  0  0  0  0  0  0  0
    0.0536    1.3115   -2.9213 C   0  0  2  0  0  0  0  0  0  0  0  0
    0.0266    0.8315   -1.4761 C   0  0  0  0  0  0  0  0  0  0  0  0
   -1.0065    0.7530   -0.8146 O   0  0  0  0  0  0  0  0  0  0  0  0
    0.4852    2.7674   -3.0025 C   0  0  0  0  0  0  0  0  0  0  0  0
   -1.6809    1.8924   -3.9952 H   0  0  0  0  0  0  0  0  0  0  0  0
    0.7360    0.6822   -3.5030 H   0  0  0  0  0  0  0  0  0  0  0  0
   -0.1867    3.4133   -2.4256 H   0  0  0  0  0  0  0  0  0  0  0  0
    1.4966    2.9042   -2.6056 H   0  0  0  0  0  0  0  0  0  0  0  0
    0.4754    3.1196   -4.0397 H   0  0  0  0  0  0  0  0  0  0  0  0
    1.2978    0.5411   -0.9947 N   0  0  0  0  0  0  0  0  0  0  0  0
    2.1281    1.5209   -0.3427 C   0  0  2  0  0  0  0  0  0  0  0  0
    2.3622    2.6501   -1.3401 C   0  0  0  0  0  0  0  0  0  0  0  0
    2.2351    3.8374   -1.0482 O   0  0  0  0  0  0  0  0  0  0  0  0
    3.4667    0.9308    0.1187 C   0  0  0  0  0  0  0  0  0  0  0  0
    3.3226   -0.1015    1.2386 C   0  0  0  0  0  0  0  0  0  0  0  0
    4.6431   -0.7045    1.6804 C   0  0  0  0  0  0  0  0  0  0  0  0
    5.7221   -0.4572    1.1499 O   0  0  0  0  0  0  0  0  0  0  0  0
    4.4922   -1.5840    2.7310 N   0  0  0  0  0  0  0  0  0  0  0  0
    1.6497   -0.4109   -1.0679 H   0  0  0  0  0  0  0  0  0  0  0  0
    1.5515    1.9074    0.5045 H   0  0  0  0  0  0  0  0  0  0  0  0
    3.9615    0.4485   -0.7350 H   0  0  0  0  0  0  0  0  0  0  0  0
    4.1388    1.7340    0.4461 H   0  0  0  0  0  0  0  0  0  0  0  0
    2.6996   -0.9289    0.8771 H   0  0  0  0  0  0  0  0  0  0  0  0
    2.8141    0.3336    2.1062 H   0  0  0  0  0  0  0  0  0  0  0  0
    3.5623   -1.7472    3.1025 H   0  0  0  0  0  0  0  0  0  0  0  0
    5.2780   -2.0741    3.1464 H   0  0  0  0  0  0  0  0  0  0  0  0
    2.6795    2.1706   -2.6033 N   0  0  0  0  0  0  0  0  0  0  0  0
    2.9290    3.0296   -3.7384 C   0  0  2  0  0  0  0  0  0  0  0  0
    3.9181    4.1042   -3.3066 C   0  0  0  0  0  0  0  0  0  0  0  0
    4.0827    4.4319   -2.1333 O   0  0  0  0  0  0  0  0  0  0  0  0
    1.6412    3.6521   -4.2549 C   0  0  0  0  0  0  0  0  0  0  0  0
    2.7394    1.1655   -2.7367 H   0  0  0  0  0  0  0  0  0  0  0  0
    3.3840    2.4043   -4.5143 H   0  0  0  0  0  0  0  0  0  0  0  0
    1.1710    4.2823   -3.4912 H   0  0  0  0  0  0  0  0  0  0  0  0
    1.8281    4.2800   -5.1323 H   0  0  0  0  0  0  0  0  0  0  0  0
    0.9198    2.8777   -4.5371 H   0  0  0  0  0  0  0  0  0  0  0  0
    4.5641    4.6844   -4.3893 N   0  0  0  0  0  0  0  0  0  0  0  0
    5.5406    5.7382   -4.2413 C   0  0  0  0  0  0  0  0  0  0  0  0
    4.3797    4.3372   -5.3259 H   0  0  0  0  0  0  0  0  0  0  0  0
    5.0412    6.7152   -4.3195 H   0  0  0  0  0  0  0  0  0  0  0  0
    6.0263    5.6524   -3.2581 H   0  0  0  0  0  0  0  0  0  0  0  0
    6.2985    5.6495   -5.0337 H   0  0  0  0  0  0  0  0  0  0  0  0
  1  3  1  0  0  0  0
  1  7  1  0  0  0  0
  1  2  2  0  0  0  0
 22 23  1  0  0  0  0
 23 25  1  0  0  0  0
 23 24  2  0  0  0  0
 35 36  1  0  0  0  0
 36 44  1  0  0  0  0
 36 37  2  0  0  0  0
  8  9  1  0  0  0  0
  9 17  1  0  0  0  0
  9 10  2  0  0  0  0
 18 19  1  0  0  0  0
 19 34  1  0  0  0  0
 19 20  2  0  0  0  0
 35 38  1  0  0  0  0
  8 11  1  0  0  0  0
 44 45  1  0  0  0  0
 21 22  1  0  0  0  0
 18 21  1  0  0  0  0
 34 35  1  0  0  0  0
  7  8  1  0  0  0  0
 17 18  1  0  0  0  0
  3  4  1  0  0  0  0
  3  5  1  0  0  0  0
  3  6  1  0  0  0  0
 38 41  1  0  0  0  0
 38 42  1  0  0  0  0
 38 43  1  0  0  0  0
 11 14  1  0  0  0  0
 11 15  1  0  0  0  0
 11 16  1  0  0  0  0
 45 47  1  0  0  0  0
 45 48  1  0  0  0  0
 45 49  1  0  0  0  0
 22 30  1  0  0  0  0
 22 31  1  0  0  0  0
 21 28  1  0  0  0  0
 21 29  1  0  0  0  0
 35 40  1  0  0  0  0
  8 13  1  0  0  0  0
 18 27  1  0  0  0  0
 25 32  1  0  0  0  0
 25 33  1  0  0  0  0
 44 46  1  0  0  0  0
  7 12  1  0  0  0  0
 34 39  1  0  0  0  0
 17 26  1  0  0  0  0
M  END
$$$$

  -OEChem-02062319033D

 49 48  0     1  0  0  0  0  0999 V2000
   -1.9833   -0.0509   -3.3423 C   0  0  0  0  0  0  0  0  0  0  0  0
   -1.6199   -1.0613   -2.7518 O   0  0  0  0  0  0  0  0  0  0  0  0
   -3.3243   -0.0235   -3.9975 C   0  0  0  0  0  0  0  0  0  0  0  0
   -3.2886   -0.3689   -5.0432 H   0  0  0  0  0  0  0  0  0  0  0  0
   -4.0503   -0.6845   -3.4973 H   0  0  0  0  0  0  0  0  0  0  0  0
   -3.8104    0.9645   -4.0351 H   0  0  0  0  0  0  0  0  0  0  0  0
   -1.2607    1.1231   -3.4768 N   0  0  0  0  0  0  0  0  0  0  0  0
    0.0536    1.3115   -2.9213 C   0  0  2  0  0  0  0  0  0  0  0  0
    0.0266    0.8315   -1.4761 C   0  0  0  0  0  0  0  0  0  0  0  0
   -1.0065    0.7530   -0.8146 O   0  0  0  0  0  0  0  0  0  0  0  0
    0.4852    2.7674   -3.0025 C   0  0  0  0  0  0  0  0  0  0  0  0
   -1.6809    1.8924   -3.9952 H   0  0  0  0  0  0  0  0  0  0  0  0
    0.7360    0.6822   -3.5030 H   0  0  0  0  0  0  0  0  0  0  0  0
   -0.1867    3.4133   -2.4256 H   0  0  0  0  0  0  0  0  0  0  0  0
    1.4966    2.9042   -2.6056 H   0  0  0  0  0  0  0  0  0  0  0  0
    0.4754    3.1196   -4.0397 H   0  0  0  0  0  0  0  0  0  0  0  0
    1.2978    0.5411   -0.9947 N   0  0  0  0  0  0  0  0  0  0  0  0
    2.0011    1.4021   -0.0789 C   0  0  2  0  0  0  0  0  0  0  0  0
    2.1684    2.7525   -0.7667 C   0  0  0  0  0  0  0  0  0  0  0  0
    1.9153    3.8207   -0.2137 O   0  0  0  0  0  0  0  0  0  0  0  0
    3.3689    0.8321    0.3173 C   0  0  0  0  0  0  0  0  0  0  0  0
    3.2764   -0.4464    1.1525 C   0  0  0  0  0  0  0  0  0  0  0  0
    4.6284   -1.0256    1.5254 C   0  0  0  0  0  0  0  0  0  0  0  0
    5.7006   -0.5699    1.1388 O   0  0  0  0  0  0  0  0  0  0  0  0
    4.5174   -2.1403    2.3288 N   0  0  0  0  0  0  0  0  0  0  0  0
    1.7425   -0.3331   -1.2659 H   0  0  0  0  0  0  0  0  0  0  0  0
    1.3538    1.5254    0.7960 H   0  0  0  0  0  0  0  0  0  0  0  0
    3.9443    0.6108   -0.5916 H   0  0  0  0  0  0  0  0  0  0  0  0
    3.9459    1.5867    0.8666 H   0  0  0  0  0  0  0  0  0  0  0  0
    2.7521   -1.2122    0.5676 H   0  0  0  0  0  0  0  0  0  0  0  0
    2.6914   -0.2752    2.0630 H   0  0  0  0  0  0  0  0  0  0  0  0
    3.5923   -2.4643    2.5905 H   0  0  0  0  0  0  0  0  0  0  0  0
    5.3280   -2.6485    2.6678 H   0  0  0  0  0  0  0  0  0  0  0  0
    2.5848    2.6171   -2.0837 N   0  0  0  0  0  0  0  0  0  0  0  0
    2.7995    3.7403   -2.9674 C   0  0  2  0  0  0  0  0  0  0  0  0
    3.6610    4.7588   -2.2327 C   0  0  0  0  0  0  0  0  0  0  0  0
    3.7424    4.8089   -1.0071 O   0  0  0  0  0  0  0  0  0  0  0  0
    1.4814    4.3590   -3.4061 C   0  0  0  0  0  0  0  0  0  0  0  0
    2.7467    1.6816   -2.4447 H   0  0  0  0  0  0  0  0  0  0  0  0
    3.3456    3.3588   -3.8370 H   0  0  0  0  0  0  0  0  0  0  0  0
    0.9200    4.7470   -2.5483 H   0  0  0  0  0  0  0  0  0  0  0  0
    1.6448    5.1918   -4.0981 H   0  0  0  0  0  0  0  0  0  0  0  0
    0.8506    3.6174   -3.9081 H   0  0  0  0  0  0  0  0  0  0  0  0
    4.2945    5.6328   -3.1051 N   0  0  0  0  0  0  0  0  0  0  0  0
    5.1578    6.6980   -2.6514 C   0  0  0  0  0  0  0  0  0  0  0  0
    4.1851    5.5055   -4.1069 H   0  0  0  0  0  0  0  0  0  0  0  0
    4.5707    7.6204   -2.5307 H   0  0  0  0  0  0  0  0  0  0  0  0
    5.6065    6.4202   -1.6862 H   0  0  0  0  0  0  0  0  0  0  0  0
    5.9543    6.8647   -3.3915 H   0  0  0  0  0  0  0  0  0  0  0  0
  1  3  1  0  0  0  0
  1  7  1  0  0  0  0
  1  2  2  0  0  0  0
 22 23  1  0  0  0  0
 23 25  1  0  0  0  0
 23 24  2  0  0  0  0
 35 36  1  0  0  0  0
 36 44  1  0  0  0  0
 36 37  2  0  0  0  0
  8  9  1  0  0  0  0
  9 17  1  0  0  0  0
  9 10  2  0  0  0  0
 18 19  1  0  0  0  0
 19 34  1  0  0  0  0
 19 20  2  0  0  0  0
 35 38  1  0  0  0  0
  8 11  1  0  0  0  0
 44 45  1  0  0  0  0
 21 22  1  0  0  0  0
 18 21  1  0  0  0  0
 34 35  1  0  0  0  0
  7  8  1  0  0  0  0
 17 18  1  0  0  0  0
  3  4  1  0  0  0  0
  3  5  1  0  0  0  0
  3  6  1  0  0  0  0
 38 41  1  0  0  0  0
 38 42  1  0  0  0  0
 38 43  1  0  0  0  0
 11 14  1  0  0  0  0
 11 15  1  0  0  0  0
 11 16  1  0  0  0  0
 45 47  1  0  0  0  0
 45 48  1  0  0  0  0
 45 49  1  0  0  0  0
 22 30  1  0  0  0  0
 22 31  1  0  0  0  0
 21 28  1  0  0  0  0
 21 29  1  0  0  0  0
 35 40  1  0  0  0  0
  8 13  1  0  0  0  0
 18 27  1  0  0  0  0
 25 32  1  0  0  0  0
 25 33  1  0  0  0  0
 44 46  1  0  0  0  0
  7 12  1  0  0  0  0
 34 39  1  0  0  0  0
 17 26  1  0  0  0  0
M  END
$$$$

  -OEChem-02062319033D

 49 48  0     1  0  0  0  0  0999 V2000
   -1.9833   -0.0509   -3.3423 C   0  0  0  0  0  0  0  0  0  0  0  0
   -1.6199   -1.0613   -2.7518 O   0  0  0  0  0  0  0  0  0  0  0  0
   -3.3243   -0.0235   -3.9975 C   0  0  0  0  0  0  0  0  0  0  0  0
   -3.2886   -0.3689   -5.0432 H   0  0  0  0  0  0  0  0  0  0  0  0
   -4.0503   -0.6845   -3.4973 H   0  0  0  0  0  0  0  0  0  0  0  0
   -3.8104    0.9645   -4.0351 H   0  0  0  0  0  0  0  0  0  0  0  0
   -1.2607    1.1231   -3.4768 N   0  0  0  0  0  0  0  0  0  0  0  0
    0.0536    1.3115   -2.9213 C   0  0  2  0  0  0  0  0  0  0  0  0
    0.0266    0.8315   -1.4761 C   0  0  0  0  0  0  0  0  0  0  0  0
   -1.0065    0.7530   -0.8146 O   0  0  0  0  0  0  0  0  0  0  0  0
    0.4852    2.7674   -3.0025 C   0  0  0  0  0  0  0  0  0  0  0  0
   -1.6809    1.8924   -3.9952 H   0  0  0  0  0  0  0  0  0  0  0  0
    0.7360    0.6822   -3.5030 H   0  0  0  0  0  0  0  0  0  0  0  0
   -0.1867    3.4133   -2.4256 H   0  0  0  0  0  0  0  0  0  0  0  0
    1.4966    2.9042   -2.6056 H   0  0  0  0  0  0  0  0  0  0  0  0
    0.4754    3.1196   -4.0397 H   0  0  0  0  0  0  0  0  0  0  0  0
    1.2978    0.5411   -0.9947 N   0  0  0  0  0  0  0  0  0  0  0  0
    1.8747    1.2134    0.1409 C   0  0  2  0  0  0  0  0  0  0  0  0
    1.9411    2.6982   -0.1990 C   0  0  0  0  0  0  0  0  0  0  0  0
    1.5627    3.5783    0.5712 O   0  0  0  0  0  0  0  0  0  0  0  0
    3.2726    0.6810    0.4805 C   0  0  0  0  0  0  0  0  0  0  0  0
    3.2674   -0.7633    0.9852 C   0  0  0  0  0  0  0  0  0  0  0  0
    4.6514   -1.3005    1.2989 C   0  0  0  0  0  0  0  0  0  0  0  0
    5.6905   -0.6780    1.1002 O   0  0  0  0  0  0  0  0  0  0  0  0
    4.6134   -2.5801    1.8099 N   0  0  0  0  0  0  0  0  0  0  0  0
    1.8358   -0.2029   -1.4337 H   0  0  0  0  0  0  0  0  0  0  0  0
    1.1814    1.0696    0.9765 H   0  0  0  0  0  0  0  0  0  0  0  0
    3.9054    0.7321   -0.4157 H   0  0  0  0  0  0  0  0  0  0  0  0
    3.7500    1.3276    1.2275 H   0  0  0  0  0  0  0  0  0  0  0  0
    2.8449   -1.4078    0.2044 H   0  0  0  0  0  0  0  0  0  0  0  0
    2.6297   -0.8641    1.8705 H   0  0  0  0  0  0  0  0  0  0  0  0
    3.7133   -3.0331    1.9279 H   0  0  0  0  0  0  0  0  0  0  0  0
    5.4536   -3.0855    2.0723 H   0  0  0  0  0  0  0  0  0  0  0  0
    2.4252    2.9168   -1.4813 N   0  0  0  0  0  0  0  0  0  0  0  0
    2.5689    4.2327   -2.0615 C   0  0  2  0  0  0  0  0  0  0  0  0
    3.2959    5.1139   -1.0543 C   0  0  0  0  0  0  0  0  0  0  0  0
    3.3190    4.8760    0.1515 O   0  0  0  0  0  0  0  0  0  0  0  0
    1.2176    4.8266   -2.4276 C   0  0  0  0  0  0  0  0  0  0  0  0
    2.6918    2.1116   -2.0400 H   0  0  0  0  0  0  0  0  0  0  0  0
    3.1863    4.1169   -2.9589 H   0  0  0  0  0  0  0  0  0  0  0  0
    0.5850    4.9501   -1.5410 H   0  0  0  0  0  0  0  0  0  0  0  0
    1.3301    5.8114   -2.8931 H   0  0  0  0  0  0  0  0  0  0  0  0
    0.6835    4.1768   -3.1292 H   0  0  0  0  0  0  0  0  0  0  0  0
    3.8796    6.2207   -1.6547 N   0  0  0  0  0  0  0  0  0  0  0  0
    4.6161    7.2144   -0.9091 C   0  0  0  0  0  0  0  0  0  0  0  0
    3.8264    6.3281   -2.6634 H   0  0  0  0  0  0  0  0  0  0  0  0
    3.9383    8.0291   -0.6141 H   0  0  0  0  0  0  0  0  0  0  0  0
    5.0472    6.7522   -0.0088 H   0  0  0  0  0  0  0  0  0  0  0  0
    5.4241    7.6189   -1.5364 H   0  0  0  0  0  0  0  0  0  0  0  0
  1  3  1  0  0  0  0
  1  7  1  0  0  0  0
  1  2  2  0  0  0  0
 22 23  1  0  0  0  0
 23 25  1  0  0  0  0
 23 24  2  0  0  0  0
 35 36  1  0  0  0  0
 36 44  1  0  0  0  0
 36 37  2  0  0  0  0
  8  9  1  0  0  0  0
  9 17  1  0  0  0  0
  9 10  2  0  0  0  0
 18 19  1  0  0  0  0
 19 34  1  0  0  0  0
 19 20  2  0  0  0  0
 35 38  1  0  0  0  0
  8 11  1  0  0  0  0
 44 45  1  0  0  0  0
 21 22  1  0  0  0  0
 18 21  1  0  0  0  0
 34 35  1  0  0  0  0
  7  8  1  0  0  0  0
 17 18  1  0  0  0  0
  3  4  1  0  0  0  0
  3  5  1  0  0  0  0
  3  6  1  0  0  0  0
 38 41  1  0  0  0  0
 38 42  1  0  0  0  0
 38 43  1  0  0  0  0
 11 14  1  0  0  0  0
 11 15  1  0  0  0  0
 11 16  1  0  0  0  0
 45 47  1  0  0  0  0
 45 48  1  0  0  0  0
 45 49  1  0  0  0  0
 22 30  1  0  0  0  0
 22 31  1  0  0  0  0
 21 28  1  0  0  0  0
 21 29  1  0  0  0  0
 35 40  1  0  0  0  0
  8 13  1  0  0  0  0
 18 27  1  0  0  0  0
 25 32  1  0  0  0  0
 25 33  1  0  0  0  0
 44 46  1  0  0  0  0
  7 12  1  0  0  0  0
 34 39  1  0  0  0  0
 17 26  1  0  0  0  0
M  END
$$$$

  -OEChem-02062319033D

 49 48  0     1  0  0  0  0  0999 V2000
   -1.9833   -0.0509   -3.3423 C   0  0  0  0  0  0  0  0  0  0  0  0
   -1.6199   -1.0613   -2.7518 O   0  0  0  0  0  0  0  0  0  0  0  0
   -3.3243   -0.0235   -3.9975 C   0  0  0  0  0  0  0  0  0  0  0  0
   -3.2886   -0.3689   -5.0432 H   0  0  0  0  0  0  0  0  0  0  0  0
   -4.0503   -0.6845   -3.4973 H   0  0  0  0  0  0  0  0  0  0  0  0
   -3.8104    0.9645   -4.0351 H   0  0  0  0  0  0  0  0  0  0  0  0
   -1.2607    1.1231   -3.4768 N   0  0  0  0  0  0  0  0  0  0  0  0
    0.0536    1.3115   -2.9213 C   0  0  2  0  0  0  0  0  0  0  0  0
    0.0266    0.8315   -1.4761 C   0  0  0  0  0  0  0  0  0  0  0  0
   -1.0065    0.7530   -0.8146 O   0  0  0  0  0  0  0  0  0  0  0  0
    0.4852    2.7674   -3.0025 C   0  0  0  0  0  0  0  0  0  0  0  0
   -1.6809    1.8924   -3.9952 H   0  0  0  0  0  0  0  0  0  0  0  0
    0.7360    0.6822   -3.5030 H   0  0  0  0  0  0  0  0  0  0  0  0
   -0.1867    3.4133   -2.4256 H   0  0  0  0  0  0  0  0  0  0  0  0
    1.4966    2.9042   -2.6056 H   0  0  0  0  0  0  0  0  0  0  0  0
    0.4754    3.1196   -4.0397 H   0  0  0  0  0  0  0  0  0  0  0  0
    1.2978    0.5411   -0.9947 N   0  0  0  0  0  0  0  0  0  0  0  0
    1.7577    0.9679    0.3018 C   0  0  2  0  0  0  0  0  0  0  0  0
    1.6957    2.4911    0.3241 C   0  0  0  0  0  0  0  0  0  0  0  0
    1.2015    3.1268    1.2528 O   0  0  0  0  0  0  0  0  0  0  0  0
    3.1843    0.4877    0.5971 C   0  0  0  0  0  0  0  0  0  0  0  0
    3.2961   -1.0306    0.7480 C   0  0  0  0  0  0  0  0  0  0  0  0
    4.7104   -1.5103    1.0164 C   0  0  0  0  0  0  0  0  0  0  0  0
    5.6925   -0.7742    1.0368 O   0  0  0  0  0  0  0  0  0  0  0  0
    4.7736   -2.8736    1.2098 N   0  0  0  0  0  0  0  0  0  0  0  0
    1.9233   -0.0289   -1.5598 H   0  0  0  0  0  0  0  0  0  0  0  0
    1.0459    0.5713    1.0337 H   0  0  0  0  0  0  0  0  0  0  0  0
    3.8474    0.8041   -0.2192 H   0  0  0  0  0  0  0  0  0  0  0  0
    3.5645    0.9743    1.5042 H   0  0  0  0  0  0  0  0  0  0  0  0
    2.9718   -1.5025   -0.1877 H   0  0  0  0  0  0  0  0  0  0  0  0
    2.6334   -1.3929    1.5419 H   0  0  0  0  0  0  0  0  0  0  0  0
    3.9169   -3.4149    1.1597 H   0  0  0  0  0  0  0  0  0  0  0  0
    5.6463   -3.3555    1.4005 H   0  0  0  0  0  0  0  0  0  0  0  0
    2.2115    3.0495   -0.8371 N   0  0  0  0  0  0  0  0  0  0  0  0
    2.2531    4.4732   -1.0823 C   0  0  2  0  0  0  0  0  0  0  0  0
    2.8477    5.1452    0.1483 C   0  0  0  0  0  0  0  0  0  0  0  0
    2.8413    4.6286    1.2637 O   0  0  0  0  0  0  0  0  0  0  0  0
    0.8681    5.0230   -1.3860 C   0  0  0  0  0  0  0  0  0  0  0  0
    2.5783    2.4263   -1.5504 H   0  0  0  0  0  0  0  0  0  0  0  0
    2.9170    4.6272   -1.9399 H   0  0  0  0  0  0  0  0  0  0  0  0
    0.1888    4.8778   -0.5381 H   0  0  0  0  0  0  0  0  0  0  0  0
    0.9053    6.0963   -1.5996 H   0  0  0  0  0  0  0  0  0  0  0  0
    0.4298    4.5177   -2.2534 H   0  0  0  0  0  0  0  0  0  0  0  0
    3.3477    6.4080   -0.1371 N   0  0  0  0  0  0  0  0  0  0  0  0
    3.9523    7.2523    0.8668 C   0  0  0  0  0  0  0  0  0  0  0  0
    3.3282    6.7488   -1.0938 H   0  0  0  0  0  0  0  0  0  0  0  0
    3.1872    7.9135    1.2997 H   0  0  0  0  0  0  0  0  0  0  0  0
    4.3864    6.6256    1.6597 H   0  0  0  0  0  0  0  0  0  0  0  0
    4.7441    7.8608    0.4055 H   0  0  0  0  0  0  0  0  0  0  0  0
  1  3  1  0  0  0  0
  1  7  1  0  0  0  0
  1  2  2  0  0  0  0
 22 23  1  0  0  0  0
 23 25  1  0  0  0  0
 23 24  2  0  0  0  0
 35 36  1  0  0  0  0
 36 44  1  0  0  0  0
 36 37  2  0  0  0  0
  8  9  1  0  0  0  0
  9 17  1  0  0  0  0
  9 10  2  0  0  0  0
 18 19  1  0  0  0  0
 19 34  1  0  0  0  0
 19 20  2  0  0  0  0
 35 38  1  0  0  0  0
  8 11  1  0  0  0  0
 44 45  1  0  0  0  0
 21 22  1  0  0  0  0
 18 21  1  0  0  0  0
 34 35  1  0  0  0  0
  7  8  1  0  0  0  0
 17 18  1  0  0  0  0
  3  4  1  0  0  0  0
  3  5  1  0  0  0  0
  3  6  1  0  0  0  0
 38 41  1  0  0  0  0
 38 42  1  0  0  0  0
 38 43  1  0  0  0  0
 11 14  1  0  0  0  0
 11 15  1  0  0  0  0
 11 16  1  0  0  0  0
 45 47  1  0  0  0  0
 45 48  1  0  0  0  0
 45 49  1  0  0  0  0
 22 30  1  0  0  0  0
 22 31  1  0  0  0  0
 21 28  1  0  0  0  0
 21 29  1  0  0  0  0
 35 40  1  0  0  0  0
  8 13  1  0  0  0  0
 18 27  1  0  0  0  0
 25 32  1  0  0  0  0
 25 33  1  0  0  0  0
 44 46  1  0  0  0  0
  7 12  1  0  0  0  0
 34 39  1  0  0  0  0
 17 26  1  0  0  0  0
M  END
$$$$

  -OEChem-02062319033D

 49 48  0     1  0  0  0  0  0999 V2000
   -1.9833   -0.0509   -3.3423 C   0  0  0  0  0  0  0  0  0  0  0  0
   -1.6199   -1.0613   -2.7518 O   0  0  0  0  0  0  0  0  0  0  0  0
   -3.3243   -0.0235   -3.9975 C   0  0  0  0  0  0  0  0  0  0  0  0
   -3.2886   -0.3689   -5.0432 H   0  0  0  0  0  0  0  0  0  0  0  0
   -4.0503   -0.6845   -3.4973 H   0  0  0  0  0  0  0  0  0  0  0  0
   -3.8104    0.9645   -4.0351 H   0  0  0  0  0  0  0  0  0  0  0  0
   -1.2607    1.1231   -3.4768 N   0  0  0  0  0  0  0  0  0  0  0  0
    0.0536    1.3115   -2.9213 C   0  0  2  0  0  0  0  0  0  0  0  0
    0.0266    0.8315   -1.4761 C   0  0  0  0  0  0  0  0  0  0  0  0
   -1.0065    0.7530   -0.8146 O   0  0  0  0  0  0  0  0  0  0  0  0
    0.4852    2.7674   -3.0025 C   0  0  0  0  0  0  0  0  0  0  0  0
   -1.6809    1.8924   -3.9952 H   0  0  0  0  0  0  0  0  0  0  0  0
    0.7360    0.6822   -3.5030 H   0  0  0  0  0  0  0  0  0  0  0  0
   -0.1867    3.4133   -2.4256 H   0  0  0  0  0  0  0  0  0  0  0  0
    1.4966    2.9042   -2.6056 H   0  0  0  0  0  0  0  0  0  0  0  0
    0.4754    3.1196   -4.0397 H   0  0  0  0  0  0  0  0  0  0  0  0
    1.2978    0.5411   -0.9947 N   0  0  0  0  0  0  0  0  0  0  0  0
    1.6579    0.6821    0.3927 C   0  0  2  0  0  0  0  0  0  0  0  0
    1.4489    2.1452    0.7672 C   0  0  0  0  0  0  0  0  0  0  0  0
    0.8561    2.4970    1.7849 O   0  0  0  0  0  0  0  0  0  0  0  0
    3.1100    0.2656    0.6593 C   0  0  0  0  0  0  0  0  0  0  0  0
    3.3606   -1.2301    0.4573 C   0  0  0  0  0  0  0  0  0  0  0  0
    4.8016   -1.6408    0.6970 C   0  0  0  0  0  0  0  0  0  0  0  0
    5.7065   -0.8519    0.9529 O   0  0  0  0  0  0  0  0  0  0  0  0
    4.9871   -3.0007    0.5693 N   0  0  0  0  0  0  0  0  0  0  0  0
    1.9991    0.1768   -1.6358 H   0  0  0  0  0  0  0  0  0  0  0  0
    0.9565    0.0642    0.9636 H   0  0  0  0  0  0  0  0  0  0  0  0
    3.7743    0.8220   -0.0154 H   0  0  0  0  0  0  0  0  0  0  0  0
    3.4020    0.5509    1.6778 H   0  0  0  0  0  0  0  0  0  0  0  0
    3.1240   -1.4898   -0.5820 H   0  0  0  0  0  0  0  0  0  0  0  0
    2.7020   -1.8255    1.0994 H   0  0  0  0  0  0  0  0  0  0  0  0
    4.1894   -3.5836    0.3384 H   0  0  0  0  0  0  0  0  0  0  0  0
    5.8930   -3.4399    0.6981 H   0  0  0  0  0  0  0  0  0  0  0  0
    1.9584    3.0060   -0.1950 N   0  0  0  0  0  0  0  0  0  0  0  0
    1.8735    4.4454   -0.0967 C   0  0  2  0  0  0  0  0  0  0  0  0
    2.3469    4.8506    1.2930 C   0  0  0  0  0  0  0  0  0  0  0  0
    2.3420    4.0835    2.2535 O   0  0  0  0  0  0  0  0  0  0  0  0
    0.4565    4.9348   -0.3523 C   0  0  0  0  0  0  0  0  0  0  0  0
    2.4139    2.6042   -1.0091 H   0  0  0  0  0  0  0  0  0  0  0  0
    2.5560    4.8547   -0.8494 H   0  0  0  0  0  0  0  0  0  0  0  0
   -0.2418    4.5351    0.3920 H   0  0  0  0  0  0  0  0  0  0  0  0
    0.3996    6.0273   -0.3057 H   0  0  0  0  0  0  0  0  0  0  0  0
    0.1068    4.6170   -1.3405 H   0  0  0  0  0  0  0  0  0  0  0  0
    2.7350    6.1821    1.3445 N   0  0  0  0  0  0  0  0  0  0  0  0
    3.2116    6.8091    2.5552 C   0  0  0  0  0  0  0  0  0  0  0  0
    2.7243    6.7389    0.4950 H   0  0  0  0  0  0  0  0  0  0  0  0
    2.3685    7.2816    3.0804 H   0  0  0  0  0  0  0  0  0  0  0  0
    3.6693    6.0492    3.2057 H   0  0  0  0  0  0  0  0  0  0  0  0
    3.9605    7.5739    2.3016 H   0  0  0  0  0  0  0  0  0  0  0  0
  1  3  1  0  0  0  0
  1  7  1  0  0  0  0
  1  2  2  0  0  0  0
 22 23  1  0  0  0  0
 23 25  1  0  0  0  0
 23 24  2  0  0  0  0
 35 36  1  0  0  0  0
 36 44  1  0  0  0  0
 36 37  2  0  0  0  0
  8  9  1  0  0  0  0
  9 17  1  0  0  0  0
  9 10  2  0  0  0  0
 18 19  1  0  0  0  0
 19 34  1  0  0  0  0
 19 20  2  0  0  0  0
 35 38  1  0  0  0  0
  8 11  1  0  0  0  0
 44 45  1  0  0  0  0
 21 22  1  0  0  0  0
 18 21  1  0  0  0  0
 34 35  1  0  0  0  0
  7  8  1  0  0  0  0
 17 18  1  0  0  0  0
  3  4  1  0  0  0  0
  3  5  1  0  0  0  0
  3  6  1  0  0  0  0
 38 41  1  0  0  0  0
 38 42  1  0  0  0  0
 38 43  1  0  0  0  0
 11 14  1  0  0  0  0
 11 15  1  0  0  0  0
 11 16  1  0  0  0  0
 45 47  1  0  0  0  0
 45 48  1  0  0  0  0
 45 49  1  0  0  0  0
 22 30  1  0  0  0  0
 22 31  1  0  0  0  0
 21 28  1  0  0  0  0
 21 29  1  0  0  0  0
 35 40  1  0  0  0  0
  8 13  1  0  0  0  0
 18 27  1  0  0  0  0
 25 32  1  0  0  0  0
 25 33  1  0  0  0  0
 44 46  1  0  0  0  0
  7 12  1  0  0  0  0
 34 39  1  0  0  0  0
 17 26  1  0  0  0  0
M  END
$$$$

  -OEChem-02062319033D

 49 48  0     1  0  0  0  0  0999 V2000
   -1.9833   -0.0509   -3.3423 C   0  0  0  0  0  0  0  0  0  0  0  0
   -1.6199   -1.0613   -2.7518 O   0  0  0  0  0  0  0  0  0  0  0  0
   -3.3243   -0.0235   -3.9975 C   0  0  0  0  0  0  0  0  0  0  0  0
   -3.2886   -0.3689   -5.0432 H   0  0  0  0  0  0  0  0  0  0  0  0
   -4.0503   -0.6845   -3.4973 H   0  0  0  0  0  0  0  0  0  0  0  0
   -3.8104    0.9645   -4.0351 H   0  0  0  0  0  0  0  0  0  0  0  0
   -1.2607    1.1231   -3.4768 N   0  0  0  0  0  0  0  0  0  0  0  0
    0.0536    1.3115   -2.9213 C   0  0  2  0  0  0  0  0  0  0  0  0
    0.0266    0.8315   -1.4761 C   0  0  0  0  0  0  0  0  0  0  0  0
   -1.0065    0.7530   -0.8146 O   0  0  0  0  0  0  0  0  0  0  0  0
    0.4852    2.7674   -3.0025 C   0  0  0  0  0  0  0  0  0  0  0  0
   -1.6809    1.8924   -3.9952 H   0  0  0  0  0  0  0  0  0  0  0  0
    0.7360    0.6822   -3.5030 H   0  0  0  0  0  0  0  0  0  0  0  0
   -0.1867    3.4133   -2.4256 H   0  0  0  0  0  0  0  0  0  0  0  0
    1.4966    2.9042   -2.6056 H   0  0  0  0  0  0  0  0  0  0  0  0
    0.4754    3.1196   -4.0397 H   0  0  0  0  0  0  0  0  0  0  0  0
    1.2978    0.5411   -0.9947 N   0  0  0  0  0  0  0  0  0  0  0  0
    1.5823    0.3756    0.4075 C   0  0  2  0  0  0  0  0  0  0  0  0
    1.2175    1.6841    1.0999 C   0  0  0  0  0  0  0  0  0  0  0  0
    0.5501    1.7318    2.1310 O   0  0  0  0  0  0  0  0  0  0  0  0
    3.0548    0.0296    0.6627 C   0  0  0  0  0  0  0  0  0  0  0  0
    3.4566   -1.3482    0.1327 C   0  0  0  0  0  0  0  0  0  0  0  0
    4.9186   -1.6830    0.3625 C   0  0  0  0  0  0  0  0  0  0  0  0
    5.7316   -0.9059    0.8543 O   0  0  0  0  0  0  0  0  0  0  0  0
    5.2393   -2.9527   -0.0678 N   0  0  0  0  0  0  0  0  0  0  0  0
    2.0580    0.4003   -1.6565 H   0  0  0  0  0  0  0  0  0  0  0  0
    0.9195   -0.4170    0.7710 H   0  0  0  0  0  0  0  0  0  0  0  0
    3.6911    0.7844    0.1817 H   0  0  0  0  0  0  0  0  0  0  0  0
    3.2736    0.0863    1.7365 H   0  0  0  0  0  0  0  0  0  0  0  0
    3.2912   -1.3706   -0.9516 H   0  0  0  0  0  0  0  0  0  0  0  0
    2.8311   -2.1325    0.5734 H   0  0  0  0  0  0  0  0  0  0  0  0
    4.5121   -3.5277   -0.4801 H   0  0  0  0  0  0  0  0  0  0  0  0
    6.1769   -3.3331    0.0129 H   0  0  0  0  0  0  0  0  0  0  0  0
    1.6831    2.7893    0.4013 N   0  0  0  0  0  0  0  0  0  0  0  0
    1.4560    4.1512    0.8283 C   0  0  2  0  0  0  0  0  0  0  0  0
    1.8277    4.2503    2.3019 C   0  0  0  0  0  0  0  0  0  0  0  0
    1.8549    3.2780    3.0536 O   0  0  0  0  0  0  0  0  0  0  0  0
    0.0110    4.5681    0.6030 C   0  0  0  0  0  0  0  0  0  0  0  0
    2.2100    2.6332   -0.4530 H   0  0  0  0  0  0  0  0  0  0  0  0
    2.1280    4.7839    0.2382 H   0  0  0  0  0  0  0  0  0  0  0  0
   -0.6772    3.9453    1.1861 H   0  0  0  0  0  0  0  0  0  0  0  0
   -0.1527    5.6091    0.9005 H   0  0  0  0  0  0  0  0  0  0  0  0
   -0.2635    4.4679   -0.4527 H   0  0  0  0  0  0  0  0  0  0  0  0
    2.0834    5.5583    2.6889 N   0  0  0  0  0  0  0  0  0  0  0  0
    2.4446    5.9149    4.0411 C   0  0  0  0  0  0  0  0  0  0  0  0
    2.0560    6.2992    1.9946 H   0  0  0  0  0  0  0  0  0  0  0  0
    1.5380    6.1763    4.6065 H   0  0  0  0  0  0  0  0  0  0  0  0
    2.9446    5.0622    4.5238 H   0  0  0  0  0  0  0  0  0  0  0  0
    3.1268    6.7776    4.0228 H   0  0  0  0  0  0  0  0  0  0  0  0
  1  3  1  0  0  0  0
  1  7  1  0  0  0  0
  1  2  2  0  0  0  0
 22 23  1  0  0  0  0
 23 25  1  0  0  0  0
 23 24  2  0  0  0  0
 35 36  1  0  0  0  0
 36 44  1  0  0  0  0
 36 37  2  0  0  0  0
  8  9  1  0  0  0  0
  9 17  1  0  0  0  0
  9 10  2  0  0  0  0
 18 19  1  0  0  0  0
 19 34  1  0  0  0  0
 19 20  2  0  0  0  0
 35 38  1  0  0  0  0
  8 11  1  0  0  0  0
 44 45  1  0  0  0  0
 21 22  1  0  0  0  0
 18 21  1  0  0  0  0
 34 35  1  0  0  0  0
  7  8  1  0  0  0  0
 17 18  1  0  0  0  0
  3  4  1  0  0  0  0
  3  5  1  0  0  0  0
  3  6  1  0  0  0  0
 38 41  1  0  0  0  0
 38 42  1  0  0  0  0
 38 43  1  0  0  0  0
 11 14  1  0  0  0  0
 11 15  1  0  0  0  0
 11 16  1  0  0  0  0
 45 47  1  0  0  0  0
 45 48  1  0  0  0  0
 45 49  1  0  0  0  0
 22 30  1  0  0  0  0
 22 31  1  0  0  0  0
 21 28  1  0  0  0  0
 21 29  1  0  0  0  0
 35 40  1  0  0  0  0
  8 13  1  0  0  0  0
 18 27  1  0  0  0  0
 25 32  1  0  0  0  0
 25 33  1  0  0  0  0
 44 46  1  0  0  0  0
  7 12  1  0  0  0  0
 34 39  1  0  0  0  0
 17 26  1  0  0  0  0
M  END
$$$$
