
  -OEChem-02062319073D

 49 48  0     1  0  0  0  0  0999 V2000
   -2.9376   -1.3196   -4.4092 C   0  0  0  0  0  0  0  0  0  0  0  0
   -2.0869   -1.8640   -5.0951 O   0  0  0  0  0  0  0  0  0  0  0  0
   -4.4042   -1.6524   -4.6086 C   0  0  0  0  0  0  0  0  0  0  0  0
   -4.5200   -2.3794   -5.4173 H   0  0  0  0  0  0  0  0  0  0  0  0
   -4.8180   -2.0780   -3.6911 H   0  0  0  0  0  0  0  0  0  0  0  0
   -4.9606   -0.7477   -4.8660 H   0  0  0  0  0  0  0  0  0  0  0  0
   -2.5699   -0.4144   -3.4356 N   0  0  0  0  0  0  0  0  0  0  0  0
   -1.1855   -0.2018   -2.9897 C   0  0  2  0  0  0  0  0  0  0  0  0
   -1.0425   -0.4346   -1.4721 C   0  0  0  0  0  0  0  0  0  0  0  0
   -2.0228   -0.3493   -0.7445 O   0  0  0  0  0  0  0  0  0  0  0  0
   -0.7909    1.2309   -3.3550 C   0  0  0  0  0  0  0  0  0  0  0  0
   -3.3007   -0.1461   -2.7777 H   0  0  0  0  0  0  0  0  0  0  0  0
   -0.5053   -0.8963   -3.4941 H   0  0  0  0  0  0  0  0  0  0  0  0
   -1.4444    1.9492   -2.8492 H   0  0  0  0  0  0  0  0  0  0  0  0
    0.2436    1.4328   -3.0613 H   0  0  0  0  0  0  0  0  0  0  0  0
   -0.8783    1.3818   -4.4359 H   0  0  0  0  0  0  0  0  0  0  0  0
    0.1959   -0.6944   -0.9109 N   0  0  0  0  0  0  0  0  0  0  0  0
    0.4183   -0.9283    0.5287 C   0  0  2  0  0  0  0  0  0  0  0  0
   -0.0014    0.2562    1.4260 C   0  0  0  0  0  0  0  0  0  0  0  0
   -0.4665    0.0294    2.5352 O   0  0  0  0  0  0  0  0  0  0  0  0
    1.8993   -1.2669    0.7632 C   0  0  0  0  0  0  0  0  0  0  0  0
    2.2728   -2.6368    0.1600 C   0  0  0  0  0  0  0  0  0  0  0  0
    3.7560   -2.9594    0.3207 C   0  0  0  0  0  0  0  0  0  0  0  0
    4.6067   -2.0936    0.3950 O   0  0  0  0  0  0  0  0  0  0  0  0
    4.2072   -4.2469    0.3686 N   0  0  0  0  0  0  0  0  0  0  0  0
    0.9763   -0.8187   -1.5508 H   0  0  0  0  0  0  0  0  0  0  0  0
   -0.1924   -1.7835    0.8410 H   0  0  0  0  0  0  0  0  0  0  0  0
    2.5282   -0.4786    0.3336 H   0  0  0  0  0  0  0  0  0  0  0  0
    2.1000   -1.2920    1.8409 H   0  0  0  0  0  0  0  0  0  0  0  0
    2.0363   -2.6617   -0.9064 H   0  0  0  0  0  0  0  0  0  0  0  0
    1.6857   -3.4173    0.6520 H   0  0  0  0  0  0  0  0  0  0  0  0
    3.5429   -5.0035    0.4938 H   0  0  0  0  0  0  0  0  0  0  0  0
    5.1827   -4.3715    0.6256 H   0  0  0  0  0  0  0  0  0  0  0  0
    0.3501    1.5474    1.0654 N   0  0  0  0  0  0  0  0  0  0  0  0
   -0.0325    2.7977    1.7539 C   0  0  2  0  0  0  0  0  0  0  0  0
    0.6614    3.0454    3.1132 C   0  0  0  0  0  0  0  0  0  0  0  0
    1.1625    4.1395    3.3381 O   0  0  0  0  0  0  0  0  0  0  0  0
   -1.5582    2.8963    1.8951 C   0  0  0  0  0  0  0  0  0  0  0  0
    0.7597    1.6356    0.1413 H   0  0  0  0  0  0  0  0  0  0  0  0
    0.2814    3.6229    1.1066 H   0  0  0  0  0  0  0  0  0  0  0  0
   -1.9375    2.1656    2.6157 H   0  0  0  0  0  0  0  0  0  0  0  0
   -1.8391    3.8951    2.2436 H   0  0  0  0  0  0  0  0  0  0  0  0
   -2.0432    2.7164    0.9307 H   0  0  0  0  0  0  0  0  0  0  0  0
    0.7129    2.0681    4.0861 N   0  0  0  0  0  0  0  0  0  0  0  0
    1.3101    2.2520    5.4010 C   0  0  0  0  0  0  0  0  0  0  0  0
    0.2519    1.1825    3.8590 H   0  0  0  0  0  0  0  0  0  0  0  0
    0.7947    3.0487    5.9470 H   0  0  0  0  0  0  0  0  0  0  0  0
    1.2330    1.3283    5.9822 H   0  0  0  0  0  0  0  0  0  0  0  0
    2.3689    2.5149    5.3074 H   0  0  0  0  0  0  0  0  0  0  0  0
  1  2  2  0  0  0  0
  1  3  1  0  0  0  0
  1  7  1  0  0  0  0
  3  4  1  0  0  0  0
  3  5  1  0  0  0  0
  3  6  1  0  0  0  0
  7  8  1  0  0  0  0
  7 12  1  0  0  0  0
  8  9  1  0  0  0  0
  8 11  1  0  0  0  0
  8 13  1  0  0  0  0
  9 10  2  0  0  0  0
  9 17  1  0  0  0  0
 11 14  1  0  0  0  0
 11 15  1  0  0  0  0
 11 16  1  0  0  0  0
 17 18  1  0  0  0  0
 17 26  1  0  0  0  0
 18 19  1  0  0  0  0
 18 21  1  0  0  0  0
 18 27  1  0  0  0  0
 19 20  2  0  0  0  0
 19 34  1  0  0  0  0
 21 22  1  0  0  0  0
 21 28  1  0  0  0  0
 21 29  1  0  0  0  0
 22 23  1  0  0  0  0
 22 30  1  0  0  0  0
 22 31  1  0  0  0  0
 23 24  2  0  0  0  0
 23 25  1  0  0  0  0
 25 32  1  0  0  0  0
 25 33  1  0  0  0  0
 34 35  1  0  0  0  0
 34 39  1  0  0  0  0
 35 36  1  0  0  0  0
 35 38  1  0  0  0  0
 35 40  1  0  0  0  0
 36 37  2  0  0  0  0
 36 44  1  0  0  0  0
 38 41  1  0  0  0  0
 38 42  1  0  0  0  0
 38 43  1  0  0  0  0
 44 45  1  0  0  0  0
 44 46  1  0  0  0  0
 45 47  1  0  0  0  0
 45 48  1  0  0  0  0
 45 49  1  0  0  0  0
M  END
$$$$

  -OEChem-02062319073D

 49 48  0     1  0  0  0  0  0999 V2000
   -0.7709   -1.3651   -3.9615 C   0  0  0  0  0  0  0  0  0  0  0  0
    0.3250   -1.1213   -3.4791 O   0  0  0  0  0  0  0  0  0  0  0  0
   -0.9601   -2.5712   -4.8615 C   0  0  0  0  0  0  0  0  0  0  0  0
   -0.0052   -3.0829   -5.0117 H   0  0  0  0  0  0  0  0  0  0  0  0
   -1.6670   -3.2705   -4.4083 H   0  0  0  0  0  0  0  0  0  0  0  0
   -1.3442   -2.2551   -5.8345 H   0  0  0  0  0  0  0  0  0  0  0  0
   -1.8453   -0.5645   -3.6336 N   0  0  0  0  0  0  0  0  0  0  0  0
   -1.7469    0.6552   -2.8160 C   0  0  2  0  0  0  0  0  0  0  0  0
   -1.6013    0.3579   -1.3025 C   0  0  0  0  0  0  0  0  0  0  0  0
   -2.4814    0.6510   -0.5062 O   0  0  0  0  0  0  0  0  0  0  0  0
   -2.9753    1.5171   -3.1351 C   0  0  0  0  0  0  0  0  0  0  0  0
   -2.7536   -0.8232   -4.0097 H   0  0  0  0  0  0  0  0  0  0  0  0
   -0.8589    1.2217   -3.1166 H   0  0  0  0  0  0  0  0  0  0  0  0
   -3.8964    0.9949   -2.8567 H   0  0  0  0  0  0  0  0  0  0  0  0
   -2.9321    2.4592   -2.5789 H   0  0  0  0  0  0  0  0  0  0  0  0
   -3.0129    1.7499   -4.2036 H   0  0  0  0  0  0  0  0  0  0  0  0
   -0.4746   -0.3037   -0.8478 N   0  0  0  0  0  0  0  0  0  0  0  0
   -0.3508   -0.9207    0.4861 C   0  0  2  0  0  0  0  0  0  0  0  0
   -0.5148    0.0703    1.6574 C   0  0  0  0  0  0  0  0  0  0  0  0
   -0.9951   -0.3294    2.7109 O   0  0  0  0  0  0  0  0  0  0  0  0
    1.0119   -1.6237    0.6007 C   0  0  0  0  0  0  0  0  0  0  0  0
    1.0971   -2.8715   -0.2998 C   0  0  0  0  0  0  0  0  0  0  0  0
    2.4287   -3.6052   -0.1575 C   0  0  0  0  0  0  0  0  0  0  0  0
    3.3987   -3.1188    0.3920 O   0  0  0  0  0  0  0  0  0  0  0  0
    2.5926   -4.8786   -0.6215 N   0  0  0  0  0  0  0  0  0  0  0  0
    0.1492   -0.6343   -1.5904 H   0  0  0  0  0  0  0  0  0  0  0  0
   -1.1458   -1.6658    0.5997 H   0  0  0  0  0  0  0  0  0  0  0  0
    1.8132   -0.9216    0.3431 H   0  0  0  0  0  0  0  0  0  0  0  0
    1.1704   -1.9323    1.6410 H   0  0  0  0  0  0  0  0  0  0  0  0
    0.9759   -2.5891   -1.3476 H   0  0  0  0  0  0  0  0  0  0  0  0
    0.2894   -3.5605   -0.0387 H   0  0  0  0  0  0  0  0  0  0  0  0
    1.7770   -5.4144   -0.8962 H   0  0  0  0  0  0  0  0  0  0  0  0
    3.4425   -5.3515   -0.3269 H   0  0  0  0  0  0  0  0  0  0  0  0
    0.1320    1.2941    1.6055 N   0  0  0  0  0  0  0  0  0  0  0  0
    0.1070    2.3614    2.6268 C   0  0  2  0  0  0  0  0  0  0  0  0
    0.9205    2.0580    3.9054 C   0  0  0  0  0  0  0  0  0  0  0  0
    1.6476    2.9243    4.3748 O   0  0  0  0  0  0  0  0  0  0  0  0
   -1.3349    2.7560    2.9760 C   0  0  0  0  0  0  0  0  0  0  0  0
    0.5222    1.5263    0.6970 H   0  0  0  0  0  0  0  0  0  0  0  0
    0.5768    3.2414    2.1761 H   0  0  0  0  0  0  0  0  0  0  0  0
   -1.8387    1.9614    3.5340 H   0  0  0  0  0  0  0  0  0  0  0  0
   -1.3375    3.6594    3.5935 H   0  0  0  0  0  0  0  0  0  0  0  0
   -1.9063    2.9569    2.0645 H   0  0  0  0  0  0  0  0  0  0  0  0
    0.8408    0.8312    4.5324 N   0  0  0  0  0  0  0  0  0  0  0  0
    1.5496    0.4909    5.7571 C   0  0  0  0  0  0  0  0  0  0  0  0
    0.1682    0.1690    4.1364 H   0  0  0  0  0  0  0  0  0  0  0  0
    1.2131    1.1269    6.5820 H   0  0  0  0  0  0  0  0  0  0  0  0
    1.3608   -0.5533    6.0230 H   0  0  0  0  0  0  0  0  0  0  0  0
    2.6283    0.6239    5.6248 H   0  0  0  0  0  0  0  0  0  0  0  0
  1  2  2  0  0  0  0
  1  3  1  0  0  0  0
  1  7  1  0  0  0  0
  3  4  1  0  0  0  0
  3  5  1  0  0  0  0
  3  6  1  0  0  0  0
  7  8  1  0  0  0  0
  7 12  1  0  0  0  0
  8  9  1  0  0  0  0
  8 11  1  0  0  0  0
  8 13  1  0  0  0  0
  9 10  2  0  0  0  0
  9 17  1  0  0  0  0
 11 14  1  0  0  0  0
 11 15  1  0  0  0  0
 11 16  1  0  0  0  0
 17 18  1  0  0  0  0
 17 26  1  0  0  0  0
 18 19  1  0  0  0  0
 18 21  1  0  0  0  0
 18 27  1  0  0  0  0
 19 20  2  0  0  0  0
 19 34  1  0  0  0  0
 21 22  1  0  0  0  0
 21 28  1  0  0  0  0
 21 29  1  0  0  0  0
 22 23  1  0  0  0  0
 22 30  1  0  0  0  0
 22 31  1  0  0  0  0
 23 24  2  0  0  0  0
 23 25  1  0  0  0  0
 25 32  1  0  0  0  0
 25 33  1  0  0  0  0
 34 35  1  0  0  0  0
 34 39  1  0  0  0  0
 35 36  1  0  0  0  0
 35 38  1  0  0  0  0
 35 40  1  0  0  0  0
 36 37  2  0  0  0  0
 36 44  1  0  0  0  0
 38 41  1  0  0  0  0
 38 42  1  0  0  0  0
 38 43  1  0  0  0  0
 44 45  1  0  0  0  0
 44 46  1  0  0  0  0
 45 47  1  0  0  0  0
 45 48  1  0  0  0  0
 45 49  1  0  0  0  0
M  END
$$$$

  -OEChem-02062319073D

 49 48  0     1  0  0  0  0  0999 V2000
   -0.8106   -1.3167   -3.9846 C   0  0  0  0  0  0  0  0  0  0  0  0
    0.3334   -1.1521   -3.5879 O   0  0  0  0  0  0  0  0  0  0  0  0
   -1.1601   -2.5173   -4.8429 C   0  0  0  0  0  0  0  0  0  0  0  0
   -0.2578   -3.0895   -5.0767 H   0  0  0  0  0  0  0  0  0  0  0  0
   -1.8611   -3.1659   -4.3117 H   0  0  0  0  0  0  0  0  0  0  0  0
   -1.6178   -2.1872   -5.7788 H   0  0  0  0  0  0  0  0  0  0  0  0
   -1.7924   -0.4339   -3.5883 N   0  0  0  0  0  0  0  0  0  0  0  0
   -1.5428    0.7510   -2.7540 C   0  0  2  0  0  0  0  0  0  0  0  0
   -1.3740    0.3983   -1.2557 C   0  0  0  0  0  0  0  0  0  0  0  0
   -2.2612    0.6450   -0.4518 O   0  0  0  0  0  0  0  0  0  0  0  0
   -2.6928    1.7345   -3.0076 C   0  0  0  0  0  0  0  0  0  0  0  0
   -2.7493   -0.6413   -3.8622 H   0  0  0  0  0  0  0  0  0  0  0  0
   -0.6158    1.2376   -3.0764 H   0  0  0  0  0  0  0  0  0  0  0  0
   -3.6509    1.2950   -2.7107 H   0  0  0  0  0  0  0  0  0  0  0  0
   -2.5410    2.6520   -2.4301 H   0  0  0  0  0  0  0  0  0  0  0  0
   -2.7428    1.9992   -4.0683 H   0  0  0  0  0  0  0  0  0  0  0  0
   -0.2754   -0.3419   -0.8487 N   0  0  0  0  0  0  0  0  0  0  0  0
   -0.3055   -1.2489    0.3179 C   0  0  2  0  0  0  0  0  0  0  0  0
   -0.6409   -0.5600    1.6591 C   0  0  0  0  0  0  0  0  0  0  0  0
   -1.2651   -1.1848    2.5078 O   0  0  0  0  0  0  0  0  0  0  0  0
    1.0536   -1.9574    0.4650 C   0  0  0  0  0  0  0  0  0  0  0  0
    1.3491   -2.9237   -0.6984 C   0  0  0  0  0  0  0  0  0  0  0  0
    2.6488   -3.7021   -0.5049 C   0  0  0  0  0  0  0  0  0  0  0  0
    3.3799   -3.5489    0.4551 O   0  0  0  0  0  0  0  0  0  0  0  0
    3.0610   -4.6313   -1.4160 N   0  0  0  0  0  0  0  0  0  0  0  0
    0.3198   -0.6280   -1.6313 H   0  0  0  0  0  0  0  0  0  0  0  0
   -1.0832   -2.0022    0.1518 H   0  0  0  0  0  0  0  0  0  0  0  0
    1.8543   -1.2123    0.5375 H   0  0  0  0  0  0  0  0  0  0  0  0
    1.0544   -2.5283    1.4017 H   0  0  0  0  0  0  0  0  0  0  0  0
    1.4308   -2.3657   -1.6320 H   0  0  0  0  0  0  0  0  0  0  0  0
    0.5271   -3.6378   -0.7972 H   0  0  0  0  0  0  0  0  0  0  0  0
    2.4309   -4.9260   -2.1536 H   0  0  0  0  0  0  0  0  0  0  0  0
    3.8545   -5.2069   -1.1484 H   0  0  0  0  0  0  0  0  0  0  0  0
   -0.0266    0.6391    1.9806 N   0  0  0  0  0  0  0  0  0  0  0  0
   -0.2585    1.4619    3.1856 C   0  0  2  0  0  0  0  0  0  0  0  0
    0.3161    0.8851    4.5000 C   0  0  0  0  0  0  0  0  0  0  0  0
    0.9136    1.6268    5.2698 O   0  0  0  0  0  0  0  0  0  0  0  0
   -1.7491    1.7933    3.3412 C   0  0  0  0  0  0  0  0  0  0  0  0
    0.4489    1.0837    1.2011 H   0  0  0  0  0  0  0  0  0  0  0  0
    0.2640    2.4102    3.0241 H   0  0  0  0  0  0  0  0  0  0  0  0
   -2.3242    0.9068    3.6242 H   0  0  0  0  0  0  0  0  0  0  0  0
   -1.8848    2.5506    4.1195 H   0  0  0  0  0  0  0  0  0  0  0  0
   -2.1530    2.1837    2.4020 H   0  0  0  0  0  0  0  0  0  0  0  0
    0.1551   -0.4440    4.8347 N   0  0  0  0  0  0  0  0  0  0  0  0
    0.6256   -1.0401    6.0763 C   0  0  0  0  0  0  0  0  0  0  0  0
   -0.4106   -1.0021    4.1895 H   0  0  0  0  0  0  0  0  0  0  0  0
    0.1187   -0.5867    6.9341 H   0  0  0  0  0  0  0  0  0  0  0  0
    0.4201   -2.1148    6.0789 H   0  0  0  0  0  0  0  0  0  0  0  0
    1.7053   -0.8950    6.1856 H   0  0  0  0  0  0  0  0  0  0  0  0
  1  2  2  0  0  0  0
  1  3  1  0  0  0  0
  1  7  1  0  0  0  0
  3  4  1  0  0  0  0
  3  5  1  0  0  0  0
  3  6  1  0  0  0  0
  7  8  1  0  0  0  0
  7 12  1  0  0  0  0
  8  9  1  0  0  0  0
  8 11  1  0  0  0  0
  8 13  1  0  0  0  0
  9 10  2  0  0  0  0
  9 17  1  0  0  0  0
 11 14  1  0  0  0  0
 11 15  1  0  0  0  0
 11 16  1  0  0  0  0
 17 18  1  0  0  0  0
 17 26  1  0  0  0  0
 18 19  1  0  0  0  0
 18 21  1  0  0  0  0
 18 27  1  0  0  0  0
 19 20  2  0  0  0  0
 19 34  1  0  0  0  0
 21 22  1  0  0  0  0
 21 28  1  0  0  0  0
 21 29  1  0  0  0  0
 22 23  1  0  0  0  0
 22 30  1  0  0  0  0
 22 31  1  0  0  0  0
 23 24  2  0  0  0  0
 23 25  1  0  0  0  0
 25 32  1  0  0  0  0
 25 33  1  0  0  0  0
 34 35  1  0  0  0  0
 34 39  1  0  0  0  0
 35 36  1  0  0  0  0
 35 38  1  0  0  0  0
 35 40  1  0  0  0  0
 36 37  2  0  0  0  0
 36 44  1  0  0  0  0
 38 41  1  0  0  0  0
 38 42  1  0  0  0  0
 38 43  1  0  0  0  0
 44 45  1  0  0  0  0
 44 46  1  0  0  0  0
 45 47  1  0  0  0  0
 45 48  1  0  0  0  0
 45 49  1  0  0  0  0
M  END
$$$$

  -OEChem-02062319073D

 49 48  0     1  0  0  0  0  0999 V2000
   -0.7685   -1.2676   -3.9628 C   0  0  0  0  0  0  0  0  0  0  0  0
    0.3920   -1.1034   -3.6153 O   0  0  0  0  0  0  0  0  0  0  0  0
   -1.1483   -2.4428   -4.8431 C   0  0  0  0  0  0  0  0  0  0  0  0
   -0.2547   -3.0022   -5.1345 H   0  0  0  0  0  0  0  0  0  0  0  0
   -1.8229   -3.1123   -4.3033 H   0  0  0  0  0  0  0  0  0  0  0  0
   -1.6480   -2.0858   -5.7472 H   0  0  0  0  0  0  0  0  0  0  0  0
   -1.7388   -0.4060   -3.4980 N   0  0  0  0  0  0  0  0  0  0  0  0
   -1.4641    0.7617   -2.6475 C   0  0  2  0  0  0  0  0  0  0  0  0
   -1.2496    0.3807   -1.1617 C   0  0  0  0  0  0  0  0  0  0  0  0
   -2.1142    0.6103   -0.3291 O   0  0  0  0  0  0  0  0  0  0  0  0
   -2.6218    1.7492   -2.8456 C   0  0  0  0  0  0  0  0  0  0  0  0
   -2.7049   -0.6152   -3.7367 H   0  0  0  0  0  0  0  0  0  0  0  0
   -0.5478    1.2556   -2.9888 H   0  0  0  0  0  0  0  0  0  0  0  0
   -3.5701    1.3032   -2.5279 H   0  0  0  0  0  0  0  0  0  0  0  0
   -2.4527    2.6551   -2.2546 H   0  0  0  0  0  0  0  0  0  0  0  0
   -2.7056    2.0356   -3.8985 H   0  0  0  0  0  0  0  0  0  0  0  0
   -0.1727   -0.4187   -0.8133 N   0  0  0  0  0  0  0  0  0  0  0  0
   -0.3077   -1.5539    0.1245 C   0  0  2  0  0  0  0  0  0  0  0  0
   -0.8019   -1.1811    1.5399 C   0  0  0  0  0  0  0  0  0  0  0  0
   -1.4893   -1.9847    2.1581 O   0  0  0  0  0  0  0  0  0  0  0  0
    1.0399   -2.2887    0.2657 C   0  0  0  0  0  0  0  0  0  0  0  0
    1.6150   -2.7569   -1.0861 C   0  0  0  0  0  0  0  0  0  0  0  0
    2.8374   -3.6591   -0.9427 C   0  0  0  0  0  0  0  0  0  0  0  0
    3.1938   -4.1374    0.1172 O   0  0  0  0  0  0  0  0  0  0  0  0
    3.6076   -3.9758   -2.0243 N   0  0  0  0  0  0  0  0  0  0  0  0
    0.4243   -0.6091   -1.6222 H   0  0  0  0  0  0  0  0  0  0  0  0
   -1.0437   -2.2513   -0.2893 H   0  0  0  0  0  0  0  0  0  0  0  0
    1.7698   -1.6384    0.7609 H   0  0  0  0  0  0  0  0  0  0  0  0
    0.8884   -3.1610    0.9133 H   0  0  0  0  0  0  0  0  0  0  0  0
    1.9166   -1.8873   -1.6739 H   0  0  0  0  0  0  0  0  0  0  0  0
    0.8483   -3.3012   -1.6440 H   0  0  0  0  0  0  0  0  0  0  0  0
    3.3034   -3.7156   -2.9566 H   0  0  0  0  0  0  0  0  0  0  0  0
    4.3319   -4.6742   -1.8842 H   0  0  0  0  0  0  0  0  0  0  0  0
   -0.2552   -0.0819    2.1806 N   0  0  0  0  0  0  0  0  0  0  0  0
   -0.6241    0.4464    3.5101 C   0  0  2  0  0  0  0  0  0  0  0  0
   -0.1581   -0.4077    4.7114 C   0  0  0  0  0  0  0  0  0  0  0  0
    0.3290    0.1463    5.6891 O   0  0  0  0  0  0  0  0  0  0  0  0
   -2.1312    0.7258    3.5893 C   0  0  0  0  0  0  0  0  0  0  0  0
    0.2440    0.5468    1.5581 H   0  0  0  0  0  0  0  0  0  0  0  0
   -0.1161    1.4101    3.6170 H   0  0  0  0  0  0  0  0  0  0  0  0
   -2.7073   -0.2041    3.5952 H   0  0  0  0  0  0  0  0  0  0  0  0
   -2.3623    1.2760    4.5066 H   0  0  0  0  0  0  0  0  0  0  0  0
   -2.4511    1.3277    2.7330 H   0  0  0  0  0  0  0  0  0  0  0  0
   -0.2924   -1.7811    4.7132 N   0  0  0  0  0  0  0  0  0  0  0  0
    0.0767   -2.6390    5.8293 C   0  0  0  0  0  0  0  0  0  0  0  0
   -0.7705   -2.1847    3.9032 H   0  0  0  0  0  0  0  0  0  0  0  0
   -0.5238   -2.3970    6.7122 H   0  0  0  0  0  0  0  0  0  0  0  0
   -0.0937   -3.6881    5.5692 H   0  0  0  0  0  0  0  0  0  0  0  0
    1.1359   -2.5122    6.0758 H   0  0  0  0  0  0  0  0  0  0  0  0
  1  2  2  0  0  0  0
  1  3  1  0  0  0  0
  1  7  1  0  0  0  0
  3  4  1  0  0  0  0
  3  5  1  0  0  0  0
  3  6  1  0  0  0  0
  7  8  1  0  0  0  0
  7 12  1  0  0  0  0
  8  9  1  0  0  0  0
  8 11  1  0  0  0  0
  8 13  1  0  0  0  0
  9 10  2  0  0  0  0
  9 17  1  0  0  0  0
 11 14  1  0  0  0  0
 11 15  1  0  0  0  0
 11 16  1  0  0  0  0
 17 18  1  0  0  0  0
 17 26  1  0  0  0  0
 18 19  1  0  0  0  0
 18 21  1  0  0  0  0
 18 27  1  0  0  0  0
 19 20  2  0  0  0  0
 19 34  1  0  0  0  0
 21 22  1  0  0  0  0
 21 28  1  0  0  0  0
 21 29  1  0  0  0  0
 22 23  1  0  0  0  0
 22 30  1  0  0  0  0
 22 31  1  0  0  0  0
 23 24  2  0  0  0  0
 23 25  1  0  0  0  0
 25 32  1  0  0  0  0
 25 33  1  0  0  0  0
 34 35  1  0  0  0  0
 34 39  1  0  0  0  0
 35 36  1  0  0  0  0
 35 38  1  0  0  0  0
 35 40  1  0  0  0  0
 36 37  2  0  0  0  0
 36 44  1  0  0  0  0
 38 41  1  0  0  0  0
 38 42  1  0  0  0  0
 38 43  1  0  0  0  0
 44 45  1  0  0  0  0
 44 46  1  0  0  0  0
 45 47  1  0  0  0  0
 45 48  1  0  0  0  0
 45 49  1  0  0  0  0
M  END
$$$$

  -OEChem-02062319073D

 49 48  0     1  0  0  0  0  0999 V2000
   -0.6104   -1.0469   -3.9830 C   0  0  0  0  0  0  0  0  0  0  0  0
    0.5375   -0.7680   -3.6690 O   0  0  0  0  0  0  0  0  0  0  0  0
   -0.8890   -2.1879   -4.9426 C   0  0  0  0  0  0  0  0  0  0  0  0
    0.0500   -2.6327   -5.2839 H   0  0  0  0  0  0  0  0  0  0  0  0
   -1.4839   -2.9590   -4.4466 H   0  0  0  0  0  0  0  0  0  0  0  0
   -1.4377   -1.8182   -5.8124 H   0  0  0  0  0  0  0  0  0  0  0  0
   -1.6515   -0.3529   -3.4043 N   0  0  0  0  0  0  0  0  0  0  0  0
   -1.4758    0.7921   -2.4971 C   0  0  2  0  0  0  0  0  0  0  0  0
   -1.1454    0.3668   -1.0438 C   0  0  0  0  0  0  0  0  0  0  0  0
   -1.9439    0.5654   -0.1401 O   0  0  0  0  0  0  0  0  0  0  0  0
   -2.7498    1.6419   -2.5955 C   0  0  0  0  0  0  0  0  0  0  0  0
   -2.5972   -0.6463   -3.6360 H   0  0  0  0  0  0  0  0  0  0  0  0
   -0.6408    1.4095   -2.8458 H   0  0  0  0  0  0  0  0  0  0  0  0
   -3.6219    1.0723   -2.2574 H   0  0  0  0  0  0  0  0  0  0  0  0
   -2.6586    2.5358   -1.9699 H   0  0  0  0  0  0  0  0  0  0  0  0
   -2.9184    1.9611   -3.6286 H   0  0  0  0  0  0  0  0  0  0  0  0
   -0.0660   -0.4671   -0.8012 N   0  0  0  0  0  0  0  0  0  0  0  0
   -0.2527   -1.7814   -0.1501 C   0  0  2  0  0  0  0  0  0  0  0  0
   -0.8689   -1.7392    1.2660 C   0  0  0  0  0  0  0  0  0  0  0  0
   -1.5908   -2.6630    1.6209 O   0  0  0  0  0  0  0  0  0  0  0  0
    1.0993   -2.5156   -0.0516 C   0  0  0  0  0  0  0  0  0  0  0  0
    1.7965   -2.6885   -1.4155 C   0  0  0  0  0  0  0  0  0  0  0  0
    3.0501   -3.5558   -1.3416 C   0  0  0  0  0  0  0  0  0  0  0  0
    3.2938   -4.2956   -0.4076 O   0  0  0  0  0  0  0  0  0  0  0  0
    3.9770   -3.5415   -2.3436 N   0  0  0  0  0  0  0  0  0  0  0  0
    0.5358   -0.5153   -1.6273 H   0  0  0  0  0  0  0  0  0  0  0  0
   -0.9313   -2.3771   -0.7700 H   0  0  0  0  0  0  0  0  0  0  0  0
    1.7682   -1.9733    0.6265 H   0  0  0  0  0  0  0  0  0  0  0  0
    0.9222   -3.5048    0.3883 H   0  0  0  0  0  0  0  0  0  0  0  0
    2.0942   -1.7103   -1.7995 H   0  0  0  0  0  0  0  0  0  0  0  0
    1.1044   -3.1431   -2.1289 H   0  0  0  0  0  0  0  0  0  0  0  0
    3.7701   -3.0631   -3.2141 H   0  0  0  0  0  0  0  0  0  0  0  0
    4.7157   -4.2371   -2.2923 H   0  0  0  0  0  0  0  0  0  0  0  0
   -0.4041   -0.8114    2.1825 N   0  0  0  0  0  0  0  0  0  0  0  0
   -0.8919   -0.6032    3.5612 C   0  0  2  0  0  0  0  0  0  0  0  0
   -0.5121   -1.7107    4.5710 C   0  0  0  0  0  0  0  0  0  0  0  0
   -0.1199   -1.3963    5.6878 O   0  0  0  0  0  0  0  0  0  0  0  0
   -2.4051   -0.3478    3.5728 C   0  0  0  0  0  0  0  0  0  0  0  0
    0.0984   -0.0388    1.7536 H   0  0  0  0  0  0  0  0  0  0  0  0
   -0.4119    0.3095    3.9285 H   0  0  0  0  0  0  0  0  0  0  0  0
   -2.9608   -1.2531    3.3119 H   0  0  0  0  0  0  0  0  0  0  0  0
   -2.7238   -0.0269    4.5694 H   0  0  0  0  0  0  0  0  0  0  0  0
   -2.6633    0.4380    2.8561 H   0  0  0  0  0  0  0  0  0  0  0  0
   -0.6194   -3.0484    4.2482 N   0  0  0  0  0  0  0  0  0  0  0  0
   -0.3231   -4.1396    5.1649 C   0  0  0  0  0  0  0  0  0  0  0  0
   -1.0183   -3.2560    3.3288 H   0  0  0  0  0  0  0  0  0  0  0  0
   -0.9953   -4.1071    6.0284 H   0  0  0  0  0  0  0  0  0  0  0  0
   -0.4530   -5.1009    4.6588 H   0  0  0  0  0  0  0  0  0  0  0  0
    0.7109   -4.0729    5.5186 H   0  0  0  0  0  0  0  0  0  0  0  0
  1  2  2  0  0  0  0
  1  3  1  0  0  0  0
  1  7  1  0  0  0  0
  3  4  1  0  0  0  0
  3  5  1  0  0  0  0
  3  6  1  0  0  0  0
  7  8  1  0  0  0  0
  7 12  1  0  0  0  0
  8  9  1  0  0  0  0
  8 11  1  0  0  0  0
  8 13  1  0  0  0  0
  9 10  2  0  0  0  0
  9 17  1  0  0  0  0
 11 14  1  0  0  0  0
 11 15  1  0  0  0  0
 11 16  1  0  0  0  0
 17 18  1  0  0  0  0
 17 26  1  0  0  0  0
 18 19  1  0  0  0  0
 18 21  1  0  0  0  0
 18 27  1  0  0  0  0
 19 20  2  0  0  0  0
 19 34  1  0  0  0  0
 21 22  1  0  0  0  0
 21 28  1  0  0  0  0
 21 29  1  0  0  0  0
 22 23  1  0  0  0  0
 22 30  1  0  0  0  0
 22 31  1  0  0  0  0
 23 24  2  0  0  0  0
 23 25  1  0  0  0  0
 25 32  1  0  0  0  0
 25 33  1  0  0  0  0
 34 35  1  0  0  0  0
 34 39  1  0  0  0  0
 35 36  1  0  0  0  0
 35 38  1  0  0  0  0
 35 40  1  0  0  0  0
 36 37  2  0  0  0  0
 36 44  1  0  0  0  0
 38 41  1  0  0  0  0
 38 42  1  0  0  0  0
 38 43  1  0  0  0  0
 44 45  1  0  0  0  0
 44 46  1  0  0  0  0
 45 47  1  0  0  0  0
 45 48  1  0  0  0  0
 45 49  1  0  0  0  0
M  END
$$$$

  -OEChem-02062319073D

 49 48  0     1  0  0  0  0  0999 V2000
   -2.7048   -0.9456   -4.3408 C   0  0  0  0  0  0  0  0  0  0  0  0
   -1.7855   -1.1670   -5.1137 O   0  0  0  0  0  0  0  0  0  0  0  0
   -4.0874   -1.5043   -4.6186 C   0  0  0  0  0  0  0  0  0  0  0  0
   -4.1098   -1.9853   -5.6004 H   0  0  0  0  0  0  0  0  0  0  0  0
   -4.3514   -2.2426   -3.8573 H   0  0  0  0  0  0  0  0  0  0  0  0
   -4.8252   -0.6986   -4.6057 H   0  0  0  0  0  0  0  0  0  0  0  0
   -2.4848   -0.2008   -3.2011 N   0  0  0  0  0  0  0  0  0  0  0  0
   -1.1527    0.1899   -2.7207 C   0  0  2  0  0  0  0  0  0  0  0  0
   -0.9755   -0.1158   -1.2191 C   0  0  0  0  0  0  0  0  0  0  0  0
   -1.9621   -0.3217   -0.5255 O   0  0  0  0  0  0  0  0  0  0  0  0
   -0.9650    1.6836   -2.9912 C   0  0  0  0  0  0  0  0  0  0  0  0
   -3.2351   -0.1969   -2.5106 H   0  0  0  0  0  0  0  0  0  0  0  0
   -0.3790   -0.3675   -3.2591 H   0  0  0  0  0  0  0  0  0  0  0  0
   -1.7242    2.2674   -2.4604 H   0  0  0  0  0  0  0  0  0  0  0  0
    0.0243    2.0139   -2.6602 H   0  0  0  0  0  0  0  0  0  0  0  0
   -1.0560    1.8868   -4.0632 H   0  0  0  0  0  0  0  0  0  0  0  0
    0.2599   -0.5178   -0.7433 N   0  0  0  0  0  0  0  0  0  0  0  0
    0.4862   -1.9323   -0.3822 C   0  0  2  0  0  0  0  0  0  0  0  0
   -0.4283   -2.4874    0.7330 C   0  0  0  0  0  0  0  0  0  0  0  0
   -0.7717   -3.6612    0.6757 O   0  0  0  0  0  0  0  0  0  0  0  0
    1.9578   -2.1069    0.0291 C   0  0  0  0  0  0  0  0  0  0  0  0
    2.9127   -1.9714   -1.1756 C   0  0  0  0  0  0  0  0  0  0  0  0
    4.3773   -2.1473   -0.7801 C   0  0  0  0  0  0  0  0  0  0  0  0
    4.7794   -1.9394    0.3480 O   0  0  0  0  0  0  0  0  0  0  0  0
    5.3228   -2.5315   -1.6869 N   0  0  0  0  0  0  0  0  0  0  0  0
    1.0225   -0.1214   -1.2849 H   0  0  0  0  0  0  0  0  0  0  0  0
    0.2919   -2.5530   -1.2647 H   0  0  0  0  0  0  0  0  0  0  0  0
    2.2129   -1.3685    0.7985 H   0  0  0  0  0  0  0  0  0  0  0  0
    2.0951   -3.1001    0.4738 H   0  0  0  0  0  0  0  0  0  0  0  0
    2.8049   -0.9875   -1.6378 H   0  0  0  0  0  0  0  0  0  0  0  0
    2.6580   -2.7272   -1.9239 H   0  0  0  0  0  0  0  0  0  0  0  0
    5.0302   -2.9063   -2.5829 H   0  0  0  0  0  0  0  0  0  0  0  0
    6.2347   -2.7688   -1.3057 H   0  0  0  0  0  0  0  0  0  0  0  0
   -0.6530   -1.7369    1.8741 N   0  0  0  0  0  0  0  0  0  0  0  0
   -1.5579   -2.0772    2.9918 C   0  0  2  0  0  0  0  0  0  0  0  0
   -1.0864   -3.2287    3.9098 C   0  0  0  0  0  0  0  0  0  0  0  0
   -1.1998   -3.1132    5.1236 O   0  0  0  0  0  0  0  0  0  0  0  0
   -2.9802   -2.3411    2.4792 C   0  0  0  0  0  0  0  0  0  0  0  0
   -0.4304   -0.7516    1.7564 H   0  0  0  0  0  0  0  0  0  0  0  0
   -1.6089   -1.1915    3.6333 H   0  0  0  0  0  0  0  0  0  0  0  0
   -3.0280   -3.2706    1.9046 H   0  0  0  0  0  0  0  0  0  0  0  0
   -3.6730   -2.4254    3.3224 H   0  0  0  0  0  0  0  0  0  0  0  0
   -3.3116   -1.5182    1.8382 H   0  0  0  0  0  0  0  0  0  0  0  0
   -0.5765   -4.4021    3.3924 N   0  0  0  0  0  0  0  0  0  0  0  0
   -0.2069   -5.5571    4.1974 C   0  0  0  0  0  0  0  0  0  0  0  0
   -0.5799   -4.4788    2.3721 H   0  0  0  0  0  0  0  0  0  0  0  0
   -1.0750   -5.9327    4.7490 H   0  0  0  0  0  0  0  0  0  0  0  0
    0.1691   -6.3587    3.5546 H   0  0  0  0  0  0  0  0  0  0  0  0
    0.5783   -5.2902    4.9123 H   0  0  0  0  0  0  0  0  0  0  0  0
  1  2  2  0  0  0  0
  1  3  1  0  0  0  0
  1  7  1  0  0  0  0
  3  4  1  0  0  0  0
  3  5  1  0  0  0  0
  3  6  1  0  0  0  0
  7  8  1  0  0  0  0
  7 12  1  0  0  0  0
  8  9  1  0  0  0  0
  8 11  1  0  0  0  0
  8 13  1  0  0  0  0
  9 10  2  0  0  0  0
  9 17  1  0  0  0  0
 11 14  1  0  0  0  0
 11 15  1  0  0  0  0
 11 16  1  0  0  0  0
 17 18  1  0  0  0  0
 17 26  1  0  0  0  0
 18 19  1  0  0  0  0
 18 21  1  0  0  0  0
 18 27  1  0  0  0  0
 19 20  2  0  0  0  0
 19 34  1  0  0  0  0
 21 22  1  0  0  0  0
 21 28  1  0  0  0  0
 21 29  1  0  0  0  0
 22 23  1  0  0  0  0
 22 30  1  0  0  0  0
 22 31  1  0  0  0  0
 23 24  2  0  0  0  0
 23 25  1  0  0  0  0
 25 32  1  0  0  0  0
 25 33  1  0  0  0  0
 34 35  1  0  0  0  0
 34 39  1  0  0  0  0
 35 36  1  0  0  0  0
 35 38  1  0  0  0  0
 35 40  1  0  0  0  0
 36 37  2  0  0  0  0
 36 44  1  0  0  0  0
 38 41  1  0  0  0  0
 38 42  1  0  0  0  0
 38 43  1  0  0  0  0
 44 45  1  0  0  0  0
 44 46  1  0  0  0  0
 45 47  1  0  0  0  0
 45 48  1  0  0  0  0
 45 49  1  0  0  0  0
M  END
$$$$

  -OEChem-02062319073D

 49 48  0     1  0  0  0  0  0999 V2000
   -1.6837   -1.5497   -3.8205 C   0  0  0  0  0  0  0  0  0  0  0  0
   -0.5045   -1.6869   -4.1072 O   0  0  0  0  0  0  0  0  0  0  0  0
   -2.6979   -2.5926   -4.2486 C   0  0  0  0  0  0  0  0  0  0  0  0
   -2.2212   -3.3426   -4.8861 H   0  0  0  0  0  0  0  0  0  0  0  0
   -3.1125   -3.0915   -3.3688 H   0  0  0  0  0  0  0  0  0  0  0  0
   -3.5086   -2.1201   -4.8084 H   0  0  0  0  0  0  0  0  0  0  0  0
   -2.0893   -0.4652   -3.0690 N   0  0  0  0  0  0  0  0  0  0  0  0
   -1.1641    0.5052   -2.4665 C   0  0  2  0  0  0  0  0  0  0  0  0
   -0.8114    0.1105   -1.0153 C   0  0  0  0  0  0  0  0  0  0  0  0
   -1.3974    0.5795   -0.0516 O   0  0  0  0  0  0  0  0  0  0  0  0
   -1.8134    1.8910   -2.5590 C   0  0  0  0  0  0  0  0  0  0  0  0
   -3.0636   -0.4456   -2.7787 H   0  0  0  0  0  0  0  0  0  0  0  0
   -0.2274    0.5421   -3.0335 H   0  0  0  0  0  0  0  0  0  0  0  0
   -2.7644    1.9117   -2.0169 H   0  0  0  0  0  0  0  0  0  0  0  0
   -1.1523    2.6487   -2.1266 H   0  0  0  0  0  0  0  0  0  0  0  0
   -2.0021    2.1533   -3.6047 H   0  0  0  0  0  0  0  0  0  0  0  0
    0.4170   -0.4012   -0.6791 N   0  0  0  0  0  0  0  0  0  0  0  0
    0.5549   -1.8655   -0.7484 C   0  0  2  0  0  0  0  0  0  0  0  0
   -0.4194   -2.6228    0.1811 C   0  0  0  0  0  0  0  0  0  0  0  0
   -0.9755   -3.6264   -0.2431 O   0  0  0  0  0  0  0  0  0  0  0  0
    2.0055   -2.2524   -0.4247 C   0  0  0  0  0  0  0  0  0  0  0  0
    2.9740   -1.7582   -1.5181 C   0  0  0  0  0  0  0  0  0  0  0  0
    4.4216   -2.1568   -1.2454 C   0  0  0  0  0  0  0  0  0  0  0  0
    4.8008   -2.5686   -0.1649 O   0  0  0  0  0  0  0  0  0  0  0  0
    5.3767   -2.0713   -2.2169 N   0  0  0  0  0  0  0  0  0  0  0  0
    0.7120   -0.0083    0.2104 H   0  0  0  0  0  0  0  0  0  0  0  0
    0.3399   -2.1998   -1.7679 H   0  0  0  0  0  0  0  0  0  0  0  0
    2.2961   -1.8397    0.5480 H   0  0  0  0  0  0  0  0  0  0  0  0
    2.0807   -3.3441   -0.3536 H   0  0  0  0  0  0  0  0  0  0  0  0
    2.9289   -0.6686   -1.5950 H   0  0  0  0  0  0  0  0  0  0  0  0
    2.6717   -2.1756   -2.4829 H   0  0  0  0  0  0  0  0  0  0  0  0
    5.0895   -1.9309   -3.1799 H   0  0  0  0  0  0  0  0  0  0  0  0
    6.2681   -2.5106   -2.0059 H   0  0  0  0  0  0  0  0  0  0  0  0
   -0.6139   -2.2099    1.4894 N   0  0  0  0  0  0  0  0  0  0  0  0
   -1.5927   -2.7524    2.4554 C   0  0  2  0  0  0  0  0  0  0  0  0
   -1.2979   -4.1802    2.9706 C   0  0  0  0  0  0  0  0  0  0  0  0
   -1.4111   -4.4207    4.1654 O   0  0  0  0  0  0  0  0  0  0  0  0
   -3.0214   -2.6560    1.9030 C   0  0  0  0  0  0  0  0  0  0  0  0
   -0.2115   -1.3056    1.7177 H   0  0  0  0  0  0  0  0  0  0  0  0
   -1.5504   -2.1065    3.3385 H   0  0  0  0  0  0  0  0  0  0  0  0
   -3.1752   -3.3540    1.0751 H   0  0  0  0  0  0  0  0  0  0  0  0
   -3.7431   -2.8975    2.6896 H   0  0  0  0  0  0  0  0  0  0  0  0
   -3.2234   -1.6409    1.5476 H   0  0  0  0  0  0  0  0  0  0  0  0
   -0.9309   -5.1969    2.1121 N   0  0  0  0  0  0  0  0  0  0  0  0
   -0.6891   -6.5707    2.5293 C   0  0  0  0  0  0  0  0  0  0  0  0
   -0.9154   -4.9619    1.1165 H   0  0  0  0  0  0  0  0  0  0  0  0
   -0.3695   -7.1733    1.6738 H   0  0  0  0  0  0  0  0  0  0  0  0
    0.0974   -6.6072    3.2902 H   0  0  0  0  0  0  0  0  0  0  0  0
   -1.6021   -7.0107    2.9433 H   0  0  0  0  0  0  0  0  0  0  0  0
  1  2  2  0  0  0  0
  1  3  1  0  0  0  0
  1  7  1  0  0  0  0
  3  4  1  0  0  0  0
  3  5  1  0  0  0  0
  3  6  1  0  0  0  0
  7  8  1  0  0  0  0
  7 12  1  0  0  0  0
  8  9  1  0  0  0  0
  8 11  1  0  0  0  0
  8 13  1  0  0  0  0
  9 10  2  0  0  0  0
  9 17  1  0  0  0  0
 11 14  1  0  0  0  0
 11 15  1  0  0  0  0
 11 16  1  0  0  0  0
 17 18  1  0  0  0  0
 17 26  1  0  0  0  0
 18 19  1  0  0  0  0
 18 21  1  0  0  0  0
 18 27  1  0  0  0  0
 19 20  2  0  0  0  0
 19 34  1  0  0  0  0
 21 22  1  0  0  0  0
 21 28  1  0  0  0  0
 21 29  1  0  0  0  0
 22 23  1  0  0  0  0
 22 30  1  0  0  0  0
 22 31  1  0  0  0  0
 23 24  2  0  0  0  0
 23 25  1  0  0  0  0
 25 32  1  0  0  0  0
 25 33  1  0  0  0  0
 34 35  1  0  0  0  0
 34 39  1  0  0  0  0
 35 36  1  0  0  0  0
 35 38  1  0  0  0  0
 35 40  1  0  0  0  0
 36 37  2  0  0  0  0
 36 44  1  0  0  0  0
 38 41  1  0  0  0  0
 38 42  1  0  0  0  0
 38 43  1  0  0  0  0
 44 45  1  0  0  0  0
 44 46  1  0  0  0  0
 45 47  1  0  0  0  0
 45 48  1  0  0  0  0
 45 49  1  0  0  0  0
M  END
$$$$

  -OEChem-02062319073D

 49 48  0     1  0  0  0  0  0999 V2000
   -3.0882   -1.3097   -3.7058 C   0  0  0  0  0  0  0  0  0  0  0  0
   -2.3942   -2.2818   -3.9539 O   0  0  0  0  0  0  0  0  0  0  0  0
   -4.5991   -1.4065   -3.8001 C   0  0  0  0  0  0  0  0  0  0  0  0
   -4.9760   -0.6790   -4.5233 H   0  0  0  0  0  0  0  0  0  0  0  0
   -4.8925   -2.4095   -4.1231 H   0  0  0  0  0  0  0  0  0  0  0  0
   -5.0476   -1.2063   -2.8237 H   0  0  0  0  0  0  0  0  0  0  0  0
   -2.4998   -0.1296   -3.3006 N   0  0  0  0  0  0  0  0  0  0  0  0
   -1.0834   -0.0420   -2.9200 C   0  0  2  0  0  0  0  0  0  0  0  0
   -0.8905   -0.3074   -1.4127 C   0  0  0  0  0  0  0  0  0  0  0  0
   -1.6639    0.1555   -0.5878 O   0  0  0  0  0  0  0  0  0  0  0  0
   -0.5845    1.3549   -3.2958 C   0  0  0  0  0  0  0  0  0  0  0  0
   -3.1290    0.5650   -2.9061 H   0  0  0  0  0  0  0  0  0  0  0  0
   -0.4917   -0.7764   -3.4768 H   0  0  0  0  0  0  0  0  0  0  0  0
   -1.1349    2.1228   -2.7428 H   0  0  0  0  0  0  0  0  0  0  0  0
    0.4800    1.4541   -3.0623 H   0  0  0  0  0  0  0  0  0  0  0  0
   -0.7209    1.5301   -4.3674 H   0  0  0  0  0  0  0  0  0  0  0  0
    0.3232   -0.6344   -0.8612 N   0  0  0  0  0  0  0  0  0  0  0  0
    0.8530   -1.9921   -1.0628 C   0  0  2  0  0  0  0  0  0  0  0  0
   -0.0718   -3.0947   -0.5021 C   0  0  0  0  0  0  0  0  0  0  0  0
   -0.1477   -4.1545   -1.1046 O   0  0  0  0  0  0  0  0  0  0  0  0
    2.2408   -2.0927   -0.4101 C   0  0  0  0  0  0  0  0  0  0  0  0
    3.2734   -1.1867   -1.1117 C   0  0  0  0  0  0  0  0  0  0  0  0
    4.6552   -1.2630   -0.4664 C   0  0  0  0  0  0  0  0  0  0  0  0
    4.8447   -1.7523    0.6307 O   0  0  0  0  0  0  0  0  0  0  0  0
    5.7632   -0.7746   -1.0966 N   0  0  0  0  0  0  0  0  0  0  0  0
    0.3664   -0.2983    0.0977 H   0  0  0  0  0  0  0  0  0  0  0  0
    0.9592   -2.1842   -2.1368 H   0  0  0  0  0  0  0  0  0  0  0  0
    2.1701   -1.8247    0.6503 H   0  0  0  0  0  0  0  0  0  0  0  0
    2.5894   -3.1311   -0.4614 H   0  0  0  0  0  0  0  0  0  0  0  0
    2.9425   -0.1452   -1.0813 H   0  0  0  0  0  0  0  0  0  0  0  0
    3.3594   -1.4831   -2.1605 H   0  0  0  0  0  0  0  0  0  0  0  0
    5.7109   -0.5379   -2.0814 H   0  0  0  0  0  0  0  0  0  0  0  0
    6.6565   -1.0050   -0.6702 H   0  0  0  0  0  0  0  0  0  0  0  0
   -0.6458   -2.9602    0.7522 N   0  0  0  0  0  0  0  0  0  0  0  0
   -1.6124   -3.8845    1.3826 C   0  0  2  0  0  0  0  0  0  0  0  0
   -1.0301   -5.2380    1.8526 C   0  0  0  0  0  0  0  0  0  0  0  0
   -1.3190   -5.6592    2.9653 O   0  0  0  0  0  0  0  0  0  0  0  0
   -2.8346   -4.1009    0.4784 C   0  0  0  0  0  0  0  0  0  0  0  0
   -0.5770   -2.0325    1.1605 H   0  0  0  0  0  0  0  0  0  0  0  0
   -1.9729   -3.3883    2.2896 H   0  0  0  0  0  0  0  0  0  0  0  0
   -2.5762   -4.6944   -0.4037 H   0  0  0  0  0  0  0  0  0  0  0  0
   -3.6171   -4.6327    1.0285 H   0  0  0  0  0  0  0  0  0  0  0  0
   -3.2373   -3.1394    0.1461 H   0  0  0  0  0  0  0  0  0  0  0  0
   -0.2098   -5.9934    1.0393 N   0  0  0  0  0  0  0  0  0  0  0  0
    0.3173   -7.3018    1.3989 C   0  0  0  0  0  0  0  0  0  0  0  0
   -0.0502   -5.6271    0.0969 H   0  0  0  0  0  0  0  0  0  0  0  0
   -0.4999   -8.0130    1.5574 H   0  0  0  0  0  0  0  0  0  0  0  0
    0.9581   -7.6823    0.5981 H   0  0  0  0  0  0  0  0  0  0  0  0
    0.9121   -7.2360    2.3157 H   0  0  0  0  0  0  0  0  0  0  0  0
  1  2  2  0  0  0  0
  1  3  1  0  0  0  0
  1  7  1  0  0  0  0
  3  4  1  0  0  0  0
  3  5  1  0  0  0  0
  3  6  1  0  0  0  0
  7  8  1  0  0  0  0
  7 12  1  0  0  0  0
  8  9  1  0  0  0  0
  8 11  1  0  0  0  0
  8 13  1  0  0  0  0
  9 10  2  0  0  0  0
  9 17  1  0  0  0  0
 11 14  1  0  0  0  0
 11 15  1  0  0  0  0
 11 16  1  0  0  0  0
 17 18  1  0  0  0  0
 17 26  1  0  0  0  0
 18 19  1  0  0  0  0
 18 21  1  0  0  0  0
 18 27  1  0  0  0  0
 19 20  2  0  0  0  0
 19 34  1  0  0  0  0
 21 22  1  0  0  0  0
 21 28  1  0  0  0  0
 21 29  1  0  0  0  0
 22 23  1  0  0  0  0
 22 30  1  0  0  0  0
 22 31  1  0  0  0  0
 23 24  2  0  0  0  0
 23 25  1  0  0  0  0
 25 32  1  0  0  0  0
 25 33  1  0  0  0  0
 34 35  1  0  0  0  0
 34 39  1  0  0  0  0
 35 36  1  0  0  0  0
 35 38  1  0  0  0  0
 35 40  1  0  0  0  0
 36 37  2  0  0  0  0
 36 44  1  0  0  0  0
 38 41  1  0  0  0  0
 38 42  1  0  0  0  0
 38 43  1  0  0  0  0
 44 45  1  0  0  0  0
 44 46  1  0  0  0  0
 45 47  1  0  0  0  0
 45 48  1  0  0  0  0
 45 49  1  0  0  0  0
M  END
$$$$

  -OEChem-02062319073D

 49 48  0     1  0  0  0  0  0999 V2000
   -3.2799   -1.2770   -3.4485 C   0  0  0  0  0  0  0  0  0  0  0  0
   -2.7311   -2.3650   -3.3821 O   0  0  0  0  0  0  0  0  0  0  0  0
   -4.7910   -1.1901   -3.5441 C   0  0  0  0  0  0  0  0  0  0  0  0
   -5.0768   -0.5911   -4.4119 H   0  0  0  0  0  0  0  0  0  0  0  0
   -5.2193   -2.1906   -3.6511 H   0  0  0  0  0  0  0  0  0  0  0  0
   -5.1961   -0.7280   -2.6405 H   0  0  0  0  0  0  0  0  0  0  0  0
   -2.5252   -0.1232   -3.3876 N   0  0  0  0  0  0  0  0  0  0  0  0
   -1.1036   -0.1524   -3.0182 C   0  0  2  0  0  0  0  0  0  0  0  0
   -0.9091   -0.3787   -1.5019 C   0  0  0  0  0  0  0  0  0  0  0  0
   -1.6888    0.0941   -0.6887 O   0  0  0  0  0  0  0  0  0  0  0  0
   -0.4720    1.1713   -3.4543 C   0  0  0  0  0  0  0  0  0  0  0  0
   -3.0427    0.7296   -3.1953 H   0  0  0  0  0  0  0  0  0  0  0  0
   -0.6063   -0.9666   -3.5562 H   0  0  0  0  0  0  0  0  0  0  0  0
   -0.9374    2.0112   -2.9283 H   0  0  0  0  0  0  0  0  0  0  0  0
    0.5995    1.1728   -3.2313 H   0  0  0  0  0  0  0  0  0  0  0  0
   -0.6005    1.3171   -4.5315 H   0  0  0  0  0  0  0  0  0  0  0  0
    0.3022   -0.6921   -0.9341 N   0  0  0  0  0  0  0  0  0  0  0  0
    1.0238   -1.9108   -1.3317 C   0  0  2  0  0  0  0  0  0  0  0  0
    0.2273   -3.2068   -1.0718 C   0  0  0  0  0  0  0  0  0  0  0  0
    0.3235   -4.1150   -1.8836 O   0  0  0  0  0  0  0  0  0  0  0  0
    2.3665   -1.9654   -0.5855 C   0  0  0  0  0  0  0  0  0  0  0  0
    3.3084   -0.8221   -1.0168 C   0  0  0  0  0  0  0  0  0  0  0  0
    4.6453   -0.8514   -0.2800 C   0  0  0  0  0  0  0  0  0  0  0  0
    4.8580   -1.5741    0.6746 O   0  0  0  0  0  0  0  0  0  0  0  0
    5.6835   -0.0497   -0.6583 N   0  0  0  0  0  0  0  0  0  0  0  0
    0.2974   -0.4764    0.0600 H   0  0  0  0  0  0  0  0  0  0  0  0
    1.2304   -1.8743   -2.4070 H   0  0  0  0  0  0  0  0  0  0  0  0
    2.1919   -1.9165    0.4955 H   0  0  0  0  0  0  0  0  0  0  0  0
    2.8560   -2.9247   -0.7929 H   0  0  0  0  0  0  0  0  0  0  0  0
    2.8371    0.1453   -0.8239 H   0  0  0  0  0  0  0  0  0  0  0  0
    3.4997   -0.8976   -2.0907 H   0  0  0  0  0  0  0  0  0  0  0  0
    5.6420    0.4341   -1.5486 H   0  0  0  0  0  0  0  0  0  0  0  0
    6.5792   -0.2414   -0.2180 H   0  0  0  0  0  0  0  0  0  0  0  0
   -0.4420   -3.3943    0.1270 N   0  0  0  0  0  0  0  0  0  0  0  0
   -1.3588   -4.5068    0.4549 C   0  0  2  0  0  0  0  0  0  0  0  0
   -0.6895   -5.8856    0.6616 C   0  0  0  0  0  0  0  0  0  0  0  0
   -0.9467   -6.5308    1.6699 O   0  0  0  0  0  0  0  0  0  0  0  0
   -2.4932   -4.5970   -0.5764 C   0  0  0  0  0  0  0  0  0  0  0  0
   -0.4966   -2.5742    0.7235 H   0  0  0  0  0  0  0  0  0  0  0  0
   -1.8228   -4.2587    1.4152 H   0  0  0  0  0  0  0  0  0  0  0  0
   -2.1203   -4.9219   -1.5523 H   0  0  0  0  0  0  0  0  0  0  0  0
   -3.2472   -5.3172   -0.2439 H   0  0  0  0  0  0  0  0  0  0  0  0
   -2.9754   -3.6223   -0.6980 H   0  0  0  0  0  0  0  0  0  0  0  0
    0.1782   -6.4154   -0.2716 N   0  0  0  0  0  0  0  0  0  0  0  0
    0.8207   -7.7157   -0.1481 C   0  0  0  0  0  0  0  0  0  0  0  0
    0.3598   -5.8372   -1.0967 H   0  0  0  0  0  0  0  0  0  0  0  0
    1.4446   -7.9127   -1.0251 H   0  0  0  0  0  0  0  0  0  0  0  0
    1.4558   -7.7453    0.7433 H   0  0  0  0  0  0  0  0  0  0  0  0
    0.0686   -8.5078   -0.0735 H   0  0  0  0  0  0  0  0  0  0  0  0
  1  2  2  0  0  0  0
  1  3  1  0  0  0  0
  1  7  1  0  0  0  0
  3  4  1  0  0  0  0
  3  5  1  0  0  0  0
  3  6  1  0  0  0  0
  7  8  1  0  0  0  0
  7 12  1  0  0  0  0
  8  9  1  0  0  0  0
  8 11  1  0  0  0  0
  8 13  1  0  0  0  0
  9 10  2  0  0  0  0
  9 17  1  0  0  0  0
 11 14  1  0  0  0  0
 11 15  1  0  0  0  0
 11 16  1  0  0  0  0
 17 18  1  0  0  0  0
 17 26  1  0  0  0  0
 18 19  1  0  0  0  0
 18 21  1  0  0  0  0
 18 27  1  0  0  0  0
 19 20  2  0  0  0  0
 19 34  1  0  0  0  0
 21 22  1  0  0  0  0
 21 28  1  0  0  0  0
 21 29  1  0  0  0  0
 22 23  1  0  0  0  0
 22 30  1  0  0  0  0
 22 31  1  0  0  0  0
 23 24  2  0  0  0  0
 23 25  1  0  0  0  0
 25 32  1  0  0  0  0
 25 33  1  0  0  0  0
 34 35  1  0  0  0  0
 34 39  1  0  0  0  0
 35 36  1  0  0  0  0
 35 38  1  0  0  0  0
 35 40  1  0  0  0  0
 36 37  2  0  0  0  0
 36 44  1  0  0  0  0
 38 41  1  0  0  0  0
 38 42  1  0  0  0  0
 38 43  1  0  0  0  0
 44 45  1  0  0  0  0
 44 46  1  0  0  0  0
 45 47  1  0  0  0  0
 45 48  1  0  0  0  0
 45 49  1  0  0  0  0
M  END
$$$$

  -OEChem-02062319073D

 49 48  0     1  0  0  0  0  0999 V2000
   -3.3642   -1.1103   -3.5878 C   0  0  0  0  0  0  0  0  0  0  0  0
   -2.8477   -2.2080   -3.7182 O   0  0  0  0  0  0  0  0  0  0  0  0
   -4.8742   -0.9724   -3.6217 C   0  0  0  0  0  0  0  0  0  0  0  0
   -5.1681   -0.2676   -4.4032 H   0  0  0  0  0  0  0  0  0  0  0  0
   -5.3360   -1.9417   -3.8298 H   0  0  0  0  0  0  0  0  0  0  0  0
   -5.2369   -0.6099   -2.6565 H   0  0  0  0  0  0  0  0  0  0  0  0
   -2.5776    0.0006   -3.3610 N   0  0  0  0  0  0  0  0  0  0  0  0
   -1.1524   -0.1101   -3.0191 C   0  0  2  0  0  0  0  0  0  0  0  0
   -0.9446   -0.3702   -1.5095 C   0  0  0  0  0  0  0  0  0  0  0  0
   -1.7486    0.0273   -0.6802 O   0  0  0  0  0  0  0  0  0  0  0  0
   -0.4664    1.1902   -3.4436 C   0  0  0  0  0  0  0  0  0  0  0  0
   -3.0722    0.8208   -3.0212 H   0  0  0  0  0  0  0  0  0  0  0  0
   -0.7009   -0.9369   -3.5784 H   0  0  0  0  0  0  0  0  0  0  0  0
   -0.8839    2.0414   -2.8962 H   0  0  0  0  0  0  0  0  0  0  0  0
    0.6077    1.1393   -3.2404 H   0  0  0  0  0  0  0  0  0  0  0  0
   -0.6067    1.3602   -4.5156 H   0  0  0  0  0  0  0  0  0  0  0  0
    0.2604   -0.7276   -0.9510 N   0  0  0  0  0  0  0  0  0  0  0  0
    1.1311   -1.7520   -1.5472 C   0  0  2  0  0  0  0  0  0  0  0  0
    0.4583   -3.1362   -1.6553 C   0  0  0  0  0  0  0  0  0  0  0  0
    0.6820   -3.8105   -2.6494 O   0  0  0  0  0  0  0  0  0  0  0  0
    2.4184   -1.8625   -0.7143 C   0  0  0  0  0  0  0  0  0  0  0  0
    3.2609   -0.5716   -0.7830 C   0  0  0  0  0  0  0  0  0  0  0  0
    4.5415   -0.6616    0.0439 C   0  0  0  0  0  0  0  0  0  0  0  0
    4.7436   -1.5475    0.8520 O   0  0  0  0  0  0  0  0  0  0  0  0
    5.5367    0.2643   -0.0814 N   0  0  0  0  0  0  0  0  0  0  0  0
    0.2388   -0.6636    0.0643 H   0  0  0  0  0  0  0  0  0  0  0  0
    1.4056   -1.4478   -2.5632 H   0  0  0  0  0  0  0  0  0  0  0  0
    2.1667   -2.0869    0.3287 H   0  0  0  0  0  0  0  0  0  0  0  0
    3.0207   -2.6981   -1.0910 H   0  0  0  0  0  0  0  0  0  0  0  0
    2.6790    0.2772   -0.4142 H   0  0  0  0  0  0  0  0  0  0  0  0
    3.5297   -0.3702   -1.8234 H   0  0  0  0  0  0  0  0  0  0  0  0
    5.5188    0.9148   -0.8593 H   0  0  0  0  0  0  0  0  0  0  0  0
    6.4108    0.0493    0.3906 H   0  0  0  0  0  0  0  0  0  0  0  0
   -0.2635   -3.6508   -0.5905 N   0  0  0  0  0  0  0  0  0  0  0  0
   -1.0341   -4.9118   -0.5698 C   0  0  2  0  0  0  0  0  0  0  0  0
   -0.1845   -6.2032   -0.5981 C   0  0  0  0  0  0  0  0  0  0  0  0
   -0.3662   -7.0592    0.2581 O   0  0  0  0  0  0  0  0  0  0  0  0
   -2.0939   -4.9264   -1.6802 C   0  0  0  0  0  0  0  0  0  0  0  0
   -0.4162   -3.0105    0.1829 H   0  0  0  0  0  0  0  0  0  0  0  0
   -1.5750   -4.9357    0.3819 H   0  0  0  0  0  0  0  0  0  0  0  0
   -1.6341   -4.9678   -2.6721 H   0  0  0  0  0  0  0  0  0  0  0  0
   -2.7418   -5.8015   -1.5692 H   0  0  0  0  0  0  0  0  0  0  0  0
   -2.7154   -4.0276   -1.6237 H   0  0  0  0  0  0  0  0  0  0  0  0
    0.7750   -6.4147   -1.5672 N   0  0  0  0  0  0  0  0  0  0  0  0
    1.6145   -7.6015   -1.6422 C   0  0  0  0  0  0  0  0  0  0  0  0
    0.9020   -5.6609   -2.2477 H   0  0  0  0  0  0  0  0  0  0  0  0
    0.9996   -8.4968   -1.7815 H   0  0  0  0  0  0  0  0  0  0  0  0
    2.3063   -7.5213   -2.4863 H   0  0  0  0  0  0  0  0  0  0  0  0
    2.1998   -7.7140   -0.7236 H   0  0  0  0  0  0  0  0  0  0  0  0
  1  2  2  0  0  0  0
  1  3  1  0  0  0  0
  1  7  1  0  0  0  0
  3  4  1  0  0  0  0
  3  5  1  0  0  0  0
  3  6  1  0  0  0  0
  7  8  1  0  0  0  0
  7 12  1  0  0  0  0
  8  9  1  0  0  0  0
  8 11  1  0  0  0  0
  8 13  1  0  0  0  0
  9 10  2  0  0  0  0
  9 17  1  0  0  0  0
 11 14  1  0  0  0  0
 11 15  1  0  0  0  0
 11 16  1  0  0  0  0
 17 18  1  0  0  0  0
 17 26  1  0  0  0  0
 18 19  1  0  0  0  0
 18 21  1  0  0  0  0
 18 27  1  0  0  0  0
 19 20  2  0  0  0  0
 19 34  1  0  0  0  0
 21 22  1  0  0  0  0
 21 28  1  0  0  0  0
 21 29  1  0  0  0  0
 22 23  1  0  0  0  0
 22 30  1  0  0  0  0
 22 31  1  0  0  0  0
 23 24  2  0  0  0  0
 23 25  1  0  0  0  0
 25 32  1  0  0  0  0
 25 33  1  0  0  0  0
 34 35  1  0  0  0  0
 34 39  1  0  0  0  0
 35 36  1  0  0  0  0
 35 38  1  0  0  0  0
 35 40  1  0  0  0  0
 36 37  2  0  0  0  0
 36 44  1  0  0  0  0
 38 41  1  0  0  0  0
 38 42  1  0  0  0  0
 38 43  1  0  0  0  0
 44 45  1  0  0  0  0
 44 46  1  0  0  0  0
 45 47  1  0  0  0  0
 45 48  1  0  0  0  0
 45 49  1  0  0  0  0
M  END
$$$$

  -OEChem-02062319073D

 49 48  0     1  0  0  0  0  0999 V2000
   -3.4642   -1.0113   -3.6416 C   0  0  0  0  0  0  0  0  0  0  0  0
   -2.9680   -2.0677   -3.9961 O   0  0  0  0  0  0  0  0  0  0  0  0
   -4.9730   -0.8645   -3.5846 C   0  0  0  0  0  0  0  0  0  0  0  0
   -5.2930   -0.0370   -4.2224 H   0  0  0  0  0  0  0  0  0  0  0  0
   -5.4545   -1.7831   -3.9317 H   0  0  0  0  0  0  0  0  0  0  0  0
   -5.2895   -0.6683   -2.5571 H   0  0  0  0  0  0  0  0  0  0  0  0
   -2.6604    0.0405   -3.2529 N   0  0  0  0  0  0  0  0  0  0  0  0
   -1.2192   -0.1051   -2.9982 C   0  0  2  0  0  0  0  0  0  0  0  0
   -0.9263   -0.3559   -1.4997 C   0  0  0  0  0  0  0  0  0  0  0  0
   -1.7175   -0.0206   -0.6314 O   0  0  0  0  0  0  0  0  0  0  0  0
   -0.5392    1.1796   -3.4769 C   0  0  0  0  0  0  0  0  0  0  0  0
   -3.1375    0.7916   -2.7610 H   0  0  0  0  0  0  0  0  0  0  0  0
   -0.8145   -0.9431   -3.5758 H   0  0  0  0  0  0  0  0  0  0  0  0
   -0.9152    2.0443   -2.9209 H   0  0  0  0  0  0  0  0  0  0  0  0
    0.5435    1.1178   -3.3328 H   0  0  0  0  0  0  0  0  0  0  0  0
   -0.7363    1.3357   -4.5423 H   0  0  0  0  0  0  0  0  0  0  0  0
    0.2976   -0.7358   -0.9957 N   0  0  0  0  0  0  0  0  0  0  0  0
    1.2806   -1.5391   -1.7379 C   0  0  2  0  0  0  0  0  0  0  0  0
    0.7475   -2.9251   -2.1548 C   0  0  0  0  0  0  0  0  0  0  0  0
    1.0149   -3.3334   -3.2749 O   0  0  0  0  0  0  0  0  0  0  0  0
    2.5457   -1.7047   -0.8801 C   0  0  0  0  0  0  0  0  0  0  0  0
    3.2643   -0.3584   -0.6505 C   0  0  0  0  0  0  0  0  0  0  0  0
    4.5269   -0.5003    0.1965 C   0  0  0  0  0  0  0  0  0  0  0  0
    4.8120   -1.5229    0.7894 O   0  0  0  0  0  0  0  0  0  0  0  0
    5.3980    0.5389    0.3534 N   0  0  0  0  0  0  0  0  0  0  0  0
    0.3132   -0.7675    0.0211 H   0  0  0  0  0  0  0  0  0  0  0  0
    1.5579   -1.0125   -2.6575 H   0  0  0  0  0  0  0  0  0  0  0  0
    2.2846   -2.1568    0.0837 H   0  0  0  0  0  0  0  0  0  0  0  0
    3.2355   -2.3914   -1.3857 H   0  0  0  0  0  0  0  0  0  0  0  0
    2.5948    0.3443   -0.1476 H   0  0  0  0  0  0  0  0  0  0  0  0
    3.5423    0.0715   -1.6168 H   0  0  0  0  0  0  0  0  0  0  0  0
    5.1256    1.4687    0.0537 H   0  0  0  0  0  0  0  0  0  0  0  0
    6.1225    0.4149    1.0554 H   0  0  0  0  0  0  0  0  0  0  0  0
    0.0441   -3.7078   -1.2536 N   0  0  0  0  0  0  0  0  0  0  0  0
   -0.5866   -5.0186   -1.5170 C   0  0  2  0  0  0  0  0  0  0  0  0
    0.3983   -6.1742   -1.8107 C   0  0  0  0  0  0  0  0  0  0  0  0
    0.3751   -7.1753   -1.1064 O   0  0  0  0  0  0  0  0  0  0  0  0
   -1.6482   -4.9046   -2.6191 C   0  0  0  0  0  0  0  0  0  0  0  0
   -0.1476   -3.2773   -0.3535 H   0  0  0  0  0  0  0  0  0  0  0  0
   -1.1137   -5.3055   -0.6010 H   0  0  0  0  0  0  0  0  0  0  0  0
   -1.2007   -4.6434   -3.5823 H   0  0  0  0  0  0  0  0  0  0  0  0
   -2.1744   -5.8570   -2.7355 H   0  0  0  0  0  0  0  0  0  0  0  0
   -2.3817   -4.1365   -2.3579 H   0  0  0  0  0  0  0  0  0  0  0  0
    1.3119   -6.0987   -2.8427 N   0  0  0  0  0  0  0  0  0  0  0  0
    2.3218   -7.1116   -3.1131 C   0  0  0  0  0  0  0  0  0  0  0  0
    1.3422   -5.2101   -3.3500 H   0  0  0  0  0  0  0  0  0  0  0  0
    2.9049   -6.8351   -3.9965 H   0  0  0  0  0  0  0  0  0  0  0  0
    3.0039   -7.2075   -2.2621 H   0  0  0  0  0  0  0  0  0  0  0  0
    1.8511   -8.0823   -3.3007 H   0  0  0  0  0  0  0  0  0  0  0  0
  1  2  2  0  0  0  0
  1  3  1  0  0  0  0
  1  7  1  0  0  0  0
  3  4  1  0  0  0  0
  3  5  1  0  0  0  0
  3  6  1  0  0  0  0
  7  8  1  0  0  0  0
  7 12  1  0  0  0  0
  8  9  1  0  0  0  0
  8 11  1  0  0  0  0
  8 13  1  0  0  0  0
  9 10  2  0  0  0  0
  9 17  1  0  0  0  0
 11 14  1  0  0  0  0
 11 15  1  0  0  0  0
 11 16  1  0  0  0  0
 17 18  1  0  0  0  0
 17 26  1  0  0  0  0
 18 19  1  0  0  0  0
 18 21  1  0  0  0  0
 18 27  1  0  0  0  0
 19 20  2  0  0  0  0
 19 34  1  0  0  0  0
 21 22  1  0  0  0  0
 21 28  1  0  0  0  0
 21 29  1  0  0  0  0
 22 23  1  0  0  0  0
 22 30  1  0  0  0  0
 22 31  1  0  0  0  0
 23 24  2  0  0  0  0
 23 25  1  0  0  0  0
 25 32  1  0  0  0  0
 25 33  1  0  0  0  0
 34 35  1  0  0  0  0
 34 39  1  0  0  0  0
 35 36  1  0  0  0  0
 35 38  1  0  0  0  0
 35 40  1  0  0  0  0
 36 37  2  0  0  0  0
 36 44  1  0  0  0  0
 38 41  1  0  0  0  0
 38 42  1  0  0  0  0
 38 43  1  0  0  0  0
 44 45  1  0  0  0  0
 44 46  1  0  0  0  0
 45 47  1  0  0  0  0
 45 48  1  0  0  0  0
 45 49  1  0  0  0  0
M  END
$$$$

  -OEChem-02062319073D

 49 48  0     1  0  0  0  0  0999 V2000
   -3.6452   -0.8519   -3.3344 C   0  0  0  0  0  0  0  0  0  0  0  0
   -3.1868   -1.9568   -3.5741 O   0  0  0  0  0  0  0  0  0  0  0  0
   -5.1427   -0.6659   -3.1811 C   0  0  0  0  0  0  0  0  0  0  0  0
   -5.5052    0.0658   -3.9072 H   0  0  0  0  0  0  0  0  0  0  0  0
   -5.6594   -1.6150   -3.3494 H   0  0  0  0  0  0  0  0  0  0  0  0
   -5.3724   -0.3139   -2.1723 H   0  0  0  0  0  0  0  0  0  0  0  0
   -2.8008    0.2246   -3.1592 N   0  0  0  0  0  0  0  0  0  0  0  0
   -1.3483    0.0648   -2.9969 C   0  0  2  0  0  0  0  0  0  0  0  0
   -0.9662   -0.2601   -1.5314 C   0  0  0  0  0  0  0  0  0  0  0  0
   -1.7082    0.0208   -0.6021 O   0  0  0  0  0  0  0  0  0  0  0  0
   -0.7025    1.3762   -3.4523 C   0  0  0  0  0  0  0  0  0  0  0  0
   -3.2262    1.0412   -2.7293 H   0  0  0  0  0  0  0  0  0  0  0  0
   -0.9881   -0.7426   -3.6434 H   0  0  0  0  0  0  0  0  0  0  0  0
   -1.0323    2.2064   -2.8195 H   0  0  0  0  0  0  0  0  0  0  0  0
    0.3875    1.3116   -3.3976 H   0  0  0  0  0  0  0  0  0  0  0  0
   -0.9807    1.5944   -4.4883 H   0  0  0  0  0  0  0  0  0  0  0  0
    0.2628   -0.7190   -1.1112 N   0  0  0  0  0  0  0  0  0  0  0  0
    1.3278   -1.2745   -1.9603 C   0  0  2  0  0  0  0  0  0  0  0  0
    0.9236   -2.5368   -2.7497 C   0  0  0  0  0  0  0  0  0  0  0  0
    1.3422   -2.6630   -3.8914 O   0  0  0  0  0  0  0  0  0  0  0  0
    2.5472   -1.5912   -1.0785 C   0  0  0  0  0  0  0  0  0  0  0  0
    3.1630   -0.3158   -0.4648 C   0  0  0  0  0  0  0  0  0  0  0  0
    4.3826   -0.6100    0.4059 C   0  0  0  0  0  0  0  0  0  0  0  0
    4.7370   -1.7388    0.6863 O   0  0  0  0  0  0  0  0  0  0  0  0
    5.1318    0.3966    0.9435 N   0  0  0  0  0  0  0  0  0  0  0  0
    0.3287   -0.8300   -0.1020 H   0  0  0  0  0  0  0  0  0  0  0  0
    1.6267   -0.5219   -2.6971 H   0  0  0  0  0  0  0  0  0  0  0  0
    2.2576   -2.2851   -0.2808 H   0  0  0  0  0  0  0  0  0  0  0  0
    3.3097   -2.0942   -1.6860 H   0  0  0  0  0  0  0  0  0  0  0  0
    2.4223    0.2004    0.1513 H   0  0  0  0  0  0  0  0  0  0  0  0
    3.4664    0.3616   -1.2677 H   0  0  0  0  0  0  0  0  0  0  0  0
    4.7848    1.3492    0.9142 H   0  0  0  0  0  0  0  0  0  0  0  0
    5.8225    0.1204    1.6360 H   0  0  0  0  0  0  0  0  0  0  0  0
    0.2253   -3.5575   -2.1269 N   0  0  0  0  0  0  0  0  0  0  0  0
   -0.1049   -4.8851   -2.6871 C   0  0  2  0  0  0  0  0  0  0  0  0
    1.1198   -5.7873   -2.9627 C   0  0  0  0  0  0  0  0  0  0  0  0
    1.2077   -6.8725   -2.4033 O   0  0  0  0  0  0  0  0  0  0  0  0
   -0.9863   -4.7678   -3.9369 C   0  0  0  0  0  0  0  0  0  0  0  0
   -0.0931   -3.3616   -1.1818 H   0  0  0  0  0  0  0  0  0  0  0  0
   -0.6994   -5.4103   -1.9324 H   0  0  0  0  0  0  0  0  0  0  0  0
   -0.4600   -4.2698   -4.7558 H   0  0  0  0  0  0  0  0  0  0  0  0
   -1.2856   -5.7632   -4.2797 H   0  0  0  0  0  0  0  0  0  0  0  0
   -1.8908   -4.1996   -3.7072 H   0  0  0  0  0  0  0  0  0  0  0  0
    2.1260   -5.3861   -3.8186 N   0  0  0  0  0  0  0  0  0  0  0  0
    3.3398   -6.1519   -4.0648 C   0  0  0  0  0  0  0  0  0  0  0  0
    2.0447   -4.4367   -4.1916 H   0  0  0  0  0  0  0  0  0  0  0  0
    3.9524   -5.6535   -4.8220 H   0  0  0  0  0  0  0  0  0  0  0  0
    3.9275   -6.2432   -3.1456 H   0  0  0  0  0  0  0  0  0  0  0  0
    3.0929   -7.1553   -4.4272 H   0  0  0  0  0  0  0  0  0  0  0  0
  1  2  2  0  0  0  0
  1  3  1  0  0  0  0
  1  7  1  0  0  0  0
  3  4  1  0  0  0  0
  3  5  1  0  0  0  0
  3  6  1  0  0  0  0
  7  8  1  0  0  0  0
  7 12  1  0  0  0  0
  8  9  1  0  0  0  0
  8 11  1  0  0  0  0
  8 13  1  0  0  0  0
  9 10  2  0  0  0  0
  9 17  1  0  0  0  0
 11 14  1  0  0  0  0
 11 15  1  0  0  0  0
 11 16  1  0  0  0  0
 17 18  1  0  0  0  0
 17 26  1  0  0  0  0
 18 19  1  0  0  0  0
 18 21  1  0  0  0  0
 18 27  1  0  0  0  0
 19 20  2  0  0  0  0
 19 34  1  0  0  0  0
 21 22  1  0  0  0  0
 21 28  1  0  0  0  0
 21 29  1  0  0  0  0
 22 23  1  0  0  0  0
 22 30  1  0  0  0  0
 22 31  1  0  0  0  0
 23 24  2  0  0  0  0
 23 25  1  0  0  0  0
 25 32  1  0  0  0  0
 25 33  1  0  0  0  0
 34 35  1  0  0  0  0
 34 39  1  0  0  0  0
 35 36  1  0  0  0  0
 35 38  1  0  0  0  0
 35 40  1  0  0  0  0
 36 37  2  0  0  0  0
 36 44  1  0  0  0  0
 38 41  1  0  0  0  0
 38 42  1  0  0  0  0
 38 43  1  0  0  0  0
 44 45  1  0  0  0  0
 44 46  1  0  0  0  0
 45 47  1  0  0  0  0
 45 48  1  0  0  0  0
 45 49  1  0  0  0  0
M  END
$$$$

  -OEChem-02062319073D

 49 48  0     1  0  0  0  0  0999 V2000
   -3.5691   -1.0677   -3.1030 C   0  0  0  0  0  0  0  0  0  0  0  0
   -2.9504   -2.1173   -3.1906 O   0  0  0  0  0  0  0  0  0  0  0  0
   -5.0784   -1.0812   -2.9532 C   0  0  0  0  0  0  0  0  0  0  0  0
   -5.5389   -0.4985   -3.7547 H   0  0  0  0  0  0  0  0  0  0  0  0
   -5.4537   -2.1072   -3.0037 H   0  0  0  0  0  0  0  0  0  0  0  0
   -5.3601   -0.6507   -1.9890 H   0  0  0  0  0  0  0  0  0  0  0  0
   -2.8898    0.1339   -3.0974 N   0  0  0  0  0  0  0  0  0  0  0  0
   -1.4287    0.1891   -2.9498 C   0  0  2  0  0  0  0  0  0  0  0  0
   -0.9819   -0.1705   -1.5102 C   0  0  0  0  0  0  0  0  0  0  0  0
   -1.7112    0.0310   -0.5507 O   0  0  0  0  0  0  0  0  0  0  0  0
   -0.9763    1.6032   -3.3201 C   0  0  0  0  0  0  0  0  0  0  0  0
   -3.4249    0.9364   -2.7789 H   0  0  0  0  0  0  0  0  0  0  0  0
   -0.9759   -0.5158   -3.6530 H   0  0  0  0  0  0  0  0  0  0  0  0
   -1.4114    2.3377   -2.6345 H   0  0  0  0  0  0  0  0  0  0  0  0
    0.1135    1.6834   -3.2689 H   0  0  0  0  0  0  0  0  0  0  0  0
   -1.2902    1.8468   -4.3402 H   0  0  0  0  0  0  0  0  0  0  0  0
    0.2590   -0.6423   -1.1416 N   0  0  0  0  0  0  0  0  0  0  0  0
    1.4166   -0.9053   -2.0107 C   0  0  2  0  0  0  0  0  0  0  0  0
    1.1780   -1.9529   -3.1173 C   0  0  0  0  0  0  0  0  0  0  0  0
    1.7145   -1.7748   -4.2017 O   0  0  0  0  0  0  0  0  0  0  0  0
    2.6023   -1.3523   -1.1390 C   0  0  0  0  0  0  0  0  0  0  0  0
    3.0767   -0.2319   -0.1894 C   0  0  0  0  0  0  0  0  0  0  0  0
    4.2936   -0.6384    0.6394 C   0  0  0  0  0  0  0  0  0  0  0  0
    4.7530   -1.7642    0.6305 O   0  0  0  0  0  0  0  0  0  0  0  0
    4.9269    0.2513    1.4584 N   0  0  0  0  0  0  0  0  0  0  0  0
    0.3527   -0.7897   -0.1395 H   0  0  0  0  0  0  0  0  0  0  0  0
    1.6956    0.0268   -2.5130 H   0  0  0  0  0  0  0  0  0  0  0  0
    2.3240   -2.2393   -0.5580 H   0  0  0  0  0  0  0  0  0  0  0  0
    3.4368   -1.6399   -1.7903 H   0  0  0  0  0  0  0  0  0  0  0  0
    2.2727    0.0434    0.4977 H   0  0  0  0  0  0  0  0  0  0  0  0
    3.3388    0.6533   -0.7756 H   0  0  0  0  0  0  0  0  0  0  0  0
    4.4907    1.1441    1.6628 H   0  0  0  0  0  0  0  0  0  0  0  0
    5.6278   -0.1362    2.0843 H   0  0  0  0  0  0  0  0  0  0  0  0
    0.5280   -3.1416   -2.8358 N   0  0  0  0  0  0  0  0  0  0  0  0
    0.3346   -4.2918   -3.7452 C   0  0  2  0  0  0  0  0  0  0  0  0
    1.6297   -5.0688   -4.0731 C   0  0  0  0  0  0  0  0  0  0  0  0
    1.6578   -6.2849   -3.9370 O   0  0  0  0  0  0  0  0  0  0  0  0
   -0.3885   -3.8869   -5.0384 C   0  0  0  0  0  0  0  0  0  0  0  0
    0.0623   -3.1846   -1.9325 H   0  0  0  0  0  0  0  0  0  0  0  0
   -0.3203   -4.9984   -3.2248 H   0  0  0  0  0  0  0  0  0  0  0  0
    0.2458   -3.2609   -5.6721 H   0  0  0  0  0  0  0  0  0  0  0  0
   -0.6607   -4.7804   -5.6091 H   0  0  0  0  0  0  0  0  0  0  0  0
   -1.3033   -3.3349   -4.8088 H   0  0  0  0  0  0  0  0  0  0  0  0
    2.7599   -4.4144   -4.5214 N   0  0  0  0  0  0  0  0  0  0  0  0
    4.0094   -5.0816   -4.8595 C   0  0  0  0  0  0  0  0  0  0  0  0
    2.6791   -3.4012   -4.6372 H   0  0  0  0  0  0  0  0  0  0  0  0
    4.7581   -4.3462   -5.1698 H   0  0  0  0  0  0  0  0  0  0  0  0
    4.3984   -5.6274   -3.9934 H   0  0  0  0  0  0  0  0  0  0  0  0
    3.8551   -5.7883   -5.6816 H   0  0  0  0  0  0  0  0  0  0  0  0
  1  2  2  0  0  0  0
  1  3  1  0  0  0  0
  1  7  1  0  0  0  0
  3  4  1  0  0  0  0
  3  5  1  0  0  0  0
  3  6  1  0  0  0  0
  7  8  1  0  0  0  0
  7 12  1  0  0  0  0
  8  9  1  0  0  0  0
  8 11  1  0  0  0  0
  8 13  1  0  0  0  0
  9 10  2  0  0  0  0
  9 17  1  0  0  0  0
 11 14  1  0  0  0  0
 11 15  1  0  0  0  0
 11 16  1  0  0  0  0
 17 18  1  0  0  0  0
 17 26  1  0  0  0  0
 18 19  1  0  0  0  0
 18 21  1  0  0  0  0
 18 27  1  0  0  0  0
 19 20  2  0  0  0  0
 19 34  1  0  0  0  0
 21 22  1  0  0  0  0
 21 28  1  0  0  0  0
 21 29  1  0  0  0  0
 22 23  1  0  0  0  0
 22 30  1  0  0  0  0
 22 31  1  0  0  0  0
 23 24  2  0  0  0  0
 23 25  1  0  0  0  0
 25 32  1  0  0  0  0
 25 33  1  0  0  0  0
 34 35  1  0  0  0  0
 34 39  1  0  0  0  0
 35 36  1  0  0  0  0
 35 38  1  0  0  0  0
 35 40  1  0  0  0  0
 36 37  2  0  0  0  0
 36 44  1  0  0  0  0
 38 41  1  0  0  0  0
 38 42  1  0  0  0  0
 38 43  1  0  0  0  0
 44 45  1  0  0  0  0
 44 46  1  0  0  0  0
 45 47  1  0  0  0  0
 45 48  1  0  0  0  0
 45 49  1  0  0  0  0
M  END
$$$$

  -OEChem-02062319073D

 49 48  0     1  0  0  0  0  0999 V2000
   -3.2481   -1.3314   -3.1381 C   0  0  0  0  0  0  0  0  0  0  0  0
   -2.4146   -2.2264   -3.1629 O   0  0  0  0  0  0  0  0  0  0  0  0
   -4.7264   -1.6659   -3.0844 C   0  0  0  0  0  0  0  0  0  0  0  0
   -5.2520   -1.1727   -3.9059 H   0  0  0  0  0  0  0  0  0  0  0  0
   -4.8718   -2.7462   -3.1719 H   0  0  0  0  0  0  0  0  0  0  0  0
   -5.1493   -1.3292   -2.1346 H   0  0  0  0  0  0  0  0  0  0  0  0
   -2.8414   -0.0115   -3.1185 N   0  0  0  0  0  0  0  0  0  0  0  0
   -1.4339    0.3490   -2.9018 C   0  0  2  0  0  0  0  0  0  0  0  0
   -0.9724   -0.0139   -1.4680 C   0  0  0  0  0  0  0  0  0  0  0  0
   -1.7284    0.1108   -0.5158 O   0  0  0  0  0  0  0  0  0  0  0  0
   -1.2689    1.8481   -3.1540 C   0  0  0  0  0  0  0  0  0  0  0  0
   -3.5502    0.6647   -2.8492 H   0  0  0  0  0  0  0  0  0  0  0  0
   -0.8274   -0.1871   -3.6335 H   0  0  0  0  0  0  0  0  0  0  0  0
   -1.8667    2.4260   -2.4419 H   0  0  0  0  0  0  0  0  0  0  0  0
   -0.2194    2.1383   -3.0439 H   0  0  0  0  0  0  0  0  0  0  0  0
   -1.5911    2.1006   -4.1691 H   0  0  0  0  0  0  0  0  0  0  0  0
    0.2602   -0.5105   -1.1045 N   0  0  0  0  0  0  0  0  0  0  0  0
    1.4981   -0.5291   -1.9000 C   0  0  2  0  0  0  0  0  0  0  0  0
    1.4221   -1.3051   -3.2307 C   0  0  0  0  0  0  0  0  0  0  0  0
    2.0160   -0.8469   -4.1969 O   0  0  0  0  0  0  0  0  0  0  0  0
    2.6286   -1.1163   -1.0384 C   0  0  0  0  0  0  0  0  0  0  0  0
    2.9622   -0.2189    0.1726 C   0  0  0  0  0  0  0  0  0  0  0  0
    4.1216   -0.7620    1.0057 C   0  0  0  0  0  0  0  0  0  0  0  0
    4.6153   -1.8569    0.8167 O   0  0  0  0  0  0  0  0  0  0  0  0
    4.6582   -0.0420    2.0340 N   0  0  0  0  0  0  0  0  0  0  0  0
    0.3276   -0.6925   -0.1063 H   0  0  0  0  0  0  0  0  0  0  0  0
    1.7599    0.5038   -2.1549 H   0  0  0  0  0  0  0  0  0  0  0  0
    2.3494   -2.1192   -0.6943 H   0  0  0  0  0  0  0  0  0  0  0  0
    3.5298   -1.2232   -1.6544 H   0  0  0  0  0  0  0  0  0  0  0  0
    2.0904   -0.1244    0.8247 H   0  0  0  0  0  0  0  0  0  0  0  0
    3.2298    0.7805   -0.1815 H   0  0  0  0  0  0  0  0  0  0  0  0
    4.1807    0.7881    2.3682 H   0  0  0  0  0  0  0  0  0  0  0  0
    5.3169   -0.5347    2.6310 H   0  0  0  0  0  0  0  0  0  0  0  0
    0.8243   -2.5513   -3.2932 N   0  0  0  0  0  0  0  0  0  0  0  0
    0.7176   -3.4290   -4.4785 C   0  0  2  0  0  0  0  0  0  0  0  0
    2.0550   -4.0529   -4.9373 C   0  0  0  0  0  0  0  0  0  0  0  0
    2.1260   -5.2585   -5.1366 O   0  0  0  0  0  0  0  0  0  0  0  0
    0.0278   -2.7219   -5.6545 C   0  0  0  0  0  0  0  0  0  0  0  0
    0.2366   -2.7909   -2.4962 H   0  0  0  0  0  0  0  0  0  0  0  0
    0.0738   -4.2668   -4.1907 H   0  0  0  0  0  0  0  0  0  0  0  0
    0.6615   -1.9361   -6.0746 H   0  0  0  0  0  0  0  0  0  0  0  0
   -0.1880   -3.4441   -6.4478 H   0  0  0  0  0  0  0  0  0  0  0  0
   -0.9156   -2.2737   -5.3332 H   0  0  0  0  0  0  0  0  0  0  0  0
    3.1703   -3.2677   -5.1516 N   0  0  0  0  0  0  0  0  0  0  0  0
    4.4577   -3.7780   -5.6004 C   0  0  0  0  0  0  0  0  0  0  0  0
    3.0524   -2.2649   -4.9886 H   0  0  0  0  0  0  0  0  0  0  0  0
    4.3497   -4.3017   -6.5558 H   0  0  0  0  0  0  0  0  0  0  0  0
    5.1636   -2.9532   -5.7364 H   0  0  0  0  0  0  0  0  0  0  0  0
    4.8719   -4.4715   -4.8614 H   0  0  0  0  0  0  0  0  0  0  0  0
  1  2  2  0  0  0  0
  1  3  1  0  0  0  0
  1  7  1  0  0  0  0
  3  4  1  0  0  0  0
  3  5  1  0  0  0  0
  3  6  1  0  0  0  0
  7  8  1  0  0  0  0
  7 12  1  0  0  0  0
  8  9  1  0  0  0  0
  8 11  1  0  0  0  0
  8 13  1  0  0  0  0
  9 10  2  0  0  0  0
  9 17  1  0  0  0  0
 11 14  1  0  0  0  0
 11 15  1  0  0  0  0
 11 16  1  0  0  0  0
 17 18  1  0  0  0  0
 17 26  1  0  0  0  0
 18 19  1  0  0  0  0
 18 21  1  0  0  0  0
 18 27  1  0  0  0  0
 19 20  2  0  0  0  0
 19 34  1  0  0  0  0
 21 22  1  0  0  0  0
 21 28  1  0  0  0  0
 21 29  1  0  0  0  0
 22 23  1  0  0  0  0
 22 30  1  0  0  0  0
 22 31  1  0  0  0  0
 23 24  2  0  0  0  0
 23 25  1  0  0  0  0
 25 32  1  0  0  0  0
 25 33  1  0  0  0  0
 34 35  1  0  0  0  0
 34 39  1  0  0  0  0
 35 36  1  0  0  0  0
 35 38  1  0  0  0  0
 35 40  1  0  0  0  0
 36 37  2  0  0  0  0
 36 44  1  0  0  0  0
 38 41  1  0  0  0  0
 38 42  1  0  0  0  0
 38 43  1  0  0  0  0
 44 45  1  0  0  0  0
 44 46  1  0  0  0  0
 45 47  1  0  0  0  0
 45 48  1  0  0  0  0
 45 49  1  0  0  0  0
M  END
$$$$

  -OEChem-02062319073D

 49 48  0     1  0  0  0  0  0999 V2000
   -2.8290   -1.4984   -3.1868 C   0  0  0  0  0  0  0  0  0  0  0  0
   -1.8092   -2.1734   -3.1758 O   0  0  0  0  0  0  0  0  0  0  0  0
   -4.1854   -2.1747   -3.2368 C   0  0  0  0  0  0  0  0  0  0  0  0
   -4.0634   -3.2537   -3.3676 H   0  0  0  0  0  0  0  0  0  0  0  0
   -4.7270   -1.9921   -2.3054 H   0  0  0  0  0  0  0  0  0  0  0  0
   -4.7691   -1.7837   -4.0736 H   0  0  0  0  0  0  0  0  0  0  0  0
   -2.7448   -0.1215   -3.1131 N   0  0  0  0  0  0  0  0  0  0  0  0
   -1.4793    0.5629   -2.8114 C   0  0  2  0  0  0  0  0  0  0  0  0
   -0.9776    0.2115   -1.3882 C   0  0  0  0  0  0  0  0  0  0  0  0
   -1.7441    0.2578   -0.4377 O   0  0  0  0  0  0  0  0  0  0  0  0
   -1.7040    2.0703   -2.9417 C   0  0  0  0  0  0  0  0  0  0  0  0
   -3.6095    0.3649   -2.8941 H   0  0  0  0  0  0  0  0  0  0  0  0
   -0.7387    0.2697   -3.5547 H   0  0  0  0  0  0  0  0  0  0  0  0
   -2.4505    2.4135   -2.2180 H   0  0  0  0  0  0  0  0  0  0  0  0
   -0.7696    2.6098   -2.7590 H   0  0  0  0  0  0  0  0  0  0  0  0
   -2.0534    2.3169   -3.9491 H   0  0  0  0  0  0  0  0  0  0  0  0
    0.2457   -0.3263   -1.0499 N   0  0  0  0  0  0  0  0  0  0  0  0
    1.5334   -0.1557   -1.7448 C   0  0  2  0  0  0  0  0  0  0  0  0
    1.5952   -0.6335   -3.2107 C   0  0  0  0  0  0  0  0  0  0  0  0
    2.2346    0.0390   -4.0078 O   0  0  0  0  0  0  0  0  0  0  0  0
    2.6206   -0.8865   -0.9372 C   0  0  0  0  0  0  0  0  0  0  0  0
    2.8383   -0.2525    0.4536 C   0  0  0  0  0  0  0  0  0  0  0  0
    3.9449   -0.9417    1.2499 C   0  0  0  0  0  0  0  0  0  0  0  0
    4.4991   -1.9563    0.8730 O   0  0  0  0  0  0  0  0  0  0  0  0
    4.3595   -0.4553    2.4562 N   0  0  0  0  0  0  0  0  0  0  0  0
    0.2795   -0.5816   -0.0665 H   0  0  0  0  0  0  0  0  0  0  0  0
    1.7733    0.9133   -1.7592 H   0  0  0  0  0  0  0  0  0  0  0  0
    2.3504   -1.9433   -0.8261 H   0  0  0  0  0  0  0  0  0  0  0  0
    3.5665   -0.8494   -1.4914 H   0  0  0  0  0  0  0  0  0  0  0  0
    1.9177   -0.3031    1.0401 H   0  0  0  0  0  0  0  0  0  0  0  0
    3.1052    0.8011    0.3327 H   0  0  0  0  0  0  0  0  0  0  0  0
    3.8161    0.2661    2.9177 H   0  0  0  0  0  0  0  0  0  0  0  0
    4.9771   -1.0583    2.9928 H   0  0  0  0  0  0  0  0  0  0  0  0
    1.0589   -1.8520   -3.5877 N   0  0  0  0  0  0  0  0  0  0  0  0
    1.0383   -2.4313   -4.9481 C   0  0  2  0  0  0  0  0  0  0  0  0
    2.4108   -2.8757   -5.5032 C   0  0  0  0  0  0  0  0  0  0  0  0
    2.4985   -3.9299   -6.1197 O   0  0  0  0  0  0  0  0  0  0  0  0
    0.3321   -1.5008   -5.9441 C   0  0  0  0  0  0  0  0  0  0  0  0
    0.3666   -2.2321   -2.9377 H   0  0  0  0  0  0  0  0  0  0  0  0
    0.4355   -3.3435   -4.8839 H   0  0  0  0  0  0  0  0  0  0  0  0
    0.9205   -0.5978   -6.1297 H   0  0  0  0  0  0  0  0  0  0  0  0
    0.1899   -2.0165   -6.8990 H   0  0  0  0  0  0  0  0  0  0  0  0
   -0.6501   -1.2084   -5.5626 H   0  0  0  0  0  0  0  0  0  0  0  0
    3.5346   -2.0854   -5.3658 N   0  0  0  0  0  0  0  0  0  0  0  0
    4.8293   -2.4048   -5.9497 C   0  0  0  0  0  0  0  0  0  0  0  0
    3.3862   -1.1667   -4.9418 H   0  0  0  0  0  0  0  0  0  0  0  0
    5.5655   -1.6433   -5.6755 H   0  0  0  0  0  0  0  0  0  0  0  0
    5.1839   -3.3747   -5.5856 H   0  0  0  0  0  0  0  0  0  0  0  0
    4.7574   -2.4421   -7.0416 H   0  0  0  0  0  0  0  0  0  0  0  0
  1  2  2  0  0  0  0
  1  3  1  0  0  0  0
  1  7  1  0  0  0  0
  3  4  1  0  0  0  0
  3  5  1  0  0  0  0
  3  6  1  0  0  0  0
  7  8  1  0  0  0  0
  7 12  1  0  0  0  0
  8  9  1  0  0  0  0
  8 11  1  0  0  0  0
  8 13  1  0  0  0  0
  9 10  2  0  0  0  0
  9 17  1  0  0  0  0
 11 14  1  0  0  0  0
 11 15  1  0  0  0  0
 11 16  1  0  0  0  0
 17 18  1  0  0  0  0
 17 26  1  0  0  0  0
 18 19  1  0  0  0  0
 18 21  1  0  0  0  0
 18 27  1  0  0  0  0
 19 20  2  0  0  0  0
 19 34  1  0  0  0  0
 21 22  1  0  0  0  0
 21 28  1  0  0  0  0
 21 29  1  0  0  0  0
 22 23  1  0  0  0  0
 22 30  1  0  0  0  0
 22 31  1  0  0  0  0
 23 24  2  0  0  0  0
 23 25  1  0  0  0  0
 25 32  1  0  0  0  0
 25 33  1  0  0  0  0
 34 35  1  0  0  0  0
 34 39  1  0  0  0  0
 35 36  1  0  0  0  0
 35 38  1  0  0  0  0
 35 40  1  0  0  0  0
 36 37  2  0  0  0  0
 36 44  1  0  0  0  0
 38 41  1  0  0  0  0
 38 42  1  0  0  0  0
 38 43  1  0  0  0  0
 44 45  1  0  0  0  0
 44 46  1  0  0  0  0
 45 47  1  0  0  0  0
 45 48  1  0  0  0  0
 45 49  1  0  0  0  0
M  END
$$$$

  -OEChem-02062319073D

 49 48  0     1  0  0  0  0  0999 V2000
   -2.5611   -1.5343   -3.2955 C   0  0  0  0  0  0  0  0  0  0  0  0
   -1.4459   -2.0326   -3.3521 O   0  0  0  0  0  0  0  0  0  0  0  0
   -3.7918   -2.4090   -3.4392 C   0  0  0  0  0  0  0  0  0  0  0  0
   -3.5017   -3.4236   -3.7261 H   0  0  0  0  0  0  0  0  0  0  0  0
   -4.3311   -2.4519   -2.4898 H   0  0  0  0  0  0  0  0  0  0  0  0
   -4.4525   -2.0031   -4.2089 H   0  0  0  0  0  0  0  0  0  0  0  0
   -2.6992   -0.1800   -3.0643 N   0  0  0  0  0  0  0  0  0  0  0  0
   -1.5616    0.6724   -2.6911 C   0  0  2  0  0  0  0  0  0  0  0  0
   -1.0402    0.3289   -1.2747 C   0  0  0  0  0  0  0  0  0  0  0  0
   -1.8211    0.2860   -0.3359 O   0  0  0  0  0  0  0  0  0  0  0  0
   -2.0167    2.1321   -2.7537 C   0  0  0  0  0  0  0  0  0  0  0  0
   -3.6298    0.1343   -2.8036 H   0  0  0  0  0  0  0  0  0  0  0  0
   -0.7663    0.5455   -3.4231 H   0  0  0  0  0  0  0  0  0  0  0  0
   -2.8274    2.3155   -2.0409 H   0  0  0  0  0  0  0  0  0  0  0  0
   -1.1841    2.7999   -2.5108 H   0  0  0  0  0  0  0  0  0  0  0  0
   -2.3729    2.3762   -3.7594 H   0  0  0  0  0  0  0  0  0  0  0  0
    0.1774   -0.2334   -0.9560 N   0  0  0  0  0  0  0  0  0  0  0  0
    1.4930    0.1436   -1.5038 C   0  0  2  0  0  0  0  0  0  0  0  0
    1.6839    0.0061   -3.0294 C   0  0  0  0  0  0  0  0  0  0  0  0
    2.3068    0.8801   -3.6159 O   0  0  0  0  0  0  0  0  0  0  0  0
    2.5718   -0.6907   -0.7913 C   0  0  0  0  0  0  0  0  0  0  0  0
    2.6579   -0.3647    0.7155 C   0  0  0  0  0  0  0  0  0  0  0  0
    3.7695   -1.1337    1.4266 C   0  0  0  0  0  0  0  0  0  0  0  0
    4.4694   -1.9559    0.8677 O   0  0  0  0  0  0  0  0  0  0  0  0
    4.0261   -0.9441    2.7539 N   0  0  0  0  0  0  0  0  0  0  0  0
    0.1720   -0.5639    0.0050 H   0  0  0  0  0  0  0  0  0  0  0  0
    1.6649    1.2002   -1.2697 H   0  0  0  0  0  0  0  0  0  0  0  0
    2.3660   -1.7586   -0.9302 H   0  0  0  0  0  0  0  0  0  0  0  0
    3.5456   -0.4843   -1.2519 H   0  0  0  0  0  0  0  0  0  0  0  0
    1.7121   -0.6050    1.2071 H   0  0  0  0  0  0  0  0  0  0  0  0
    2.8440    0.7053    0.8430 H   0  0  0  0  0  0  0  0  0  0  0  0
    3.3673   -0.4226    3.3221 H   0  0  0  0  0  0  0  0  0  0  0  0
    4.6727   -1.5997    3.1839 H   0  0  0  0  0  0  0  0  0  0  0  0
    1.2528   -1.1233   -3.7041 N   0  0  0  0  0  0  0  0  0  0  0  0
    1.3463   -1.3912   -5.1554 C   0  0  2  0  0  0  0  0  0  0  0  0
    2.7748   -1.6031   -5.7084 C   0  0  0  0  0  0  0  0  0  0  0  0
    2.9740   -2.4831   -6.5363 O   0  0  0  0  0  0  0  0  0  0  0  0
    0.6058   -0.3222   -5.9700 C   0  0  0  0  0  0  0  0  0  0  0  0
    0.5772   -1.6993   -3.1927 H   0  0  0  0  0  0  0  0  0  0  0  0
    0.8236   -2.3383   -5.3269 H   0  0  0  0  0  0  0  0  0  0  0  0
    1.0920    0.6533   -5.8808 H   0  0  0  0  0  0  0  0  0  0  0  0
    0.5941   -0.6011   -7.0283 H   0  0  0  0  0  0  0  0  0  0  0  0
   -0.4292   -0.2344   -5.6279 H   0  0  0  0  0  0  0  0  0  0  0  0
    3.8248   -0.7894   -5.3329 N   0  0  0  0  0  0  0  0  0  0  0  0
    5.1654   -0.8810   -5.8933 C   0  0  0  0  0  0  0  0  0  0  0  0
    3.5880   -0.0058   -4.7200 H   0  0  0  0  0  0  0  0  0  0  0  0
    5.8216   -0.1428   -5.4226 H   0  0  0  0  0  0  0  0  0  0  0  0
    5.5848   -1.8775   -5.7199 H   0  0  0  0  0  0  0  0  0  0  0  0
    5.1437   -0.6893   -6.9710 H   0  0  0  0  0  0  0  0  0  0  0  0
  1  2  2  0  0  0  0
  1  3  1  0  0  0  0
  1  7  1  0  0  0  0
  3  4  1  0  0  0  0
  3  5  1  0  0  0  0
  3  6  1  0  0  0  0
  7  8  1  0  0  0  0
  7 12  1  0  0  0  0
  8  9  1  0  0  0  0
  8 11  1  0  0  0  0
  8 13  1  0  0  0  0
  9 10  2  0  0  0  0
  9 17  1  0  0  0  0
 11 14  1  0  0  0  0
 11 15  1  0  0  0  0
 11 16  1  0  0  0  0
 17 18  1  0  0  0  0
 17 26  1  0  0  0  0
 18 19  1  0  0  0  0
 18 21  1  0  0  0  0
 18 27  1  0  0  0  0
 19 20  2  0  0  0  0
 19 34  1  0  0  0  0
 21 22  1  0  0  0  0
 21 28  1  0  0  0  0
 21 29  1  0  0  0  0
 22 23  1  0  0  0  0
 22 30  1  0  0  0  0
 22 31  1  0  0  0  0
 23 24  2  0  0  0  0
 23 25  1  0  0  0  0
 25 32  1  0  0  0  0
 25 33  1  0  0  0  0
 34 35  1  0  0  0  0
 34 39  1  0  0  0  0
 35 36  1  0  0  0  0
 35 38  1  0  0  0  0
 35 40  1  0  0  0  0
 36 37  2  0  0  0  0
 36 44  1  0  0  0  0
 38 41  1  0  0  0  0
 38 42  1  0  0  0  0
 38 43  1  0  0  0  0
 44 45  1  0  0  0  0
 44 46  1  0  0  0  0
 45 47  1  0  0  0  0
 45 48  1  0  0  0  0
 45 49  1  0  0  0  0
M  END
$$$$

  -OEChem-02062319073D

 49 48  0     1  0  0  0  0  0999 V2000
   -2.3514   -1.3934   -3.4754 C   0  0  0  0  0  0  0  0  0  0  0  0
   -1.1710   -1.6505   -3.6639 O   0  0  0  0  0  0  0  0  0  0  0  0
   -3.4190   -2.4092   -3.8362 C   0  0  0  0  0  0  0  0  0  0  0  0
   -2.9624   -3.2847   -4.3068 H   0  0  0  0  0  0  0  0  0  0  0  0
   -3.9493   -2.7304   -2.9361 H   0  0  0  0  0  0  0  0  0  0  0  0
   -4.1344   -1.9684   -4.5349 H   0  0  0  0  0  0  0  0  0  0  0  0
   -2.7090   -0.1890   -2.9036 N   0  0  0  0  0  0  0  0  0  0  0  0
   -1.7242    0.7460   -2.3415 C   0  0  2  0  0  0  0  0  0  0  0  0
   -1.1328    0.2156   -1.0129 C   0  0  0  0  0  0  0  0  0  0  0  0
   -1.8830   -0.0378   -0.0826 O   0  0  0  0  0  0  0  0  0  0  0  0
   -2.4194    2.0927   -2.1252 C   0  0  0  0  0  0  0  0  0  0  0  0
   -3.6692   -0.1144   -2.5785 H   0  0  0  0  0  0  0  0  0  0  0  0
   -0.9257    0.9076   -3.0628 H   0  0  0  0  0  0  0  0  0  0  0  0
   -1.7097    2.8256   -1.7290 H   0  0  0  0  0  0  0  0  0  0  0  0
   -3.2472    1.9932   -1.4155 H   0  0  0  0  0  0  0  0  0  0  0  0
   -2.8149    2.4726   -3.0722 H   0  0  0  0  0  0  0  0  0  0  0  0
    0.0889   -0.4024   -0.8549 N   0  0  0  0  0  0  0  0  0  0  0  0
    1.3907    0.2071   -1.1823 C   0  0  2  0  0  0  0  0  0  0  0  0
    1.6269    0.6370   -2.6462 C   0  0  0  0  0  0  0  0  0  0  0  0
    2.2246    1.6838   -2.8537 O   0  0  0  0  0  0  0  0  0  0  0  0
    2.5029   -0.7751   -0.7749 C   0  0  0  0  0  0  0  0  0  0  0  0
    2.5549   -0.9953    0.7517 C   0  0  0  0  0  0  0  0  0  0  0  0
    3.7140   -1.8928    1.1801 C   0  0  0  0  0  0  0  0  0  0  0  0
    4.4714   -2.4227    0.3902 O   0  0  0  0  0  0  0  0  0  0  0  0
    3.9665   -2.1410    2.4983 N   0  0  0  0  0  0  0  0  0  0  0  0
    0.0776   -0.9605   -0.0055 H   0  0  0  0  0  0  0  0  0  0  0  0
    1.4965    1.1162   -0.5798 H   0  0  0  0  0  0  0  0  0  0  0  0
    2.3552   -1.7346   -1.2844 H   0  0  0  0  0  0  0  0  0  0  0  0
    3.4701   -0.3769   -1.1054 H   0  0  0  0  0  0  0  0  0  0  0  0
    1.6256   -1.4556    1.0963 H   0  0  0  0  0  0  0  0  0  0  0  0
    2.6625   -0.0299    1.2538 H   0  0  0  0  0  0  0  0  0  0  0  0
    3.5025   -1.5858    3.2087 H   0  0  0  0  0  0  0  0  0  0  0  0
    4.8419   -2.6138    2.7045 H   0  0  0  0  0  0  0  0  0  0  0  0
    1.2809   -0.1917   -3.6998 N   0  0  0  0  0  0  0  0  0  0  0  0
    1.4854    0.0517   -5.1435 C   0  0  2  0  0  0  0  0  0  0  0  0
    2.9598    0.0495   -5.6104 C   0  0  0  0  0  0  0  0  0  0  0  0
    3.2627   -0.5238   -6.6490 O   0  0  0  0  0  0  0  0  0  0  0  0
    0.7716    1.3296   -5.6046 C   0  0  0  0  0  0  0  0  0  0  0  0
    0.6657   -0.9765   -3.4583 H   0  0  0  0  0  0  0  0  0  0  0  0
    1.0094   -0.7841   -5.6669 H   0  0  0  0  0  0  0  0  0  0  0  0
    1.2341    2.2213   -5.1722 H   0  0  0  0  0  0  0  0  0  0  0  0
    0.8240    1.4134   -6.6945 H   0  0  0  0  0  0  0  0  0  0  0  0
   -0.2819    1.3029   -5.3134 H   0  0  0  0  0  0  0  0  0  0  0  0
    3.9418    0.7102   -4.8992 N   0  0  0  0  0  0  0  0  0  0  0  0
    5.3401    0.7720   -5.3007 C   0  0  0  0  0  0  0  0  0  0  0  0
    3.6268    1.2412   -4.0840 H   0  0  0  0  0  0  0  0  0  0  0  0
    5.7679   -0.2348   -5.3502 H   0  0  0  0  0  0  0  0  0  0  0  0
    5.4367    1.2457   -6.2832 H   0  0  0  0  0  0  0  0  0  0  0  0
    5.9146    1.3563   -4.5758 H   0  0  0  0  0  0  0  0  0  0  0  0
  1  2  2  0  0  0  0
  1  3  1  0  0  0  0
  1  7  1  0  0  0  0
  3  4  1  0  0  0  0
  3  5  1  0  0  0  0
  3  6  1  0  0  0  0
  7  8  1  0  0  0  0
  7 12  1  0  0  0  0
  8  9  1  0  0  0  0
  8 11  1  0  0  0  0
  8 13  1  0  0  0  0
  9 10  2  0  0  0  0
  9 17  1  0  0  0  0
 11 14  1  0  0  0  0
 11 15  1  0  0  0  0
 11 16  1  0  0  0  0
 17 18  1  0  0  0  0
 17 26  1  0  0  0  0
 18 19  1  0  0  0  0
 18 21  1  0  0  0  0
 18 27  1  0  0  0  0
 19 20  2  0  0  0  0
 19 34  1  0  0  0  0
 21 22  1  0  0  0  0
 21 28  1  0  0  0  0
 21 29  1  0  0  0  0
 22 23  1  0  0  0  0
 22 30  1  0  0  0  0
 22 31  1  0  0  0  0
 23 24  2  0  0  0  0
 23 25  1  0  0  0  0
 25 32  1  0  0  0  0
 25 33  1  0  0  0  0
 34 35  1  0  0  0  0
 34 39  1  0  0  0  0
 35 36  1  0  0  0  0
 35 38  1  0  0  0  0
 35 40  1  0  0  0  0
 36 37  2  0  0  0  0
 36 44  1  0  0  0  0
 38 41  1  0  0  0  0
 38 42  1  0  0  0  0
 38 43  1  0  0  0  0
 44 45  1  0  0  0  0
 44 46  1  0  0  0  0
 45 47  1  0  0  0  0
 45 48  1  0  0  0  0
 45 49  1  0  0  0  0
M  END
$$$$

  -OEChem-02062319073D

 49 48  0     1  0  0  0  0  0999 V2000
   -2.7601   -1.6073   -3.6494 C   0  0  0  0  0  0  0  0  0  0  0  0
   -1.6804   -1.9992   -4.0675 O   0  0  0  0  0  0  0  0  0  0  0  0
   -3.9952   -2.4761   -3.7934 C   0  0  0  0  0  0  0  0  0  0  0  0
   -3.7558   -3.3818   -4.3575 H   0  0  0  0  0  0  0  0  0  0  0  0
   -4.3669   -2.7633   -2.8066 H   0  0  0  0  0  0  0  0  0  0  0  0
   -4.7772   -1.9283   -4.3247 H   0  0  0  0  0  0  0  0  0  0  0  0
   -2.8536   -0.3838   -3.0178 N   0  0  0  0  0  0  0  0  0  0  0  0
   -1.6661    0.3855   -2.6239 C   0  0  2  0  0  0  0  0  0  0  0  0
   -1.1821    0.0126   -1.2046 C   0  0  0  0  0  0  0  0  0  0  0  0
   -2.0035   -0.2387   -0.3353 O   0  0  0  0  0  0  0  0  0  0  0  0
   -2.0109    1.8738   -2.6956 C   0  0  0  0  0  0  0  0  0  0  0  0
   -3.7067   -0.2232   -2.4882 H   0  0  0  0  0  0  0  0  0  0  0  0
   -0.8659    0.1916   -3.3355 H   0  0  0  0  0  0  0  0  0  0  0  0
   -1.1334    2.4804   -2.4508 H   0  0  0  0  0  0  0  0  0  0  0  0
   -2.3424    2.1385   -3.7045 H   0  0  0  0  0  0  0  0  0  0  0  0
   -2.8110    2.1178   -1.9893 H   0  0  0  0  0  0  0  0  0  0  0  0
    0.0583   -0.4974   -0.8891 N   0  0  0  0  0  0  0  0  0  0  0  0
    1.2575    0.3591   -0.8824 C   0  0  2  0  0  0  0  0  0  0  0  0
    1.6157    1.0354   -2.2222 C   0  0  0  0  0  0  0  0  0  0  0  0
    1.9335    2.2156   -2.2227 O   0  0  0  0  0  0  0  0  0  0  0  0
    2.4579   -0.4777   -0.4072 C   0  0  0  0  0  0  0  0  0  0  0  0
    2.3018   -0.9364    1.0585 C   0  0  0  0  0  0  0  0  0  0  0  0
    3.5278   -1.6862    1.5761 C   0  0  0  0  0  0  0  0  0  0  0  0
    4.4665   -1.9898    0.8652 O   0  0  0  0  0  0  0  0  0  0  0  0
    3.6361   -2.0498    2.8876 N   0  0  0  0  0  0  0  0  0  0  0  0
   -0.0368   -1.0744   -0.0571 H   0  0  0  0  0  0  0  0  0  0  0  0
    1.0945    1.1701   -0.1630 H   0  0  0  0  0  0  0  0  0  0  0  0
    2.5835   -1.3516   -1.0577 H   0  0  0  0  0  0  0  0  0  0  0  0
    3.3700    0.1258   -0.4922 H   0  0  0  0  0  0  0  0  0  0  0  0
    1.4363   -1.5969    1.1552 H   0  0  0  0  0  0  0  0  0  0  0  0
    2.1364   -0.0636    1.6960 H   0  0  0  0  0  0  0  0  0  0  0  0
    2.9883   -1.6673    3.5681 H   0  0  0  0  0  0  0  0  0  0  0  0
    4.5428   -2.4029    3.1811 H   0  0  0  0  0  0  0  0  0  0  0  0
    1.5881    0.3100   -3.4019 N   0  0  0  0  0  0  0  0  0  0  0  0
    1.9096    0.7894   -4.7635 C   0  0  2  0  0  0  0  0  0  0  0  0
    3.3849    1.1970   -4.9886 C   0  0  0  0  0  0  0  0  0  0  0  0
    3.9680    0.8099   -5.9925 O   0  0  0  0  0  0  0  0  0  0  0  0
    0.9692    1.9228   -5.1966 C   0  0  0  0  0  0  0  0  0  0  0  0
    1.3079   -0.6658   -3.3094 H   0  0  0  0  0  0  0  0  0  0  0  0
    1.7279   -0.0509   -5.4419 H   0  0  0  0  0  0  0  0  0  0  0  0
    1.1233    2.8206   -4.5913 H   0  0  0  0  0  0  0  0  0  0  0  0
    1.1563    2.1826   -6.2436 H   0  0  0  0  0  0  0  0  0  0  0  0
   -0.0745    1.6107   -5.1033 H   0  0  0  0  0  0  0  0  0  0  0  0
    4.0521    2.0167   -4.1000 N   0  0  0  0  0  0  0  0  0  0  0  0
    5.4189    2.4825   -4.2899 C   0  0  0  0  0  0  0  0  0  0  0  0
    3.5057    2.3671   -3.3095 H   0  0  0  0  0  0  0  0  0  0  0  0
    5.4957    3.0798   -5.2046 H   0  0  0  0  0  0  0  0  0  0  0  0
    5.7283    3.1038   -3.4438 H   0  0  0  0  0  0  0  0  0  0  0  0
    6.1058    1.6326   -4.3634 H   0  0  0  0  0  0  0  0  0  0  0  0
  1  2  2  0  0  0  0
  1  3  1  0  0  0  0
  1  7  1  0  0  0  0
  3  4  1  0  0  0  0
  3  5  1  0  0  0  0
  3  6  1  0  0  0  0
  7  8  1  0  0  0  0
  7 12  1  0  0  0  0
  8  9  1  0  0  0  0
  8 11  1  0  0  0  0
  8 13  1  0  0  0  0
  9 10  2  0  0  0  0
  9 17  1  0  0  0  0
 11 14  1  0  0  0  0
 11 15  1  0  0  0  0
 11 16  1  0  0  0  0
 17 18  1  0  0  0  0
 17 26  1  0  0  0  0
 18 19  1  0  0  0  0
 18 21  1  0  0  0  0
 18 27  1  0  0  0  0
 19 20  2  0  0  0  0
 19 34  1  0  0  0  0
 21 22  1  0  0  0  0
 21 28  1  0  0  0  0
 21 29  1  0  0  0  0
 22 23  1  0  0  0  0
 22 30  1  0  0  0  0
 22 31  1  0  0  0  0
 23 24  2  0  0  0  0
 23 25  1  0  0  0  0
 25 32  1  0  0  0  0
 25 33  1  0  0  0  0
 34 35  1  0  0  0  0
 34 39  1  0  0  0  0
 35 36  1  0  0  0  0
 35 38  1  0  0  0  0
 35 40  1  0  0  0  0
 36 37  2  0  0  0  0
 36 44  1  0  0  0  0
 38 41  1  0  0  0  0
 38 42  1  0  0  0  0
 38 43  1  0  0  0  0
 44 45  1  0  0  0  0
 44 46  1  0  0  0  0
 45 47  1  0  0  0  0
 45 48  1  0  0  0  0
 45 49  1  0  0  0  0
M  END
$$$$

  -OEChem-02062319073D

 49 48  0     1  0  0  0  0  0999 V2000
   -1.7624   -1.2340   -3.5555 C   0  0  0  0  0  0  0  0  0  0  0  0
   -0.5554   -1.0787   -3.6693 O   0  0  0  0  0  0  0  0  0  0  0  0
   -2.4215   -2.4970   -4.0755 C   0  0  0  0  0  0  0  0  0  0  0  0
   -1.6792   -3.1389   -4.5582 H   0  0  0  0  0  0  0  0  0  0  0  0
   -2.8784   -3.0471   -3.2494 H   0  0  0  0  0  0  0  0  0  0  0  0
   -3.1931   -2.2428   -4.8064 H   0  0  0  0  0  0  0  0  0  0  0  0
   -2.5232   -0.2718   -2.9236 N   0  0  0  0  0  0  0  0  0  0  0  0
   -1.9549    0.9140   -2.2670 C   0  0  2  0  0  0  0  0  0  0  0  0
   -1.4170    0.5895   -0.8522 C   0  0  0  0  0  0  0  0  0  0  0  0
   -2.2009    0.4382    0.0720 O   0  0  0  0  0  0  0  0  0  0  0  0
   -3.0448    1.9905   -2.2269 C   0  0  0  0  0  0  0  0  0  0  0  0
   -3.4905   -0.5104   -2.7215 H   0  0  0  0  0  0  0  0  0  0  0  0
   -1.1361    1.3116   -2.8666 H   0  0  0  0  0  0  0  0  0  0  0  0
   -3.3690    2.2417   -3.2417 H   0  0  0  0  0  0  0  0  0  0  0  0
   -2.6609    2.8989   -1.7518 H   0  0  0  0  0  0  0  0  0  0  0  0
   -3.9142    1.6433   -1.6589 H   0  0  0  0  0  0  0  0  0  0  0  0
   -0.2492   -0.1033   -0.6290 N   0  0  0  0  0  0  0  0  0  0  0  0
    1.0269    0.6222   -0.5088 C   0  0  2  0  0  0  0  0  0  0  0  0
    1.4546    1.4554   -1.7357 C   0  0  0  0  0  0  0  0  0  0  0  0
    1.9366    2.5636   -1.5483 O   0  0  0  0  0  0  0  0  0  0  0  0
    2.1405   -0.3913   -0.1925 C   0  0  0  0  0  0  0  0  0  0  0  0
    1.9641   -1.0383    1.1971 C   0  0  0  0  0  0  0  0  0  0  0  0
    3.0983   -1.9994    1.5491 C   0  0  0  0  0  0  0  0  0  0  0  0
    4.0371   -2.2203    0.8084 O   0  0  0  0  0  0  0  0  0  0  0  0
    3.1171   -2.6679    2.7393 N   0  0  0  0  0  0  0  0  0  0  0  0
   -0.4094   -0.7440    0.1432 H   0  0  0  0  0  0  0  0  0  0  0  0
    0.9452    1.3253    0.3282 H   0  0  0  0  0  0  0  0  0  0  0  0
    2.1601   -1.1705   -0.9636 H   0  0  0  0  0  0  0  0  0  0  0  0
    3.1101    0.1207   -0.2214 H   0  0  0  0  0  0  0  0  0  0  0  0
    1.0247   -1.5953    1.2333 H   0  0  0  0  0  0  0  0  0  0  0  0
    1.9255   -0.2562    1.9604 H   0  0  0  0  0  0  0  0  0  0  0  0
    2.4782   -2.3918    3.4772 H   0  0  0  0  0  0  0  0  0  0  0  0
    3.9766   -3.1636    2.9602 H   0  0  0  0  0  0  0  0  0  0  0  0
    1.3651    0.9378   -3.0163 N   0  0  0  0  0  0  0  0  0  0  0  0
    1.7627    1.5845   -4.2842 C   0  0  2  0  0  0  0  0  0  0  0  0
    3.2811    1.8256   -4.4544 C   0  0  0  0  0  0  0  0  0  0  0  0
    3.8133    1.5807   -5.5294 O   0  0  0  0  0  0  0  0  0  0  0  0
    0.9830    2.8857   -4.5176 C   0  0  0  0  0  0  0  0  0  0  0  0
    0.8920    0.0301   -3.0958 H   0  0  0  0  0  0  0  0  0  0  0  0
    1.4800    0.8934   -5.0858 H   0  0  0  0  0  0  0  0  0  0  0  0
   -0.0928    2.7047   -4.4481 H   0  0  0  0  0  0  0  0  0  0  0  0
    1.2582    3.6502   -3.7854 H   0  0  0  0  0  0  0  0  0  0  0  0
    1.2016    3.2769   -5.5164 H   0  0  0  0  0  0  0  0  0  0  0  0
    4.0430    2.3617   -3.4352 N   0  0  0  0  0  0  0  0  0  0  0  0
    5.4575    2.6856   -3.5539 C   0  0  0  0  0  0  0  0  0  0  0  0
    3.5355    2.6270   -2.5877 H   0  0  0  0  0  0  0  0  0  0  0  0
    5.8333    3.0794   -2.6048 H   0  0  0  0  0  0  0  0  0  0  0  0
    6.0353    1.7914   -3.8097 H   0  0  0  0  0  0  0  0  0  0  0  0
    5.6143    3.4418   -4.3302 H   0  0  0  0  0  0  0  0  0  0  0  0
  1  2  2  0  0  0  0
  1  3  1  0  0  0  0
  1  7  1  0  0  0  0
  3  4  1  0  0  0  0
  3  5  1  0  0  0  0
  3  6  1  0  0  0  0
  7  8  1  0  0  0  0
  7 12  1  0  0  0  0
  8  9  1  0  0  0  0
  8 11  1  0  0  0  0
  8 13  1  0  0  0  0
  9 10  2  0  0  0  0
  9 17  1  0  0  0  0
 11 14  1  0  0  0  0
 11 15  1  0  0  0  0
 11 16  1  0  0  0  0
 17 18  1  0  0  0  0
 17 26  1  0  0  0  0
 18 19  1  0  0  0  0
 18 21  1  0  0  0  0
 18 27  1  0  0  0  0
 19 20  2  0  0  0  0
 19 34  1  0  0  0  0
 21 22  1  0  0  0  0
 21 28  1  0  0  0  0
 21 29  1  0  0  0  0
 22 23  1  0  0  0  0
 22 30  1  0  0  0  0
 22 31  1  0  0  0  0
 23 24  2  0  0  0  0
 23 25  1  0  0  0  0
 25 32  1  0  0  0  0
 25 33  1  0  0  0  0
 34 35  1  0  0  0  0
 34 39  1  0  0  0  0
 35 36  1  0  0  0  0
 35 38  1  0  0  0  0
 35 40  1  0  0  0  0
 36 37  2  0  0  0  0
 36 44  1  0  0  0  0
 38 41  1  0  0  0  0
 38 42  1  0  0  0  0
 38 43  1  0  0  0  0
 44 45  1  0  0  0  0
 44 46  1  0  0  0  0
 45 47  1  0  0  0  0
 45 48  1  0  0  0  0
 45 49  1  0  0  0  0
M  END
$$$$

  -OEChem-02062319073D

 49 48  0     1  0  0  0  0  0999 V2000
   -1.3842   -1.1831   -3.4489 C   0  0  0  0  0  0  0  0  0  0  0  0
   -0.2138   -0.9489   -3.1827 O   0  0  0  0  0  0  0  0  0  0  0  0
   -1.7542   -2.3691   -4.3192 C   0  0  0  0  0  0  0  0  0  0  0  0
   -2.3080   -2.0296   -5.1982 H   0  0  0  0  0  0  0  0  0  0  0  0
   -0.8516   -2.8897   -4.6530 H   0  0  0  0  0  0  0  0  0  0  0  0
   -2.3747   -3.0697   -3.7547 H   0  0  0  0  0  0  0  0  0  0  0  0
   -2.3676   -0.3841   -2.9022 N   0  0  0  0  0  0  0  0  0  0  0  0
   -2.1149    0.8655   -2.1631 C   0  0  2  0  0  0  0  0  0  0  0  0
   -1.6249    0.6319   -0.7092 C   0  0  0  0  0  0  0  0  0  0  0  0
   -2.0048    1.3641    0.1927 O   0  0  0  0  0  0  0  0  0  0  0  0
   -3.4079    1.6888   -2.2190 C   0  0  0  0  0  0  0  0  0  0  0  0
   -3.3296   -0.6122   -3.1402 H   0  0  0  0  0  0  0  0  0  0  0  0
   -1.3422    1.4400   -2.6812 H   0  0  0  0  0  0  0  0  0  0  0  0
   -4.2097    1.1839   -1.6708 H   0  0  0  0  0  0  0  0  0  0  0  0
   -3.2491    2.6742   -1.7685 H   0  0  0  0  0  0  0  0  0  0  0  0
   -3.7269    1.8356   -3.2552 H   0  0  0  0  0  0  0  0  0  0  0  0
   -0.4585   -0.0744   -0.4811 N   0  0  0  0  0  0  0  0  0  0  0  0
    0.7575    0.6548   -0.0754 C   0  0  2  0  0  0  0  0  0  0  0  0
    1.2418    1.7091   -1.0947 C   0  0  0  0  0  0  0  0  0  0  0  0
    1.6977    2.7698   -0.6914 O   0  0  0  0  0  0  0  0  0  0  0  0
    1.8793   -0.3595    0.1961 C   0  0  0  0  0  0  0  0  0  0  0  0
    1.5432   -1.2726    1.3926 C   0  0  0  0  0  0  0  0  0  0  0  0
    2.6453   -2.2842    1.6942 C   0  0  0  0  0  0  0  0  0  0  0  0
    3.6269   -2.4289    0.9902 O   0  0  0  0  0  0  0  0  0  0  0  0
    2.5811   -3.0951    2.7904 N   0  0  0  0  0  0  0  0  0  0  0  0
   -0.2819   -0.7291   -1.2451 H   0  0  0  0  0  0  0  0  0  0  0  0
    0.5459    1.1939    0.8555 H   0  0  0  0  0  0  0  0  0  0  0  0
    2.0540   -0.9680   -0.6985 H   0  0  0  0  0  0  0  0  0  0  0  0
    2.8088    0.1806    0.4122 H   0  0  0  0  0  0  0  0  0  0  0  0
    0.6212   -1.8251    1.1934 H   0  0  0  0  0  0  0  0  0  0  0  0
    1.3810   -0.6568    2.2816 H   0  0  0  0  0  0  0  0  0  0  0  0
    1.8993   -2.8942    3.5141 H   0  0  0  0  0  0  0  0  0  0  0  0
    3.4263   -3.6143    3.0101 H   0  0  0  0  0  0  0  0  0  0  0  0
    1.2919    1.4027   -2.4459 N   0  0  0  0  0  0  0  0  0  0  0  0
    1.7423    2.2730   -3.5513 C   0  0  2  0  0  0  0  0  0  0  0  0
    3.2584    2.5715   -3.5742 C   0  0  0  0  0  0  0  0  0  0  0  0
    3.8680    2.4916   -4.6329 O   0  0  0  0  0  0  0  0  0  0  0  0
    0.9353    3.5780   -3.6037 C   0  0  0  0  0  0  0  0  0  0  0  0
    0.9564    0.4698   -2.7026 H   0  0  0  0  0  0  0  0  0  0  0  0
    1.5319    1.7307   -4.4789 H   0  0  0  0  0  0  0  0  0  0  0  0
   -0.1371    3.3650   -3.6100 H   0  0  0  0  0  0  0  0  0  0  0  0
    1.1829    4.1324   -4.5145 H   0  0  0  0  0  0  0  0  0  0  0  0
    1.1592    4.2187   -2.7456 H   0  0  0  0  0  0  0  0  0  0  0  0
    3.9334    2.9592   -2.4344 N   0  0  0  0  0  0  0  0  0  0  0  0
    5.3491    3.2968   -2.3984 C   0  0  0  0  0  0  0  0  0  0  0  0
    3.3665    3.0672   -1.5891 H   0  0  0  0  0  0  0  0  0  0  0  0
    5.5660    4.1161   -3.0918 H   0  0  0  0  0  0  0  0  0  0  0  0
    5.6354    3.6118   -1.3904 H   0  0  0  0  0  0  0  0  0  0  0  0
    5.9556    2.4286   -2.6762 H   0  0  0  0  0  0  0  0  0  0  0  0
  1  2  2  0  0  0  0
  1  3  1  0  0  0  0
  1  7  1  0  0  0  0
  3  4  1  0  0  0  0
  3  5  1  0  0  0  0
  3  6  1  0  0  0  0
  7  8  1  0  0  0  0
  7 12  1  0  0  0  0
  8  9  1  0  0  0  0
  8 11  1  0  0  0  0
  8 13  1  0  0  0  0
  9 10  2  0  0  0  0
  9 17  1  0  0  0  0
 11 14  1  0  0  0  0
 11 15  1  0  0  0  0
 11 16  1  0  0  0  0
 17 18  1  0  0  0  0
 17 26  1  0  0  0  0
 18 19  1  0  0  0  0
 18 21  1  0  0  0  0
 18 27  1  0  0  0  0
 19 20  2  0  0  0  0
 19 34  1  0  0  0  0
 21 22  1  0  0  0  0
 21 28  1  0  0  0  0
 21 29  1  0  0  0  0
 22 23  1  0  0  0  0
 22 30  1  0  0  0  0
 22 31  1  0  0  0  0
 23 24  2  0  0  0  0
 23 25  1  0  0  0  0
 25 32  1  0  0  0  0
 25 33  1  0  0  0  0
 34 35  1  0  0  0  0
 34 39  1  0  0  0  0
 35 36  1  0  0  0  0
 35 38  1  0  0  0  0
 35 40  1  0  0  0  0
 36 37  2  0  0  0  0
 36 44  1  0  0  0  0
 38 41  1  0  0  0  0
 38 42  1  0  0  0  0
 38 43  1  0  0  0  0
 44 45  1  0  0  0  0
 44 46  1  0  0  0  0
 45 47  1  0  0  0  0
 45 48  1  0  0  0  0
 45 49  1  0  0  0  0
M  END
$$$$

  -OEChem-02062319073D

 49 48  0     1  0  0  0  0  0999 V2000
   -0.9837   -0.9633   -3.6457 C   0  0  0  0  0  0  0  0  0  0  0  0
    0.0768   -0.5000   -3.2517 O   0  0  0  0  0  0  0  0  0  0  0  0
   -1.0023   -2.1061   -4.6423 C   0  0  0  0  0  0  0  0  0  0  0  0
    0.0150   -2.3328   -4.9748 H   0  0  0  0  0  0  0  0  0  0  0  0
   -1.4284   -3.0001   -4.1799 H   0  0  0  0  0  0  0  0  0  0  0  0
   -1.6028   -1.8341   -5.5139 H   0  0  0  0  0  0  0  0  0  0  0  0
   -2.1603   -0.4819   -3.1090 N   0  0  0  0  0  0  0  0  0  0  0  0
   -2.2570    0.7259   -2.2676 C   0  0  2  0  0  0  0  0  0  0  0  0
   -1.8370    0.5035   -0.7914 C   0  0  0  0  0  0  0  0  0  0  0  0
   -2.3270    1.1813    0.1001 O   0  0  0  0  0  0  0  0  0  0  0  0
   -3.6978    1.2388   -2.3874 C   0  0  0  0  0  0  0  0  0  0  0  0
   -3.0232   -0.8884   -3.4616 H   0  0  0  0  0  0  0  0  0  0  0  0
   -1.5942    1.4991   -2.6713 H   0  0  0  0  0  0  0  0  0  0  0  0
   -4.4000    0.5209   -1.9518 H   0  0  0  0  0  0  0  0  0  0  0  0
   -3.8084    2.1919   -1.8596 H   0  0  0  0  0  0  0  0  0  0  0  0
   -3.9626    1.3991   -3.4368 H   0  0  0  0  0  0  0  0  0  0  0  0
   -0.6669   -0.1789   -0.5137 N   0  0  0  0  0  0  0  0  0  0  0  0
    0.4050    0.4851    0.2485 C   0  0  2  0  0  0  0  0  0  0  0  0
    0.9410    1.7573   -0.4417 C   0  0  0  0  0  0  0  0  0  0  0  0
    1.2648    2.7203    0.2395 O   0  0  0  0  0  0  0  0  0  0  0  0
    1.5543   -0.5096    0.4739 C   0  0  0  0  0  0  0  0  0  0  0  0
    1.1311   -1.6622    1.4053 C   0  0  0  0  0  0  0  0  0  0  0  0
    2.2634   -2.6514    1.6669 C   0  0  0  0  0  0  0  0  0  0  0  0
    3.2385   -2.7475    0.9456 O   0  0  0  0  0  0  0  0  0  0  0  0
    2.2412   -3.4889    2.7448 N   0  0  0  0  0  0  0  0  0  0  0  0
   -0.3303   -0.6840   -1.3345 H   0  0  0  0  0  0  0  0  0  0  0  0
    0.0105    0.7942    1.2238 H   0  0  0  0  0  0  0  0  0  0  0  0
    1.8910   -0.9111   -0.4891 H   0  0  0  0  0  0  0  0  0  0  0  0
    2.4036    0.0168    0.9254 H   0  0  0  0  0  0  0  0  0  0  0  0
    0.2934   -2.2109    0.9670 H   0  0  0  0  0  0  0  0  0  0  0  0
    0.7981   -1.2479    2.3608 H   0  0  0  0  0  0  0  0  0  0  0  0
    1.5682   -3.3220    3.4851 H   0  0  0  0  0  0  0  0  0  0  0  0
    3.1068   -3.9837    2.9403 H   0  0  0  0  0  0  0  0  0  0  0  0
    1.2138    1.7463   -1.8013 N   0  0  0  0  0  0  0  0  0  0  0  0
    1.7122    2.8652   -2.6263 C   0  0  2  0  0  0  0  0  0  0  0  0
    3.1790    3.2779   -2.3656 C   0  0  0  0  0  0  0  0  0  0  0  0
    3.9086    3.5270   -3.3169 O   0  0  0  0  0  0  0  0  0  0  0  0
    0.7799    4.0798   -2.5250 C   0  0  0  0  0  0  0  0  0  0  0  0
    0.9790    0.8809   -2.2950 H   0  0  0  0  0  0  0  0  0  0  0  0
    1.6807    2.5233   -3.6662 H   0  0  0  0  0  0  0  0  0  0  0  0
    0.8440    4.5466   -1.5378 H   0  0  0  0  0  0  0  0  0  0  0  0
    1.0582    4.8280   -3.2736 H   0  0  0  0  0  0  0  0  0  0  0  0
   -0.2571    3.7808   -2.7026 H   0  0  0  0  0  0  0  0  0  0  0  0
    3.6769    3.4041   -1.0844 N   0  0  0  0  0  0  0  0  0  0  0  0
    5.0245    3.8598   -0.7747 C   0  0  0  0  0  0  0  0  0  0  0  0
    3.0004    3.2775   -0.3268 H   0  0  0  0  0  0  0  0  0  0  0  0
    5.1899    3.8387    0.3065 H   0  0  0  0  0  0  0  0  0  0  0  0
    5.7670    3.2103   -1.2502 H   0  0  0  0  0  0  0  0  0  0  0  0
    5.1728    4.8849   -1.1295 H   0  0  0  0  0  0  0  0  0  0  0  0
  1  2  2  0  0  0  0
  1  3  1  0  0  0  0
  1  7  1  0  0  0  0
  3  4  1  0  0  0  0
  3  5  1  0  0  0  0
  3  6  1  0  0  0  0
  7  8  1  0  0  0  0
  7 12  1  0  0  0  0
  8  9  1  0  0  0  0
  8 11  1  0  0  0  0
  8 13  1  0  0  0  0
  9 10  2  0  0  0  0
  9 17  1  0  0  0  0
 11 14  1  0  0  0  0
 11 15  1  0  0  0  0
 11 16  1  0  0  0  0
 17 18  1  0  0  0  0
 17 26  1  0  0  0  0
 18 19  1  0  0  0  0
 18 21  1  0  0  0  0
 18 27  1  0  0  0  0
 19 20  2  0  0  0  0
 19 34  1  0  0  0  0
 21 22  1  0  0  0  0
 21 28  1  0  0  0  0
 21 29  1  0  0  0  0
 22 23  1  0  0  0  0
 22 30  1  0  0  0  0
 22 31  1  0  0  0  0
 23 24  2  0  0  0  0
 23 25  1  0  0  0  0
 25 32  1  0  0  0  0
 25 33  1  0  0  0  0
 34 35  1  0  0  0  0
 34 39  1  0  0  0  0
 35 36  1  0  0  0  0
 35 38  1  0  0  0  0
 35 40  1  0  0  0  0
 36 37  2  0  0  0  0
 36 44  1  0  0  0  0
 38 41  1  0  0  0  0
 38 42  1  0  0  0  0
 38 43  1  0  0  0  0
 44 45  1  0  0  0  0
 44 46  1  0  0  0  0
 45 47  1  0  0  0  0
 45 48  1  0  0  0  0
 45 49  1  0  0  0  0
M  END
$$$$

  -OEChem-02062319073D

 49 48  0     1  0  0  0  0  0999 V2000
   -3.1750   -1.6430   -4.1689 C   0  0  0  0  0  0  0  0  0  0  0  0
   -2.3807   -2.2928   -4.8299 O   0  0  0  0  0  0  0  0  0  0  0  0
   -4.6631   -1.9136   -4.2874 C   0  0  0  0  0  0  0  0  0  0  0  0
   -4.8523   -2.6401   -5.0826 H   0  0  0  0  0  0  0  0  0  0  0  0
   -5.0458   -2.3136   -3.3454 H   0  0  0  0  0  0  0  0  0  0  0  0
   -5.1937   -0.9884   -4.5248 H   0  0  0  0  0  0  0  0  0  0  0  0
   -2.7223   -0.6651   -3.3076 N   0  0  0  0  0  0  0  0  0  0  0  0
   -1.3079   -0.4454   -2.9752 C   0  0  2  0  0  0  0  0  0  0  0  0
   -1.0584   -0.6224   -1.4612 C   0  0  0  0  0  0  0  0  0  0  0  0
   -1.9403   -0.3026   -0.6749 O   0  0  0  0  0  0  0  0  0  0  0  0
   -0.9444    0.9604   -3.4558 C   0  0  0  0  0  0  0  0  0  0  0  0
   -3.4069   -0.2834   -2.6564 H   0  0  0  0  0  0  0  0  0  0  0  0
   -0.6728   -1.1683   -3.4977 H   0  0  0  0  0  0  0  0  0  0  0  0
   -1.4968    1.7147   -2.8864 H   0  0  0  0  0  0  0  0  0  0  0  0
    0.1266    1.1416   -3.3394 H   0  0  0  0  0  0  0  0  0  0  0  0
   -1.1938    1.0720   -4.5160 H   0  0  0  0  0  0  0  0  0  0  0  0
    0.2254   -0.7839   -0.9673 N   0  0  0  0  0  0  0  0  0  0  0  0
    0.7031   -0.0611    0.2296 C   0  0  2  0  0  0  0  0  0  0  0  0
    0.6788    1.4789    0.1231 C   0  0  0  0  0  0  0  0  0  0  0  0
    0.4248    2.1403    1.1198 O   0  0  0  0  0  0  0  0  0  0  0  0
    2.1245   -0.5392    0.5667 C   0  0  0  0  0  0  0  0  0  0  0  0
    2.1355   -2.0156    1.0126 C   0  0  0  0  0  0  0  0  0  0  0  0
    3.5408   -2.5231    1.3225 C   0  0  0  0  0  0  0  0  0  0  0  0
    4.5411   -1.9898    0.8812 O   0  0  0  0  0  0  0  0  0  0  0  0
    3.7463   -3.6181    2.1112 N   0  0  0  0  0  0  0  0  0  0  0  0
    0.9244   -1.0359   -1.6604 H   0  0  0  0  0  0  0  0  0  0  0  0
    0.0463   -0.3174    1.0695 H   0  0  0  0  0  0  0  0  0  0  0  0
    2.7773   -0.4039   -0.3029 H   0  0  0  0  0  0  0  0  0  0  0  0
    2.5309    0.0751    1.3792 H   0  0  0  0  0  0  0  0  0  0  0  0
    1.7109   -2.6518    0.2317 H   0  0  0  0  0  0  0  0  0  0  0  0
    1.5161   -2.1240    1.9073 H   0  0  0  0  0  0  0  0  0  0  0  0
    2.9749   -3.9947    2.6518 H   0  0  0  0  0  0  0  0  0  0  0  0
    4.7065   -3.7960    2.3918 H   0  0  0  0  0  0  0  0  0  0  0  0
    1.1446    2.1100   -1.0197 N   0  0  0  0  0  0  0  0  0  0  0  0
    1.2433    3.5660   -1.2585 C   0  0  2  0  0  0  0  0  0  0  0  0
    2.3513    4.2784   -0.4507 C   0  0  0  0  0  0  0  0  0  0  0  0
    3.1389    5.0112   -1.0340 O   0  0  0  0  0  0  0  0  0  0  0  0
   -0.1101    4.2643   -1.0564 C   0  0  0  0  0  0  0  0  0  0  0  0
    1.4778    1.4970   -1.7556 H   0  0  0  0  0  0  0  0  0  0  0  0
    1.5089    3.6958   -2.3125 H   0  0  0  0  0  0  0  0  0  0  0  0
   -0.3948    4.2853   -0.0004 H   0  0  0  0  0  0  0  0  0  0  0  0
   -0.0535    5.2983   -1.4109 H   0  0  0  0  0  0  0  0  0  0  0  0
   -0.8950    3.7492   -1.6174 H   0  0  0  0  0  0  0  0  0  0  0  0
    2.4728    4.0981    0.9122 N   0  0  0  0  0  0  0  0  0  0  0  0
    3.4675    4.7661    1.7400 C   0  0  0  0  0  0  0  0  0  0  0  0
    1.7631    3.5066    1.3534 H   0  0  0  0  0  0  0  0  0  0  0  0
    3.2827    5.8451    1.7637 H   0  0  0  0  0  0  0  0  0  0  0  0
    3.4231    4.3831    2.7642 H   0  0  0  0  0  0  0  0  0  0  0  0
    4.4752    4.5886    1.3492 H   0  0  0  0  0  0  0  0  0  0  0  0
  1  2  2  0  0  0  0
  1  3  1  0  0  0  0
  1  7  1  0  0  0  0
  3  4  1  0  0  0  0
  3  5  1  0  0  0  0
  3  6  1  0  0  0  0
  7  8  1  0  0  0  0
  7 12  1  0  0  0  0
  8  9  1  0  0  0  0
  8 11  1  0  0  0  0
  8 13  1  0  0  0  0
  9 10  2  0  0  0  0
  9 17  1  0  0  0  0
 11 14  1  0  0  0  0
 11 15  1  0  0  0  0
 11 16  1  0  0  0  0
 17 18  1  0  0  0  0
 17 26  1  0  0  0  0
 18 19  1  0  0  0  0
 18 21  1  0  0  0  0
 18 27  1  0  0  0  0
 19 20  2  0  0  0  0
 19 34  1  0  0  0  0
 21 22  1  0  0  0  0
 21 28  1  0  0  0  0
 21 29  1  0  0  0  0
 22 23  1  0  0  0  0
 22 30  1  0  0  0  0
 22 31  1  0  0  0  0
 23 24  2  0  0  0  0
 23 25  1  0  0  0  0
 25 32  1  0  0  0  0
 25 33  1  0  0  0  0
 34 35  1  0  0  0  0
 34 39  1  0  0  0  0
 35 36  1  0  0  0  0
 35 38  1  0  0  0  0
 35 40  1  0  0  0  0
 36 37  2  0  0  0  0
 36 44  1  0  0  0  0
 38 41  1  0  0  0  0
 38 42  1  0  0  0  0
 38 43  1  0  0  0  0
 44 45  1  0  0  0  0
 44 46  1  0  0  0  0
 45 47  1  0  0  0  0
 45 48  1  0  0  0  0
 45 49  1  0  0  0  0
M  END
$$$$

  -OEChem-02062319073D

 49 48  0     1  0  0  0  0  0999 V2000
   -3.0980   -1.4457   -4.2697 C   0  0  0  0  0  0  0  0  0  0  0  0
   -2.2967   -2.0371   -4.9757 O   0  0  0  0  0  0  0  0  0  0  0  0
   -4.5838   -1.7145   -4.4149 C   0  0  0  0  0  0  0  0  0  0  0  0
   -4.7609   -2.4201   -5.2315 H   0  0  0  0  0  0  0  0  0  0  0  0
   -4.9790   -2.1401   -3.4891 H   0  0  0  0  0  0  0  0  0  0  0  0
   -5.1115   -0.7832   -4.6345 H   0  0  0  0  0  0  0  0  0  0  0  0
   -2.6557   -0.5401   -3.3280 N   0  0  0  0  0  0  0  0  0  0  0  0
   -1.2462   -0.3648   -2.9520 C   0  0  2  0  0  0  0  0  0  0  0  0
   -1.0371   -0.5758   -1.4391 C   0  0  0  0  0  0  0  0  0  0  0  0
   -1.9559   -0.3493   -0.6629 O   0  0  0  0  0  0  0  0  0  0  0  0
   -0.8278    1.0495   -3.3634 C   0  0  0  0  0  0  0  0  0  0  0  0
   -3.3481   -0.2159   -2.6538 H   0  0  0  0  0  0  0  0  0  0  0  0
   -0.6132   -1.0894   -3.4749 H   0  0  0  0  0  0  0  0  0  0  0  0
   -1.4156    1.7968   -2.8202 H   0  0  0  0  0  0  0  0  0  0  0  0
    0.2318    1.2159   -3.1499 H   0  0  0  0  0  0  0  0  0  0  0  0
   -0.9887    1.1932   -4.4367 H   0  0  0  0  0  0  0  0  0  0  0  0
    0.2347   -0.7735   -0.9296 N   0  0  0  0  0  0  0  0  0  0  0  0
    0.6201   -0.3582    0.4325 C   0  0  2  0  0  0  0  0  0  0  0  0
    0.4709    1.1582    0.6798 C   0  0  0  0  0  0  0  0  0  0  0  0
    0.1254    1.5561    1.7836 O   0  0  0  0  0  0  0  0  0  0  0  0
    2.0645   -0.8019    0.7097 C   0  0  0  0  0  0  0  0  0  0  0  0
    2.1782   -2.3377    0.7921 C   0  0  0  0  0  0  0  0  0  0  0  0
    3.6110   -2.8067    1.0291 C   0  0  0  0  0  0  0  0  0  0  0  0
    4.5773   -2.1154    0.7686 O   0  0  0  0  0  0  0  0  0  0  0  0
    3.8822   -4.0443    1.5369 N   0  0  0  0  0  0  0  0  0  0  0  0
    0.9747   -0.9222   -1.6104 H   0  0  0  0  0  0  0  0  0  0  0  0
   -0.0421   -0.8566    1.1504 H   0  0  0  0  0  0  0  0  0  0  0  0
    2.7272   -0.4164   -0.0732 H   0  0  0  0  0  0  0  0  0  0  0  0
    2.3994   -0.3725    1.6616 H   0  0  0  0  0  0  0  0  0  0  0  0
    1.8213   -2.7955   -0.1341 H   0  0  0  0  0  0  0  0  0  0  0  0
    1.5488   -2.7003    1.6095 H   0  0  0  0  0  0  0  0  0  0  0  0
    3.1299   -4.5920    1.9409 H   0  0  0  0  0  0  0  0  0  0  0  0
    4.8466   -4.2164    1.8074 H   0  0  0  0  0  0  0  0  0  0  0  0
    0.9233    2.0586   -0.2724 N   0  0  0  0  0  0  0  0  0  0  0  0
    0.8322    3.5322   -0.2194 C   0  0  2  0  0  0  0  0  0  0  0  0
    1.7748    4.2075    0.8025 C   0  0  0  0  0  0  0  0  0  0  0  0
    2.5042    5.1177    0.4316 O   0  0  0  0  0  0  0  0  0  0  0  0
   -0.6198    3.9874   -0.0116 C   0  0  0  0  0  0  0  0  0  0  0  0
    1.2885    1.6475   -1.1243 H   0  0  0  0  0  0  0  0  0  0  0  0
    1.1415    3.9037   -1.2016 H   0  0  0  0  0  0  0  0  0  0  0  0
   -0.9703    3.7497    0.9972 H   0  0  0  0  0  0  0  0  0  0  0  0
   -0.6961    5.0704   -0.1509 H   0  0  0  0  0  0  0  0  0  0  0  0
   -1.2806    3.4978   -0.7332 H   0  0  0  0  0  0  0  0  0  0  0  0
    1.8094    3.8076    2.1228 N   0  0  0  0  0  0  0  0  0  0  0  0
    2.6608    4.4102    3.1385 C   0  0  0  0  0  0  0  0  0  0  0  0
    1.1795    3.0423    2.3795 H   0  0  0  0  0  0  0  0  0  0  0  0
    2.4254    5.4733    3.2534 H   0  0  0  0  0  0  0  0  0  0  0  0
    2.5052    3.9152    4.1018 H   0  0  0  0  0  0  0  0  0  0  0  0
    3.7155    4.3090    2.8628 H   0  0  0  0  0  0  0  0  0  0  0  0
  1  2  2  0  0  0  0
  1  3  1  0  0  0  0
  1  7  1  0  0  0  0
  3  4  1  0  0  0  0
  3  5  1  0  0  0  0
  3  6  1  0  0  0  0
  7  8  1  0  0  0  0
  7 12  1  0  0  0  0
  8  9  1  0  0  0  0
  8 11  1  0  0  0  0
  8 13  1  0  0  0  0
  9 10  2  0  0  0  0
  9 17  1  0  0  0  0
 11 14  1  0  0  0  0
 11 15  1  0  0  0  0
 11 16  1  0  0  0  0
 17 18  1  0  0  0  0
 17 26  1  0  0  0  0
 18 19  1  0  0  0  0
 18 21  1  0  0  0  0
 18 27  1  0  0  0  0
 19 20  2  0  0  0  0
 19 34  1  0  0  0  0
 21 22  1  0  0  0  0
 21 28  1  0  0  0  0
 21 29  1  0  0  0  0
 22 23  1  0  0  0  0
 22 30  1  0  0  0  0
 22 31  1  0  0  0  0
 23 24  2  0  0  0  0
 23 25  1  0  0  0  0
 25 32  1  0  0  0  0
 25 33  1  0  0  0  0
 34 35  1  0  0  0  0
 34 39  1  0  0  0  0
 35 36  1  0  0  0  0
 35 38  1  0  0  0  0
 35 40  1  0  0  0  0
 36 37  2  0  0  0  0
 36 44  1  0  0  0  0
 38 41  1  0  0  0  0
 38 42  1  0  0  0  0
 38 43  1  0  0  0  0
 44 45  1  0  0  0  0
 44 46  1  0  0  0  0
 45 47  1  0  0  0  0
 45 48  1  0  0  0  0
 45 49  1  0  0  0  0
M  END
$$$$

  -OEChem-02062319073D

 49 48  0     1  0  0  0  0  0999 V2000
   -3.0358   -1.3111   -4.3735 C   0  0  0  0  0  0  0  0  0  0  0  0
   -2.2127   -1.8058   -5.1271 O   0  0  0  0  0  0  0  0  0  0  0  0
   -4.5104   -1.6223   -4.5481 C   0  0  0  0  0  0  0  0  0  0  0  0
   -4.6569   -2.2877   -5.4037 H   0  0  0  0  0  0  0  0  0  0  0  0
   -4.8973   -2.1126   -3.6514 H   0  0  0  0  0  0  0  0  0  0  0  0
   -5.0695   -0.6994   -4.7205 H   0  0  0  0  0  0  0  0  0  0  0  0
   -2.6254   -0.4854   -3.3476 N   0  0  0  0  0  0  0  0  0  0  0  0
   -1.2230   -0.3035   -2.9483 C   0  0  2  0  0  0  0  0  0  0  0  0
   -1.0375   -0.5233   -1.4335 C   0  0  0  0  0  0  0  0  0  0  0  0
   -1.9861   -0.3762   -0.6745 O   0  0  0  0  0  0  0  0  0  0  0  0
   -0.8023    1.1150   -3.3423 C   0  0  0  0  0  0  0  0  0  0  0  0
   -3.3302   -0.2405   -2.6528 H   0  0  0  0  0  0  0  0  0  0  0  0
   -0.5799   -1.0239   -3.4648 H   0  0  0  0  0  0  0  0  0  0  0  0
   -1.4100    1.8561   -2.8126 H   0  0  0  0  0  0  0  0  0  0  0  0
    0.2501    1.2873   -3.0984 H   0  0  0  0  0  0  0  0  0  0  0  0
   -0.9343    1.2621   -4.4192 H   0  0  0  0  0  0  0  0  0  0  0  0
    0.2202   -0.7508   -0.9018 N   0  0  0  0  0  0  0  0  0  0  0  0
    0.5293   -0.6554    0.5375 C   0  0  2  0  0  0  0  0  0  0  0  0
    0.2572    0.7434    1.1314 C   0  0  0  0  0  0  0  0  0  0  0  0
   -0.1513    0.8397    2.2805 O   0  0  0  0  0  0  0  0  0  0  0  0
    1.9944   -1.0559    0.7709 C   0  0  0  0  0  0  0  0  0  0  0  0
    2.2213   -2.5581    0.5033 C   0  0  0  0  0  0  0  0  0  0  0  0
    3.6813   -2.9692    0.6756 C   0  0  0  0  0  0  0  0  0  0  0  0
    4.5991   -2.1786    0.5666 O   0  0  0  0  0  0  0  0  0  0  0  0
    4.0349   -4.2612    0.9399 N   0  0  0  0  0  0  0  0  0  0  0  0
    0.9872   -0.8661   -1.5591 H   0  0  0  0  0  0  0  0  0  0  0  0
   -0.1174   -1.3541    1.0815 H   0  0  0  0  0  0  0  0  0  0  0  0
    2.6478   -0.4538    0.1293 H   0  0  0  0  0  0  0  0  0  0  0  0
    2.2690   -0.8385    1.8100 H   0  0  0  0  0  0  0  0  0  0  0  0
    1.9171   -2.8133   -0.5149 H   0  0  0  0  0  0  0  0  0  0  0  0
    1.6064   -3.1421    1.1940 H   0  0  0  0  0  0  0  0  0  0  0  0
    3.3218   -4.9261    1.2204 H   0  0  0  0  0  0  0  0  0  0  0  0
    5.0089   -4.4189    1.1842 H   0  0  0  0  0  0  0  0  0  0  0  0
    0.6719    1.8722    0.4421 N   0  0  0  0  0  0  0  0  0  0  0  0
    0.4170    3.2810    0.8080 C   0  0  2  0  0  0  0  0  0  0  0  0
    1.2120    3.8067    2.0250 C   0  0  0  0  0  0  0  0  0  0  0  0
    1.7737    4.8915    1.9466 O   0  0  0  0  0  0  0  0  0  0  0  0
   -1.0853    3.5329    0.9941 C   0  0  0  0  0  0  0  0  0  0  0  0
    1.0489    1.6967   -0.4829 H   0  0  0  0  0  0  0  0  0  0  0  0
    0.7382    3.8907   -0.0428 H   0  0  0  0  0  0  0  0  0  0  0  0
   -1.4575    3.0506    1.9028 H   0  0  0  0  0  0  0  0  0  0  0  0
   -1.2769    4.6073    1.0766 H   0  0  0  0  0  0  0  0  0  0  0  0
   -1.6468    3.1445    0.1392 H   0  0  0  0  0  0  0  0  0  0  0  0
    1.2780    3.0959    3.2061 N   0  0  0  0  0  0  0  0  0  0  0  0
    1.9278    3.5820    4.4149 C   0  0  0  0  0  0  0  0  0  0  0  0
    0.7434    2.2232    3.2361 H   0  0  0  0  0  0  0  0  0  0  0  0
    1.4224    4.4799    4.7853 H   0  0  0  0  0  0  0  0  0  0  0  0
    1.8932    2.8160    5.1955 H   0  0  0  0  0  0  0  0  0  0  0  0
    2.9768    3.8242    4.2153 H   0  0  0  0  0  0  0  0  0  0  0  0
  1  2  2  0  0  0  0
  1  3  1  0  0  0  0
  1  7  1  0  0  0  0
  3  4  1  0  0  0  0
  3  5  1  0  0  0  0
  3  6  1  0  0  0  0
  7  8  1  0  0  0  0
  7 12  1  0  0  0  0
  8  9  1  0  0  0  0
  8 11  1  0  0  0  0
  8 13  1  0  0  0  0
  9 10  2  0  0  0  0
  9 17  1  0  0  0  0
 11 14  1  0  0  0  0
 11 15  1  0  0  0  0
 11 16  1  0  0  0  0
 17 18  1  0  0  0  0
 17 26  1  0  0  0  0
 18 19  1  0  0  0  0
 18 21  1  0  0  0  0
 18 27  1  0  0  0  0
 19 20  2  0  0  0  0
 19 34  1  0  0  0  0
 21 22  1  0  0  0  0
 21 28  1  0  0  0  0
 21 29  1  0  0  0  0
 22 23  1  0  0  0  0
 22 30  1  0  0  0  0
 22 31  1  0  0  0  0
 23 24  2  0  0  0  0
 23 25  1  0  0  0  0
 25 32  1  0  0  0  0
 25 33  1  0  0  0  0
 34 35  1  0  0  0  0
 34 39  1  0  0  0  0
 35 36  1  0  0  0  0
 35 38  1  0  0  0  0
 35 40  1  0  0  0  0
 36 37  2  0  0  0  0
 36 44  1  0  0  0  0
 38 41  1  0  0  0  0
 38 42  1  0  0  0  0
 38 43  1  0  0  0  0
 44 45  1  0  0  0  0
 44 46  1  0  0  0  0
 45 47  1  0  0  0  0
 45 48  1  0  0  0  0
 45 49  1  0  0  0  0
M  END
$$$$
