@<TRIPOS>MOLECULE
default_name
   34    33     1     0     0
SMALL
No Charge or Current Charge


@<TRIPOS>ATOM
      1 H1          26.1410    25.2080    24.5910 H          1 ACE       0.112300
      2 CH3         26.1200    26.2110    24.1670 C.3        1 ACE      -0.366200
      3 H2          25.4300    26.8310    24.7370 H          1 ACE       0.112300
      4 H3          25.8000    26.1590    23.1280 H          1 ACE       0.112300
      5 C           27.5080    26.8040    24.2400 C.2        1 ACE       0.597200
      6 O           28.4310    26.1600    24.7230 O.2        1 ACE      -0.567900
      7 N           27.6650    28.0380    23.7540 N.am       2 LYS      -0.347900
      8 H           26.8560    28.5020    23.3640 H          2 LYS       0.274700
      9 CA          28.9390    28.7750    23.7590 C.3        2 LYS      -0.240000
     10 HA          29.4850    28.5090    24.6660 H          2 LYS       0.142600
     11 CB          29.7640    28.3350    22.5350 C.3        2 LYS      -0.009400
     12 HB2         29.8460    27.2470    22.5440 H          2 LYS       0.036200
     13 HB3         29.2390    28.6290    21.6240 H          2 LYS       0.036200
     14 CG          31.1820    28.9260    22.5150 C.3        2 LYS       0.018700
     15 HG2         31.1260    30.0130    22.4430 H          2 LYS       0.010300
     16 HG3         31.6970    28.6560    23.4390 H          2 LYS       0.010300
     17 CD          31.9710    28.3820    21.3160 C.3        2 LYS      -0.047900
     18 HD2         32.0220    27.2930    21.3890 H          2 LYS       0.062100
     19 HD3         31.4510    28.6530    20.3950 H          2 LYS       0.062100
     20 CE          33.3900    28.9640    21.3000 C.3        2 LYS      -0.014300
     21 HE2         33.3170    30.0550    21.2440 H          2 LYS       0.113500
     22 HE3         33.8810    28.7090    22.2440 H          2 LYS       0.113500
     23 NZ          34.1800    28.4450    20.1550 N.4        2 LYS      -0.385400
     24 HZ1         33.7360    28.6870    19.2780 H          2 LYS       0.340000
     25 HZ2         35.1130    28.8380    20.1590 H          2 LYS       0.340000
     26 HZ3         34.2580    27.4360    20.2070 H          2 LYS       0.340000
     27 C           28.6840    30.2840    23.7630 C.2        2 LYS       0.734100
     28 O           27.9380    30.7750    22.9240 O.2        2 LYS      -0.589400
     29 N           29.3290    31.0100    24.6820 N.am       3 NME      -0.415700
     30 H           29.8980    30.5210    25.3530 H          3 NME       0.271900
     31 CH3         29.1940    32.4610    24.8230 C.3        3 NME      -0.149000
     32 HH31        28.1600    32.7130    25.0680 H          3 NME       0.097600
     33 HH32        29.8460    32.8290    25.6160 H          3 NME       0.097600
     34 HH33        29.4550    32.9540    23.8840 H          3 NME       0.097600
@<TRIPOS>BOND
     1     5     6 2   
     2     5     7 am  
     3     2     3 1   
     4     2     4 1   
     5     2     5 1   
     6     1     2 1   
     7    27    28 2   
     8    27    29 am  
     9    23    24 1   
    10    23    25 1   
    11    23    26 1   
    12    20    21 1   
    13    20    22 1   
    14    20    23 1   
    15    17    18 1   
    16    17    19 1   
    17    17    20 1   
    18    14    15 1   
    19    14    16 1   
    20    14    17 1   
    21    11    12 1   
    22    11    13 1   
    23    11    14 1   
    24     9    10 1   
    25     9    11 1   
    26     9    27 1   
    27     7     8 1   
    28     7     9 1   
    29    31    32 1   
    30    31    33 1   
    31    31    34 1   
    32    29    30 1   
    33    29    31 1   
@<TRIPOS>SUBSTRUCTURE
     1 ACE         1 TEMP              0 ****  ****    0 ROOT
