selected_4mers/AAAE/205_noH.pdb
 OpenBabel03042517503D

 57 56  0  0  1  0  0  0  0  0999 V2000
    6.8410   33.5770   16.2840 C   0  0  0  0  0  0  0  0  0  0  0  0
    6.9780   33.0450   17.7130 C   0  0  0  0  0  0  0  0  0  0  0  0
    5.9880   32.8970   18.4130 O   0  0  0  0  0  0  0  0  0  0  0  0
    8.2150   32.7650   18.1460 N   0  0  0  0  0  0  0  0  0  0  0  0
    8.4220   32.2210   19.4860 C   0  0  2  0  0  0  0  0  0  0  0  0
    8.0240   33.2380   20.5360 C   0  0  0  0  0  0  0  0  0  0  0  0
    7.4010   32.8980   21.5520 O   0  0  0  0  0  0  0  0  0  0  0  0
    9.9080   31.8190   19.6510 C   0  0  0  0  0  0  0  0  0  0  0  0
    8.3750   34.5080   20.3150 N   0  0  0  0  0  0  0  0  0  0  0  0
    8.0310   35.5210   21.3050 C   0  0  2  0  0  0  0  0  0  0  0  0
    6.5020   35.5920   21.4330 C   0  0  0  0  0  0  0  0  0  0  0  0
    5.9590   35.6370   22.5370 O   0  0  0  0  0  0  0  0  0  0  0  0
    8.5890   36.8480   20.9040 C   0  0  0  0  0  0  0  0  0  0  0  0
    5.8050   35.6080   20.3000 N   0  0  0  0  0  0  0  0  0  0  0  0
    4.3350   35.6890   20.3210 C   0  0  2  0  0  0  0  0  0  0  0  0
    3.7320   34.4550   21.0280 C   0  0  0  0  0  0  0  0  0  0  0  0
    2.7900   34.5760   21.8050 O   0  0  0  0  0  0  0  0  0  0  0  0
    3.8100   35.8260   18.8940 C   0  0  0  0  0  0  0  0  0  0  0  0
    4.2980   33.2730   20.7770 N   0  0  0  0  0  0  0  0  0  0  0  0
    3.8230   32.0310   21.3670 C   0  0  2  0  0  0  0  0  0  0  0  0
    4.0310   32.0810   22.8880 C   0  0  0  0  0  0  0  0  0  0  0  0
    3.1720   31.6610   23.6720 O   0  0  0  0  0  0  0  0  0  0  0  0
    4.5990   30.8660   20.7340 C   0  0  0  0  0  0  0  0  0  0  0  0
    4.1200   29.4940   21.1160 C   0  0  0  0  0  0  0  0  0  0  0  0
    2.8320   29.1220   20.4910 C   0  0  0  0  0  0  0  0  0  0  0  0
    2.1520   30.0070   19.9200 O   0  0  0  0  0  0  0  0  0  0  0  0
    2.4900   27.9240   20.5680 O   0  0  0  0  0  0  0  0  0  0  0  0
    5.1790   32.6290   23.2940 N   0  0  0  0  0  0  0  0  0  0  0  0
    5.4870   32.7800   24.7200 C   0  0  0  0  0  0  0  0  0  0  0  0
    7.8088   33.6377   15.8317 H   0  0  0  0  0  0  0  0  0  0  0  0
    6.3963   34.5499   16.3067 H   0  0  0  0  0  0  0  0  0  0  0  0
    6.2222   32.9152   15.7148 H   0  0  0  0  0  0  0  0  0  0  0  0
    8.9880   32.9267   17.5582 H   0  0  0  0  0  0  0  0  0  0  0  0
    7.8080   31.3544   19.6160 H   0  0  0  0  0  0  0  0  0  0  0  0
   10.5274   32.6819   19.5221 H   0  0  0  0  0  0  0  0  0  0  0  0
   10.1625   31.0843   18.9159 H   0  0  0  0  0  0  0  0  0  0  0  0
   10.0612   31.4129   20.6290 H   0  0  0  0  0  0  0  0  0  0  0  0
    8.8594   34.7563   19.4947 H   0  0  0  0  0  0  0  0  0  0  0  0
    8.4541   35.2588   22.2522 H   0  0  0  0  0  0  0  0  0  0  0  0
    8.1812   37.1350   19.9573 H   0  0  0  0  0  0  0  0  0  0  0  0
    9.6540   36.7787   20.8274 H   0  0  0  0  0  0  0  0  0  0  0  0
    8.3313   37.5805   21.6402 H   0  0  0  0  0  0  0  0  0  0  0  0
    6.2776   35.5652   19.4374 H   0  0  0  0  0  0  0  0  0  0  0  0
    4.0363   36.5532   20.8767 H   0  0  0  0  0  0  0  0  0  0  0  0
    4.1002   34.9687   18.3233 H   0  0  0  0  0  0  0  0  0  0  0  0
    4.2192   36.7076   18.4465 H   0  0  0  0  0  0  0  0  0  0  0  0
    2.7426   35.8978   18.9120 H   0  0  0  0  0  0  0  0  0  0  0  0
    5.0698   33.2400   20.1667 H   0  0  0  0  0  0  0  0  0  0  0  0
    2.7785   31.8928   21.1805 H   0  0  0  0  0  0  0  0  0  0  0  0
    4.5246   30.9581   19.6706 H   0  0  0  0  0  0  0  0  0  0  0  0
    5.6010   30.9430   21.1014 H   0  0  0  0  0  0  0  0  0  0  0  0
    4.8599   28.7816   20.8162 H   0  0  0  0  0  0  0  0  0  0  0  0
    3.9656   29.4987   22.1748 H   0  0  0  0  0  0  0  0  0  0  0  0
    5.8308   32.9374   22.6237 H   0  0  0  0  0  0  0  0  0  0  0  0
    4.6761   32.3955   25.3027 H   0  0  0  0  0  0  0  0  0  0  0  0
    5.6291   33.8161   24.9464 H   0  0  0  0  0  0  0  0  0  0  0  0
    6.3805   32.2386   24.9512 H   0  0  0  0  0  0  0  0  0  0  0  0
  1  2  1  0  0  0  0
  1 30  1  0  0  0  0
  1 31  1  0  0  0  0
  1 32  1  0  0  0  0
  2  4  1  0  0  0  0
  2  3  2  0  0  0  0
  4  5  1  0  0  0  0
  4 33  1  0  0  0  0
  5  8  1  0  0  0  0
  5  6  1  0  0  0  0
  5 34  1  1  0  0  0
  6  7  2  0  0  0  0
  8 35  1  0  0  0  0
  8 36  1  0  0  0  0
  8 37  1  0  0  0  0
  9  6  1  0  0  0  0
  9 10  1  0  0  0  0
  9 38  1  0  0  0  0
 10 11  1  0  0  0  0
 10 39  1  1  0  0  0
 11 12  2  0  0  0  0
 13 10  1  0  0  0  0
 13 40  1  0  0  0  0
 13 41  1  0  0  0  0
 13 42  1  0  0  0  0
 14 15  1  0  0  0  0
 14 11  1  0  0  0  0
 14 43  1  0  0  0  0
 15 16  1  0  0  0  0
 15 44  1  1  0  0  0
 16 17  2  0  0  0  0
 18 15  1  0  0  0  0
 18 45  1  0  0  0  0
 18 46  1  0  0  0  0
 18 47  1  0  0  0  0
 19 16  1  0  0  0  0
 19 20  1  0  0  0  0
 19 48  1  0  0  0  0
 20 21  1  0  0  0  0
 20 49  1  6  0  0  0
 21 28  1  0  0  0  0
 21 22  2  0  0  0  0
 23 24  1  0  0  0  0
 23 20  1  0  0  0  0
 23 50  1  0  0  0  0
 23 51  1  0  0  0  0
 24 52  1  0  0  0  0
 24 53  1  0  0  0  0
 25 27  1  0  0  0  0
 25 24  1  0  0  0  0
 26 25  2  0  0  0  0
 28 29  1  0  0  0  0
 28 54  1  0  0  0  0
 29 55  1  0  0  0  0
 29 56  1  0  0  0  0
 29 57  1  0  0  0  0
M  CHG  1  27  -1
M  END
>  <MODEL>
       0

$$$$
selected_4mers/AAAE/206_noH.pdb
 OpenBabel03042517503D

 57 56  0  0  1  0  0  0  0  0999 V2000
   50.7450   32.1220    6.7720 C   0  0  0  0  0  0  0  0  0  0  0  0
   50.8940   31.4320    5.3960 C   0  0  0  0  0  0  0  0  0  0  0  0
   50.7690   30.2000    5.3290 O   0  0  0  0  0  0  0  0  0  0  0  0
   51.1490   32.1240    4.3310 N   0  0  0  0  0  0  0  0  0  0  0  0
   51.3990   31.4020    3.0870 C   0  0  2  0  0  0  0  0  0  0  0  0
   52.4550   30.2950    3.0810 C   0  0  0  0  0  0  0  0  0  0  0  0
   52.3660   29.3440    2.3070 O   0  0  0  0  0  0  0  0  0  0  0  0
   51.7070   32.4190    1.9900 C   0  0  0  0  0  0  0  0  0  0  0  0
   53.4450   30.4060    3.9580 N   0  0  0  0  0  0  0  0  0  0  0  0
   54.5250   29.4240    3.9970 C   0  0  2  0  0  0  0  0  0  0  0  0
   54.2430   28.1250    4.7400 C   0  0  0  0  0  0  0  0  0  0  0  0
   54.7280   27.0610    4.3420 O   0  0  0  0  0  0  0  0  0  0  0  0
   55.7810   30.0700    4.5710 C   0  0  0  0  0  0  0  0  0  0  0  0
   53.4620   28.1920    5.8100 N   0  0  0  0  0  0  0  0  0  0  0  0
   53.2250   26.9870    6.5800 C   0  0  2  0  0  0  0  0  0  0  0  0
   52.0660   27.0880    7.5470 C   0  0  0  0  0  0  0  0  0  0  0  0
   51.3980   28.1130    7.6330 O   0  0  0  0  0  0  0  0  0  0  0  0
   54.4950   26.6250    7.3440 C   0  0  0  0  0  0  0  0  0  0  0  0
   51.8450   25.9940    8.2690 N   0  0  0  0  0  0  0  0  0  0  0  0
   50.7870   25.8980    9.2620 C   0  0  2  0  0  0  0  0  0  0  0  0
   51.3740   26.0660   10.6630 C   0  0  0  0  0  0  0  0  0  0  0  0
   52.5900   26.1300   10.8320 O   0  0  0  0  0  0  0  0  0  0  0  0
   50.0920   24.5370    9.1540 C   0  0  0  0  0  0  0  0  0  0  0  0
   49.4590   24.2570    7.7840 C   0  0  0  0  0  0  0  0  0  0  0  0
   48.5180   25.3570    7.3380 C   0  0  0  0  0  0  0  0  0  0  0  0
   47.7410   25.8490    8.1800 O   0  0  0  0  0  0  0  0  0  0  0  0
   48.5470   25.7230    6.1450 O   0  0  0  0  0  0  0  0  0  0  0  0
   50.5000   26.1220   11.6640 N   0  0  0  0  0  0  0  0  0  0  0  0
   50.9430   26.2980   13.0360 C   0  0  0  0  0  0  0  0  0  0  0  0
   50.8801   33.1773    6.6583 H   0  0  0  0  0  0  0  0  0  0  0  0
   51.4830   31.7384    7.4451 H   0  0  0  0  0  0  0  0  0  0  0  0
   49.7688   31.9276    7.1646 H   0  0  0  0  0  0  0  0  0  0  0  0
   51.1735   33.1078    4.3597 H   0  0  0  0  0  0  0  0  0  0  0  0
   50.4947   30.8538    2.9240 H   0  0  0  0  0  0  0  0  0  0  0  0
   52.6208   32.9259    2.2200 H   0  0  0  0  0  0  0  0  0  0  0  0
   50.9100   33.1304    1.9292 H   0  0  0  0  0  0  0  0  0  0  0  0
   51.8060   31.9132    1.0523 H   0  0  0  0  0  0  0  0  0  0  0  0
   53.4513   31.1604    4.5906 H   0  0  0  0  0  0  0  0  0  0  0  0
   54.6480   29.1277    2.9762 H   0  0  0  0  0  0  0  0  0  0  0  0
   55.6060   30.3468    5.5896 H   0  0  0  0  0  0  0  0  0  0  0  0
   56.0257   30.9421    4.0014 H   0  0  0  0  0  0  0  0  0  0  0  0
   56.5928   29.3745    4.5248 H   0  0  0  0  0  0  0  0  0  0  0  0
   53.0503   29.0456    6.0767 H   0  0  0  0  0  0  0  0  0  0  0  0
   52.9599   26.2246    5.8776 H   0  0  0  0  0  0  0  0  0  0  0  0
   54.7303   27.4069    8.0355 H   0  0  0  0  0  0  0  0  0  0  0  0
   55.3039   26.5036    6.6541 H   0  0  0  0  0  0  0  0  0  0  0  0
   54.3415   25.7107    7.8781 H   0  0  0  0  0  0  0  0  0  0  0  0
   52.4250   25.2117    8.1246 H   0  0  0  0  0  0  0  0  0  0  0  0
   50.0711   26.6731    9.0843 H   0  0  0  0  0  0  0  0  0  0  0  0
   50.8165   23.7744    9.3504 H   0  0  0  0  0  0  0  0  0  0  0  0
   49.2923   24.5445    9.8649 H   0  0  0  0  0  0  0  0  0  0  0  0
   50.2404   24.1605    7.0594 H   0  0  0  0  0  0  0  0  0  0  0  0
   48.8860   23.3576    7.8709 H   0  0  0  0  0  0  0  0  0  0  0  0
   49.5377   26.0429   11.4720 H   0  0  0  0  0  0  0  0  0  0  0  0
   52.0106   26.3652   13.0602 H   0  0  0  0  0  0  0  0  0  0  0  0
   50.6248   25.4623   13.6235 H   0  0  0  0  0  0  0  0  0  0  0  0
   50.5199   27.1962   13.4350 H   0  0  0  0  0  0  0  0  0  0  0  0
  1  2  1  0  0  0  0
  1 30  1  0  0  0  0
  1 31  1  0  0  0  0
  1 32  1  0  0  0  0
  2  4  1  0  0  0  0
  2  3  2  0  0  0  0
  4  5  1  0  0  0  0
  4 33  1  0  0  0  0
  5  8  1  0  0  0  0
  5  6  1  0  0  0  0
  5 34  1  1  0  0  0
  6  7  2  0  0  0  0
  8 35  1  0  0  0  0
  8 36  1  0  0  0  0
  8 37  1  0  0  0  0
  9  6  1  0  0  0  0
  9 10  1  0  0  0  0
  9 38  1  0  0  0  0
 10 11  1  0  0  0  0
 10 39  1  1  0  0  0
 11 12  2  0  0  0  0
 13 10  1  0  0  0  0
 13 40  1  0  0  0  0
 13 41  1  0  0  0  0
 13 42  1  0  0  0  0
 14 15  1  0  0  0  0
 14 11  1  0  0  0  0
 14 43  1  0  0  0  0
 15 16  1  0  0  0  0
 15 44  1  1  0  0  0
 16 17  2  0  0  0  0
 18 15  1  0  0  0  0
 18 45  1  0  0  0  0
 18 46  1  0  0  0  0
 18 47  1  0  0  0  0
 19 16  1  0  0  0  0
 19 20  1  0  0  0  0
 19 48  1  0  0  0  0
 20 21  1  0  0  0  0
 20 49  1  6  0  0  0
 21 28  1  0  0  0  0
 21 22  2  0  0  0  0
 23 24  1  0  0  0  0
 23 20  1  0  0  0  0
 23 50  1  0  0  0  0
 23 51  1  0  0  0  0
 24 52  1  0  0  0  0
 24 53  1  0  0  0  0
 25 27  1  0  0  0  0
 25 24  1  0  0  0  0
 26 25  2  0  0  0  0
 28 29  1  0  0  0  0
 28 54  1  0  0  0  0
 29 55  1  0  0  0  0
 29 56  1  0  0  0  0
 29 57  1  0  0  0  0
M  CHG  1  27  -1
M  END
>  <MODEL>
       0

$$$$
selected_4mers/AAAE/207_noH.pdb
 OpenBabel03042517503D

 57 56  0  0  1  0  0  0  0  0999 V2000
   -6.0020   -6.4460   36.7300 C   0  0  0  0  0  0  0  0  0  0  0  0
   -5.6040   -7.5670   35.7990 C   0  0  0  0  0  0  0  0  0  0  0  0
   -5.1370   -8.6560   36.2350 O   0  0  0  0  0  0  0  0  0  0  0  0
   -5.7970   -7.3980   34.4900 N   0  0  0  0  0  0  0  0  0  0  0  0
   -5.4280   -8.4870   33.5510 C   0  0  2  0  0  0  0  0  0  0  0  0
   -3.9490   -8.8880   33.6040 C   0  0  0  0  0  0  0  0  0  0  0  0
   -3.6380  -10.0440   33.2130 O   0  0  0  0  0  0  0  0  0  0  0  0
   -5.7200   -8.0280   32.0480 C   0  0  0  0  0  0  0  0  0  0  0  0
   -3.0990   -8.0000   34.1010 N   0  0  0  0  0  0  0  0  0  0  0  0
   -1.6980   -8.3700   34.2020 C   0  0  2  0  0  0  0  0  0  0  0  0
   -1.4760   -9.5660   35.1420 C   0  0  0  0  0  0  0  0  0  0  0  0
   -0.4580  -10.1990   35.0980 O   0  0  0  0  0  0  0  0  0  0  0  0
   -0.8040   -7.1870   34.6850 C   0  0  0  0  0  0  0  0  0  0  0  0
   -2.4270   -9.8290   36.0480 N   0  0  0  0  0  0  0  0  0  0  0  0
   -2.3070  -11.0240   36.9390 C   0  0  2  0  0  0  0  0  0  0  0  0
   -2.6980  -12.2600   36.1810 C   0  0  0  0  0  0  0  0  0  0  0  0
   -3.8340  -12.6240   36.1490 O   0  0  0  0  0  0  0  0  0  0  0  0
   -3.2470  -10.8040   38.2240 C   0  0  0  0  0  0  0  0  0  0  0  0
   -1.7070  -12.9070   35.5780 N   0  0  0  0  0  0  0  0  0  0  0  0
   -2.0310  -14.1220   34.8020 C   0  0  2  0  0  0  0  0  0  0  0  0
   -1.9110  -15.4160   35.6220 C   0  0  0  0  0  0  0  0  0  0  0  0
   -2.5490  -16.4420   35.1970 O   0  0  0  0  0  0  0  0  0  0  0  0
   -1.0660  -14.2430   33.6260 C   0  0  0  0  0  0  0  0  0  0  0  0
   -1.2060  -13.1190   32.6310 C   0  0  0  0  0  0  0  0  0  0  0  0
   -0.4810  -13.3490   31.3600 C   0  0  0  0  0  0  0  0  0  0  0  0
   -0.1580  -14.5340   31.0450 O   0  0  0  0  0  0  0  0  0  0  0  0
   -0.3550  -12.3890   30.5940 O   0  0  0  0  0  0  0  0  0  0  0  0
   -1.2160  -15.3840   36.7820 N   0  0  0  0  0  0  0  0  0  0  0  0
   -1.0400  -16.5940   37.5900 C   0  0  0  0  0  0  0  0  0  0  0  0
   -6.3705   -5.6206   36.1574 H   0  0  0  0  0  0  0  0  0  0  0  0
   -5.1502   -6.1343   37.2976 H   0  0  0  0  0  0  0  0  0  0  0  0
   -6.7673   -6.7890   37.3945 H   0  0  0  0  0  0  0  0  0  0  0  0
   -6.1810   -6.5579   34.1494 H   0  0  0  0  0  0  0  0  0  0  0  0
   -6.0180   -9.3269   33.8532 H   0  0  0  0  0  0  0  0  0  0  0  0
   -5.1028   -7.1883   31.8052 H   0  0  0  0  0  0  0  0  0  0  0  0
   -6.7497   -7.7532   31.9526 H   0  0  0  0  0  0  0  0  0  0  0  0
   -5.5029   -8.8352   31.3800 H   0  0  0  0  0  0  0  0  0  0  0  0
   -3.4094   -7.1128   34.3940 H   0  0  0  0  0  0  0  0  0  0  0  0
   -1.4101   -8.6445   33.2087 H   0  0  0  0  0  0  0  0  0  0  0  0
   -1.0876   -6.9081   35.6783 H   0  0  0  0  0  0  0  0  0  0  0  0
   -0.9333   -6.3514   34.0293 H   0  0  0  0  0  0  0  0  0  0  0  0
    0.2222   -7.4898   34.6788 H   0  0  0  0  0  0  0  0  0  0  0  0
   -3.2072   -9.2338   36.1275 H   0  0  0  0  0  0  0  0  0  0  0  0
   -1.2963  -11.1473   37.2678 H   0  0  0  0  0  0  0  0  0  0  0  0
   -4.2613  -10.6794   37.9068 H   0  0  0  0  0  0  0  0  0  0  0  0
   -2.9289   -9.9301   38.7532 H   0  0  0  0  0  0  0  0  0  0  0  0
   -3.1766  -11.6560   38.8675 H   0  0  0  0  0  0  0  0  0  0  0  0
   -0.7792  -12.5849   35.6464 H   0  0  0  0  0  0  0  0  0  0  0  0
   -3.0478  -14.0136   34.4868 H   0  0  0  0  0  0  0  0  0  0  0  0
   -0.0652  -14.2406   34.0045 H   0  0  0  0  0  0  0  0  0  0  0  0
   -1.2974  -15.1539   33.1145 H   0  0  0  0  0  0  0  0  0  0  0  0
   -2.2450  -12.9936   32.4083 H   0  0  0  0  0  0  0  0  0  0  0  0
   -0.7748  -12.2496   33.0817 H   0  0  0  0  0  0  0  0  0  0  0  0
   -0.8224  -14.5351   37.0881 H   0  0  0  0  0  0  0  0  0  0  0  0
   -1.5291  -17.4167   37.1115 H   0  0  0  0  0  0  0  0  0  0  0  0
   -1.4661  -16.4406   38.5594 H   0  0  0  0  0  0  0  0  0  0  0  0
    0.0037  -16.8081   37.6890 H   0  0  0  0  0  0  0  0  0  0  0  0
  1  2  1  0  0  0  0
  1 30  1  0  0  0  0
  1 31  1  0  0  0  0
  1 32  1  0  0  0  0
  2  4  1  0  0  0  0
  2  3  2  0  0  0  0
  4  5  1  0  0  0  0
  4 33  1  0  0  0  0
  5  8  1  0  0  0  0
  5  6  1  0  0  0  0
  5 34  1  1  0  0  0
  6  7  2  0  0  0  0
  8 35  1  0  0  0  0
  8 36  1  0  0  0  0
  8 37  1  0  0  0  0
  9  6  1  0  0  0  0
  9 10  1  0  0  0  0
  9 38  1  0  0  0  0
 10 11  1  0  0  0  0
 10 39  1  1  0  0  0
 11 12  2  0  0  0  0
 13 10  1  0  0  0  0
 13 40  1  0  0  0  0
 13 41  1  0  0  0  0
 13 42  1  0  0  0  0
 14 15  1  0  0  0  0
 14 11  1  0  0  0  0
 14 43  1  0  0  0  0
 15 16  1  0  0  0  0
 15 44  1  1  0  0  0
 16 17  2  0  0  0  0
 18 15  1  0  0  0  0
 18 45  1  0  0  0  0
 18 46  1  0  0  0  0
 18 47  1  0  0  0  0
 19 16  1  0  0  0  0
 19 20  1  0  0  0  0
 19 48  1  0  0  0  0
 20 21  1  0  0  0  0
 20 49  1  6  0  0  0
 21 28  1  0  0  0  0
 21 22  2  0  0  0  0
 23 24  1  0  0  0  0
 23 20  1  0  0  0  0
 23 50  1  0  0  0  0
 23 51  1  0  0  0  0
 24 52  1  0  0  0  0
 24 53  1  0  0  0  0
 25 27  1  0  0  0  0
 25 24  1  0  0  0  0
 26 25  2  0  0  0  0
 28 29  1  0  0  0  0
 28 54  1  0  0  0  0
 29 55  1  0  0  0  0
 29 56  1  0  0  0  0
 29 57  1  0  0  0  0
M  CHG  1  27  -1
M  END
>  <MODEL>
       0

$$$$
selected_4mers/AAAE/208_noH.pdb
 OpenBabel03042517503D

 57 56  0  0  1  0  0  0  0  0999 V2000
    6.6480   76.1990   33.7490 C   0  0  0  0  0  0  0  0  0  0  0  0
    5.6490   76.9000   34.6660 C   0  0  0  0  0  0  0  0  0  0  0  0
    5.6410   76.6250   35.8680 O   0  0  0  0  0  0  0  0  0  0  0  0
    4.8220   77.7970   34.1040 N   0  0  0  0  0  0  0  0  0  0  0  0
    3.9040   78.6400   34.8870 C   0  0  2  0  0  0  0  0  0  0  0  0
    2.4420   78.5360   34.4150 C   0  0  0  0  0  0  0  0  0  0  0  0
    2.1680   78.3300   33.2370 O   0  0  0  0  0  0  0  0  0  0  0  0
    4.3560   80.1390   34.8450 C   0  0  0  0  0  0  0  0  0  0  0  0
    1.5130   78.7100   35.3490 N   0  0  0  0  0  0  0  0  0  0  0  0
    0.0840   78.7180   35.0380 C   0  0  2  0  0  0  0  0  0  0  0  0
   -0.3010   80.0470   34.3910 C   0  0  0  0  0  0  0  0  0  0  0  0
   -0.1200   81.1160   34.9920 O   0  0  0  0  0  0  0  0  0  0  0  0
   -0.7110   78.5420   36.3200 C   0  0  0  0  0  0  0  0  0  0  0  0
   -0.8670   79.9820   33.1920 N   0  0  0  0  0  0  0  0  0  0  0  0
   -1.2060   81.2000   32.4250 C   0  0  2  0  0  0  0  0  0  0  0  0
   -2.1390   82.1320   33.1830 C   0  0  0  0  0  0  0  0  0  0  0  0
   -1.9070   83.3650   33.2300 O   0  0  0  0  0  0  0  0  0  0  0  0
   -1.8170   80.8020   31.0500 C   0  0  0  0  0  0  0  0  0  0  0  0
   -3.1530   81.5610   33.8320 N   0  0  0  0  0  0  0  0  0  0  0  0
   -4.1970   82.3580   34.4980 C   0  0  2  0  0  0  0  0  0  0  0  0
   -3.8150   82.9420   35.8560 C   0  0  0  0  0  0  0  0  0  0  0  0
   -4.4120   83.9330   36.2800 O   0  0  0  0  0  0  0  0  0  0  0  0
   -5.4720   81.5300   34.6800 C   0  0  0  0  0  0  0  0  0  0  0  0
   -6.0760   81.0210   33.3610 C   0  0  0  0  0  0  0  0  0  0  0  0
   -5.5950   79.6370   32.9480 C   0  0  0  0  0  0  0  0  0  0  0  0
   -4.4260   79.2710   33.2500 O   0  0  0  0  0  0  0  0  0  0  0  0
   -6.3890   78.9190   32.2830 O   0  0  0  0  0  0  0  0  0  0  0  0
   -2.8400   82.3630   36.5400 N   0  0  0  0  0  0  0  0  0  0  0  0
   -2.6650   82.6270   37.9500 C   0  0  0  0  0  0  0  0  0  0  0  0
    6.5204   76.5515   32.7468 H   0  0  0  0  0  0  0  0  0  0  0  0
    6.4800   75.1427   33.7797 H   0  0  0  0  0  0  0  0  0  0  0  0
    7.6438   76.4115   34.0777 H   0  0  0  0  0  0  0  0  0  0  0  0
    4.8303   77.8950   33.1244 H   0  0  0  0  0  0  0  0  0  0  0  0
    3.9471   78.2724   35.8910 H   0  0  0  0  0  0  0  0  0  0  0  0
    4.3096   80.4974   33.8379 H   0  0  0  0  0  0  0  0  0  0  0  0
    5.3600   80.2190   35.2061 H   0  0  0  0  0  0  0  0  0  0  0  0
    3.7072   80.7246   35.4623 H   0  0  0  0  0  0  0  0  0  0  0  0
    1.7966   78.8380   36.2830 H   0  0  0  0  0  0  0  0  0  0  0  0
   -0.1315   77.9177   34.3612 H   0  0  0  0  0  0  0  0  0  0  0  0
   -0.4894   79.3461   36.9903 H   0  0  0  0  0  0  0  0  0  0  0  0
   -0.4468   77.6121   36.7787 H   0  0  0  0  0  0  0  0  0  0  0  0
   -1.7569   78.5438   36.0942 H   0  0  0  0  0  0  0  0  0  0  0  0
   -1.0663   79.0997   32.8032 H   0  0  0  0  0  0  0  0  0  0  0  0
   -0.2986   81.7452   32.2690 H   0  0  0  0  0  0  0  0  0  0  0  0
   -2.7242   80.2569   31.2072 H   0  0  0  0  0  0  0  0  0  0  0  0
   -1.1216   80.1901   30.5144 H   0  0  0  0  0  0  0  0  0  0  0  0
   -2.0252   81.6853   30.4831 H   0  0  0  0  0  0  0  0  0  0  0  0
   -3.2058   80.5785   33.8673 H   0  0  0  0  0  0  0  0  0  0  0  0
   -4.3469   83.1873   33.8387 H   0  0  0  0  0  0  0  0  0  0  0  0
   -5.2402   80.6843   35.2932 H   0  0  0  0  0  0  0  0  0  0  0  0
   -6.2000   82.1739   35.1277 H   0  0  0  0  0  0  0  0  0  0  0  0
   -7.1399   80.9880   33.4697 H   0  0  0  0  0  0  0  0  0  0  0  0
   -5.7585   81.6981   32.5957 H   0  0  0  0  0  0  0  0  0  0  0  0
   -2.2262   81.7445   36.0818 H   0  0  0  0  0  0  0  0  0  0  0  0
   -3.4142   83.3163   38.2795 H   0  0  0  0  0  0  0  0  0  0  0  0
   -1.6953   83.0477   38.1164 H   0  0  0  0  0  0  0  0  0  0  0  0
   -2.7559   81.7125   38.4981 H   0  0  0  0  0  0  0  0  0  0  0  0
  1  2  1  0  0  0  0
  1 30  1  0  0  0  0
  1 31  1  0  0  0  0
  1 32  1  0  0  0  0
  2  4  1  0  0  0  0
  2  3  2  0  0  0  0
  4  5  1  0  0  0  0
  4 33  1  0  0  0  0
  5  8  1  0  0  0  0
  5  6  1  0  0  0  0
  5 34  1  1  0  0  0
  6  7  2  0  0  0  0
  8 35  1  0  0  0  0
  8 36  1  0  0  0  0
  8 37  1  0  0  0  0
  9  6  1  0  0  0  0
  9 10  1  0  0  0  0
  9 38  1  0  0  0  0
 10 11  1  0  0  0  0
 10 39  1  1  0  0  0
 11 12  2  0  0  0  0
 13 10  1  0  0  0  0
 13 40  1  0  0  0  0
 13 41  1  0  0  0  0
 13 42  1  0  0  0  0
 14 15  1  0  0  0  0
 14 11  1  0  0  0  0
 14 43  1  0  0  0  0
 15 16  1  0  0  0  0
 15 44  1  1  0  0  0
 16 17  2  0  0  0  0
 18 15  1  0  0  0  0
 18 45  1  0  0  0  0
 18 46  1  0  0  0  0
 18 47  1  0  0  0  0
 19 16  1  0  0  0  0
 19 20  1  0  0  0  0
 19 48  1  0  0  0  0
 20 21  1  0  0  0  0
 20 49  1  6  0  0  0
 21 28  1  0  0  0  0
 21 22  2  0  0  0  0
 23 24  1  0  0  0  0
 23 20  1  0  0  0  0
 23 50  1  0  0  0  0
 23 51  1  0  0  0  0
 24 52  1  0  0  0  0
 24 53  1  0  0  0  0
 25 27  1  0  0  0  0
 25 24  1  0  0  0  0
 26 25  2  0  0  0  0
 28 29  1  0  0  0  0
 28 54  1  0  0  0  0
 29 55  1  0  0  0  0
 29 56  1  0  0  0  0
 29 57  1  0  0  0  0
M  CHG  1  27  -1
M  END
>  <MODEL>
       0

$$$$
selected_4mers/AAAE/209_noH.pdb
 OpenBabel03042517503D

 57 56  0  0  1  0  0  0  0  0999 V2000
   28.7270   27.6510   21.3490 C   0  0  0  0  0  0  0  0  0  0  0  0
   27.2210   27.6820   21.7030 C   0  0  0  0  0  0  0  0  0  0  0  0
   26.8460   27.2570   22.7980 O   0  0  0  0  0  0  0  0  0  0  0  0
   26.3660   28.1590   20.7750 N   0  0  0  0  0  0  0  0  0  0  0  0
   24.9120   28.2370   21.0060 C   0  0  2  0  0  0  0  0  0  0  0  0
   24.3070   26.8280   21.1680 C   0  0  0  0  0  0  0  0  0  0  0  0
   23.4250   26.6420   22.0090 O   0  0  0  0  0  0  0  0  0  0  0  0
   24.2280   28.9870   19.8730 C   0  0  0  0  0  0  0  0  0  0  0  0
   24.8180   25.8420   20.3870 N   0  0  0  0  0  0  0  0  0  0  0  0
   24.4430   24.4200   20.4590 C   0  0  2  0  0  0  0  0  0  0  0  0
   24.9170   23.8270   21.8110 C   0  0  0  0  0  0  0  0  0  0  0  0
   24.1580   23.1100   22.4620 O   0  0  0  0  0  0  0  0  0  0  0  0
   25.0980   23.6480   19.3120 C   0  0  0  0  0  0  0  0  0  0  0  0
   26.1520   24.1430   22.2310 N   0  0  0  0  0  0  0  0  0  0  0  0
   26.7310   23.6370   23.4870 C   0  0  2  0  0  0  0  0  0  0  0  0
   25.9300   24.1180   24.6870 C   0  0  0  0  0  0  0  0  0  0  0  0
   25.7130   23.3410   25.6050 O   0  0  0  0  0  0  0  0  0  0  0  0
   28.1780   24.0690   23.6330 C   0  0  0  0  0  0  0  0  0  0  0  0
   25.4140   25.3660   24.6420 N   0  0  0  0  0  0  0  0  0  0  0  0
   24.5830   25.9200   25.7170 C   0  0  2  0  0  0  0  0  0  0  0  0
   23.2970   25.0810   25.8770 C   0  0  0  0  0  0  0  0  0  0  0  0
   22.9550   24.6960   27.0040 O   0  0  0  0  0  0  0  0  0  0  0  0
   24.3100   27.4150   25.4550 C   0  0  0  0  0  0  0  0  0  0  0  0
   23.0490   27.9890   26.0980 C   0  0  0  0  0  0  0  0  0  0  0  0
   22.9850   28.0120   27.6140 C   0  0  0  0  0  0  0  0  0  0  0  0
   24.0570   28.0300   28.2640 O   0  0  0  0  0  0  0  0  0  0  0  0
   21.8540   27.9940   28.1520 O   0  0  0  0  0  0  0  0  0  0  0  0
   22.6230   24.7710   24.7490 N   0  0  0  0  0  0  0  0  0  0  0  0
   21.4350   23.9030   24.7370 C   0  0  0  0  0  0  0  0  0  0  0  0
   28.8713   28.0548   20.3687 H   0  0  0  0  0  0  0  0  0  0  0  0
   29.0785   26.6407   21.3739 H   0  0  0  0  0  0  0  0  0  0  0  0
   29.2725   28.2361   22.0596 H   0  0  0  0  0  0  0  0  0  0  0  0
   26.7262   28.4663   19.9118 H   0  0  0  0  0  0  0  0  0  0  0  0
   24.7474   28.7774   21.9147 H   0  0  0  0  0  0  0  0  0  0  0  0
   24.3813   28.4614   18.9537 H   0  0  0  0  0  0  0  0  0  0  0  0
   24.6424   29.9704   19.7950 H   0  0  0  0  0  0  0  0  0  0  0  0
   23.1793   29.0567   20.0734 H   0  0  0  0  0  0  0  0  0  0  0  0
   25.4938   26.0985   19.7186 H   0  0  0  0  0  0  0  0  0  0  0  0
   23.3793   24.3353   20.3801 H   0  0  0  0  0  0  0  0  0  0  0  0
   26.1621   23.7308   19.3882 H   0  0  0  0  0  0  0  0  0  0  0  0
   24.7745   24.0557   18.3771 H   0  0  0  0  0  0  0  0  0  0  0  0
   24.8155   22.6175   19.3685 H   0  0  0  0  0  0  0  0  0  0  0  0
   26.6975   24.7424   21.6721 H   0  0  0  0  0  0  0  0  0  0  0  0
   26.6926   22.5683   23.4503 H   0  0  0  0  0  0  0  0  0  0  0  0
   28.2293   25.1371   23.6708 H   0  0  0  0  0  0  0  0  0  0  0  0
   28.7423   23.7143   22.7960 H   0  0  0  0  0  0  0  0  0  0  0  0
   28.5829   23.6603   24.5352 H   0  0  0  0  0  0  0  0  0  0  0  0
   25.6034   25.9268   23.8554 H   0  0  0  0  0  0  0  0  0  0  0  0
   25.1018   25.8634   26.6511 H   0  0  0  0  0  0  0  0  0  0  0  0
   24.2293   27.5524   24.3969 H   0  0  0  0  0  0  0  0  0  0  0  0
   25.1270   27.9401   25.9042 H   0  0  0  0  0  0  0  0  0  0  0  0
   22.2195   27.4091   25.7508 H   0  0  0  0  0  0  0  0  0  0  0  0
   23.0397   29.0191   25.8087 H   0  0  0  0  0  0  0  0  0  0  0  0
   22.9412   25.1430   23.8948 H   0  0  0  0  0  0  0  0  0  0  0  0
   21.2179   23.5817   25.7343 H   0  0  0  0  0  0  0  0  0  0  0  0
   21.6233   23.0491   24.1203 H   0  0  0  0  0  0  0  0  0  0  0  0
   20.5998   24.4469   24.3477 H   0  0  0  0  0  0  0  0  0  0  0  0
  1  2  1  0  0  0  0
  1 30  1  0  0  0  0
  1 31  1  0  0  0  0
  1 32  1  0  0  0  0
  2  4  1  0  0  0  0
  2  3  2  0  0  0  0
  4  5  1  0  0  0  0
  4 33  1  0  0  0  0
  5  8  1  0  0  0  0
  5  6  1  0  0  0  0
  5 34  1  1  0  0  0
  6  7  2  0  0  0  0
  8 35  1  0  0  0  0
  8 36  1  0  0  0  0
  8 37  1  0  0  0  0
  9  6  1  0  0  0  0
  9 10  1  0  0  0  0
  9 38  1  0  0  0  0
 10 11  1  0  0  0  0
 10 39  1  1  0  0  0
 11 12  2  0  0  0  0
 13 10  1  0  0  0  0
 13 40  1  0  0  0  0
 13 41  1  0  0  0  0
 13 42  1  0  0  0  0
 14 15  1  0  0  0  0
 14 11  1  0  0  0  0
 14 43  1  0  0  0  0
 15 16  1  0  0  0  0
 15 44  1  1  0  0  0
 16 17  2  0  0  0  0
 18 15  1  0  0  0  0
 18 45  1  0  0  0  0
 18 46  1  0  0  0  0
 18 47  1  0  0  0  0
 19 16  1  0  0  0  0
 19 20  1  0  0  0  0
 19 48  1  0  0  0  0
 20 21  1  0  0  0  0
 20 49  1  6  0  0  0
 21 28  1  0  0  0  0
 21 22  2  0  0  0  0
 23 24  1  0  0  0  0
 23 20  1  0  0  0  0
 23 50  1  0  0  0  0
 23 51  1  0  0  0  0
 24 52  1  0  0  0  0
 24 53  1  0  0  0  0
 25 27  1  0  0  0  0
 25 24  1  0  0  0  0
 26 25  2  0  0  0  0
 28 29  1  0  0  0  0
 28 54  1  0  0  0  0
 29 55  1  0  0  0  0
 29 56  1  0  0  0  0
 29 57  1  0  0  0  0
M  CHG  1  27  -1
M  END
>  <MODEL>
       0

$$$$
