selected_4mers/AAAG/230_noH.pdb
 OpenBabel03042517503D

 49 48  0  0  1  0  0  0  0  0999 V2000
    2.1830   -7.2590   17.5970 C   0  0  0  0  0  0  0  0  0  0  0  0
    2.4000   -7.2380   16.0870 C   0  0  0  0  0  0  0  0  0  0  0  0
    3.5350   -7.3530   15.6140 O   0  0  0  0  0  0  0  0  0  0  0  0
    1.3010   -7.0730   15.3440 N   0  0  0  0  0  0  0  0  0  0  0  0
    1.4330   -7.0150   13.8860 C   0  0  2  0  0  0  0  0  0  0  0  0
    0.4000   -6.0720   13.2730 C   0  0  0  0  0  0  0  0  0  0  0  0
   -0.6610   -5.8200   13.8360 O   0  0  0  0  0  0  0  0  0  0  0  0
    1.2400   -8.3930   13.2500 C   0  0  0  0  0  0  0  0  0  0  0  0
    0.7700   -5.5400   12.1170 N   0  0  0  0  0  0  0  0  0  0  0  0
   -0.1610   -4.7210   11.3320 C   0  0  2  0  0  0  0  0  0  0  0  0
   -1.3490   -5.5980   10.9450 C   0  0  0  0  0  0  0  0  0  0  0  0
   -1.1730   -6.7520   10.5450 O   0  0  0  0  0  0  0  0  0  0  0  0
    0.5600   -4.2460   10.0700 C   0  0  0  0  0  0  0  0  0  0  0  0
   -2.5610   -5.0330   10.9950 N   0  0  0  0  0  0  0  0  0  0  0  0
   -3.7360   -5.8150   10.5880 C   0  0  2  0  0  0  0  0  0  0  0  0
   -3.7980   -6.0440    9.0860 C   0  0  0  0  0  0  0  0  0  0  0  0
   -4.3660   -7.0470    8.6390 O   0  0  0  0  0  0  0  0  0  0  0  0
   -5.0020   -5.1100   11.0570 C   0  0  0  0  0  0  0  0  0  0  0  0
   -3.2330   -5.1430    8.2970 N   0  0  0  0  0  0  0  0  0  0  0  0
   -3.2940   -5.2070    6.8410 C   0  0  0  0  0  0  0  0  0  0  0  0
   -3.9410   -3.9490    6.2800 C   0  0  0  0  0  0  0  0  0  0  0  0
   -4.6420   -3.2230    6.9970 O   0  0  0  0  0  0  0  0  0  0  0  0
   -3.7220   -3.6900    4.9940 N   0  0  0  0  0  0  0  0  0  0  0  0
   -4.2590   -2.5320    4.3010 C   0  0  0  0  0  0  0  0  0  0  0  0
    1.1403   -7.1466   17.8091 H   0  0  0  0  0  0  0  0  0  0  0  0
    2.7271   -6.4549   18.0467 H   0  0  0  0  0  0  0  0  0  0  0  0
    2.5294   -8.1902   17.9942 H   0  0  0  0  0  0  0  0  0  0  0  0
    0.4170   -6.9918   15.7697 H   0  0  0  0  0  0  0  0  0  0  0  0
    2.4220   -6.6574   13.6888 H   0  0  0  0  0  0  0  0  0  0  0  0
    0.2493   -8.7433   13.4517 H   0  0  0  0  0  0  0  0  0  0  0  0
    1.9513   -9.0784   13.6613 H   0  0  0  0  0  0  0  0  0  0  0  0
    1.3844   -8.3210   12.1922 H   0  0  0  0  0  0  0  0  0  0  0  0
    1.6818   -5.6963   11.7803 H   0  0  0  0  0  0  0  0  0  0  0  0
   -0.4985   -3.8743   11.8924 H   0  0  0  0  0  0  0  0  0  0  0  0
    0.8967   -5.0940    9.5111 H   0  0  0  0  0  0  0  0  0  0  0  0
    1.4004   -3.6434   10.3448 H   0  0  0  0  0  0  0  0  0  0  0  0
   -0.1126   -3.6683    9.4710 H   0  0  0  0  0  0  0  0  0  0  0  0
   -2.6641   -4.1031   11.3013 H   0  0  0  0  0  0  0  0  0  0  0  0
   -3.6538   -6.7780   11.0472 H   0  0  0  0  0  0  0  0  0  0  0  0
   -5.0696   -4.1499   10.5896 H   0  0  0  0  0  0  0  0  0  0  0  0
   -4.9695   -4.9879   12.1195 H   0  0  0  0  0  0  0  0  0  0  0  0
   -5.8563   -5.6969   10.7914 H   0  0  0  0  0  0  0  0  0  0  0  0
   -2.7484   -4.3938    8.7132 H   0  0  0  0  0  0  0  0  0  0  0  0
   -2.3019   -5.2971    6.4504 H   0  0  0  0  0  0  0  0  0  0  0  0
   -3.8806   -6.0551    6.5557 H   0  0  0  0  0  0  0  0  0  0  0  0
   -3.1639   -4.3193    4.4824 H   0  0  0  0  0  0  0  0  0  0  0  0
   -4.8400   -1.9463    4.9824 H   0  0  0  0  0  0  0  0  0  0  0  0
   -4.8788   -2.8566    3.4914 H   0  0  0  0  0  0  0  0  0  0  0  0
   -3.4538   -1.9401    3.9187 H   0  0  0  0  0  0  0  0  0  0  0  0
  1 25  1  0  0  0  0
  1 26  1  0  0  0  0
  1 27  1  0  0  0  0
  2  1  1  0  0  0  0
  3  2  2  0  0  0  0
  4  2  1  0  0  0  0
  4 28  1  0  0  0  0
  5  4  1  0  0  0  0
  5 29  1  6  0  0  0
  6  7  2  0  0  0  0
  6  5  1  0  0  0  0
  8  5  1  0  0  0  0
  8 30  1  0  0  0  0
  8 31  1  0  0  0  0
  8 32  1  0  0  0  0
  9  6  1  0  0  0  0
  9 33  1  0  0  0  0
 10  9  1  0  0  0  0
 10 34  1  1  0  0  0
 11 14  1  0  0  0  0
 11 10  1  0  0  0  0
 12 11  2  0  0  0  0
 13 10  1  0  0  0  0
 13 35  1  0  0  0  0
 13 36  1  0  0  0  0
 13 37  1  0  0  0  0
 14 38  1  0  0  0  0
 15 14  1  0  0  0  0
 15 18  1  0  0  0  0
 15 39  1  1  0  0  0
 16 15  1  0  0  0  0
 17 16  2  0  0  0  0
 18 40  1  0  0  0  0
 18 41  1  0  0  0  0
 18 42  1  0  0  0  0
 19 16  1  0  0  0  0
 19 43  1  0  0  0  0
 20 19  1  0  0  0  0
 20 44  1  0  0  0  0
 20 45  1  0  0  0  0
 21 20  1  0  0  0  0
 21 22  2  0  0  0  0
 23 21  1  0  0  0  0
 23 46  1  0  0  0  0
 24 23  1  0  0  0  0
 24 47  1  0  0  0  0
 24 48  1  0  0  0  0
 24 49  1  0  0  0  0
M  END
>  <MODEL>
       0

$$$$
selected_4mers/AAAG/231_noH.pdb
 OpenBabel03042517503D

 49 48  0  0  1  0  0  0  0  0999 V2000
   -2.2800   51.0540    4.9300 C   0  0  0  0  0  0  0  0  0  0  0  0
   -2.7920   50.7600    6.3090 C   0  0  0  0  0  0  0  0  0  0  0  0
   -2.0060   50.5330    7.2140 O   0  0  0  0  0  0  0  0  0  0  0  0
   -4.1070   50.7000    6.4640 N   0  0  0  0  0  0  0  0  0  0  0  0
   -4.7260   50.3890    7.7720 C   0  0  2  0  0  0  0  0  0  0  0  0
   -4.3630   48.9710    8.2680 C   0  0  0  0  0  0  0  0  0  0  0  0
   -3.9960   48.7890    9.4240 O   0  0  0  0  0  0  0  0  0  0  0  0
   -6.2590   50.5490    7.6800 C   0  0  0  0  0  0  0  0  0  0  0  0
   -4.4850   47.9800    7.3870 N   0  0  0  0  0  0  0  0  0  0  0  0
   -4.1110   46.5870    7.6800 C   0  0  2  0  0  0  0  0  0  0  0  0
   -2.6410   46.5230    8.0990 C   0  0  0  0  0  0  0  0  0  0  0  0
   -2.3450   45.8840    9.1130 O   0  0  0  0  0  0  0  0  0  0  0  0
   -4.3540   45.6790    6.4570 C   0  0  0  0  0  0  0  0  0  0  0  0
   -1.7490   47.1800    7.3180 N   0  0  0  0  0  0  0  0  0  0  0  0
   -0.2960   47.2870    7.6510 C   0  0  2  0  0  0  0  0  0  0  0  0
   -0.1500   47.9160    9.0340 C   0  0  0  0  0  0  0  0  0  0  0  0
    0.5640   47.4060    9.9210 O   0  0  0  0  0  0  0  0  0  0  0  0
    0.4570   48.1100    6.6150 C   0  0  0  0  0  0  0  0  0  0  0  0
   -0.8430   49.0310    9.2490 N   0  0  0  0  0  0  0  0  0  0  0  0
   -0.7990   49.6640   10.5760 C   0  0  0  0  0  0  0  0  0  0  0  0
   -1.2790   48.8030   11.7180 C   0  0  0  0  0  0  0  0  0  0  0  0
   -0.6640   48.7780   12.8060 O   0  0  0  0  0  0  0  0  0  0  0  0
   -2.3850   48.0940   11.5490 N   0  0  0  0  0  0  0  0  0  0  0  0
   -2.8570   47.2200   12.6840 C   0  0  0  0  0  0  0  0  0  0  0  0
   -3.1060   51.2267    4.2722 H   0  0  0  0  0  0  0  0  0  0  0  0
   -1.7102   50.2204    4.5758 H   0  0  0  0  0  0  0  0  0  0  0  0
   -1.6585   51.9246    4.9584 H   0  0  0  0  0  0  0  0  0  0  0  0
   -4.6884   50.8670    5.6872 H   0  0  0  0  0  0  0  0  0  0  0  0
   -4.3357   51.0827    8.4871 H   0  0  0  0  0  0  0  0  0  0  0  0
   -6.6478   49.8547    6.9646 H   0  0  0  0  0  0  0  0  0  0  0  0
   -6.4958   51.5466    7.3740 H   0  0  0  0  0  0  0  0  0  0  0  0
   -6.6958   50.3566    8.6376 H   0  0  0  0  0  0  0  0  0  0  0  0
   -4.8435   48.1897    6.4944 H   0  0  0  0  0  0  0  0  0  0  0  0
   -4.7246   46.2340    8.4823 H   0  0  0  0  0  0  0  0  0  0  0  0
   -3.7499   46.0127    5.6394 H   0  0  0  0  0  0  0  0  0  0  0  0
   -5.3863   45.7236    6.1792 H   0  0  0  0  0  0  0  0  0  0  0  0
   -4.0944   44.6708    6.7041 H   0  0  0  0  0  0  0  0  0  0  0  0
   -2.0736   47.6069    6.4924 H   0  0  0  0  0  0  0  0  0  0  0  0
    0.1296   46.3053    7.6479 H   0  0  0  0  0  0  0  0  0  0  0  0
    0.0578   49.1024    6.5891 H   0  0  0  0  0  0  0  0  0  0  0  0
    0.3485   47.6567    5.6519 H   0  0  0  0  0  0  0  0  0  0  0  0
    1.4940   48.1494    6.8759 H   0  0  0  0  0  0  0  0  0  0  0  0
   -1.3805   49.4289    8.5265 H   0  0  0  0  0  0  0  0  0  0  0  0
   -1.4105   50.5414   10.5440 H   0  0  0  0  0  0  0  0  0  0  0  0
    0.2330   49.8672   10.7725 H   0  0  0  0  0  0  0  0  0  0  0  0
   -2.8868   48.1365   10.7030 H   0  0  0  0  0  0  0  0  0  0  0  0
   -2.1817   47.3112   13.5090 H   0  0  0  0  0  0  0  0  0  0  0  0
   -2.8886   46.2007   12.3599 H   0  0  0  0  0  0  0  0  0  0  0  0
   -3.8355   47.5280   12.9883 H   0  0  0  0  0  0  0  0  0  0  0  0
  1  2  1  0  0  0  0
  1 25  1  0  0  0  0
  1 26  1  0  0  0  0
  1 27  1  0  0  0  0
  2  4  1  0  0  0  0
  2  3  2  0  0  0  0
  4  5  1  0  0  0  0
  4 28  1  0  0  0  0
  5  6  1  0  0  0  0
  5 29  1  1  0  0  0
  6  7  2  0  0  0  0
  8  5  1  0  0  0  0
  8 30  1  0  0  0  0
  8 31  1  0  0  0  0
  8 32  1  0  0  0  0
  9 10  1  0  0  0  0
  9  6  1  0  0  0  0
  9 33  1  0  0  0  0
 10 11  1  0  0  0  0
 10 34  1  1  0  0  0
 11 12  2  0  0  0  0
 13 10  1  0  0  0  0
 13 35  1  0  0  0  0
 13 36  1  0  0  0  0
 13 37  1  0  0  0  0
 14 15  1  0  0  0  0
 14 11  1  0  0  0  0
 14 38  1  0  0  0  0
 15 16  1  0  0  0  0
 15 39  1  1  0  0  0
 16 19  1  0  0  0  0
 16 17  2  0  0  0  0
 18 15  1  0  0  0  0
 18 40  1  0  0  0  0
 18 41  1  0  0  0  0
 18 42  1  0  0  0  0
 19 20  1  0  0  0  0
 19 43  1  0  0  0  0
 20 21  1  0  0  0  0
 20 44  1  0  0  0  0
 20 45  1  0  0  0  0
 21 22  2  0  0  0  0
 23 21  1  0  0  0  0
 23 24  1  0  0  0  0
 23 46  1  0  0  0  0
 24 47  1  0  0  0  0
 24 48  1  0  0  0  0
 24 49  1  0  0  0  0
M  END
>  <MODEL>
       0

$$$$
selected_4mers/AAAG/232_noH.pdb
 OpenBabel03042517503D

 49 48  0  0  1  0  0  0  0  0999 V2000
   19.7560   55.9920   -2.1430 C   0  0  0  0  0  0  0  0  0  0  0  0
   20.3240   56.0480   -3.5720 C   0  0  0  0  0  0  0  0  0  0  0  0
   19.9690   56.9360   -4.3530 O   0  0  0  0  0  0  0  0  0  0  0  0
   21.1480   55.0720   -3.9400 N   0  0  0  0  0  0  0  0  0  0  0  0
   21.7190   55.0100   -5.2840 C   0  0  2  0  0  0  0  0  0  0  0  0
   20.6430   54.8930   -6.3640 C   0  0  0  0  0  0  0  0  0  0  0  0
   19.6650   54.1600   -6.2020 O   0  0  0  0  0  0  0  0  0  0  0  0
   22.6750   53.8500   -5.3950 C   0  0  0  0  0  0  0  0  0  0  0  0
   20.8400   55.6330   -7.4510 N   0  0  0  0  0  0  0  0  0  0  0  0
   19.9750   55.5690   -8.6250 C   0  0  2  0  0  0  0  0  0  0  0  0
   19.9590   54.1610   -9.2180 C   0  0  0  0  0  0  0  0  0  0  0  0
   21.0080   53.5350   -9.3810 O   0  0  0  0  0  0  0  0  0  0  0  0
   20.4480   56.5750   -9.6660 C   0  0  0  0  0  0  0  0  0  0  0  0
   18.7870   53.6620   -9.5670 N   0  0  0  0  0  0  0  0  0  0  0  0
   18.7010   52.3120  -10.0770 C   0  0  2  0  0  0  0  0  0  0  0  0
   19.0910   52.2290  -11.5560 C   0  0  0  0  0  0  0  0  0  0  0  0
   18.6530   53.0450  -12.3810 O   0  0  0  0  0  0  0  0  0  0  0  0
   17.2890   51.7660   -9.8660 C   0  0  0  0  0  0  0  0  0  0  0  0
   19.9180   51.2350  -11.8800 N   0  0  0  0  0  0  0  0  0  0  0  0
   20.2410   50.8740  -13.2630 C   0  0  0  0  0  0  0  0  0  0  0  0
   21.0460   51.8920  -14.0450 C   0  0  0  0  0  0  0  0  0  0  0  0
   21.0440   51.8730  -15.2900 O   0  0  0  0  0  0  0  0  0  0  0  0
   21.7490   52.7580  -13.3170 N   0  0  0  0  0  0  0  0  0  0  0  0
   22.4070   53.9250  -13.8890 C   0  0  0  0  0  0  0  0  0  0  0  0
   19.1129   56.8318   -1.9817 H   0  0  0  0  0  0  0  0  0  0  0  0
   20.5606   56.0183   -1.4381 H   0  0  0  0  0  0  0  0  0  0  0  0
   19.1996   55.0870   -2.0156 H   0  0  0  0  0  0  0  0  0  0  0  0
   21.3802   54.3711   -3.2888 H   0  0  0  0  0  0  0  0  0  0  0  0
   22.2447   55.9282   -5.4435 H   0  0  0  0  0  0  0  0  0  0  0  0
   22.1450   52.9344   -5.2349 H   0  0  0  0  0  0  0  0  0  0  0  0
   23.4445   53.9502   -4.6583 H   0  0  0  0  0  0  0  0  0  0  0  0
   23.1142   53.8419   -6.3707 H   0  0  0  0  0  0  0  0  0  0  0  0
   21.6048   56.2528   -7.4646 H   0  0  0  0  0  0  0  0  0  0  0  0
   18.9767   55.8118   -8.3260 H   0  0  0  0  0  0  0  0  0  0  0  0
   21.4463   56.3344   -9.9667 H   0  0  0  0  0  0  0  0  0  0  0  0
   20.4295   57.5588   -9.2455 H   0  0  0  0  0  0  0  0  0  0  0  0
   19.8005   56.5387  -10.5171 H   0  0  0  0  0  0  0  0  0  0  0  0
   17.9729   54.2087   -9.4799 H   0  0  0  0  0  0  0  0  0  0  0  0
   19.4004   51.7127   -9.5324 H   0  0  0  0  0  0  0  0  0  0  0  0
   16.5897   52.3654  -10.4106 H   0  0  0  0  0  0  0  0  0  0  0  0
   17.0476   51.7945   -8.8240 H   0  0  0  0  0  0  0  0  0  0  0  0
   17.2412   50.7559  -10.2157 H   0  0  0  0  0  0  0  0  0  0  0  0
   20.3330   50.7169  -11.1529 H   0  0  0  0  0  0  0  0  0  0  0  0
   20.7998   49.9618  -13.2411 H   0  0  0  0  0  0  0  0  0  0  0  0
   19.3009   50.7999  -13.7686 H   0  0  0  0  0  0  0  0  0  0  0  0
   21.8275   52.6023  -12.3481 H   0  0  0  0  0  0  0  0  0  0  0  0
   22.2292   53.9535  -14.9437 H   0  0  0  0  0  0  0  0  0  0  0  0
   23.4596   53.8663  -13.7062 H   0  0  0  0  0  0  0  0  0  0  0  0
   22.0155   54.8124  -13.4372 H   0  0  0  0  0  0  0  0  0  0  0  0
  1 25  1  0  0  0  0
  1 26  1  0  0  0  0
  1 27  1  0  0  0  0
  2  1  1  0  0  0  0
  3  2  2  0  0  0  0
  4  2  1  0  0  0  0
  4 28  1  0  0  0  0
  5  4  1  0  0  0  0
  5 29  1  6  0  0  0
  6  7  2  0  0  0  0
  6  5  1  0  0  0  0
  8  5  1  0  0  0  0
  8 30  1  0  0  0  0
  8 31  1  0  0  0  0
  8 32  1  0  0  0  0
  9  6  1  0  0  0  0
  9 33  1  0  0  0  0
 10  9  1  0  0  0  0
 10 34  1  1  0  0  0
 11 10  1  0  0  0  0
 12 11  2  0  0  0  0
 13 10  1  0  0  0  0
 13 35  1  0  0  0  0
 13 36  1  0  0  0  0
 13 37  1  0  0  0  0
 14 11  1  0  0  0  0
 14 38  1  0  0  0  0
 15 18  1  0  0  0  0
 15 14  1  0  0  0  0
 15 39  1  1  0  0  0
 16 15  1  0  0  0  0
 17 16  2  0  0  0  0
 18 40  1  0  0  0  0
 18 41  1  0  0  0  0
 18 42  1  0  0  0  0
 19 16  1  0  0  0  0
 19 43  1  0  0  0  0
 20 19  1  0  0  0  0
 20 44  1  0  0  0  0
 20 45  1  0  0  0  0
 21 23  1  0  0  0  0
 21 20  1  0  0  0  0
 22 21  2  0  0  0  0
 23 46  1  0  0  0  0
 24 23  1  0  0  0  0
 24 47  1  0  0  0  0
 24 48  1  0  0  0  0
 24 49  1  0  0  0  0
M  END
>  <MODEL>
       0

$$$$
selected_4mers/AAAG/233_noH.pdb
 OpenBabel03042517503D

 49 48  0  0  1  0  0  0  0  0999 V2000
   14.2730   37.5020   39.9830 C   0  0  0  0  0  0  0  0  0  0  0  0
   14.7600   37.9870   41.3550 C   0  0  0  0  0  0  0  0  0  0  0  0
   14.7250   37.2250   42.3250 O   0  0  0  0  0  0  0  0  0  0  0  0
   15.1970   39.2500   41.4470 N   0  0  0  0  0  0  0  0  0  0  0  0
   15.6300   39.7830   42.7400 C   0  0  2  0  0  0  0  0  0  0  0  0
   14.4750   39.8030   43.7420 C   0  0  0  0  0  0  0  0  0  0  0  0
   14.6380   39.4110   44.8940 O   0  0  0  0  0  0  0  0  0  0  0  0
   16.2460   41.1710   42.5810 C   0  0  0  0  0  0  0  0  0  0  0  0
   13.2950   40.2280   43.2970 N   0  0  0  0  0  0  0  0  0  0  0  0
   12.1000   40.1830   44.1440 C   0  0  2  0  0  0  0  0  0  0  0  0
   11.7400   38.7470   44.5250 C   0  0  0  0  0  0  0  0  0  0  0  0
   11.3720   38.4680   45.6670 O   0  0  0  0  0  0  0  0  0  0  0  0
   10.9460   40.8300   43.4430 C   0  0  0  0  0  0  0  0  0  0  0  0
   11.8320   37.8360   43.5550 N   0  0  0  0  0  0  0  0  0  0  0  0
   11.4880   36.4390   43.7850 C   0  0  2  0  0  0  0  0  0  0  0  0
   12.3680   35.8080   44.8770 C   0  0  0  0  0  0  0  0  0  0  0  0
   11.8930   35.0230   45.7110 O   0  0  0  0  0  0  0  0  0  0  0  0
   11.6150   35.6460   42.4680 C   0  0  0  0  0  0  0  0  0  0  0  0
   13.6510   36.1490   44.8660 N   0  0  0  0  0  0  0  0  0  0  0  0
   14.5860   35.6330   45.8430 C   0  0  0  0  0  0  0  0  0  0  0  0
   14.1870   35.9450   47.2820 C   0  0  0  0  0  0  0  0  0  0  0  0
   14.6160   35.2350   48.1980 O   0  0  0  0  0  0  0  0  0  0  0  0
   13.3750   36.9870   47.4800 N   0  0  0  0  0  0  0  0  0  0  0  0
   12.8980   37.3740   48.8180 C   0  0  0  0  0  0  0  0  0  0  0  0
   14.3770   38.2913   39.2681 H   0  0  0  0  0  0  0  0  0  0  0  0
   13.2444   37.2152   40.0506 H   0  0  0  0  0  0  0  0  0  0  0  0
   14.8581   36.6612   39.6736 H   0  0  0  0  0  0  0  0  0  0  0  0
   15.2270   39.8200   40.6448 H   0  0  0  0  0  0  0  0  0  0  0  0
   16.3856   39.1319   43.1274 H   0  0  0  0  0  0  0  0  0  0  0  0
   15.5108   41.8453   42.1940 H   0  0  0  0  0  0  0  0  0  0  0  0
   17.0733   41.1187   41.9044 H   0  0  0  0  0  0  0  0  0  0  0  0
   16.5855   41.5217   43.5332 H   0  0  0  0  0  0  0  0  0  0  0  0
   13.2234   40.5797   42.3803 H   0  0  0  0  0  0  0  0  0  0  0  0
   12.3153   40.7209   45.0436 H   0  0  0  0  0  0  0  0  0  0  0  0
   10.7291   40.2934   42.5430 H   0  0  0  0  0  0  0  0  0  0  0  0
   11.1965   41.8423   43.2032 H   0  0  0  0  0  0  0  0  0  0  0  0
   10.0877   40.8167   44.0818 H   0  0  0  0  0  0  0  0  0  0  0  0
   12.1397   38.1143   42.6622 H   0  0  0  0  0  0  0  0  0  0  0  0
   10.4752   36.3999   44.1279 H   0  0  0  0  0  0  0  0  0  0  0  0
   12.6276   35.6848   42.1246 H   0  0  0  0  0  0  0  0  0  0  0  0
   10.9711   36.0758   41.7294 H   0  0  0  0  0  0  0  0  0  0  0  0
   11.3343   34.6273   42.6366 H   0  0  0  0  0  0  0  0  0  0  0  0
   13.9754   36.7699   44.1743 H   0  0  0  0  0  0  0  0  0  0  0  0
   15.5466   36.0653   45.6554 H   0  0  0  0  0  0  0  0  0  0  0  0
   14.5967   34.5680   45.7404 H   0  0  0  0  0  0  0  0  0  0  0  0
   13.0846   37.5160   46.7021 H   0  0  0  0  0  0  0  0  0  0  0  0
   13.3013   36.7038   49.5481 H   0  0  0  0  0  0  0  0  0  0  0  0
   11.8293   37.3274   48.8429 H   0  0  0  0  0  0  0  0  0  0  0  0
   13.2167   38.3720   49.0354 H   0  0  0  0  0  0  0  0  0  0  0  0
  1  2  1  0  0  0  0
  1 25  1  0  0  0  0
  1 26  1  0  0  0  0
  1 27  1  0  0  0  0
  2  4  1  0  0  0  0
  2  3  2  0  0  0  0
  4  5  1  0  0  0  0
  4 28  1  0  0  0  0
  5  6  1  0  0  0  0
  5 29  1  1  0  0  0
  6  7  2  0  0  0  0
  8  5  1  0  0  0  0
  8 30  1  0  0  0  0
  8 31  1  0  0  0  0
  8 32  1  0  0  0  0
  9  6  1  0  0  0  0
  9 10  1  0  0  0  0
  9 33  1  0  0  0  0
 10 11  1  0  0  0  0
 10 34  1  1  0  0  0
 11 12  2  0  0  0  0
 13 10  1  0  0  0  0
 13 35  1  0  0  0  0
 13 36  1  0  0  0  0
 13 37  1  0  0  0  0
 14 15  1  0  0  0  0
 14 11  1  0  0  0  0
 14 38  1  0  0  0  0
 15 16  1  0  0  0  0
 15 39  1  1  0  0  0
 16 17  2  0  0  0  0
 18 15  1  0  0  0  0
 18 40  1  0  0  0  0
 18 41  1  0  0  0  0
 18 42  1  0  0  0  0
 19 16  1  0  0  0  0
 19 20  1  0  0  0  0
 19 43  1  0  0  0  0
 20 21  1  0  0  0  0
 20 44  1  0  0  0  0
 20 45  1  0  0  0  0
 21 23  1  0  0  0  0
 21 22  2  0  0  0  0
 23 24  1  0  0  0  0
 23 46  1  0  0  0  0
 24 47  1  0  0  0  0
 24 48  1  0  0  0  0
 24 49  1  0  0  0  0
M  END
>  <MODEL>
       0

$$$$
selected_4mers/AAAG/234_noH.pdb
 OpenBabel03042517503D

 49 48  0  0  1  0  0  0  0  0999 V2000
    3.3270   29.5000   10.0820 C   0  0  0  0  0  0  0  0  0  0  0  0
    2.6550   29.0760    8.7790 C   0  0  0  0  0  0  0  0  0  0  0  0
    3.0300   28.0610    8.2020 O   0  0  0  0  0  0  0  0  0  0  0  0
    1.6520   29.8360    8.3430 N   0  0  0  0  0  0  0  0  0  0  0  0
    0.9830   29.5620    7.0730 C   0  0  2  0  0  0  0  0  0  0  0  0
    1.7350   30.2970    5.9720 C   0  0  0  0  0  0  0  0  0  0  0  0
    2.1500   31.4410    6.1670 O   0  0  0  0  0  0  0  0  0  0  0  0
   -0.4680   30.0240    7.1190 C   0  0  0  0  0  0  0  0  0  0  0  0
    1.9120   29.6420    4.8300 N   0  0  0  0  0  0  0  0  0  0  0  0
    2.7650   30.1510    3.7710 C   0  0  2  0  0  0  0  0  0  0  0  0
    2.0770   30.0220    2.4280 C   0  0  0  0  0  0  0  0  0  0  0  0
    1.3870   29.0270    2.1720 O   0  0  0  0  0  0  0  0  0  0  0  0
    4.0530   29.3620    3.7500 C   0  0  0  0  0  0  0  0  0  0  0  0
    2.2680   31.0250    1.5770 N   0  0  0  0  0  0  0  0  0  0  0  0
    1.8040   30.9680    0.1970 C   0  0  2  0  0  0  0  0  0  0  0  0
    2.9070   31.4860   -0.7070 C   0  0  0  0  0  0  0  0  0  0  0  0
    3.6770   32.3640   -0.3170 O   0  0  0  0  0  0  0  0  0  0  0  0
    0.5550   31.8280    0.0190 C   0  0  0  0  0  0  0  0  0  0  0  0
    2.9970   30.9600   -1.9200 N   0  0  0  0  0  0  0  0  0  0  0  0
    3.9030   31.5540   -2.8800 C   0  0  0  0  0  0  0  0  0  0  0  0
    4.1030   30.6970   -4.0870 C   0  0  0  0  0  0  0  0  0  0  0  0
    3.8510   29.4930   -4.0500 O   0  0  0  0  0  0  0  0  0  0  0  0
    4.5550   31.3410   -5.1630 N   0  0  0  0  0  0  0  0  0  0  0  0
    4.9560   30.6360   -6.3700 C   0  0  0  0  0  0  0  0  0  0  0  0
    4.1106   28.8113   10.3197 H   0  0  0  0  0  0  0  0  0  0  0  0
    2.6043   29.5043   10.8711 H   0  0  0  0  0  0  0  0  0  0  0  0
    3.7372   30.4817    9.9687 H   0  0  0  0  0  0  0  0  0  0  0  0
    1.3546   30.5996    8.8886 H   0  0  0  0  0  0  0  0  0  0  0  0
    0.9838   28.5091    6.8825 H   0  0  0  0  0  0  0  0  0  0  0  0
   -0.5013   31.0766    7.3085 H   0  0  0  0  0  0  0  0  0  0  0  0
   -0.9831   29.5045    7.8998 H   0  0  0  0  0  0  0  0  0  0  0  0
   -0.9386   29.8154    6.1810 H   0  0  0  0  0  0  0  0  0  0  0  0
    1.4495   28.7831    4.6973 H   0  0  0  0  0  0  0  0  0  0  0  0
    2.9691   31.1850    3.9559 H   0  0  0  0  0  0  0  0  0  0  0  0
    3.8365   28.3307    3.5645 H   0  0  0  0  0  0  0  0  0  0  0  0
    4.5459   29.4587    4.6948 H   0  0  0  0  0  0  0  0  0  0  0  0
    4.6889   29.7378    2.9758 H   0  0  0  0  0  0  0  0  0  0  0  0
    2.7378   31.8319    1.8890 H   0  0  0  0  0  0  0  0  0  0  0  0
    1.5604   29.9569   -0.0545 H   0  0  0  0  0  0  0  0  0  0  0  0
    0.7829   32.8436    0.2671 H   0  0  0  0  0  0  0  0  0  0  0  0
   -0.2201   31.4688    0.6632 H   0  0  0  0  0  0  0  0  0  0  0  0
    0.2270   31.7743   -0.9981 H   0  0  0  0  0  0  0  0  0  0  0  0
    2.4548   30.1756   -2.1650 H   0  0  0  0  0  0  0  0  0  0  0  0
    3.5030   32.4964   -3.1912 H   0  0  0  0  0  0  0  0  0  0  0  0
    4.8534   31.6674   -2.4018 H   0  0  0  0  0  0  0  0  0  0  0  0
    4.6193   32.3231   -5.1399 H   0  0  0  0  0  0  0  0  0  0  0  0
    4.8247   29.5835   -6.2286 H   0  0  0  0  0  0  0  0  0  0  0  0
    5.9851   30.8423   -6.5783 H   0  0  0  0  0  0  0  0  0  0  0  0
    4.3533   30.9635   -7.1912 H   0  0  0  0  0  0  0  0  0  0  0  0
  1 25  1  0  0  0  0
  1 26  1  0  0  0  0
  1 27  1  0  0  0  0
  2  1  1  0  0  0  0
  3  2  2  0  0  0  0
  4  2  1  0  0  0  0
  4 28  1  0  0  0  0
  5  8  1  0  0  0  0
  5  4  1  0  0  0  0
  5 29  1  6  0  0  0
  6  7  2  0  0  0  0
  6  5  1  0  0  0  0
  8 30  1  0  0  0  0
  8 31  1  0  0  0  0
  8 32  1  0  0  0  0
  9  6  1  0  0  0  0
  9 33  1  0  0  0  0
 10  9  1  0  0  0  0
 10 34  1  1  0  0  0
 11 10  1  0  0  0  0
 12 11  2  0  0  0  0
 13 10  1  0  0  0  0
 13 35  1  0  0  0  0
 13 36  1  0  0  0  0
 13 37  1  0  0  0  0
 14 11  1  0  0  0  0
 14 38  1  0  0  0  0
 15 14  1  0  0  0  0
 15 39  1  6  0  0  0
 16 17  2  0  0  0  0
 16 15  1  0  0  0  0
 18 15  1  0  0  0  0
 18 40  1  0  0  0  0
 18 41  1  0  0  0  0
 18 42  1  0  0  0  0
 19 16  1  0  0  0  0
 19 43  1  0  0  0  0
 20 19  1  0  0  0  0
 20 44  1  0  0  0  0
 20 45  1  0  0  0  0
 21 22  2  0  0  0  0
 21 20  1  0  0  0  0
 23 21  1  0  0  0  0
 23 46  1  0  0  0  0
 24 23  1  0  0  0  0
 24 47  1  0  0  0  0
 24 48  1  0  0  0  0
 24 49  1  0  0  0  0
M  END
>  <MODEL>
       0

$$$$
