selected_4mers/AAAL/15_noH.pdb
 OpenBabel03042517493D

 61 60  0  0  1  0  0  0  0  0999 V2000
  -28.5490   17.3340    6.4120 C   0  0  0  0  0  0  0  0  0  0  0  0
  -28.5500   15.8260    6.5790 C   0  0  0  0  0  0  0  0  0  0  0  0
  -28.7680   15.3370    7.6740 O   0  0  0  0  0  0  0  0  0  0  0  0
  -28.2470   15.0760    5.5290 N   0  0  0  0  0  0  0  0  0  0  0  0
  -28.1470   13.6290    5.6410 C   0  0  2  0  0  0  0  0  0  0  0  0
  -27.0950   13.0760    4.7180 C   0  0  0  0  0  0  0  0  0  0  0  0
  -26.7630   13.6810    3.6930 O   0  0  0  0  0  0  0  0  0  0  0  0
  -29.4890   12.9830    5.3030 C   0  0  0  0  0  0  0  0  0  0  0  0
  -26.5790   11.9310    5.1000 N   0  0  0  0  0  0  0  0  0  0  0  0
  -25.6700   11.1320    4.3010 C   0  0  2  0  0  0  0  0  0  0  0  0
  -26.1700    9.6810    4.3020 C   0  0  0  0  0  0  0  0  0  0  0  0
  -26.6590    9.2380    5.3140 O   0  0  0  0  0  0  0  0  0  0  0  0
  -24.2840   11.1630    4.8770 C   0  0  0  0  0  0  0  0  0  0  0  0
  -26.0380    9.0100    3.1910 N   0  0  0  0  0  0  0  0  0  0  0  0
  -26.4770    7.6300    3.0310 C   0  0  2  0  0  0  0  0  0  0  0  0
  -25.4570    6.8460    2.2560 C   0  0  0  0  0  0  0  0  0  0  0  0
  -24.9060    7.2960    1.3100 O   0  0  0  0  0  0  0  0  0  0  0  0
  -27.8070    7.5780    2.3600 C   0  0  0  0  0  0  0  0  0  0  0  0
  -25.2530    5.6150    2.7020 N   0  0  0  0  0  0  0  0  0  0  0  0
  -24.4420    4.6390    2.0220 C   0  0  2  0  0  0  0  0  0  0  0  0
  -25.3280    3.4720    1.5630 C   0  0  0  0  0  0  0  0  0  0  0  0
  -26.0470    2.9500    2.3380 O   0  0  0  0  0  0  0  0  0  0  0  0
  -23.3400    4.1230    2.9470 C   0  0  0  0  0  0  0  0  0  0  0  0
  -22.3810    3.0620    2.3680 C   0  0  0  0  0  0  0  0  0  0  0  0
  -21.5400    3.5550    1.2520 C   0  0  0  0  0  0  0  0  0  0  0  0
  -21.5570    2.3910    3.4540 C   0  0  0  0  0  0  0  0  0  0  0  0
  -25.2140    3.1140    0.3080 N   0  0  0  0  0  0  0  0  0  0  0  0
  -25.9420    1.9800   -0.2740 C   0  0  0  0  0  0  0  0  0  0  0  0
  -28.3411   17.5797    5.3916 H   0  0  0  0  0  0  0  0  0  0  0  0
  -27.7976   17.7621    7.0421 H   0  0  0  0  0  0  0  0  0  0  0  0
  -29.5075   17.7237    6.6845 H   0  0  0  0  0  0  0  0  0  0  0  0
  -28.0868   15.5058    4.6579 H   0  0  0  0  0  0  0  0  0  0  0  0
  -27.8721   13.4030    6.6501 H   0  0  0  0  0  0  0  0  0  0  0  0
  -29.7526   13.2161    4.2925 H   0  0  0  0  0  0  0  0  0  0  0  0
  -30.2421   13.3586    5.9638 H   0  0  0  0  0  0  0  0  0  0  0  0
  -29.4125   11.9217    5.4159 H   0  0  0  0  0  0  0  0  0  0  0  0
  -26.8262   11.5913    5.9903 H   0  0  0  0  0  0  0  0  0  0  0  0
  -25.6388   11.5290    3.3078 H   0  0  0  0  0  0  0  0  0  0  0  0
  -24.3021   10.7680    5.8713 H   0  0  0  0  0  0  0  0  0  0  0  0
  -23.9301   12.1725    4.9006 H   0  0  0  0  0  0  0  0  0  0  0  0
  -23.6320   10.5706    4.2697 H   0  0  0  0  0  0  0  0  0  0  0  0
  -25.6202    9.4593    2.4210 H   0  0  0  0  0  0  0  0  0  0  0  0
  -26.5768    7.1882    4.0004 H   0  0  0  0  0  0  0  0  0  0  0  0
  -27.7325    8.0152    1.3862 H   0  0  0  0  0  0  0  0  0  0  0  0
  -28.5214    8.1222    2.9416 H   0  0  0  0  0  0  0  0  0  0  0  0
  -28.1217    6.5593    2.2705 H   0  0  0  0  0  0  0  0  0  0  0  0
  -25.6814    5.3523    3.5486 H   0  0  0  0  0  0  0  0  0  0  0  0
  -23.9836    5.0978    1.1710 H   0  0  0  0  0  0  0  0  0  0  0  0
  -23.8133    3.6960    3.8064 H   0  0  0  0  0  0  0  0  0  0  0  0
  -22.7242    4.9745    3.1485 H   0  0  0  0  0  0  0  0  0  0  0  0
  -23.0114    2.3148    1.9331 H   0  0  0  0  0  0  0  0  0  0  0  0
  -20.8765    4.3127    1.6132 H   0  0  0  0  0  0  0  0  0  0  0  0
  -22.1664    3.9644    0.4872 H   0  0  0  0  0  0  0  0  0  0  0  0
  -20.9699    2.7438    0.8497 H   0  0  0  0  0  0  0  0  0  0  0  0
  -20.9133    3.1133    3.9109 H   0  0  0  0  0  0  0  0  0  0  0  0
  -20.9669    1.6097    3.0225 H   0  0  0  0  0  0  0  0  0  0  0  0
  -22.2106    1.9775    4.1934 H   0  0  0  0  0  0  0  0  0  0  0  0
  -24.6105    3.6309   -0.2733 H   0  0  0  0  0  0  0  0  0  0  0  0
  -26.5514    1.5237    0.4779 H   0  0  0  0  0  0  0  0  0  0  0  0
  -25.2429    1.2627   -0.6503 H   0  0  0  0  0  0  0  0  0  0  0  0
  -26.5623    2.3270   -1.0738 H   0  0  0  0  0  0  0  0  0  0  0  0
  1  2  1  0  0  0  0
  1 29  1  0  0  0  0
  1 30  1  0  0  0  0
  1 31  1  0  0  0  0
  2  3  2  0  0  0  0
  4  5  1  0  0  0  0
  4  2  1  0  0  0  0
  4 32  1  0  0  0  0
  5 33  1  1  0  0  0
  6  9  1  0  0  0  0
  6  5  1  0  0  0  0
  7  6  2  0  0  0  0
  8  5  1  0  0  0  0
  8 34  1  0  0  0  0
  8 35  1  0  0  0  0
  8 36  1  0  0  0  0
  9 37  1  0  0  0  0
 10 11  1  0  0  0  0
 10 13  1  0  0  0  0
 10  9  1  0  0  0  0
 10 38  1  6  0  0  0
 11 12  2  0  0  0  0
 13 39  1  0  0  0  0
 13 40  1  0  0  0  0
 13 41  1  0  0  0  0
 14 11  1  0  0  0  0
 14 42  1  0  0  0  0
 15 14  1  0  0  0  0
 15 43  1  1  0  0  0
 16 19  1  0  0  0  0
 16 15  1  0  0  0  0
 17 16  2  0  0  0  0
 18 15  1  0  0  0  0
 18 44  1  0  0  0  0
 18 45  1  0  0  0  0
 18 46  1  0  0  0  0
 19 47  1  0  0  0  0
 20 19  1  0  0  0  0
 20 23  1  0  0  0  0
 20 48  1  6  0  0  0
 21 20  1  0  0  0  0
 21 22  2  0  0  0  0
 23 49  1  0  0  0  0
 23 50  1  0  0  0  0
 24 23  1  0  0  0  0
 24 26  1  0  0  0  0
 24 51  1  0  0  0  0
 25 24  1  0  0  0  0
 25 52  1  0  0  0  0
 25 53  1  0  0  0  0
 25 54  1  0  0  0  0
 26 55  1  0  0  0  0
 26 56  1  0  0  0  0
 26 57  1  0  0  0  0
 27 21  1  0  0  0  0
 27 58  1  0  0  0  0
 28 27  1  0  0  0  0
 28 59  1  0  0  0  0
 28 60  1  0  0  0  0
 28 61  1  0  0  0  0
M  END
>  <MODEL>
       0

$$$$
selected_4mers/AAAL/16_noH.pdb
 OpenBabel03042517493D

 61 60  0  0  1  0  0  0  0  0999 V2000
   16.7200   11.1630   18.7190 C   0  0  0  0  0  0  0  0  0  0  0  0
   15.6880   11.5080   17.6740 C   0  0  0  0  0  0  0  0  0  0  0  0
   14.9100   12.4520   17.8580 O   0  0  0  0  0  0  0  0  0  0  0  0
   15.6240   10.7150   16.6110 N   0  0  0  0  0  0  0  0  0  0  0  0
   14.6670   10.9430   15.5330 C   0  0  2  0  0  0  0  0  0  0  0  0
   13.2210   10.8360   15.9610 C   0  0  0  0  0  0  0  0  0  0  0  0
   12.3050   11.5430   15.4500 O   0  0  0  0  0  0  0  0  0  0  0  0
   14.9260   10.0440   14.3810 C   0  0  0  0  0  0  0  0  0  0  0  0
   13.0150    9.9310   16.9090 N   0  0  0  0  0  0  0  0  0  0  0  0
   11.7030    9.7280   17.5420 C   0  0  2  0  0  0  0  0  0  0  0  0
   11.3300   10.7650   18.5780 C   0  0  0  0  0  0  0  0  0  0  0  0
   10.2330   10.7260   19.1260 O   0  0  0  0  0  0  0  0  0  0  0  0
   11.6510    8.3330   18.1400 C   0  0  0  0  0  0  0  0  0  0  0  0
   12.2630   11.6420   18.8810 N   0  0  0  0  0  0  0  0  0  0  0  0
   12.1220   12.7160   19.8680 C   0  0  2  0  0  0  0  0  0  0  0  0
   12.0700   12.2440   21.3150 C   0  0  0  0  0  0  0  0  0  0  0  0
   11.4320   12.8780   22.1430 O   0  0  0  0  0  0  0  0  0  0  0  0
   10.9450   13.6720   19.5470 C   0  0  0  0  0  0  0  0  0  0  0  0
   12.7580   11.1540   21.5980 N   0  0  0  0  0  0  0  0  0  0  0  0
   13.0140   10.7710   22.9540 C   0  0  2  0  0  0  0  0  0  0  0  0
   14.0130   11.7780   23.5570 C   0  0  0  0  0  0  0  0  0  0  0  0
   14.8940   12.2530   22.8410 O   0  0  0  0  0  0  0  0  0  0  0  0
   13.5620    9.3840   22.9340 C   0  0  0  0  0  0  0  0  0  0  0  0
   13.4650    8.5220   24.1550 C   0  0  0  0  0  0  0  0  0  0  0  0
   11.9590    8.3220   24.6250 C   0  0  0  0  0  0  0  0  0  0  0  0
   14.1720    7.1730   23.9220 C   0  0  0  0  0  0  0  0  0  0  0  0
   13.8550   12.1180   24.8460 N   0  0  0  0  0  0  0  0  0  0  0  0
   14.7060   13.1260   25.4490 C   0  0  0  0  0  0  0  0  0  0  0  0
   17.2972   10.3253   18.3873 H   0  0  0  0  0  0  0  0  0  0  0  0
   16.2292   10.9168   19.6374 H   0  0  0  0  0  0  0  0  0  0  0  0
   17.3656   12.0022   18.8735 H   0  0  0  0  0  0  0  0  0  0  0  0
   16.2407    9.9502   16.5481 H   0  0  0  0  0  0  0  0  0  0  0  0
   14.8209   11.9587   15.2336 H   0  0  0  0  0  0  0  0  0  0  0  0
   14.7722    9.0281   14.6797 H   0  0  0  0  0  0  0  0  0  0  0  0
   15.9359   10.1696   14.0505 H   0  0  0  0  0  0  0  0  0  0  0  0
   14.2566   10.2861   13.5821 H   0  0  0  0  0  0  0  0  0  0  0  0
   13.7714    9.3724   17.2007 H   0  0  0  0  0  0  0  0  0  0  0  0
   10.9732    9.8414   16.7678 H   0  0  0  0  0  0  0  0  0  0  0  0
   12.3893    8.2472   18.9097 H   0  0  0  0  0  0  0  0  0  0  0  0
   11.8466    7.6099   17.3760 H   0  0  0  0  0  0  0  0  0  0  0  0
   10.6805    8.1591   18.5557 H   0  0  0  0  0  0  0  0  0  0  0  0
   13.1232   11.5711   18.4075 H   0  0  0  0  0  0  0  0  0  0  0  0
   13.0318   13.2718   19.7773 H   0  0  0  0  0  0  0  0  0  0  0  0
   10.0204   13.1400   19.6306 H   0  0  0  0  0  0  0  0  0  0  0  0
   11.0518   14.0472   18.5506 H   0  0  0  0  0  0  0  0  0  0  0  0
   10.9503   14.4888   20.2382 H   0  0  0  0  0  0  0  0  0  0  0  0
   13.1012   10.5945   20.8643 H   0  0  0  0  0  0  0  0  0  0  0  0
   12.1292   10.7807   23.5556 H   0  0  0  0  0  0  0  0  0  0  0  0
   14.6019    9.4663   22.6960 H   0  0  0  0  0  0  0  0  0  0  0  0
   12.9337    8.8818   22.2283 H   0  0  0  0  0  0  0  0  0  0  0  0
   13.9682    9.0280   24.9523 H   0  0  0  0  0  0  0  0  0  0  0  0
   11.4100    7.8172   23.8578 H   0  0  0  0  0  0  0  0  0  0  0  0
   11.5141    9.2769   24.8125 H   0  0  0  0  0  0  0  0  0  0  0  0
   11.9396    7.7374   25.5210 H   0  0  0  0  0  0  0  0  0  0  0  0
   13.6851    6.6477   23.1271 H   0  0  0  0  0  0  0  0  0  0  0  0
   14.1270    6.5875   24.8165 H   0  0  0  0  0  0  0  0  0  0  0  0
   15.1949    7.3469   23.6606 H   0  0  0  0  0  0  0  0  0  0  0  0
   13.1572   11.6805   25.3854 H   0  0  0  0  0  0  0  0  0  0  0  0
   15.4003   13.4890   24.7202 H   0  0  0  0  0  0  0  0  0  0  0  0
   15.2420   12.6960   26.2692 H   0  0  0  0  0  0  0  0  0  0  0  0
   14.1035   13.9365   25.8024 H   0  0  0  0  0  0  0  0  0  0  0  0
  1 29  1  0  0  0  0
  1 30  1  0  0  0  0
  1 31  1  0  0  0  0
  2  3  2  0  0  0  0
  2  1  1  0  0  0  0
  4  2  1  0  0  0  0
  4 32  1  0  0  0  0
  5  6  1  0  0  0  0
  5  4  1  0  0  0  0
  5 33  1  6  0  0  0
  6  9  1  0  0  0  0
  7  6  2  0  0  0  0
  8  5  1  0  0  0  0
  8 34  1  0  0  0  0
  8 35  1  0  0  0  0
  8 36  1  0  0  0  0
  9 10  1  0  0  0  0
  9 37  1  0  0  0  0
 10 13  1  0  0  0  0
 10 11  1  0  0  0  0
 10 38  1  6  0  0  0
 11 14  1  0  0  0  0
 11 12  2  0  0  0  0
 13 39  1  0  0  0  0
 13 40  1  0  0  0  0
 13 41  1  0  0  0  0
 14 15  1  0  0  0  0
 14 42  1  0  0  0  0
 15 16  1  0  0  0  0
 15 43  1  6  0  0  0
 16 19  1  0  0  0  0
 16 17  2  0  0  0  0
 18 15  1  0  0  0  0
 18 44  1  0  0  0  0
 18 45  1  0  0  0  0
 18 46  1  0  0  0  0
 19 20  1  0  0  0  0
 19 47  1  0  0  0  0
 20 21  1  0  0  0  0
 20 48  1  1  0  0  0
 21 27  1  0  0  0  0
 22 21  2  0  0  0  0
 23 20  1  0  0  0  0
 23 24  1  0  0  0  0
 23 49  1  0  0  0  0
 23 50  1  0  0  0  0
 24 25  1  0  0  0  0
 24 51  1  0  0  0  0
 25 52  1  0  0  0  0
 25 53  1  0  0  0  0
 25 54  1  0  0  0  0
 26 24  1  0  0  0  0
 26 55  1  0  0  0  0
 26 56  1  0  0  0  0
 26 57  1  0  0  0  0
 27 28  1  0  0  0  0
 27 58  1  0  0  0  0
 28 59  1  0  0  0  0
 28 60  1  0  0  0  0
 28 61  1  0  0  0  0
M  END
>  <MODEL>
       0

$$$$
selected_4mers/AAAL/17_noH.pdb
 OpenBabel03042517493D

 61 60  0  0  1  0  0  0  0  0999 V2000
    5.2010   26.8260  -60.4030 C   0  0  0  0  0  0  0  0  0  0  0  0
    4.2040   27.9550  -60.2430 C   0  0  0  0  0  0  0  0  0  0  0  0
    4.1490   28.8360  -61.0950 O   0  0  0  0  0  0  0  0  0  0  0  0
    3.4170   27.9330  -59.1670 N   0  0  0  0  0  0  0  0  0  0  0  0
    2.4410   28.9990  -58.9020 C   0  0  2  0  0  0  0  0  0  0  0  0
    3.1090   30.3460  -58.6300 C   0  0  0  0  0  0  0  0  0  0  0  0
    4.2430   30.4100  -58.1340 O   0  0  0  0  0  0  0  0  0  0  0  0
    1.5030   28.6140  -57.7510 C   0  0  0  0  0  0  0  0  0  0  0  0
    2.3950   31.4230  -58.9600 N   0  0  0  0  0  0  0  0  0  0  0  0
    2.9130   32.7730  -58.7800 C   0  0  2  0  0  0  0  0  0  0  0  0
    3.2650   33.0240  -57.3110 C   0  0  0  0  0  0  0  0  0  0  0  0
    4.3130   33.5860  -57.0140 O   0  0  0  0  0  0  0  0  0  0  0  0
    1.9060   33.8090  -59.2900 C   0  0  0  0  0  0  0  0  0  0  0  0
    2.4060   32.5560  -56.4030 N   0  0  0  0  0  0  0  0  0  0  0  0
    2.6300   32.7030  -54.9630 C   0  0  2  0  0  0  0  0  0  0  0  0
    3.8750   31.9450  -54.4970 C   0  0  0  0  0  0  0  0  0  0  0  0
    4.4770   32.3020  -53.4820 O   0  0  0  0  0  0  0  0  0  0  0  0
    1.3980   32.2400  -54.1790 C   0  0  0  0  0  0  0  0  0  0  0  0
    4.2630   30.9100  -55.2450 N   0  0  0  0  0  0  0  0  0  0  0  0
    5.4550   30.1110  -54.9120 C   0  0  2  0  0  0  0  0  0  0  0  0
    6.7080   30.5730  -55.6700 C   0  0  0  0  0  0  0  0  0  0  0  0
    7.8030   30.0370  -55.4680 O   0  0  0  0  0  0  0  0  0  0  0  0
    5.1970   28.6220  -55.1440 C   0  0  0  0  0  0  0  0  0  0  0  0
    4.2150   27.9350  -54.1860 C   0  0  0  0  0  0  0  0  0  0  0  0
    4.0260   26.4900  -54.5880 C   0  0  0  0  0  0  0  0  0  0  0  0
    4.6910   28.0380  -52.7370 C   0  0  0  0  0  0  0  0  0  0  0  0
    6.5280   31.5680  -56.5370 N   0  0  0  0  0  0  0  0  0  0  0  0
    7.6450   32.2580  -57.1810 C   0  0  0  0  0  0  0  0  0  0  0  0
    5.7616   26.9701  -61.3029 H   0  0  0  0  0  0  0  0  0  0  0  0
    4.6788   25.8935  -60.4535 H   0  0  0  0  0  0  0  0  0  0  0  0
    5.8670   26.8169  -59.5656 H   0  0  0  0  0  0  0  0  0  0  0  0
    3.4917   27.1831  -58.5336 H   0  0  0  0  0  0  0  0  0  0  0  0
    1.8581   29.1119  -59.7921 H   0  0  0  0  0  0  0  0  0  0  0  0
    2.0711   28.4970  -56.8518 H   0  0  0  0  0  0  0  0  0  0  0  0
    1.0112   27.6929  -57.9846 H   0  0  0  0  0  0  0  0  0  0  0  0
    0.7724   29.3836  -57.6137 H   0  0  0  0  0  0  0  0  0  0  0  0
    1.4930   31.3026  -59.3356 H   0  0  0  0  0  0  0  0  0  0  0  0
    3.8094   32.8719  -59.3558 H   0  0  0  0  0  0  0  0  0  0  0  0
    0.9984   33.7305  -58.7288 H   0  0  0  0  0  0  0  0  0  0  0  0
    1.7022   33.6289  -60.3249 H   0  0  0  0  0  0  0  0  0  0  0  0
    2.3142   34.7911  -59.1725 H   0  0  0  0  0  0  0  0  0  0  0  0
    1.5926   32.0955  -56.7122 H   0  0  0  0  0  0  0  0  0  0  0  0
    2.7962   33.7422  -54.7699 H   0  0  0  0  0  0  0  0  0  0  0  0
    1.2253   31.2009  -54.3671 H   0  0  0  0  0  0  0  0  0  0  0  0
    0.5443   32.8054  -54.4896 H   0  0  0  0  0  0  0  0  0  0  0  0
    1.5639   32.3903  -53.1327 H   0  0  0  0  0  0  0  0  0  0  0  0
    3.7370   30.6735  -56.0429 H   0  0  0  0  0  0  0  0  0  0  0  0
    5.6484   30.2671  -53.8713 H   0  0  0  0  0  0  0  0  0  0  0  0
    6.1356   28.1143  -55.0652 H   0  0  0  0  0  0  0  0  0  0  0  0
    4.7365   28.5634  -56.1081 H   0  0  0  0  0  0  0  0  0  0  0  0
    3.2726   28.4376  -54.2517 H   0  0  0  0  0  0  0  0  0  0  0  0
    4.9630   25.9771  -54.5260 H   0  0  0  0  0  0  0  0  0  0  0  0
    3.6600   26.4442  -55.5924 H   0  0  0  0  0  0  0  0  0  0  0  0
    3.3212   26.0260  -53.9301 H   0  0  0  0  0  0  0  0  0  0  0  0
    5.6346   27.5438  -52.6356 H   0  0  0  0  0  0  0  0  0  0  0  0
    3.9742   27.5739  -52.0923 H   0  0  0  0  0  0  0  0  0  0  0  0
    4.7974   29.0684  -52.4689 H   0  0  0  0  0  0  0  0  0  0  0  0
    5.6094   31.8492  -56.7521 H   0  0  0  0  0  0  0  0  0  0  0  0
    8.5680   31.8358  -56.8423 H   0  0  0  0  0  0  0  0  0  0  0  0
    7.6147   33.2976  -56.9295 H   0  0  0  0  0  0  0  0  0  0  0  0
    7.5695   32.1454  -58.2424 H   0  0  0  0  0  0  0  0  0  0  0  0
  1  2  1  0  0  0  0
  1 29  1  0  0  0  0
  1 30  1  0  0  0  0
  1 31  1  0  0  0  0
  2  4  1  0  0  0  0
  3  2  2  0  0  0  0
  4  5  1  0  0  0  0
  4 32  1  0  0  0  0
  5  6  1  0  0  0  0
  5  8  1  0  0  0  0
  5 33  1  6  0  0  0
  6  7  2  0  0  0  0
  8 34  1  0  0  0  0
  8 35  1  0  0  0  0
  8 36  1  0  0  0  0
  9 10  1  0  0  0  0
  9  6  1  0  0  0  0
  9 37  1  0  0  0  0
 10 11  1  0  0  0  0
 10 38  1  6  0  0  0
 11 12  2  0  0  0  0
 11 14  1  0  0  0  0
 13 10  1  0  0  0  0
 13 39  1  0  0  0  0
 13 40  1  0  0  0  0
 13 41  1  0  0  0  0
 14 15  1  0  0  0  0
 14 42  1  0  0  0  0
 15 16  1  0  0  0  0
 15 18  1  0  0  0  0
 15 43  1  1  0  0  0
 16 17  2  0  0  0  0
 18 44  1  0  0  0  0
 18 45  1  0  0  0  0
 18 46  1  0  0  0  0
 19 20  1  0  0  0  0
 19 16  1  0  0  0  0
 19 47  1  0  0  0  0
 20 48  1  1  0  0  0
 21 22  2  0  0  0  0
 21 20  1  0  0  0  0
 23 20  1  0  0  0  0
 23 24  1  0  0  0  0
 23 49  1  0  0  0  0
 23 50  1  0  0  0  0
 24 26  1  0  0  0  0
 24 51  1  0  0  0  0
 25 24  1  0  0  0  0
 25 52  1  0  0  0  0
 25 53  1  0  0  0  0
 25 54  1  0  0  0  0
 26 55  1  0  0  0  0
 26 56  1  0  0  0  0
 26 57  1  0  0  0  0
 27 21  1  0  0  0  0
 27 58  1  0  0  0  0
 28 27  1  0  0  0  0
 28 59  1  0  0  0  0
 28 60  1  0  0  0  0
 28 61  1  0  0  0  0
M  END
>  <MODEL>
       0

$$$$
selected_4mers/AAAL/18_noH.pdb
 OpenBabel03042517493D

 61 60  0  0  1  0  0  0  0  0999 V2000
   33.8070   14.0110   90.9080 C   0  0  0  0  0  0  0  0  0  0  0  0
   32.6730   14.6900   90.1260 C   0  0  0  0  0  0  0  0  0  0  0  0
   32.7330   14.7680   88.8950 O   0  0  0  0  0  0  0  0  0  0  0  0
   31.6650   15.2140   90.8370 N   0  0  0  0  0  0  0  0  0  0  0  0
   30.5590   15.9200   90.1820 C   0  0  2  0  0  0  0  0  0  0  0  0
   31.0660   17.1240   89.3600 C   0  0  0  0  0  0  0  0  0  0  0  0
   30.6090   17.3330   88.2360 O   0  0  0  0  0  0  0  0  0  0  0  0
   29.4900   16.3520   91.2090 C   0  0  0  0  0  0  0  0  0  0  0  0
   32.0330   17.8850   89.8820 N   0  0  0  0  0  0  0  0  0  0  0  0
   32.5860   19.0180   89.1250 C   0  0  2  0  0  0  0  0  0  0  0  0
   33.2900   18.5360   87.8540 C   0  0  0  0  0  0  0  0  0  0  0  0
   33.1740   19.1620   86.8110 O   0  0  0  0  0  0  0  0  0  0  0  0
   33.5430   19.8150   89.9670 C   0  0  0  0  0  0  0  0  0  0  0  0
   34.0270   17.4270   87.9490 N   0  0  0  0  0  0  0  0  0  0  0  0
   34.7030   16.8790   86.7620 C   0  0  2  0  0  0  0  0  0  0  0  0
   33.7000   16.4400   85.6920 C   0  0  0  0  0  0  0  0  0  0  0  0
   33.9070   16.6860   84.4970 O   0  0  0  0  0  0  0  0  0  0  0  0
   35.6250   15.7250   87.1410 C   0  0  0  0  0  0  0  0  0  0  0  0
   32.6130   15.8100   86.1190 N   0  0  0  0  0  0  0  0  0  0  0  0
   31.5390   15.4320   85.1890 C   0  0  2  0  0  0  0  0  0  0  0  0
   30.8400   16.6530   84.5830 C   0  0  0  0  0  0  0  0  0  0  0  0
   30.5410   16.6760   83.3860 O   0  0  0  0  0  0  0  0  0  0  0  0
   30.5240   14.5330   85.8970 C   0  0  0  0  0  0  0  0  0  0  0  0
   31.0860   13.1900   86.3860 C   0  0  0  0  0  0  0  0  0  0  0  0
   30.0340   12.4330   87.1720 C   0  0  0  0  0  0  0  0  0  0  0  0
   31.5950   12.3490   85.2230 C   0  0  0  0  0  0  0  0  0  0  0  0
   30.5920   17.6800   85.3970 N   0  0  0  0  0  0  0  0  0  0  0  0
   29.9920   18.9040   84.8820 C   0  0  0  0  0  0  0  0  0  0  0  0
   34.5400   13.6394   90.2228 H   0  0  0  0  0  0  0  0  0  0  0  0
   33.4093   13.1988   91.4799 H   0  0  0  0  0  0  0  0  0  0  0  0
   34.2617   14.7217   91.5661 H   0  0  0  0  0  0  0  0  0  0  0  0
   31.6670   15.1233   91.8173 H   0  0  0  0  0  0  0  0  0  0  0  0
   30.0985   15.2375   89.4986 H   0  0  0  0  0  0  0  0  0  0  0  0
   29.9229   17.0370   91.9077 H   0  0  0  0  0  0  0  0  0  0  0  0
   29.1284   15.4909   91.7311 H   0  0  0  0  0  0  0  0  0  0  0  0
   28.6779   16.8275   90.6999 H   0  0  0  0  0  0  0  0  0  0  0  0
   32.3784   17.6850   90.7820 H   0  0  0  0  0  0  0  0  0  0  0  0
   31.7675   19.6487   88.8471 H   0  0  0  0  0  0  0  0  0  0  0  0
   34.3677   19.1959   90.2525 H   0  0  0  0  0  0  0  0  0  0  0  0
   33.0399   20.1656   90.8438 H   0  0  0  0  0  0  0  0  0  0  0  0
   33.9026   20.6508   89.4040 H   0  0  0  0  0  0  0  0  0  0  0  0
   34.1189   16.9732   88.8178 H   0  0  0  0  0  0  0  0  0  0  0  0
   35.2992   17.6639   86.3456 H   0  0  0  0  0  0  0  0  0  0  0  0
   35.0460   14.9287   87.5601 H   0  0  0  0  0  0  0  0  0  0  0  0
   36.3412   16.0623   87.8608 H   0  0  0  0  0  0  0  0  0  0  0  0
   36.1347   15.3742   86.2680 H   0  0  0  0  0  0  0  0  0  0  0  0
   32.5242   15.5920   87.0749 H   0  0  0  0  0  0  0  0  0  0  0  0
   31.9885   14.8935   84.3810 H   0  0  0  0  0  0  0  0  0  0  0  0
   29.7249   14.3311   85.2147 H   0  0  0  0  0  0  0  0  0  0  0  0
   30.2083   15.0640   86.7706 H   0  0  0  0  0  0  0  0  0  0  0  0
   31.9158   13.3926   87.0304 H   0  0  0  0  0  0  0  0  0  0  0  0
   29.1974   12.2237   86.5385 H   0  0  0  0  0  0  0  0  0  0  0  0
   29.7130   13.0269   88.0021 H   0  0  0  0  0  0  0  0  0  0  0  0
   30.4489   11.5141   87.5302 H   0  0  0  0  0  0  0  0  0  0  0  0
   30.7845   12.1300   84.5596 H   0  0  0  0  0  0  0  0  0  0  0  0
   32.0066   11.4349   85.5971 H   0  0  0  0  0  0  0  0  0  0  0  0
   32.3515   12.8911   84.6951 H   0  0  0  0  0  0  0  0  0  0  0  0
   30.8160   17.6106   86.3532 H   0  0  0  0  0  0  0  0  0  0  0  0
   29.8181   18.8013   83.8312 H   0  0  0  0  0  0  0  0  0  0  0  0
   30.6545   19.7262   85.0552 H   0  0  0  0  0  0  0  0  0  0  0  0
   29.0628   19.0833   85.3814 H   0  0  0  0  0  0  0  0  0  0  0  0
  1 29  1  0  0  0  0
  1 30  1  0  0  0  0
  1 31  1  0  0  0  0
  2  4  1  0  0  0  0
  2  1  1  0  0  0  0
  3  2  2  0  0  0  0
  4 32  1  0  0  0  0
  5  4  1  0  0  0  0
  5  8  1  0  0  0  0
  5 33  1  6  0  0  0
  6  9  1  0  0  0  0
  6  5  1  0  0  0  0
  7  6  2  0  0  0  0
  8 34  1  0  0  0  0
  8 35  1  0  0  0  0
  8 36  1  0  0  0  0
  9 37  1  0  0  0  0
 10  9  1  0  0  0  0
 10 13  1  0  0  0  0
 10 38  1  6  0  0  0
 11 14  1  0  0  0  0
 11 10  1  0  0  0  0
 12 11  2  0  0  0  0
 13 39  1  0  0  0  0
 13 40  1  0  0  0  0
 13 41  1  0  0  0  0
 14 42  1  0  0  0  0
 15 18  1  0  0  0  0
 15 14  1  0  0  0  0
 15 43  1  6  0  0  0
 16 19  1  0  0  0  0
 16 15  1  0  0  0  0
 17 16  2  0  0  0  0
 18 44  1  0  0  0  0
 18 45  1  0  0  0  0
 18 46  1  0  0  0  0
 19 47  1  0  0  0  0
 20 23  1  0  0  0  0
 20 19  1  0  0  0  0
 20 48  1  6  0  0  0
 21 20  1  0  0  0  0
 21 27  1  0  0  0  0
 22 21  2  0  0  0  0
 23 24  1  0  0  0  0
 23 49  1  0  0  0  0
 23 50  1  0  0  0  0
 24 25  1  0  0  0  0
 24 51  1  0  0  0  0
 25 52  1  0  0  0  0
 25 53  1  0  0  0  0
 25 54  1  0  0  0  0
 26 24  1  0  0  0  0
 26 55  1  0  0  0  0
 26 56  1  0  0  0  0
 26 57  1  0  0  0  0
 27 58  1  0  0  0  0
 28 27  1  0  0  0  0
 28 59  1  0  0  0  0
 28 60  1  0  0  0  0
 28 61  1  0  0  0  0
M  END
>  <MODEL>
       0

$$$$
selected_4mers/AAAL/19_noH.pdb
 OpenBabel03042517493D

 61 60  0  0  1  0  0  0  0  0999 V2000
   86.5690   12.8360  -79.9870 C   0  0  0  0  0  0  0  0  0  0  0  0
   87.2930   13.5710  -81.0980 C   0  0  0  0  0  0  0  0  0  0  0  0
   87.0980   13.2630  -82.2780 O   0  0  0  0  0  0  0  0  0  0  0  0
   88.1210   14.5390  -80.7380 N   0  0  0  0  0  0  0  0  0  0  0  0
   88.8440   15.2810  -81.7560 C   0  0  2  0  0  0  0  0  0  0  0  0
   90.2110   15.6890  -81.2520 C   0  0  0  0  0  0  0  0  0  0  0  0
   90.5120   15.5660  -80.0630 O   0  0  0  0  0  0  0  0  0  0  0  0
   88.0470   16.5210  -82.1620 C   0  0  0  0  0  0  0  0  0  0  0  0
   91.0370   16.1800  -82.1690 N   0  0  0  0  0  0  0  0  0  0  0  0
   92.3770   16.6390  -81.8300 C   0  0  2  0  0  0  0  0  0  0  0  0
   92.2750   18.0810  -81.3340 C   0  0  0  0  0  0  0  0  0  0  0  0
   93.2270   18.6320  -80.7820 O   0  0  0  0  0  0  0  0  0  0  0  0
   93.2730   16.5830  -83.0730 C   0  0  0  0  0  0  0  0  0  0  0  0
   91.1050   18.6820  -81.5250 N   0  0  0  0  0  0  0  0  0  0  0  0
   90.8880   20.0770  -81.1490 C   0  0  2  0  0  0  0  0  0  0  0  0
   91.1520   20.4360  -79.6860 C   0  0  0  0  0  0  0  0  0  0  0  0
   90.7090   19.7450  -78.7690 O   0  0  0  0  0  0  0  0  0  0  0  0
   89.4690   20.5010  -81.5300 C   0  0  0  0  0  0  0  0  0  0  0  0
   91.8870   21.5260  -79.4900 N   0  0  0  0  0  0  0  0  0  0  0  0
   92.1850   22.0290  -78.1590 C   0  0  2  0  0  0  0  0  0  0  0  0
   91.6190   23.4430  -78.0170 C   0  0  0  0  0  0  0  0  0  0  0  0
   91.8080   24.0950  -76.9920 O   0  0  0  0  0  0  0  0  0  0  0  0
   93.6940   22.0000  -77.8870 C   0  0  0  0  0  0  0  0  0  0  0  0
   94.2160   20.5900  -77.5600 C   0  0  0  0  0  0  0  0  0  0  0  0
   95.7410   20.5810  -77.5130 C   0  0  0  0  0  0  0  0  0  0  0  0
   93.6390   20.1250  -76.2270 C   0  0  0  0  0  0  0  0  0  0  0  0
   90.9440   23.9130  -79.0660 N   0  0  0  0  0  0  0  0  0  0  0  0
   90.2740   25.2210  -79.0400 C   0  0  0  0  0  0  0  0  0  0  0  0
   85.9359   12.0843  -80.4101 H   0  0  0  0  0  0  0  0  0  0  0  0
   85.9754   13.5292  -79.4285 H   0  0  0  0  0  0  0  0  0  0  0  0
   87.2847   12.3757  -79.3383 H   0  0  0  0  0  0  0  0  0  0  0  0
   88.2460   14.7548  -79.7856 H   0  0  0  0  0  0  0  0  0  0  0  0
   88.9723   14.6483  -82.6093 H   0  0  0  0  0  0  0  0  0  0  0  0
   87.9170   17.1559  -81.3106 H   0  0  0  0  0  0  0  0  0  0  0  0
   87.0891   16.2232  -82.5345 H   0  0  0  0  0  0  0  0  0  0  0  0
   88.5771   17.0517  -82.9251 H   0  0  0  0  0  0  0  0  0  0  0  0
   90.7349   16.2352  -83.1044 H   0  0  0  0  0  0  0  0  0  0  0  0
   92.8015   16.0147  -81.0717 H   0  0  0  0  0  0  0  0  0  0  0  0
   92.8587   17.2040  -83.8396 H   0  0  0  0  0  0  0  0  0  0  0  0
   93.3325   15.5742  -83.4246 H   0  0  0  0  0  0  0  0  0  0  0  0
   94.2530   16.9317  -82.8223 H   0  0  0  0  0  0  0  0  0  0  0  0
   90.3655   18.1740  -81.9303 H   0  0  0  0  0  0  0  0  0  0  0  0
   91.6294   20.6181  -81.6990 H   0  0  0  0  0  0  0  0  0  0  0  0
   88.7624   19.9366  -80.9580 H   0  0  0  0  0  0  0  0  0  0  0  0
   89.3103   20.3194  -82.5725 H   0  0  0  0  0  0  0  0  0  0  0  0
   89.3414   21.5436  -81.3261 H   0  0  0  0  0  0  0  0  0  0  0  0
   92.2411   22.0084  -80.2717 H   0  0  0  0  0  0  0  0  0  0  0  0
   91.7229   21.3969  -77.4298 H   0  0  0  0  0  0  0  0  0  0  0  0
   93.9039   22.6427  -77.0577 H   0  0  0  0  0  0  0  0  0  0  0  0
   94.1875   22.3266  -78.7785 H   0  0  0  0  0  0  0  0  0  0  0  0
   93.9024   19.9164  -78.3300 H   0  0  0  0  0  0  0  0  0  0  0  0
   96.0782   21.2491  -76.7483 H   0  0  0  0  0  0  0  0  0  0  0  0
   96.1289   20.8968  -78.4589 H   0  0  0  0  0  0  0  0  0  0  0  0
   96.0854   19.5908  -77.2989 H   0  0  0  0  0  0  0  0  0  0  0  0
   93.9485   20.7942  -75.4515 H   0  0  0  0  0  0  0  0  0  0  0  0
   93.9931   19.1390  -76.0096 H   0  0  0  0  0  0  0  0  0  0  0  0
   92.5706   20.1156  -76.2847 H   0  0  0  0  0  0  0  0  0  0  0  0
   90.8926   23.3670  -79.8836 H   0  0  0  0  0  0  0  0  0  0  0  0
   90.4262   25.6808  -78.0859 H   0  0  0  0  0  0  0  0  0  0  0  0
   89.2258   25.0882  -79.2088 H   0  0  0  0  0  0  0  0  0  0  0  0
   90.6823   25.8462  -79.8064 H   0  0  0  0  0  0  0  0  0  0  0  0
  1 29  1  0  0  0  0
  1 30  1  0  0  0  0
  1 31  1  0  0  0  0
  2  4  1  0  0  0  0
  2  1  1  0  0  0  0
  3  2  2  0  0  0  0
  4 32  1  0  0  0  0
  5  6  1  0  0  0  0
  5  4  1  0  0  0  0
  5 33  1  6  0  0  0
  6  7  2  0  0  0  0
  8  5  1  0  0  0  0
  8 34  1  0  0  0  0
  8 35  1  0  0  0  0
  8 36  1  0  0  0  0
  9 10  1  0  0  0  0
  9  6  1  0  0  0  0
  9 37  1  0  0  0  0
 10 11  1  0  0  0  0
 10 38  1  1  0  0  0
 11 12  2  0  0  0  0
 13 10  1  0  0  0  0
 13 39  1  0  0  0  0
 13 40  1  0  0  0  0
 13 41  1  0  0  0  0
 14 11  1  0  0  0  0
 14 15  1  0  0  0  0
 14 42  1  0  0  0  0
 15 16  1  0  0  0  0
 15 43  1  6  0  0  0
 16 19  1  0  0  0  0
 16 17  2  0  0  0  0
 18 15  1  0  0  0  0
 18 44  1  0  0  0  0
 18 45  1  0  0  0  0
 18 46  1  0  0  0  0
 19 20  1  0  0  0  0
 19 47  1  0  0  0  0
 20 21  1  0  0  0  0
 20 23  1  0  0  0  0
 20 48  1  1  0  0  0
 21 22  2  0  0  0  0
 23 24  1  0  0  0  0
 23 49  1  0  0  0  0
 23 50  1  0  0  0  0
 24 25  1  0  0  0  0
 24 26  1  0  0  0  0
 24 51  1  0  0  0  0
 25 52  1  0  0  0  0
 25 53  1  0  0  0  0
 25 54  1  0  0  0  0
 26 55  1  0  0  0  0
 26 56  1  0  0  0  0
 26 57  1  0  0  0  0
 27 28  1  0  0  0  0
 27 21  1  0  0  0  0
 27 58  1  0  0  0  0
 28 59  1  0  0  0  0
 28 60  1  0  0  0  0
 28 61  1  0  0  0  0
M  END
>  <MODEL>
       0

$$$$
