selected_4mers/AAAR/155_noH.pdb
 OpenBabel03042517503D

 66 65  0  0  1  0  0  0  0  0999 V2000
   24.4410    9.8170   -3.5510 C   0  0  0  0  0  0  0  0  0  0  0  0
   24.7710    8.5180   -2.8130 C   0  0  0  0  0  0  0  0  0  0  0  0
   23.9660    7.5760   -2.8130 O   0  0  0  0  0  0  0  0  0  0  0  0
   25.9410    8.4410   -2.1780 N   0  0  0  0  0  0  0  0  0  0  0  0
   26.3140    7.2250   -1.4690 C   0  0  2  0  0  0  0  0  0  0  0  0
   25.2820    6.8630   -0.4100 C   0  0  0  0  0  0  0  0  0  0  0  0
   24.9940    5.6970   -0.1710 O   0  0  0  0  0  0  0  0  0  0  0  0
   27.6820    7.4080   -0.8100 C   0  0  0  0  0  0  0  0  0  0  0  0
   24.7940    7.8890    0.3150 N   0  0  0  0  0  0  0  0  0  0  0  0
   23.8870    7.6220    1.4270 C   0  0  2  0  0  0  0  0  0  0  0  0
   22.5060    7.1760    1.0040 C   0  0  0  0  0  0  0  0  0  0  0  0
   21.8310    6.4610    1.7450 O   0  0  0  0  0  0  0  0  0  0  0  0
   23.8070    8.8600    2.3130 C   0  0  0  0  0  0  0  0  0  0  0  0
   22.0290    7.6590   -0.1520 N   0  0  0  0  0  0  0  0  0  0  0  0
   20.7410    7.2460   -0.7000 C   0  0  2  0  0  0  0  0  0  0  0  0
   19.6120    7.3730    0.3400 C   0  0  0  0  0  0  0  0  0  0  0  0
   18.7350    6.5040    0.4420 O   0  0  0  0  0  0  0  0  0  0  0  0
   20.8210    5.8340   -1.2800 C   0  0  0  0  0  0  0  0  0  0  0  0
   19.5830    8.4840    1.0640 N   0  0  0  0  0  0  0  0  0  0  0  0
   18.5640    8.6500    2.0720 C   0  0  2  0  0  0  0  0  0  0  0  0
   17.1910    8.6890    1.4110 C   0  0  0  0  0  0  0  0  0  0  0  0
   17.0230    9.1960    0.3120 O   0  0  0  0  0  0  0  0  0  0  0  0
   18.8160    9.9190    2.8880 C   0  0  0  0  0  0  0  0  0  0  0  0
   20.1520    9.8860    3.6560 C   0  0  0  0  0  0  0  0  0  0  0  0
   20.3800    8.6190    4.4720 C   0  0  0  0  0  0  0  0  0  0  0  0
   19.2700    8.4310    5.4010 N   0  0  0  0  0  0  0  0  0  0  0  0
   18.8360    7.2760    5.8970 C   0  0  0  0  0  0  0  0  0  0  0  0
   19.3560    6.1300    5.5510 N   0  0  0  0  0  0  0  0  0  0  0  0
   17.7890    7.2700    6.7030 N   0  0  0  0  0  0  0  0  0  0  0  0
   16.1620    8.1560    2.0900 N   0  0  0  0  0  0  0  0  0  0  0  0
   14.8650    8.0250    1.4450 C   0  0  0  0  0  0  0  0  0  0  0  0
   23.4777    9.7322   -4.0090 H   0  0  0  0  0  0  0  0  0  0  0  0
   25.1794    9.9968   -4.3042 H   0  0  0  0  0  0  0  0  0  0  0  0
   24.4351   10.6305   -2.8559 H   0  0  0  0  0  0  0  0  0  0  0  0
   26.5556    9.2100   -2.1886 H   0  0  0  0  0  0  0  0  0  0  0  0
   26.3581    6.4273   -2.1807 H   0  0  0  0  0  0  0  0  0  0  0  0
   27.6317    8.2066   -0.0997 H   0  0  0  0  0  0  0  0  0  0  0  0
   28.4101    7.6417   -1.5585 H   0  0  0  0  0  0  0  0  0  0  0  0
   27.9613    6.5037   -0.3108 H   0  0  0  0  0  0  0  0  0  0  0  0
   25.0482    8.8145    0.0955 H   0  0  0  0  0  0  0  0  0  0  0  0
   24.2941    6.7953    1.9709 H   0  0  0  0  0  0  0  0  0  0  0  0
   23.3982    9.6743    1.7520 H   0  0  0  0  0  0  0  0  0  0  0  0
   24.7877    9.1186    2.6539 H   0  0  0  0  0  0  0  0  0  0  0  0
   23.1790    8.6561    3.1550 H   0  0  0  0  0  0  0  0  0  0  0  0
   22.5672    8.3163   -0.6494 H   0  0  0  0  0  0  0  0  0  0  0  0
   20.4999    7.9126   -1.5015 H   0  0  0  0  0  0  0  0  0  0  0  0
   21.0614    5.1414   -0.5006 H   0  0  0  0  0  0  0  0  0  0  0  0
   21.5799    5.8004   -2.0336 H   0  0  0  0  0  0  0  0  0  0  0  0
   19.8777    5.5718   -1.7118 H   0  0  0  0  0  0  0  0  0  0  0  0
   20.2522    9.1905    0.9146 H   0  0  0  0  0  0  0  0  0  0  0  0
   18.5974    7.8185    2.7446 H   0  0  0  0  0  0  0  0  0  0  0  0
   18.0199   10.0343    3.5936 H   0  0  0  0  0  0  0  0  0  0  0  0
   18.8623   10.7376    2.2005 H   0  0  0  0  0  0  0  0  0  0  0  0
   20.1748   10.7221    4.3233 H   0  0  0  0  0  0  0  0  0  0  0  0
   20.9276    9.9177    2.9195 H   0  0  0  0  0  0  0  0  0  0  0  0
   21.2936    8.7086    5.0217 H   0  0  0  0  0  0  0  0  0  0  0  0
   20.4402    7.7775    3.8139 H   0  0  0  0  0  0  0  0  0  0  0  0
   18.7810    9.2640    5.6980 H   0  0  0  0  0  0  0  0  0  0  0  0
   20.1365    6.1045    4.9515 H   0  0  0  0  0  0  0  0  0  0  0  0
   18.9677    5.2910    5.8895 H   0  0  0  0  0  0  0  0  0  0  0  0
   17.3764    8.1198    6.9803 H   0  0  0  0  0  0  0  0  0  0  0  0
   17.4215    6.4158    7.0262 H   0  0  0  0  0  0  0  0  0  0  0  0
   16.2850    7.8556    3.0194 H   0  0  0  0  0  0  0  0  0  0  0  0
   14.9241    8.4018    0.4453 H   0  0  0  0  0  0  0  0  0  0  0  0
   14.1356    8.5832    1.9940 H   0  0  0  0  0  0  0  0  0  0  0  0
   14.5810    6.9936    1.4212 H   0  0  0  0  0  0  0  0  0  0  0  0
  1  2  1  0  0  0  0
  1 32  1  0  0  0  0
  1 33  1  0  0  0  0
  1 34  1  0  0  0  0
  2  3  2  0  0  0  0
  2  4  1  0  0  0  0
  4  5  1  0  0  0  0
  4 35  1  0  0  0  0
  5  8  1  0  0  0  0
  5  6  1  0  0  0  0
  5 36  1  6  0  0  0
  6  7  2  0  0  0  0
  6  9  1  0  0  0  0
  8 37  1  0  0  0  0
  8 38  1  0  0  0  0
  8 39  1  0  0  0  0
  9 10  1  0  0  0  0
  9 40  1  0  0  0  0
 10 13  1  0  0  0  0
 10 41  1  1  0  0  0
 11 10  1  0  0  0  0
 11 12  2  0  0  0  0
 13 42  1  0  0  0  0
 13 43  1  0  0  0  0
 13 44  1  0  0  0  0
 14 11  1  0  0  0  0
 14 45  1  0  0  0  0
 15 14  1  0  0  0  0
 15 16  1  0  0  0  0
 15 46  1  6  0  0  0
 16 17  2  0  0  0  0
 16 19  1  0  0  0  0
 18 15  1  0  0  0  0
 18 47  1  0  0  0  0
 18 48  1  0  0  0  0
 18 49  1  0  0  0  0
 19 20  1  0  0  0  0
 19 50  1  0  0  0  0
 20 23  1  0  0  0  0
 20 51  1  1  0  0  0
 21 20  1  0  0  0  0
 21 30  1  0  0  0  0
 22 21  2  0  0  0  0
 23 24  1  0  0  0  0
 23 52  1  0  0  0  0
 23 53  1  0  0  0  0
 24 25  1  0  0  0  0
 24 54  1  0  0  0  0
 24 55  1  0  0  0  0
 25 26  1  0  0  0  0
 25 56  1  0  0  0  0
 25 57  1  0  0  0  0
 26 27  1  0  0  0  0
 26 58  1  0  0  0  0
 27 29  1  0  0  0  0
 28 27  2  0  0  0  0
 28 59  1  0  0  0  0
 28 60  1  0  0  0  0
 29 61  1  0  0  0  0
 29 62  1  0  0  0  0
 30 63  1  0  0  0  0
 31 30  1  0  0  0  0
 31 64  1  0  0  0  0
 31 65  1  0  0  0  0
 31 66  1  0  0  0  0
M  CHG  1  28  1
M  END
>  <MODEL>
       0

$$$$
selected_4mers/AAAR/156_noH.pdb
 OpenBabel03042517503D

 66 65  0  0  1  0  0  0  0  0999 V2000
    8.8680   -4.0620   31.5260 C   0  0  0  0  0  0  0  0  0  0  0  0
    7.9890   -3.0520   30.7830 C   0  0  0  0  0  0  0  0  0  0  0  0
    7.7000   -3.2190   29.5930 O   0  0  0  0  0  0  0  0  0  0  0  0
    7.5340   -2.0100   31.4780 N   0  0  0  0  0  0  0  0  0  0  0  0
    6.7420   -0.9720   30.8280 C   0  0  2  0  0  0  0  0  0  0  0  0
    7.5510   -0.2660   29.7350 C   0  0  0  0  0  0  0  0  0  0  0  0
    7.0330    0.0120   28.6460 O   0  0  0  0  0  0  0  0  0  0  0  0
    6.2370    0.0240   31.8590 C   0  0  0  0  0  0  0  0  0  0  0  0
    8.8210    0.0230   30.0240 N   0  0  0  0  0  0  0  0  0  0  0  0
    9.6710    0.6580   29.0230 C   0  0  2  0  0  0  0  0  0  0  0  0
    9.8950   -0.2830   27.8320 C   0  0  0  0  0  0  0  0  0  0  0  0
    9.8870    0.1480   26.6640 O   0  0  0  0  0  0  0  0  0  0  0  0
   10.9860    1.0850   29.6770 C   0  0  0  0  0  0  0  0  0  0  0  0
   10.0940   -1.5770   28.1340 N   0  0  0  0  0  0  0  0  0  0  0  0
   10.2510   -2.5720   27.0850 C   0  0  2  0  0  0  0  0  0  0  0  0
    8.9880   -2.6500   26.2060 C   0  0  0  0  0  0  0  0  0  0  0  0
    9.1040   -2.7750   24.9720 O   0  0  0  0  0  0  0  0  0  0  0  0
   10.5680   -3.9300   27.6810 C   0  0  0  0  0  0  0  0  0  0  0  0
    7.8060   -2.6120   26.8150 N   0  0  0  0  0  0  0  0  0  0  0  0
    6.5760   -2.6510   26.0210 C   0  0  2  0  0  0  0  0  0  0  0  0
    6.4920   -1.4330   25.1260 C   0  0  0  0  0  0  0  0  0  0  0  0
    6.1110   -1.5370   23.9420 O   0  0  0  0  0  0  0  0  0  0  0  0
    5.3060   -2.6960   26.9220 C   0  0  0  0  0  0  0  0  0  0  0  0
    5.1210   -3.9960   27.6430 C   0  0  0  0  0  0  0  0  0  0  0  0
    3.7530   -4.0200   28.3180 C   0  0  0  0  0  0  0  0  0  0  0  0
    3.5080   -2.9740   29.2870 N   0  0  0  0  0  0  0  0  0  0  0  0
    3.8540   -3.0480   30.5710 C   0  0  0  0  0  0  0  0  0  0  0  0
    4.5880   -4.0590   31.0330 N   0  0  0  0  0  0  0  0  0  0  0  0
    3.4670   -2.0950   31.4010 N   0  0  0  0  0  0  0  0  0  0  0  0
    6.7960   -0.2640   25.6650 N   0  0  0  0  0  0  0  0  0  0  0  0
    6.6860    0.9510   24.8850 C   0  0  0  0  0  0  0  0  0  0  0  0
    9.1614   -4.8415   30.8543 H   0  0  0  0  0  0  0  0  0  0  0  0
    8.3171   -4.4824   32.3413 H   0  0  0  0  0  0  0  0  0  0  0  0
    9.7396   -3.5679   31.9016 H   0  0  0  0  0  0  0  0  0  0  0  0
    7.7344   -1.9402   32.4394 H   0  0  0  0  0  0  0  0  0  0  0  0
    5.8984   -1.4338   30.3591 H   0  0  0  0  0  0  0  0  0  0  0  0
    7.0700    0.4951   32.3376 H   0  0  0  0  0  0  0  0  0  0  0  0
    5.6479   -0.4880   32.5909 H   0  0  0  0  0  0  0  0  0  0  0  0
    5.6376    0.7661   31.3743 H   0  0  0  0  0  0  0  0  0  0  0  0
    9.1846   -0.1924   30.9132 H   0  0  0  0  0  0  0  0  0  0  0  0
    9.1898    1.5332   28.6390 H   0  0  0  0  0  0  0  0  0  0  0  0
   11.4855    0.2238   30.0690 H   0  0  0  0  0  0  0  0  0  0  0  0
   10.7825    1.7719   30.4718 H   0  0  0  0  0  0  0  0  0  0  0  0
   11.6099    1.5581   28.9477 H   0  0  0  0  0  0  0  0  0  0  0  0
   10.1340   -1.8552   29.0775 H   0  0  0  0  0  0  0  0  0  0  0  0
   11.0704   -2.2734   26.4650 H   0  0  0  0  0  0  0  0  0  0  0  0
    9.7573   -4.2438   28.3048 H   0  0  0  0  0  0  0  0  0  0  0  0
   11.4622   -3.8633   28.2649 H   0  0  0  0  0  0  0  0  0  0  0  0
   10.7082   -4.6411   26.8938 H   0  0  0  0  0  0  0  0  0  0  0  0
    7.7582   -2.5578   27.7968 H   0  0  0  0  0  0  0  0  0  0  0  0
    6.6104   -3.5437   25.4321 H   0  0  0  0  0  0  0  0  0  0  0  0
    4.4484   -2.5278   26.3046 H   0  0  0  0  0  0  0  0  0  0  0  0
    5.4277   -1.9401   27.6694 H   0  0  0  0  0  0  0  0  0  0  0  0
    5.8852   -4.1034   28.3842 H   0  0  0  0  0  0  0  0  0  0  0  0
    5.1842   -4.8019   26.9420 H   0  0  0  0  0  0  0  0  0  0  0  0
    3.6505   -4.9605   28.8179 H   0  0  0  0  0  0  0  0  0  0  0  0
    3.0410   -3.8619   27.5351 H   0  0  0  0  0  0  0  0  0  0  0  0
    3.0450   -2.1340   28.9700 H   0  0  0  0  0  0  0  0  0  0  0  0
    4.8811   -4.7737   30.4226 H   0  0  0  0  0  0  0  0  0  0  0  0
    4.8374   -4.0915   31.9848 H   0  0  0  0  0  0  0  0  0  0  0  0
    2.9243   -1.3436   31.0691 H   0  0  0  0  0  0  0  0  0  0  0  0
    3.7215   -2.1365   32.3511 H   0  0  0  0  0  0  0  0  0  0  0  0
    7.0985   -0.2198   26.6008 H   0  0  0  0  0  0  0  0  0  0  0  0
    6.3456    0.7123   23.8991 H   0  0  0  0  0  0  0  0  0  0  0  0
    7.6434    1.4253   24.8267 H   0  0  0  0  0  0  0  0  0  0  0  0
    5.9878    1.6132   25.3529 H   0  0  0  0  0  0  0  0  0  0  0  0
  1  2  1  0  0  0  0
  1 32  1  0  0  0  0
  1 33  1  0  0  0  0
  1 34  1  0  0  0  0
  2  3  2  0  0  0  0
  2  4  1  0  0  0  0
  4  5  1  0  0  0  0
  4 35  1  0  0  0  0
  5  8  1  0  0  0  0
  5  6  1  0  0  0  0
  5 36  1  6  0  0  0
  6  7  2  0  0  0  0
  6  9  1  0  0  0  0
  8 37  1  0  0  0  0
  8 38  1  0  0  0  0
  8 39  1  0  0  0  0
  9 10  1  0  0  0  0
  9 40  1  0  0  0  0
 10 13  1  0  0  0  0
 10 41  1  1  0  0  0
 11 10  1  0  0  0  0
 11 12  2  0  0  0  0
 13 42  1  0  0  0  0
 13 43  1  0  0  0  0
 13 44  1  0  0  0  0
 14 11  1  0  0  0  0
 14 45  1  0  0  0  0
 15 14  1  0  0  0  0
 15 16  1  0  0  0  0
 15 46  1  6  0  0  0
 16 17  2  0  0  0  0
 16 19  1  0  0  0  0
 18 15  1  0  0  0  0
 18 47  1  0  0  0  0
 18 48  1  0  0  0  0
 18 49  1  0  0  0  0
 19 20  1  0  0  0  0
 19 50  1  0  0  0  0
 20 23  1  0  0  0  0
 20 51  1  1  0  0  0
 21 20  1  0  0  0  0
 21 30  1  0  0  0  0
 22 21  2  0  0  0  0
 23 24  1  0  0  0  0
 23 52  1  0  0  0  0
 23 53  1  0  0  0  0
 24 25  1  0  0  0  0
 24 54  1  0  0  0  0
 24 55  1  0  0  0  0
 25 26  1  0  0  0  0
 25 56  1  0  0  0  0
 25 57  1  0  0  0  0
 26 27  1  0  0  0  0
 26 58  1  0  0  0  0
 27 29  1  0  0  0  0
 28 27  2  0  0  0  0
 28 59  1  0  0  0  0
 28 60  1  0  0  0  0
 29 61  1  0  0  0  0
 29 62  1  0  0  0  0
 30 63  1  0  0  0  0
 31 30  1  0  0  0  0
 31 64  1  0  0  0  0
 31 65  1  0  0  0  0
 31 66  1  0  0  0  0
M  CHG  1  28  1
M  END
>  <MODEL>
       0

$$$$
selected_4mers/AAAR/157_noH.pdb
 OpenBabel03042517503D

 66 65  0  0  1  0  0  0  0  0999 V2000
   28.9660   33.4150    6.0180 C   0  0  0  0  0  0  0  0  0  0  0  0
   29.8360   32.2090    6.4060 C   0  0  0  0  0  0  0  0  0  0  0  0
   30.9640   32.0700    5.9180 O   0  0  0  0  0  0  0  0  0  0  0  0
   29.3040   31.3320    7.2550 N   0  0  0  0  0  0  0  0  0  0  0  0
   30.0780   30.2270    7.8170 C   0  0  2  0  0  0  0  0  0  0  0  0
   29.7500   28.8630    7.1850 C   0  0  0  0  0  0  0  0  0  0  0  0
   28.6550   28.6500    6.6270 O   0  0  0  0  0  0  0  0  0  0  0  0
   29.8670   30.1670    9.3380 C   0  0  0  0  0  0  0  0  0  0  0  0
   30.6970   27.9360    7.3240 N   0  0  0  0  0  0  0  0  0  0  0  0
   30.5750   26.5980    6.7350 C   0  0  2  0  0  0  0  0  0  0  0  0
   29.9540   25.7150    7.7820 C   0  0  0  0  0  0  0  0  0  0  0  0
   30.5630   24.7700    8.2570 O   0  0  0  0  0  0  0  0  0  0  0  0
   31.9250   26.0680    6.2940 C   0  0  0  0  0  0  0  0  0  0  0  0
   28.7400   26.0760    8.1670 N   0  0  0  0  0  0  0  0  0  0  0  0
   28.0930   25.4510    9.2850 C   0  0  2  0  0  0  0  0  0  0  0  0
   27.3350   24.1750    8.9030 C   0  0  0  0  0  0  0  0  0  0  0  0
   26.9640   23.4150    9.7740 O   0  0  0  0  0  0  0  0  0  0  0  0
   27.1830   26.4730    9.9780 C   0  0  0  0  0  0  0  0  0  0  0  0
   27.1020   23.9390    7.6140 N   0  0  0  0  0  0  0  0  0  0  0  0
   26.3670   22.7380    7.1800 C   0  0  2  0  0  0  0  0  0  0  0  0
   27.2980   21.5070    7.1650 C   0  0  0  0  0  0  0  0  0  0  0  0
   28.2570   21.4450    6.3890 O   0  0  0  0  0  0  0  0  0  0  0  0
   25.7370   22.9970    5.8040 C   0  0  0  0  0  0  0  0  0  0  0  0
   24.6330   22.0340    5.3500 C   0  0  0  0  0  0  0  0  0  0  0  0
   24.2120   22.3860    3.9020 C   0  0  0  0  0  0  0  0  0  0  0  0
   23.2140   21.4810    3.3220 N   0  0  0  0  0  0  0  0  0  0  0  0
   23.3290   20.8120    2.1680 C   0  0  0  0  0  0  0  0  0  0  0  0
   22.3280   20.0290    1.7810 N   0  0  0  0  0  0  0  0  0  0  0  0
   24.4130   20.9010    1.3880 N   0  0  0  0  0  0  0  0  0  0  0  0
   26.9970   20.5170    8.0090 N   0  0  0  0  0  0  0  0  0  0  0  0
   27.8470   19.3350    8.1620 C   0  0  0  0  0  0  0  0  0  0  0  0
   29.5050   34.0389    5.3359 H   0  0  0  0  0  0  0  0  0  0  0  0
   28.7208   33.9751    6.8961 H   0  0  0  0  0  0  0  0  0  0  0  0
   28.0665   33.0707    5.5518 H   0  0  0  0  0  0  0  0  0  0  0  0
   28.3589   31.4311    7.5124 H   0  0  0  0  0  0  0  0  0  0  0  0
   31.1048   30.4247    7.5901 H   0  0  0  0  0  0  0  0  0  0  0  0
   28.8366   29.9689    9.5476 H   0  0  0  0  0  0  0  0  0  0  0  0
   30.1460   31.1035    9.7740 H   0  0  0  0  0  0  0  0  0  0  0  0
   30.4715   29.3869    9.7514 H   0  0  0  0  0  0  0  0  0  0  0  0
   31.5062   28.1565    7.8396 H   0  0  0  0  0  0  0  0  0  0  0  0
   29.9645   26.6249    5.8567 H   0  0  0  0  0  0  0  0  0  0  0  0
   32.5817   26.0190    7.1373 H   0  0  0  0  0  0  0  0  0  0  0  0
   32.3408   26.7213    5.5556 H   0  0  0  0  0  0  0  0  0  0  0  0
   31.8054   25.0896    5.8778 H   0  0  0  0  0  0  0  0  0  0  0  0
   28.2709   26.7886    7.6757 H   0  0  0  0  0  0  0  0  0  0  0  0
   28.8500   25.1311    9.9702 H   0  0  0  0  0  0  0  0  0  0  0  0
   26.4244   26.7955    9.2958 H   0  0  0  0  0  0  0  0  0  0  0  0
   27.7647   27.3156   10.2888 H   0  0  0  0  0  0  0  0  0  0  0  0
   26.7251   26.0209   10.8329 H   0  0  0  0  0  0  0  0  0  0  0  0
   27.4264   24.5779    6.9389 H   0  0  0  0  0  0  0  0  0  0  0  0
   25.5811   22.5264    7.8746 H   0  0  0  0  0  0  0  0  0  0  0  0
   25.3191   23.9819    5.8208 H   0  0  0  0  0  0  0  0  0  0  0  0
   26.5334   22.8561    5.1034 H   0  0  0  0  0  0  0  0  0  0  0  0
   24.9996   21.0293    5.3816 H   0  0  0  0  0  0  0  0  0  0  0  0
   23.7886   22.1235    6.0011 H   0  0  0  0  0  0  0  0  0  0  0  0
   23.8050   23.3756    3.9034 H   0  0  0  0  0  0  0  0  0  0  0  0
   25.0913   22.2962    3.2990 H   0  0  0  0  0  0  0  0  0  0  0  0
   22.3590   21.3500    3.8430 H   0  0  0  0  0  0  0  0  0  0  0  0
   22.3930   19.5286    0.9357 H   0  0  0  0  0  0  0  0  0  0  0  0
   21.5212   19.9492    2.3395 H   0  0  0  0  0  0  0  0  0  0  0  0
   24.4571   20.3918    0.5466 H   0  0  0  0  0  0  0  0  0  0  0  0
   25.1662   21.4756    1.6557 H   0  0  0  0  0  0  0  0  0  0  0  0
   26.1752   20.5843    8.5469 H   0  0  0  0  0  0  0  0  0  0  0  0
   28.6928   19.4173    7.5118 H   0  0  0  0  0  0  0  0  0  0  0  0
   27.2875   18.4584    7.9102 H   0  0  0  0  0  0  0  0  0  0  0  0
   28.1820   19.2654    9.1758 H   0  0  0  0  0  0  0  0  0  0  0  0
  1  2  1  0  0  0  0
  1 32  1  0  0  0  0
  1 33  1  0  0  0  0
  1 34  1  0  0  0  0
  2  3  2  0  0  0  0
  2  4  1  0  0  0  0
  4  5  1  0  0  0  0
  4 35  1  0  0  0  0
  5  8  1  0  0  0  0
  5  6  1  0  0  0  0
  5 36  1  6  0  0  0
  6  7  2  0  0  0  0
  6  9  1  0  0  0  0
  8 37  1  0  0  0  0
  8 38  1  0  0  0  0
  8 39  1  0  0  0  0
  9 10  1  0  0  0  0
  9 40  1  0  0  0  0
 10 13  1  0  0  0  0
 10 41  1  1  0  0  0
 11 10  1  0  0  0  0
 11 12  2  0  0  0  0
 13 42  1  0  0  0  0
 13 43  1  0  0  0  0
 13 44  1  0  0  0  0
 14 11  1  0  0  0  0
 14 45  1  0  0  0  0
 15 14  1  0  0  0  0
 15 16  1  0  0  0  0
 15 46  1  6  0  0  0
 16 17  2  0  0  0  0
 16 19  1  0  0  0  0
 18 15  1  0  0  0  0
 18 47  1  0  0  0  0
 18 48  1  0  0  0  0
 18 49  1  0  0  0  0
 19 20  1  0  0  0  0
 19 50  1  0  0  0  0
 20 23  1  0  0  0  0
 20 51  1  1  0  0  0
 21 20  1  0  0  0  0
 21 30  1  0  0  0  0
 22 21  2  0  0  0  0
 23 24  1  0  0  0  0
 23 52  1  0  0  0  0
 23 53  1  0  0  0  0
 24 25  1  0  0  0  0
 24 54  1  0  0  0  0
 24 55  1  0  0  0  0
 25 26  1  0  0  0  0
 25 56  1  0  0  0  0
 25 57  1  0  0  0  0
 26 27  1  0  0  0  0
 26 58  1  0  0  0  0
 27 29  1  0  0  0  0
 28 27  2  0  0  0  0
 28 59  1  0  0  0  0
 28 60  1  0  0  0  0
 29 61  1  0  0  0  0
 29 62  1  0  0  0  0
 30 63  1  0  0  0  0
 31 30  1  0  0  0  0
 31 64  1  0  0  0  0
 31 65  1  0  0  0  0
 31 66  1  0  0  0  0
M  CHG  1  28  1
M  END
>  <MODEL>
       0

$$$$
selected_4mers/AAAR/158_noH.pdb
 OpenBabel03042517503D

 66 65  0  0  1  0  0  0  0  0999 V2000
   29.4440   46.7200   53.8850 C   0  0  0  0  0  0  0  0  0  0  0  0
   28.0450   46.3720   53.4040 C   0  0  0  0  0  0  0  0  0  0  0  0
   27.2220   45.8330   54.1520 O   0  0  0  0  0  0  0  0  0  0  0  0
   27.7380   46.7480   52.1570 N   0  0  0  0  0  0  0  0  0  0  0  0
   26.4600   46.4130   51.5460 C   0  0  2  0  0  0  0  0  0  0  0  0
   26.5160   45.0000   50.9600 C   0  0  0  0  0  0  0  0  0  0  0  0
   27.5940   44.5130   50.5590 O   0  0  0  0  0  0  0  0  0  0  0  0
   26.1220   47.4050   50.4420 C   0  0  0  0  0  0  0  0  0  0  0  0
   25.3330   44.3690   50.8630 N   0  0  0  0  0  0  0  0  0  0  0  0
   25.1820   43.0770   50.2200 C   0  0  2  0  0  0  0  0  0  0  0  0
   23.9590   43.1250   49.3190 C   0  0  0  0  0  0  0  0  0  0  0  0
   22.8940   43.5400   49.7110 O   0  0  0  0  0  0  0  0  0  0  0  0
   25.0420   41.9490   51.2230 C   0  0  0  0  0  0  0  0  0  0  0  0
   24.1650   42.6340   48.0880 N   0  0  0  0  0  0  0  0  0  0  0  0
   23.1130   42.5170   47.0780 C   0  0  2  0  0  0  0  0  0  0  0  0
   22.9410   41.0180   46.7580 C   0  0  0  0  0  0  0  0  0  0  0  0
   23.9330   40.3130   46.5550 O   0  0  0  0  0  0  0  0  0  0  0  0
   23.4720   43.2810   45.8240 C   0  0  0  0  0  0  0  0  0  0  0  0
   21.7000   40.5540   46.6970 N   0  0  0  0  0  0  0  0  0  0  0  0
   21.3760   39.1510   46.4980 C   0  0  2  0  0  0  0  0  0  0  0  0
   20.4720   39.0240   45.2770 C   0  0  0  0  0  0  0  0  0  0  0  0
   19.4250   39.6780   45.2250 O   0  0  0  0  0  0  0  0  0  0  0  0
   20.7100   38.5870   47.7500 C   0  0  0  0  0  0  0  0  0  0  0  0
   20.3400   37.1060   47.7080 C   0  0  0  0  0  0  0  0  0  0  0  0
   19.9150   36.6400   49.0780 C   0  0  0  0  0  0  0  0  0  0  0  0
   19.5780   35.2270   49.1000 N   0  0  0  0  0  0  0  0  0  0  0  0
   18.3970   34.6940   48.7740 C   0  0  0  0  0  0  0  0  0  0  0  0
   17.3630   35.4770   48.5070 N   0  0  0  0  0  0  0  0  0  0  0  0
   18.2450   33.3760   48.7690 N   0  0  0  0  0  0  0  0  0  0  0  0
   20.8580   38.1600   44.3400 N   0  0  0  0  0  0  0  0  0  0  0  0
   20.0430   37.8480   43.1710 C   0  0  0  0  0  0  0  0  0  0  0  0
   29.9922   47.1761   53.0873 H   0  0  0  0  0  0  0  0  0  0  0  0
   29.9456   45.8283   54.1982 H   0  0  0  0  0  0  0  0  0  0  0  0
   29.3792   47.4006   54.7081 H   0  0  0  0  0  0  0  0  0  0  0  0
   28.3951   47.2659   51.6381 H   0  0  0  0  0  0  0  0  0  0  0  0
   25.7018   46.4582   52.2996 H   0  0  0  0  0  0  0  0  0  0  0  0
   26.8762   47.3657   49.6840 H   0  0  0  0  0  0  0  0  0  0  0  0
   26.0786   48.3928   50.8511 H   0  0  0  0  0  0  0  0  0  0  0  0
   25.1736   47.1538   50.0149 H   0  0  0  0  0  0  0  0  0  0  0  0
   24.5352   44.8018   51.2444 H   0  0  0  0  0  0  0  0  0  0  0  0
   26.0654   42.8788   49.6497 H   0  0  0  0  0  0  0  0  0  0  0  0
   24.1668   42.1073   51.8179 H   0  0  0  0  0  0  0  0  0  0  0  0
   25.9042   41.9257   51.8562 H   0  0  0  0  0  0  0  0  0  0  0  0
   24.9561   41.0179   50.7029 H   0  0  0  0  0  0  0  0  0  0  0  0
   25.0731   42.3363   47.8513 H   0  0  0  0  0  0  0  0  0  0  0  0
   22.2013   42.9340   47.4520 H   0  0  0  0  0  0  0  0  0  0  0  0
   24.3823   42.8921   45.4178 H   0  0  0  0  0  0  0  0  0  0  0  0
   23.6011   44.3162   46.0617 H   0  0  0  0  0  0  0  0  0  0  0  0
   22.6867   43.1754   45.1049 H   0  0  0  0  0  0  0  0  0  0  0  0
   20.9582   41.1944   46.7916 H   0  0  0  0  0  0  0  0  0  0  0  0
   22.2673   38.5848   46.3252 H   0  0  0  0  0  0  0  0  0  0  0  0
   19.8119   39.1431   47.9207 H   0  0  0  0  0  0  0  0  0  0  0  0
   21.4391   38.6780   48.5278 H   0  0  0  0  0  0  0  0  0  0  0  0
   21.1885   36.5380   47.3882 H   0  0  0  0  0  0  0  0  0  0  0  0
   19.5299   36.9663   47.0231 H   0  0  0  0  0  0  0  0  0  0  0  0
   19.0575   37.2030   49.3822 H   0  0  0  0  0  0  0  0  0  0  0  0
   20.7381   36.7905   49.7448 H   0  0  0  0  0  0  0  0  0  0  0  0
   20.3050   34.5880   49.3890 H   0  0  0  0  0  0  0  0  0  0  0  0
   16.4943   35.0806   48.2672 H   0  0  0  0  0  0  0  0  0  0  0  0
   17.4629   36.4555   48.5483 H   0  0  0  0  0  0  0  0  0  0  0  0
   17.3754   32.9817   48.5290 H   0  0  0  0  0  0  0  0  0  0  0  0
   19.0018   32.7923   49.0053 H   0  0  0  0  0  0  0  0  0  0  0  0
   21.7296   37.7133   44.4404 H   0  0  0  0  0  0  0  0  0  0  0  0
   19.1339   38.4111   43.2094 H   0  0  0  0  0  0  0  0  0  0  0  0
   19.8150   36.8026   43.1639 H   0  0  0  0  0  0  0  0  0  0  0  0
   20.5823   38.1015   42.2823 H   0  0  0  0  0  0  0  0  0  0  0  0
  1  2  1  0  0  0  0
  1 32  1  0  0  0  0
  1 33  1  0  0  0  0
  1 34  1  0  0  0  0
  2  3  2  0  0  0  0
  2  4  1  0  0  0  0
  4  5  1  0  0  0  0
  4 35  1  0  0  0  0
  5  8  1  0  0  0  0
  5  6  1  0  0  0  0
  5 36  1  6  0  0  0
  6  7  2  0  0  0  0
  6  9  1  0  0  0  0
  8 37  1  0  0  0  0
  8 38  1  0  0  0  0
  8 39  1  0  0  0  0
  9 10  1  0  0  0  0
  9 40  1  0  0  0  0
 10 13  1  0  0  0  0
 10 41  1  1  0  0  0
 11 10  1  0  0  0  0
 11 12  2  0  0  0  0
 13 42  1  0  0  0  0
 13 43  1  0  0  0  0
 13 44  1  0  0  0  0
 14 11  1  0  0  0  0
 14 45  1  0  0  0  0
 15 14  1  0  0  0  0
 15 16  1  0  0  0  0
 15 46  1  6  0  0  0
 16 17  2  0  0  0  0
 16 19  1  0  0  0  0
 18 15  1  0  0  0  0
 18 47  1  0  0  0  0
 18 48  1  0  0  0  0
 18 49  1  0  0  0  0
 19 20  1  0  0  0  0
 19 50  1  0  0  0  0
 20 23  1  0  0  0  0
 20 51  1  1  0  0  0
 21 20  1  0  0  0  0
 21 30  1  0  0  0  0
 22 21  2  0  0  0  0
 23 24  1  0  0  0  0
 23 52  1  0  0  0  0
 23 53  1  0  0  0  0
 24 25  1  0  0  0  0
 24 54  1  0  0  0  0
 24 55  1  0  0  0  0
 25 26  1  0  0  0  0
 25 56  1  0  0  0  0
 25 57  1  0  0  0  0
 26 27  1  0  0  0  0
 26 58  1  0  0  0  0
 27 29  1  0  0  0  0
 28 27  2  0  0  0  0
 28 59  1  0  0  0  0
 28 60  1  0  0  0  0
 29 61  1  0  0  0  0
 29 62  1  0  0  0  0
 30 63  1  0  0  0  0
 31 30  1  0  0  0  0
 31 64  1  0  0  0  0
 31 65  1  0  0  0  0
 31 66  1  0  0  0  0
M  CHG  1  28  1
M  END
>  <MODEL>
       0

$$$$
selected_4mers/AAAR/159_noH.pdb
 OpenBabel03042517503D

 66 65  0  0  1  0  0  0  0  0999 V2000
   73.4650   30.5360   67.2180 C   0  0  0  0  0  0  0  0  0  0  0  0
   73.6450   29.0420   67.5630 C   0  0  0  0  0  0  0  0  0  0  0  0
   73.4790   28.1570   66.6930 O   0  0  0  0  0  0  0  0  0  0  0  0
   73.9610   28.7680   68.8220 N   0  0  0  0  0  0  0  0  0  0  0  0
   74.0630   27.3750   69.2740 C   0  0  2  0  0  0  0  0  0  0  0  0
   72.7120   26.6860   69.3190 C   0  0  0  0  0  0  0  0  0  0  0  0
   72.5820   25.5010   68.9820 O   0  0  0  0  0  0  0  0  0  0  0  0
   74.7850   27.3110   70.6410 C   0  0  0  0  0  0  0  0  0  0  0  0
   71.6940   27.4230   69.7480 N   0  0  0  0  0  0  0  0  0  0  0  0
   70.3310   26.9120   69.7650 C   0  0  2  0  0  0  0  0  0  0  0  0
   69.9100   26.5300   68.3500 C   0  0  0  0  0  0  0  0  0  0  0  0
   69.3330   25.4470   68.1060 O   0  0  0  0  0  0  0  0  0  0  0  0
   69.3420   27.9530   70.3500 C   0  0  0  0  0  0  0  0  0  0  0  0
   70.1810   27.4160   67.3850 N   0  0  0  0  0  0  0  0  0  0  0  0
   69.8440   27.1740   65.9900 C   0  0  2  0  0  0  0  0  0  0  0  0
   70.5750   25.9420   65.4850 C   0  0  0  0  0  0  0  0  0  0  0  0
   70.0090   25.0960   64.7900 O   0  0  0  0  0  0  0  0  0  0  0  0
   70.1690   28.3990   65.1050 C   0  0  0  0  0  0  0  0  0  0  0  0
   71.8420   25.8180   65.8510 N   0  0  0  0  0  0  0  0  0  0  0  0
   72.6100   24.6280   65.4660 C   0  0  2  0  0  0  0  0  0  0  0  0
   71.9180   23.3660   65.9460 C   0  0  0  0  0  0  0  0  0  0  0  0
   71.7810   22.3920   65.2100 O   0  0  0  0  0  0  0  0  0  0  0  0
   74.0290   24.7230   66.0050 C   0  0  0  0  0  0  0  0  0  0  0  0
   74.8100   23.3870   66.0130 C   0  0  0  0  0  0  0  0  0  0  0  0
   75.1550   22.8710   64.6640 C   0  0  0  0  0  0  0  0  0  0  0  0
   76.0060   23.7960   63.9010 N   0  0  0  0  0  0  0  0  0  0  0  0
   76.2540   23.6980   62.5900 C   0  0  0  0  0  0  0  0  0  0  0  0
   75.7800   22.6940   61.8620 N   0  0  0  0  0  0  0  0  0  0  0  0
   76.9830   24.6300   62.0090 N   0  0  0  0  0  0  0  0  0  0  0  0
   71.4750   23.3630   67.1970 N   0  0  0  0  0  0  0  0  0  0  0  0
   70.7930   22.1800   67.7130 C   0  0  0  0  0  0  0  0  0  0  0  0
   73.2135   30.6352   66.1827 H   0  0  0  0  0  0  0  0  0  0  0  0
   74.3768   31.0600   67.4153 H   0  0  0  0  0  0  0  0  0  0  0  0
   72.6800   30.9483   67.8169 H   0  0  0  0  0  0  0  0  0  0  0  0
   74.1279   29.5023   69.4562 H   0  0  0  0  0  0  0  0  0  0  0  0
   74.6476   26.8377   68.5567 H   0  0  0  0  0  0  0  0  0  0  0  0
   74.2133   27.8442   71.3716 H   0  0  0  0  0  0  0  0  0  0  0  0
   75.7546   27.7549   70.5534 H   0  0  0  0  0  0  0  0  0  0  0  0
   74.8864   26.2896   70.9434 H   0  0  0  0  0  0  0  0  0  0  0  0
   71.8657   28.3398   70.0631 H   0  0  0  0  0  0  0  0  0  0  0  0
   70.3060   26.0474   70.3948 H   0  0  0  0  0  0  0  0  0  0  0  0
   69.3458   28.8313   69.7388 H   0  0  0  0  0  0  0  0  0  0  0  0
   69.6412   28.2095   71.3448 H   0  0  0  0  0  0  0  0  0  0  0  0
   68.3565   27.5367   70.3701 H   0  0  0  0  0  0  0  0  0  0  0  0
   70.6239   28.2613   67.6270 H   0  0  0  0  0  0  0  0  0  0  0  0
   68.7892   27.0053   65.9288 H   0  0  0  0  0  0  0  0  0  0  0  0
   71.2198   28.5974   65.1426 H   0  0  0  0  0  0  0  0  0  0  0  0
   69.6319   29.2516   65.4649 H   0  0  0  0  0  0  0  0  0  0  0  0
   69.8803   28.1959   64.0949 H   0  0  0  0  0  0  0  0  0  0  0  0
   72.2702   26.5269   66.3834 H   0  0  0  0  0  0  0  0  0  0  0  0
   72.6630   24.5806   64.3984 H   0  0  0  0  0  0  0  0  0  0  0  0
   73.9798   25.0860   67.0103 H   0  0  0  0  0  0  0  0  0  0  0  0
   74.5589   25.3782   65.3455 H   0  0  0  0  0  0  0  0  0  0  0  0
   75.7191   23.5339   66.5579 H   0  0  0  0  0  0  0  0  0  0  0  0
   74.1672   22.6598   66.4633 H   0  0  0  0  0  0  0  0  0  0  0  0
   75.6741   21.9420   64.7757 H   0  0  0  0  0  0  0  0  0  0  0  0
   74.2408   22.7518   64.1210 H   0  0  0  0  0  0  0  0  0  0  0  0
   76.4340   24.5610   64.4030 H   0  0  0  0  0  0  0  0  0  0  0  0
   75.9787   22.6476   60.8989 H   0  0  0  0  0  0  0  0  0  0  0  0
   75.2298   21.9959   62.2853 H   0  0  0  0  0  0  0  0  0  0  0  0
   77.1759   24.5745   61.0452 H   0  0  0  0  0  0  0  0  0  0  0  0
   77.3346   25.3815   62.5389 H   0  0  0  0  0  0  0  0  0  0  0  0
   71.6052   24.1516   67.7719 H   0  0  0  0  0  0  0  0  0  0  0  0
   70.7473   21.4328   66.9485 H   0  0  0  0  0  0  0  0  0  0  0  0
   69.8006   22.4434   68.0141 H   0  0  0  0  0  0  0  0  0  0  0  0
   71.3312   21.7967   68.5546 H   0  0  0  0  0  0  0  0  0  0  0  0
  1  2  1  0  0  0  0
  1 32  1  0  0  0  0
  1 33  1  0  0  0  0
  1 34  1  0  0  0  0
  2  3  2  0  0  0  0
  2  4  1  0  0  0  0
  4  5  1  0  0  0  0
  4 35  1  0  0  0  0
  5  8  1  0  0  0  0
  5  6  1  0  0  0  0
  5 36  1  6  0  0  0
  6  7  2  0  0  0  0
  6  9  1  0  0  0  0
  8 37  1  0  0  0  0
  8 38  1  0  0  0  0
  8 39  1  0  0  0  0
  9 10  1  0  0  0  0
  9 40  1  0  0  0  0
 10 13  1  0  0  0  0
 10 41  1  1  0  0  0
 11 10  1  0  0  0  0
 11 12  2  0  0  0  0
 13 42  1  0  0  0  0
 13 43  1  0  0  0  0
 13 44  1  0  0  0  0
 14 11  1  0  0  0  0
 14 45  1  0  0  0  0
 15 14  1  0  0  0  0
 15 16  1  0  0  0  0
 15 46  1  6  0  0  0
 16 17  2  0  0  0  0
 16 19  1  0  0  0  0
 18 15  1  0  0  0  0
 18 47  1  0  0  0  0
 18 48  1  0  0  0  0
 18 49  1  0  0  0  0
 19 20  1  0  0  0  0
 19 50  1  0  0  0  0
 20 23  1  0  0  0  0
 20 51  1  1  0  0  0
 21 20  1  0  0  0  0
 21 30  1  0  0  0  0
 22 21  2  0  0  0  0
 23 24  1  0  0  0  0
 23 52  1  0  0  0  0
 23 53  1  0  0  0  0
 24 25  1  0  0  0  0
 24 54  1  0  0  0  0
 24 55  1  0  0  0  0
 25 26  1  0  0  0  0
 25 56  1  0  0  0  0
 25 57  1  0  0  0  0
 26 27  1  0  0  0  0
 26 58  1  0  0  0  0
 27 29  1  0  0  0  0
 28 27  2  0  0  0  0
 28 59  1  0  0  0  0
 28 60  1  0  0  0  0
 29 61  1  0  0  0  0
 29 62  1  0  0  0  0
 30 63  1  0  0  0  0
 31 30  1  0  0  0  0
 31 64  1  0  0  0  0
 31 65  1  0  0  0  0
 31 66  1  0  0  0  0
M  CHG  1  28  1
M  END
>  <MODEL>
       0

$$$$
