selected_4mers/AAAV/265_noH.pdb
 OpenBabel03042517593D

 58 57  0  0  1  0  0  0  0  0999 V2000
   30.4970   14.2300   15.4150 C   0  0  0  0  0  0  0  0  0  0  0  0
   31.6970   15.1530   15.5780 C   0  0  0  0  0  0  0  0  0  0  0  0
   32.2850   15.6290   14.5940 O   0  0  0  0  0  0  0  0  0  0  0  0
   32.1320   15.4130   16.8220 N   0  0  0  0  0  0  0  0  0  0  0  0
   33.2720   16.3070   17.0310 C   0  0  2  0  0  0  0  0  0  0  0  0
   34.5190   15.7460   16.3770 C   0  0  0  0  0  0  0  0  0  0  0  0
   35.3100   16.4990   15.7810 O   0  0  0  0  0  0  0  0  0  0  0  0
   33.5020   16.5200   18.5280 C   0  0  0  0  0  0  0  0  0  0  0  0
   34.7750   14.4460   16.4840 N   0  0  0  0  0  0  0  0  0  0  0  0
   35.9490   13.8330   15.8820 C   0  0  2  0  0  0  0  0  0  0  0  0
   35.8630   13.9660   14.3600 C   0  0  0  0  0  0  0  0  0  0  0  0
   36.8990   14.2190   13.7130 O   0  0  0  0  0  0  0  0  0  0  0  0
   36.0850   12.3750   16.3000 C   0  0  0  0  0  0  0  0  0  0  0  0
   34.6860   13.7730   13.7700 N   0  0  0  0  0  0  0  0  0  0  0  0
   34.5780   13.8520   12.3140 C   0  0  2  0  0  0  0  0  0  0  0  0
   34.8070   15.2930   11.8830 C   0  0  0  0  0  0  0  0  0  0  0  0
   35.4800   15.5130   10.8800 O   0  0  0  0  0  0  0  0  0  0  0  0
   33.2190   13.3600   11.8700 C   0  0  0  0  0  0  0  0  0  0  0  0
   34.2650   16.2900   12.6050 N   0  0  0  0  0  0  0  0  0  0  0  0
   34.5520   17.6810   12.2190 C   0  0  2  0  0  0  0  0  0  0  0  0
   36.0410   17.9650   12.3540 C   0  0  0  0  0  0  0  0  0  0  0  0
   36.6160   18.6140   11.4610 O   0  0  0  0  0  0  0  0  0  0  0  0
   33.7200   18.6730   13.0430 C   0  0  0  0  0  0  0  0  0  0  0  0
   34.1840   20.1080   12.7640 C   0  0  0  0  0  0  0  0  0  0  0  0
   32.2220   18.5140   12.7310 C   0  0  0  0  0  0  0  0  0  0  0  0
   36.6720   17.5140   13.4330 N   0  0  0  0  0  0  0  0  0  0  0  0
   38.1220   17.7730   13.5750 C   0  0  0  0  0  0  0  0  0  0  0  0
   30.2707   14.1195   14.3751 H   0  0  0  0  0  0  0  0  0  0  0  0
   29.6528   14.6498   15.9211 H   0  0  0  0  0  0  0  0  0  0  0  0
   30.7242   13.2722   15.8343 H   0  0  0  0  0  0  0  0  0  0  0  0
   31.6829   15.0012   17.5952 H   0  0  0  0  0  0  0  0  0  0  0  0
   33.0541   17.2512   16.5772 H   0  0  0  0  0  0  0  0  0  0  0  0
   33.7210   15.5812   18.9923 H   0  0  0  0  0  0  0  0  0  0  0  0
   32.6212   16.9388   18.9681 H   0  0  0  0  0  0  0  0  0  0  0  0
   34.3247   17.1890   18.6708 H   0  0  0  0  0  0  0  0  0  0  0  0
   34.1483   13.8783   16.9882 H   0  0  0  0  0  0  0  0  0  0  0  0
   36.8245   14.3412   16.2286 H   0  0  0  0  0  0  0  0  0  0  0  0
   35.2260   11.8281   15.9714 H   0  0  0  0  0  0  0  0  0  0  0  0
   36.1598   12.3150   17.3657 H   0  0  0  0  0  0  0  0  0  0  0  0
   36.9647   11.9574   15.8566 H   0  0  0  0  0  0  0  0  0  0  0  0
   33.8887   13.5772   14.3133 H   0  0  0  0  0  0  0  0  0  0  0  0
   35.3174   13.2296   11.8548 H   0  0  0  0  0  0  0  0  0  0  0  0
   32.4575   13.9657   12.3151 H   0  0  0  0  0  0  0  0  0  0  0  0
   33.0903   12.3429   12.1764 H   0  0  0  0  0  0  0  0  0  0  0  0
   33.1475   13.4232   10.8043 H   0  0  0  0  0  0  0  0  0  0  0  0
   33.6871   16.0930   13.3773 H   0  0  0  0  0  0  0  0  0  0  0  0
   34.2735   17.8104   11.1940 H   0  0  0  0  0  0  0  0  0  0  0  0
   33.8655   18.4634   14.0821 H   0  0  0  0  0  0  0  0  0  0  0  0
   34.0445   20.3327   11.7272 H   0  0  0  0  0  0  0  0  0  0  0  0
   35.2203   20.2026   13.0131 H   0  0  0  0  0  0  0  0  0  0  0  0
   33.6109   20.7898   13.3570 H   0  0  0  0  0  0  0  0  0  0  0  0
   32.0498   18.7188   11.6950 H   0  0  0  0  0  0  0  0  0  0  0  0
   31.6585   19.1997   13.3286 H   0  0  0  0  0  0  0  0  0  0  0  0
   31.9159   17.5129   12.9524 H   0  0  0  0  0  0  0  0  0  0  0  0
   36.1827   17.0156   14.1268 H   0  0  0  0  0  0  0  0  0  0  0  0
   38.4706   18.3243   12.7268 H   0  0  0  0  0  0  0  0  0  0  0  0
   38.6463   16.8422   13.6355 H   0  0  0  0  0  0  0  0  0  0  0  0
   38.2976   18.3398   14.4654 H   0  0  0  0  0  0  0  0  0  0  0  0
  1  2  1  0  0  0  0
  1 28  1  0  0  0  0
  1 29  1  0  0  0  0
  1 30  1  0  0  0  0
  2  4  1  0  0  0  0
  3  2  2  0  0  0  0
  4  5  1  0  0  0  0
  4 31  1  0  0  0  0
  5  8  1  0  0  0  0
  5 32  1  6  0  0  0
  6  9  1  0  0  0  0
  6  5  1  0  0  0  0
  7  6  2  0  0  0  0
  8 33  1  0  0  0  0
  8 34  1  0  0  0  0
  8 35  1  0  0  0  0
  9 36  1  0  0  0  0
 10 13  1  0  0  0  0
 10  9  1  0  0  0  0
 10 37  1  1  0  0  0
 11 10  1  0  0  0  0
 12 11  2  0  0  0  0
 13 38  1  0  0  0  0
 13 39  1  0  0  0  0
 13 40  1  0  0  0  0
 14 11  1  0  0  0  0
 14 41  1  0  0  0  0
 15 14  1  0  0  0  0
 15 42  1  6  0  0  0
 16 15  1  0  0  0  0
 16 19  1  0  0  0  0
 17 16  2  0  0  0  0
 18 15  1  0  0  0  0
 18 43  1  0  0  0  0
 18 44  1  0  0  0  0
 18 45  1  0  0  0  0
 19 46  1  0  0  0  0
 20 21  1  0  0  0  0
 20 19  1  0  0  0  0
 20 23  1  0  0  0  0
 20 47  1  6  0  0  0
 21 26  1  0  0  0  0
 22 21  2  0  0  0  0
 23 48  1  0  0  0  0
 24 23  1  0  0  0  0
 24 49  1  0  0  0  0
 24 50  1  0  0  0  0
 24 51  1  0  0  0  0
 25 23  1  0  0  0  0
 25 52  1  0  0  0  0
 25 53  1  0  0  0  0
 25 54  1  0  0  0  0
 26 27  1  0  0  0  0
 26 55  1  0  0  0  0
 27 56  1  0  0  0  0
 27 57  1  0  0  0  0
 27 58  1  0  0  0  0
M  END
>  <MODEL>
       0

$$$$
selected_4mers/AAAV/266_noH.pdb
 OpenBabel03042517593D

 58 57  0  0  1  0  0  0  0  0999 V2000
   25.2390   54.4340   99.8680 C   0  0  0  0  0  0  0  0  0  0  0  0
   24.5010   53.8220  101.0520 C   0  0  0  0  0  0  0  0  0  0  0  0
   24.0060   54.5320  101.9230 O   0  0  0  0  0  0  0  0  0  0  0  0
   24.4350   52.4940  101.0810 N   0  0  0  0  0  0  0  0  0  0  0  0
   23.7580   51.7860  102.1620 C   0  0  2  0  0  0  0  0  0  0  0  0
   24.5270   51.9160  103.4680 C   0  0  0  0  0  0  0  0  0  0  0  0
   25.7480   51.7590  103.4880 O   0  0  0  0  0  0  0  0  0  0  0  0
   23.6060   50.3050  101.7990 C   0  0  0  0  0  0  0  0  0  0  0  0
   23.8130   52.1980  104.5550 N   0  0  0  0  0  0  0  0  0  0  0  0
   24.4450   52.3310  105.8670 C   0  0  2  0  0  0  0  0  0  0  0  0
   25.1020   51.0130  106.2670 C   0  0  0  0  0  0  0  0  0  0  0  0
   25.9970   50.9850  107.1110 O   0  0  0  0  0  0  0  0  0  0  0  0
   23.4060   52.7440  106.9240 C   0  0  0  0  0  0  0  0  0  0  0  0
   24.6570   49.9170  105.6550 N   0  0  0  0  0  0  0  0  0  0  0  0
   25.2150   48.6060  105.9570 C   0  0  2  0  0  0  0  0  0  0  0  0
   26.6980   48.5370  105.6060 C   0  0  0  0  0  0  0  0  0  0  0  0
   27.4520   47.7870  106.2240 O   0  0  0  0  0  0  0  0  0  0  0  0
   24.4530   47.5170  105.1970 C   0  0  0  0  0  0  0  0  0  0  0  0
   27.1160   49.3060  104.6050 N   0  0  0  0  0  0  0  0  0  0  0  0
   28.5230   49.3060  104.2140 C   0  0  2  0  0  0  0  0  0  0  0  0
   29.4000   49.8770  105.3300 C   0  0  0  0  0  0  0  0  0  0  0  0
   30.4230   49.2850  105.6790 O   0  0  0  0  0  0  0  0  0  0  0  0
   28.7540   50.1230  102.9240 C   0  0  0  0  0  0  0  0  0  0  0  0
   30.2380   50.1520  102.5790 C   0  0  0  0  0  0  0  0  0  0  0  0
   27.9540   49.5200  101.7840 C   0  0  0  0  0  0  0  0  0  0  0  0
   29.0050   51.0170  105.8990 N   0  0  0  0  0  0  0  0  0  0  0  0
   29.7990   51.6110  106.9730 C   0  0  0  0  0  0  0  0  0  0  0  0
   25.5929   53.6541   99.2266 H   0  0  0  0  0  0  0  0  0  0  0  0
   26.0692   55.0080  100.2232 H   0  0  0  0  0  0  0  0  0  0  0  0
   24.5732   55.0697   99.3226 H   0  0  0  0  0  0  0  0  0  0  0  0
   24.8531   51.9763  100.3555 H   0  0  0  0  0  0  0  0  0  0  0  0
   22.7914   52.2254  102.2945 H   0  0  0  0  0  0  0  0  0  0  0  0
   24.5742   49.8689  101.6673 H   0  0  0  0  0  0  0  0  0  0  0  0
   23.0481   50.2159  100.8903 H   0  0  0  0  0  0  0  0  0  0  0  0
   23.0896   49.7961  102.5859 H   0  0  0  0  0  0  0  0  0  0  0  0
   22.8394   52.3196  104.4742 H   0  0  0  0  0  0  0  0  0  0  0  0
   25.1954   53.0916  105.8095 H   0  0  0  0  0  0  0  0  0  0  0  0
   22.6484   51.9915  106.9925 H   0  0  0  0  0  0  0  0  0  0  0  0
   22.9600   53.6746  106.6411 H   0  0  0  0  0  0  0  0  0  0  0  0
   23.8871   52.8531  107.8735 H   0  0  0  0  0  0  0  0  0  0  0  0
   23.9382   49.9944  104.9867 H   0  0  0  0  0  0  0  0  0  0  0  0
   25.1121   48.4441  107.0097 H   0  0  0  0  0  0  0  0  0  0  0  0
   24.5556   47.6785  104.1442 H   0  0  0  0  0  0  0  0  0  0  0  0
   23.4175   47.5536  105.4642 H   0  0  0  0  0  0  0  0  0  0  0  0
   24.8533   46.5579  105.4514 H   0  0  0  0  0  0  0  0  0  0  0  0
   26.4741   49.8779  104.1253 H   0  0  0  0  0  0  0  0  0  0  0  0
   28.7947   48.2873  104.0312 H   0  0  0  0  0  0  0  0  0  0  0  0
   28.4246   51.1288  103.0817 H   0  0  0  0  0  0  0  0  0  0  0  0
   30.5862   49.1532  102.4175 H   0  0  0  0  0  0  0  0  0  0  0  0
   30.7834   50.5936  103.3867 H   0  0  0  0  0  0  0  0  0  0  0  0
   30.3864   50.7295  101.6906 H   0  0  0  0  0  0  0  0  0  0  0  0
   28.2748   48.5130  101.6167 H   0  0  0  0  0  0  0  0  0  0  0  0
   28.1091   50.0960  100.8957 H   0  0  0  0  0  0  0  0  0  0  0  0
   26.9141   49.5259  102.0358 H   0  0  0  0  0  0  0  0  0  0  0  0
   28.1788   51.4582  105.5957 H   0  0  0  0  0  0  0  0  0  0  0  0
   30.6539   50.9971  107.1660 H   0  0  0  0  0  0  0  0  0  0  0  0
   29.2036   51.6822  107.8592 H   0  0  0  0  0  0  0  0  0  0  0  0
   30.1207   52.5885  106.6800 H   0  0  0  0  0  0  0  0  0  0  0  0
  1  2  1  0  0  0  0
  1 28  1  0  0  0  0
  1 29  1  0  0  0  0
  1 30  1  0  0  0  0
  2  4  1  0  0  0  0
  2  3  2  0  0  0  0
  4  5  1  0  0  0  0
  4 31  1  0  0  0  0
  5  6  1  0  0  0  0
  5 32  1  1  0  0  0
  6  7  2  0  0  0  0
  6  9  1  0  0  0  0
  8  5  1  0  0  0  0
  8 33  1  0  0  0  0
  8 34  1  0  0  0  0
  8 35  1  0  0  0  0
  9 10  1  0  0  0  0
  9 36  1  0  0  0  0
 10 11  1  0  0  0  0
 10 13  1  0  0  0  0
 10 37  1  6  0  0  0
 11 12  2  0  0  0  0
 13 38  1  0  0  0  0
 13 39  1  0  0  0  0
 13 40  1  0  0  0  0
 14 15  1  0  0  0  0
 14 11  1  0  0  0  0
 14 41  1  0  0  0  0
 15 42  1  1  0  0  0
 16 15  1  0  0  0  0
 16 17  2  0  0  0  0
 18 15  1  0  0  0  0
 18 43  1  0  0  0  0
 18 44  1  0  0  0  0
 18 45  1  0  0  0  0
 19 16  1  0  0  0  0
 19 46  1  0  0  0  0
 20 19  1  0  0  0  0
 20 21  1  0  0  0  0
 20 47  1  6  0  0  0
 21 22  2  0  0  0  0
 21 26  1  0  0  0  0
 23 20  1  0  0  0  0
 23 48  1  0  0  0  0
 24 23  1  0  0  0  0
 24 49  1  0  0  0  0
 24 50  1  0  0  0  0
 24 51  1  0  0  0  0
 25 23  1  0  0  0  0
 25 52  1  0  0  0  0
 25 53  1  0  0  0  0
 25 54  1  0  0  0  0
 26 27  1  0  0  0  0
 26 55  1  0  0  0  0
 27 56  1  0  0  0  0
 27 57  1  0  0  0  0
 27 58  1  0  0  0  0
M  END
>  <MODEL>
       0

$$$$
selected_4mers/AAAV/267_noH.pdb
 OpenBabel03042517593D

 58 57  0  0  1  0  0  0  0  0999 V2000
   11.2950    7.0110    2.4630 C   0  0  0  0  0  0  0  0  0  0  0  0
   10.2220    7.1410    3.5220 C   0  0  0  0  0  0  0  0  0  0  0  0
   10.4150    6.7210    4.6570 O   0  0  0  0  0  0  0  0  0  0  0  0
    9.1200    7.7470    3.1420 N   0  0  0  0  0  0  0  0  0  0  0  0
    7.9530    7.8720    4.0280 C   0  0  2  0  0  0  0  0  0  0  0  0
    6.8040    7.0050    3.5220 C   0  0  0  0  0  0  0  0  0  0  0  0
    6.6290    6.8130    2.3150 O   0  0  0  0  0  0  0  0  0  0  0  0
    7.5050    9.3670    4.1840 C   0  0  0  0  0  0  0  0  0  0  0  0
    6.0250    6.4680    4.4750 N   0  0  0  0  0  0  0  0  0  0  0  0
    4.7770    5.7790    4.1660 C   0  0  2  0  0  0  0  0  0  0  0  0
    3.6220    6.4190    4.8990 C   0  0  0  0  0  0  0  0  0  0  0  0
    3.7880    6.8540    6.0380 O   0  0  0  0  0  0  0  0  0  0  0  0
    4.8780    4.3220    4.5070 C   0  0  0  0  0  0  0  0  0  0  0  0
    2.4710    6.5000    4.2330 N   0  0  0  0  0  0  0  0  0  0  0  0
    1.1940    6.9230    4.8560 C   0  0  2  0  0  0  0  0  0  0  0  0
    0.2230    5.7750    4.6620 C   0  0  0  0  0  0  0  0  0  0  0  0
    0.0900    5.2800    3.5540 O   0  0  0  0  0  0  0  0  0  0  0  0
    0.6820    8.1670    4.1720 C   0  0  0  0  0  0  0  0  0  0  0  0
   -0.4620    5.4070    5.7320 N   0  0  0  0  0  0  0  0  0  0  0  0
   -1.2730    4.1980    5.7650 C   0  0  2  0  0  0  0  0  0  0  0  0
   -2.6650    4.5310    6.3430 C   0  0  0  0  0  0  0  0  0  0  0  0
   -2.7750    5.1130    7.4400 O   0  0  0  0  0  0  0  0  0  0  0  0
   -0.5690    3.0950    6.6050 C   0  0  0  0  0  0  0  0  0  0  0  0
   -1.4690    1.8600    6.8210 C   0  0  0  0  0  0  0  0  0  0  0  0
    0.8240    2.6960    6.0260 C   0  0  0  0  0  0  0  0  0  0  0  0
   -3.6990    4.1480    5.6060 N   0  0  0  0  0  0  0  0  0  0  0  0
   -5.0610    4.0910    6.1200 C   0  0  0  0  0  0  0  0  0  0  0  0
   10.9428    7.4325    1.5447 H   0  0  0  0  0  0  0  0  0  0  0  0
   11.5267    5.9769    2.3151 H   0  0  0  0  0  0  0  0  0  0  0  0
   12.1743    7.5317    2.7803 H   0  0  0  0  0  0  0  0  0  0  0  0
    9.0741    8.1293    2.2359 H   0  0  0  0  0  0  0  0  0  0  0  0
    8.2380    7.5232    4.9986 H   0  0  0  0  0  0  0  0  0  0  0  0
    7.2112    9.7527    3.2301 H   0  0  0  0  0  0  0  0  0  0  0  0
    8.3197    9.9454    4.5670 H   0  0  0  0  0  0  0  0  0  0  0  0
    6.6785    9.4228    4.8612 H   0  0  0  0  0  0  0  0  0  0  0  0
    6.3062    6.5420    5.4156 H   0  0  0  0  0  0  0  0  0  0  0  0
    4.5972    5.8647    3.1147 H   0  0  0  0  0  0  0  0  0  0  0  0
    5.0582    4.2129    5.5561 H   0  0  0  0  0  0  0  0  0  0  0  0
    5.6851    3.8825    3.9589 H   0  0  0  0  0  0  0  0  0  0  0  0
    3.9628    3.8311    4.2493 H   0  0  0  0  0  0  0  0  0  0  0  0
    2.4683    6.2666    3.2766 H   0  0  0  0  0  0  0  0  0  0  0  0
    1.3167    7.1494    5.8946 H   0  0  0  0  0  0  0  0  0  0  0  0
    0.5489    7.9712    3.1285 H   0  0  0  0  0  0  0  0  0  0  0  0
    1.3888    8.9603    4.2987 H   0  0  0  0  0  0  0  0  0  0  0  0
   -0.2547    8.4516    4.6038 H   0  0  0  0  0  0  0  0  0  0  0  0
   -0.4220    5.9722    6.5371 H   0  0  0  0  0  0  0  0  0  0  0  0
   -1.3933    3.8226    4.7703 H   0  0  0  0  0  0  0  0  0  0  0  0
   -0.3903    3.5274    7.5673 H   0  0  0  0  0  0  0  0  0  0  0  0
   -1.6717    1.3971    5.8779 H   0  0  0  0  0  0  0  0  0  0  0  0
   -2.3893    2.1642    7.2741 H   0  0  0  0  0  0  0  0  0  0  0  0
   -0.9699    1.1625    7.4607 H   0  0  0  0  0  0  0  0  0  0  0  0
    0.6957    2.2567    5.0588 H   0  0  0  0  0  0  0  0  0  0  0  0
    1.2927    1.9899    6.6791 H   0  0  0  0  0  0  0  0  0  0  0  0
    1.4388    3.5678    5.9430 H   0  0  0  0  0  0  0  0  0  0  0  0
   -3.5389    3.8906    4.6693 H   0  0  0  0  0  0  0  0  0  0  0  0
   -5.0686    4.3987    7.1448 H   0  0  0  0  0  0  0  0  0  0  0  0
   -5.4286    3.0889    6.0457 H   0  0  0  0  0  0  0  0  0  0  0  0
   -5.6861    4.7436    5.5470 H   0  0  0  0  0  0  0  0  0  0  0  0
  1  2  1  0  0  0  0
  1 28  1  0  0  0  0
  1 29  1  0  0  0  0
  1 30  1  0  0  0  0
  2  3  2  0  0  0  0
  4  2  1  0  0  0  0
  4  5  1  0  0  0  0
  4 31  1  0  0  0  0
  5  8  1  0  0  0  0
  5 32  1  1  0  0  0
  6  5  1  0  0  0  0
  6  9  1  0  0  0  0
  7  6  2  0  0  0  0
  8 33  1  0  0  0  0
  8 34  1  0  0  0  0
  8 35  1  0  0  0  0
  9 36  1  0  0  0  0
 10  9  1  0  0  0  0
 10 13  1  0  0  0  0
 10 11  1  0  0  0  0
 10 37  1  6  0  0  0
 11 12  2  0  0  0  0
 13 38  1  0  0  0  0
 13 39  1  0  0  0  0
 13 40  1  0  0  0  0
 14 15  1  0  0  0  0
 14 11  1  0  0  0  0
 14 41  1  0  0  0  0
 15 42  1  1  0  0  0
 16 15  1  0  0  0  0
 16 19  1  0  0  0  0
 17 16  2  0  0  0  0
 18 15  1  0  0  0  0
 18 43  1  0  0  0  0
 18 44  1  0  0  0  0
 18 45  1  0  0  0  0
 19 20  1  0  0  0  0
 19 46  1  0  0  0  0
 20 21  1  0  0  0  0
 20 23  1  0  0  0  0
 20 47  1  6  0  0  0
 21 22  2  0  0  0  0
 23 24  1  0  0  0  0
 23 48  1  0  0  0  0
 24 49  1  0  0  0  0
 24 50  1  0  0  0  0
 24 51  1  0  0  0  0
 25 23  1  0  0  0  0
 25 52  1  0  0  0  0
 25 53  1  0  0  0  0
 25 54  1  0  0  0  0
 26 27  1  0  0  0  0
 26 21  1  0  0  0  0
 26 55  1  0  0  0  0
 27 56  1  0  0  0  0
 27 57  1  0  0  0  0
 27 58  1  0  0  0  0
M  END
>  <MODEL>
       0

$$$$
selected_4mers/AAAV/268_noH.pdb
 OpenBabel03042517593D

 58 57  0  0  1  0  0  0  0  0999 V2000
   15.5980   16.7420   14.5840 C   0  0  0  0  0  0  0  0  0  0  0  0
   14.4440   17.7130   14.7620 C   0  0  0  0  0  0  0  0  0  0  0  0
   14.2690   18.2890   15.8420 O   0  0  0  0  0  0  0  0  0  0  0  0
   13.6530   17.8790   13.7040 N   0  0  0  0  0  0  0  0  0  0  0  0
   12.5000   18.7700   13.7130 C   0  0  2  0  0  0  0  0  0  0  0  0
   11.3530   18.1350   12.9400 C   0  0  0  0  0  0  0  0  0  0  0  0
   11.5850   17.4290   11.9530 O   0  0  0  0  0  0  0  0  0  0  0  0
   12.8630   20.1270   13.0910 C   0  0  0  0  0  0  0  0  0  0  0  0
   10.1190   18.3880   13.3800 N   0  0  0  0  0  0  0  0  0  0  0  0
    8.9580   17.8570   12.6690 C   0  0  2  0  0  0  0  0  0  0  0  0
    8.9000   18.3230   11.2080 C   0  0  0  0  0  0  0  0  0  0  0  0
    8.3520   17.6280   10.3460 O   0  0  0  0  0  0  0  0  0  0  0  0
    7.6670   18.2090   13.4030 C   0  0  0  0  0  0  0  0  0  0  0  0
    9.4600   19.4990   10.9330 N   0  0  0  0  0  0  0  0  0  0  0  0
    9.5250   20.0020    9.5630 C   0  0  2  0  0  0  0  0  0  0  0  0
   10.2510   19.0310    8.6280 C   0  0  0  0  0  0  0  0  0  0  0  0
    9.9750   18.9940    7.4240 O   0  0  0  0  0  0  0  0  0  0  0  0
   10.1850   21.3610    9.5270 C   0  0  0  0  0  0  0  0  0  0  0  0
   11.1850   18.2560    9.1730 N   0  0  0  0  0  0  0  0  0  0  0  0
   11.8640   17.2300    8.3800 C   0  0  2  0  0  0  0  0  0  0  0  0
   11.0440   15.9440    8.4300 C   0  0  0  0  0  0  0  0  0  0  0  0
   11.0830   15.2070    9.4170 O   0  0  0  0  0  0  0  0  0  0  0  0
   13.3030   16.9870    8.8940 C   0  0  0  0  0  0  0  0  0  0  0  0
   13.9470   15.7940    8.1830 C   0  0  0  0  0  0  0  0  0  0  0  0
   14.1440   18.2430    8.7000 C   0  0  0  0  0  0  0  0  0  0  0  0
   10.3090   15.6620    7.3550 N   0  0  0  0  0  0  0  0  0  0  0  0
    9.4130   14.5080    7.3330 C   0  0  0  0  0  0  0  0  0  0  0  0
   15.5829   16.3486   13.5890 H   0  0  0  0  0  0  0  0  0  0  0  0
   15.5011   15.9403   15.2860 H   0  0  0  0  0  0  0  0  0  0  0  0
   16.5231   17.2529   14.7515 H   0  0  0  0  0  0  0  0  0  0  0  0
   13.8557   17.3786   12.8807 H   0  0  0  0  0  0  0  0  0  0  0  0
   12.1978   18.9304   14.7268 H   0  0  0  0  0  0  0  0  0  0  0  0
   13.1678   19.9837   12.0754 H   0  0  0  0  0  0  0  0  0  0  0  0
   13.6641   20.5703   13.6447 H   0  0  0  0  0  0  0  0  0  0  0  0
   12.0099   20.7721   13.1197 H   0  0  0  0  0  0  0  0  0  0  0  0
    9.9900   18.9354   14.1881 H   0  0  0  0  0  0  0  0  0  0  0  0
    9.0638   16.7924   12.6507 H   0  0  0  0  0  0  0  0  0  0  0  0
    7.5496   19.2722   13.4281 H   0  0  0  0  0  0  0  0  0  0  0  0
    7.7110   17.8313   14.4031 H   0  0  0  0  0  0  0  0  0  0  0  0
    6.8354   17.7703   12.8923 H   0  0  0  0  0  0  0  0  0  0  0  0
    9.8366   20.0388   11.6652 H   0  0  0  0  0  0  0  0  0  0  0  0
    8.5188   20.0940    9.2108 H   0  0  0  0  0  0  0  0  0  0  0  0
   11.1924   21.2777    9.8780 H   0  0  0  0  0  0  0  0  0  0  0  0
    9.6434   22.0373   10.1548 H   0  0  0  0  0  0  0  0  0  0  0  0
   10.1866   21.7302    8.5227 H   0  0  0  0  0  0  0  0  0  0  0  0
   11.4223   18.3740   10.1211 H   0  0  0  0  0  0  0  0  0  0  0  0
   11.9436   17.5640    7.3666 H   0  0  0  0  0  0  0  0  0  0  0  0
   13.2550   16.7588    9.9383 H   0  0  0  0  0  0  0  0  0  0  0  0
   14.0082   15.9947    7.1338 H   0  0  0  0  0  0  0  0  0  0  0  0
   13.3526   14.9191    8.3447 H   0  0  0  0  0  0  0  0  0  0  0  0
   14.9303   15.6344    8.5736 H   0  0  0  0  0  0  0  0  0  0  0  0
   14.1975   18.4789    7.6577 H   0  0  0  0  0  0  0  0  0  0  0  0
   15.1304   18.0737    9.0785 H   0  0  0  0  0  0  0  0  0  0  0  0
   13.6946   19.0582    9.2276 H   0  0  0  0  0  0  0  0  0  0  0  0
   10.3707   16.2414    6.5615 H   0  0  0  0  0  0  0  0  0  0  0  0
    9.4705   13.9939    8.2697 H   0  0  0  0  0  0  0  0  0  0  0  0
    9.7035   13.8458    6.5443 H   0  0  0  0  0  0  0  0  0  0  0  0
    8.4089   14.8392    7.1689 H   0  0  0  0  0  0  0  0  0  0  0  0
  1  2  1  0  0  0  0
  1 28  1  0  0  0  0
  1 29  1  0  0  0  0
  1 30  1  0  0  0  0
  2  3  2  0  0  0  0
  4  5  1  0  0  0  0
  4  2  1  0  0  0  0
  4 31  1  0  0  0  0
  5 32  1  1  0  0  0
  6  9  1  0  0  0  0
  6  5  1  0  0  0  0
  7  6  2  0  0  0  0
  8  5  1  0  0  0  0
  8 33  1  0  0  0  0
  8 34  1  0  0  0  0
  8 35  1  0  0  0  0
  9 36  1  0  0  0  0
 10  9  1  0  0  0  0
 10 13  1  0  0  0  0
 10 37  1  6  0  0  0
 11 10  1  0  0  0  0
 12 11  2  0  0  0  0
 13 38  1  0  0  0  0
 13 39  1  0  0  0  0
 13 40  1  0  0  0  0
 14 11  1  0  0  0  0
 14 41  1  0  0  0  0
 15 14  1  0  0  0  0
 15 42  1  6  0  0  0
 16 19  1  0  0  0  0
 16 15  1  0  0  0  0
 17 16  2  0  0  0  0
 18 15  1  0  0  0  0
 18 43  1  0  0  0  0
 18 44  1  0  0  0  0
 18 45  1  0  0  0  0
 19 46  1  0  0  0  0
 20 21  1  0  0  0  0
 20 23  1  0  0  0  0
 20 19  1  0  0  0  0
 20 47  1  6  0  0  0
 21 22  2  0  0  0  0
 23 48  1  0  0  0  0
 24 23  1  0  0  0  0
 24 49  1  0  0  0  0
 24 50  1  0  0  0  0
 24 51  1  0  0  0  0
 25 23  1  0  0  0  0
 25 52  1  0  0  0  0
 25 53  1  0  0  0  0
 25 54  1  0  0  0  0
 26 21  1  0  0  0  0
 26 55  1  0  0  0  0
 27 26  1  0  0  0  0
 27 56  1  0  0  0  0
 27 57  1  0  0  0  0
 27 58  1  0  0  0  0
M  END
>  <MODEL>
       0

$$$$
selected_4mers/AAAV/269_noH.pdb
 OpenBabel03042517593D

 58 57  0  0  1  0  0  0  0  0999 V2000
   27.4050   -2.7100  -14.1180 C   0  0  0  0  0  0  0  0  0  0  0  0
   28.4050   -1.6320  -14.5420 C   0  0  0  0  0  0  0  0  0  0  0  0
   28.6390   -1.4340  -15.7330 O   0  0  0  0  0  0  0  0  0  0  0  0
   29.0040   -0.9450  -13.5740 N   0  0  0  0  0  0  0  0  0  0  0  0
   29.9960    0.0850  -13.8890 C   0  0  2  0  0  0  0  0  0  0  0  0
   31.1760   -0.5380  -14.6290 C   0  0  0  0  0  0  0  0  0  0  0  0
   31.7070    0.0410  -15.5860 O   0  0  0  0  0  0  0  0  0  0  0  0
   30.4900    0.7550  -12.6160 C   0  0  0  0  0  0  0  0  0  0  0  0
   31.5880   -1.7180  -14.1840 N   0  0  0  0  0  0  0  0  0  0  0  0
   32.7120   -2.3990  -14.8140 C   0  0  2  0  0  0  0  0  0  0  0  0
   32.3870   -2.7730  -16.2690 C   0  0  0  0  0  0  0  0  0  0  0  0
   33.2490   -2.7100  -17.1420 O   0  0  0  0  0  0  0  0  0  0  0  0
   33.0910   -3.6360  -13.9990 C   0  0  0  0  0  0  0  0  0  0  0  0
   31.1400   -3.1480  -16.5290 N   0  0  0  0  0  0  0  0  0  0  0  0
   30.7170   -3.5100  -17.8780 C   0  0  2  0  0  0  0  0  0  0  0  0
   30.7950   -2.2900  -18.7890 C   0  0  0  0  0  0  0  0  0  0  0  0
   31.2620   -2.3860  -19.9260 O   0  0  0  0  0  0  0  0  0  0  0  0
   29.3000   -4.0630  -17.8540 C   0  0  0  0  0  0  0  0  0  0  0  0
   30.3390   -1.1400  -18.2930 N   0  0  0  0  0  0  0  0  0  0  0  0
   30.3900    0.0720  -19.1000 C   0  0  2  0  0  0  0  0  0  0  0  0
   31.8520    0.4010  -19.4260 C   0  0  0  0  0  0  0  0  0  0  0  0
   32.1940    0.6490  -20.5890 O   0  0  0  0  0  0  0  0  0  0  0  0
   29.7210    1.2620  -18.3770 C   0  0  0  0  0  0  0  0  0  0  0  0
   29.9620    2.5600  -19.1630 C   0  0  0  0  0  0  0  0  0  0  0  0
   28.2200    0.9990  -18.2410 C   0  0  0  0  0  0  0  0  0  0  0  0
   32.7070    0.3680  -18.4030 N   0  0  0  0  0  0  0  0  0  0  0  0
   34.1290    0.6520  -18.5790 C   0  0  0  0  0  0  0  0  0  0  0  0
   26.9995   -3.1824  -14.9882 H   0  0  0  0  0  0  0  0  0  0  0  0
   26.6139   -2.2609  -13.5546 H   0  0  0  0  0  0  0  0  0  0  0  0
   27.9024   -3.4405  -13.5147 H   0  0  0  0  0  0  0  0  0  0  0  0
   28.7778   -1.1311  -12.6341 H   0  0  0  0  0  0  0  0  0  0  0  0
   29.5340    0.8222  -14.5118 H   0  0  0  0  0  0  0  0  0  0  0  0
   30.9541    0.0253  -11.9859 H   0  0  0  0  0  0  0  0  0  0  0  0
   29.6624    1.1964  -12.1010 H   0  0  0  0  0  0  0  0  0  0  0  0
   31.2010    1.5147  -12.8656 H   0  0  0  0  0  0  0  0  0  0  0  0
   31.1298   -2.1379  -13.4205 H   0  0  0  0  0  0  0  0  0  0  0  0
   33.5489   -1.7327  -14.8353 H   0  0  0  0  0  0  0  0  0  0  0  0
   32.2618   -4.3116  -13.9697 H   0  0  0  0  0  0  0  0  0  0  0  0
   33.3469   -3.3420  -13.0025 H   0  0  0  0  0  0  0  0  0  0  0  0
   33.9295   -4.1201  -14.4545 H   0  0  0  0  0  0  0  0  0  0  0  0
   30.4854   -3.1826  -15.7945 H   0  0  0  0  0  0  0  0  0  0  0  0
   31.3704   -4.2678  -18.2571 H   0  0  0  0  0  0  0  0  0  0  0  0
   28.6323   -3.3168  -17.4768 H   0  0  0  0  0  0  0  0  0  0  0  0
   29.2645   -4.9257  -17.2220 H   0  0  0  0  0  0  0  0  0  0  0  0
   29.0066   -4.3354  -18.8463 H   0  0  0  0  0  0  0  0  0  0  0  0
   29.9678   -1.1095  -17.3817 H   0  0  0  0  0  0  0  0  0  0  0  0
   29.8469   -0.0992  -20.0059 H   0  0  0  0  0  0  0  0  0  0  0  0
   30.1491    1.3686  -17.4022 H   0  0  0  0  0  0  0  0  0  0  0  0
   29.5388    2.4683  -20.1414 H   0  0  0  0  0  0  0  0  0  0  0  0
   31.0140    2.7374  -19.2446 H   0  0  0  0  0  0  0  0  0  0  0  0
   29.5010    3.3783  -18.6503 H   0  0  0  0  0  0  0  0  0  0  0  0
   27.7872    0.8916  -19.2136 H   0  0  0  0  0  0  0  0  0  0  0  0
   27.7585    1.8205  -17.7339 H   0  0  0  0  0  0  0  0  0  0  0  0
   28.0646    0.1010  -17.6803 H   0  0  0  0  0  0  0  0  0  0  0  0
   32.3706    0.1462  -17.5047 H   0  0  0  0  0  0  0  0  0  0  0  0
   34.3241    0.8723  -19.6077 H   0  0  0  0  0  0  0  0  0  0  0  0
   34.7025   -0.2011  -18.2820 H   0  0  0  0  0  0  0  0  0  0  0  0
   34.4021    1.4928  -17.9762 H   0  0  0  0  0  0  0  0  0  0  0  0
  1 28  1  0  0  0  0
  1 29  1  0  0  0  0
  1 30  1  0  0  0  0
  2  1  1  0  0  0  0
  2  4  1  0  0  0  0
  3  2  2  0  0  0  0
  4 31  1  0  0  0  0
  5  4  1  0  0  0  0
  5  8  1  0  0  0  0
  5 32  1  6  0  0  0
  6  9  1  0  0  0  0
  6  5  1  0  0  0  0
  7  6  2  0  0  0  0
  8 33  1  0  0  0  0
  8 34  1  0  0  0  0
  8 35  1  0  0  0  0
  9 36  1  0  0  0  0
 10  9  1  0  0  0  0
 10 13  1  0  0  0  0
 10 37  1  6  0  0  0
 11 10  1  0  0  0  0
 12 11  2  0  0  0  0
 13 38  1  0  0  0  0
 13 39  1  0  0  0  0
 13 40  1  0  0  0  0
 14 11  1  0  0  0  0
 14 41  1  0  0  0  0
 15 18  1  0  0  0  0
 15 14  1  0  0  0  0
 15 42  1  6  0  0  0
 16 19  1  0  0  0  0
 16 15  1  0  0  0  0
 17 16  2  0  0  0  0
 18 43  1  0  0  0  0
 18 44  1  0  0  0  0
 18 45  1  0  0  0  0
 19 46  1  0  0  0  0
 20 23  1  0  0  0  0
 20 19  1  0  0  0  0
 20 47  1  6  0  0  0
 21 20  1  0  0  0  0
 21 26  1  0  0  0  0
 22 21  2  0  0  0  0
 23 25  1  0  0  0  0
 23 48  1  0  0  0  0
 24 23  1  0  0  0  0
 24 49  1  0  0  0  0
 24 50  1  0  0  0  0
 24 51  1  0  0  0  0
 25 52  1  0  0  0  0
 25 53  1  0  0  0  0
 25 54  1  0  0  0  0
 26 55  1  0  0  0  0
 27 26  1  0  0  0  0
 27 56  1  0  0  0  0
 27 57  1  0  0  0  0
 27 58  1  0  0  0  0
M  END
>  <MODEL>
       0

$$$$
