selected_4mers/AAEA/145_noH.pdb
 OpenBabel03042517503D

 57 56  0  0  1  0  0  0  0  0999 V2000
   22.4630   46.5280   11.0310 C   0  0  0  0  0  0  0  0  0  0  0  0
   22.6310   47.4370   12.2400 C   0  0  0  0  0  0  0  0  0  0  0  0
   23.4000   48.3750   12.1890 O   0  0  0  0  0  0  0  0  0  0  0  0
   21.9500   47.1240   13.3420 N   0  0  0  0  0  0  0  0  0  0  0  0
   22.0910   47.9080   14.5740 C   0  0  2  0  0  0  0  0  0  0  0  0
   23.4840   47.7150   15.1660 C   0  0  0  0  0  0  0  0  0  0  0  0
   24.1090   48.6810   15.6260 O   0  0  0  0  0  0  0  0  0  0  0  0
   20.9870   47.5090   15.5890 C   0  0  0  0  0  0  0  0  0  0  0  0
   23.9900   46.4800   15.1480 N   0  0  0  0  0  0  0  0  0  0  0  0
   25.3530   46.2370   15.6170 C   0  0  2  0  0  0  0  0  0  0  0  0
   26.3720   47.0110   14.7780 C   0  0  0  0  0  0  0  0  0  0  0  0
   27.2940   47.6140   15.3100 O   0  0  0  0  0  0  0  0  0  0  0  0
   25.6740   44.7170   15.6500 C   0  0  0  0  0  0  0  0  0  0  0  0
   26.1740   47.0270   13.4700 N   0  0  0  0  0  0  0  0  0  0  0  0
   27.1040   47.7020   12.5700 C   0  0  2  0  0  0  0  0  0  0  0  0
   27.1400   49.2090   12.8880 C   0  0  0  0  0  0  0  0  0  0  0  0
   28.2280   49.8310   12.9550 O   0  0  0  0  0  0  0  0  0  0  0  0
   26.7430   47.4060   11.1050 C   0  0  0  0  0  0  0  0  0  0  0  0
   27.5410   46.2460   10.5090 C   0  0  0  0  0  0  0  0  0  0  0  0
   26.9390   45.5620    9.2770 C   0  0  0  0  0  0  0  0  0  0  0  0
   25.9570   46.0620    8.6560 O   0  0  0  0  0  0  0  0  0  0  0  0
   27.4740   44.4780    8.9170 O   0  0  0  0  0  0  0  0  0  0  0  0
   25.9620   49.7900   13.1380 N   0  0  0  0  0  0  0  0  0  0  0  0
   25.8490   51.2190   13.4720 C   0  0  2  0  0  0  0  0  0  0  0  0
   26.5330   51.5610   14.8030 C   0  0  0  0  0  0  0  0  0  0  0  0
   27.1910   52.6120   14.9570 O   0  0  0  0  0  0  0  0  0  0  0  0
   24.3630   51.6340   13.4940 C   0  0  0  0  0  0  0  0  0  0  0  0
   26.4070   50.6510   15.7690 N   0  0  0  0  0  0  0  0  0  0  0  0
   26.9780   50.8700   17.0830 C   0  0  0  0  0  0  0  0  0  0  0  0
   23.0620   46.8942   10.2235 H   0  0  0  0  0  0  0  0  0  0  0  0
   21.4349   46.5146   10.7349 H   0  0  0  0  0  0  0  0  0  0  0  0
   22.7740   45.5361   11.2846 H   0  0  0  0  0  0  0  0  0  0  0  0
   21.3401   46.3512   13.3291 H   0  0  0  0  0  0  0  0  0  0  0  0
   21.9717   48.9464   14.3452 H   0  0  0  0  0  0  0  0  0  0  0  0
   21.0856   46.4721   15.8340 H   0  0  0  0  0  0  0  0  0  0  0  0
   20.0243   47.6831   15.1556 H   0  0  0  0  0  0  0  0  0  0  0  0
   21.0899   48.0967   16.4772 H   0  0  0  0  0  0  0  0  0  0  0  0
   23.4436   45.7305   14.8179 H   0  0  0  0  0  0  0  0  0  0  0  0
   25.4239   46.5996   16.6212 H   0  0  0  0  0  0  0  0  0  0  0  0
   25.6126   44.3179   14.6591 H   0  0  0  0  0  0  0  0  0  0  0  0
   24.9685   44.2171   16.2802 H   0  0  0  0  0  0  0  0  0  0  0  0
   26.6620   44.5694   16.0334 H   0  0  0  0  0  0  0  0  0  0  0  0
   25.3835   46.5746   13.0962 H   0  0  0  0  0  0  0  0  0  0  0  0
   28.0939   47.3249   12.7214 H   0  0  0  0  0  0  0  0  0  0  0  0
   25.7020   47.1640   11.0538 H   0  0  0  0  0  0  0  0  0  0  0  0
   26.9816   48.2805   10.5365 H   0  0  0  0  0  0  0  0  0  0  0  0
   28.5042   46.6219   10.2336 H   0  0  0  0  0  0  0  0  0  0  0  0
   27.5576   45.4939   11.2699 H   0  0  0  0  0  0  0  0  0  0  0  0
   25.1436   49.2442   13.0974 H   0  0  0  0  0  0  0  0  0  0  0  0
   26.3598   51.7744   12.7134 H   0  0  0  0  0  0  0  0  0  0  0  0
   23.8492   51.0802   14.2518 H   0  0  0  0  0  0  0  0  0  0  0  0
   23.9213   51.4291   12.5412 H   0  0  0  0  0  0  0  0  0  0  0  0
   24.2880   52.6804   13.7043 H   0  0  0  0  0  0  0  0  0  0  0  0
   25.9179   49.8162   15.5868 H   0  0  0  0  0  0  0  0  0  0  0  0
   27.4697   51.8201   17.1044 H   0  0  0  0  0  0  0  0  0  0  0  0
   27.6861   50.0971   17.2975 H   0  0  0  0  0  0  0  0  0  0  0  0
   26.1998   50.8545   17.8172 H   0  0  0  0  0  0  0  0  0  0  0  0
  1  2  1  0  0  0  0
  1 30  1  0  0  0  0
  1 31  1  0  0  0  0
  1 32  1  0  0  0  0
  2  4  1  0  0  0  0
  3  2  2  0  0  0  0
  4  5  1  0  0  0  0
  4 33  1  0  0  0  0
  5  6  1  0  0  0  0
  5  8  1  0  0  0  0
  5 34  1  6  0  0  0
  6  7  2  0  0  0  0
  8 35  1  0  0  0  0
  8 36  1  0  0  0  0
  8 37  1  0  0  0  0
  9  6  1  0  0  0  0
  9 10  1  0  0  0  0
  9 38  1  0  0  0  0
 10 13  1  0  0  0  0
 10 39  1  1  0  0  0
 11 12  2  0  0  0  0
 11 10  1  0  0  0  0
 13 40  1  0  0  0  0
 13 41  1  0  0  0  0
 13 42  1  0  0  0  0
 14 11  1  0  0  0  0
 14 43  1  0  0  0  0
 15 16  1  0  0  0  0
 15 14  1  0  0  0  0
 15 44  1  1  0  0  0
 16 17  2  0  0  0  0
 16 23  1  0  0  0  0
 18 15  1  0  0  0  0
 18 45  1  0  0  0  0
 18 46  1  0  0  0  0
 19 18  1  0  0  0  0
 19 47  1  0  0  0  0
 19 48  1  0  0  0  0
 20 19  1  0  0  0  0
 21 20  2  0  0  0  0
 22 20  1  0  0  0  0
 23 24  1  0  0  0  0
 23 49  1  0  0  0  0
 24 27  1  0  0  0  0
 24 25  1  0  0  0  0
 24 50  1  6  0  0  0
 25 26  2  0  0  0  0
 25 28  1  0  0  0  0
 27 51  1  0  0  0  0
 27 52  1  0  0  0  0
 27 53  1  0  0  0  0
 28 29  1  0  0  0  0
 28 54  1  0  0  0  0
 29 55  1  0  0  0  0
 29 56  1  0  0  0  0
 29 57  1  0  0  0  0
M  CHG  1  22  -1
M  END
>  <MODEL>
       0

$$$$
selected_4mers/AAEA/146_noH.pdb
 OpenBabel03042517503D

 57 56  0  0  1  0  0  0  0  0999 V2000
   31.0720    9.7100   -1.4690 C   0  0  0  0  0  0  0  0  0  0  0  0
   31.6980    9.6440   -0.0920 C   0  0  0  0  0  0  0  0  0  0  0  0
   31.7590   10.6620    0.6110 O   0  0  0  0  0  0  0  0  0  0  0  0
   32.1960    8.4620    0.2780 N   0  0  0  0  0  0  0  0  0  0  0  0
   32.8860    8.3000    1.5490 C   0  0  2  0  0  0  0  0  0  0  0  0
   34.2080    9.0420    1.5750 C   0  0  0  0  0  0  0  0  0  0  0  0
   34.6480    9.4890    2.6310 O   0  0  0  0  0  0  0  0  0  0  0  0
   33.1030    6.8330    1.8670 C   0  0  0  0  0  0  0  0  0  0  0  0
   34.8310    9.2060    0.4070 N   0  0  0  0  0  0  0  0  0  0  0  0
   36.0880    9.9180    0.3350 C   0  0  2  0  0  0  0  0  0  0  0  0
   35.9210   11.4060    0.6750 C   0  0  0  0  0  0  0  0  0  0  0  0
   36.8560   12.0450    1.1300 O   0  0  0  0  0  0  0  0  0  0  0  0
   36.7340    9.7320   -1.0410 C   0  0  0  0  0  0  0  0  0  0  0  0
   34.7120   11.9410    0.4700 N   0  0  0  0  0  0  0  0  0  0  0  0
   34.4020   13.3520    0.7650 C   0  0  2  0  0  0  0  0  0  0  0  0
   33.7670   13.5840    2.1380 C   0  0  0  0  0  0  0  0  0  0  0  0
   33.8170   14.6990    2.6640 O   0  0  0  0  0  0  0  0  0  0  0  0
   33.4680   13.9300   -0.3030 C   0  0  0  0  0  0  0  0  0  0  0  0
   34.0940   14.0620   -1.6820 C   0  0  0  0  0  0  0  0  0  0  0  0
   33.1510   14.6780   -2.6930 C   0  0  0  0  0  0  0  0  0  0  0  0
   32.4960   15.6950   -2.3600 O   0  0  0  0  0  0  0  0  0  0  0  0
   33.0920   14.1600   -3.8290 O   0  0  0  0  0  0  0  0  0  0  0  0
   33.1490   12.5490    2.6970 N   0  0  0  0  0  0  0  0  0  0  0  0
   32.3320   12.6730    3.9070 C   0  0  2  0  0  0  0  0  0  0  0  0
   33.1350   12.9830    5.1690 C   0  0  0  0  0  0  0  0  0  0  0  0
   34.2800   12.5580    5.3240 O   0  0  0  0  0  0  0  0  0  0  0  0
   31.5400   11.3990    4.1030 C   0  0  0  0  0  0  0  0  0  0  0  0
   32.5160   13.7080    6.0950 N   0  0  0  0  0  0  0  0  0  0  0  0
   33.0600   13.8620    7.4400 C   0  0  0  0  0  0  0  0  0  0  0  0
   31.1084    8.7423   -1.9241 H   0  0  0  0  0  0  0  0  0  0  0  0
   31.6120   10.4088   -2.0732 H   0  0  0  0  0  0  0  0  0  0  0  0
   30.0532   10.0255   -1.3829 H   0  0  0  0  0  0  0  0  0  0  0  0
   32.0947    7.6862   -0.3195 H   0  0  0  0  0  0  0  0  0  0  0  0
   32.2564    8.7267    2.3016 H   0  0  0  0  0  0  0  0  0  0  0  0
   33.7319    6.3954    1.1201 H   0  0  0  0  0  0  0  0  0  0  0  0
   32.1600    6.3276    1.8800 H   0  0  0  0  0  0  0  0  0  0  0  0
   33.5702    6.7411    2.8252 H   0  0  0  0  0  0  0  0  0  0  0  0
   34.4312    8.8387   -0.4143 H   0  0  0  0  0  0  0  0  0  0  0  0
   36.7414    9.5003    1.0722 H   0  0  0  0  0  0  0  0  0  0  0  0
   36.0948   10.1440   -1.7937 H   0  0  0  0  0  0  0  0  0  0  0  0
   36.8795    8.6887   -1.2286 H   0  0  0  0  0  0  0  0  0  0  0  0
   37.6790   10.2334   -1.0621 H   0  0  0  0  0  0  0  0  0  0  0  0
   33.9987   11.3680    0.1066 H   0  0  0  0  0  0  0  0  0  0  0  0
   35.3491   13.8499    0.7651 H   0  0  0  0  0  0  0  0  0  0  0  0
   32.6147   13.2894   -0.3831 H   0  0  0  0  0  0  0  0  0  0  0  0
   33.2184   14.9209    0.0144 H   0  0  0  0  0  0  0  0  0  0  0  0
   34.9648   14.6790   -1.6054 H   0  0  0  0  0  0  0  0  0  0  0  0
   34.3366   13.0773   -2.0233 H   0  0  0  0  0  0  0  0  0  0  0  0
   33.2440   11.6619    2.2808 H   0  0  0  0  0  0  0  0  0  0  0  0
   31.6839   13.5110    3.7566 H   0  0  0  0  0  0  0  0  0  0  0  0
   32.2126   10.5800    4.2507 H   0  0  0  0  0  0  0  0  0  0  0  0
   30.9394   11.2155    3.2366 H   0  0  0  0  0  0  0  0  0  0  0  0
   30.9078   11.5004    4.9603 H   0  0  0  0  0  0  0  0  0  0  0  0
   31.6678   14.1530    5.8673 H   0  0  0  0  0  0  0  0  0  0  0  0
   33.9783   13.3184    7.5177 H   0  0  0  0  0  0  0  0  0  0  0  0
   32.3592   13.4822    8.1538 H   0  0  0  0  0  0  0  0  0  0  0  0
   33.2414   14.8983    7.6349 H   0  0  0  0  0  0  0  0  0  0  0  0
  1  2  1  0  0  0  0
  1 30  1  0  0  0  0
  1 31  1  0  0  0  0
  1 32  1  0  0  0  0
  2  4  1  0  0  0  0
  3  2  2  0  0  0  0
  4  5  1  0  0  0  0
  4 33  1  0  0  0  0
  5  6  1  0  0  0  0
  5  8  1  0  0  0  0
  5 34  1  6  0  0  0
  6  7  2  0  0  0  0
  8 35  1  0  0  0  0
  8 36  1  0  0  0  0
  8 37  1  0  0  0  0
  9  6  1  0  0  0  0
  9 10  1  0  0  0  0
  9 38  1  0  0  0  0
 10 13  1  0  0  0  0
 10 39  1  1  0  0  0
 11 12  2  0  0  0  0
 11 10  1  0  0  0  0
 13 40  1  0  0  0  0
 13 41  1  0  0  0  0
 13 42  1  0  0  0  0
 14 11  1  0  0  0  0
 14 43  1  0  0  0  0
 15 16  1  0  0  0  0
 15 14  1  0  0  0  0
 15 44  1  1  0  0  0
 16 17  2  0  0  0  0
 16 23  1  0  0  0  0
 18 15  1  0  0  0  0
 18 45  1  0  0  0  0
 18 46  1  0  0  0  0
 19 18  1  0  0  0  0
 19 47  1  0  0  0  0
 19 48  1  0  0  0  0
 20 19  1  0  0  0  0
 21 20  2  0  0  0  0
 22 20  1  0  0  0  0
 23 24  1  0  0  0  0
 23 49  1  0  0  0  0
 24 27  1  0  0  0  0
 24 25  1  0  0  0  0
 24 50  1  6  0  0  0
 25 26  2  0  0  0  0
 25 28  1  0  0  0  0
 27 51  1  0  0  0  0
 27 52  1  0  0  0  0
 27 53  1  0  0  0  0
 28 29  1  0  0  0  0
 28 54  1  0  0  0  0
 29 55  1  0  0  0  0
 29 56  1  0  0  0  0
 29 57  1  0  0  0  0
M  CHG  1  22  -1
M  END
>  <MODEL>
       0

$$$$
selected_4mers/AAEA/147_noH.pdb
 OpenBabel03042517503D

 57 56  0  0  1  0  0  0  0  0999 V2000
   20.5200   42.8840    9.5370 C   0  0  0  0  0  0  0  0  0  0  0  0
   19.4720   43.9700    9.3060 C   0  0  0  0  0  0  0  0  0  0  0  0
   18.6120   43.8300    8.4310 O   0  0  0  0  0  0  0  0  0  0  0  0
   19.5250   45.0320   10.1030 N   0  0  0  0  0  0  0  0  0  0  0  0
   18.5500   46.1350   10.0080 C   0  0  2  0  0  0  0  0  0  0  0  0
   18.5870   46.8970    8.6800 C   0  0  0  0  0  0  0  0  0  0  0  0
   17.6270   47.5790    8.3280 O   0  0  0  0  0  0  0  0  0  0  0  0
   18.7450   47.1180   11.1820 C   0  0  0  0  0  0  0  0  0  0  0  0
   19.6930   46.7610    7.9420 N   0  0  0  0  0  0  0  0  0  0  0  0
   19.8590   47.4220    6.6490 C   0  0  2  0  0  0  0  0  0  0  0  0
   19.3410   46.5900    5.4760 C   0  0  0  0  0  0  0  0  0  0  0  0
   19.2900   47.0830    4.3410 O   0  0  0  0  0  0  0  0  0  0  0  0
   21.3220   47.7560    6.4280 C   0  0  0  0  0  0  0  0  0  0  0  0
   18.9170   45.3590    5.7360 N   0  0  0  0  0  0  0  0  0  0  0  0
   18.4470   44.5080    4.6560 C   0  0  2  0  0  0  0  0  0  0  0  0
   17.2490   45.1400    3.9620 C   0  0  0  0  0  0  0  0  0  0  0  0
   17.2360   45.2640    2.7490 O   0  0  0  0  0  0  0  0  0  0  0  0
   18.0600   43.1030    5.1700 C   0  0  0  0  0  0  0  0  0  0  0  0
   17.9700   42.0790    4.0470 C   0  0  0  0  0  0  0  0  0  0  0  0
   17.5450   40.7000    4.4930 C   0  0  0  0  0  0  0  0  0  0  0  0
   17.1650   40.5140    5.6630 O   0  0  0  0  0  0  0  0  0  0  0  0
   17.5950   39.7810    3.6590 O   0  0  0  0  0  0  0  0  0  0  0  0
   16.2390   45.5760    4.7230 N   0  0  0  0  0  0  0  0  0  0  0  0
   15.0580   46.1780    4.0900 C   0  0  2  0  0  0  0  0  0  0  0  0
   15.3510   47.4750    3.3010 C   0  0  0  0  0  0  0  0  0  0  0  0
   14.9350   47.5890    2.1470 O   0  0  0  0  0  0  0  0  0  0  0  0
   13.9130   46.3830    5.1260 C   0  0  0  0  0  0  0  0  0  0  0  0
   16.0050   48.4670    3.9160 N   0  0  0  0  0  0  0  0  0  0  0  0
   16.3240   49.6540    3.1050 C   0  0  0  0  0  0  0  0  0  0  0  0
   20.3705   42.0893    8.8363 H   0  0  0  0  0  0  0  0  0  0  0  0
   20.4262   42.5039   10.5328 H   0  0  0  0  0  0  0  0  0  0  0  0
   21.4977   43.2977    9.4038 H   0  0  0  0  0  0  0  0  0  0  0  0
   20.2386   45.0844   10.7793 H   0  0  0  0  0  0  0  0  0  0  0  0
   17.5851   45.6752   10.0581 H   0  0  0  0  0  0  0  0  0  0  0  0
   19.7140   47.5667   11.1143 H   0  0  0  0  0  0  0  0  0  0  0  0
   18.6610   46.5887   12.1081 H   0  0  0  0  0  0  0  0  0  0  0  0
   17.9952   47.8800   11.1374 H   0  0  0  0  0  0  0  0  0  0  0  0
   20.4230   46.1946    8.2819 H   0  0  0  0  0  0  0  0  0  0  0  0
   19.2701   48.3148    6.6817 H   0  0  0  0  0  0  0  0  0  0  0  0
   21.8937   46.8520    6.3983 H   0  0  0  0  0  0  0  0  0  0  0  0
   21.6719   48.3731    7.2290 H   0  0  0  0  0  0  0  0  0  0  0  0
   21.4324   48.2785    5.5008 H   0  0  0  0  0  0  0  0  0  0  0  0
   18.9210   45.0225    6.6612 H   0  0  0  0  0  0  0  0  0  0  0  0
   19.2513   44.4047    3.9579 H   0  0  0  0  0  0  0  0  0  0  0  0
   18.7989   42.7785    5.8726 H   0  0  0  0  0  0  0  0  0  0  0  0
   17.0935   43.1761    5.6233 H   0  0  0  0  0  0  0  0  0  0  0  0
   17.2602   42.4319    3.3283 H   0  0  0  0  0  0  0  0  0  0  0  0
   18.9564   41.9794    3.6446 H   0  0  0  0  0  0  0  0  0  0  0  0
   16.2869   45.4938    5.7029 H   0  0  0  0  0  0  0  0  0  0  0  0
   14.7331   45.4730    3.3535 H   0  0  0  0  0  0  0  0  0  0  0  0
   14.2259   47.0867    5.8688 H   0  0  0  0  0  0  0  0  0  0  0  0
   13.6840   45.4485    5.5941 H   0  0  0  0  0  0  0  0  0  0  0  0
   13.0426   46.7546    4.6268 H   0  0  0  0  0  0  0  0  0  0  0  0
   16.2606   48.4063    4.8648 H   0  0  0  0  0  0  0  0  0  0  0  0
   15.9592   49.5139    2.1089 H   0  0  0  0  0  0  0  0  0  0  0  0
   17.3845   49.7944    3.0800 H   0  0  0  0  0  0  0  0  0  0  0  0
   15.8602   50.5161    3.5368 H   0  0  0  0  0  0  0  0  0  0  0  0
  1  2  1  0  0  0  0
  1 30  1  0  0  0  0
  1 31  1  0  0  0  0
  1 32  1  0  0  0  0
  2  4  1  0  0  0  0
  3  2  2  0  0  0  0
  4  5  1  0  0  0  0
  4 33  1  0  0  0  0
  5  6  1  0  0  0  0
  5  8  1  0  0  0  0
  5 34  1  6  0  0  0
  6  7  2  0  0  0  0
  8 35  1  0  0  0  0
  8 36  1  0  0  0  0
  8 37  1  0  0  0  0
  9  6  1  0  0  0  0
  9 10  1  0  0  0  0
  9 38  1  0  0  0  0
 10 13  1  0  0  0  0
 10 39  1  1  0  0  0
 11 12  2  0  0  0  0
 11 10  1  0  0  0  0
 13 40  1  0  0  0  0
 13 41  1  0  0  0  0
 13 42  1  0  0  0  0
 14 11  1  0  0  0  0
 14 43  1  0  0  0  0
 15 16  1  0  0  0  0
 15 14  1  0  0  0  0
 15 44  1  1  0  0  0
 16 17  2  0  0  0  0
 16 23  1  0  0  0  0
 18 15  1  0  0  0  0
 18 45  1  0  0  0  0
 18 46  1  0  0  0  0
 19 18  1  0  0  0  0
 19 47  1  0  0  0  0
 19 48  1  0  0  0  0
 20 19  1  0  0  0  0
 21 20  2  0  0  0  0
 22 20  1  0  0  0  0
 23 24  1  0  0  0  0
 23 49  1  0  0  0  0
 24 27  1  0  0  0  0
 24 25  1  0  0  0  0
 24 50  1  6  0  0  0
 25 26  2  0  0  0  0
 25 28  1  0  0  0  0
 27 51  1  0  0  0  0
 27 52  1  0  0  0  0
 27 53  1  0  0  0  0
 28 29  1  0  0  0  0
 28 54  1  0  0  0  0
 29 55  1  0  0  0  0
 29 56  1  0  0  0  0
 29 57  1  0  0  0  0
M  CHG  1  22  -1
M  END
>  <MODEL>
       0

$$$$
selected_4mers/AAEA/148_noH.pdb
 OpenBabel03042517503D

 57 56  0  0  1  0  0  0  0  0999 V2000
    4.5630   17.7190   22.3090 C   0  0  0  0  0  0  0  0  0  0  0  0
    4.1800   18.2340   23.6980 C   0  0  0  0  0  0  0  0  0  0  0  0
    4.5980   17.6520   24.7090 O   0  0  0  0  0  0  0  0  0  0  0  0
    3.4430   19.3430   23.7760 N   0  0  0  0  0  0  0  0  0  0  0  0
    3.0520   19.8800   25.0760 C   0  0  2  0  0  0  0  0  0  0  0  0
    1.9690   18.9810   25.6810 C   0  0  0  0  0  0  0  0  0  0  0  0
    1.9290   18.8230   26.8840 O   0  0  0  0  0  0  0  0  0  0  0  0
    2.5740   21.3470   25.0100 C   0  0  0  0  0  0  0  0  0  0  0  0
    1.1140   18.4100   24.8590 N   0  0  0  0  0  0  0  0  0  0  0  0
    0.1670   17.4150   25.3730 C   0  0  2  0  0  0  0  0  0  0  0  0
    0.8880   16.2170   25.9870 C   0  0  0  0  0  0  0  0  0  0  0  0
    0.5770   15.8420   27.1020 O   0  0  0  0  0  0  0  0  0  0  0  0
   -0.7920   16.9710   24.3270 C   0  0  0  0  0  0  0  0  0  0  0  0
    1.8980   15.6690   25.2830 N   0  0  0  0  0  0  0  0  0  0  0  0
    2.6180   14.5050   25.7760 C   0  0  2  0  0  0  0  0  0  0  0  0
    3.2620   14.8510   27.1100 C   0  0  0  0  0  0  0  0  0  0  0  0
    3.2170   14.0470   28.0580 O   0  0  0  0  0  0  0  0  0  0  0  0
    3.6970   14.0070   24.7940 C   0  0  0  0  0  0  0  0  0  0  0  0
    4.3060   12.6660   25.2630 C   0  0  0  0  0  0  0  0  0  0  0  0
    5.2400   12.0360   24.2280 C   0  0  0  0  0  0  0  0  0  0  0  0
    5.3740   12.5990   23.1370 O   0  0  0  0  0  0  0  0  0  0  0  0
    5.7970   10.9400   24.5180 O   0  0  0  0  0  0  0  0  0  0  0  0
    3.9030   16.0310   27.1770 N   0  0  0  0  0  0  0  0  0  0  0  0
    4.5470   16.4430   28.3960 C   0  0  2  0  0  0  0  0  0  0  0  0
    3.5710   16.5410   29.5360 C   0  0  0  0  0  0  0  0  0  0  0  0
    3.8970   16.1650   30.6540 O   0  0  0  0  0  0  0  0  0  0  0  0
    5.3140   17.7680   28.2090 C   0  0  0  0  0  0  0  0  0  0  0  0
    2.3750   17.0590   29.2840 N   0  0  0  0  0  0  0  0  0  0  0  0
    1.3920   17.1560   30.3480 C   0  0  0  0  0  0  0  0  0  0  0  0
    4.1148   18.3404   21.5621 H   0  0  0  0  0  0  0  0  0  0  0  0
    4.2148   16.7139   22.1927 H   0  0  0  0  0  0  0  0  0  0  0  0
    5.6273   17.7425   22.2008 H   0  0  0  0  0  0  0  0  0  0  0  0
    3.1610   19.8021   22.9520 H   0  0  0  0  0  0  0  0  0  0  0  0
    3.9207   19.8855   25.7007 H   0  0  0  0  0  0  0  0  0  0  0  0
    1.7007   21.4102   24.3950 H   0  0  0  0  0  0  0  0  0  0  0  0
    3.3487   21.9561   24.5932 H   0  0  0  0  0  0  0  0  0  0  0  0
    2.3415   21.6911   25.9961 H   0  0  0  0  0  0  0  0  0  0  0  0
    1.1102   18.6496   23.9041 H   0  0  0  0  0  0  0  0  0  0  0  0
   -0.3944   17.8954   26.1469 H   0  0  0  0  0  0  0  0  0  0  0  0
   -0.2584   16.4853   23.5369 H   0  0  0  0  0  0  0  0  0  0  0  0
   -1.3122   17.8205   23.9364 H   0  0  0  0  0  0  0  0  0  0  0  0
   -1.4955   16.2877   24.7550 H   0  0  0  0  0  0  0  0  0  0  0  0
    2.1536   16.0641   24.4182 H   0  0  0  0  0  0  0  0  0  0  0  0
    1.9097   13.7108   25.8875 H   0  0  0  0  0  0  0  0  0  0  0  0
    3.2544   13.8706   23.8294 H   0  0  0  0  0  0  0  0  0  0  0  0
    4.4784   14.7368   24.7517 H   0  0  0  0  0  0  0  0  0  0  0  0
    4.8609   12.8397   26.1612 H   0  0  0  0  0  0  0  0  0  0  0  0
    3.4957   11.9846   25.4179 H   0  0  0  0  0  0  0  0  0  0  0  0
    3.9319   16.6172   26.3866 H   0  0  0  0  0  0  0  0  0  0  0  0
    5.2593   15.6847   28.6461 H   0  0  0  0  0  0  0  0  0  0  0  0
    4.6246   18.5467   27.9574 H   0  0  0  0  0  0  0  0  0  0  0  0
    6.0301   17.6575   27.4217 H   0  0  0  0  0  0  0  0  0  0  0  0
    5.8193   18.0190   29.1182 H   0  0  0  0  0  0  0  0  0  0  0  0
    2.1553   17.3764   28.3783 H   0  0  0  0  0  0  0  0  0  0  0  0
    1.8067   16.7648   31.2535 H   0  0  0  0  0  0  0  0  0  0  0  0
    0.5217   16.5932   30.0820 H   0  0  0  0  0  0  0  0  0  0  0  0
    1.1231   18.1815   30.4927 H   0  0  0  0  0  0  0  0  0  0  0  0
  1  2  1  0  0  0  0
  1 30  1  0  0  0  0
  1 31  1  0  0  0  0
  1 32  1  0  0  0  0
  2  4  1  0  0  0  0
  3  2  2  0  0  0  0
  4  5  1  0  0  0  0
  4 33  1  0  0  0  0
  5  6  1  0  0  0  0
  5  8  1  0  0  0  0
  5 34  1  6  0  0  0
  6  7  2  0  0  0  0
  8 35  1  0  0  0  0
  8 36  1  0  0  0  0
  8 37  1  0  0  0  0
  9  6  1  0  0  0  0
  9 10  1  0  0  0  0
  9 38  1  0  0  0  0
 10 13  1  0  0  0  0
 10 39  1  1  0  0  0
 11 12  2  0  0  0  0
 11 10  1  0  0  0  0
 13 40  1  0  0  0  0
 13 41  1  0  0  0  0
 13 42  1  0  0  0  0
 14 11  1  0  0  0  0
 14 43  1  0  0  0  0
 15 16  1  0  0  0  0
 15 14  1  0  0  0  0
 15 44  1  1  0  0  0
 16 17  2  0  0  0  0
 16 23  1  0  0  0  0
 18 15  1  0  0  0  0
 18 45  1  0  0  0  0
 18 46  1  0  0  0  0
 19 18  1  0  0  0  0
 19 47  1  0  0  0  0
 19 48  1  0  0  0  0
 20 19  1  0  0  0  0
 21 20  2  0  0  0  0
 22 20  1  0  0  0  0
 23 24  1  0  0  0  0
 23 49  1  0  0  0  0
 24 27  1  0  0  0  0
 24 25  1  0  0  0  0
 24 50  1  6  0  0  0
 25 26  2  0  0  0  0
 25 28  1  0  0  0  0
 27 51  1  0  0  0  0
 27 52  1  0  0  0  0
 27 53  1  0  0  0  0
 28 29  1  0  0  0  0
 28 54  1  0  0  0  0
 29 55  1  0  0  0  0
 29 56  1  0  0  0  0
 29 57  1  0  0  0  0
M  CHG  1  22  -1
M  END
>  <MODEL>
       0

$$$$
selected_4mers/AAEA/149_noH.pdb
 OpenBabel03042517503D

 57 56  0  0  1  0  0  0  0  0999 V2000
    0.2720   15.2010   -0.2270 C   0  0  0  0  0  0  0  0  0  0  0  0
   -1.0040   14.9100    0.5610 C   0  0  0  0  0  0  0  0  0  0  0  0
   -1.0020   14.9150    1.7970 O   0  0  0  0  0  0  0  0  0  0  0  0
   -2.0970   14.6780   -0.1560 N   0  0  0  0  0  0  0  0  0  0  0  0
   -3.3760   14.3300    0.4510 C   0  0  2  0  0  0  0  0  0  0  0  0
   -4.2060   13.6590   -0.6270 C   0  0  0  0  0  0  0  0  0  0  0  0
   -4.0820   14.0030   -1.7980 O   0  0  0  0  0  0  0  0  0  0  0  0
   -4.0870   15.5710    0.9700 C   0  0  0  0  0  0  0  0  0  0  0  0
   -5.0360   12.6990   -0.2270 N   0  0  0  0  0  0  0  0  0  0  0  0
   -5.8400   11.9230   -1.1710 C   0  0  2  0  0  0  0  0  0  0  0  0
   -7.0930   11.4580   -0.4600 C   0  0  0  0  0  0  0  0  0  0  0  0
   -7.0110   10.7990    0.5800 O   0  0  0  0  0  0  0  0  0  0  0  0
   -5.0530   10.7340   -1.6940 C   0  0  0  0  0  0  0  0  0  0  0  0
   -8.2520   11.8300   -0.9920 N   0  0  0  0  0  0  0  0  0  0  0  0
   -9.5110   11.5370   -0.3230 C   0  0  2  0  0  0  0  0  0  0  0  0
  -10.5200   11.0370   -1.3330 C   0  0  0  0  0  0  0  0  0  0  0  0
  -10.6020   11.5580   -2.4400 O   0  0  0  0  0  0  0  0  0  0  0  0
  -10.0710   12.7960    0.3590 C   0  0  0  0  0  0  0  0  0  0  0  0
   -9.1740   13.3940    1.4520 C   0  0  0  0  0  0  0  0  0  0  0  0
   -9.1340   12.5530    2.7210 C   0  0  0  0  0  0  0  0  0  0  0  0
  -10.0560   11.7320    2.9350 O   0  0  0  0  0  0  0  0  0  0  0  0
   -8.1750   12.7220    3.5090 O   0  0  0  0  0  0  0  0  0  0  0  0
  -11.2910   10.0280   -0.9480 N   0  0  0  0  0  0  0  0  0  0  0  0
  -12.4090    9.5780   -1.7650 C   0  0  2  0  0  0  0  0  0  0  0  0
  -13.6990   10.0710   -1.1330 C   0  0  0  0  0  0  0  0  0  0  0  0
  -13.8820    9.9640    0.0800 O   0  0  0  0  0  0  0  0  0  0  0  0
  -12.4110    8.0620   -1.8760 C   0  0  0  0  0  0  0  0  0  0  0  0
  -14.5840   10.6350   -1.9480 N   0  0  0  0  0  0  0  0  0  0  0  0
  -15.8680   11.1150   -1.4570 C   0  0  0  0  0  0  0  0  0  0  0  0
    0.0635   15.1491   -1.2752 H   0  0  0  0  0  0  0  0  0  0  0  0
    1.0192   14.4775    0.0243 H   0  0  0  0  0  0  0  0  0  0  0  0
    0.6270   16.1802    0.0180 H   0  0  0  0  0  0  0  0  0  0  0  0
   -2.0416   14.7436   -1.1367 H   0  0  0  0  0  0  0  0  0  0  0  0
   -3.2301   13.6787    1.2873 H   0  0  0  0  0  0  0  0  0  0  0  0
   -4.2528   16.2516    0.1611 H   0  0  0  0  0  0  0  0  0  0  0  0
   -3.4817   16.0434    1.7152 H   0  0  0  0  0  0  0  0  0  0  0  0
   -5.0265   15.2908    1.3986 H   0  0  0  0  0  0  0  0  0  0  0  0
   -5.1114   12.5047    0.7352 H   0  0  0  0  0  0  0  0  0  0  0  0
   -6.1016   12.5326   -2.0106 H   0  0  0  0  0  0  0  0  0  0  0  0
   -4.7753   10.1025   -0.8761 H   0  0  0  0  0  0  0  0  0  0  0  0
   -4.1717   11.0808   -2.1920 H   0  0  0  0  0  0  0  0  0  0  0  0
   -5.6575   10.1811   -2.3823 H   0  0  0  0  0  0  0  0  0  0  0  0
   -8.2595   12.3108   -1.8511 H   0  0  0  0  0  0  0  0  0  0  0  0
   -9.3304   10.7880    0.4195 H   0  0  0  0  0  0  0  0  0  0  0  0
  -11.0113   12.5430    0.8026 H   0  0  0  0  0  0  0  0  0  0  0  0
  -10.1490   13.5409   -0.4051 H   0  0  0  0  0  0  0  0  0  0  0  0
   -9.5431   14.3671    1.7003 H   0  0  0  0  0  0  0  0  0  0  0  0
   -8.1781   13.4296    1.0623 H   0  0  0  0  0  0  0  0  0  0  0  0
  -11.1036    9.5753   -0.0941 H   0  0  0  0  0  0  0  0  0  0  0  0
  -12.3184    9.9758   -2.7542 H   0  0  0  0  0  0  0  0  0  0  0  0
  -12.5007    7.6330   -0.8999 H   0  0  0  0  0  0  0  0  0  0  0  0
  -11.4966    7.7361   -2.3261 H   0  0  0  0  0  0  0  0  0  0  0  0
  -13.2371    7.7497   -2.4801 H   0  0  0  0  0  0  0  0  0  0  0  0
  -14.3671   10.7303   -2.9036 H   0  0  0  0  0  0  0  0  0  0  0  0
  -15.9378   10.9338   -0.4048 H   0  0  0  0  0  0  0  0  0  0  0  0
  -16.6582   10.5988   -1.9610 H   0  0  0  0  0  0  0  0  0  0  0  0
  -15.9515   12.1651   -1.6444 H   0  0  0  0  0  0  0  0  0  0  0  0
  1  2  1  0  0  0  0
  1 30  1  0  0  0  0
  1 31  1  0  0  0  0
  1 32  1  0  0  0  0
  2  4  1  0  0  0  0
  3  2  2  0  0  0  0
  4  5  1  0  0  0  0
  4 33  1  0  0  0  0
  5  6  1  0  0  0  0
  5  8  1  0  0  0  0
  5 34  1  6  0  0  0
  6  7  2  0  0  0  0
  8 35  1  0  0  0  0
  8 36  1  0  0  0  0
  8 37  1  0  0  0  0
  9  6  1  0  0  0  0
  9 10  1  0  0  0  0
  9 38  1  0  0  0  0
 10 13  1  0  0  0  0
 10 39  1  1  0  0  0
 11 12  2  0  0  0  0
 11 10  1  0  0  0  0
 13 40  1  0  0  0  0
 13 41  1  0  0  0  0
 13 42  1  0  0  0  0
 14 11  1  0  0  0  0
 14 43  1  0  0  0  0
 15 16  1  0  0  0  0
 15 14  1  0  0  0  0
 15 44  1  1  0  0  0
 16 17  2  0  0  0  0
 16 23  1  0  0  0  0
 18 15  1  0  0  0  0
 18 45  1  0  0  0  0
 18 46  1  0  0  0  0
 19 18  1  0  0  0  0
 19 47  1  0  0  0  0
 19 48  1  0  0  0  0
 20 19  1  0  0  0  0
 21 20  2  0  0  0  0
 22 20  1  0  0  0  0
 23 24  1  0  0  0  0
 23 49  1  0  0  0  0
 24 27  1  0  0  0  0
 24 25  1  0  0  0  0
 24 50  1  6  0  0  0
 25 26  2  0  0  0  0
 25 28  1  0  0  0  0
 27 51  1  0  0  0  0
 27 52  1  0  0  0  0
 27 53  1  0  0  0  0
 28 29  1  0  0  0  0
 28 54  1  0  0  0  0
 29 55  1  0  0  0  0
 29 56  1  0  0  0  0
 29 57  1  0  0  0  0
M  CHG  1  22  -1
M  END
>  <MODEL>
       0

$$$$
