selected_4mers/AAEL/215_noH.pdb
 OpenBabel03042517503D

 66 65  0  0  1  0  0  0  0  0999 V2000
   20.2380   27.1220   32.1320 C   0  0  0  0  0  0  0  0  0  0  0  0
   19.4090   28.3340   31.6620 C   0  0  0  0  0  0  0  0  0  0  0  0
   18.2120   28.4420   31.9670 O   0  0  0  0  0  0  0  0  0  0  0  0
   20.0520   29.1960   30.8780 N   0  0  0  0  0  0  0  0  0  0  0  0
   19.3830   30.3680   30.3450 C   0  0  2  0  0  0  0  0  0  0  0  0
   18.1960   29.9810   29.4530 C   0  0  0  0  0  0  0  0  0  0  0  0
   17.1070   30.5720   29.5730 O   0  0  0  0  0  0  0  0  0  0  0  0
   20.3840   31.2460   29.5510 C   0  0  0  0  0  0  0  0  0  0  0  0
   18.4070   28.9870   28.5980 N   0  0  0  0  0  0  0  0  0  0  0  0
   17.3390   28.4930   27.7340 C   0  0  2  0  0  0  0  0  0  0  0  0
   16.1640   27.9190   28.5190 C   0  0  0  0  0  0  0  0  0  0  0  0
   15.0140   28.1290   28.1480 O   0  0  0  0  0  0  0  0  0  0  0  0
   17.8830   27.4850   26.7700 C   0  0  0  0  0  0  0  0  0  0  0  0
   16.4600   27.1960   29.6020 N   0  0  0  0  0  0  0  0  0  0  0  0
   15.4240   26.6130   30.4540 C   0  0  2  0  0  0  0  0  0  0  0  0
   14.6170   27.7130   31.1570 C   0  0  0  0  0  0  0  0  0  0  0  0
   13.4190   27.6640   31.2120 O   0  0  0  0  0  0  0  0  0  0  0  0
   15.9910   25.6560   31.4810 C   0  0  0  0  0  0  0  0  0  0  0  0
   14.9690   24.6960   32.0890 C   0  0  0  0  0  0  0  0  0  0  0  0
   14.4610   23.6900   31.0800 C   0  0  0  0  0  0  0  0  0  0  0  0
   15.2170   23.3890   30.1020 O   0  0  0  0  0  0  0  0  0  0  0  0
   13.3040   23.2330   31.2090 O   0  0  0  0  0  0  0  0  0  0  0  0
   15.3140   28.7080   31.7070 N   0  0  0  0  0  0  0  0  0  0  0  0
   14.6490   29.8210   32.3850 C   0  0  2  0  0  0  0  0  0  0  0  0
   13.8650   30.6630   31.4090 C   0  0  0  0  0  0  0  0  0  0  0  0
   12.7760   31.1150   31.7170 O   0  0  0  0  0  0  0  0  0  0  0  0
   15.6910   30.6880   33.1340 C   0  0  0  0  0  0  0  0  0  0  0  0
   16.2510   30.0200   34.4080 C   0  0  0  0  0  0  0  0  0  0  0  0
   17.5150   30.7090   34.8080 C   0  0  0  0  0  0  0  0  0  0  0  0
   15.2570   29.9470   35.5710 C   0  0  0  0  0  0  0  0  0  0  0  0
   14.3720   30.8320   30.2010 N   0  0  0  0  0  0  0  0  0  0  0  0
   13.6490   31.6400   29.1990 C   0  0  0  0  0  0  0  0  0  0  0  0
   21.2402   27.2127   31.7682 H   0  0  0  0  0  0  0  0  0  0  0  0
   19.8008   26.2221   31.7525 H   0  0  0  0  0  0  0  0  0  0  0  0
   20.2483   27.0901   33.2015 H   0  0  0  0  0  0  0  0  0  0  0  0
   20.9976   29.0357   30.6559 H   0  0  0  0  0  0  0  0  0  0  0  0
   19.0034   30.9304   31.1723 H   0  0  0  0  0  0  0  0  0  0  0  0
   20.7674   30.6888   28.7218 H   0  0  0  0  0  0  0  0  0  0  0  0
   21.1916   31.5340   30.1912 H   0  0  0  0  0  0  0  0  0  0  0  0
   19.8840   32.1212   29.1920 H   0  0  0  0  0  0  0  0  0  0  0  0
   19.3000   28.5757   28.5459 H   0  0  0  0  0  0  0  0  0  0  0  0
   16.9567   29.3308   27.1891 H   0  0  0  0  0  0  0  0  0  0  0  0
   18.2666   26.6451   27.3107 H   0  0  0  0  0  0  0  0  0  0  0  0
   18.6693   27.9288   26.1958 H   0  0  0  0  0  0  0  0  0  0  0  0
   17.1020   27.1607   26.1145 H   0  0  0  0  0  0  0  0  0  0  0  0
   17.4056   27.0508   29.8343 H   0  0  0  0  0  0  0  0  0  0  0  0
   14.7777   26.0524   29.8114 H   0  0  0  0  0  0  0  0  0  0  0  0
   16.4198   26.2328   32.2737 H   0  0  0  0  0  0  0  0  0  0  0  0
   16.7079   25.0501   30.9674 H   0  0  0  0  0  0  0  0  0  0  0  0
   15.4295   24.1697   32.8988 H   0  0  0  0  0  0  0  0  0  0  0  0
   14.1342   25.2743   32.4259 H   0  0  0  0  0  0  0  0  0  0  0  0
   16.2971   28.6933   31.6557 H   0  0  0  0  0  0  0  0  0  0  0  0
   13.9596   29.4158   33.0959 H   0  0  0  0  0  0  0  0  0  0  0  0
   15.2258   31.6104   33.4125 H   0  0  0  0  0  0  0  0  0  0  0  0
   16.5156   30.8324   32.4676 H   0  0  0  0  0  0  0  0  0  0  0  0
   16.4513   28.9976   34.1643 H   0  0  0  0  0  0  0  0  0  0  0  0
   17.3038   31.7298   35.0494 H   0  0  0  0  0  0  0  0  0  0  0  0
   18.2135   30.6712   33.9983 H   0  0  0  0  0  0  0  0  0  0  0  0
   17.9330   30.2195   35.6627 H   0  0  0  0  0  0  0  0  0  0  0  0
   14.9988   30.9376   35.8822 H   0  0  0  0  0  0  0  0  0  0  0  0
   15.7032   29.4210   36.3890 H   0  0  0  0  0  0  0  0  0  0  0  0
   14.3746   29.4313   35.2542 H   0  0  0  0  0  0  0  0  0  0  0  0
   15.2344   30.4180   29.9682 H   0  0  0  0  0  0  0  0  0  0  0  0
   12.7391   32.0070   29.6260 H   0  0  0  0  0  0  0  0  0  0  0  0
   13.4239   31.0334   28.3468 H   0  0  0  0  0  0  0  0  0  0  0  0
   14.2600   32.4652   28.8980 H   0  0  0  0  0  0  0  0  0  0  0  0
  1 33  1  0  0  0  0
  1 34  1  0  0  0  0
  1 35  1  0  0  0  0
  2  3  2  0  0  0  0
  2  1  1  0  0  0  0
  4  2  1  0  0  0  0
  4 36  1  0  0  0  0
  5  4  1  0  0  0  0
  5 37  1  1  0  0  0
  6  7  2  0  0  0  0
  6  5  1  0  0  0  0
  8  5  1  0  0  0  0
  8 38  1  0  0  0  0
  8 39  1  0  0  0  0
  8 40  1  0  0  0  0
  9  6  1  0  0  0  0
  9 41  1  0  0  0  0
 10 11  1  0  0  0  0
 10  9  1  0  0  0  0
 10 42  1  6  0  0  0
 11 14  1  0  0  0  0
 12 11  2  0  0  0  0
 13 10  1  0  0  0  0
 13 43  1  0  0  0  0
 13 44  1  0  0  0  0
 13 45  1  0  0  0  0
 14 15  1  0  0  0  0
 14 46  1  0  0  0  0
 15 16  1  0  0  0  0
 15 18  1  0  0  0  0
 15 47  1  6  0  0  0
 16 17  2  0  0  0  0
 16 23  1  0  0  0  0
 18 19  1  0  0  0  0
 18 48  1  0  0  0  0
 18 49  1  0  0  0  0
 19 50  1  0  0  0  0
 19 51  1  0  0  0  0
 20 22  1  0  0  0  0
 20 19  1  0  0  0  0
 21 20  2  0  0  0  0
 23 24  1  0  0  0  0
 23 52  1  0  0  0  0
 24 27  1  0  0  0  0
 24 53  1  1  0  0  0
 25 26  2  0  0  0  0
 25 24  1  0  0  0  0
 27 28  1  0  0  0  0
 27 54  1  0  0  0  0
 27 55  1  0  0  0  0
 28 29  1  0  0  0  0
 28 30  1  0  0  0  0
 28 56  1  0  0  0  0
 29 57  1  0  0  0  0
 29 58  1  0  0  0  0
 29 59  1  0  0  0  0
 30 60  1  0  0  0  0
 30 61  1  0  0  0  0
 30 62  1  0  0  0  0
 31 25  1  0  0  0  0
 31 63  1  0  0  0  0
 32 31  1  0  0  0  0
 32 64  1  0  0  0  0
 32 65  1  0  0  0  0
 32 66  1  0  0  0  0
M  CHG  1  22  -1
M  END
>  <MODEL>
       0

$$$$
selected_4mers/AAEL/216_noH.pdb
 OpenBabel03042517503D

 66 65  0  0  1  0  0  0  0  0999 V2000
   24.0110   17.6390   67.2050 C   0  0  0  0  0  0  0  0  0  0  0  0
   22.6990   17.2430   66.5400 C   0  0  0  0  0  0  0  0  0  0  0  0
   22.4190   17.7270   65.4310 O   0  0  0  0  0  0  0  0  0  0  0  0
   21.9290   16.3890   67.1860 N   0  0  0  0  0  0  0  0  0  0  0  0
   20.6200   15.9650   66.6460 C   0  0  2  0  0  0  0  0  0  0  0  0
   19.5620   17.0020   66.9930 C   0  0  0  0  0  0  0  0  0  0  0  0
   18.6380   16.8150   67.7970 O   0  0  0  0  0  0  0  0  0  0  0  0
   20.2730   14.6140   67.2700 C   0  0  0  0  0  0  0  0  0  0  0  0
   19.7440   18.1850   66.4080 N   0  0  0  0  0  0  0  0  0  0  0  0
   18.8500   19.3090   66.5770 C   0  0  2  0  0  0  0  0  0  0  0  0
   17.4280   18.8990   66.1870 C   0  0  0  0  0  0  0  0  0  0  0  0
   17.2250   18.0690   65.2970 O   0  0  0  0  0  0  0  0  0  0  0  0
   19.2600   20.5260   65.7490 C   0  0  0  0  0  0  0  0  0  0  0  0
   16.4820   19.5560   66.8130 N   0  0  0  0  0  0  0  0  0  0  0  0
   15.0740   19.2730   66.5330 C   0  0  2  0  0  0  0  0  0  0  0  0
   14.7560   19.5520   65.0570 C   0  0  0  0  0  0  0  0  0  0  0  0
   15.1580   20.5600   64.5030 O   0  0  0  0  0  0  0  0  0  0  0  0
   14.2280   20.2290   67.3680 C   0  0  0  0  0  0  0  0  0  0  0  0
   12.7230   20.0520   67.2120 C   0  0  0  0  0  0  0  0  0  0  0  0
   11.9700   21.1400   67.9610 C   0  0  0  0  0  0  0  0  0  0  0  0
   12.5360   21.9650   68.7010 O   0  0  0  0  0  0  0  0  0  0  0  0
   10.7250   21.2000   67.8200 O   0  0  0  0  0  0  0  0  0  0  0  0
   14.0540   18.6080   64.4680 N   0  0  0  0  0  0  0  0  0  0  0  0
   13.5900   18.7390   63.0930 C   0  0  2  0  0  0  0  0  0  0  0  0
   12.1550   19.2590   63.0720 C   0  0  0  0  0  0  0  0  0  0  0  0
   11.3600   19.0220   63.9790 O   0  0  0  0  0  0  0  0  0  0  0  0
   13.6270   17.3850   62.4210 C   0  0  0  0  0  0  0  0  0  0  0  0
   14.9850   16.6740   62.3600 C   0  0  0  0  0  0  0  0  0  0  0  0
   14.8160   15.3640   61.6170 C   0  0  0  0  0  0  0  0  0  0  0  0
   15.9720   17.5860   61.6230 C   0  0  0  0  0  0  0  0  0  0  0  0
   11.8220   19.9520   61.9840 N   0  0  0  0  0  0  0  0  0  0  0  0
   10.4930   20.4850   61.8040 C   0  0  0  0  0  0  0  0  0  0  0  0
   24.5336   18.3314   66.5786 H   0  0  0  0  0  0  0  0  0  0  0  0
   24.6133   16.7671   67.3530 H   0  0  0  0  0  0  0  0  0  0  0  0
   23.8077   18.0967   68.1505 H   0  0  0  0  0  0  0  0  0  0  0  0
   22.2334   16.0252   68.0487 H   0  0  0  0  0  0  0  0  0  0  0  0
   20.6592   15.8754   65.5805 H   0  0  0  0  0  0  0  0  0  0  0  0
   20.2358   14.7120   68.3349 H   0  0  0  0  0  0  0  0  0  0  0  0
   21.0201   13.8958   67.0038 H   0  0  0  0  0  0  0  0  0  0  0  0
   19.3201   14.2883   66.9083 H   0  0  0  0  0  0  0  0  0  0  0  0
   20.5312   18.3005   65.8282 H   0  0  0  0  0  0  0  0  0  0  0  0
   18.8981   19.5898   67.6084 H   0  0  0  0  0  0  0  0  0  0  0  0
   19.2226   20.2786   64.7087 H   0  0  0  0  0  0  0  0  0  0  0  0
   20.2559   20.8165   66.0110 H   0  0  0  0  0  0  0  0  0  0  0  0
   18.5886   21.3351   65.9475 H   0  0  0  0  0  0  0  0  0  0  0  0
   16.7204   20.2440   67.4756 H   0  0  0  0  0  0  0  0  0  0  0  0
   14.8688   18.2479   66.7607 H   0  0  0  0  0  0  0  0  0  0  0  0
   14.4769   21.2298   67.0826 H   0  0  0  0  0  0  0  0  0  0  0  0
   14.4522   20.0141   68.3919 H   0  0  0  0  0  0  0  0  0  0  0  0
   12.4399   19.0970   67.6028 H   0  0  0  0  0  0  0  0  0  0  0  0
   12.4762   20.1177   66.1729 H   0  0  0  0  0  0  0  0  0  0  0  0
   13.8360   17.7899   64.9705 H   0  0  0  0  0  0  0  0  0  0  0  0
   14.2264   19.4261   62.5756 H   0  0  0  0  0  0  0  0  0  0  0  0
   12.9509   16.7446   62.9480 H   0  0  0  0  0  0  0  0  0  0  0  0
   13.3667   17.5743   61.4006 H   0  0  0  0  0  0  0  0  0  0  0  0
   15.3570   16.4693   63.3422 H   0  0  0  0  0  0  0  0  0  0  0  0
   14.4440   15.5577   60.6326 H   0  0  0  0  0  0  0  0  0  0  0  0
   14.1232   14.7418   62.1441 H   0  0  0  0  0  0  0  0  0  0  0  0
   15.7615   14.8676   61.5497 H   0  0  0  0  0  0  0  0  0  0  0  0
   15.6018   17.7920   60.6404 H   0  0  0  0  0  0  0  0  0  0  0  0
   16.9222   17.0992   61.5514 H   0  0  0  0  0  0  0  0  0  0  0  0
   16.0810   18.5035   62.1626 H   0  0  0  0  0  0  0  0  0  0  0  0
   12.4991   20.1042   61.2857 H   0  0  0  0  0  0  0  0  0  0  0  0
    9.8889   20.2299   62.6495 H   0  0  0  0  0  0  0  0  0  0  0  0
   10.0595   20.0706   60.9178 H   0  0  0  0  0  0  0  0  0  0  0  0
   10.5453   21.5497   61.7112 H   0  0  0  0  0  0  0  0  0  0  0  0
  1 33  1  0  0  0  0
  1 34  1  0  0  0  0
  1 35  1  0  0  0  0
  2  3  2  0  0  0  0
  2  1  1  0  0  0  0
  4  2  1  0  0  0  0
  4 36  1  0  0  0  0
  5  4  1  0  0  0  0
  5 37  1  1  0  0  0
  6  7  2  0  0  0  0
  6  5  1  0  0  0  0
  8  5  1  0  0  0  0
  8 38  1  0  0  0  0
  8 39  1  0  0  0  0
  8 40  1  0  0  0  0
  9  6  1  0  0  0  0
  9 41  1  0  0  0  0
 10 11  1  0  0  0  0
 10  9  1  0  0  0  0
 10 42  1  6  0  0  0
 11 14  1  0  0  0  0
 12 11  2  0  0  0  0
 13 10  1  0  0  0  0
 13 43  1  0  0  0  0
 13 44  1  0  0  0  0
 13 45  1  0  0  0  0
 14 15  1  0  0  0  0
 14 46  1  0  0  0  0
 15 16  1  0  0  0  0
 15 18  1  0  0  0  0
 15 47  1  6  0  0  0
 16 17  2  0  0  0  0
 16 23  1  0  0  0  0
 18 19  1  0  0  0  0
 18 48  1  0  0  0  0
 18 49  1  0  0  0  0
 19 50  1  0  0  0  0
 19 51  1  0  0  0  0
 20 22  1  0  0  0  0
 20 19  1  0  0  0  0
 21 20  2  0  0  0  0
 23 24  1  0  0  0  0
 23 52  1  0  0  0  0
 24 27  1  0  0  0  0
 24 53  1  1  0  0  0
 25 26  2  0  0  0  0
 25 24  1  0  0  0  0
 27 28  1  0  0  0  0
 27 54  1  0  0  0  0
 27 55  1  0  0  0  0
 28 29  1  0  0  0  0
 28 30  1  0  0  0  0
 28 56  1  0  0  0  0
 29 57  1  0  0  0  0
 29 58  1  0  0  0  0
 29 59  1  0  0  0  0
 30 60  1  0  0  0  0
 30 61  1  0  0  0  0
 30 62  1  0  0  0  0
 31 25  1  0  0  0  0
 31 63  1  0  0  0  0
 32 31  1  0  0  0  0
 32 64  1  0  0  0  0
 32 65  1  0  0  0  0
 32 66  1  0  0  0  0
M  CHG  1  22  -1
M  END
>  <MODEL>
       0

$$$$
selected_4mers/AAEL/217_noH.pdb
 OpenBabel03042517503D

 66 65  0  0  1  0  0  0  0  0999 V2000
   21.6640   21.1380   15.1250 C   0  0  0  0  0  0  0  0  0  0  0  0
   21.5710   22.5160   14.4750 C   0  0  0  0  0  0  0  0  0  0  0  0
   20.7970   22.7270   13.5360 O   0  0  0  0  0  0  0  0  0  0  0  0
   22.3590   23.4540   14.9840 N   0  0  0  0  0  0  0  0  0  0  0  0
   22.3540   24.8200   14.4730 C   0  0  2  0  0  0  0  0  0  0  0  0
   22.6330   24.8540   12.9760 C   0  0  0  0  0  0  0  0  0  0  0  0
   22.0460   25.6560   12.2530 O   0  0  0  0  0  0  0  0  0  0  0  0
   23.3550   25.6790   15.2300 C   0  0  0  0  0  0  0  0  0  0  0  0
   23.5330   23.9840   12.5200 N   0  0  0  0  0  0  0  0  0  0  0  0
   23.8810   23.8910   11.1080 C   0  0  2  0  0  0  0  0  0  0  0  0
   22.6580   23.5440   10.2640 C   0  0  0  0  0  0  0  0  0  0  0  0
   22.4070   24.1720    9.2330 O   0  0  0  0  0  0  0  0  0  0  0  0
   24.9970   22.8490   10.9070 C   0  0  0  0  0  0  0  0  0  0  0  0
   21.9000   22.5470   10.7130 N   0  0  0  0  0  0  0  0  0  0  0  0
   20.7030   22.1030    9.9960 C   0  0  2  0  0  0  0  0  0  0  0  0
   19.5970   23.1600   10.0680 C   0  0  0  0  0  0  0  0  0  0  0  0
   18.8840   23.3740    9.0870 O   0  0  0  0  0  0  0  0  0  0  0  0
   20.2090   20.7540   10.5320 C   0  0  0  0  0  0  0  0  0  0  0  0
   20.9450   19.5120   10.0040 C   0  0  0  0  0  0  0  0  0  0  0  0
   22.3810   19.3770   10.4880 C   0  0  0  0  0  0  0  0  0  0  0  0
   22.7270   19.9240   11.5590 O   0  0  0  0  0  0  0  0  0  0  0  0
   23.1780   18.7160    9.7880 O   0  0  0  0  0  0  0  0  0  0  0  0
   19.4770   23.8310   11.2170 N   0  0  0  0  0  0  0  0  0  0  0  0
   18.5210   24.9310   11.3890 C   0  0  2  0  0  0  0  0  0  0  0  0
   18.8210   26.0600   10.3940 C   0  0  0  0  0  0  0  0  0  0  0  0
   17.9400   26.5590    9.6870 O   0  0  0  0  0  0  0  0  0  0  0  0
   18.6040   25.4680   12.8190 C   0  0  0  0  0  0  0  0  0  0  0  0
   17.7270   26.6620   13.1820 C   0  0  0  0  0  0  0  0  0  0  0  0
   16.2580   26.2780   13.0850 C   0  0  0  0  0  0  0  0  0  0  0  0
   18.0760   27.1610   14.5940 C   0  0  0  0  0  0  0  0  0  0  0  0
   20.0830   26.4490   10.3440 N   0  0  0  0  0  0  0  0  0  0  0  0
   20.5380   27.4890    9.4400 C   0  0  0  0  0  0  0  0  0  0  0  0
   20.9889   20.4669   14.6364 H   0  0  0  0  0  0  0  0  0  0  0  0
   21.4047   21.2138   16.1603 H   0  0  0  0  0  0  0  0  0  0  0  0
   22.6636   20.7674   15.0339 H   0  0  0  0  0  0  0  0  0  0  0  0
   22.9629   23.2220   15.7261 H   0  0  0  0  0  0  0  0  0  0  0  0
   21.3758   25.2246   14.6290 H   0  0  0  0  0  0  0  0  0  0  0  0
   24.3408   25.2889   15.0856 H   0  0  0  0  0  0  0  0  0  0  0  0
   23.1167   25.6689   16.2731 H   0  0  0  0  0  0  0  0  0  0  0  0
   23.3117   26.6835   14.8639 H   0  0  0  0  0  0  0  0  0  0  0  0
   23.9787   23.3827   13.1595 H   0  0  0  0  0  0  0  0  0  0  0  0
   24.2396   24.8456   10.7838 H   0  0  0  0  0  0  0  0  0  0  0  0
   24.6505   21.8889   11.2279 H   0  0  0  0  0  0  0  0  0  0  0  0
   25.8545   23.1293   11.4824 H   0  0  0  0  0  0  0  0  0  0  0  0
   25.2614   22.8049    9.8711 H   0  0  0  0  0  0  0  0  0  0  0  0
   22.1510   22.0951   11.5509 H   0  0  0  0  0  0  0  0  0  0  0  0
   20.9663   21.9711    8.9673 H   0  0  0  0  0  0  0  0  0  0  0  0
   19.1752   20.6571   10.2735 H   0  0  0  0  0  0  0  0  0  0  0  0
   20.3952   20.7751   11.5855 H   0  0  0  0  0  0  0  0  0  0  0  0
   20.4035   18.6440   10.3176 H   0  0  0  0  0  0  0  0  0  0  0  0
   20.9906   19.6145    8.9399 H   0  0  0  0  0  0  0  0  0  0  0  0
   20.0509   23.5783   11.9760 H   0  0  0  0  0  0  0  0  0  0  0  0
   17.5340   24.5617   11.2037 H   0  0  0  0  0  0  0  0  0  0  0  0
   19.6202   25.7534   12.9943 H   0  0  0  0  0  0  0  0  0  0  0  0
   18.2373   24.6689   13.4288 H   0  0  0  0  0  0  0  0  0  0  0  0
   17.9103   27.4583   12.4912 H   0  0  0  0  0  0  0  0  0  0  0  0
   16.0517   25.4814   13.7689 H   0  0  0  0  0  0  0  0  0  0  0  0
   16.0381   25.9580   12.0879 H   0  0  0  0  0  0  0  0  0  0  0  0
   15.6511   27.1245   13.3299 H   0  0  0  0  0  0  0  0  0  0  0  0
   17.8997   26.3787   15.3024 H   0  0  0  0  0  0  0  0  0  0  0  0
   17.4644   28.0052   14.8353 H   0  0  0  0  0  0  0  0  0  0  0  0
   19.1067   27.4463   14.6268 H   0  0  0  0  0  0  0  0  0  0  0  0
   20.7371   26.0184   10.9407 H   0  0  0  0  0  0  0  0  0  0  0  0
   19.7102   27.8500    8.8661 H   0  0  0  0  0  0  0  0  0  0  0  0
   21.2811   27.0895    8.7819 H   0  0  0  0  0  0  0  0  0  0  0  0
   20.9582   28.2944   10.0055 H   0  0  0  0  0  0  0  0  0  0  0  0
  1 33  1  0  0  0  0
  1 34  1  0  0  0  0
  1 35  1  0  0  0  0
  2  3  2  0  0  0  0
  2  1  1  0  0  0  0
  4  2  1  0  0  0  0
  4 36  1  0  0  0  0
  5  4  1  0  0  0  0
  5 37  1  1  0  0  0
  6  7  2  0  0  0  0
  6  5  1  0  0  0  0
  8  5  1  0  0  0  0
  8 38  1  0  0  0  0
  8 39  1  0  0  0  0
  8 40  1  0  0  0  0
  9  6  1  0  0  0  0
  9 41  1  0  0  0  0
 10 11  1  0  0  0  0
 10  9  1  0  0  0  0
 10 42  1  6  0  0  0
 11 14  1  0  0  0  0
 12 11  2  0  0  0  0
 13 10  1  0  0  0  0
 13 43  1  0  0  0  0
 13 44  1  0  0  0  0
 13 45  1  0  0  0  0
 14 15  1  0  0  0  0
 14 46  1  0  0  0  0
 15 16  1  0  0  0  0
 15 18  1  0  0  0  0
 15 47  1  6  0  0  0
 16 17  2  0  0  0  0
 16 23  1  0  0  0  0
 18 19  1  0  0  0  0
 18 48  1  0  0  0  0
 18 49  1  0  0  0  0
 19 50  1  0  0  0  0
 19 51  1  0  0  0  0
 20 22  1  0  0  0  0
 20 19  1  0  0  0  0
 21 20  2  0  0  0  0
 23 24  1  0  0  0  0
 23 52  1  0  0  0  0
 24 27  1  0  0  0  0
 24 53  1  1  0  0  0
 25 26  2  0  0  0  0
 25 24  1  0  0  0  0
 27 28  1  0  0  0  0
 27 54  1  0  0  0  0
 27 55  1  0  0  0  0
 28 29  1  0  0  0  0
 28 30  1  0  0  0  0
 28 56  1  0  0  0  0
 29 57  1  0  0  0  0
 29 58  1  0  0  0  0
 29 59  1  0  0  0  0
 30 60  1  0  0  0  0
 30 61  1  0  0  0  0
 30 62  1  0  0  0  0
 31 25  1  0  0  0  0
 31 63  1  0  0  0  0
 32 31  1  0  0  0  0
 32 64  1  0  0  0  0
 32 65  1  0  0  0  0
 32 66  1  0  0  0  0
M  CHG  1  22  -1
M  END
>  <MODEL>
       0

$$$$
selected_4mers/AAEL/218_noH.pdb
 OpenBabel03042517503D

 66 65  0  0  1  0  0  0  0  0999 V2000
   53.7800  -52.1640  -87.0860 C   0  0  0  0  0  0  0  0  0  0  0  0
   53.4650  -53.0980  -85.9230 C   0  0  0  0  0  0  0  0  0  0  0  0
   54.3310  -53.3710  -85.0830 O   0  0  0  0  0  0  0  0  0  0  0  0
   52.2320  -53.6020  -85.8990 N   0  0  0  0  0  0  0  0  0  0  0  0
   51.7760  -54.4880  -84.8420 C   0  0  2  0  0  0  0  0  0  0  0  0
   52.5980  -55.7660  -84.7380 C   0  0  0  0  0  0  0  0  0  0  0  0
   52.7820  -56.2960  -83.6420 O   0  0  0  0  0  0  0  0  0  0  0  0
   50.2910  -54.8030  -85.0070 C   0  0  0  0  0  0  0  0  0  0  0  0
   53.1050  -56.2480  -85.8700 N   0  0  0  0  0  0  0  0  0  0  0  0
   53.9630  -57.4280  -85.8810 C   0  0  2  0  0  0  0  0  0  0  0  0
   55.2890  -57.1710  -85.1640 C   0  0  0  0  0  0  0  0  0  0  0  0
   55.9580  -58.1070  -84.7340 O   0  0  0  0  0  0  0  0  0  0  0  0
   54.2080  -57.8850  -87.2960 C   0  0  0  0  0  0  0  0  0  0  0  0
   55.6590  -55.9060  -85.0340 N   0  0  0  0  0  0  0  0  0  0  0  0
   56.8980  -55.5370  -84.3730 C   0  0  2  0  0  0  0  0  0  0  0  0
   56.7030  -55.2760  -82.8710 C   0  0  0  0  0  0  0  0  0  0  0  0
   57.6830  -55.0590  -82.1590 O   0  0  0  0  0  0  0  0  0  0  0  0
   57.5230  -54.3190  -85.0680 C   0  0  0  0  0  0  0  0  0  0  0  0
   57.9680  -54.5970  -86.5100 C   0  0  0  0  0  0  0  0  0  0  0  0
   59.3780  -55.1880  -86.6110 C   0  0  0  0  0  0  0  0  0  0  0  0
   59.9490  -55.5980  -85.5670 O   0  0  0  0  0  0  0  0  0  0  0  0
   59.9230  -55.2280  -87.7410 O   0  0  0  0  0  0  0  0  0  0  0  0
   55.4520  -55.2860  -82.3970 N   0  0  0  0  0  0  0  0  0  0  0  0
   55.1370  -54.9160  -80.9980 C   0  0  2  0  0  0  0  0  0  0  0  0
   54.7780  -56.1410  -80.1660 C   0  0  0  0  0  0  0  0  0  0  0  0
   54.4280  -57.1830  -80.7110 O   0  0  0  0  0  0  0  0  0  0  0  0
   53.9890  -53.9070  -80.9320 C   0  0  0  0  0  0  0  0  0  0  0  0
   54.1110  -52.5310  -81.6480 C   0  0  0  0  0  0  0  0  0  0  0  0
   53.2570  -51.5100  -80.9500 C   0  0  0  0  0  0  0  0  0  0  0  0
   55.5500  -52.0030  -81.8070 C   0  0  0  0  0  0  0  0  0  0  0  0
   54.8570  -56.0210  -78.8270 N   0  0  0  0  0  0  0  0  0  0  0  0
   54.3360  -57.1440  -78.0500 C   0  0  0  0  0  0  0  0  0  0  0  0
   52.9103  -52.0520  -87.6991 H   0  0  0  0  0  0  0  0  0  0  0  0
   54.5767  -52.5765  -87.6691 H   0  0  0  0  0  0  0  0  0  0  0  0
   54.0741  -51.2079  -86.7061 H   0  0  0  0  0  0  0  0  0  0  0  0
   51.6081  -53.3657  -86.6229 H   0  0  0  0  0  0  0  0  0  0  0  0
   51.9189  -53.9647  -83.9197 H   0  0  0  0  0  0  0  0  0  0  0  0
   50.1376  -55.3268  -85.9273 H   0  0  0  0  0  0  0  0  0  0  0  0
   49.7320  -53.8907  -85.0185 H   0  0  0  0  0  0  0  0  0  0  0  0
   49.9628  -55.4122  -84.1909 H   0  0  0  0  0  0  0  0  0  0  0  0
   52.8962  -55.7977  -86.7202 H   0  0  0  0  0  0  0  0  0  0  0  0
   53.4542  -58.2040  -85.3482 H   0  0  0  0  0  0  0  0  0  0  0  0
   54.7168  -57.1145  -87.8366 H   0  0  0  0  0  0  0  0  0  0  0  0
   53.2720  -58.0949  -87.7701 H   0  0  0  0  0  0  0  0  0  0  0  0
   54.8091  -58.7701  -87.2859 H   0  0  0  0  0  0  0  0  0  0  0  0
   55.0788  -55.1973  -85.3950 H   0  0  0  0  0  0  0  0  0  0  0  0
   57.5687  -56.3667  -84.4542 H   0  0  0  0  0  0  0  0  0  0  0  0
   56.8003  -53.5301  -85.0830 H   0  0  0  0  0  0  0  0  0  0  0  0
   58.3998  -54.0566  -84.5137 H   0  0  0  0  0  0  0  0  0  0  0  0
   57.2790  -55.2874  -86.9500 H   0  0  0  0  0  0  0  0  0  0  0  0
   57.9831  -53.6573  -87.0215 H   0  0  0  0  0  0  0  0  0  0  0  0
   54.7171  -55.5478  -82.9975 H   0  0  0  0  0  0  0  0  0  0  0  0
   56.0192  -54.4663  -80.5925 H   0  0  0  0  0  0  0  0  0  0  0  0
   53.1289  -54.3925  -81.3435 H   0  0  0  0  0  0  0  0  0  0  0  0
   53.9599  -53.6399  -79.8963 H   0  0  0  0  0  0  0  0  0  0  0  0
   53.7622  -52.6981  -82.6457 H   0  0  0  0  0  0  0  0  0  0  0  0
   53.6228  -51.3586  -79.9559 H   0  0  0  0  0  0  0  0  0  0  0  0
   52.2462  -51.8586  -80.9088 H   0  0  0  0  0  0  0  0  0  0  0  0
   53.2940  -50.5860  -81.4883 H   0  0  0  0  0  0  0  0  0  0  0  0
   55.9683  -51.8113  -80.8410 H   0  0  0  0  0  0  0  0  0  0  0  0
   55.5366  -51.0970  -82.3761 H   0  0  0  0  0  0  0  0  0  0  0  0
   56.1442  -52.7341  -82.3143 H   0  0  0  0  0  0  0  0  0  0  0  0
   55.2429  -55.2239  -78.3969 H   0  0  0  0  0  0  0  0  0  0  0  0
   53.9672  -57.8970  -78.7147 H   0  0  0  0  0  0  0  0  0  0  0  0
   53.5407  -56.8036  -77.4203 H   0  0  0  0  0  0  0  0  0  0  0  0
   55.1187  -57.5535  -77.4462 H   0  0  0  0  0  0  0  0  0  0  0  0
  1 33  1  0  0  0  0
  1 34  1  0  0  0  0
  1 35  1  0  0  0  0
  2  3  2  0  0  0  0
  2  1  1  0  0  0  0
  4  2  1  0  0  0  0
  4 36  1  0  0  0  0
  5  4  1  0  0  0  0
  5 37  1  1  0  0  0
  6  7  2  0  0  0  0
  6  5  1  0  0  0  0
  8  5  1  0  0  0  0
  8 38  1  0  0  0  0
  8 39  1  0  0  0  0
  8 40  1  0  0  0  0
  9  6  1  0  0  0  0
  9 41  1  0  0  0  0
 10 11  1  0  0  0  0
 10  9  1  0  0  0  0
 10 42  1  6  0  0  0
 11 14  1  0  0  0  0
 12 11  2  0  0  0  0
 13 10  1  0  0  0  0
 13 43  1  0  0  0  0
 13 44  1  0  0  0  0
 13 45  1  0  0  0  0
 14 15  1  0  0  0  0
 14 46  1  0  0  0  0
 15 16  1  0  0  0  0
 15 18  1  0  0  0  0
 15 47  1  6  0  0  0
 16 17  2  0  0  0  0
 16 23  1  0  0  0  0
 18 19  1  0  0  0  0
 18 48  1  0  0  0  0
 18 49  1  0  0  0  0
 19 50  1  0  0  0  0
 19 51  1  0  0  0  0
 20 22  1  0  0  0  0
 20 19  1  0  0  0  0
 21 20  2  0  0  0  0
 23 24  1  0  0  0  0
 23 52  1  0  0  0  0
 24 27  1  0  0  0  0
 24 53  1  1  0  0  0
 25 26  2  0  0  0  0
 25 24  1  0  0  0  0
 27 28  1  0  0  0  0
 27 54  1  0  0  0  0
 27 55  1  0  0  0  0
 28 29  1  0  0  0  0
 28 30  1  0  0  0  0
 28 56  1  0  0  0  0
 29 57  1  0  0  0  0
 29 58  1  0  0  0  0
 29 59  1  0  0  0  0
 30 60  1  0  0  0  0
 30 61  1  0  0  0  0
 30 62  1  0  0  0  0
 31 25  1  0  0  0  0
 31 63  1  0  0  0  0
 32 31  1  0  0  0  0
 32 64  1  0  0  0  0
 32 65  1  0  0  0  0
 32 66  1  0  0  0  0
M  CHG  1  22  -1
M  END
>  <MODEL>
       0

$$$$
selected_4mers/AAEL/219_noH.pdb
 OpenBabel03042517503D

 66 65  0  0  1  0  0  0  0  0999 V2000
   41.1940    1.3590   10.8870 C   0  0  0  0  0  0  0  0  0  0  0  0
   42.3020    2.3770   10.6470 C   0  0  0  0  0  0  0  0  0  0  0  0
   42.1850    3.2090    9.7440 O   0  0  0  0  0  0  0  0  0  0  0  0
   43.3790    2.2980   11.4330 N   0  0  0  0  0  0  0  0  0  0  0  0
   44.4900    3.2510   11.3240 C   0  0  2  0  0  0  0  0  0  0  0  0
   45.1880    3.1740    9.9690 C   0  0  0  0  0  0  0  0  0  0  0  0
   45.7800    4.1600    9.5080 O   0  0  0  0  0  0  0  0  0  0  0  0
   45.4940    3.0290   12.4590 C   0  0  0  0  0  0  0  0  0  0  0  0
   45.1120    2.0170    9.3150 N   0  0  0  0  0  0  0  0  0  0  0  0
   45.7790    1.8210    8.0320 C   0  0  2  0  0  0  0  0  0  0  0  0
   45.0160    2.4440    6.8580 C   0  0  0  0  0  0  0  0  0  0  0  0
   45.5470    2.5250    5.7550 O   0  0  0  0  0  0  0  0  0  0  0  0
   46.0200    0.3350    7.7720 C   0  0  0  0  0  0  0  0  0  0  0  0
   43.7750    2.8770    7.0990 N   0  0  0  0  0  0  0  0  0  0  0  0
   42.9010    3.3500    6.0170 C   0  0  2  0  0  0  0  0  0  0  0  0
   42.7850    4.8600    5.9390 C   0  0  0  0  0  0  0  0  0  0  0  0
   42.8810    5.5590    6.9540 O   0  0  0  0  0  0  0  0  0  0  0  0
   41.4960    2.7740    6.1830 C   0  0  0  0  0  0  0  0  0  0  0  0
   41.4610    1.2720    6.2530 C   0  0  0  0  0  0  0  0  0  0  0  0
   40.0630    0.7170    6.4410 C   0  0  0  0  0  0  0  0  0  0  0  0
   39.9340   -0.5200    6.3560 O   0  0  0  0  0  0  0  0  0  0  0  0
   39.1130    1.4950    6.6870 O   0  0  0  0  0  0  0  0  0  0  0  0
   42.5410    5.3560    4.7290 N   0  0  0  0  0  0  0  0  0  0  0  0
   42.2460    6.7650    4.5260 C   0  0  2  0  0  0  0  0  0  0  0  0
   40.8330    7.0950    5.0150 C   0  0  0  0  0  0  0  0  0  0  0  0
   39.8490    6.5090    4.5380 O   0  0  0  0  0  0  0  0  0  0  0  0
   42.3940    7.1110    3.0390 C   0  0  0  0  0  0  0  0  0  0  0  0
   42.1280    8.5660    2.6270 C   0  0  0  0  0  0  0  0  0  0  0  0
   43.2520    9.4900    3.1070 C   0  0  0  0  0  0  0  0  0  0  0  0
   41.9530    8.6680    1.1180 C   0  0  0  0  0  0  0  0  0  0  0  0
   40.7490    8.0090    5.9810 N   0  0  0  0  0  0  0  0  0  0  0  0
   39.4760    8.6330    6.3630 C   0  0  0  0  0  0  0  0  0  0  0  0
   40.3956    1.5313   10.1958 H   0  0  0  0  0  0  0  0  0  0  0  0
   40.8278    1.4596   11.8873 H   0  0  0  0  0  0  0  0  0  0  0  0
   41.5806    0.3712   10.7464 H   0  0  0  0  0  0  0  0  0  0  0  0
   43.4291    1.5800   12.1047 H   0  0  0  0  0  0  0  0  0  0  0  0
   44.0757    4.2339   11.4084 H   0  0  0  0  0  0  0  0  0  0  0  0
   45.9113    2.0470   12.3791 H   0  0  0  0  0  0  0  0  0  0  0  0
   44.9958    3.1292   13.4006 H   0  0  0  0  0  0  0  0  0  0  0  0
   46.2764    3.7557   12.3903 H   0  0  0  0  0  0  0  0  0  0  0  0
   44.5940    1.2767    9.7059 H   0  0  0  0  0  0  0  0  0  0  0  0
   46.7180    2.3297    8.0992 H   0  0  0  0  0  0  0  0  0  0  0  0
   45.0803   -0.1724    7.7051 H   0  0  0  0  0  0  0  0  0  0  0  0
   46.5926   -0.0794    8.5753 H   0  0  0  0  0  0  0  0  0  0  0  0
   46.5558    0.2159    6.8535 H   0  0  0  0  0  0  0  0  0  0  0  0
   43.4382    2.8791    8.0241 H   0  0  0  0  0  0  0  0  0  0  0  0
   43.3590    3.0114    5.1112 H   0  0  0  0  0  0  0  0  0  0  0  0
   40.9023    3.0870    5.3497 H   0  0  0  0  0  0  0  0  0  0  0  0
   41.1174    3.1387    7.1150 H   0  0  0  0  0  0  0  0  0  0  0  0
   42.0665    0.9554    7.0765 H   0  0  0  0  0  0  0  0  0  0  0  0
   41.8283    0.9008    5.3191 H   0  0  0  0  0  0  0  0  0  0  0  0
   42.5607    4.7533    3.9508 H   0  0  0  0  0  0  0  0  0  0  0  0
   42.9384    7.3516    5.0929 H   0  0  0  0  0  0  0  0  0  0  0  0
   43.3969    6.8733    2.7515 H   0  0  0  0  0  0  0  0  0  0  0  0
   41.6337    6.5416    2.5465 H   0  0  0  0  0  0  0  0  0  0  0  0
   41.2205    8.8841    3.0963 H   0  0  0  0  0  0  0  0  0  0  0  0
   44.1747    9.1950    2.6527 H   0  0  0  0  0  0  0  0  0  0  0  0
   43.3403    9.4212    4.1711 H   0  0  0  0  0  0  0  0  0  0  0  0
   43.0259   10.4991    2.8324 H   0  0  0  0  0  0  0  0  0  0  0  0
   42.8530    8.3531    0.6325 H   0  0  0  0  0  0  0  0  0  0  0  0
   41.7400    9.6821    0.8514 H   0  0  0  0  0  0  0  0  0  0  0  0
   41.1430    8.0405    0.8096 H   0  0  0  0  0  0  0  0  0  0  0  0
   41.5695    8.2753    6.4554 H   0  0  0  0  0  0  0  0  0  0  0  0
   38.6885    8.2370    5.7564 H   0  0  0  0  0  0  0  0  0  0  0  0
   39.5399    9.6912    6.2183 H   0  0  0  0  0  0  0  0  0  0  0  0
   39.2719    8.4255    7.3926 H   0  0  0  0  0  0  0  0  0  0  0  0
  1 33  1  0  0  0  0
  1 34  1  0  0  0  0
  1 35  1  0  0  0  0
  2  3  2  0  0  0  0
  2  1  1  0  0  0  0
  4  2  1  0  0  0  0
  4 36  1  0  0  0  0
  5  4  1  0  0  0  0
  5 37  1  1  0  0  0
  6  7  2  0  0  0  0
  6  5  1  0  0  0  0
  8  5  1  0  0  0  0
  8 38  1  0  0  0  0
  8 39  1  0  0  0  0
  8 40  1  0  0  0  0
  9  6  1  0  0  0  0
  9 41  1  0  0  0  0
 10 11  1  0  0  0  0
 10  9  1  0  0  0  0
 10 42  1  6  0  0  0
 11 14  1  0  0  0  0
 12 11  2  0  0  0  0
 13 10  1  0  0  0  0
 13 43  1  0  0  0  0
 13 44  1  0  0  0  0
 13 45  1  0  0  0  0
 14 15  1  0  0  0  0
 14 46  1  0  0  0  0
 15 16  1  0  0  0  0
 15 18  1  0  0  0  0
 15 47  1  6  0  0  0
 16 17  2  0  0  0  0
 16 23  1  0  0  0  0
 18 19  1  0  0  0  0
 18 48  1  0  0  0  0
 18 49  1  0  0  0  0
 19 50  1  0  0  0  0
 19 51  1  0  0  0  0
 20 22  1  0  0  0  0
 20 19  1  0  0  0  0
 21 20  2  0  0  0  0
 23 24  1  0  0  0  0
 23 52  1  0  0  0  0
 24 27  1  0  0  0  0
 24 53  1  1  0  0  0
 25 26  2  0  0  0  0
 25 24  1  0  0  0  0
 27 28  1  0  0  0  0
 27 54  1  0  0  0  0
 27 55  1  0  0  0  0
 28 29  1  0  0  0  0
 28 30  1  0  0  0  0
 28 56  1  0  0  0  0
 29 57  1  0  0  0  0
 29 58  1  0  0  0  0
 29 59  1  0  0  0  0
 30 60  1  0  0  0  0
 30 61  1  0  0  0  0
 30 62  1  0  0  0  0
 31 25  1  0  0  0  0
 31 63  1  0  0  0  0
 32 31  1  0  0  0  0
 32 64  1  0  0  0  0
 32 65  1  0  0  0  0
 32 66  1  0  0  0  0
M  CHG  1  22  -1
M  END
>  <MODEL>
       0

$$$$
