selected_4mers/AAGA/320_noH.pdb
 OpenBabel03042517593D

 49 48  0  0  1  0  0  0  0  0999 V2000
   20.2040   39.1230   74.2180 C   0  0  0  0  0  0  0  0  0  0  0  0
   18.9750   39.9300   73.7790 C   0  0  0  0  0  0  0  0  0  0  0  0
   17.9390   39.3610   73.4390 O   0  0  0  0  0  0  0  0  0  0  0  0
   19.1000   41.2560   73.7950 N   0  0  0  0  0  0  0  0  0  0  0  0
   18.0120   42.1380   73.3780 C   0  0  2  0  0  0  0  0  0  0  0  0
   17.6560   41.8460   71.9220 C   0  0  0  0  0  0  0  0  0  0  0  0
   16.4790   41.7850   71.5540 O   0  0  0  0  0  0  0  0  0  0  0  0
   18.4300   43.6010   73.5300 C   0  0  0  0  0  0  0  0  0  0  0  0
   18.6830   41.6710   71.0960 N   0  0  0  0  0  0  0  0  0  0  0  0
   18.4840   41.3700   69.6870 C   0  0  2  0  0  0  0  0  0  0  0  0
   17.7480   40.0360   69.5440 C   0  0  0  0  0  0  0  0  0  0  0  0
   16.8600   39.8910   68.7000 O   0  0  0  0  0  0  0  0  0  0  0  0
   19.8390   41.3110   68.9680 C   0  0  0  0  0  0  0  0  0  0  0  0
   18.1210   39.0670   70.3780 N   0  0  0  0  0  0  0  0  0  0  0  0
   17.4870   37.7580   70.3350 C   0  0  0  0  0  0  0  0  0  0  0  0
   16.0160   37.7750   70.7200 C   0  0  0  0  0  0  0  0  0  0  0  0
   15.1910   37.1220   70.0750 O   0  0  0  0  0  0  0  0  0  0  0  0
   15.6780   38.5150   71.7730 N   0  0  0  0  0  0  0  0  0  0  0  0
   14.2880   38.6030   72.2050 C   0  0  2  0  0  0  0  0  0  0  0  0
   13.4770   39.2520   71.0870 C   0  0  0  0  0  0  0  0  0  0  0  0
   12.3570   38.8340   70.8010 O   0  0  0  0  0  0  0  0  0  0  0  0
   14.1800   39.4240   73.4930 C   0  0  0  0  0  0  0  0  0  0  0  0
   14.0520   40.2670   70.4460 N   0  0  0  0  0  0  0  0  0  0  0  0
   13.3740   40.9500   69.3490 C   0  0  0  0  0  0  0  0  0  0  0  0
   19.9825   38.0776   74.1631 H   0  0  0  0  0  0  0  0  0  0  0  0
   20.4593   39.3811   75.2245 H   0  0  0  0  0  0  0  0  0  0  0  0
   21.0273   39.3475   73.5725 H   0  0  0  0  0  0  0  0  0  0  0  0
   19.9491   41.6530   74.0962 H   0  0  0  0  0  0  0  0  0  0  0  0
   17.1574   41.9616   73.9973 H   0  0  0  0  0  0  0  0  0  0  0  0
   19.2848   43.7934   72.9158 H   0  0  0  0  0  0  0  0  0  0  0  0
   18.6743   43.7977   74.5530 H   0  0  0  0  0  0  0  0  0  0  0  0
   17.6234   44.2357   73.2276 H   0  0  0  0  0  0  0  0  0  0  0  0
   19.5999   41.7470   71.4464 H   0  0  0  0  0  0  0  0  0  0  0  0
   17.8928   42.1419   69.2403 H   0  0  0  0  0  0  0  0  0  0  0  0
   20.4414   40.5422   69.4050 H   0  0  0  0  0  0  0  0  0  0  0  0
   20.3364   42.2532   69.0666 H   0  0  0  0  0  0  0  0  0  0  0  0
   19.6836   41.0964   67.9313 H   0  0  0  0  0  0  0  0  0  0  0  0
   18.8358   39.2388   71.0329 H   0  0  0  0  0  0  0  0  0  0  0  0
   18.0050   37.1100   71.0108 H   0  0  0  0  0  0  0  0  0  0  0  0
   17.5397   37.4196   69.3213 H   0  0  0  0  0  0  0  0  0  0  0  0
   16.3734   39.0081   72.2654 H   0  0  0  0  0  0  0  0  0  0  0  0
   13.9065   37.6243   72.4089 H   0  0  0  0  0  0  0  0  0  0  0  0
   14.5553   40.4109   73.3194 H   0  0  0  0  0  0  0  0  0  0  0  0
   14.7541   38.9546   74.2643 H   0  0  0  0  0  0  0  0  0  0  0  0
   13.1551   39.4802   73.7953 H   0  0  0  0  0  0  0  0  0  0  0  0
   14.9512   40.5624   70.7169 H   0  0  0  0  0  0  0  0  0  0  0  0
   12.4148   40.5036   69.1894 H   0  0  0  0  0  0  0  0  0  0  0  0
   13.9604   40.8633   68.4582 H   0  0  0  0  0  0  0  0  0  0  0  0
   13.2497   41.9839   69.5950 H   0  0  0  0  0  0  0  0  0  0  0  0
  1 25  1  0  0  0  0
  1 26  1  0  0  0  0
  1 27  1  0  0  0  0
  2  4  1  0  0  0  0
  2  1  1  0  0  0  0
  3  2  2  0  0  0  0
  4 28  1  0  0  0  0
  5  8  1  0  0  0  0
  5  4  1  0  0  0  0
  5 29  1  1  0  0  0
  6  5  1  0  0  0  0
  7  6  2  0  0  0  0
  8 30  1  0  0  0  0
  8 31  1  0  0  0  0
  8 32  1  0  0  0  0
  9  6  1  0  0  0  0
  9 33  1  0  0  0  0
 10  9  1  0  0  0  0
 10 34  1  6  0  0  0
 11 10  1  0  0  0  0
 11 14  1  0  0  0  0
 12 11  2  0  0  0  0
 13 10  1  0  0  0  0
 13 35  1  0  0  0  0
 13 36  1  0  0  0  0
 13 37  1  0  0  0  0
 14 38  1  0  0  0  0
 15 14  1  0  0  0  0
 15 16  1  0  0  0  0
 15 39  1  0  0  0  0
 15 40  1  0  0  0  0
 16 18  1  0  0  0  0
 17 16  2  0  0  0  0
 18 19  1  0  0  0  0
 18 41  1  0  0  0  0
 19 22  1  0  0  0  0
 19 42  1  1  0  0  0
 20 19  1  0  0  0  0
 21 20  2  0  0  0  0
 22 43  1  0  0  0  0
 22 44  1  0  0  0  0
 22 45  1  0  0  0  0
 23 20  1  0  0  0  0
 23 46  1  0  0  0  0
 24 23  1  0  0  0  0
 24 47  1  0  0  0  0
 24 48  1  0  0  0  0
 24 49  1  0  0  0  0
M  END
>  <MODEL>
       0

$$$$
selected_4mers/AAGA/321_noH.pdb
 OpenBabel03042517593D

 49 48  0  0  1  0  0  0  0  0999 V2000
   11.9840   30.9900   20.8950 C   0  0  0  0  0  0  0  0  0  0  0  0
   11.4480   29.8620   20.0520 C   0  0  0  0  0  0  0  0  0  0  0  0
   12.0020   29.4870   19.0270 O   0  0  0  0  0  0  0  0  0  0  0  0
   10.2550   29.3270   20.4330 N   0  0  0  0  0  0  0  0  0  0  0  0
    9.7480   28.1910   19.7130 C   0  0  2  0  0  0  0  0  0  0  0  0
    9.3750   28.4450   18.2770 C   0  0  0  0  0  0  0  0  0  0  0  0
    9.3710   27.5070   17.4620 O   0  0  0  0  0  0  0  0  0  0  0  0
    8.5530   27.6020   20.4860 C   0  0  0  0  0  0  0  0  0  0  0  0
    9.0660   29.6890   17.9380 N   0  0  0  0  0  0  0  0  0  0  0  0
    8.7660   30.1120   16.5650 C   0  0  2  0  0  0  0  0  0  0  0  0
   10.0200   30.3680   15.7180 C   0  0  0  0  0  0  0  0  0  0  0  0
    9.9370   30.5830   14.4900 O   0  0  0  0  0  0  0  0  0  0  0  0
    7.9070   31.3230   16.6010 C   0  0  0  0  0  0  0  0  0  0  0  0
   11.1900   30.3150   16.3670 N   0  0  0  0  0  0  0  0  0  0  0  0
   12.4480   30.5280   15.6920 C   0  0  0  0  0  0  0  0  0  0  0  0
   12.8740   31.9830   15.6830 C   0  0  0  0  0  0  0  0  0  0  0  0
   13.9150   32.3220   15.0820 O   0  0  0  0  0  0  0  0  0  0  0  0
   12.1170   32.8430   16.3750 N   0  0  0  0  0  0  0  0  0  0  0  0
   12.4330   34.2530   16.4350 C   0  0  2  0  0  0  0  0  0  0  0  0
   13.5590   34.5470   17.4250 C   0  0  0  0  0  0  0  0  0  0  0  0
   13.7030   33.8230   18.4120 O   0  0  0  0  0  0  0  0  0  0  0  0
   11.2280   35.0430   16.8260 C   0  0  0  0  0  0  0  0  0  0  0  0
   14.3670   35.5580   17.0870 N   0  0  0  0  0  0  0  0  0  0  0  0
   15.4440   36.0320   17.9840 C   0  0  0  0  0  0  0  0  0  0  0  0
   12.9196   31.3209   20.4949 H   0  0  0  0  0  0  0  0  0  0  0  0
   12.1262   30.6485   21.8990 H   0  0  0  0  0  0  0  0  0  0  0  0
   11.2868   31.8017   20.8897 H   0  0  0  0  0  0  0  0  0  0  0  0
    9.7502   29.7105   21.1862 H   0  0  0  0  0  0  0  0  0  0  0  0
   10.5582   27.4946   19.6541 H   0  0  0  0  0  0  0  0  0  0  0  0
    7.7634   28.3230   20.5254 H   0  0  0  0  0  0  0  0  0  0  0  0
    8.8592   27.3536   21.4807 H   0  0  0  0  0  0  0  0  0  0  0  0
    8.2063   26.7202   19.9888 H   0  0  0  0  0  0  0  0  0  0  0  0
    9.0360   30.3691   18.6492 H   0  0  0  0  0  0  0  0  0  0  0  0
    8.2500   29.3039   16.0901 H   0  0  0  0  0  0  0  0  0  0  0  0
    8.4359   32.1214   17.0782 H   0  0  0  0  0  0  0  0  0  0  0  0
    7.0129   31.1099   17.1488 H   0  0  0  0  0  0  0  0  0  0  0  0
    7.6533   31.6101   15.6020 H   0  0  0  0  0  0  0  0  0  0  0  0
   11.1923   30.1252   17.3330 H   0  0  0  0  0  0  0  0  0  0  0  0
   13.2029   29.9543   16.1879 H   0  0  0  0  0  0  0  0  0  0  0  0
   12.3215   30.2243   14.6738 H   0  0  0  0  0  0  0  0  0  0  0  0
   11.3256   32.5075   16.8550 H   0  0  0  0  0  0  0  0  0  0  0  0
   12.7583   34.5385   15.4564 H   0  0  0  0  0  0  0  0  0  0  0  0
   10.9115   34.7497   17.8051 H   0  0  0  0  0  0  0  0  0  0  0  0
   10.4392   34.8601   16.1265 H   0  0  0  0  0  0  0  0  0  0  0  0
   11.4696   36.0854   16.8266 H   0  0  0  0  0  0  0  0  0  0  0  0
   14.2414   35.9995   16.2161 H   0  0  0  0  0  0  0  0  0  0  0  0
   15.4430   35.4493   18.8814 H   0  0  0  0  0  0  0  0  0  0  0  0
   15.2790   37.0610   18.2267 H   0  0  0  0  0  0  0  0  0  0  0  0
   16.3888   35.9285   17.4926 H   0  0  0  0  0  0  0  0  0  0  0  0
  1 25  1  0  0  0  0
  1 26  1  0  0  0  0
  1 27  1  0  0  0  0
  2  4  1  0  0  0  0
  2  1  1  0  0  0  0
  3  2  2  0  0  0  0
  4 28  1  0  0  0  0
  5  4  1  0  0  0  0
  5  8  1  0  0  0  0
  5 29  1  6  0  0  0
  6  5  1  0  0  0  0
  7  6  2  0  0  0  0
  8 30  1  0  0  0  0
  8 31  1  0  0  0  0
  8 32  1  0  0  0  0
  9  6  1  0  0  0  0
  9 33  1  0  0  0  0
 10 13  1  0  0  0  0
 10  9  1  0  0  0  0
 10 34  1  6  0  0  0
 11 14  1  0  0  0  0
 11 10  1  0  0  0  0
 12 11  2  0  0  0  0
 13 35  1  0  0  0  0
 13 36  1  0  0  0  0
 13 37  1  0  0  0  0
 14 38  1  0  0  0  0
 15 14  1  0  0  0  0
 15 39  1  0  0  0  0
 15 40  1  0  0  0  0
 16 15  1  0  0  0  0
 16 18  1  0  0  0  0
 17 16  2  0  0  0  0
 18 19  1  0  0  0  0
 18 41  1  0  0  0  0
 19 22  1  0  0  0  0
 19 20  1  0  0  0  0
 19 42  1  6  0  0  0
 20 21  2  0  0  0  0
 22 43  1  0  0  0  0
 22 44  1  0  0  0  0
 22 45  1  0  0  0  0
 23 20  1  0  0  0  0
 23 24  1  0  0  0  0
 23 46  1  0  0  0  0
 24 47  1  0  0  0  0
 24 48  1  0  0  0  0
 24 49  1  0  0  0  0
M  END
>  <MODEL>
       0

$$$$
selected_4mers/AAGA/322_noH.pdb
 OpenBabel03042517593D

 49 48  0  0  1  0  0  0  0  0999 V2000
   47.9000    8.6850   28.3610 C   0  0  0  0  0  0  0  0  0  0  0  0
   49.0720    7.7310   28.6550 C   0  0  0  0  0  0  0  0  0  0  0  0
   50.2410    8.1680   28.5410 O   0  0  0  0  0  0  0  0  0  0  0  0
   48.8060    6.5000   29.0970 N   0  0  0  0  0  0  0  0  0  0  0  0
   49.9140    5.5510   29.3230 C   0  0  2  0  0  0  0  0  0  0  0  0
   50.6510    5.3820   27.9880 C   0  0  0  0  0  0  0  0  0  0  0  0
   50.0270    5.2230   26.9330 O   0  0  0  0  0  0  0  0  0  0  0  0
   49.3770    4.2010   29.7460 C   0  0  0  0  0  0  0  0  0  0  0  0
   51.9890    5.3870   28.0010 N   0  0  0  0  0  0  0  0  0  0  0  0
   52.6840    5.2480   26.7130 C   0  0  2  0  0  0  0  0  0  0  0  0
   52.3490    3.9060   26.0390 C   0  0  0  0  0  0  0  0  0  0  0  0
   52.2560    3.8460   24.7840 O   0  0  0  0  0  0  0  0  0  0  0  0
   54.1840    5.3360   26.9740 C   0  0  0  0  0  0  0  0  0  0  0  0
   52.0940    2.8590   26.8420 N   0  0  0  0  0  0  0  0  0  0  0  0
   51.7030    1.5600   26.2870 C   0  0  0  0  0  0  0  0  0  0  0  0
   50.3570    1.5780   25.5390 C   0  0  0  0  0  0  0  0  0  0  0  0
   50.0530    0.6210   24.8070 O   0  0  0  0  0  0  0  0  0  0  0  0
   49.5770    2.6290   25.7490 N   0  0  0  0  0  0  0  0  0  0  0  0
   48.2590    2.7980   25.1030 C   0  0  2  0  0  0  0  0  0  0  0  0
   48.2980    3.6120   23.8230 C   0  0  0  0  0  0  0  0  0  0  0  0
   47.2960    3.6340   23.0920 O   0  0  0  0  0  0  0  0  0  0  0  0
   47.2540    3.4140   26.0750 C   0  0  0  0  0  0  0  0  0  0  0  0
   49.4300    4.2670   23.5240 N   0  0  0  0  0  0  0  0  0  0  0  0
   49.5720    5.0300   22.2840 C   0  0  0  0  0  0  0  0  0  0  0  0
   48.2818    9.6238   28.0176 H   0  0  0  0  0  0  0  0  0  0  0  0
   47.3309    8.8367   29.2543 H   0  0  0  0  0  0  0  0  0  0  0  0
   47.2728    8.2576   27.6067 H   0  0  0  0  0  0  0  0  0  0  0  0
   47.8764    6.2265   29.2713 H   0  0  0  0  0  0  0  0  0  0  0  0
   50.5597    5.9223   30.0912 H   0  0  0  0  0  0  0  0  0  0  0  0
   48.7294    3.8201   28.9841 H   0  0  0  0  0  0  0  0  0  0  0  0
   48.8301    4.3051   30.6598 H   0  0  0  0  0  0  0  0  0  0  0  0
   50.1918    3.5232   29.8932 H   0  0  0  0  0  0  0  0  0  0  0  0
   52.4902    5.4804   28.8432 H   0  0  0  0  0  0  0  0  0  0  0  0
   52.3665    6.0280   26.0530 H   0  0  0  0  0  0  0  0  0  0  0  0
   54.4778    4.5477   27.6351 H   0  0  0  0  0  0  0  0  0  0  0  0
   54.4134    6.2806   27.4211 H   0  0  0  0  0  0  0  0  0  0  0  0
   54.7132    5.2414   26.0488 H   0  0  0  0  0  0  0  0  0  0  0  0
   52.1710    2.9661   27.8176 H   0  0  0  0  0  0  0  0  0  0  0  0
   52.4633    1.2433   25.6039 H   0  0  0  0  0  0  0  0  0  0  0  0
   51.5883    0.8916   27.1146 H   0  0  0  0  0  0  0  0  0  0  0  0
   49.8908    3.3303   26.3646 H   0  0  0  0  0  0  0  0  0  0  0  0
   47.9483    1.8117   24.8282 H   0  0  0  0  0  0  0  0  0  0  0  0
   47.5745    4.3992   26.3426 H   0  0  0  0  0  0  0  0  0  0  0  0
   47.1912    2.8081   26.9547 H   0  0  0  0  0  0  0  0  0  0  0  0
   46.2925    3.4662   25.6084 H   0  0  0  0  0  0  0  0  0  0  0  0
   50.1846    4.2333   24.1554 H   0  0  0  0  0  0  0  0  0  0  0  0
   48.6666    4.9621   21.7178 H   0  0  0  0  0  0  0  0  0  0  0  0
   50.3822    4.6308   21.7104 H   0  0  0  0  0  0  0  0  0  0  0  0
   49.7710    6.0552   22.5169 H   0  0  0  0  0  0  0  0  0  0  0  0
  1  2  1  0  0  0  0
  1 25  1  0  0  0  0
  1 26  1  0  0  0  0
  1 27  1  0  0  0  0
  2  4  1  0  0  0  0
  3  2  2  0  0  0  0
  4  5  1  0  0  0  0
  4 28  1  0  0  0  0
  5  8  1  0  0  0  0
  5 29  1  1  0  0  0
  6  9  1  0  0  0  0
  6  5  1  0  0  0  0
  7  6  2  0  0  0  0
  8 30  1  0  0  0  0
  8 31  1  0  0  0  0
  8 32  1  0  0  0  0
  9 33  1  0  0  0  0
 10 13  1  0  0  0  0
 10  9  1  0  0  0  0
 10 34  1  6  0  0  0
 11 10  1  0  0  0  0
 11 14  1  0  0  0  0
 12 11  2  0  0  0  0
 13 35  1  0  0  0  0
 13 36  1  0  0  0  0
 13 37  1  0  0  0  0
 14 38  1  0  0  0  0
 15 14  1  0  0  0  0
 15 39  1  0  0  0  0
 15 40  1  0  0  0  0
 16 18  1  0  0  0  0
 16 15  1  0  0  0  0
 17 16  2  0  0  0  0
 18 41  1  0  0  0  0
 19 18  1  0  0  0  0
 19 22  1  0  0  0  0
 19 42  1  6  0  0  0
 20 19  1  0  0  0  0
 21 20  2  0  0  0  0
 22 43  1  0  0  0  0
 22 44  1  0  0  0  0
 22 45  1  0  0  0  0
 23 20  1  0  0  0  0
 23 46  1  0  0  0  0
 24 23  1  0  0  0  0
 24 47  1  0  0  0  0
 24 48  1  0  0  0  0
 24 49  1  0  0  0  0
M  END
>  <MODEL>
       0

$$$$
selected_4mers/AAGA/323_noH.pdb
 OpenBabel03042517593D

 49 48  0  0  1  0  0  0  0  0999 V2000
  -10.3760   21.7810  -47.0380 C   0  0  0  0  0  0  0  0  0  0  0  0
  -11.7790   21.6270  -46.5230 C   0  0  0  0  0  0  0  0  0  0  0  0
  -12.7640   21.7540  -47.2760 O   0  0  0  0  0  0  0  0  0  0  0  0
  -11.8790   21.3310  -45.2320 N   0  0  0  0  0  0  0  0  0  0  0  0
  -13.1880   21.0550  -44.6510 C   0  0  2  0  0  0  0  0  0  0  0  0
  -13.2790   21.6670  -43.2550 C   0  0  0  0  0  0  0  0  0  0  0  0
  -12.2820   21.7500  -42.5280 O   0  0  0  0  0  0  0  0  0  0  0  0
  -13.4540   19.5570  -44.6080 C   0  0  0  0  0  0  0  0  0  0  0  0
  -14.4770   22.1260  -42.9130 N   0  0  0  0  0  0  0  0  0  0  0  0
  -14.6840   22.8180  -41.6550 C   0  0  2  0  0  0  0  0  0  0  0  0
  -16.0790   22.5620  -41.1710 C   0  0  0  0  0  0  0  0  0  0  0  0
  -17.0170   22.3570  -41.9640 O   0  0  0  0  0  0  0  0  0  0  0  0
  -14.4200   24.3270  -41.7980 C   0  0  0  0  0  0  0  0  0  0  0  0
  -16.2250   22.5510  -39.8530 N   0  0  0  0  0  0  0  0  0  0  0  0
  -17.4980   22.2230  -39.2700 C   0  0  0  0  0  0  0  0  0  0  0  0
  -17.6930   22.9240  -37.9490 C   0  0  0  0  0  0  0  0  0  0  0  0
  -16.7180   23.2360  -37.2620 O   0  0  0  0  0  0  0  0  0  0  0  0
  -18.9570   23.2030  -37.6200 N   0  0  0  0  0  0  0  0  0  0  0  0
  -19.2890   23.6980  -36.2840 C   0  0  2  0  0  0  0  0  0  0  0  0
  -20.6210   23.1660  -35.8350 C   0  0  0  0  0  0  0  0  0  0  0  0
  -21.5210   22.9530  -36.6450 O   0  0  0  0  0  0  0  0  0  0  0  0
  -19.2790   25.2330  -36.2260 C   0  0  0  0  0  0  0  0  0  0  0  0
  -20.7420   22.9400  -34.5290 N   0  0  0  0  0  0  0  0  0  0  0  0
  -22.0090   22.5030  -33.9510 C   0  0  0  0  0  0  0  0  0  0  0  0
  -10.4029   22.0174  -48.0812 H   0  0  0  0  0  0  0  0  0  0  0  0
   -9.8405   20.8660  -46.8933 H   0  0  0  0  0  0  0  0  0  0  0  0
   -9.8854   22.5693  -46.5062 H   0  0  0  0  0  0  0  0  0  0  0  0
  -11.0720   21.2980  -44.6690 H   0  0  0  0  0  0  0  0  0  0  0  0
  -13.9396   21.5018  -45.2677 H   0  0  0  0  0  0  0  0  0  0  0  0
  -12.7160   19.0811  -43.9966 H   0  0  0  0  0  0  0  0  0  0  0  0
  -13.4070   19.1578  -45.5996 H   0  0  0  0  0  0  0  0  0  0  0  0
  -14.4260   19.3790  -44.1976 H   0  0  0  0  0  0  0  0  0  0  0  0
  -15.2379   21.9944  -43.5237 H   0  0  0  0  0  0  0  0  0  0  0  0
  -13.9874   22.4419  -40.9351 H   0  0  0  0  0  0  0  0  0  0  0  0
  -15.0998   24.7419  -42.5126 H   0  0  0  0  0  0  0  0  0  0  0  0
  -13.4147   24.4834  -42.1295 H   0  0  0  0  0  0  0  0  0  0  0  0
  -14.5618   24.8052  -40.8514 H   0  0  0  0  0  0  0  0  0  0  0  0
  -15.4601   22.7679  -39.2723 H   0  0  0  0  0  0  0  0  0  0  0  0
  -17.5478   21.1656  -39.1141 H   0  0  0  0  0  0  0  0  0  0  0  0
  -18.2686   22.5438  -39.9394 H   0  0  0  0  0  0  0  0  0  0  0  0
  -19.6728   23.0742  -38.2835 H   0  0  0  0  0  0  0  0  0  0  0  0
  -18.5327   23.3424  -35.6158 H   0  0  0  0  0  0  0  0  0  0  0  0
  -20.0272   25.6197  -36.8859 H   0  0  0  0  0  0  0  0  0  0  0  0
  -18.3177   25.5950  -36.5255 H   0  0  0  0  0  0  0  0  0  0  0  0
  -19.4851   25.5535  -35.2262 H   0  0  0  0  0  0  0  0  0  0  0  0
  -19.9625   23.0700  -33.9419 H   0  0  0  0  0  0  0  0  0  0  0  0
  -22.7422   22.4134  -34.7252 H   0  0  0  0  0  0  0  0  0  0  0  0
  -22.3383   23.2210  -33.2293 H   0  0  0  0  0  0  0  0  0  0  0  0
  -21.8754   21.5542  -33.4748 H   0  0  0  0  0  0  0  0  0  0  0  0
  1  2  1  0  0  0  0
  1 25  1  0  0  0  0
  1 26  1  0  0  0  0
  1 27  1  0  0  0  0
  2  4  1  0  0  0  0
  3  2  2  0  0  0  0
  4  5  1  0  0  0  0
  4 28  1  0  0  0  0
  5  8  1  0  0  0  0
  5  6  1  0  0  0  0
  5 29  1  6  0  0  0
  6  9  1  0  0  0  0
  6  7  2  0  0  0  0
  8 30  1  0  0  0  0
  8 31  1  0  0  0  0
  8 32  1  0  0  0  0
  9 10  1  0  0  0  0
  9 33  1  0  0  0  0
 10 11  1  0  0  0  0
 10 34  1  1  0  0  0
 11 14  1  0  0  0  0
 12 11  2  0  0  0  0
 13 10  1  0  0  0  0
 13 35  1  0  0  0  0
 13 36  1  0  0  0  0
 13 37  1  0  0  0  0
 14 15  1  0  0  0  0
 14 38  1  0  0  0  0
 15 16  1  0  0  0  0
 15 39  1  0  0  0  0
 15 40  1  0  0  0  0
 16 18  1  0  0  0  0
 16 17  2  0  0  0  0
 18 19  1  0  0  0  0
 18 41  1  0  0  0  0
 19 22  1  0  0  0  0
 19 20  1  0  0  0  0
 19 42  1  1  0  0  0
 20 23  1  0  0  0  0
 21 20  2  0  0  0  0
 22 43  1  0  0  0  0
 22 44  1  0  0  0  0
 22 45  1  0  0  0  0
 23 24  1  0  0  0  0
 23 46  1  0  0  0  0
 24 47  1  0  0  0  0
 24 48  1  0  0  0  0
 24 49  1  0  0  0  0
M  END
>  <MODEL>
       0

$$$$
selected_4mers/AAGA/324_noH.pdb
 OpenBabel03042517593D

 49 48  0  0  1  0  0  0  0  0999 V2000
   49.3850    9.5770   17.0710 C   0  0  0  0  0  0  0  0  0  0  0  0
   50.8290    9.8210   16.6790 C   0  0  0  0  0  0  0  0  0  0  0  0
   51.2820   10.9700   16.5900 O   0  0  0  0  0  0  0  0  0  0  0  0
   51.5590    8.7340   16.4510 N   0  0  0  0  0  0  0  0  0  0  0  0
   52.9890    8.8290   16.1590 C   0  0  2  0  0  0  0  0  0  0  0  0
   53.2860    8.4160   14.7250 C   0  0  0  0  0  0  0  0  0  0  0  0
   52.7380    7.4350   14.2130 O   0  0  0  0  0  0  0  0  0  0  0  0
   53.7980    7.9960   17.1360 C   0  0  0  0  0  0  0  0  0  0  0  0
   54.1490    9.1930   14.0770 N   0  0  0  0  0  0  0  0  0  0  0  0
   54.5030    8.9610   12.6810 C   0  0  2  0  0  0  0  0  0  0  0  0
   55.9670    9.3210   12.4900 C   0  0  0  0  0  0  0  0  0  0  0  0
   56.6200    9.7620   13.4290 O   0  0  0  0  0  0  0  0  0  0  0  0
   53.6000    9.8080   11.7670 C   0  0  0  0  0  0  0  0  0  0  0  0
   56.4840    9.0960   11.2860 N   0  0  0  0  0  0  0  0  0  0  0  0
   57.8740    9.4500   10.9660 C   0  0  0  0  0  0  0  0  0  0  0  0
   57.9410   10.7500   10.1970 C   0  0  0  0  0  0  0  0  0  0  0  0
   56.9100   11.3500    9.8620 O   0  0  0  0  0  0  0  0  0  0  0  0
   59.1620   11.1770    9.8860 N   0  0  0  0  0  0  0  0  0  0  0  0
   59.3550   12.3990    9.0910 C   0  0  2  0  0  0  0  0  0  0  0  0
   58.6630   12.3180    7.7280 C   0  0  0  0  0  0  0  0  0  0  0  0
   58.2310   13.3470    7.1920 O   0  0  0  0  0  0  0  0  0  0  0  0
   60.8410   12.6950    8.9300 C   0  0  0  0  0  0  0  0  0  0  0  0
   58.5450   11.1010    7.1890 N   0  0  0  0  0  0  0  0  0  0  0  0
   57.8590   10.8730    5.9210 C   0  0  0  0  0  0  0  0  0  0  0  0
   49.1937    8.5244   17.0906 H   0  0  0  0  0  0  0  0  0  0  0  0
   48.7381   10.0438   16.3579 H   0  0  0  0  0  0  0  0  0  0  0  0
   49.2040    9.9905   18.0411 H   0  0  0  0  0  0  0  0  0  0  0  0
   51.1293    7.8487   16.4792 H   0  0  0  0  0  0  0  0  0  0  0  0
   53.2775    9.8530   16.2735 H   0  0  0  0  0  0  0  0  0  0  0  0
   53.5248    6.9661   17.0382 H   0  0  0  0  0  0  0  0  0  0  0  0
   53.5991    8.3244   18.1347 H   0  0  0  0  0  0  0  0  0  0  0  0
   54.8406    8.1101   16.9240 H   0  0  0  0  0  0  0  0  0  0  0  0
   54.5620    9.9485   14.5544 H   0  0  0  0  0  0  0  0  0  0  0  0
   54.3575    7.9328   12.4231 H   0  0  0  0  0  0  0  0  0  0  0  0
   53.7250   10.8441   12.0031 H   0  0  0  0  0  0  0  0  0  0  0  0
   52.5781    9.5287   11.9173 H   0  0  0  0  0  0  0  0  0  0  0  0
   53.8690    9.6401   10.7451 H   0  0  0  0  0  0  0  0  0  0  0  0
   55.9219    8.6821   10.5918 H   0  0  0  0  0  0  0  0  0  0  0  0
   58.4268    9.5535   11.8763 H   0  0  0  0  0  0  0  0  0  0  0  0
   58.2914    8.6740   10.3589 H   0  0  0  0  0  0  0  0  0  0  0  0
   59.9471   10.6680   10.1923 H   0  0  0  0  0  0  0  0  0  0  0  0
   58.8965   13.2057    9.6238 H   0  0  0  0  0  0  0  0  0  0  0  0
   61.3088   11.8932    8.3978 H   0  0  0  0  0  0  0  0  0  0  0  0
   61.2918   12.7932    9.8954 H   0  0  0  0  0  0  0  0  0  0  0  0
   60.9660   13.6065    8.3837 H   0  0  0  0  0  0  0  0  0  0  0  0
   58.9343   10.3314    7.6637 H   0  0  0  0  0  0  0  0  0  0  0  0
   57.4971   11.8046    5.5387 H   0  0  0  0  0  0  0  0  0  0  0  0
   57.0359   10.2070    6.0755 H   0  0  0  0  0  0  0  0  0  0  0  0
   58.5411   10.4403    5.2192 H   0  0  0  0  0  0  0  0  0  0  0  0
  1 25  1  0  0  0  0
  1 26  1  0  0  0  0
  1 27  1  0  0  0  0
  2  1  1  0  0  0  0
  3  2  2  0  0  0  0
  4  2  1  0  0  0  0
  4 28  1  0  0  0  0
  5  4  1  0  0  0  0
  5  8  1  0  0  0  0
  5 29  1  1  0  0  0
  6  5  1  0  0  0  0
  7  6  2  0  0  0  0
  8 30  1  0  0  0  0
  8 31  1  0  0  0  0
  8 32  1  0  0  0  0
  9  6  1  0  0  0  0
  9 33  1  0  0  0  0
 10  9  1  0  0  0  0
 10 34  1  6  0  0  0
 11 10  1  0  0  0  0
 11 12  2  0  0  0  0
 13 10  1  0  0  0  0
 13 35  1  0  0  0  0
 13 36  1  0  0  0  0
 13 37  1  0  0  0  0
 14 11  1  0  0  0  0
 14 38  1  0  0  0  0
 15 14  1  0  0  0  0
 15 39  1  0  0  0  0
 15 40  1  0  0  0  0
 16 15  1  0  0  0  0
 17 16  2  0  0  0  0
 18 16  1  0  0  0  0
 18 41  1  0  0  0  0
 19 18  1  0  0  0  0
 19 42  1  1  0  0  0
 20 19  1  0  0  0  0
 21 20  2  0  0  0  0
 22 19  1  0  0  0  0
 22 43  1  0  0  0  0
 22 44  1  0  0  0  0
 22 45  1  0  0  0  0
 23 20  1  0  0  0  0
 23 46  1  0  0  0  0
 24 23  1  0  0  0  0
 24 47  1  0  0  0  0
 24 48  1  0  0  0  0
 24 49  1  0  0  0  0
M  END
>  <MODEL>
       0

$$$$
