selected_4mers/AAGV/350_noH.pdb
 OpenBabel03042517593D

 55 54  0  0  1  0  0  0  0  0999 V2000
    1.9010   34.5910    6.5760 C   0  0  0  0  0  0  0  0  0  0  0  0
    0.8000   35.3310    7.3240 C   0  0  0  0  0  0  0  0  0  0  0  0
   -0.2770   35.5810    6.7790 O   0  0  0  0  0  0  0  0  0  0  0  0
    1.0780   35.6800    8.5760 N   0  0  0  0  0  0  0  0  0  0  0  0
    0.1070   36.3880    9.4000 C   0  0  2  0  0  0  0  0  0  0  0  0
   -0.2300   37.7420    8.7940 C   0  0  0  0  0  0  0  0  0  0  0  0
   -1.3420   38.2470    8.9550 O   0  0  0  0  0  0  0  0  0  0  0  0
    0.6540   36.5710   10.8060 C   0  0  0  0  0  0  0  0  0  0  0  0
    0.7400   38.3270    8.0970 N   0  0  0  0  0  0  0  0  0  0  0  0
    0.5580   39.6280    7.4700 C   0  0  2  0  0  0  0  0  0  0  0  0
   -0.0990   39.5110    6.0980 C   0  0  0  0  0  0  0  0  0  0  0  0
   -0.4230   40.5180    5.4710 O   0  0  0  0  0  0  0  0  0  0  0  0
    1.9010   40.3350    7.3490 C   0  0  0  0  0  0  0  0  0  0  0  0
   -0.2930   38.2800    5.6350 N   0  0  0  0  0  0  0  0  0  0  0  0
   -0.9160   38.0680    4.3400 C   0  0  0  0  0  0  0  0  0  0  0  0
    0.0690   38.1310    3.1870 C   0  0  0  0  0  0  0  0  0  0  0  0
   -0.3180   38.3240    2.0330 O   0  0  0  0  0  0  0  0  0  0  0  0
    1.3480   37.9590    3.4960 N   0  0  0  0  0  0  0  0  0  0  0  0
    2.3870   38.0020    2.4760 C   0  0  2  0  0  0  0  0  0  0  0  0
    2.7010   36.6210    1.9050 C   0  0  0  0  0  0  0  0  0  0  0  0
    2.8040   35.6370    2.6430 O   0  0  0  0  0  0  0  0  0  0  0  0
    3.6910   38.6130    3.0470 C   0  0  0  0  0  0  0  0  0  0  0  0
    4.8100   38.5340    2.0140 C   0  0  0  0  0  0  0  0  0  0  0  0
    3.4480   40.0640    3.4490 C   0  0  0  0  0  0  0  0  0  0  0  0
    2.8360   36.5560    0.5820 N   0  0  0  0  0  0  0  0  0  0  0  0
    3.1780   35.3140   -0.1010 C   0  0  0  0  0  0  0  0  0  0  0  0
    1.5676   34.3624    5.5853 H   0  0  0  0  0  0  0  0  0  0  0  0
    2.1348   33.6833    7.0920 H   0  0  0  0  0  0  0  0  0  0  0  0
    2.7741   35.2074    6.5252 H   0  0  0  0  0  0  0  0  0  0  0  0
    1.9586   35.4554    8.9546 H   0  0  0  0  0  0  0  0  0  0  0  0
   -0.7887   35.8042    9.4431 H   0  0  0  0  0  0  0  0  0  0  0  0
    1.5500   37.1545   10.7670 H   0  0  0  0  0  0  0  0  0  0  0  0
    0.8702   35.6136   11.2320 H   0  0  0  0  0  0  0  0  0  0  0  0
   -0.0731   37.0737   11.4089 H   0  0  0  0  0  0  0  0  0  0  0  0
    1.6054   37.8672    8.0025 H   0  0  0  0  0  0  0  0  0  0  0  0
   -0.0963   40.2024    8.0920 H   0  0  0  0  0  0  0  0  0  0  0  0
    2.5529   39.7583    6.7266 H   0  0  0  0  0  0  0  0  0  0  0  0
    2.3369   40.4412    8.3204 H   0  0  0  0  0  0  0  0  0  0  0  0
    1.7570   41.3024    6.9150 H   0  0  0  0  0  0  0  0  0  0  0  0
   -0.0121   37.5057    6.1742 H   0  0  0  0  0  0  0  0  0  0  0  0
   -1.3798   37.1037    4.3392 H   0  0  0  0  0  0  0  0  0  0  0  0
   -1.6265   38.8549    4.1955 H   0  0  0  0  0  0  0  0  0  0  0  0
    1.5999   37.7990    4.4342 H   0  0  0  0  0  0  0  0  0  0  0  0
    2.0071   38.6154    1.6859 H   0  0  0  0  0  0  0  0  0  0  0  0
    3.9862   38.0551    3.9110 H   0  0  0  0  0  0  0  0  0  0  0  0
    4.5303   39.0877    1.1422 H   0  0  0  0  0  0  0  0  0  0  0  0
    4.9785   37.5113    1.7482 H   0  0  0  0  0  0  0  0  0  0  0  0
    5.7064   38.9475    2.4268 H   0  0  0  0  0  0  0  0  0  0  0  0
    3.1523   40.6277    2.5889 H   0  0  0  0  0  0  0  0  0  0  0  0
    4.3479   40.4773    3.8542 H   0  0  0  0  0  0  0  0  0  0  0  0
    2.6733   40.1050    4.1859 H   0  0  0  0  0  0  0  0  0  0  0  0
    2.7007   37.3721    0.0482 H   0  0  0  0  0  0  0  0  0  0  0  0
    3.2892   34.5301    0.6187 H   0  0  0  0  0  0  0  0  0  0  0  0
    4.0968   35.4415   -0.6342 H   0  0  0  0  0  0  0  0  0  0  0  0
    2.3990   35.0589   -0.7887 H   0  0  0  0  0  0  0  0  0  0  0  0
  1  2  1  0  0  0  0
  1 27  1  0  0  0  0
  1 28  1  0  0  0  0
  1 29  1  0  0  0  0
  2  4  1  0  0  0  0
  3  2  2  0  0  0  0
  4  5  1  0  0  0  0
  4 30  1  0  0  0  0
  5  8  1  0  0  0  0
  5 31  1  1  0  0  0
  6  7  2  0  0  0  0
  6  5  1  0  0  0  0
  8 32  1  0  0  0  0
  8 33  1  0  0  0  0
  8 34  1  0  0  0  0
  9  6  1  0  0  0  0
  9 35  1  0  0  0  0
 10  9  1  0  0  0  0
 10 36  1  1  0  0  0
 11 10  1  0  0  0  0
 12 11  2  0  0  0  0
 13 10  1  0  0  0  0
 13 37  1  0  0  0  0
 13 38  1  0  0  0  0
 13 39  1  0  0  0  0
 14 11  1  0  0  0  0
 14 40  1  0  0  0  0
 15 14  1  0  0  0  0
 15 41  1  0  0  0  0
 15 42  1  0  0  0  0
 16 18  1  0  0  0  0
 16 15  1  0  0  0  0
 17 16  2  0  0  0  0
 18 43  1  0  0  0  0
 19 22  1  0  0  0  0
 19 18  1  0  0  0  0
 19 44  1  6  0  0  0
 20 19  1  0  0  0  0
 20 21  2  0  0  0  0
 22 24  1  0  0  0  0
 22 45  1  0  0  0  0
 23 22  1  0  0  0  0
 23 46  1  0  0  0  0
 23 47  1  0  0  0  0
 23 48  1  0  0  0  0
 24 49  1  0  0  0  0
 24 50  1  0  0  0  0
 24 51  1  0  0  0  0
 25 20  1  0  0  0  0
 25 52  1  0  0  0  0
 26 25  1  0  0  0  0
 26 53  1  0  0  0  0
 26 54  1  0  0  0  0
 26 55  1  0  0  0  0
M  END
>  <MODEL>
       0

$$$$
selected_4mers/AAGV/351_noH.pdb
 OpenBabel03042517593D

 55 54  0  0  1  0  0  0  0  0999 V2000
   46.7640  -22.5660   17.2030 C   0  0  0  0  0  0  0  0  0  0  0  0
   45.4870  -21.6750   17.1550 C   0  0  0  0  0  0  0  0  0  0  0  0
   44.5000  -21.9340   17.8670 O   0  0  0  0  0  0  0  0  0  0  0  0
   45.5560  -20.6130   16.3500 N   0  0  0  0  0  0  0  0  0  0  0  0
   44.4320  -19.7160   16.1180 C   0  0  2  0  0  0  0  0  0  0  0  0
   43.6460  -20.2570   14.9350 C   0  0  0  0  0  0  0  0  0  0  0  0
   44.1880  -20.3180   13.8310 O   0  0  0  0  0  0  0  0  0  0  0  0
   44.9820  -18.2910   15.7810 C   0  0  0  0  0  0  0  0  0  0  0  0
   42.3680  -20.6170   15.1450 N   0  0  0  0  0  0  0  0  0  0  0  0
   41.5190  -21.1650   14.0860 C   0  0  2  0  0  0  0  0  0  0  0  0
   41.4730  -20.2330   12.8690 C   0  0  0  0  0  0  0  0  0  0  0  0
   41.6820  -20.6630   11.7450 O   0  0  0  0  0  0  0  0  0  0  0  0
   40.0710  -21.4220   14.6410 C   0  0  0  0  0  0  0  0  0  0  0  0
   41.1880  -18.9470   13.1080 N   0  0  0  0  0  0  0  0  0  0  0  0
   41.2210  -17.9420   12.0510 C   0  0  0  0  0  0  0  0  0  0  0  0
   40.1440  -18.0760   10.9940 C   0  0  0  0  0  0  0  0  0  0  0  0
   40.3910  -17.7940    9.8250 O   0  0  0  0  0  0  0  0  0  0  0  0
   38.9510  -18.5360   11.3780 N   0  0  0  0  0  0  0  0  0  0  0  0
   37.8850  -18.7660   10.3750 C   0  0  2  0  0  0  0  0  0  0  0  0
   36.5950  -18.0200   10.7330 C   0  0  0  0  0  0  0  0  0  0  0  0
   35.4970  -18.5580   10.6050 O   0  0  0  0  0  0  0  0  0  0  0  0
   37.5930  -20.2690   10.1260 C   0  0  0  0  0  0  0  0  0  0  0  0
   38.7070  -20.9000    9.2280 C   0  0  0  0  0  0  0  0  0  0  0  0
   37.3970  -21.0050   11.4390 C   0  0  0  0  0  0  0  0  0  0  0  0
   36.7320  -16.7770   11.1890 N   0  0  0  0  0  0  0  0  0  0  0  0
   35.5490  -15.9500   11.4560 C   0  0  0  0  0  0  0  0  0  0  0  0
   47.4940  -22.1799   16.5226 H   0  0  0  0  0  0  0  0  0  0  0  0
   46.5108  -23.5675   16.9240 H   0  0  0  0  0  0  0  0  0  0  0  0
   47.1642  -22.5625   18.1953 H   0  0  0  0  0  0  0  0  0  0  0  0
   46.4069  -20.4269   15.8911 H   0  0  0  0  0  0  0  0  0  0  0  0
   43.8043  -19.6531   16.9823 H   0  0  0  0  0  0  0  0  0  0  0  0
   45.6109  -18.3465   14.9171 H   0  0  0  0  0  0  0  0  0  0  0  0
   45.5476  -17.9215   16.6108 H   0  0  0  0  0  0  0  0  0  0  0  0
   44.1637  -17.6301   15.5845 H   0  0  0  0  0  0  0  0  0  0  0  0
   41.9880  -20.5078   16.0466 H   0  0  0  0  0  0  0  0  0  0  0  0
   41.9405  -22.0945   13.7647 H   0  0  0  0  0  0  0  0  0  0  0  0
   39.6434  -20.4960   14.9643 H   0  0  0  0  0  0  0  0  0  0  0  0
   40.1209  -22.0997   15.4676 H   0  0  0  0  0  0  0  0  0  0  0  0
   39.4630  -21.8453   13.8689 H   0  0  0  0  0  0  0  0  0  0  0  0
   40.9495  -18.6718   14.0227 H   0  0  0  0  0  0  0  0  0  0  0  0
   41.1182  -16.9796   12.5071 H   0  0  0  0  0  0  0  0  0  0  0  0
   42.1523  -18.0791   11.5424 H   0  0  0  0  0  0  0  0  0  0  0  0
   38.7793  -18.7227   12.3293 H   0  0  0  0  0  0  0  0  0  0  0  0
   38.2646  -18.3663    9.4579 H   0  0  0  0  0  0  0  0  0  0  0  0
   36.6731  -20.3650    9.5879 H   0  0  0  0  0  0  0  0  0  0  0  0
   39.6509  -20.8272    9.7267 H   0  0  0  0  0  0  0  0  0  0  0  0
   38.7542  -20.3752    8.2967 H   0  0  0  0  0  0  0  0  0  0  0  0
   38.4781  -21.9293    9.0462 H   0  0  0  0  0  0  0  0  0  0  0  0
   38.2925  -20.9407   12.0211 H   0  0  0  0  0  0  0  0  0  0  0  0
   37.1728  -22.0325   11.2419 H   0  0  0  0  0  0  0  0  0  0  0  0
   36.5876  -20.5606   11.9796 H   0  0  0  0  0  0  0  0  0  0  0  0
   37.6317  -16.4103   11.3481 H   0  0  0  0  0  0  0  0  0  0  0  0
   34.6649  -16.5079   11.2278 H   0  0  0  0  0  0  0  0  0  0  0  0
   35.5833  -15.0711   10.8467 H   0  0  0  0  0  0  0  0  0  0  0  0
   35.5364  -15.6681   12.4881 H   0  0  0  0  0  0  0  0  0  0  0  0
  1 27  1  0  0  0  0
  1 28  1  0  0  0  0
  1 29  1  0  0  0  0
  2  1  1  0  0  0  0
  2  3  2  0  0  0  0
  4  2  1  0  0  0  0
  4 30  1  0  0  0  0
  5  4  1  0  0  0  0
  5 31  1  1  0  0  0
  6  9  1  0  0  0  0
  6  5  1  0  0  0  0
  7  6  2  0  0  0  0
  8  5  1  0  0  0  0
  8 32  1  0  0  0  0
  8 33  1  0  0  0  0
  8 34  1  0  0  0  0
  9 35  1  0  0  0  0
 10 13  1  0  0  0  0
 10  9  1  0  0  0  0
 10 36  1  6  0  0  0
 11 14  1  0  0  0  0
 11 10  1  0  0  0  0
 12 11  2  0  0  0  0
 13 37  1  0  0  0  0
 13 38  1  0  0  0  0
 13 39  1  0  0  0  0
 14 40  1  0  0  0  0
 15 14  1  0  0  0  0
 15 41  1  0  0  0  0
 15 42  1  0  0  0  0
 16 18  1  0  0  0  0
 16 15  1  0  0  0  0
 17 16  2  0  0  0  0
 18 43  1  0  0  0  0
 19 20  1  0  0  0  0
 19 18  1  0  0  0  0
 19 44  1  6  0  0  0
 20 25  1  0  0  0  0
 21 20  2  0  0  0  0
 22 19  1  0  0  0  0
 22 24  1  0  0  0  0
 22 45  1  0  0  0  0
 23 22  1  0  0  0  0
 23 46  1  0  0  0  0
 23 47  1  0  0  0  0
 23 48  1  0  0  0  0
 24 49  1  0  0  0  0
 24 50  1  0  0  0  0
 24 51  1  0  0  0  0
 25 26  1  0  0  0  0
 25 52  1  0  0  0  0
 26 53  1  0  0  0  0
 26 54  1  0  0  0  0
 26 55  1  0  0  0  0
M  END
>  <MODEL>
       0

$$$$
selected_4mers/AAGV/352_noH.pdb
 OpenBabel03042517593D

 55 54  0  0  1  0  0  0  0  0999 V2000
   10.3120   10.8760   -6.0010 C   0  0  0  0  0  0  0  0  0  0  0  0
   11.8280   11.0010   -6.1120 C   0  0  0  0  0  0  0  0  0  0  0  0
   12.5640   10.0280   -5.9420 O   0  0  0  0  0  0  0  0  0  0  0  0
   12.3050   12.2150   -6.3440 N   0  0  0  0  0  0  0  0  0  0  0  0
   13.7420   12.4530   -6.4460 C   0  0  2  0  0  0  0  0  0  0  0  0
   14.5080   12.0760   -5.1670 C   0  0  0  0  0  0  0  0  0  0  0  0
   15.5670   11.4440   -5.2300 O   0  0  0  0  0  0  0  0  0  0  0  0
   14.0160   13.9070   -6.8230 C   0  0  0  0  0  0  0  0  0  0  0  0
   13.9630   12.4530   -4.0130 N   0  0  0  0  0  0  0  0  0  0  0  0
   14.5920   12.1340   -2.7310 C   0  0  2  0  0  0  0  0  0  0  0  0
   14.5500   10.6420   -2.4080 C   0  0  0  0  0  0  0  0  0  0  0  0
   15.5220   10.0810   -1.9080 O   0  0  0  0  0  0  0  0  0  0  0  0
   13.9290   12.9360   -1.6290 C   0  0  0  0  0  0  0  0  0  0  0  0
   13.4170   10.0120   -2.7090 N   0  0  0  0  0  0  0  0  0  0  0  0
   13.2720    8.5650   -2.5080 C   0  0  0  0  0  0  0  0  0  0  0  0
   14.3230    7.8110   -3.3050 C   0  0  0  0  0  0  0  0  0  0  0  0
   14.9910    6.9100   -2.7860 O   0  0  0  0  0  0  0  0  0  0  0  0
   14.5000    8.1940   -4.5650 N   0  0  0  0  0  0  0  0  0  0  0  0
   15.4900    7.5380   -5.4030 C   0  0  2  0  0  0  0  0  0  0  0  0
   16.9090    7.8720   -4.9340 C   0  0  0  0  0  0  0  0  0  0  0  0
   17.8200    7.0400   -5.0000 O   0  0  0  0  0  0  0  0  0  0  0  0
   15.2560    7.8450   -6.9080 C   0  0  0  0  0  0  0  0  0  0  0  0
   16.4600    7.4500   -7.7420 C   0  0  0  0  0  0  0  0  0  0  0  0
   14.0050    7.1040   -7.3960 C   0  0  0  0  0  0  0  0  0  0  0  0
   17.1160    9.0840   -4.4340 N   0  0  0  0  0  0  0  0  0  0  0  0
   18.4320    9.3790   -3.8790 C   0  0  0  0  0  0  0  0  0  0  0  0
    9.8613   11.8293   -6.1825 H   0  0  0  0  0  0  0  0  0  0  0  0
   10.0528   10.5402   -5.0187 H   0  0  0  0  0  0  0  0  0  0  0  0
    9.9584   10.1708   -6.7239 H   0  0  0  0  0  0  0  0  0  0  0  0
   11.6805   12.9688   -6.4493 H   0  0  0  0  0  0  0  0  0  0  0  0
   14.1046   11.8095   -7.2202 H   0  0  0  0  0  0  0  0  0  0  0  0
   13.6535   14.5506   -6.0489 H   0  0  0  0  0  0  0  0  0  0  0  0
   13.5172   14.1375   -7.7411 H   0  0  0  0  0  0  0  0  0  0  0  0
   15.0693   14.0519   -6.9432 H   0  0  0  0  0  0  0  0  0  0  0  0
   13.1178   12.9578   -4.0220 H   0  0  0  0  0  0  0  0  0  0  0  0
   15.6260   12.3996   -2.8031 H   0  0  0  0  0  0  0  0  0  0  0  0
   12.8960   12.6652   -1.5629 H   0  0  0  0  0  0  0  0  0  0  0  0
   14.0107   13.9799   -1.8491 H   0  0  0  0  0  0  0  0  0  0  0  0
   14.4123   12.7291   -0.6971 H   0  0  0  0  0  0  0  0  0  0  0  0
   12.6611   10.5266   -3.0737 H   0  0  0  0  0  0  0  0  0  0  0  0
   13.3894    8.3400   -1.4685 H   0  0  0  0  0  0  0  0  0  0  0  0
   12.3012    8.2640   -2.8423 H   0  0  0  0  0  0  0  0  0  0  0  0
   13.9566    8.9275   -4.9337 H   0  0  0  0  0  0  0  0  0  0  0  0
   15.3741    6.4795   -5.2982 H   0  0  0  0  0  0  0  0  0  0  0  0
   15.1119    8.8992   -7.0208 H   0  0  0  0  0  0  0  0  0  0  0  0
   16.6289    6.3976   -7.6485 H   0  0  0  0  0  0  0  0  0  0  0  0
   17.3224    7.9816   -7.3976 H   0  0  0  0  0  0  0  0  0  0  0  0
   16.2780    7.6922   -8.7682 H   0  0  0  0  0  0  0  0  0  0  0  0
   14.1484    6.0496   -7.2835 H   0  0  0  0  0  0  0  0  0  0  0  0
   13.8345    7.3327   -8.4273 H   0  0  0  0  0  0  0  0  0  0  0  0
   13.1593    7.4127   -6.8177 H   0  0  0  0  0  0  0  0  0  0  0  0
   16.4031    9.7629   -4.4377 H   0  0  0  0  0  0  0  0  0  0  0  0
   19.0588    8.5166   -3.9697 H   0  0  0  0  0  0  0  0  0  0  0  0
   18.3330    9.6409   -2.8463 H   0  0  0  0  0  0  0  0  0  0  0  0
   18.8697   10.1959   -4.4138 H   0  0  0  0  0  0  0  0  0  0  0  0
  1 27  1  0  0  0  0
  1 28  1  0  0  0  0
  1 29  1  0  0  0  0
  2  1  1  0  0  0  0
  2  3  2  0  0  0  0
  4  2  1  0  0  0  0
  4 30  1  0  0  0  0
  5  4  1  0  0  0  0
  5  6  1  0  0  0  0
  5 31  1  6  0  0  0
  6  9  1  0  0  0  0
  7  6  2  0  0  0  0
  8  5  1  0  0  0  0
  8 32  1  0  0  0  0
  8 33  1  0  0  0  0
  8 34  1  0  0  0  0
  9 10  1  0  0  0  0
  9 35  1  0  0  0  0
 10 11  1  0  0  0  0
 10 13  1  0  0  0  0
 10 36  1  6  0  0  0
 11 12  2  0  0  0  0
 13 37  1  0  0  0  0
 13 38  1  0  0  0  0
 13 39  1  0  0  0  0
 14 15  1  0  0  0  0
 14 11  1  0  0  0  0
 14 40  1  0  0  0  0
 15 41  1  0  0  0  0
 15 42  1  0  0  0  0
 16 17  2  0  0  0  0
 16 15  1  0  0  0  0
 18 16  1  0  0  0  0
 18 43  1  0  0  0  0
 19 20  1  0  0  0  0
 19 18  1  0  0  0  0
 19 44  1  1  0  0  0
 20 25  1  0  0  0  0
 21 20  2  0  0  0  0
 22 19  1  0  0  0  0
 22 45  1  0  0  0  0
 23 22  1  0  0  0  0
 23 46  1  0  0  0  0
 23 47  1  0  0  0  0
 23 48  1  0  0  0  0
 24 22  1  0  0  0  0
 24 49  1  0  0  0  0
 24 50  1  0  0  0  0
 24 51  1  0  0  0  0
 25 26  1  0  0  0  0
 25 52  1  0  0  0  0
 26 53  1  0  0  0  0
 26 54  1  0  0  0  0
 26 55  1  0  0  0  0
M  END
>  <MODEL>
       0

$$$$
selected_4mers/AAGV/353_noH.pdb
 OpenBabel03042517593D

 55 54  0  0  1  0  0  0  0  0999 V2000
   41.5680   32.7490    6.1360 C   0  0  0  0  0  0  0  0  0  0  0  0
   41.4150   31.2960    5.6980 C   0  0  0  0  0  0  0  0  0  0  0  0
   40.4930   30.6230    6.1420 O   0  0  0  0  0  0  0  0  0  0  0  0
   42.2930   30.8090    4.8250 N   0  0  0  0  0  0  0  0  0  0  0  0
   42.2040   29.4250    4.3380 C   0  0  2  0  0  0  0  0  0  0  0  0
   42.7850   28.4490    5.3700 C   0  0  0  0  0  0  0  0  0  0  0  0
   43.4850   28.8340    6.3230 O   0  0  0  0  0  0  0  0  0  0  0  0
   42.9550   29.2970    3.0270 C   0  0  0  0  0  0  0  0  0  0  0  0
   42.5420   27.1570    5.1810 N   0  0  0  0  0  0  0  0  0  0  0  0
   42.9860   26.1880    6.1660 C   0  0  2  0  0  0  0  0  0  0  0  0
   43.1410   24.8060    5.5380 C   0  0  0  0  0  0  0  0  0  0  0  0
   42.4600   24.5040    4.5780 O   0  0  0  0  0  0  0  0  0  0  0  0
   41.9760   26.1410    7.3080 C   0  0  0  0  0  0  0  0  0  0  0  0
   44.0310   23.9900    6.0770 N   0  0  0  0  0  0  0  0  0  0  0  0
   44.0900   22.5990    5.6950 C   0  0  0  0  0  0  0  0  0  0  0  0
   43.0270   21.8080    6.3940 C   0  0  0  0  0  0  0  0  0  0  0  0
   42.5410   22.2250    7.4160 O   0  0  0  0  0  0  0  0  0  0  0  0
   42.7190   20.6160    5.8810 N   0  0  0  0  0  0  0  0  0  0  0  0
   41.6010   19.8220    6.3900 C   0  0  2  0  0  0  0  0  0  0  0  0
   42.1700   18.5250    6.9530 C   0  0  0  0  0  0  0  0  0  0  0  0
   42.9170   17.8410    6.2570 O   0  0  0  0  0  0  0  0  0  0  0  0
   40.5320   19.5710    5.2760 C   0  0  0  0  0  0  0  0  0  0  0  0
   39.2950   18.8090    5.8300 C   0  0  0  0  0  0  0  0  0  0  0  0
   40.1130   20.9110    4.6360 C   0  0  0  0  0  0  0  0  0  0  0  0
   41.8510   18.2380    8.2250 N   0  0  0  0  0  0  0  0  0  0  0  0
   42.1750   16.9760    8.8850 C   0  0  0  0  0  0  0  0  0  0  0  0
   42.4201   33.1794    5.6526 H   0  0  0  0  0  0  0  0  0  0  0  0
   41.7015   32.7896    7.1969 H   0  0  0  0  0  0  0  0  0  0  0  0
   40.6898   33.2973    5.8658 H   0  0  0  0  0  0  0  0  0  0  0  0
   43.0185   31.3886    4.4979 H   0  0  0  0  0  0  0  0  0  0  0  0
   41.1735   29.1811    4.1845 H   0  0  0  0  0  0  0  0  0  0  0  0
   43.9854   29.5410    3.1809 H   0  0  0  0  0  0  0  0  0  0  0  0
   42.5333   29.9674    2.3075 H   0  0  0  0  0  0  0  0  0  0  0  0
   42.8762   28.2923    2.6675 H   0  0  0  0  0  0  0  0  0  0  0  0
   42.0622   26.8575    4.3752 H   0  0  0  0  0  0  0  0  0  0  0  0
   43.9424   26.4847    6.5430 H   0  0  0  0  0  0  0  0  0  0  0  0
   41.0210   25.8440    6.9276 H   0  0  0  0  0  0  0  0  0  0  0  0
   41.8965   27.1104    7.7540 H   0  0  0  0  0  0  0  0  0  0  0  0
   42.3019   25.4356    8.0436 H   0  0  0  0  0  0  0  0  0  0  0  0
   44.6625   24.3360    6.7484 H   0  0  0  0  0  0  0  0  0  0  0  0
   45.0495   22.2042    5.9563 H   0  0  0  0  0  0  0  0  0  0  0  0
   43.9316   22.5270    4.6392 H   0  0  0  0  0  0  0  0  0  0  0  0
   43.2594   20.2605    5.1388 H   0  0  0  0  0  0  0  0  0  0  0  0
   41.0895   20.3496    7.1678 H   0  0  0  0  0  0  0  0  0  0  0  0
   40.9735   18.9510    4.5239 H   0  0  0  0  0  0  0  0  0  0  0  0
   38.8232   19.3984    6.5883 H   0  0  0  0  0  0  0  0  0  0  0  0
   39.6089   17.8753    6.2478 H   0  0  0  0  0  0  0  0  0  0  0  0
   38.6016   18.6290    5.0352 H   0  0  0  0  0  0  0  0  0  0  0  0
   39.6700   21.5388    5.3806 H   0  0  0  0  0  0  0  0  0  0  0  0
   39.4037   20.7275    3.8562 H   0  0  0  0  0  0  0  0  0  0  0  0
   40.9748   21.3960    4.2273 H   0  0  0  0  0  0  0  0  0  0  0  0
   41.3687   18.9206    8.7453 H   0  0  0  0  0  0  0  0  0  0  0  0
   42.6948   16.3387    8.2005 H   0  0  0  0  0  0  0  0  0  0  0  0
   41.2722   16.4974    9.2024 H   0  0  0  0  0  0  0  0  0  0  0  0
   42.7953   17.1673    9.7356 H   0  0  0  0  0  0  0  0  0  0  0  0
  1 27  1  0  0  0  0
  1 28  1  0  0  0  0
  1 29  1  0  0  0  0
  2  1  1  0  0  0  0
  2  3  2  0  0  0  0
  4  2  1  0  0  0  0
  4 30  1  0  0  0  0
  5  4  1  0  0  0  0
  5  6  1  0  0  0  0
  5 31  1  6  0  0  0
  6  7  2  0  0  0  0
  8  5  1  0  0  0  0
  8 32  1  0  0  0  0
  8 33  1  0  0  0  0
  8 34  1  0  0  0  0
  9  6  1  0  0  0  0
  9 10  1  0  0  0  0
  9 35  1  0  0  0  0
 10 13  1  0  0  0  0
 10 36  1  1  0  0  0
 11 14  1  0  0  0  0
 11 10  1  0  0  0  0
 12 11  2  0  0  0  0
 13 37  1  0  0  0  0
 13 38  1  0  0  0  0
 13 39  1  0  0  0  0
 14 40  1  0  0  0  0
 15 14  1  0  0  0  0
 15 16  1  0  0  0  0
 15 41  1  0  0  0  0
 15 42  1  0  0  0  0
 16 17  2  0  0  0  0
 18 19  1  0  0  0  0
 18 16  1  0  0  0  0
 18 43  1  0  0  0  0
 19 20  1  0  0  0  0
 19 44  1  1  0  0  0
 20 25  1  0  0  0  0
 21 20  2  0  0  0  0
 22 23  1  0  0  0  0
 22 19  1  0  0  0  0
 22 45  1  0  0  0  0
 23 46  1  0  0  0  0
 23 47  1  0  0  0  0
 23 48  1  0  0  0  0
 24 22  1  0  0  0  0
 24 49  1  0  0  0  0
 24 50  1  0  0  0  0
 24 51  1  0  0  0  0
 25 26  1  0  0  0  0
 25 52  1  0  0  0  0
 26 53  1  0  0  0  0
 26 54  1  0  0  0  0
 26 55  1  0  0  0  0
M  END
>  <MODEL>
       0

$$$$
selected_4mers/AAGV/354_noH.pdb
 OpenBabel03042517593D

 55 54  0  0  1  0  0  0  0  0999 V2000
  -18.1160   79.1780   30.0050 C   0  0  0  0  0  0  0  0  0  0  0  0
  -18.0600   79.7660   31.4200 C   0  0  0  0  0  0  0  0  0  0  0  0
  -16.9870   79.8430   32.0310 O   0  0  0  0  0  0  0  0  0  0  0  0
  -19.2210   80.1690   31.9230 N   0  0  0  0  0  0  0  0  0  0  0  0
  -19.3530   80.6990   33.2830 C   0  0  2  0  0  0  0  0  0  0  0  0
  -18.9630   79.6780   34.3680 C   0  0  0  0  0  0  0  0  0  0  0  0
  -18.5700   80.0690   35.4710 O   0  0  0  0  0  0  0  0  0  0  0  0
  -20.7900   81.2190   33.5130 C   0  0  0  0  0  0  0  0  0  0  0  0
  -19.0740   78.3840   34.0610 N   0  0  0  0  0  0  0  0  0  0  0  0
  -18.7210   77.3260   34.9910 C   0  0  2  0  0  0  0  0  0  0  0  0
  -17.3100   76.7790   34.7420 C   0  0  0  0  0  0  0  0  0  0  0  0
  -16.9260   75.7720   35.3220 O   0  0  0  0  0  0  0  0  0  0  0  0
  -19.7420   76.2120   34.9470 C   0  0  0  0  0  0  0  0  0  0  0  0
  -16.5370   77.4750   33.9240 N   0  0  0  0  0  0  0  0  0  0  0  0
  -15.1170   77.1590   33.7150 C   0  0  0  0  0  0  0  0  0  0  0  0
  -14.8780   76.0480   32.7020 C   0  0  0  0  0  0  0  0  0  0  0  0
  -13.9440   75.2650   32.8490 O   0  0  0  0  0  0  0  0  0  0  0  0
  -15.7200   75.9790   31.6740 N   0  0  0  0  0  0  0  0  0  0  0  0
  -15.5190   74.9910   30.5890 C   0  0  2  0  0  0  0  0  0  0  0  0
  -15.4970   75.6980   29.2330 C   0  0  0  0  0  0  0  0  0  0  0  0
  -16.4200   76.4480   28.9090 O   0  0  0  0  0  0  0  0  0  0  0  0
  -16.5970   73.8880   30.6350 C   0  0  0  0  0  0  0  0  0  0  0  0
  -16.4350   72.8950   29.4700 C   0  0  0  0  0  0  0  0  0  0  0  0
  -16.5650   73.1470   32.0110 C   0  0  0  0  0  0  0  0  0  0  0  0
  -14.4290   75.4660   28.4650 N   0  0  0  0  0  0  0  0  0  0  0  0
  -14.2600   76.0470   27.1490 C   0  0  0  0  0  0  0  0  0  0  0  0
  -19.1252   79.1983   29.6500 H   0  0  0  0  0  0  0  0  0  0  0  0
  -17.7651   78.1674   30.0246 H   0  0  0  0  0  0  0  0  0  0  0  0
  -17.4968   79.7580   29.3530 H   0  0  0  0  0  0  0  0  0  0  0  0
  -20.0260   80.1093   31.3593 H   0  0  0  0  0  0  0  0  0  0  0  0
  -18.6612   81.5106   33.3710 H   0  0  0  0  0  0  0  0  0  0  0  0
  -21.4814   80.4072   33.4249 H   0  0  0  0  0  0  0  0  0  0  0  0
  -21.0207   81.9650   32.7814 H   0  0  0  0  0  0  0  0  0  0  0  0
  -20.8628   81.6449   34.4919 H   0  0  0  0  0  0  0  0  0  0  0  0
  -19.4085   78.1369   33.1686 H   0  0  0  0  0  0  0  0  0  0  0  0
  -18.7228   77.7559   35.9708 H   0  0  0  0  0  0  0  0  0  0  0  0
  -19.7497   75.7736   33.9710 H   0  0  0  0  0  0  0  0  0  0  0  0
  -20.7113   76.6077   35.1679 H   0  0  0  0  0  0  0  0  0  0  0  0
  -19.4877   75.4663   35.6710 H   0  0  0  0  0  0  0  0  0  0  0  0
  -16.9288   78.2349   33.4359 H   0  0  0  0  0  0  0  0  0  0  0  0
  -14.6219   78.0426   33.3699 H   0  0  0  0  0  0  0  0  0  0  0  0
  -14.7330   76.8143   34.6523 H   0  0  0  0  0  0  0  0  0  0  0  0
  -16.4879   76.5937   31.6340 H   0  0  0  0  0  0  0  0  0  0  0  0
  -14.5727   74.5127   30.7324 H   0  0  0  0  0  0  0  0  0  0  0  0
  -17.5527   74.3567   30.5265 H   0  0  0  0  0  0  0  0  0  0  0  0
  -15.4863   72.4062   29.5473 H   0  0  0  0  0  0  0  0  0  0  0  0
  -16.4895   73.4231   28.5410 H   0  0  0  0  0  0  0  0  0  0  0  0
  -17.2166   72.1654   29.5119 H   0  0  0  0  0  0  0  0  0  0  0  0
  -15.6151   72.6711   32.1378 H   0  0  0  0  0  0  0  0  0  0  0  0
  -17.3397   72.4094   32.0370 H   0  0  0  0  0  0  0  0  0  0  0  0
  -16.7183   73.8532   32.8001 H   0  0  0  0  0  0  0  0  0  0  0  0
  -13.7235   74.8721   28.8097 H   0  0  0  0  0  0  0  0  0  0  0  0
  -15.1044   76.6629   26.9199 H   0  0  0  0  0  0  0  0  0  0  0  0
  -14.1804   75.2661   26.4219 H   0  0  0  0  0  0  0  0  0  0  0  0
  -13.3703   76.6412   27.1330 H   0  0  0  0  0  0  0  0  0  0  0  0
  1  2  1  0  0  0  0
  1 27  1  0  0  0  0
  1 28  1  0  0  0  0
  1 29  1  0  0  0  0
  2  4  1  0  0  0  0
  2  3  2  0  0  0  0
  4  5  1  0  0  0  0
  4 30  1  0  0  0  0
  5  8  1  0  0  0  0
  5  6  1  0  0  0  0
  5 31  1  1  0  0  0
  6  7  2  0  0  0  0
  8 32  1  0  0  0  0
  8 33  1  0  0  0  0
  8 34  1  0  0  0  0
  9  6  1  0  0  0  0
  9 10  1  0  0  0  0
  9 35  1  0  0  0  0
 10 36  1  1  0  0  0
 11 10  1  0  0  0  0
 11 12  2  0  0  0  0
 13 10  1  0  0  0  0
 13 37  1  0  0  0  0
 13 38  1  0  0  0  0
 13 39  1  0  0  0  0
 14 11  1  0  0  0  0
 14 40  1  0  0  0  0
 15 14  1  0  0  0  0
 15 41  1  0  0  0  0
 15 42  1  0  0  0  0
 16 17  2  0  0  0  0
 16 15  1  0  0  0  0
 18 16  1  0  0  0  0
 18 43  1  0  0  0  0
 19 22  1  0  0  0  0
 19 18  1  0  0  0  0
 19 44  1  1  0  0  0
 20 19  1  0  0  0  0
 21 20  2  0  0  0  0
 22 24  1  0  0  0  0
 22 45  1  0  0  0  0
 23 22  1  0  0  0  0
 23 46  1  0  0  0  0
 23 47  1  0  0  0  0
 23 48  1  0  0  0  0
 24 49  1  0  0  0  0
 24 50  1  0  0  0  0
 24 51  1  0  0  0  0
 25 20  1  0  0  0  0
 25 52  1  0  0  0  0
 26 25  1  0  0  0  0
 26 53  1  0  0  0  0
 26 54  1  0  0  0  0
 26 55  1  0  0  0  0
M  END
>  <MODEL>
       0

$$$$
