selected_4mers/AALA/0_noH.pdb
 OpenBabel03042517493D

 61 60  0  0  1  0  0  0  0  0999 V2000
    8.7790   16.1130   21.4600 C   0  0  0  0  0  0  0  0  0  0  0  0
    7.7000   15.6090   20.4800 C   0  0  0  0  0  0  0  0  0  0  0  0
    7.8880   15.6580   19.2620 O   0  0  0  0  0  0  0  0  0  0  0  0
    6.5870   15.1240   21.0310 N   0  0  0  0  0  0  0  0  0  0  0  0
    5.3750   14.7910   20.2560 C   0  0  2  0  0  0  0  0  0  0  0  0
    4.3000   15.8820   20.3840 C   0  0  0  0  0  0  0  0  0  0  0  0
    4.3480   16.7020   21.3060 O   0  0  0  0  0  0  0  0  0  0  0  0
    4.8110   13.4530   20.7110 C   0  0  0  0  0  0  0  0  0  0  0  0
    3.3030   15.8470   19.4910 N   0  0  0  0  0  0  0  0  0  0  0  0
    2.3040   16.9270   19.3770 C   0  0  2  0  0  0  0  0  0  0  0  0
    0.9200   16.5060   19.8690 C   0  0  0  0  0  0  0  0  0  0  0  0
    0.4130   15.4370   19.4980 O   0  0  0  0  0  0  0  0  0  0  0  0
    2.2140   17.4020   17.9440 C   0  0  0  0  0  0  0  0  0  0  0  0
    0.3270   17.3560   20.7040 N   0  0  0  0  0  0  0  0  0  0  0  0
   -0.9880   17.0960   21.2890 C   0  0  2  0  0  0  0  0  0  0  0  0
   -2.0840   17.8410   20.5580 C   0  0  0  0  0  0  0  0  0  0  0  0
   -1.8710   18.9540   20.0610 O   0  0  0  0  0  0  0  0  0  0  0  0
   -1.0110   17.5370   22.7530 C   0  0  0  0  0  0  0  0  0  0  0  0
   -0.1060   16.7690   23.7120 C   0  0  0  0  0  0  0  0  0  0  0  0
    0.0020   17.4860   25.0450 C   0  0  0  0  0  0  0  0  0  0  0  0
   -0.5940   15.3150   23.8840 C   0  0  0  0  0  0  0  0  0  0  0  0
   -3.2660   17.2310   20.5340 N   0  0  0  0  0  0  0  0  0  0  0  0
   -4.4890   17.9030   20.0920 C   0  0  2  0  0  0  0  0  0  0  0  0
   -4.8590   19.0040   21.0820 C   0  0  0  0  0  0  0  0  0  0  0  0
   -4.4440   18.9800   22.2420 O   0  0  0  0  0  0  0  0  0  0  0  0
   -5.6240   16.8960   19.9740 C   0  0  0  0  0  0  0  0  0  0  0  0
   -5.6510   19.9640   20.6160 N   0  0  0  0  0  0  0  0  0  0  0  0
   -6.1120   21.0520   21.4650 C   0  0  0  0  0  0  0  0  0  0  0  0
    9.6204   16.4766   20.9079 H   0  0  0  0  0  0  0  0  0  0  0  0
    9.0889   15.3085   22.0938 H   0  0  0  0  0  0  0  0  0  0  0  0
    8.3763   16.9035   22.0582 H   0  0  0  0  0  0  0  0  0  0  0  0
    6.5725   14.9805   22.0049 H   0  0  0  0  0  0  0  0  0  0  0  0
    5.6580   14.7274   19.2261 H   0  0  0  0  0  0  0  0  0  0  0  0
    4.5280   13.5169   21.7409 H   0  0  0  0  0  0  0  0  0  0  0  0
    5.5550   12.6933   20.5920 H   0  0  0  0  0  0  0  0  0  0  0  0
    3.9533   13.2079   20.1200 H   0  0  0  0  0  0  0  0  0  0  0  0
    3.2339   15.0719   18.8880 H   0  0  0  0  0  0  0  0  0  0  0  0
    2.6357   17.7249   20.0080 H   0  0  0  0  0  0  0  0  0  0  0  0
    1.8817   16.5974   17.3218 H   0  0  0  0  0  0  0  0  0  0  0  0
    3.1778   17.7317   17.6163 H   0  0  0  0  0  0  0  0  0  0  0  0
    1.5188   18.2129   17.8800 H   0  0  0  0  0  0  0  0  0  0  0  0
    0.7915   18.1922   20.9369 H   0  0  0  0  0  0  0  0  0  0  0  0
   -1.1636   16.0437   21.2073 H   0  0  0  0  0  0  0  0  0  0  0  0
   -2.0163   17.4383   23.1060 H   0  0  0  0  0  0  0  0  0  0  0  0
   -0.6354   18.5389   22.7519 H   0  0  0  0  0  0  0  0  0  0  0  0
    0.8759   16.7296   23.2886 H   0  0  0  0  0  0  0  0  0  0  0  0
   -0.9655   17.5437   25.4983 H   0  0  0  0  0  0  0  0  0  0  0  0
    0.3822   18.4739   24.8888 H   0  0  0  0  0  0  0  0  0  0  0  0
    0.6654   16.9459   25.6878 H   0  0  0  0  0  0  0  0  0  0  0  0
   -1.5769   15.3163   24.3069 H   0  0  0  0  0  0  0  0  0  0  0  0
    0.0734   14.7894   24.5345 H   0  0  0  0  0  0  0  0  0  0  0  0
   -0.6169   14.8312   22.9299 H   0  0  0  0  0  0  0  0  0  0  0  0
   -3.3202   16.2919   20.8246 H   0  0  0  0  0  0  0  0  0  0  0  0
   -4.3209   18.3425   19.1310 H   0  0  0  0  0  0  0  0  0  0  0  0
   -5.8037   16.4476   20.9288 H   0  0  0  0  0  0  0  0  0  0  0  0
   -5.3559   16.1375   19.2685 H   0  0  0  0  0  0  0  0  0  0  0  0
   -6.5103   17.3949   19.6417 H   0  0  0  0  0  0  0  0  0  0  0  0
   -5.9328   19.9384   19.6730 H   0  0  0  0  0  0  0  0  0  0  0  0
   -5.7158   20.9274   22.4511 H   0  0  0  0  0  0  0  0  0  0  0  0
   -7.1812   21.0435   21.5065 H   0  0  0  0  0  0  0  0  0  0  0  0
   -5.7781   21.9852   21.0617 H   0  0  0  0  0  0  0  0  0  0  0  0
  1 29  1  0  0  0  0
  1 30  1  0  0  0  0
  1 31  1  0  0  0  0
  2  4  1  0  0  0  0
  2  1  1  0  0  0  0
  3  2  2  0  0  0  0
  4 32  1  0  0  0  0
  5  6  1  0  0  0  0
  5  8  1  0  0  0  0
  5  4  1  0  0  0  0
  5 33  1  6  0  0  0
  6  7  2  0  0  0  0
  8 34  1  0  0  0  0
  8 35  1  0  0  0  0
  8 36  1  0  0  0  0
  9  6  1  0  0  0  0
  9 37  1  0  0  0  0
 10  9  1  0  0  0  0
 10 11  1  0  0  0  0
 10 38  1  1  0  0  0
 11 14  1  0  0  0  0
 12 11  2  0  0  0  0
 13 10  1  0  0  0  0
 13 39  1  0  0  0  0
 13 40  1  0  0  0  0
 13 41  1  0  0  0  0
 14 15  1  0  0  0  0
 14 42  1  0  0  0  0
 15 18  1  0  0  0  0
 15 43  1  6  0  0  0
 16 15  1  0  0  0  0
 17 16  2  0  0  0  0
 18 19  1  0  0  0  0
 18 44  1  0  0  0  0
 18 45  1  0  0  0  0
 19 21  1  0  0  0  0
 19 20  1  0  0  0  0
 19 46  1  0  0  0  0
 20 47  1  0  0  0  0
 20 48  1  0  0  0  0
 20 49  1  0  0  0  0
 21 50  1  0  0  0  0
 21 51  1  0  0  0  0
 21 52  1  0  0  0  0
 22 16  1  0  0  0  0
 22 53  1  0  0  0  0
 23 22  1  0  0  0  0
 23 24  1  0  0  0  0
 23 54  1  6  0  0  0
 24 25  2  0  0  0  0
 26 23  1  0  0  0  0
 26 55  1  0  0  0  0
 26 56  1  0  0  0  0
 26 57  1  0  0  0  0
 27 24  1  0  0  0  0
 27 28  1  0  0  0  0
 27 58  1  0  0  0  0
 28 59  1  0  0  0  0
 28 60  1  0  0  0  0
 28 61  1  0  0  0  0
M  END
>  <MODEL>
       0

$$$$
selected_4mers/AALA/1_noH.pdb
 OpenBabel03042517493D

 61 60  0  0  1  0  0  0  0  0999 V2000
   19.0750   19.3160   32.6440 C   0  0  0  0  0  0  0  0  0  0  0  0
   18.2460   18.2060   33.2720 C   0  0  0  0  0  0  0  0  0  0  0  0
   17.1260   17.9310   32.8370 O   0  0  0  0  0  0  0  0  0  0  0  0
   18.8030   17.5940   34.3070 N   0  0  0  0  0  0  0  0  0  0  0  0
   18.1490   16.4780   35.0140 C   0  0  2  0  0  0  0  0  0  0  0  0
   16.8160   16.9370   35.6160 C   0  0  0  0  0  0  0  0  0  0  0  0
   15.7820   16.2610   35.4830 O   0  0  0  0  0  0  0  0  0  0  0  0
   19.0970   15.8880   36.0950 C   0  0  0  0  0  0  0  0  0  0  0  0
   16.8340   18.1010   36.2520 N   0  0  0  0  0  0  0  0  0  0  0  0
   15.6110   18.6940   36.8110 C   0  0  2  0  0  0  0  0  0  0  0  0
   14.5920   19.0420   35.7030 C   0  0  0  0  0  0  0  0  0  0  0  0
   13.3790   18.8360   35.8950 O   0  0  0  0  0  0  0  0  0  0  0  0
   15.9370   19.9300   37.6930 C   0  0  0  0  0  0  0  0  0  0  0  0
   15.0600   19.5510   34.5530 N   0  0  0  0  0  0  0  0  0  0  0  0
   14.1620   19.8910   33.4640 C   0  0  2  0  0  0  0  0  0  0  0  0
   13.5460   18.6450   32.8530 C   0  0  0  0  0  0  0  0  0  0  0  0
   12.3360   18.6290   32.5530 O   0  0  0  0  0  0  0  0  0  0  0  0
   14.8910   20.6810   32.3700 C   0  0  0  0  0  0  0  0  0  0  0  0
   14.0700   21.1840   31.1830 C   0  0  0  0  0  0  0  0  0  0  0  0
   12.8040   21.8900   31.6860 C   0  0  0  0  0  0  0  0  0  0  0  0
   14.9290   22.0860   30.2760 C   0  0  0  0  0  0  0  0  0  0  0  0
   14.3770   17.6230   32.6260 N   0  0  0  0  0  0  0  0  0  0  0  0
   13.8710   16.3240   32.1680 C   0  0  2  0  0  0  0  0  0  0  0  0
   12.7860   15.7950   33.0910 C   0  0  0  0  0  0  0  0  0  0  0  0
   11.7080   15.3760   32.6360 O   0  0  0  0  0  0  0  0  0  0  0  0
   15.0170   15.3090   32.0720 C   0  0  0  0  0  0  0  0  0  0  0  0
   13.0740   15.8260   34.3980 N   0  0  0  0  0  0  0  0  0  0  0  0
   12.1240   15.3690   35.4050 C   0  0  0  0  0  0  0  0  0  0  0  0
   18.5375   19.7414   31.8224 H   0  0  0  0  0  0  0  0  0  0  0  0
   20.0025   18.9137   32.2934 H   0  0  0  0  0  0  0  0  0  0  0  0
   19.2682   20.0737   33.3744 H   0  0  0  0  0  0  0  0  0  0  0  0
   19.6876   17.8963   34.6156 H   0  0  0  0  0  0  0  0  0  0  0  0
   17.9369   15.6982   34.3127 H   0  0  0  0  0  0  0  0  0  0  0  0
   19.3306   16.6438   36.8154 H   0  0  0  0  0  0  0  0  0  0  0  0
   19.9987   15.5468   35.6308 H   0  0  0  0  0  0  0  0  0  0  0  0
   18.6144   15.0671   36.5830 H   0  0  0  0  0  0  0  0  0  0  0  0
   17.6884   18.5798   36.3521 H   0  0  0  0  0  0  0  0  0  0  0  0
   15.1557   17.9589   37.4413 H   0  0  0  0  0  0  0  0  0  0  0  0
   16.3951   20.6868   37.0911 H   0  0  0  0  0  0  0  0  0  0  0  0
   16.6073   19.6426   38.4760 H   0  0  0  0  0  0  0  0  0  0  0  0
   15.0332   20.3121   38.1196 H   0  0  0  0  0  0  0  0  0  0  0  0
   16.0278   19.6962   34.4460 H   0  0  0  0  0  0  0  0  0  0  0  0
   13.3853   20.5003   33.8767 H   0  0  0  0  0  0  0  0  0  0  0  0
   15.3340   21.5362   32.8361 H   0  0  0  0  0  0  0  0  0  0  0  0
   15.5764   19.9786   31.9436 H   0  0  0  0  0  0  0  0  0  0  0  0
   13.7575   20.3535   30.5851 H   0  0  0  0  0  0  0  0  0  0  0  0
   13.0797   22.7291   32.2900 H   0  0  0  0  0  0  0  0  0  0  0  0
   12.2223   21.2068   32.2688 H   0  0  0  0  0  0  0  0  0  0  0  0
   12.2272   22.2265   30.8499 H   0  0  0  0  0  0  0  0  0  0  0  0
   15.2662   22.9347   30.8335 H   0  0  0  0  0  0  0  0  0  0  0  0
   14.3433   22.4159   29.4435 H   0  0  0  0  0  0  0  0  0  0  0  0
   15.7740   21.5337   29.9211 H   0  0  0  0  0  0  0  0  0  0  0  0
   15.3437   17.7437   32.7683 H   0  0  0  0  0  0  0  0  0  0  0  0
   13.4430   16.4651   31.1975 H   0  0  0  0  0  0  0  0  0  0  0  0
   15.4479   15.1649   33.0407 H   0  0  0  0  0  0  0  0  0  0  0  0
   15.7642   15.6772   31.4004 H   0  0  0  0  0  0  0  0  0  0  0  0
   14.6383   14.3769   31.7079 H   0  0  0  0  0  0  0  0  0  0  0  0
   13.9513   16.1667   34.6870 H   0  0  0  0  0  0  0  0  0  0  0  0
   11.2287   15.0337   34.9245 H   0  0  0  0  0  0  0  0  0  0  0  0
   11.8920   16.1757   36.0686 H   0  0  0  0  0  0  0  0  0  0  0  0
   12.5541   14.5623   35.9610 H   0  0  0  0  0  0  0  0  0  0  0  0
  1  2  1  0  0  0  0
  1 29  1  0  0  0  0
  1 30  1  0  0  0  0
  1 31  1  0  0  0  0
  2  4  1  0  0  0  0
  3  2  2  0  0  0  0
  4  5  1  0  0  0  0
  4 32  1  0  0  0  0
  5  6  1  0  0  0  0
  5  8  1  0  0  0  0
  5 33  1  6  0  0  0
  6  9  1  0  0  0  0
  7  6  2  0  0  0  0
  8 34  1  0  0  0  0
  8 35  1  0  0  0  0
  8 36  1  0  0  0  0
  9 10  1  0  0  0  0
  9 37  1  0  0  0  0
 10 13  1  0  0  0  0
 10 38  1  1  0  0  0
 11 12  2  0  0  0  0
 11 10  1  0  0  0  0
 13 39  1  0  0  0  0
 13 40  1  0  0  0  0
 13 41  1  0  0  0  0
 14 11  1  0  0  0  0
 14 42  1  0  0  0  0
 15 14  1  0  0  0  0
 15 43  1  1  0  0  0
 16 15  1  0  0  0  0
 17 16  2  0  0  0  0
 18 15  1  0  0  0  0
 18 44  1  0  0  0  0
 18 45  1  0  0  0  0
 19 20  1  0  0  0  0
 19 18  1  0  0  0  0
 19 46  1  0  0  0  0
 20 47  1  0  0  0  0
 20 48  1  0  0  0  0
 20 49  1  0  0  0  0
 21 19  1  0  0  0  0
 21 50  1  0  0  0  0
 21 51  1  0  0  0  0
 21 52  1  0  0  0  0
 22 16  1  0  0  0  0
 22 53  1  0  0  0  0
 23 22  1  0  0  0  0
 23 24  1  0  0  0  0
 23 54  1  6  0  0  0
 24 27  1  0  0  0  0
 25 24  2  0  0  0  0
 26 23  1  0  0  0  0
 26 55  1  0  0  0  0
 26 56  1  0  0  0  0
 26 57  1  0  0  0  0
 27 28  1  0  0  0  0
 27 58  1  0  0  0  0
 28 59  1  0  0  0  0
 28 60  1  0  0  0  0
 28 61  1  0  0  0  0
M  END
>  <MODEL>
       0

$$$$
selected_4mers/AALA/2_noH.pdb
 OpenBabel03042517493D

 61 60  0  0  1  0  0  0  0  0999 V2000
   -1.3460   18.7210   15.5050 C   0  0  0  0  0  0  0  0  0  0  0  0
   -2.6850   19.3880   15.1770 C   0  0  0  0  0  0  0  0  0  0  0  0
   -3.0380   19.5690   13.9920 O   0  0  0  0  0  0  0  0  0  0  0  0
   -3.4450   19.7760   16.2130 N   0  0  0  0  0  0  0  0  0  0  0  0
   -4.7220   20.4570   15.9680 C   0  0  2  0  0  0  0  0  0  0  0  0
   -4.4910   21.8280   15.3600 C   0  0  0  0  0  0  0  0  0  0  0  0
   -5.2620   22.2450   14.4950 O   0  0  0  0  0  0  0  0  0  0  0  0
   -5.5070   20.5320   17.2580 C   0  0  0  0  0  0  0  0  0  0  0  0
   -3.4970   22.5650   15.8180 N   0  0  0  0  0  0  0  0  0  0  0  0
   -3.2190   23.8590   15.2830 C   0  0  2  0  0  0  0  0  0  0  0  0
   -2.8260   23.7860   13.8130 C   0  0  0  0  0  0  0  0  0  0  0  0
   -3.2160   24.6300   13.0080 O   0  0  0  0  0  0  0  0  0  0  0  0
   -2.1410   24.5600   16.0810 C   0  0  0  0  0  0  0  0  0  0  0  0
   -2.0190   22.7570   13.4760 N   0  0  0  0  0  0  0  0  0  0  0  0
   -1.6400   22.5660   12.0850 C   0  0  2  0  0  0  0  0  0  0  0  0
   -2.8520   22.2080   11.2400 C   0  0  0  0  0  0  0  0  0  0  0  0
   -2.9960   22.6690   10.0940 O   0  0  0  0  0  0  0  0  0  0  0  0
   -0.5510   21.4900   11.9860 C   0  0  0  0  0  0  0  0  0  0  0  0
    0.8150   21.9200   12.5130 C   0  0  0  0  0  0  0  0  0  0  0  0
    1.7130   20.7010   12.6670 C   0  0  0  0  0  0  0  0  0  0  0  0
    1.4420   22.9680   11.6070 C   0  0  0  0  0  0  0  0  0  0  0  0
   -3.7410   21.3560   11.7340 N   0  0  0  0  0  0  0  0  0  0  0  0
   -4.9510   21.0370   10.9800 C   0  0  2  0  0  0  0  0  0  0  0  0
   -5.8130   22.3060   10.7700 C   0  0  0  0  0  0  0  0  0  0  0  0
   -6.4160   22.4600    9.7150 O   0  0  0  0  0  0  0  0  0  0  0  0
   -5.7000   19.9280   11.6500 C   0  0  0  0  0  0  0  0  0  0  0  0
   -5.8590   23.1800   11.7640 N   0  0  0  0  0  0  0  0  0  0  0  0
   -6.7260   24.3480   11.6840 C   0  0  0  0  0  0  0  0  0  0  0  0
   -0.8439   18.4630   14.5960 H   0  0  0  0  0  0  0  0  0  0  0  0
   -1.5200   17.8356   16.0801 H   0  0  0  0  0  0  0  0  0  0  0  0
   -0.7386   19.3984   16.0681 H   0  0  0  0  0  0  0  0  0  0  0  0
   -3.1466   19.6042   17.1353 H   0  0  0  0  0  0  0  0  0  0  0  0
   -5.2971   19.8978   15.2598 H   0  0  0  0  0  0  0  0  0  0  0  0
   -4.9499   21.0881   17.9827 H   0  0  0  0  0  0  0  0  0  0  0  0
   -5.6836   19.5429   17.6261 H   0  0  0  0  0  0  0  0  0  0  0  0
   -6.4431   21.0180   17.0781 H   0  0  0  0  0  0  0  0  0  0  0  0
   -2.9340   22.2144   16.5456 H   0  0  0  0  0  0  0  0  0  0  0  0
   -4.1209   24.4301   15.3561 H   0  0  0  0  0  0  0  0  0  0  0  0
   -1.2307   24.0012   16.0185 H   0  0  0  0  0  0  0  0  0  0  0  0
   -2.4452   24.6329   17.1043 H   0  0  0  0  0  0  0  0  0  0  0  0
   -1.9850   25.5415   15.6845 H   0  0  0  0  0  0  0  0  0  0  0  0
   -1.6891   22.1395   14.1682 H   0  0  0  0  0  0  0  0  0  0  0  0
   -1.2437   23.4833   11.7023 H   0  0  0  0  0  0  0  0  0  0  0  0
   -0.4417   21.2192   10.9566 H   0  0  0  0  0  0  0  0  0  0  0  0
   -0.8716   20.6758   12.6018 H   0  0  0  0  0  0  0  0  0  0  0  0
    0.6921   22.3710   13.4755 H   0  0  0  0  0  0  0  0  0  0  0  0
    1.8484   20.2350   11.7134 H   0  0  0  0  0  0  0  0  0  0  0  0
    1.2587   20.0063   13.3422 H   0  0  0  0  0  0  0  0  0  0  0  0
    2.6633   21.0047   13.0537 H   0  0  0  0  0  0  0  0  0  0  0  0
    1.5828   22.5562   10.6295 H   0  0  0  0  0  0  0  0  0  0  0  0
    2.3881   23.2662   12.0081 H   0  0  0  0  0  0  0  0  0  0  0  0
    0.7963   23.8190   11.5459 H   0  0  0  0  0  0  0  0  0  0  0  0
   -3.5848   20.9375   12.6113 H   0  0  0  0  0  0  0  0  0  0  0  0
   -4.6815   20.6875   10.0052 H   0  0  0  0  0  0  0  0  0  0  0  0
   -5.9901   20.2363   12.6327 H   0  0  0  0  0  0  0  0  0  0  0  0
   -5.0725   19.0639   11.7179 H   0  0  0  0  0  0  0  0  0  0  0  0
   -6.5729   19.6909   11.0784 H   0  0  0  0  0  0  0  0  0  0  0  0
   -5.3025   23.0392   12.5638 H   0  0  0  0  0  0  0  0  0  0  0  0
   -7.2522   24.3385   10.7524 H   0  0  0  0  0  0  0  0  0  0  0  0
   -6.1340   25.2368   11.7502 H   0  0  0  0  0  0  0  0  0  0  0  0
   -7.4286   24.3266   12.4907 H   0  0  0  0  0  0  0  0  0  0  0  0
  1 29  1  0  0  0  0
  1 30  1  0  0  0  0
  1 31  1  0  0  0  0
  2  1  1  0  0  0  0
  2  4  1  0  0  0  0
  3  2  2  0  0  0  0
  4 32  1  0  0  0  0
  5  4  1  0  0  0  0
  5  8  1  0  0  0  0
  5 33  1  6  0  0  0
  6  9  1  0  0  0  0
  6  5  1  0  0  0  0
  7  6  2  0  0  0  0
  8 34  1  0  0  0  0
  8 35  1  0  0  0  0
  8 36  1  0  0  0  0
  9 37  1  0  0  0  0
 10  9  1  0  0  0  0
 10 13  1  0  0  0  0
 10 38  1  1  0  0  0
 11 10  1  0  0  0  0
 12 11  2  0  0  0  0
 13 39  1  0  0  0  0
 13 40  1  0  0  0  0
 13 41  1  0  0  0  0
 14 11  1  0  0  0  0
 14 42  1  0  0  0  0
 15 14  1  0  0  0  0
 15 43  1  6  0  0  0
 16 22  1  0  0  0  0
 16 15  1  0  0  0  0
 17 16  2  0  0  0  0
 18 15  1  0  0  0  0
 18 19  1  0  0  0  0
 18 44  1  0  0  0  0
 18 45  1  0  0  0  0
 19 20  1  0  0  0  0
 19 46  1  0  0  0  0
 20 47  1  0  0  0  0
 20 48  1  0  0  0  0
 20 49  1  0  0  0  0
 21 19  1  0  0  0  0
 21 50  1  0  0  0  0
 21 51  1  0  0  0  0
 21 52  1  0  0  0  0
 22 53  1  0  0  0  0
 23 26  1  0  0  0  0
 23 22  1  0  0  0  0
 23 54  1  6  0  0  0
 24 23  1  0  0  0  0
 24 27  1  0  0  0  0
 25 24  2  0  0  0  0
 26 55  1  0  0  0  0
 26 56  1  0  0  0  0
 26 57  1  0  0  0  0
 27 58  1  0  0  0  0
 28 27  1  0  0  0  0
 28 59  1  0  0  0  0
 28 60  1  0  0  0  0
 28 61  1  0  0  0  0
M  END
>  <MODEL>
       0

$$$$
selected_4mers/AALA/3_noH.pdb
 OpenBabel03042517493D

 61 60  0  0  1  0  0  0  0  0999 V2000
   46.4260    8.3500   42.4610 C   0  0  0  0  0  0  0  0  0  0  0  0
   47.8810    8.5520   42.0410 C   0  0  0  0  0  0  0  0  0  0  0  0
   48.6500    7.5930   41.9540 O   0  0  0  0  0  0  0  0  0  0  0  0
   48.2540    9.8030   41.7900 N   0  0  0  0  0  0  0  0  0  0  0  0
   49.6150   10.1340   41.3770 C   0  0  2  0  0  0  0  0  0  0  0  0
   50.6400    9.6560   42.3980 C   0  0  0  0  0  0  0  0  0  0  0  0
   51.7670    9.3050   42.0430 O   0  0  0  0  0  0  0  0  0  0  0  0
   49.7430   11.6390   41.1740 C   0  0  0  0  0  0  0  0  0  0  0  0
   50.2470    9.6440   43.6670 N   0  0  0  0  0  0  0  0  0  0  0  0
   51.1360    9.2080   44.7360 C   0  0  2  0  0  0  0  0  0  0  0  0
   50.7860    7.8000   45.2060 C   0  0  0  0  0  0  0  0  0  0  0  0
   51.3820    7.2870   46.1550 O   0  0  0  0  0  0  0  0  0  0  0  0
   51.0560   10.1800   45.9050 C   0  0  0  0  0  0  0  0  0  0  0  0
   49.8210    7.1720   44.5420 N   0  0  0  0  0  0  0  0  0  0  0  0
   49.4070    5.8300   44.9280 C   0  0  2  0  0  0  0  0  0  0  0  0
   49.3740    4.8160   43.7910 C   0  0  0  0  0  0  0  0  0  0  0  0
   48.3060    4.3120   43.4340 O   0  0  0  0  0  0  0  0  0  0  0  0
   48.0330    5.8790   45.6080 C   0  0  0  0  0  0  0  0  0  0  0  0
   47.9640    6.5840   46.9670 C   0  0  0  0  0  0  0  0  0  0  0  0
   46.5210    6.6410   47.4480 C   0  0  0  0  0  0  0  0  0  0  0  0
   48.8320    5.8420   47.9750 C   0  0  0  0  0  0  0  0  0  0  0  0
   50.5400    4.5200   43.2210 N   0  0  0  0  0  0  0  0  0  0  0  0
   50.6300    3.5230   42.1570 C   0  0  2  0  0  0  0  0  0  0  0  0
   50.0190    2.2710   42.7720 C   0  0  0  0  0  0  0  0  0  0  0  0
   50.3250    1.9240   43.9090 O   0  0  0  0  0  0  0  0  0  0  0  0
   52.0780    3.2780   41.7820 C   0  0  0  0  0  0  0  0  0  0  0  0
   49.1700    1.5840   42.0190 N   0  0  0  0  0  0  0  0  0  0  0  0
   48.4790    0.4220   42.5520 C   0  0  0  0  0  0  0  0  0  0  0  0
   45.9249    9.2953   42.4771 H   0  0  0  0  0  0  0  0  0  0  0  0
   46.3939    7.9126   43.4370 H   0  0  0  0  0  0  0  0  0  0  0  0
   45.9402    7.7006   41.7630 H   0  0  0  0  0  0  0  0  0  0  0  0
   47.5938   10.5271   41.8853 H   0  0  0  0  0  0  0  0  0  0  0  0
   49.8124    9.6304   40.4538 H   0  0  0  0  0  0  0  0  0  0  0  0
   49.5454   12.1416   42.0977 H   0  0  0  0  0  0  0  0  0  0  0  0
   49.0388   11.9604   40.4353 H   0  0  0  0  0  0  0  0  0  0  0  0
   50.7347   11.8716   40.8464 H   0  0  0  0  0  0  0  0  0  0  0  0
   49.3339    9.9365   43.8903 H   0  0  0  0  0  0  0  0  0  0  0  0
   52.1348    9.1918   44.3527 H   0  0  0  0  0  0  0  0  0  0  0  0
   50.0570   10.1958   46.2880 H   0  0  0  0  0  0  0  0  0  0  0  0
   51.3261   11.1606   45.5727 H   0  0  0  0  0  0  0  0  0  0  0  0
   51.7286    9.8668   46.6760 H   0  0  0  0  0  0  0  0  0  0  0  0
   49.3819    7.6181   43.7821 H   0  0  0  0  0  0  0  0  0  0  0  0
   50.1615    5.4869   45.6047 H   0  0  0  0  0  0  0  0  0  0  0  0
   47.7043    4.8705   45.7486 H   0  0  0  0  0  0  0  0  0  0  0  0
   47.4166    6.4623   44.9563 H   0  0  0  0  0  0  0  0  0  0  0  0
   48.3303    7.5843   46.8669 H   0  0  0  0  0  0  0  0  0  0  0  0
   46.1405    5.6465   47.5529 H   0  0  0  0  0  0  0  0  0  0  0  0
   45.9285    7.1763   46.7357 H   0  0  0  0  0  0  0  0  0  0  0  0
   46.4796    7.1403   48.3935 H   0  0  0  0  0  0  0  0  0  0  0  0
   48.4747    4.8393   48.0835 H   0  0  0  0  0  0  0  0  0  0  0  0
   48.7866    6.3410   48.9204 H   0  0  0  0  0  0  0  0  0  0  0  0
   49.8444    5.8245   47.6292 H   0  0  0  0  0  0  0  0  0  0  0  0
   51.3561    4.9811   43.5218 H   0  0  0  0  0  0  0  0  0  0  0  0
   50.1312    3.8282   41.2609 H   0  0  0  0  0  0  0  0  0  0  0  0
   52.6235    2.9686   42.6489 H   0  0  0  0  0  0  0  0  0  0  0  0
   52.5040    4.1804   41.3958 H   0  0  0  0  0  0  0  0  0  0  0  0
   52.1287    2.5121   41.0365 H   0  0  0  0  0  0  0  0  0  0  0  0
   49.0064    1.8642   41.0895 H   0  0  0  0  0  0  0  0  0  0  0  0
   48.7755    0.2657   43.5681 H   0  0  0  0  0  0  0  0  0  0  0  0
   48.7304   -0.4403   41.9705 H   0  0  0  0  0  0  0  0  0  0  0  0
   47.4223    0.5850   42.5099 H   0  0  0  0  0  0  0  0  0  0  0  0
  1 29  1  0  0  0  0
  1 30  1  0  0  0  0
  1 31  1  0  0  0  0
  2  1  1  0  0  0  0
  3  2  2  0  0  0  0
  4  2  1  0  0  0  0
  4 32  1  0  0  0  0
  5  4  1  0  0  0  0
  5  6  1  0  0  0  0
  5 33  1  6  0  0  0
  6  9  1  0  0  0  0
  7  6  2  0  0  0  0
  8  5  1  0  0  0  0
  8 34  1  0  0  0  0
  8 35  1  0  0  0  0
  8 36  1  0  0  0  0
  9 10  1  0  0  0  0
  9 37  1  0  0  0  0
 10 11  1  0  0  0  0
 10 13  1  0  0  0  0
 10 38  1  6  0  0  0
 11 12  2  0  0  0  0
 13 39  1  0  0  0  0
 13 40  1  0  0  0  0
 13 41  1  0  0  0  0
 14 15  1  0  0  0  0
 14 11  1  0  0  0  0
 14 42  1  0  0  0  0
 15 18  1  0  0  0  0
 15 43  1  1  0  0  0
 16 15  1  0  0  0  0
 17 16  2  0  0  0  0
 18 19  1  0  0  0  0
 18 44  1  0  0  0  0
 18 45  1  0  0  0  0
 19 20  1  0  0  0  0
 19 21  1  0  0  0  0
 19 46  1  0  0  0  0
 20 47  1  0  0  0  0
 20 48  1  0  0  0  0
 20 49  1  0  0  0  0
 21 50  1  0  0  0  0
 21 51  1  0  0  0  0
 21 52  1  0  0  0  0
 22 16  1  0  0  0  0
 22 53  1  0  0  0  0
 23 24  1  0  0  0  0
 23 22  1  0  0  0  0
 23 54  1  6  0  0  0
 24 25  2  0  0  0  0
 26 23  1  0  0  0  0
 26 55  1  0  0  0  0
 26 56  1  0  0  0  0
 26 57  1  0  0  0  0
 27 28  1  0  0  0  0
 27 24  1  0  0  0  0
 27 58  1  0  0  0  0
 28 59  1  0  0  0  0
 28 60  1  0  0  0  0
 28 61  1  0  0  0  0
M  END
>  <MODEL>
       0

$$$$
selected_4mers/AALA/4_noH.pdb
 OpenBabel03042517493D

 61 60  0  0  1  0  0  0  0  0999 V2000
   10.1860   28.5030    4.2490 C   0  0  0  0  0  0  0  0  0  0  0  0
    8.6590   28.4540    4.0530 C   0  0  0  0  0  0  0  0  0  0  0  0
    8.1770   28.1470    2.9570 O   0  0  0  0  0  0  0  0  0  0  0  0
    7.9170   28.7660    5.1190 N   0  0  0  0  0  0  0  0  0  0  0  0
    6.4500   28.8030    5.0700 C   0  0  2  0  0  0  0  0  0  0  0  0
    5.9390   29.8080    4.0300 C   0  0  0  0  0  0  0  0  0  0  0  0
    5.0150   29.5200    3.2720 O   0  0  0  0  0  0  0  0  0  0  0  0
    5.8670   29.1120    6.4630 C   0  0  0  0  0  0  0  0  0  0  0  0
    6.5490   30.9830    3.9890 N   0  0  0  0  0  0  0  0  0  0  0  0
    6.1680   31.9990    3.0280 C   0  0  2  0  0  0  0  0  0  0  0  0
    6.5410   31.5560    1.6150 C   0  0  0  0  0  0  0  0  0  0  0  0
    5.7760   31.7380    0.6610 O   0  0  0  0  0  0  0  0  0  0  0  0
    6.8480   33.3040    3.3810 C   0  0  0  0  0  0  0  0  0  0  0  0
    7.6960   30.9070    1.4880 N   0  0  0  0  0  0  0  0  0  0  0  0
    8.1620   30.4510    0.1860 C   0  0  2  0  0  0  0  0  0  0  0  0
    7.2130   29.4280   -0.4570 C   0  0  0  0  0  0  0  0  0  0  0  0
    6.9770   29.4630   -1.6780 O   0  0  0  0  0  0  0  0  0  0  0  0
    9.5560   29.8380    0.3230 C   0  0  0  0  0  0  0  0  0  0  0  0
   10.1610   29.2990   -0.9670 C   0  0  0  0  0  0  0  0  0  0  0  0
   10.2000   30.4250   -2.0220 C   0  0  0  0  0  0  0  0  0  0  0  0
   11.5700   28.7570   -0.7030 C   0  0  0  0  0  0  0  0  0  0  0  0
    6.6900   28.5180    0.3580 N   0  0  0  0  0  0  0  0  0  0  0  0
    5.8780   27.3940   -0.1220 C   0  0  2  0  0  0  0  0  0  0  0  0
    4.7300   27.8250   -1.0270 C   0  0  0  0  0  0  0  0  0  0  0  0
    4.3880   27.1130   -1.9820 O   0  0  0  0  0  0  0  0  0  0  0  0
    5.3130   26.5860    1.0550 C   0  0  0  0  0  0  0  0  0  0  0  0
    4.1200   28.9630   -0.6930 N   0  0  0  0  0  0  0  0  0  0  0  0
    2.9280   29.4570   -1.3890 C   0  0  0  0  0  0  0  0  0  0  0  0
   10.6718   28.2359    3.3338 H   0  0  0  0  0  0  0  0  0  0  0  0
   10.4693   27.8143    5.0174 H   0  0  0  0  0  0  0  0  0  0  0  0
   10.4777   29.4928    4.5320 H   0  0  0  0  0  0  0  0  0  0  0  0
    8.3695   28.9786    5.9671 H   0  0  0  0  0  0  0  0  0  0  0  0
    6.1140   27.8332    4.7675 H   0  0  0  0  0  0  0  0  0  0  0  0
    6.1945   30.0801    6.7800 H   0  0  0  0  0  0  0  0  0  0  0  0
    6.2036   28.3751    7.1620 H   0  0  0  0  0  0  0  0  0  0  0  0
    4.7982   29.0953    6.4141 H   0  0  0  0  0  0  0  0  0  0  0  0
    7.2768   31.1703    4.6249 H   0  0  0  0  0  0  0  0  0  0  0  0
    5.1080   32.1416    3.0602 H   0  0  0  0  0  0  0  0  0  0  0  0
    7.9095   33.1724    3.3518 H   0  0  0  0  0  0  0  0  0  0  0  0
    6.5529   33.6054    4.3644 H   0  0  0  0  0  0  0  0  0  0  0  0
    6.5624   34.0570    2.6765 H   0  0  0  0  0  0  0  0  0  0  0  0
    8.2440   30.7325    2.2870 H   0  0  0  0  0  0  0  0  0  0  0  0
    8.1915   31.3066   -0.4558 H   0  0  0  0  0  0  0  0  0  0  0  0
   10.2121   30.5915    0.7060 H   0  0  0  0  0  0  0  0  0  0  0  0
    9.4454   28.9947    0.9723 H   0  0  0  0  0  0  0  0  0  0  0  0
    9.5583   28.4958   -1.3364 H   0  0  0  0  0  0  0  0  0  0  0  0
   10.8013   31.2325   -1.6597 H   0  0  0  0  0  0  0  0  0  0  0  0
    9.2060   30.7754   -2.2066 H   0  0  0  0  0  0  0  0  0  0  0  0
   10.6198   30.0477   -2.9310 H   0  0  0  0  0  0  0  0  0  0  0  0
   12.1916   29.5450   -0.3320 H   0  0  0  0  0  0  0  0  0  0  0  0
   11.9823   28.3764   -1.6141 H   0  0  0  0  0  0  0  0  0  0  0  0
   11.5199   27.9712    0.0215 H   0  0  0  0  0  0  0  0  0  0  0  0
    6.8543   28.6015    1.3251 H   0  0  0  0  0  0  0  0  0  0  0  0
    6.5388   26.7859   -0.7037 H   0  0  0  0  0  0  0  0  0  0  0  0
    4.6544   27.2042    1.6285 H   0  0  0  0  0  0  0  0  0  0  0  0
    6.1172   26.2498    1.6755 H   0  0  0  0  0  0  0  0  0  0  0  0
    4.7736   25.7409    0.6812 H   0  0  0  0  0  0  0  0  0  0  0  0
    4.4853   29.4933    0.0517 H   0  0  0  0  0  0  0  0  0  0  0  0
    2.6595   28.7724   -2.1663 H   0  0  0  0  0  0  0  0  0  0  0  0
    3.1355   30.4165   -1.8147 H   0  0  0  0  0  0  0  0  0  0  0  0
    2.1190   29.5426   -0.6940 H   0  0  0  0  0  0  0  0  0  0  0  0
  1 29  1  0  0  0  0
  1 30  1  0  0  0  0
  1 31  1  0  0  0  0
  2  1  1  0  0  0  0
  2  4  1  0  0  0  0
  3  2  2  0  0  0  0
  4 32  1  0  0  0  0
  5  4  1  0  0  0  0
  5  8  1  0  0  0  0
  5 33  1  6  0  0  0
  6  5  1  0  0  0  0
  7  6  2  0  0  0  0
  8 34  1  0  0  0  0
  8 35  1  0  0  0  0
  8 36  1  0  0  0  0
  9  6  1  0  0  0  0
  9 37  1  0  0  0  0
 10 13  1  0  0  0  0
 10  9  1  0  0  0  0
 10 38  1  1  0  0  0
 11 10  1  0  0  0  0
 12 11  2  0  0  0  0
 13 39  1  0  0  0  0
 13 40  1  0  0  0  0
 13 41  1  0  0  0  0
 14 11  1  0  0  0  0
 14 42  1  0  0  0  0
 15 18  1  0  0  0  0
 15 14  1  0  0  0  0
 15 43  1  6  0  0  0
 16 15  1  0  0  0  0
 16 22  1  0  0  0  0
 17 16  2  0  0  0  0
 18 44  1  0  0  0  0
 18 45  1  0  0  0  0
 19 21  1  0  0  0  0
 19 18  1  0  0  0  0
 19 46  1  0  0  0  0
 20 19  1  0  0  0  0
 20 47  1  0  0  0  0
 20 48  1  0  0  0  0
 20 49  1  0  0  0  0
 21 50  1  0  0  0  0
 21 51  1  0  0  0  0
 21 52  1  0  0  0  0
 22 53  1  0  0  0  0
 23 22  1  0  0  0  0
 23 26  1  0  0  0  0
 23 54  1  6  0  0  0
 24 27  1  0  0  0  0
 24 23  1  0  0  0  0
 25 24  2  0  0  0  0
 26 55  1  0  0  0  0
 26 56  1  0  0  0  0
 26 57  1  0  0  0  0
 27 58  1  0  0  0  0
 28 27  1  0  0  0  0
 28 59  1  0  0  0  0
 28 60  1  0  0  0  0
 28 61  1  0  0  0  0
M  END
>  <MODEL>
       0

$$$$
