selected_4mers/AALE/100_noH.pdb
 OpenBabel03042517503D

 66 65  0  0  1  0  0  0  0  0999 V2000
    5.2740    7.4190   11.8540 C   0  0  0  0  0  0  0  0  0  0  0  0
    6.2650    6.5980   12.6740 C   0  0  0  0  0  0  0  0  0  0  0  0
    5.8660    5.7600   13.4780 O   0  0  0  0  0  0  0  0  0  0  0  0
    7.5570    6.8410   12.4690 N   0  0  0  0  0  0  0  0  0  0  0  0
    8.5820    6.1250   13.2190 C   0  0  2  0  0  0  0  0  0  0  0  0
    8.4460    6.4640   14.7030 C   0  0  0  0  0  0  0  0  0  0  0  0
    8.5950    5.5970   15.5630 O   0  0  0  0  0  0  0  0  0  0  0  0
    9.9710    6.5040   12.7140 C   0  0  0  0  0  0  0  0  0  0  0  0
    8.1650    7.7300   15.0010 N   0  0  0  0  0  0  0  0  0  0  0  0
    8.0010    8.1590   16.3870 C   0  0  2  0  0  0  0  0  0  0  0  0
    6.7720    7.4790   16.9830 C   0  0  0  0  0  0  0  0  0  0  0  0
    6.7920    7.0230   18.1250 O   0  0  0  0  0  0  0  0  0  0  0  0
    7.8590    9.6760   16.4580 C   0  0  0  0  0  0  0  0  0  0  0  0
    5.7010    7.4100   16.2000 N   0  0  0  0  0  0  0  0  0  0  0  0
    4.4800    6.7650   16.6640 C   0  0  2  0  0  0  0  0  0  0  0  0
    4.7320    5.2800   16.9050 C   0  0  0  0  0  0  0  0  0  0  0  0
    4.2160    4.7040   17.8620 O   0  0  0  0  0  0  0  0  0  0  0  0
    3.3570    6.9440   15.6390 C   0  0  0  0  0  0  0  0  0  0  0  0
    2.7600    8.3490   15.5350 C   0  0  0  0  0  0  0  0  0  0  0  0
    1.7910    8.4160   14.3660 C   0  0  0  0  0  0  0  0  0  0  0  0
    2.0550    8.6980   16.8380 C   0  0  0  0  0  0  0  0  0  0  0  0
    5.5370    4.6680   16.0400 N   0  0  0  0  0  0  0  0  0  0  0  0
    5.8520    3.2500   16.1730 C   0  0  2  0  0  0  0  0  0  0  0  0
    6.5400    2.9850   17.5110 C   0  0  0  0  0  0  0  0  0  0  0  0
    6.2370    2.0090   18.1960 O   0  0  0  0  0  0  0  0  0  0  0  0
    6.7600    2.7940   15.0280 C   0  0  0  0  0  0  0  0  0  0  0  0
    6.8350    1.2790   14.8740 C   0  0  0  0  0  0  0  0  0  0  0  0
    7.8700    0.8350   13.8580 C   0  0  0  0  0  0  0  0  0  0  0  0
    8.2470    1.6490   12.9900 O   0  0  0  0  0  0  0  0  0  0  0  0
    8.2980   -0.3380   13.9220 O   0  0  0  0  0  0  0  0  0  0  0  0
    7.4700    3.8610   17.8800 N   0  0  0  0  0  0  0  0  0  0  0  0
    8.1890    3.7160   19.1410 C   0  0  0  0  0  0  0  0  0  0  0  0
    5.8093    8.0901   11.2152 H   0  0  0  0  0  0  0  0  0  0  0  0
    4.6442    7.9797   12.5127 H   0  0  0  0  0  0  0  0  0  0  0  0
    4.6736    6.7629   11.2591 H   0  0  0  0  0  0  0  0  0  0  0  0
    7.8246    7.5136   11.8017 H   0  0  0  0  0  0  0  0  0  0  0  0
    8.4523    5.0718   13.0814 H   0  0  0  0  0  0  0  0  0  0  0  0
   10.1225    7.5554   12.8423 H   0  0  0  0  0  0  0  0  0  0  0  0
   10.0533    6.2558   11.6765 H   0  0  0  0  0  0  0  0  0  0  0  0
   10.7112    5.9666   13.2691 H   0  0  0  0  0  0  0  0  0  0  0  0
    8.0661    8.3880   14.2754 H   0  0  0  0  0  0  0  0  0  0  0  0
    8.8662    7.8783   16.9505 H   0  0  0  0  0  0  0  0  0  0  0  0
    6.9981    9.9801   15.9001 H   0  0  0  0  0  0  0  0  0  0  0  0
    8.7324   10.1357   16.0449 H   0  0  0  0  0  0  0  0  0  0  0  0
    7.7468    9.9763   17.4788 H   0  0  0  0  0  0  0  0  0  0  0  0
    5.7328    7.7991   15.2962 H   0  0  0  0  0  0  0  0  0  0  0  0
    4.1811    7.2234   17.5835 H   0  0  0  0  0  0  0  0  0  0  0  0
    3.7468    6.6822   14.6775 H   0  0  0  0  0  0  0  0  0  0  0  0
    2.5583    6.3158   15.9742 H   0  0  0  0  0  0  0  0  0  0  0  0
    3.5422    9.0589   15.3645 H   0  0  0  0  0  0  0  0  0  0  0  0
    0.9997    7.7120   14.5179 H   0  0  0  0  0  0  0  0  0  0  0  0
    2.3087    8.1806   13.4597 H   0  0  0  0  0  0  0  0  0  0  0  0
    1.3824    9.4026   14.2975 H   0  0  0  0  0  0  0  0  0  0  0  0
    1.2700    7.9937   17.0185 H   0  0  0  0  0  0  0  0  0  0  0  0
    1.6417    9.6824   16.7673 H   0  0  0  0  0  0  0  0  0  0  0  0
    2.7577    8.6633   17.6441 H   0  0  0  0  0  0  0  0  0  0  0  0
    5.9272    5.1819   15.2964 H   0  0  0  0  0  0  0  0  0  0  0  0
    4.9372    2.6964   16.1324 H   0  0  0  0  0  0  0  0  0  0  0  0
    6.3869    3.2087   14.1149 H   0  0  0  0  0  0  0  0  0  0  0  0
    7.7481    3.1352   15.2565 H   0  0  0  0  0  0  0  0  0  0  0  0
    7.0843    0.8521   15.8230 H   0  0  0  0  0  0  0  0  0  0  0  0
    5.8804    0.9462   14.5235 H   0  0  0  0  0  0  0  0  0  0  0  0
    7.6773    4.6220   17.2908 H   0  0  0  0  0  0  0  0  0  0  0  0
    7.8413    2.8422   19.6514 H   0  0  0  0  0  0  0  0  0  0  0  0
    8.0163    4.5778   19.7512 H   0  0  0  0  0  0  0  0  0  0  0  0
    9.2367    3.6216   18.9454 H   0  0  0  0  0  0  0  0  0  0  0  0
  1  2  1  0  0  0  0
  1 33  1  0  0  0  0
  1 34  1  0  0  0  0
  1 35  1  0  0  0  0
  2  3  2  0  0  0  0
  4  2  1  0  0  0  0
  4  5  1  0  0  0  0
  4 36  1  0  0  0  0
  5  6  1  0  0  0  0
  5 37  1  6  0  0  0
  6  9  1  0  0  0  0
  6  7  2  0  0  0  0
  8  5  1  0  0  0  0
  8 38  1  0  0  0  0
  8 39  1  0  0  0  0
  8 40  1  0  0  0  0
  9 10  1  0  0  0  0
  9 41  1  0  0  0  0
 10 13  1  0  0  0  0
 10 11  1  0  0  0  0
 10 42  1  1  0  0  0
 11 12  2  0  0  0  0
 13 43  1  0  0  0  0
 13 44  1  0  0  0  0
 13 45  1  0  0  0  0
 14 15  1  0  0  0  0
 14 11  1  0  0  0  0
 14 46  1  0  0  0  0
 15 16  1  0  0  0  0
 15 47  1  1  0  0  0
 16 17  2  0  0  0  0
 18 15  1  0  0  0  0
 18 48  1  0  0  0  0
 18 49  1  0  0  0  0
 19 18  1  0  0  0  0
 19 21  1  0  0  0  0
 19 50  1  0  0  0  0
 20 19  1  0  0  0  0
 20 51  1  0  0  0  0
 20 52  1  0  0  0  0
 20 53  1  0  0  0  0
 21 54  1  0  0  0  0
 21 55  1  0  0  0  0
 21 56  1  0  0  0  0
 22 23  1  0  0  0  0
 22 16  1  0  0  0  0
 22 57  1  0  0  0  0
 23 24  1  0  0  0  0
 23 58  1  6  0  0  0
 24 31  1  0  0  0  0
 24 25  2  0  0  0  0
 26 23  1  0  0  0  0
 26 59  1  0  0  0  0
 26 60  1  0  0  0  0
 27 26  1  0  0  0  0
 27 61  1  0  0  0  0
 27 62  1  0  0  0  0
 28 30  1  0  0  0  0
 28 27  1  0  0  0  0
 29 28  2  0  0  0  0
 31 32  1  0  0  0  0
 31 63  1  0  0  0  0
 32 64  1  0  0  0  0
 32 65  1  0  0  0  0
 32 66  1  0  0  0  0
M  CHG  1  30  -1
M  END
>  <MODEL>
       0

$$$$
selected_4mers/AALE/101_noH.pdb
 OpenBabel03042517503D

 66 65  0  0  1  0  0  0  0  0999 V2000
  -11.0310   40.7860    8.7850 C   0  0  0  0  0  0  0  0  0  0  0  0
  -11.7490   41.8280    7.9340 C   0  0  0  0  0  0  0  0  0  0  0  0
  -12.5080   41.4610    7.0240 O   0  0  0  0  0  0  0  0  0  0  0  0
  -11.4950   43.1070    8.2050 N   0  0  0  0  0  0  0  0  0  0  0  0
  -12.1420   44.1920    7.4600 C   0  0  2  0  0  0  0  0  0  0  0  0
  -11.2050   45.3700    7.2400 C   0  0  0  0  0  0  0  0  0  0  0  0
  -10.3520   45.6680    8.0890 O   0  0  0  0  0  0  0  0  0  0  0  0
  -13.4070   44.6710    8.1790 C   0  0  0  0  0  0  0  0  0  0  0  0
  -11.4260   46.0840    6.1350 N   0  0  0  0  0  0  0  0  0  0  0  0
  -10.4650   47.0810    5.6860 C   0  0  2  0  0  0  0  0  0  0  0  0
  -11.0950   48.4440    5.3630 C   0  0  0  0  0  0  0  0  0  0  0  0
  -12.3260   48.5640    5.1960 O   0  0  0  0  0  0  0  0  0  0  0  0
   -9.6660   46.5380    4.4920 C   0  0  0  0  0  0  0  0  0  0  0  0
  -10.2320   49.4550    5.2680 N   0  0  0  0  0  0  0  0  0  0  0  0
  -10.6480   50.8590    5.1330 C   0  0  2  0  0  0  0  0  0  0  0  0
  -11.0080   51.2430    3.6850 C   0  0  0  0  0  0  0  0  0  0  0  0
  -11.2840   50.3770    2.8760 O   0  0  0  0  0  0  0  0  0  0  0  0
   -9.6030   51.7970    5.7530 C   0  0  0  0  0  0  0  0  0  0  0  0
   -9.3130   51.5500    7.2530 C   0  0  0  0  0  0  0  0  0  0  0  0
   -8.2660   52.5840    7.7340 C   0  0  0  0  0  0  0  0  0  0  0  0
  -10.6060   51.6190    8.0640 C   0  0  0  0  0  0  0  0  0  0  0  0
  -10.9870   52.5390    3.3760 N   0  0  0  0  0  0  0  0  0  0  0  0
  -11.7350   53.0930    2.2360 C   0  0  2  0  0  0  0  0  0  0  0  0
  -11.3930   52.5140    0.8510 C   0  0  0  0  0  0  0  0  0  0  0  0
  -12.2750   52.3890   -0.0240 O   0  0  0  0  0  0  0  0  0  0  0  0
  -11.6220   54.6240    2.2410 C   0  0  0  0  0  0  0  0  0  0  0  0
  -12.5540   55.3410    1.2730 C   0  0  0  0  0  0  0  0  0  0  0  0
  -14.0090   55.3360    1.7300 C   0  0  0  0  0  0  0  0  0  0  0  0
  -14.2670   55.1880    2.9500 O   0  0  0  0  0  0  0  0  0  0  0  0
  -14.8900   55.5160    0.8610 O   0  0  0  0  0  0  0  0  0  0  0  0
  -10.1350   52.1540    0.6440 N   0  0  0  0  0  0  0  0  0  0  0  0
   -9.7230   51.6310   -0.6660 C   0  0  0  0  0  0  0  0  0  0  0  0
  -11.3201   39.8058    8.4679 H   0  0  0  0  0  0  0  0  0  0  0  0
  -11.2959   40.9209    9.8129 H   0  0  0  0  0  0  0  0  0  0  0  0
   -9.9732   40.9001    8.6714 H   0  0  0  0  0  0  0  0  0  0  0  0
  -10.8581   43.3293    8.9221 H   0  0  0  0  0  0  0  0  0  0  0  0
  -12.4078   43.7931    6.5034 H   0  0  0  0  0  0  0  0  0  0  0  0
  -13.1437   45.0704    9.1361 H   0  0  0  0  0  0  0  0  0  0  0  0
  -14.0773   43.8471    8.3085 H   0  0  0  0  0  0  0  0  0  0  0  0
  -13.8836   45.4301    7.5946 H   0  0  0  0  0  0  0  0  0  0  0  0
  -12.2495   45.9347    5.6166 H   0  0  0  0  0  0  0  0  0  0  0  0
   -9.8014   47.2631    6.5054 H   0  0  0  0  0  0  0  0  0  0  0  0
  -10.3292   46.3557    3.6723 H   0  0  0  0  0  0  0  0  0  0  0  0
   -9.1843   45.6242    4.7711 H   0  0  0  0  0  0  0  0  0  0  0  0
   -8.9279   47.2558    4.2007 H   0  0  0  0  0  0  0  0  0  0  0  0
   -9.2689   49.2520    5.2892 H   0  0  0  0  0  0  0  0  0  0  0  0
  -11.5566   50.9765    5.6858 H   0  0  0  0  0  0  0  0  0  0  0  0
   -9.9523   52.8024    5.6433 H   0  0  0  0  0  0  0  0  0  0  0  0
   -8.6859   51.6080    5.2353 H   0  0  0  0  0  0  0  0  0  0  0  0
   -8.9112   50.5688    7.3966 H   0  0  0  0  0  0  0  0  0  0  0  0
   -8.6521   53.5725    7.5974 H   0  0  0  0  0  0  0  0  0  0  0  0
   -7.3661   52.4709    7.1663 H   0  0  0  0  0  0  0  0  0  0  0  0
   -8.0561   52.4232    8.7708 H   0  0  0  0  0  0  0  0  0  0  0  0
  -11.0467   52.5874    7.9509 H   0  0  0  0  0  0  0  0  0  0  0  0
  -10.3888   51.4444    9.0971 H   0  0  0  0  0  0  0  0  0  0  0  0
  -11.2880   50.8735    7.7120 H   0  0  0  0  0  0  0  0  0  0  0  0
  -10.4505   53.1494    3.9317 H   0  0  0  0  0  0  0  0  0  0  0  0
  -12.7480   52.7846    2.3894 H   0  0  0  0  0  0  0  0  0  0  0  0
  -11.8404   54.9698    3.2298 H   0  0  0  0  0  0  0  0  0  0  0  0
  -10.6264   54.8516    1.9218 H   0  0  0  0  0  0  0  0  0  0  0  0
  -12.2304   56.3564    1.1775 H   0  0  0  0  0  0  0  0  0  0  0  0
  -12.5103   54.8176    0.3408 H   0  0  0  0  0  0  0  0  0  0  0  0
   -9.4747   52.2370    1.3695 H   0  0  0  0  0  0  0  0  0  0  0  0
  -10.5665   51.6125   -1.3240 H   0  0  0  0  0  0  0  0  0  0  0  0
   -9.3398   50.6388   -0.5494 H   0  0  0  0  0  0  0  0  0  0  0  0
   -8.9627   52.2608   -1.0784 H   0  0  0  0  0  0  0  0  0  0  0  0
  1  2  1  0  0  0  0
  1 33  1  0  0  0  0
  1 34  1  0  0  0  0
  1 35  1  0  0  0  0
  2  3  2  0  0  0  0
  4  2  1  0  0  0  0
  4  5  1  0  0  0  0
  4 36  1  0  0  0  0
  5  6  1  0  0  0  0
  5 37  1  6  0  0  0
  6  9  1  0  0  0  0
  6  7  2  0  0  0  0
  8  5  1  0  0  0  0
  8 38  1  0  0  0  0
  8 39  1  0  0  0  0
  8 40  1  0  0  0  0
  9 10  1  0  0  0  0
  9 41  1  0  0  0  0
 10 13  1  0  0  0  0
 10 11  1  0  0  0  0
 10 42  1  1  0  0  0
 11 12  2  0  0  0  0
 13 43  1  0  0  0  0
 13 44  1  0  0  0  0
 13 45  1  0  0  0  0
 14 15  1  0  0  0  0
 14 11  1  0  0  0  0
 14 46  1  0  0  0  0
 15 16  1  0  0  0  0
 15 47  1  1  0  0  0
 16 17  2  0  0  0  0
 18 15  1  0  0  0  0
 18 48  1  0  0  0  0
 18 49  1  0  0  0  0
 19 18  1  0  0  0  0
 19 21  1  0  0  0  0
 19 50  1  0  0  0  0
 20 19  1  0  0  0  0
 20 51  1  0  0  0  0
 20 52  1  0  0  0  0
 20 53  1  0  0  0  0
 21 54  1  0  0  0  0
 21 55  1  0  0  0  0
 21 56  1  0  0  0  0
 22 23  1  0  0  0  0
 22 16  1  0  0  0  0
 22 57  1  0  0  0  0
 23 24  1  0  0  0  0
 23 58  1  6  0  0  0
 24 31  1  0  0  0  0
 24 25  2  0  0  0  0
 26 23  1  0  0  0  0
 26 59  1  0  0  0  0
 26 60  1  0  0  0  0
 27 26  1  0  0  0  0
 27 61  1  0  0  0  0
 27 62  1  0  0  0  0
 28 30  1  0  0  0  0
 28 27  1  0  0  0  0
 29 28  2  0  0  0  0
 31 32  1  0  0  0  0
 31 63  1  0  0  0  0
 32 64  1  0  0  0  0
 32 65  1  0  0  0  0
 32 66  1  0  0  0  0
M  CHG  1  30  -1
M  END
>  <MODEL>
       0

$$$$
selected_4mers/AALE/102_noH.pdb
 OpenBabel03042517503D

 66 65  0  0  1  0  0  0  0  0999 V2000
   -2.0680   39.8370   -3.5830 C   0  0  0  0  0  0  0  0  0  0  0  0
   -1.5870   41.2820   -3.8010 C   0  0  0  0  0  0  0  0  0  0  0  0
   -0.4100   41.5760   -3.6330 O   0  0  0  0  0  0  0  0  0  0  0  0
   -2.5100   42.1570   -4.1280 N   0  0  0  0  0  0  0  0  0  0  0  0
   -2.2230   43.5870   -4.0460 C   0  0  2  0  0  0  0  0  0  0  0  0
   -1.9230   43.9550   -2.5970 C   0  0  0  0  0  0  0  0  0  0  0  0
   -2.6500   43.5680   -1.6870 O   0  0  0  0  0  0  0  0  0  0  0  0
   -3.3890   44.3960   -4.5510 C   0  0  0  0  0  0  0  0  0  0  0  0
   -0.8750   44.7140   -2.3830 N   0  0  0  0  0  0  0  0  0  0  0  0
   -0.5290   45.1000   -1.0210 C   0  0  2  0  0  0  0  0  0  0  0  0
   -1.5890   46.0230   -0.4540 C   0  0  0  0  0  0  0  0  0  0  0  0
   -2.2710   46.7550   -1.2090 O   0  0  0  0  0  0  0  0  0  0  0  0
    0.7960   45.7880   -0.9800 C   0  0  0  0  0  0  0  0  0  0  0  0
   -1.7130   46.0330    0.8630 N   0  0  0  0  0  0  0  0  0  0  0  0
   -2.6400   46.9010    1.5720 C   0  0  2  0  0  0  0  0  0  0  0  0
   -1.9100   47.8520    2.4680 C   0  0  0  0  0  0  0  0  0  0  0  0
   -1.1320   47.4320    3.3010 O   0  0  0  0  0  0  0  0  0  0  0  0
   -3.5370   46.1380    2.5140 C   0  0  0  0  0  0  0  0  0  0  0  0
   -4.7470   45.4460    1.9440 C   0  0  0  0  0  0  0  0  0  0  0  0
   -5.5300   44.8620    3.1210 C   0  0  0  0  0  0  0  0  0  0  0  0
   -5.6410   46.3620    1.1600 C   0  0  0  0  0  0  0  0  0  0  0  0
   -2.2140   49.1300    2.3240 N   0  0  0  0  0  0  0  0  0  0  0  0
   -1.8720   50.1250    3.3320 C   0  0  2  0  0  0  0  0  0  0  0  0
   -2.9410   50.1080    4.4230 C   0  0  0  0  0  0  0  0  0  0  0  0
   -4.1490   49.9570    4.1540 O   0  0  0  0  0  0  0  0  0  0  0  0
   -1.7450   51.4890    2.6790 C   0  0  0  0  0  0  0  0  0  0  0  0
   -0.5470   51.5570    1.7440 C   0  0  0  0  0  0  0  0  0  0  0  0
   -0.6890   52.5830    0.6260 C   0  0  0  0  0  0  0  0  0  0  0  0
   -1.3560   53.6230    0.8350 O   0  0  0  0  0  0  0  0  0  0  0  0
   -0.1120   52.3530   -0.4650 O   0  0  0  0  0  0  0  0  0  0  0  0
   -2.4830   50.2100    5.6590 N   0  0  0  0  0  0  0  0  0  0  0  0
   -3.3340   50.2990    6.8250 C   0  0  0  0  0  0  0  0  0  0  0  0
   -3.1186   39.7777   -3.7769 H   0  0  0  0  0  0  0  0  0  0  0  0
   -1.8750   39.5456   -2.5717 H   0  0  0  0  0  0  0  0  0  0  0  0
   -1.5450   39.1827   -4.2488 H   0  0  0  0  0  0  0  0  0  0  0  0
   -3.3956   41.8492   -4.4285 H   0  0  0  0  0  0  0  0  0  0  0  0
   -1.3741   43.8070   -4.6591 H   0  0  0  0  0  0  0  0  0  0  0  0
   -4.2513   44.1917   -3.9513 H   0  0  0  0  0  0  0  0  0  0  0  0
   -3.5916   44.1331   -5.5682 H   0  0  0  0  0  0  0  0  0  0  0  0
   -3.1524   45.4379   -4.4922 H   0  0  0  0  0  0  0  0  0  0  0  0
   -0.3246   45.0216   -3.1391 H   0  0  0  0  0  0  0  0  0  0  0  0
   -0.4740   44.2091   -0.4309 H   0  0  0  0  0  0  0  0  0  0  0  0
    0.7524   46.6813   -1.5674 H   0  0  0  0  0  0  0  0  0  0  0  0
    1.5480   45.1375   -1.3753 H   0  0  0  0  0  0  0  0  0  0  0  0
    1.0368   46.0381    0.0321 H   0  0  0  0  0  0  0  0  0  0  0  0
   -1.1491   45.4218    1.3900 H   0  0  0  0  0  0  0  0  0  0  0  0
   -3.1961   47.3911    0.8003 H   0  0  0  0  0  0  0  0  0  0  0  0
   -3.8861   46.8314    3.2504 H   0  0  0  0  0  0  0  0  0  0  0  0
   -2.9225   45.3403    2.8758 H   0  0  0  0  0  0  0  0  0  0  0  0
   -4.4145   44.6936    1.2597 H   0  0  0  0  0  0  0  0  0  0  0  0
   -5.8380   45.6532    3.7722 H   0  0  0  0  0  0  0  0  0  0  0  0
   -4.9073   44.1787    3.6597 H   0  0  0  0  0  0  0  0  0  0  0  0
   -6.3925   44.3456    2.7545 H   0  0  0  0  0  0  0  0  0  0  0  0
   -6.0046   47.1389    1.7996 H   0  0  0  0  0  0  0  0  0  0  0  0
   -6.4673   45.8056    0.7693 H   0  0  0  0  0  0  0  0  0  0  0  0
   -5.0884   46.7944    0.3522 H   0  0  0  0  0  0  0  0  0  0  0  0
   -2.6864   49.4189    1.5100 H   0  0  0  0  0  0  0  0  0  0  0  0
   -0.9291   49.8980    3.7840 H   0  0  0  0  0  0  0  0  0  0  0  0
   -2.6341   51.6889    2.1182 H   0  0  0  0  0  0  0  0  0  0  0  0
   -1.6065   52.2165    3.4513 H   0  0  0  0  0  0  0  0  0  0  0  0
    0.3173   51.8078    2.3227 H   0  0  0  0  0  0  0  0  0  0  0  0
   -0.4660   50.5985    1.2753 H   0  0  0  0  0  0  0  0  0  0  0  0
   -1.5078   50.2263    5.7932 H   0  0  0  0  0  0  0  0  0  0  0  0
   -4.3595   50.2688    6.5212 H   0  0  0  0  0  0  0  0  0  0  0  0
   -3.1409   51.2179    7.3382 H   0  0  0  0  0  0  0  0  0  0  0  0
   -3.1311   49.4762    7.4783 H   0  0  0  0  0  0  0  0  0  0  0  0
  1  2  1  0  0  0  0
  1 33  1  0  0  0  0
  1 34  1  0  0  0  0
  1 35  1  0  0  0  0
  2  3  2  0  0  0  0
  4  2  1  0  0  0  0
  4  5  1  0  0  0  0
  4 36  1  0  0  0  0
  5  6  1  0  0  0  0
  5 37  1  6  0  0  0
  6  9  1  0  0  0  0
  6  7  2  0  0  0  0
  8  5  1  0  0  0  0
  8 38  1  0  0  0  0
  8 39  1  0  0  0  0
  8 40  1  0  0  0  0
  9 10  1  0  0  0  0
  9 41  1  0  0  0  0
 10 13  1  0  0  0  0
 10 11  1  0  0  0  0
 10 42  1  1  0  0  0
 11 12  2  0  0  0  0
 13 43  1  0  0  0  0
 13 44  1  0  0  0  0
 13 45  1  0  0  0  0
 14 15  1  0  0  0  0
 14 11  1  0  0  0  0
 14 46  1  0  0  0  0
 15 16  1  0  0  0  0
 15 47  1  1  0  0  0
 16 17  2  0  0  0  0
 18 15  1  0  0  0  0
 18 48  1  0  0  0  0
 18 49  1  0  0  0  0
 19 18  1  0  0  0  0
 19 21  1  0  0  0  0
 19 50  1  0  0  0  0
 20 19  1  0  0  0  0
 20 51  1  0  0  0  0
 20 52  1  0  0  0  0
 20 53  1  0  0  0  0
 21 54  1  0  0  0  0
 21 55  1  0  0  0  0
 21 56  1  0  0  0  0
 22 23  1  0  0  0  0
 22 16  1  0  0  0  0
 22 57  1  0  0  0  0
 23 24  1  0  0  0  0
 23 58  1  6  0  0  0
 24 31  1  0  0  0  0
 24 25  2  0  0  0  0
 26 23  1  0  0  0  0
 26 59  1  0  0  0  0
 26 60  1  0  0  0  0
 27 26  1  0  0  0  0
 27 61  1  0  0  0  0
 27 62  1  0  0  0  0
 28 30  1  0  0  0  0
 28 27  1  0  0  0  0
 29 28  2  0  0  0  0
 31 32  1  0  0  0  0
 31 63  1  0  0  0  0
 32 64  1  0  0  0  0
 32 65  1  0  0  0  0
 32 66  1  0  0  0  0
M  CHG  1  30  -1
M  END
>  <MODEL>
       0

$$$$
selected_4mers/AALE/103_noH.pdb
 OpenBabel03042517503D

 66 65  0  0  1  0  0  0  0  0999 V2000
    5.4300   -5.6050   38.2660 C   0  0  0  0  0  0  0  0  0  0  0  0
    6.1080   -6.9620   38.0060 C   0  0  0  0  0  0  0  0  0  0  0  0
    6.6710   -7.5740   38.9260 O   0  0  0  0  0  0  0  0  0  0  0  0
    6.0520   -7.4280   36.7610 N   0  0  0  0  0  0  0  0  0  0  0  0
    6.7640   -8.6340   36.3580 C   0  0  2  0  0  0  0  0  0  0  0  0
    8.2770   -8.4780   36.5030 C   0  0  0  0  0  0  0  0  0  0  0  0
    8.9370   -9.3860   37.0090 O   0  0  0  0  0  0  0  0  0  0  0  0
    6.4030   -9.0610   34.9350 C   0  0  0  0  0  0  0  0  0  0  0  0
    8.8350   -7.3470   36.0860 N   0  0  0  0  0  0  0  0  0  0  0  0
   10.2950   -7.1890   36.1390 C   0  0  2  0  0  0  0  0  0  0  0  0
   10.7850   -7.0860   37.5950 C   0  0  0  0  0  0  0  0  0  0  0  0
   11.9270   -7.4590   37.9040 O   0  0  0  0  0  0  0  0  0  0  0  0
   10.7460   -5.9800   35.3290 C   0  0  0  0  0  0  0  0  0  0  0  0
    9.9100   -6.5810   38.4650 N   0  0  0  0  0  0  0  0  0  0  0  0
   10.1620   -6.4980   39.9070 C   0  0  2  0  0  0  0  0  0  0  0  0
    9.8540   -7.7850   40.6990 C   0  0  0  0  0  0  0  0  0  0  0  0
   10.0450   -7.7960   41.9050 O   0  0  0  0  0  0  0  0  0  0  0  0
    9.3620   -5.3410   40.5180 C   0  0  0  0  0  0  0  0  0  0  0  0
    9.7760   -3.9360   40.0830 C   0  0  0  0  0  0  0  0  0  0  0  0
    8.8230   -2.8810   40.6610 C   0  0  0  0  0  0  0  0  0  0  0  0
   11.2320   -3.6640   40.4800 C   0  0  0  0  0  0  0  0  0  0  0  0
    9.3780   -8.8470   40.0470 N   0  0  0  0  0  0  0  0  0  0  0  0
    9.2240  -10.1520   40.7300 C   0  0  2  0  0  0  0  0  0  0  0  0
   10.6070  -10.6300   41.1630 C   0  0  0  0  0  0  0  0  0  0  0  0
   11.5020  -10.7740   40.3220 O   0  0  0  0  0  0  0  0  0  0  0  0
    8.5920  -11.2020   39.8240 C   0  0  0  0  0  0  0  0  0  0  0  0
    7.0820  -11.0910   39.6900 C   0  0  0  0  0  0  0  0  0  0  0  0
    6.5660  -11.6960   38.3840 C   0  0  0  0  0  0  0  0  0  0  0  0
    7.3990  -12.1690   37.5720 O   0  0  0  0  0  0  0  0  0  0  0  0
    5.3270  -11.6660   38.1540 O   0  0  0  0  0  0  0  0  0  0  0  0
   10.7740  -10.8410   42.4710 N   0  0  0  0  0  0  0  0  0  0  0  0
   12.0520  -11.2920   43.0350 C   0  0  0  0  0  0  0  0  0  0  0  0
    5.0039   -5.2389   37.3553 H   0  0  0  0  0  0  0  0  0  0  0  0
    6.1563   -4.9066   38.6260 H   0  0  0  0  0  0  0  0  0  0  0  0
    4.6585   -5.7261   38.9974 H   0  0  0  0  0  0  0  0  0  0  0  0
    5.5143   -6.9443   36.0930 H   0  0  0  0  0  0  0  0  0  0  0  0
    6.4476   -9.4090   37.0245 H   0  0  0  0  0  0  0  0  0  0  0  0
    6.7093   -8.3016   34.2462 H   0  0  0  0  0  0  0  0  0  0  0  0
    5.3448   -9.2023   34.8626 H   0  0  0  0  0  0  0  0  0  0  0  0
    6.9022   -9.9779   34.7003 H   0  0  0  0  0  0  0  0  0  0  0  0
    8.2718   -6.6163   35.7423 H   0  0  0  0  0  0  0  0  0  0  0  0
   10.7343   -8.0610   35.7013 H   0  0  0  0  0  0  0  0  0  0  0  0
   10.3197   -5.0918   35.7465 H   0  0  0  0  0  0  0  0  0  0  0  0
   10.4216   -6.0888   34.3152 H   0  0  0  0  0  0  0  0  0  0  0  0
   11.8134   -5.9103   35.3564 H   0  0  0  0  0  0  0  0  0  0  0  0
    9.0502   -6.2465   38.1214 H   0  0  0  0  0  0  0  0  0  0  0  0
   11.2164   -6.3367   39.9915 H   0  0  0  0  0  0  0  0  0  0  0  0
    9.4648   -5.3978   41.5815 H   0  0  0  0  0  0  0  0  0  0  0  0
    8.3591   -5.4674   40.1672 H   0  0  0  0  0  0  0  0  0  0  0  0
    9.7093   -3.8726   39.0170 H   0  0  0  0  0  0  0  0  0  0  0  0
    8.8613   -2.9131   41.7298 H   0  0  0  0  0  0  0  0  0  0  0  0
    7.8248   -3.0844   40.3336 H   0  0  0  0  0  0  0  0  0  0  0  0
    9.1184   -1.9099   40.3225 H   0  0  0  0  0  0  0  0  0  0  0  0
   11.3282   -3.7212   41.5441 H   0  0  0  0  0  0  0  0  0  0  0  0
   11.5156   -2.6871   40.1482 H   0  0  0  0  0  0  0  0  0  0  0  0
   11.8682   -4.3940   40.0247 H   0  0  0  0  0  0  0  0  0  0  0  0
    9.1257   -8.7621   39.0992 H   0  0  0  0  0  0  0  0  0  0  0  0
    8.5753  -10.0202   41.5707 H   0  0  0  0  0  0  0  0  0  0  0  0
    9.0222  -11.1051   38.8491 H   0  0  0  0  0  0  0  0  0  0  0  0
    8.7889  -12.1521   40.2751 H   0  0  0  0  0  0  0  0  0  0  0  0
    6.6257  -11.6045   40.5103 H   0  0  0  0  0  0  0  0  0  0  0  0
    6.8304  -10.0510   39.6892 H   0  0  0  0  0  0  0  0  0  0  0  0
   10.0139  -10.6889   43.0779 H   0  0  0  0  0  0  0  0  0  0  0  0
   12.7677  -11.4087   42.2482 H   0  0  0  0  0  0  0  0  0  0  0  0
   11.9117  -12.2294   43.5315 H   0  0  0  0  0  0  0  0  0  0  0  0
   12.4081  -10.5666   43.7364 H   0  0  0  0  0  0  0  0  0  0  0  0
  1  2  1  0  0  0  0
  1 33  1  0  0  0  0
  1 34  1  0  0  0  0
  1 35  1  0  0  0  0
  2  3  2  0  0  0  0
  4  2  1  0  0  0  0
  4  5  1  0  0  0  0
  4 36  1  0  0  0  0
  5  6  1  0  0  0  0
  5 37  1  6  0  0  0
  6  9  1  0  0  0  0
  6  7  2  0  0  0  0
  8  5  1  0  0  0  0
  8 38  1  0  0  0  0
  8 39  1  0  0  0  0
  8 40  1  0  0  0  0
  9 10  1  0  0  0  0
  9 41  1  0  0  0  0
 10 13  1  0  0  0  0
 10 11  1  0  0  0  0
 10 42  1  1  0  0  0
 11 12  2  0  0  0  0
 13 43  1  0  0  0  0
 13 44  1  0  0  0  0
 13 45  1  0  0  0  0
 14 15  1  0  0  0  0
 14 11  1  0  0  0  0
 14 46  1  0  0  0  0
 15 16  1  0  0  0  0
 15 47  1  1  0  0  0
 16 17  2  0  0  0  0
 18 15  1  0  0  0  0
 18 48  1  0  0  0  0
 18 49  1  0  0  0  0
 19 18  1  0  0  0  0
 19 21  1  0  0  0  0
 19 50  1  0  0  0  0
 20 19  1  0  0  0  0
 20 51  1  0  0  0  0
 20 52  1  0  0  0  0
 20 53  1  0  0  0  0
 21 54  1  0  0  0  0
 21 55  1  0  0  0  0
 21 56  1  0  0  0  0
 22 23  1  0  0  0  0
 22 16  1  0  0  0  0
 22 57  1  0  0  0  0
 23 24  1  0  0  0  0
 23 58  1  6  0  0  0
 24 31  1  0  0  0  0
 24 25  2  0  0  0  0
 26 23  1  0  0  0  0
 26 59  1  0  0  0  0
 26 60  1  0  0  0  0
 27 26  1  0  0  0  0
 27 61  1  0  0  0  0
 27 62  1  0  0  0  0
 28 30  1  0  0  0  0
 28 27  1  0  0  0  0
 29 28  2  0  0  0  0
 31 32  1  0  0  0  0
 31 63  1  0  0  0  0
 32 64  1  0  0  0  0
 32 65  1  0  0  0  0
 32 66  1  0  0  0  0
M  CHG  1  30  -1
M  END
>  <MODEL>
       0

$$$$
selected_4mers/AALE/104_noH.pdb
 OpenBabel03042517503D

 66 65  0  0  1  0  0  0  0  0999 V2000
   21.7490  -59.2180   72.8650 C   0  0  0  0  0  0  0  0  0  0  0  0
   23.1380  -59.3890   73.4350 C   0  0  0  0  0  0  0  0  0  0  0  0
   23.5190  -60.5190   73.7790 O   0  0  0  0  0  0  0  0  0  0  0  0
   23.9150  -58.3050   73.5400 N   0  0  0  0  0  0  0  0  0  0  0  0
   25.2210  -58.4410   74.2450 C   0  0  2  0  0  0  0  0  0  0  0  0
   24.9320  -58.7790   75.7360 C   0  0  0  0  0  0  0  0  0  0  0  0
   23.8800  -58.3940   76.2480 O   0  0  0  0  0  0  0  0  0  0  0  0
   25.9800  -57.1660   74.1580 C   0  0  0  0  0  0  0  0  0  0  0  0
   25.8460  -59.4730   76.3940 N   0  0  0  0  0  0  0  0  0  0  0  0
   25.5370  -59.9950   77.7380 C   0  0  2  0  0  0  0  0  0  0  0  0
   25.0700  -58.9420   78.7180 C   0  0  0  0  0  0  0  0  0  0  0  0
   24.0950  -59.1360   79.4290 O   0  0  0  0  0  0  0  0  0  0  0  0
   26.7500  -60.7310   78.3080 C   0  0  0  0  0  0  0  0  0  0  0  0
   25.7640  -57.8300   78.8090 N   0  0  0  0  0  0  0  0  0  0  0  0
   25.3760  -56.8200   79.7670 C   0  0  2  0  0  0  0  0  0  0  0  0
   23.9930  -56.2420   79.4190 C   0  0  0  0  0  0  0  0  0  0  0  0
   23.2450  -55.8390   80.2920 O   0  0  0  0  0  0  0  0  0  0  0  0
   26.4400  -55.7330   79.7850 C   0  0  0  0  0  0  0  0  0  0  0  0
   26.2510  -54.6550   80.8470 C   0  0  0  0  0  0  0  0  0  0  0  0
   26.4600  -55.2960   82.2210 C   0  0  0  0  0  0  0  0  0  0  0  0
   27.2230  -53.5140   80.6270 C   0  0  0  0  0  0  0  0  0  0  0  0
   23.6320  -56.2020   78.1350 N   0  0  0  0  0  0  0  0  0  0  0  0
   22.3300  -55.7210   77.7650 C   0  0  2  0  0  0  0  0  0  0  0  0
   21.2010  -56.7030   78.0370 C   0  0  0  0  0  0  0  0  0  0  0  0
   20.0840  -56.2450   78.3570 O   0  0  0  0  0  0  0  0  0  0  0  0
   22.3390  -55.3140   76.2770 C   0  0  0  0  0  0  0  0  0  0  0  0
   23.4110  -54.2870   75.9750 C   0  0  0  0  0  0  0  0  0  0  0  0
   23.2040  -53.0050   76.7470 C   0  0  0  0  0  0  0  0  0  0  0  0
   22.0440  -52.5690   76.9100 O   0  0  0  0  0  0  0  0  0  0  0  0
   24.2210  -52.4340   77.1850 O   0  0  0  0  0  0  0  0  0  0  0  0
   21.4880  -58.0150   77.9460 N   0  0  0  0  0  0  0  0  0  0  0  0
   20.5000  -59.0380   78.2880 C   0  0  0  0  0  0  0  0  0  0  0  0
   21.5868  -58.1883   72.6235 H   0  0  0  0  0  0  0  0  0  0  0  0
   21.0256  -59.5330   73.5877 H   0  0  0  0  0  0  0  0  0  0  0  0
   21.6510  -59.8116   71.9801 H   0  0  0  0  0  0  0  0  0  0  0  0
   23.6319  -57.4412   73.1620 H   0  0  0  0  0  0  0  0  0  0  0  0
   25.8047  -59.2157   73.7933 H   0  0  0  0  0  0  0  0  0  0  0  0
   25.4091  -56.3798   74.6061 H   0  0  0  0  0  0  0  0  0  0  0  0
   26.1659  -56.9310   73.1308 H   0  0  0  0  0  0  0  0  0  0  0  0
   26.9114  -57.2694   74.6745 H   0  0  0  0  0  0  0  0  0  0  0  0
   26.7275  -59.6400   75.9887 H   0  0  0  0  0  0  0  0  0  0  0  0
   24.7155  -60.6683   77.6086 H   0  0  0  0  0  0  0  0  0  0  0  0
   27.5599  -60.0425   78.4302 H   0  0  0  0  0  0  0  0  0  0  0  0
   27.0426  -61.5103   77.6357 H   0  0  0  0  0  0  0  0  0  0  0  0
   26.4963  -61.1552   79.2570 H   0  0  0  0  0  0  0  0  0  0  0  0
   26.5449  -57.6855   78.2271 H   0  0  0  0  0  0  0  0  0  0  0  0
   25.2991  -57.2548   80.7417 H   0  0  0  0  0  0  0  0  0  0  0  0
   26.4424  -55.2566   78.8269 H   0  0  0  0  0  0  0  0  0  0  0  0
   27.3610  -56.2237   80.0215 H   0  0  0  0  0  0  0  0  0  0  0  0
   25.2636  -54.2473   80.7856 H   0  0  0  0  0  0  0  0  0  0  0  0
   27.4482  -55.7024   82.2784 H   0  0  0  0  0  0  0  0  0  0  0  0
   25.7438  -56.0783   82.3623 H   0  0  0  0  0  0  0  0  0  0  0  0
   26.3341  -54.5554   82.9829 H   0  0  0  0  0  0  0  0  0  0  0  0
   28.2255  -53.8840   80.6814 H   0  0  0  0  0  0  0  0  0  0  0  0
   27.0761  -52.7698   81.3816 H   0  0  0  0  0  0  0  0  0  0  0  0
   27.0539  -53.0824   79.6626 H   0  0  0  0  0  0  0  0  0  0  0  0
   24.2599  -56.5031   77.4391 H   0  0  0  0  0  0  0  0  0  0  0  0
   22.1295  -54.8749   78.3885 H   0  0  0  0  0  0  0  0  0  0  0  0
   22.5179  -56.1850   75.6819 H   0  0  0  0  0  0  0  0  0  0  0  0
   21.3894  -54.8769   76.0486 H   0  0  0  0  0  0  0  0  0  0  0  0
   23.3920  -54.0662   74.9282 H   0  0  0  0  0  0  0  0  0  0  0  0
   24.3539  -54.6993   76.2680 H   0  0  0  0  0  0  0  0  0  0  0  0
   22.3826  -58.2921   77.6426 H   0  0  0  0  0  0  0  0  0  0  0  0
   19.5901  -58.5664   78.5956 H   0  0  0  0  0  0  0  0  0  0  0  0
   20.8754  -59.6437   79.0862 H   0  0  0  0  0  0  0  0  0  0  0  0
   20.3118  -59.6523   77.4323 H   0  0  0  0  0  0  0  0  0  0  0  0
  1  2  1  0  0  0  0
  1 33  1  0  0  0  0
  1 34  1  0  0  0  0
  1 35  1  0  0  0  0
  2  3  2  0  0  0  0
  4  2  1  0  0  0  0
  4  5  1  0  0  0  0
  4 36  1  0  0  0  0
  5  6  1  0  0  0  0
  5 37  1  6  0  0  0
  6  9  1  0  0  0  0
  6  7  2  0  0  0  0
  8  5  1  0  0  0  0
  8 38  1  0  0  0  0
  8 39  1  0  0  0  0
  8 40  1  0  0  0  0
  9 10  1  0  0  0  0
  9 41  1  0  0  0  0
 10 13  1  0  0  0  0
 10 11  1  0  0  0  0
 10 42  1  1  0  0  0
 11 12  2  0  0  0  0
 13 43  1  0  0  0  0
 13 44  1  0  0  0  0
 13 45  1  0  0  0  0
 14 15  1  0  0  0  0
 14 11  1  0  0  0  0
 14 46  1  0  0  0  0
 15 16  1  0  0  0  0
 15 47  1  1  0  0  0
 16 17  2  0  0  0  0
 18 15  1  0  0  0  0
 18 48  1  0  0  0  0
 18 49  1  0  0  0  0
 19 18  1  0  0  0  0
 19 21  1  0  0  0  0
 19 50  1  0  0  0  0
 20 19  1  0  0  0  0
 20 51  1  0  0  0  0
 20 52  1  0  0  0  0
 20 53  1  0  0  0  0
 21 54  1  0  0  0  0
 21 55  1  0  0  0  0
 21 56  1  0  0  0  0
 22 23  1  0  0  0  0
 22 16  1  0  0  0  0
 22 57  1  0  0  0  0
 23 24  1  0  0  0  0
 23 58  1  6  0  0  0
 24 31  1  0  0  0  0
 24 25  2  0  0  0  0
 26 23  1  0  0  0  0
 26 59  1  0  0  0  0
 26 60  1  0  0  0  0
 27 26  1  0  0  0  0
 27 61  1  0  0  0  0
 27 62  1  0  0  0  0
 28 30  1  0  0  0  0
 28 27  1  0  0  0  0
 29 28  2  0  0  0  0
 31 32  1  0  0  0  0
 31 63  1  0  0  0  0
 32 64  1  0  0  0  0
 32 65  1  0  0  0  0
 32 66  1  0  0  0  0
M  CHG  1  30  -1
M  END
>  <MODEL>
       0

$$$$
