selected_4mers/AALG/240_noH.pdb
 OpenBabel03042517503D

 58 57  0  0  1  0  0  0  0  0999 V2000
   49.4950   26.4520    7.6790 C   0  0  0  0  0  0  0  0  0  0  0  0
   48.7380   27.2260    6.6120 C   0  0  0  0  0  0  0  0  0  0  0  0
   48.4130   26.6750    5.5550 O   0  0  0  0  0  0  0  0  0  0  0  0
   48.4680   28.5040    6.8540 N   0  0  0  0  0  0  0  0  0  0  0  0
   47.7040   29.3310    5.9280 C   0  0  2  0  0  0  0  0  0  0  0  0
   48.2810   29.3240    4.5230 C   0  0  0  0  0  0  0  0  0  0  0  0
   47.5440   29.1150    3.5570 O   0  0  0  0  0  0  0  0  0  0  0  0
   47.6020   30.7580    6.4550 C   0  0  0  0  0  0  0  0  0  0  0  0
   49.6030   29.4420    4.3810 N   0  0  0  0  0  0  0  0  0  0  0  0
   50.2480   29.4130    3.0830 C   0  0  2  0  0  0  0  0  0  0  0  0
   50.1270   28.0760    2.3720 C   0  0  0  0  0  0  0  0  0  0  0  0
   50.2170   28.0830    1.1380 O   0  0  0  0  0  0  0  0  0  0  0  0
   51.7280   29.8000    3.1860 C   0  0  0  0  0  0  0  0  0  0  0  0
   49.7430   26.9850    3.0290 N   0  0  0  0  0  0  0  0  0  0  0  0
   49.5050   25.7080    2.3690 C   0  0  2  0  0  0  0  0  0  0  0  0
   48.3370   25.7470    1.3970 C   0  0  0  0  0  0  0  0  0  0  0  0
   48.2500   24.9160    0.4850 O   0  0  0  0  0  0  0  0  0  0  0  0
   49.2470   24.5910    3.3820 C   0  0  0  0  0  0  0  0  0  0  0  0
   50.3370   24.3030    4.4100 C   0  0  0  0  0  0  0  0  0  0  0  0
   49.7950   23.2980    5.4290 C   0  0  0  0  0  0  0  0  0  0  0  0
   51.6050   23.7510    3.7790 C   0  0  0  0  0  0  0  0  0  0  0  0
   47.4660   26.7600    1.4710 N   0  0  0  0  0  0  0  0  0  0  0  0
   46.4130   26.9600    0.5010 C   0  0  0  0  0  0  0  0  0  0  0  0
   46.9190   27.3120   -0.8960 C   0  0  0  0  0  0  0  0  0  0  0  0
   46.1280   27.2900   -1.8440 O   0  0  0  0  0  0  0  0  0  0  0  0
   48.1900   27.6410   -1.0780 N   0  0  0  0  0  0  0  0  0  0  0  0
   48.7650   27.9240   -2.3780 C   0  0  0  0  0  0  0  0  0  0  0  0
   49.6414   25.4438    7.3519 H   0  0  0  0  0  0  0  0  0  0  0  0
   48.9311   26.4536    8.5884 H   0  0  0  0  0  0  0  0  0  0  0  0
   50.4454   26.9138    7.8478 H   0  0  0  0  0  0  0  0  0  0  0  0
   48.7961   28.9077    7.6899 H   0  0  0  0  0  0  0  0  0  0  0  0
   46.7246   28.9050    5.8627 H   0  0  0  0  0  0  0  0  0  0  0  0
   48.5810   31.1848    6.5207 H   0  0  0  0  0  0  0  0  0  0  0  0
   47.1512   30.7485    7.4254 H   0  0  0  0  0  0  0  0  0  0  0  0
   47.0022   31.3422    5.7888 H   0  0  0  0  0  0  0  0  0  0  0  0
   50.1593   29.5526    5.1857 H   0  0  0  0  0  0  0  0  0  0  0  0
   49.7234   30.1364    2.4944 H   0  0  0  0  0  0  0  0  0  0  0  0
   52.2466   29.0730    3.7755 H   0  0  0  0  0  0  0  0  0  0  0  0
   51.8140   30.7612    3.6483 H   0  0  0  0  0  0  0  0  0  0  0  0
   52.1563   29.8359    2.2061 H   0  0  0  0  0  0  0  0  0  0  0  0
   49.6140   27.0429    4.0033 H   0  0  0  0  0  0  0  0  0  0  0  0
   50.4006   25.5090    1.8184 H   0  0  0  0  0  0  0  0  0  0  0  0
   49.0822   23.6897    2.8294 H   0  0  0  0  0  0  0  0  0  0  0  0
   48.4140   24.9349    3.9588 H   0  0  0  0  0  0  0  0  0  0  0  0
   50.5978   25.2278    4.8808 H   0  0  0  0  0  0  0  0  0  0  0  0
   49.5433   22.3853    4.9306 H   0  0  0  0  0  0  0  0  0  0  0  0
   48.9216   23.7011    5.8977 H   0  0  0  0  0  0  0  0  0  0  0  0
   50.5412   23.1050    6.1712 H   0  0  0  0  0  0  0  0  0  0  0  0
   51.3873   22.8218    3.2951 H   0  0  0  0  0  0  0  0  0  0  0  0
   52.3420   23.5935    4.5386 H   0  0  0  0  0  0  0  0  0  0  0  0
   51.9783   24.4491    3.0592 H   0  0  0  0  0  0  0  0  0  0  0  0
   47.5457   27.3963    2.2180 H   0  0  0  0  0  0  0  0  0  0  0  0
   45.8400   26.0588    0.4348 H   0  0  0  0  0  0  0  0  0  0  0  0
   45.8316   27.7918    0.8400 H   0  0  0  0  0  0  0  0  0  0  0  0
   48.7748   27.6961   -0.2879 H   0  0  0  0  0  0  0  0  0  0  0  0
   48.0113   27.8237   -3.1308 H   0  0  0  0  0  0  0  0  0  0  0  0
   49.5593   27.2345   -2.5744 H   0  0  0  0  0  0  0  0  0  0  0  0
   49.1489   28.9227   -2.3884 H   0  0  0  0  0  0  0  0  0  0  0  0
  1 28  1  0  0  0  0
  1 29  1  0  0  0  0
  1 30  1  0  0  0  0
  2  4  1  0  0  0  0
  2  1  1  0  0  0  0
  3  2  2  0  0  0  0
  4 31  1  0  0  0  0
  5  8  1  0  0  0  0
  5  4  1  0  0  0  0
  5 32  1  6  0  0  0
  6  5  1  0  0  0  0
  7  6  2  0  0  0  0
  8 33  1  0  0  0  0
  8 34  1  0  0  0  0
  8 35  1  0  0  0  0
  9  6  1  0  0  0  0
  9 36  1  0  0  0  0
 10 13  1  0  0  0  0
 10  9  1  0  0  0  0
 10 37  1  6  0  0  0
 11 14  1  0  0  0  0
 11 10  1  0  0  0  0
 12 11  2  0  0  0  0
 13 38  1  0  0  0  0
 13 39  1  0  0  0  0
 13 40  1  0  0  0  0
 14 41  1  0  0  0  0
 15 14  1  0  0  0  0
 15 18  1  0  0  0  0
 15 42  1  6  0  0  0
 16 22  1  0  0  0  0
 16 15  1  0  0  0  0
 17 16  2  0  0  0  0
 18 19  1  0  0  0  0
 18 43  1  0  0  0  0
 18 44  1  0  0  0  0
 19 20  1  0  0  0  0
 19 45  1  0  0  0  0
 20 46  1  0  0  0  0
 20 47  1  0  0  0  0
 20 48  1  0  0  0  0
 21 19  1  0  0  0  0
 21 49  1  0  0  0  0
 21 50  1  0  0  0  0
 21 51  1  0  0  0  0
 22 52  1  0  0  0  0
 23 22  1  0  0  0  0
 23 53  1  0  0  0  0
 23 54  1  0  0  0  0
 24 23  1  0  0  0  0
 25 24  2  0  0  0  0
 26 24  1  0  0  0  0
 26 55  1  0  0  0  0
 27 26  1  0  0  0  0
 27 56  1  0  0  0  0
 27 57  1  0  0  0  0
 27 58  1  0  0  0  0
M  END
>  <MODEL>
       0

$$$$
selected_4mers/AALG/241_noH.pdb
 OpenBabel03042517503D

 58 57  0  0  1  0  0  0  0  0999 V2000
    9.2400   -0.9440  -33.8100 C   0  0  0  0  0  0  0  0  0  0  0  0
    9.9550   -1.3870  -32.5550 C   0  0  0  0  0  0  0  0  0  0  0  0
    9.3010   -1.6020  -31.5200 O   0  0  0  0  0  0  0  0  0  0  0  0
   11.2910   -1.5680  -32.6440 N   0  0  0  0  0  0  0  0  0  0  0  0
   12.1030   -1.8790  -31.4830 C   0  0  2  0  0  0  0  0  0  0  0  0
   12.1000   -0.5640  -30.7110 C   0  0  0  0  0  0  0  0  0  0  0  0
   11.7700    0.5050  -31.2840 O   0  0  0  0  0  0  0  0  0  0  0  0
   13.5050   -2.2440  -31.8930 C   0  0  0  0  0  0  0  0  0  0  0  0
   12.4530   -0.6380  -29.4330 N   0  0  0  0  0  0  0  0  0  0  0  0
   12.4220    0.5150  -28.5650 C   0  0  2  0  0  0  0  0  0  0  0  0
   13.1420    0.0990  -27.3070 C   0  0  0  0  0  0  0  0  0  0  0  0
   13.7800   -0.9410  -27.2780 O   0  0  0  0  0  0  0  0  0  0  0  0
   10.9210    0.8940  -28.2420 C   0  0  0  0  0  0  0  0  0  0  0  0
   13.0810    0.9420  -26.2850 N   0  0  0  0  0  0  0  0  0  0  0  0
   13.6630    0.6580  -24.9940 C   0  0  2  0  0  0  0  0  0  0  0  0
   13.2200   -0.7610  -24.6450 C   0  0  0  0  0  0  0  0  0  0  0  0
   12.0330   -1.1050  -24.7690 O   0  0  0  0  0  0  0  0  0  0  0  0
   13.1270    1.6610  -23.9720 C   0  0  0  0  0  0  0  0  0  0  0  0
   13.5920    1.5300  -22.5200 C   0  0  0  0  0  0  0  0  0  0  0  0
   15.1190    1.5420  -22.4330 C   0  0  0  0  0  0  0  0  0  0  0  0
   12.9860    2.6730  -21.6730 C   0  0  0  0  0  0  0  0  0  0  0  0
   14.2070   -1.5950  -24.3050 N   0  0  0  0  0  0  0  0  0  0  0  0
   13.9510   -2.9870  -23.9680 C   0  0  0  0  0  0  0  0  0  0  0  0
   14.5450   -3.8590  -25.0450 C   0  0  0  0  0  0  0  0  0  0  0  0
   14.9740   -4.9830  -24.7730 O   0  0  0  0  0  0  0  0  0  0  0  0
   14.5060   -3.3580  -26.2780 N   0  0  0  0  0  0  0  0  0  0  0  0
   15.0830   -4.0510  -27.4030 C   0  0  0  0  0  0  0  0  0  0  0  0
    9.9522   -0.8066  -34.5966 H   0  0  0  0  0  0  0  0  0  0  0  0
    8.7316   -0.0211  -33.6239 H   0  0  0  0  0  0  0  0  0  0  0  0
    8.5298   -1.6906  -34.0983 H   0  0  0  0  0  0  0  0  0  0  0  0
   11.7264   -1.4864  -33.5232 H   0  0  0  0  0  0  0  0  0  0  0  0
   11.7350   -2.7103  -30.9187 H   0  0  0  0  0  0  0  0  0  0  0  0
   13.9288   -1.4451  -32.4649 H   0  0  0  0  0  0  0  0  0  0  0  0
   13.4828   -3.1344  -32.4860 H   0  0  0  0  0  0  0  0  0  0  0  0
   14.0998   -2.4119  -31.0195 H   0  0  0  0  0  0  0  0  0  0  0  0
   12.7443   -1.5042  -29.0669 H   0  0  0  0  0  0  0  0  0  0  0  0
   12.8832    1.3703  -29.0129 H   0  0  0  0  0  0  0  0  0  0  0  0
   10.4306    0.0564  -27.7916 H   0  0  0  0  0  0  0  0  0  0  0  0
   10.4168    1.1575  -29.1482 H   0  0  0  0  0  0  0  0  0  0  0  0
   10.9000    1.7245  -27.5677 H   0  0  0  0  0  0  0  0  0  0  0  0
   12.6175    1.8012  -26.4122 H   0  0  0  0  0  0  0  0  0  0  0  0
   14.7301    0.7364  -24.9972 H   0  0  0  0  0  0  0  0  0  0  0  0
   12.0604    1.5759  -23.9728 H   0  0  0  0  0  0  0  0  0  0  0  0
   13.5198    2.6031  -24.2929 H   0  0  0  0  0  0  0  0  0  0  0  0
   13.2514    0.5926  -22.1325 H   0  0  0  0  0  0  0  0  0  0  0  0
   15.4907    2.4700  -22.8146 H   0  0  0  0  0  0  0  0  0  0  0  0
   15.5156    0.7340  -23.0116 H   0  0  0  0  0  0  0  0  0  0  0  0
   15.4190    1.4304  -21.4120 H   0  0  0  0  0  0  0  0  0  0  0  0
   13.3213    3.6152  -22.0534 H   0  0  0  0  0  0  0  0  0  0  0  0
   13.2991    2.5674  -20.6553 H   0  0  0  0  0  0  0  0  0  0  0  0
   11.9182    2.6273  -21.7242 H   0  0  0  0  0  0  0  0  0  0  0  0
   15.1320   -1.2587  -24.2819 H   0  0  0  0  0  0  0  0  0  0  0  0
   14.4028   -3.2190  -23.0262 H   0  0  0  0  0  0  0  0  0  0  0  0
   12.8972   -3.1586  -23.8981 H   0  0  0  0  0  0  0  0  0  0  0  0
   14.0699   -2.4879  -26.4260 H   0  0  0  0  0  0  0  0  0  0  0  0
   15.5129   -4.9731  -27.0716 H   0  0  0  0  0  0  0  0  0  0  0  0
   15.8432   -3.4417  -27.8455 H   0  0  0  0  0  0  0  0  0  0  0  0
   14.3211   -4.2524  -28.1268 H   0  0  0  0  0  0  0  0  0  0  0  0
  1  2  1  0  0  0  0
  1 28  1  0  0  0  0
  1 29  1  0  0  0  0
  1 30  1  0  0  0  0
  2  3  2  0  0  0  0
  4  2  1  0  0  0  0
  4  5  1  0  0  0  0
  4 31  1  0  0  0  0
  5  6  1  0  0  0  0
  5 32  1  1  0  0  0
  6  9  1  0  0  0  0
  7  6  2  0  0  0  0
  8  5  1  0  0  0  0
  8 33  1  0  0  0  0
  8 34  1  0  0  0  0
  8 35  1  0  0  0  0
  9 10  1  0  0  0  0
  9 36  1  0  0  0  0
 10 13  1  0  0  0  0
 10 11  1  0  0  0  0
 10 37  1  6  0  0  0
 11 12  2  0  0  0  0
 11 14  1  0  0  0  0
 13 38  1  0  0  0  0
 13 39  1  0  0  0  0
 13 40  1  0  0  0  0
 14 15  1  0  0  0  0
 14 41  1  0  0  0  0
 15 16  1  0  0  0  0
 15 18  1  0  0  0  0
 15 42  1  6  0  0  0
 16 22  1  0  0  0  0
 17 16  2  0  0  0  0
 18 19  1  0  0  0  0
 18 43  1  0  0  0  0
 18 44  1  0  0  0  0
 19 20  1  0  0  0  0
 19 21  1  0  0  0  0
 19 45  1  0  0  0  0
 20 46  1  0  0  0  0
 20 47  1  0  0  0  0
 20 48  1  0  0  0  0
 21 49  1  0  0  0  0
 21 50  1  0  0  0  0
 21 51  1  0  0  0  0
 22 23  1  0  0  0  0
 22 52  1  0  0  0  0
 23 53  1  0  0  0  0
 23 54  1  0  0  0  0
 24 25  2  0  0  0  0
 24 23  1  0  0  0  0
 26 24  1  0  0  0  0
 26 55  1  0  0  0  0
 27 26  1  0  0  0  0
 27 56  1  0  0  0  0
 27 57  1  0  0  0  0
 27 58  1  0  0  0  0
M  END
>  <MODEL>
       0

$$$$
selected_4mers/AALG/242_noH.pdb
 OpenBabel03042517503D

 58 57  0  0  1  0  0  0  0  0999 V2000
    8.8780   74.5480   24.4920 C   0  0  0  0  0  0  0  0  0  0  0  0
    9.9290   74.5550   23.3700 C   0  0  0  0  0  0  0  0  0  0  0  0
    9.6270   74.7210   22.1940 O   0  0  0  0  0  0  0  0  0  0  0  0
   11.1870   74.3790   23.7570 N   0  0  0  0  0  0  0  0  0  0  0  0
   12.2950   74.3600   22.7720 C   0  0  2  0  0  0  0  0  0  0  0  0
   12.1940   73.1470   21.8530 C   0  0  0  0  0  0  0  0  0  0  0  0
   12.3660   73.2610   20.6190 O   0  0  0  0  0  0  0  0  0  0  0  0
   13.6500   74.3880   23.4820 C   0  0  0  0  0  0  0  0  0  0  0  0
   11.8640   71.9870   22.4220 N   0  0  0  0  0  0  0  0  0  0  0  0
   11.6800   70.7650   21.6370 C   0  0  2  0  0  0  0  0  0  0  0  0
   10.5200   70.9080   20.6890 C   0  0  0  0  0  0  0  0  0  0  0  0
   10.6010   70.5610   19.4980 O   0  0  0  0  0  0  0  0  0  0  0  0
   11.5210   69.5840   22.5350 C   0  0  0  0  0  0  0  0  0  0  0  0
    9.4580   71.5310   21.1810 N   0  0  0  0  0  0  0  0  0  0  0  0
    8.2600   71.7820   20.3510 C   0  0  2  0  0  0  0  0  0  0  0  0
    8.5920   72.7380   19.1950 C   0  0  0  0  0  0  0  0  0  0  0  0
    8.2750   72.4560   18.0120 O   0  0  0  0  0  0  0  0  0  0  0  0
    7.1780   72.3170   21.2780 C   0  0  0  0  0  0  0  0  0  0  0  0
    5.8630   72.6660   20.6770 C   0  0  0  0  0  0  0  0  0  0  0  0
    5.1950   71.4070   20.0090 C   0  0  0  0  0  0  0  0  0  0  0  0
    4.9610   73.2810   21.8060 C   0  0  0  0  0  0  0  0  0  0  0  0
    9.3120   73.8220   19.4990 N   0  0  0  0  0  0  0  0  0  0  0  0
    9.7630   74.7700   18.4810 C   0  0  0  0  0  0  0  0  0  0  0  0
   10.5610   74.1280   17.3630 C   0  0  0  0  0  0  0  0  0  0  0  0
   10.4130   74.4870   16.2080 O   0  0  0  0  0  0  0  0  0  0  0  0
   11.4420   73.1830   17.7190 N   0  0  0  0  0  0  0  0  0  0  0  0
   12.1830   72.4540   16.7080 C   0  0  0  0  0  0  0  0  0  0  0  0
    7.9057   74.6970   24.0709 H   0  0  0  0  0  0  0  0  0  0  0  0
    9.0909   75.3349   25.1851 H   0  0  0  0  0  0  0  0  0  0  0  0
    8.9059   73.6072   25.0009 H   0  0  0  0  0  0  0  0  0  0  0  0
   11.3872   74.2592   24.7135 H   0  0  0  0  0  0  0  0  0  0  0  0
   12.2121   75.2388   22.1673 H   0  0  0  0  0  0  0  0  0  0  0  0
   13.7508   73.5151   24.0926 H   0  0  0  0  0  0  0  0  0  0  0  0
   13.7129   75.2620   24.0961 H   0  0  0  0  0  0  0  0  0  0  0  0
   14.4339   74.4065   22.7539 H   0  0  0  0  0  0  0  0  0  0  0  0
   11.7405   71.9513   23.3981 H   0  0  0  0  0  0  0  0  0  0  0  0
   12.5564   70.6039   21.0446 H   0  0  0  0  0  0  0  0  0  0  0  0
   10.6504   69.7133   23.1435 H   0  0  0  0  0  0  0  0  0  0  0  0
   12.3838   69.4935   23.1614 H   0  0  0  0  0  0  0  0  0  0  0  0
   11.4148   68.6983   21.9441 H   0  0  0  0  0  0  0  0  0  0  0  0
    9.4672   71.8327   22.1181 H   0  0  0  0  0  0  0  0  0  0  0  0
    7.9084   70.8853   19.8849 H   0  0  0  0  0  0  0  0  0  0  0  0
    7.5626   73.2017   21.7410 H   0  0  0  0  0  0  0  0  0  0  0  0
    6.9650   71.5052   21.9418 H   0  0  0  0  0  0  0  0  0  0  0  0
    5.9912   73.3854   19.8954 H   0  0  0  0  0  0  0  0  0  0  0  0
    5.0419   70.6496   20.7491 H   0  0  0  0  0  0  0  0  0  0  0  0
    5.8356   71.0295   19.2395 H   0  0  0  0  0  0  0  0  0  0  0  0
    4.2534   71.6861   19.5842 H   0  0  0  0  0  0  0  0  0  0  0  0
    4.8311   72.5636   22.5891 H   0  0  0  0  0  0  0  0  0  0  0  0
    4.0065   73.5406   21.3981 H   0  0  0  0  0  0  0  0  0  0  0  0
    5.4309   74.1579   22.1999 H   0  0  0  0  0  0  0  0  0  0  0  0
    9.5468   73.9880   20.4406 H   0  0  0  0  0  0  0  0  0  0  0  0
    8.9030   75.2424   18.0543 H   0  0  0  0  0  0  0  0  0  0  0  0
   10.4117   75.4677   18.9681 H   0  0  0  0  0  0  0  0  0  0  0  0
   11.5869   72.9827   18.6720 H   0  0  0  0  0  0  0  0  0  0  0  0
   11.8986   72.8021   15.7370 H   0  0  0  0  0  0  0  0  0  0  0  0
   11.9657   71.4095   16.7903 H   0  0  0  0  0  0  0  0  0  0  0  0
   13.2315   72.6124   16.8507 H   0  0  0  0  0  0  0  0  0  0  0  0
  1 28  1  0  0  0  0
  1 29  1  0  0  0  0
  1 30  1  0  0  0  0
  2  4  1  0  0  0  0
  2  1  1  0  0  0  0
  3  2  2  0  0  0  0
  4 31  1  0  0  0  0
  5  8  1  0  0  0  0
  5  4  1  0  0  0  0
  5 32  1  6  0  0  0
  6  9  1  0  0  0  0
  6  5  1  0  0  0  0
  7  6  2  0  0  0  0
  8 33  1  0  0  0  0
  8 34  1  0  0  0  0
  8 35  1  0  0  0  0
  9 36  1  0  0  0  0
 10  9  1  0  0  0  0
 10 13  1  0  0  0  0
 10 37  1  6  0  0  0
 11 14  1  0  0  0  0
 11 10  1  0  0  0  0
 12 11  2  0  0  0  0
 13 38  1  0  0  0  0
 13 39  1  0  0  0  0
 13 40  1  0  0  0  0
 14 41  1  0  0  0  0
 15 14  1  0  0  0  0
 15 18  1  0  0  0  0
 15 42  1  6  0  0  0
 16 22  1  0  0  0  0
 16 15  1  0  0  0  0
 17 16  2  0  0  0  0
 18 43  1  0  0  0  0
 18 44  1  0  0  0  0
 19 18  1  0  0  0  0
 19 21  1  0  0  0  0
 19 45  1  0  0  0  0
 20 19  1  0  0  0  0
 20 46  1  0  0  0  0
 20 47  1  0  0  0  0
 20 48  1  0  0  0  0
 21 49  1  0  0  0  0
 21 50  1  0  0  0  0
 21 51  1  0  0  0  0
 22 52  1  0  0  0  0
 23 22  1  0  0  0  0
 23 53  1  0  0  0  0
 23 54  1  0  0  0  0
 24 26  1  0  0  0  0
 24 23  1  0  0  0  0
 25 24  2  0  0  0  0
 26 55  1  0  0  0  0
 27 26  1  0  0  0  0
 27 56  1  0  0  0  0
 27 57  1  0  0  0  0
 27 58  1  0  0  0  0
M  END
>  <MODEL>
       0

$$$$
selected_4mers/AALG/243_noH.pdb
 OpenBabel03042517503D

 58 57  0  0  1  0  0  0  0  0999 V2000
   -2.9590   25.9140   21.6960 C   0  0  0  0  0  0  0  0  0  0  0  0
   -3.8950   26.3620   22.7980 C   0  0  0  0  0  0  0  0  0  0  0  0
   -4.7240   27.2510   22.5790 O   0  0  0  0  0  0  0  0  0  0  0  0
   -3.7370   25.8180   23.9980 N   0  0  0  0  0  0  0  0  0  0  0  0
   -4.6000   26.1820   25.1290 C   0  0  2  0  0  0  0  0  0  0  0  0
   -4.4220   27.6730   25.4310 C   0  0  0  0  0  0  0  0  0  0  0  0
   -5.4040   28.3940   25.5950 O   0  0  0  0  0  0  0  0  0  0  0  0
   -4.2420   25.3850   26.3540 C   0  0  0  0  0  0  0  0  0  0  0  0
   -3.1610   28.1120   25.4670 N   0  0  0  0  0  0  0  0  0  0  0  0
   -2.8580   29.5320   25.7430 C   0  0  2  0  0  0  0  0  0  0  0  0
   -3.3390   30.4680   24.6540 C   0  0  0  0  0  0  0  0  0  0  0  0
   -3.6100   31.6470   24.9210 O   0  0  0  0  0  0  0  0  0  0  0  0
   -1.3800   29.7170   26.0060 C   0  0  0  0  0  0  0  0  0  0  0  0
   -3.4360   29.9540   23.4290 N   0  0  0  0  0  0  0  0  0  0  0  0
   -3.9970   30.7030   22.2980 C   0  0  2  0  0  0  0  0  0  0  0  0
   -5.5350   30.6820   22.2330 C   0  0  0  0  0  0  0  0  0  0  0  0
   -6.1160   31.3630   21.4140 O   0  0  0  0  0  0  0  0  0  0  0  0
   -3.3920   30.2170   20.9780 C   0  0  0  0  0  0  0  0  0  0  0  0
   -1.8780   30.5120   20.7910 C   0  0  0  0  0  0  0  0  0  0  0  0
   -1.3280   29.6590   19.6310 C   0  0  0  0  0  0  0  0  0  0  0  0
   -1.5980   32.0050   20.5460 C   0  0  0  0  0  0  0  0  0  0  0  0
   -6.1860   29.9250   23.1060 N   0  0  0  0  0  0  0  0  0  0  0  0
   -7.6620   29.8530   23.1270 C   0  0  0  0  0  0  0  0  0  0  0  0
   -8.2230   28.9350   22.0470 C   0  0  0  0  0  0  0  0  0  0  0  0
   -9.4020   29.0080   21.7200 O   0  0  0  0  0  0  0  0  0  0  0  0
   -7.3790   28.0270   21.5500 N   0  0  0  0  0  0  0  0  0  0  0  0
   -7.7480   27.0750   20.4890 C   0  0  0  0  0  0  0  0  0  0  0  0
   -3.2002   26.4313   20.7909 H   0  0  0  0  0  0  0  0  0  0  0  0
   -3.0657   24.8603   21.5439 H   0  0  0  0  0  0  0  0  0  0  0  0
   -1.9495   26.1338   21.9742 H   0  0  0  0  0  0  0  0  0  0  0  0
   -3.0232   25.1536   24.1335 H   0  0  0  0  0  0  0  0  0  0  0  0
   -5.6161   25.9706   24.8688 H   0  0  0  0  0  0  0  0  0  0  0  0
   -3.2271   25.5864   26.6265 H   0  0  0  0  0  0  0  0  0  0  0  0
   -4.3552   24.3415   26.1462 H   0  0  0  0  0  0  0  0  0  0  0  0
   -4.8892   25.6604   27.1604 H   0  0  0  0  0  0  0  0  0  0  0  0
   -2.4227   27.4806   25.3074 H   0  0  0  0  0  0  0  0  0  0  0  0
   -3.4048   29.7972   26.6237 H   0  0  0  0  0  0  0  0  0  0  0  0
   -0.8260   29.4536   25.1293 H   0  0  0  0  0  0  0  0  0  0  0  0
   -1.0810   29.0888   26.8189 H   0  0  0  0  0  0  0  0  0  0  0  0
   -1.1874   30.7394   26.2558 H   0  0  0  0  0  0  0  0  0  0  0  0
   -3.1187   29.0347   23.2759 H   0  0  0  0  0  0  0  0  0  0  0  0
   -3.7275   31.7256   22.4607 H   0  0  0  0  0  0  0  0  0  0  0  0
   -3.5315   29.1577   20.9210 H   0  0  0  0  0  0  0  0  0  0  0  0
   -3.8959   30.7590   20.2052 H   0  0  0  0  0  0  0  0  0  0  0  0
   -1.3776   30.2512   21.7001 H   0  0  0  0  0  0  0  0  0  0  0  0
   -1.8311   29.9231   18.7243 H   0  0  0  0  0  0  0  0  0  0  0  0
   -1.4923   28.6228   19.8412 H   0  0  0  0  0  0  0  0  0  0  0  0
   -0.2789   29.8389   19.5222 H   0  0  0  0  0  0  0  0  0  0  0  0
   -2.0804   32.3148   19.6426 H   0  0  0  0  0  0  0  0  0  0  0  0
   -0.5430   32.1603   20.4583 H   0  0  0  0  0  0  0  0  0  0  0  0
   -1.9759   32.5781   21.3668 H   0  0  0  0  0  0  0  0  0  0  0  0
   -5.6717   29.3964   23.7582 H   0  0  0  0  0  0  0  0  0  0  0  0
   -7.9730   29.4865   24.0829 H   0  0  0  0  0  0  0  0  0  0  0  0
   -8.0357   30.8379   22.9393 H   0  0  0  0  0  0  0  0  0  0  0  0
   -6.4639   27.9925   21.9113 H   0  0  0  0  0  0  0  0  0  0  0  0
   -8.7665   27.2364   20.2034 H   0  0  0  0  0  0  0  0  0  0  0  0
   -7.6335   26.0748   20.8516 H   0  0  0  0  0  0  0  0  0  0  0  0
   -7.1122   27.2220   19.6410 H   0  0  0  0  0  0  0  0  0  0  0  0
  1  2  1  0  0  0  0
  1 28  1  0  0  0  0
  1 29  1  0  0  0  0
  1 30  1  0  0  0  0
  2  4  1  0  0  0  0
  3  2  2  0  0  0  0
  4  5  1  0  0  0  0
  4 31  1  0  0  0  0
  5  6  1  0  0  0  0
  5  8  1  0  0  0  0
  5 32  1  6  0  0  0
  6  9  1  0  0  0  0
  6  7  2  0  0  0  0
  8 33  1  0  0  0  0
  8 34  1  0  0  0  0
  8 35  1  0  0  0  0
  9 10  1  0  0  0  0
  9 36  1  0  0  0  0
 10 13  1  0  0  0  0
 10 37  1  1  0  0  0
 11 12  2  0  0  0  0
 11 10  1  0  0  0  0
 13 38  1  0  0  0  0
 13 39  1  0  0  0  0
 13 40  1  0  0  0  0
 14 11  1  0  0  0  0
 14 41  1  0  0  0  0
 15 14  1  0  0  0  0
 15 42  1  1  0  0  0
 16 15  1  0  0  0  0
 16 22  1  0  0  0  0
 17 16  2  0  0  0  0
 18 15  1  0  0  0  0
 18 43  1  0  0  0  0
 18 44  1  0  0  0  0
 19 18  1  0  0  0  0
 19 45  1  0  0  0  0
 20 19  1  0  0  0  0
 20 46  1  0  0  0  0
 20 47  1  0  0  0  0
 20 48  1  0  0  0  0
 21 19  1  0  0  0  0
 21 49  1  0  0  0  0
 21 50  1  0  0  0  0
 21 51  1  0  0  0  0
 22 23  1  0  0  0  0
 22 52  1  0  0  0  0
 23 53  1  0  0  0  0
 23 54  1  0  0  0  0
 24 23  1  0  0  0  0
 25 24  2  0  0  0  0
 26 24  1  0  0  0  0
 26 55  1  0  0  0  0
 27 26  1  0  0  0  0
 27 56  1  0  0  0  0
 27 57  1  0  0  0  0
 27 58  1  0  0  0  0
M  END
>  <MODEL>
       0

$$$$
selected_4mers/AALG/244_noH.pdb
 OpenBabel03042517503D

 58 57  0  0  1  0  0  0  0  0999 V2000
   13.9050   30.7760   60.6280 C   0  0  0  0  0  0  0  0  0  0  0  0
   14.7810   31.6350   59.7270 C   0  0  0  0  0  0  0  0  0  0  0  0
   14.3200   32.6500   59.2000 O   0  0  0  0  0  0  0  0  0  0  0  0
   16.0190   31.2340   59.5390 N   0  0  0  0  0  0  0  0  0  0  0  0
   16.9410   32.0400   58.7620 C   0  0  2  0  0  0  0  0  0  0  0  0
   16.9470   31.6210   57.2990 C   0  0  0  0  0  0  0  0  0  0  0  0
   17.7350   32.1470   56.4920 O   0  0  0  0  0  0  0  0  0  0  0  0
   18.3340   31.9580   59.3710 C   0  0  0  0  0  0  0  0  0  0  0  0
   16.0650   30.6960   56.9580 N   0  0  0  0  0  0  0  0  0  0  0  0
   16.0130   30.1180   55.6120 C   0  0  2  0  0  0  0  0  0  0  0  0
   17.3710   29.5810   55.1110 C   0  0  0  0  0  0  0  0  0  0  0  0
   17.7200   29.7610   53.9590 O   0  0  0  0  0  0  0  0  0  0  0  0
   15.3580   31.0990   54.6100 C   0  0  0  0  0  0  0  0  0  0  0  0
   18.1240   28.9170   55.9850 N   0  0  0  0  0  0  0  0  0  0  0  0
   19.4050   28.3070   55.6370 C   0  0  2  0  0  0  0  0  0  0  0  0
   19.3110   26.7840   55.4700 C   0  0  0  0  0  0  0  0  0  0  0  0
   20.3400   26.1180   55.3380 O   0  0  0  0  0  0  0  0  0  0  0  0
   20.4600   28.6250   56.7060 C   0  0  0  0  0  0  0  0  0  0  0  0
   20.8760   30.0980   56.7510 C   0  0  0  0  0  0  0  0  0  0  0  0
   21.7770   30.3540   57.9080 C   0  0  0  0  0  0  0  0  0  0  0  0
   21.6040   30.3940   55.4380 C   0  0  0  0  0  0  0  0  0  0  0  0
   18.0940   26.2320   55.5230 N   0  0  0  0  0  0  0  0  0  0  0  0
   17.8990   24.8140   55.2340 C   0  0  0  0  0  0  0  0  0  0  0  0
   17.7590   23.9420   56.4670 C   0  0  0  0  0  0  0  0  0  0  0  0
   16.8040   24.1000   57.2130 O   0  0  0  0  0  0  0  0  0  0  0  0
   18.6930   23.0140   56.6650 N   0  0  0  0  0  0  0  0  0  0  0  0
   18.6200   22.1200   57.8100 C   0  0  0  0  0  0  0  0  0  0  0  0
   12.9296   31.2105   60.6965 H   0  0  0  0  0  0  0  0  0  0  0  0
   14.3410   30.7227   61.6037 H   0  0  0  0  0  0  0  0  0  0  0  0
   13.8286   29.7910   60.2172 H   0  0  0  0  0  0  0  0  0  0  0  0
   16.3218   30.3818   59.9279 H   0  0  0  0  0  0  0  0  0  0  0  0
   16.6150   33.0587   58.7915 H   0  0  0  0  0  0  0  0  0  0  0  0
   18.6739   30.9437   59.3485 H   0  0  0  0  0  0  0  0  0  0  0  0
   18.3011   32.3008   60.3841 H   0  0  0  0  0  0  0  0  0  0  0  0
   19.0059   32.5719   58.8084 H   0  0  0  0  0  0  0  0  0  0  0  0
   15.4198   30.3843   57.6331 H   0  0  0  0  0  0  0  0  0  0  0  0
   15.3874   29.2527   55.6802 H   0  0  0  0  0  0  0  0  0  0  0  0
   15.9642   31.9763   54.5218 H   0  0  0  0  0  0  0  0  0  0  0  0
   14.3850   31.3716   54.9620 H   0  0  0  0  0  0  0  0  0  0  0  0
   15.2720   30.6273   53.6535 H   0  0  0  0  0  0  0  0  0  0  0  0
   17.8018   28.8328   56.9115 H   0  0  0  0  0  0  0  0  0  0  0  0
   19.6912   28.7262   54.6951 H   0  0  0  0  0  0  0  0  0  0  0  0
   21.3302   28.0355   56.5059 H   0  0  0  0  0  0  0  0  0  0  0  0
   20.0184   28.3987   57.6540 H   0  0  0  0  0  0  0  0  0  0  0  0
   20.0198   30.7291   56.8676 H   0  0  0  0  0  0  0  0  0  0  0  0
   22.6478   29.7378   57.8251 H   0  0  0  0  0  0  0  0  0  0  0  0
   21.2630   30.1245   58.8180 H   0  0  0  0  0  0  0  0  0  0  0  0
   22.0678   31.3837   57.9126 H   0  0  0  0  0  0  0  0  0  0  0  0
   22.4537   29.7499   55.3483 H   0  0  0  0  0  0  0  0  0  0  0  0
   21.9273   31.4140   55.4315 H   0  0  0  0  0  0  0  0  0  0  0  0
   20.9400   30.2251   54.6161 H   0  0  0  0  0  0  0  0  0  0  0  0
   17.3183   26.7898   55.7603 H   0  0  0  0  0  0  0  0  0  0  0  0
   18.7406   24.4673   54.6716 H   0  0  0  0  0  0  0  0  0  0  0  0
   16.9785   24.7338   54.6944 H   0  0  0  0  0  0  0  0  0  0  0  0
   19.4407   22.9321   56.0299 H   0  0  0  0  0  0  0  0  0  0  0  0
   17.7492   22.3505   58.3875 H   0  0  0  0  0  0  0  0  0  0  0  0
   19.4931   22.2445   58.4159 H   0  0  0  0  0  0  0  0  0  0  0  0
   18.5640   21.1074   57.4689 H   0  0  0  0  0  0  0  0  0  0  0  0
  1 28  1  0  0  0  0
  1 29  1  0  0  0  0
  1 30  1  0  0  0  0
  2  1  1  0  0  0  0
  3  2  2  0  0  0  0
  4  2  1  0  0  0  0
  4 31  1  0  0  0  0
  5  8  1  0  0  0  0
  5  4  1  0  0  0  0
  5 32  1  1  0  0  0
  6  5  1  0  0  0  0
  7  6  2  0  0  0  0
  8 33  1  0  0  0  0
  8 34  1  0  0  0  0
  8 35  1  0  0  0  0
  9  6  1  0  0  0  0
  9 36  1  0  0  0  0
 10  9  1  0  0  0  0
 10 37  1  1  0  0  0
 11 10  1  0  0  0  0
 11 14  1  0  0  0  0
 12 11  2  0  0  0  0
 13 10  1  0  0  0  0
 13 38  1  0  0  0  0
 13 39  1  0  0  0  0
 13 40  1  0  0  0  0
 14 41  1  0  0  0  0
 15 14  1  0  0  0  0
 15 18  1  0  0  0  0
 15 42  1  6  0  0  0
 16 22  1  0  0  0  0
 16 15  1  0  0  0  0
 17 16  2  0  0  0  0
 18 19  1  0  0  0  0
 18 43  1  0  0  0  0
 18 44  1  0  0  0  0
 19 20  1  0  0  0  0
 19 45  1  0  0  0  0
 20 46  1  0  0  0  0
 20 47  1  0  0  0  0
 20 48  1  0  0  0  0
 21 19  1  0  0  0  0
 21 49  1  0  0  0  0
 21 50  1  0  0  0  0
 21 51  1  0  0  0  0
 22 52  1  0  0  0  0
 23 22  1  0  0  0  0
 23 24  1  0  0  0  0
 23 53  1  0  0  0  0
 23 54  1  0  0  0  0
 24 26  1  0  0  0  0
 24 25  2  0  0  0  0
 26 27  1  0  0  0  0
 26 55  1  0  0  0  0
 27 56  1  0  0  0  0
 27 57  1  0  0  0  0
 27 58  1  0  0  0  0
M  END
>  <MODEL>
       0

$$$$
