selected_4mers/AALL/120_noH.pdb
 OpenBabel03042517503D

 70 69  0  0  1  0  0  0  0  0999 V2000
   50.5560   10.0430   10.8690 C   0  0  0  0  0  0  0  0  0  0  0  0
   51.7740    9.4110   11.5490 C   0  0  0  0  0  0  0  0  0  0  0  0
   52.7510   10.1200   11.8250 O   0  0  0  0  0  0  0  0  0  0  0  0
   51.7510    8.1130   11.8250 N   0  0  0  0  0  0  0  0  0  0  0  0
   52.8630    7.4770   12.5350 C   0  0  2  0  0  0  0  0  0  0  0  0
   52.7950    5.9830   12.4050 C   0  0  0  0  0  0  0  0  0  0  0  0
   51.7810    5.4580   11.9710 O   0  0  0  0  0  0  0  0  0  0  0  0
   52.8970    7.9040   14.0390 C   0  0  0  0  0  0  0  0  0  0  0  0
   53.8900    5.3100   12.7820 N   0  0  0  0  0  0  0  0  0  0  0  0
   54.0410    3.8630   12.6250 C   0  0  2  0  0  0  0  0  0  0  0  0
   52.8810    3.0630   13.2240 C   0  0  0  0  0  0  0  0  0  0  0  0
   52.3940    2.1130   12.6160 O   0  0  0  0  0  0  0  0  0  0  0  0
   55.3590    3.4130   13.2470 C   0  0  0  0  0  0  0  0  0  0  0  0
   52.4150    3.4570   14.4070 N   0  0  0  0  0  0  0  0  0  0  0  0
   51.4070    2.6440   15.0840 C   0  0  2  0  0  0  0  0  0  0  0  0
   49.9860    2.9460   14.6150 C   0  0  0  0  0  0  0  0  0  0  0  0
   48.9990    2.3660   15.1240 O   0  0  0  0  0  0  0  0  0  0  0  0
   51.5630    2.6930   16.6160 C   0  0  0  0  0  0  0  0  0  0  0  0
   52.9740    2.3660   17.1240 C   0  0  0  0  0  0  0  0  0  0  0  0
   53.0130    2.3840   18.6220 C   0  0  0  0  0  0  0  0  0  0  0  0
   53.4780    0.9850   16.6080 C   0  0  0  0  0  0  0  0  0  0  0  0
   49.8930    3.8460   13.6390 N   0  0  0  0  0  0  0  0  0  0  0  0
   48.6460    4.1790   12.9700 C   0  0  2  0  0  0  0  0  0  0  0  0
   48.6170    3.5860   11.5670 C   0  0  0  0  0  0  0  0  0  0  0  0
   47.6590    3.7890   10.8220 O   0  0  0  0  0  0  0  0  0  0  0  0
   48.4500    5.7100   12.9110 C   0  0  0  0  0  0  0  0  0  0  0  0
   48.2750    6.4080   14.2720 C   0  0  0  0  0  0  0  0  0  0  0  0
   48.2700    7.9210   14.0830 C   0  0  0  0  0  0  0  0  0  0  0  0
   46.9770    5.9290   14.8630 C   0  0  0  0  0  0  0  0  0  0  0  0
   49.6610    2.8410   11.2090 N   0  0  0  0  0  0  0  0  0  0  0  0
   49.7480    2.2220    9.8610 C   0  0  0  0  0  0  0  0  0  0  0  0
   50.7338   11.0872   10.7177 H   0  0  0  0  0  0  0  0  0  0  0  0
   49.6941    9.9143   11.4899 H   0  0  0  0  0  0  0  0  0  0  0  0
   50.3890    9.5691    9.9243 H   0  0  0  0  0  0  0  0  0  0  0  0
   50.9769    7.5710   11.5491 H   0  0  0  0  0  0  0  0  0  0  0  0
   53.7725    7.8115   12.0814 H   0  0  0  0  0  0  0  0  0  0  0  0
   51.9977    7.5825   14.5215 H   0  0  0  0  0  0  0  0  0  0  0  0
   52.9764    8.9690   14.1057 H   0  0  0  0  0  0  0  0  0  0  0  0
   53.7402    7.4527   14.5189 H   0  0  0  0  0  0  0  0  0  0  0  0
   54.6321    5.8153   13.1859 H   0  0  0  0  0  0  0  0  0  0  0  0
   54.0372    3.6642   11.5736 H   0  0  0  0  0  0  0  0  0  0  0  0
   55.3464    3.6186   14.2970 H   0  0  0  0  0  0  0  0  0  0  0  0
   56.1685    3.9425   12.7895 H   0  0  0  0  0  0  0  0  0  0  0  0
   55.4867    2.3622   13.0908 H   0  0  0  0  0  0  0  0  0  0  0  0
   52.7457    4.2867   14.8211 H   0  0  0  0  0  0  0  0  0  0  0  0
   51.5874    1.6296   14.7951 H   0  0  0  0  0  0  0  0  0  0  0  0
   50.8821    1.9871   17.0438 H   0  0  0  0  0  0  0  0  0  0  0  0
   51.3604    3.7017   16.9099 H   0  0  0  0  0  0  0  0  0  0  0  0
   53.6254    3.1221   16.7382 H   0  0  0  0  0  0  0  0  0  0  0  0
   52.3608    1.6271   19.0049 H   0  0  0  0  0  0  0  0  0  0  0  0
   52.6938    3.3421   18.9756 H   0  0  0  0  0  0  0  0  0  0  0  0
   54.0123    2.1957   18.9551 H   0  0  0  0  0  0  0  0  0  0  0  0
   52.8410    0.2106   16.9814 H   0  0  0  0  0  0  0  0  0  0  0  0
   54.4783    0.8199   16.9501 H   0  0  0  0  0  0  0  0  0  0  0  0
   53.4608    0.9761   15.5382 H   0  0  0  0  0  0  0  0  0  0  0  0
   50.7127    4.3113   13.3548 H   0  0  0  0  0  0  0  0  0  0  0  0
   47.8408    3.7572   13.5344 H   0  0  0  0  0  0  0  0  0  0  0  0
   47.5777    5.9084   12.3240 H   0  0  0  0  0  0  0  0  0  0  0  0
   49.3511    6.1059   12.4912 H   0  0  0  0  0  0  0  0  0  0  0  0
   49.0828    6.1712   14.9325 H   0  0  0  0  0  0  0  0  0  0  0  0
   47.4719    8.1957   13.4254 H   0  0  0  0  0  0  0  0  0  0  0  0
   49.2029    8.2307   13.6604 H   0  0  0  0  0  0  0  0  0  0  0  0
   48.1317    8.3984   15.0306 H   0  0  0  0  0  0  0  0  0  0  0  0
   46.1729    6.1682   14.1988 H   0  0  0  0  0  0  0  0  0  0  0  0
   46.8157    6.4089   15.8057 H   0  0  0  0  0  0  0  0  0  0  0  0
   47.0192    4.8693   15.0048 H   0  0  0  0  0  0  0  0  0  0  0  0
   50.3922    2.6970   11.8524 H   0  0  0  0  0  0  0  0  0  0  0  0
   48.8772    2.4778    9.2942 H   0  0  0  0  0  0  0  0  0  0  0  0
   49.8093    1.1584    9.9602 H   0  0  0  0  0  0  0  0  0  0  0  0
   50.6201    2.5841    9.3579 H   0  0  0  0  0  0  0  0  0  0  0  0
  1  2  1  0  0  0  0
  1 32  1  0  0  0  0
  1 33  1  0  0  0  0
  1 34  1  0  0  0  0
  2  3  2  0  0  0  0
  2  4  1  0  0  0  0
  4  5  1  0  0  0  0
  4 35  1  0  0  0  0
  5  8  1  0  0  0  0
  5 36  1  6  0  0  0
  6  5  1  0  0  0  0
  6  9  1  0  0  0  0
  7  6  2  0  0  0  0
  8 37  1  0  0  0  0
  8 38  1  0  0  0  0
  8 39  1  0  0  0  0
  9 40  1  0  0  0  0
 10  9  1  0  0  0  0
 10 11  1  0  0  0  0
 10 13  1  0  0  0  0
 10 41  1  6  0  0  0
 11 14  1  0  0  0  0
 12 11  2  0  0  0  0
 13 42  1  0  0  0  0
 13 43  1  0  0  0  0
 13 44  1  0  0  0  0
 14 15  1  0  0  0  0
 14 45  1  0  0  0  0
 15 18  1  0  0  0  0
 15 46  1  6  0  0  0
 16 15  1  0  0  0  0
 16 17  2  0  0  0  0
 18 19  1  0  0  0  0
 18 47  1  0  0  0  0
 18 48  1  0  0  0  0
 19 20  1  0  0  0  0
 19 49  1  0  0  0  0
 20 50  1  0  0  0  0
 20 51  1  0  0  0  0
 20 52  1  0  0  0  0
 21 19  1  0  0  0  0
 21 53  1  0  0  0  0
 21 54  1  0  0  0  0
 21 55  1  0  0  0  0
 22 16  1  0  0  0  0
 22 56  1  0  0  0  0
 23 22  1  0  0  0  0
 23 57  1  1  0  0  0
 24 23  1  0  0  0  0
 25 24  2  0  0  0  0
 26 23  1  0  0  0  0
 26 27  1  0  0  0  0
 26 58  1  0  0  0  0
 26 59  1  0  0  0  0
 27 29  1  0  0  0  0
 27 60  1  0  0  0  0
 28 27  1  0  0  0  0
 28 61  1  0  0  0  0
 28 62  1  0  0  0  0
 28 63  1  0  0  0  0
 29 64  1  0  0  0  0
 29 65  1  0  0  0  0
 29 66  1  0  0  0  0
 30 24  1  0  0  0  0
 30 67  1  0  0  0  0
 31 30  1  0  0  0  0
 31 68  1  0  0  0  0
 31 69  1  0  0  0  0
 31 70  1  0  0  0  0
M  END
>  <MODEL>
       0

$$$$
selected_4mers/AALL/121_noH.pdb
 OpenBabel03042517503D

 70 69  0  0  1  0  0  0  0  0999 V2000
   33.4730   20.2420   23.1820 C   0  0  0  0  0  0  0  0  0  0  0  0
   34.2880   21.5110   23.3810 C   0  0  0  0  0  0  0  0  0  0  0  0
   34.0760   22.2470   24.3430 O   0  0  0  0  0  0  0  0  0  0  0  0
   35.2240   21.7620   22.4700 N   0  0  0  0  0  0  0  0  0  0  0  0
   36.0550   22.9520   22.5600 C   0  0  2  0  0  0  0  0  0  0  0  0
   35.1840   24.2010   22.4480 C   0  0  0  0  0  0  0  0  0  0  0  0
   35.3550   25.1530   23.2080 O   0  0  0  0  0  0  0  0  0  0  0  0
   37.1160   22.9460   21.4560 C   0  0  0  0  0  0  0  0  0  0  0  0
   34.2410   24.1950   21.5080 N   0  0  0  0  0  0  0  0  0  0  0  0
   33.3660   25.3500   21.3310 C   0  0  2  0  0  0  0  0  0  0  0  0
   32.4600   25.5630   22.5500 C   0  0  0  0  0  0  0  0  0  0  0  0
   32.2350   26.7040   22.9720 O   0  0  0  0  0  0  0  0  0  0  0  0
   32.5260   25.1900   20.0520 C   0  0  0  0  0  0  0  0  0  0  0  0
   31.9480   24.4740   23.1200 N   0  0  0  0  0  0  0  0  0  0  0  0
   31.0820   24.5700   24.2950 C   0  0  2  0  0  0  0  0  0  0  0  0
   31.8330   25.1630   25.4870 C   0  0  0  0  0  0  0  0  0  0  0  0
   31.2900   25.9860   26.2260 O   0  0  0  0  0  0  0  0  0  0  0  0
   30.5310   23.1890   24.6730 C   0  0  0  0  0  0  0  0  0  0  0  0
   29.5210   22.5630   23.7050 C   0  0  0  0  0  0  0  0  0  0  0  0
   29.2290   21.1240   24.1280 C   0  0  0  0  0  0  0  0  0  0  0  0
   28.2410   23.3920   23.6850 C   0  0  0  0  0  0  0  0  0  0  0  0
   33.0820   24.7460   25.6760 N   0  0  0  0  0  0  0  0  0  0  0  0
   33.8880   25.2510   26.7860 C   0  0  2  0  0  0  0  0  0  0  0  0
   34.2410   26.7280   26.6000 C   0  0  0  0  0  0  0  0  0  0  0  0
   34.2990   27.4870   27.5670 O   0  0  0  0  0  0  0  0  0  0  0  0
   35.1680   24.4200   26.9300 C   0  0  0  0  0  0  0  0  0  0  0  0
   34.9750   22.9870   27.4350 C   0  0  0  0  0  0  0  0  0  0  0  0
   36.3000   22.2390   27.4070 C   0  0  0  0  0  0  0  0  0  0  0  0
   34.3950   23.0190   28.8450 C   0  0  0  0  0  0  0  0  0  0  0  0
   34.4790   27.1280   25.3560 N   0  0  0  0  0  0  0  0  0  0  0  0
   34.8150   28.5130   25.0290 C   0  0  0  0  0  0  0  0  0  0  0  0
   33.8038   19.7408   22.2964 H   0  0  0  0  0  0  0  0  0  0  0  0
   32.4380   20.4947   23.0833 H   0  0  0  0  0  0  0  0  0  0  0  0
   33.6040   19.5979   24.0263 H   0  0  0  0  0  0  0  0  0  0  0  0
   35.3561   21.1332   21.7241 H   0  0  0  0  0  0  0  0  0  0  0  0
   36.5519   22.9566   23.5076 H   0  0  0  0  0  0  0  0  0  0  0  0
   36.6358   22.9413   20.4998 H   0  0  0  0  0  0  0  0  0  0  0  0
   37.7265   22.0726   21.5528 H   0  0  0  0  0  0  0  0  0  0  0  0
   37.7271   23.8199   21.5439 H   0  0  0  0  0  0  0  0  0  0  0  0
   34.1332   23.4064   20.9285 H   0  0  0  0  0  0  0  0  0  0  0  0
   33.9831   26.2187   21.2337 H   0  0  0  0  0  0  0  0  0  0  0  0
   31.9048   24.3232   20.1394 H   0  0  0  0  0  0  0  0  0  0  0  0
   33.1764   25.0792   19.2096 H   0  0  0  0  0  0  0  0  0  0  0  0
   31.9126   26.0563   19.9174 H   0  0  0  0  0  0  0  0  0  0  0  0
   32.1560   23.5883   22.7439 H   0  0  0  0  0  0  0  0  0  0  0  0
   30.2688   25.2189   24.0447 H   0  0  0  0  0  0  0  0  0  0  0  0
   31.3616   22.5192   24.7530 H   0  0  0  0  0  0  0  0  0  0  0  0
   29.9907   23.3413   25.5839 H   0  0  0  0  0  0  0  0  0  0  0  0
   29.9309   22.5517   22.7167 H   0  0  0  0  0  0  0  0  0  0  0  0
   28.8179   21.1191   25.1159 H   0  0  0  0  0  0  0  0  0  0  0  0
   30.1368   20.5577   24.1166 H   0  0  0  0  0  0  0  0  0  0  0  0
   28.5278   20.6876   23.4477 H   0  0  0  0  0  0  0  0  0  0  0  0
   27.8156   23.4150   24.6665 H   0  0  0  0  0  0  0  0  0  0  0  0
   27.5424   22.9531   23.0037 H   0  0  0  0  0  0  0  0  0  0  0  0
   28.4670   24.3895   23.3707 H   0  0  0  0  0  0  0  0  0  0  0  0
   33.4703   24.0858   25.0575 H   0  0  0  0  0  0  0  0  0  0  0  0
   33.3046   25.1628   27.6786 H   0  0  0  0  0  0  0  0  0  0  0  0
   35.8136   24.9266   27.6167 H   0  0  0  0  0  0  0  0  0  0  0  0
   35.5705   24.3300   25.9427 H   0  0  0  0  0  0  0  0  0  0  0  0
   34.2906   22.4706   26.7949 H   0  0  0  0  0  0  0  0  0  0  0  0
   37.0039   22.7365   28.0410 H   0  0  0  0  0  0  0  0  0  0  0  0
   36.6758   22.2165   26.4054 H   0  0  0  0  0  0  0  0  0  0  0  0
   36.1519   21.2380   27.7549 H   0  0  0  0  0  0  0  0  0  0  0  0
   35.0700   23.5333   29.4967 H   0  0  0  0  0  0  0  0  0  0  0  0
   34.2540   22.0179   29.1955 H   0  0  0  0  0  0  0  0  0  0  0  0
   33.4541   23.5283   28.8321 H   0  0  0  0  0  0  0  0  0  0  0  0
   34.4273   26.4678   24.6275 H   0  0  0  0  0  0  0  0  0  0  0  0
   34.8300   29.0975   25.9251 H   0  0  0  0  0  0  0  0  0  0  0  0
   34.0821   28.9087   24.3573 H   0  0  0  0  0  0  0  0  0  0  0  0
   35.7787   28.5463   24.5653 H   0  0  0  0  0  0  0  0  0  0  0  0
  1  2  1  0  0  0  0
  1 32  1  0  0  0  0
  1 33  1  0  0  0  0
  1 34  1  0  0  0  0
  2  3  2  0  0  0  0
  4  5  1  0  0  0  0
  4  2  1  0  0  0  0
  4 35  1  0  0  0  0
  5 36  1  1  0  0  0
  6  5  1  0  0  0  0
  6  7  2  0  0  0  0
  8  5  1  0  0  0  0
  8 37  1  0  0  0  0
  8 38  1  0  0  0  0
  8 39  1  0  0  0  0
  9  6  1  0  0  0  0
  9 40  1  0  0  0  0
 10  9  1  0  0  0  0
 10 11  1  0  0  0  0
 10 41  1  6  0  0  0
 11 12  2  0  0  0  0
 11 14  1  0  0  0  0
 13 10  1  0  0  0  0
 13 42  1  0  0  0  0
 13 43  1  0  0  0  0
 13 44  1  0  0  0  0
 14 15  1  0  0  0  0
 14 45  1  0  0  0  0
 15 18  1  0  0  0  0
 15 16  1  0  0  0  0
 15 46  1  6  0  0  0
 16 22  1  0  0  0  0
 16 17  2  0  0  0  0
 18 47  1  0  0  0  0
 18 48  1  0  0  0  0
 19 20  1  0  0  0  0
 19 18  1  0  0  0  0
 19 49  1  0  0  0  0
 20 50  1  0  0  0  0
 20 51  1  0  0  0  0
 20 52  1  0  0  0  0
 21 19  1  0  0  0  0
 21 53  1  0  0  0  0
 21 54  1  0  0  0  0
 21 55  1  0  0  0  0
 22 23  1  0  0  0  0
 22 56  1  0  0  0  0
 23 26  1  0  0  0  0
 23 57  1  1  0  0  0
 24 23  1  0  0  0  0
 24 25  2  0  0  0  0
 26 27  1  0  0  0  0
 26 58  1  0  0  0  0
 26 59  1  0  0  0  0
 27 29  1  0  0  0  0
 27 60  1  0  0  0  0
 28 27  1  0  0  0  0
 28 61  1  0  0  0  0
 28 62  1  0  0  0  0
 28 63  1  0  0  0  0
 29 64  1  0  0  0  0
 29 65  1  0  0  0  0
 29 66  1  0  0  0  0
 30 24  1  0  0  0  0
 30 67  1  0  0  0  0
 31 30  1  0  0  0  0
 31 68  1  0  0  0  0
 31 69  1  0  0  0  0
 31 70  1  0  0  0  0
M  END
>  <MODEL>
       0

$$$$
selected_4mers/AALL/122_noH.pdb
 OpenBabel03042517503D

 70 69  0  0  1  0  0  0  0  0999 V2000
   39.3720   57.0450   29.0420 C   0  0  0  0  0  0  0  0  0  0  0  0
   39.7350   55.7020   29.6740 C   0  0  0  0  0  0  0  0  0  0  0  0
   39.1710   54.6720   29.3720 O   0  0  0  0  0  0  0  0  0  0  0  0
   40.7500   55.7400   30.5160 N   0  0  0  0  0  0  0  0  0  0  0  0
   41.3060   54.5420   31.0920 C   0  0  2  0  0  0  0  0  0  0  0  0
   40.2710   53.7810   31.9470 C   0  0  0  0  0  0  0  0  0  0  0  0
   40.3700   52.5640   32.0690 O   0  0  0  0  0  0  0  0  0  0  0  0
   42.6120   54.8670   31.8860 C   0  0  0  0  0  0  0  0  0  0  0  0
   39.3020   54.4960   32.5190 N   0  0  0  0  0  0  0  0  0  0  0  0
   38.2970   53.8680   33.3730 C   0  0  2  0  0  0  0  0  0  0  0  0
   37.4090   52.9650   32.5150 C   0  0  0  0  0  0  0  0  0  0  0  0
   37.0160   51.8760   32.9480 O   0  0  0  0  0  0  0  0  0  0  0  0
   37.4560   54.9500   34.1300 C   0  0  0  0  0  0  0  0  0  0  0  0
   37.1550   53.3500   31.2730 N   0  0  0  0  0  0  0  0  0  0  0  0
   36.2770   52.5480   30.3760 C   0  0  2  0  0  0  0  0  0  0  0  0
   36.9970   51.3600   29.7530 C   0  0  0  0  0  0  0  0  0  0  0  0
   36.3640   50.4290   29.3060 O   0  0  0  0  0  0  0  0  0  0  0  0
   35.7070   53.4060   29.2380 C   0  0  0  0  0  0  0  0  0  0  0  0
   34.8250   54.6100   29.5780 C   0  0  0  0  0  0  0  0  0  0  0  0
   34.2170   55.1970   28.2840 C   0  0  0  0  0  0  0  0  0  0  0  0
   33.7360   54.3040   30.6580 C   0  0  0  0  0  0  0  0  0  0  0  0
   38.3250   51.3690   29.6860 N   0  0  0  0  0  0  0  0  0  0  0  0
   39.0490   50.2310   29.1170 C   0  0  2  0  0  0  0  0  0  0  0  0
   38.7670   48.9850   29.9540 C   0  0  0  0  0  0  0  0  0  0  0  0
   38.9430   48.9960   31.1650 O   0  0  0  0  0  0  0  0  0  0  0  0
   40.5490   50.5680   29.1180 C   0  0  0  0  0  0  0  0  0  0  0  0
   41.4510   49.8160   28.1820 C   0  0  0  0  0  0  0  0  0  0  0  0
   40.8870   49.8340   26.7350 C   0  0  0  0  0  0  0  0  0  0  0  0
   42.9010   50.3250   28.2560 C   0  0  0  0  0  0  0  0  0  0  0  0
   38.3240   47.8980   29.3260 N   0  0  0  0  0  0  0  0  0  0  0  0
   38.0540   46.7100   30.0770 C   0  0  0  0  0  0  0  0  0  0  0  0
   38.5428   56.9144   28.3784 H   0  0  0  0  0  0  0  0  0  0  0  0
   40.2113   57.4200   28.4945 H   0  0  0  0  0  0  0  0  0  0  0  0
   39.1076   57.7410   29.8105 H   0  0  0  0  0  0  0  0  0  0  0  0
   41.1386   56.6117   30.7576 H   0  0  0  0  0  0  0  0  0  0  0  0
   41.5725   53.8827   30.2925 H   0  0  0  0  0  0  0  0  0  0  0  0
   42.3819   55.5268   32.6963 H   0  0  0  0  0  0  0  0  0  0  0  0
   43.3186   55.3361   31.2337 H   0  0  0  0  0  0  0  0  0  0  0  0
   43.0298   53.9606   32.2717 H   0  0  0  0  0  0  0  0  0  0  0  0
   39.2630   55.4672   32.3626 H   0  0  0  0  0  0  0  0  0  0  0  0
   38.7804   53.2709   34.1178 H   0  0  0  0  0  0  0  0  0  0  0  0
   36.9533   55.5724   33.4195 H   0  0  0  0  0  0  0  0  0  0  0  0
   38.1058   55.5496   34.7326 H   0  0  0  0  0  0  0  0  0  0  0  0
   36.7341   54.4675   34.7553 H   0  0  0  0  0  0  0  0  0  0  0  0
   37.5551   54.1839   30.9358 H   0  0  0  0  0  0  0  0  0  0  0  0
   35.4883   52.1861   31.0019 H   0  0  0  0  0  0  0  0  0  0  0  0
   36.5406   53.7774   28.6793 H   0  0  0  0  0  0  0  0  0  0  0  0
   35.0425   52.7409   28.7272 H   0  0  0  0  0  0  0  0  0  0  0  0
   35.4542   55.3481   30.0299 H   0  0  0  0  0  0  0  0  0  0  0  0
   33.5853   54.4664   27.8234 H   0  0  0  0  0  0  0  0  0  0  0  0
   35.0036   55.4644   27.6097 H   0  0  0  0  0  0  0  0  0  0  0  0
   33.6412   56.0666   28.5230 H   0  0  0  0  0  0  0  0  0  0  0  0
   33.0581   53.5665   30.2819 H   0  0  0  0  0  0  0  0  0  0  0  0
   33.1977   55.2003   30.8856 H   0  0  0  0  0  0  0  0  0  0  0  0
   34.2072   53.9359   31.5453 H   0  0  0  0  0  0  0  0  0  0  0  0
   38.8255   52.1474   30.0218 H   0  0  0  0  0  0  0  0  0  0  0  0
   38.7317   50.0375   28.1136 H   0  0  0  0  0  0  0  0  0  0  0  0
   40.6399   51.6069   28.8784 H   0  0  0  0  0  0  0  0  0  0  0  0
   40.8825   50.2795   30.0929 H   0  0  0  0  0  0  0  0  0  0  0  0
   41.4768   48.7939   28.4975 H   0  0  0  0  0  0  0  0  0  0  0  0
   40.8449   50.8429   26.3811 H   0  0  0  0  0  0  0  0  0  0  0  0
   39.9033   49.4131   26.7304 H   0  0  0  0  0  0  0  0  0  0  0  0
   41.5242   49.2584   26.0966 H   0  0  0  0  0  0  0  0  0  0  0  0
   42.9355   51.3495   27.9493 H   0  0  0  0  0  0  0  0  0  0  0  0
   43.5185   49.7380   27.6088 H   0  0  0  0  0  0  0  0  0  0  0  0
   43.2574   50.2415   29.2614 H   0  0  0  0  0  0  0  0  0  0  0  0
   38.1831   47.9113   28.3517 H   0  0  0  0  0  0  0  0  0  0  0  0
   38.2647   46.8862   31.1111 H   0  0  0  0  0  0  0  0  0  0  0  0
   38.6712   45.9131   29.7180 H   0  0  0  0  0  0  0  0  0  0  0  0
   37.0242   46.4425   29.9634 H   0  0  0  0  0  0  0  0  0  0  0  0
  1  2  1  0  0  0  0
  1 32  1  0  0  0  0
  1 33  1  0  0  0  0
  1 34  1  0  0  0  0
  2  4  1  0  0  0  0
  3  2  2  0  0  0  0
  4  5  1  0  0  0  0
  4 35  1  0  0  0  0
  5  8  1  0  0  0  0
  5  6  1  0  0  0  0
  5 36  1  6  0  0  0
  6  7  2  0  0  0  0
  6  9  1  0  0  0  0
  8 37  1  0  0  0  0
  8 38  1  0  0  0  0
  8 39  1  0  0  0  0
  9 10  1  0  0  0  0
  9 40  1  0  0  0  0
 10 13  1  0  0  0  0
 10 41  1  1  0  0  0
 11 12  2  0  0  0  0
 11 10  1  0  0  0  0
 13 42  1  0  0  0  0
 13 43  1  0  0  0  0
 13 44  1  0  0  0  0
 14 11  1  0  0  0  0
 14 45  1  0  0  0  0
 15 14  1  0  0  0  0
 15 46  1  1  0  0  0
 16 15  1  0  0  0  0
 17 16  2  0  0  0  0
 18 19  1  0  0  0  0
 18 15  1  0  0  0  0
 18 47  1  0  0  0  0
 18 48  1  0  0  0  0
 19 21  1  0  0  0  0
 19 49  1  0  0  0  0
 20 19  1  0  0  0  0
 20 50  1  0  0  0  0
 20 51  1  0  0  0  0
 20 52  1  0  0  0  0
 21 53  1  0  0  0  0
 21 54  1  0  0  0  0
 21 55  1  0  0  0  0
 22 16  1  0  0  0  0
 22 56  1  0  0  0  0
 23 26  1  0  0  0  0
 23 22  1  0  0  0  0
 23 24  1  0  0  0  0
 23 57  1  6  0  0  0
 24 25  2  0  0  0  0
 26 58  1  0  0  0  0
 26 59  1  0  0  0  0
 27 29  1  0  0  0  0
 27 26  1  0  0  0  0
 27 60  1  0  0  0  0
 28 27  1  0  0  0  0
 28 61  1  0  0  0  0
 28 62  1  0  0  0  0
 28 63  1  0  0  0  0
 29 64  1  0  0  0  0
 29 65  1  0  0  0  0
 29 66  1  0  0  0  0
 30 24  1  0  0  0  0
 30 31  1  0  0  0  0
 30 67  1  0  0  0  0
 31 68  1  0  0  0  0
 31 69  1  0  0  0  0
 31 70  1  0  0  0  0
M  END
>  <MODEL>
       0

$$$$
selected_4mers/AALL/123_noH.pdb
 OpenBabel03042517503D

 70 69  0  0  1  0  0  0  0  0999 V2000
  -13.9940   25.0620   58.4150 C   0  0  0  0  0  0  0  0  0  0  0  0
  -13.2140   26.3860   58.3340 C   0  0  0  0  0  0  0  0  0  0  0  0
  -13.1900   27.0070   57.3030 O   0  0  0  0  0  0  0  0  0  0  0  0
  -12.5290   26.7590   59.3850 N   0  0  0  0  0  0  0  0  0  0  0  0
  -11.7870   27.9980   59.3900 C   0  0  2  0  0  0  0  0  0  0  0  0
  -10.3560   27.8580   59.8620 C   0  0  0  0  0  0  0  0  0  0  0  0
  -10.0490   27.0440   60.6920 O   0  0  0  0  0  0  0  0  0  0  0  0
  -12.4680   29.0180   60.2810 C   0  0  0  0  0  0  0  0  0  0  0  0
   -9.4990   28.7120   59.2850 N   0  0  0  0  0  0  0  0  0  0  0  0
   -8.1100   28.7370   59.6950 C   0  0  2  0  0  0  0  0  0  0  0  0
   -7.9230   30.1650   60.2650 C   0  0  0  0  0  0  0  0  0  0  0  0
   -8.5180   31.1340   59.7370 O   0  0  0  0  0  0  0  0  0  0  0  0
   -7.1530   28.4880   58.5600 C   0  0  0  0  0  0  0  0  0  0  0  0
   -7.1780   30.2730   61.3350 N   0  0  0  0  0  0  0  0  0  0  0  0
   -6.8870   31.5700   61.9660 C   0  0  2  0  0  0  0  0  0  0  0  0
   -5.4140   31.8640   61.7020 C   0  0  0  0  0  0  0  0  0  0  0  0
   -4.6270   30.9230   61.9200 O   0  0  0  0  0  0  0  0  0  0  0  0
   -7.1900   31.4560   63.4440 C   0  0  0  0  0  0  0  0  0  0  0  0
   -7.2010   32.7480   64.2200 C   0  0  0  0  0  0  0  0  0  0  0  0
   -8.2630   33.6680   63.6250 C   0  0  0  0  0  0  0  0  0  0  0  0
   -7.5470   32.5530   65.6950 C   0  0  0  0  0  0  0  0  0  0  0  0
   -5.0330   33.0140   61.1700 N   0  0  0  0  0  0  0  0  0  0  0  0
   -3.6170   33.2940   60.9300 C   0  0  2  0  0  0  0  0  0  0  0  0
   -3.2890   34.3830   61.9660 C   0  0  0  0  0  0  0  0  0  0  0  0
   -3.7980   35.5160   61.8580 O   0  0  0  0  0  0  0  0  0  0  0  0
   -3.3680   33.8450   59.5120 C   0  0  0  0  0  0  0  0  0  0  0  0
   -3.9680   33.0370   58.3830 C   0  0  0  0  0  0  0  0  0  0  0  0
   -3.5060   33.4300   56.9840 C   0  0  0  0  0  0  0  0  0  0  0  0
   -3.7720   31.5410   58.5540 C   0  0  0  0  0  0  0  0  0  0  0  0
   -2.5330   34.0320   62.9950 N   0  0  0  0  0  0  0  0  0  0  0  0
   -2.1810   34.8660   64.1140 C   0  0  0  0  0  0  0  0  0  0  0  0
  -14.5014   24.8897   57.4888 H   0  0  0  0  0  0  0  0  0  0  0  0
  -14.7095   25.1175   59.2087 H   0  0  0  0  0  0  0  0  0  0  0  0
  -13.3135   24.2581   58.6038 H   0  0  0  0  0  0  0  0  0  0  0  0
  -12.5194   26.1856   60.1852 H   0  0  0  0  0  0  0  0  0  0  0  0
  -11.7672   28.3145   58.3681 H   0  0  0  0  0  0  0  0  0  0  0  0
  -12.4675   28.6658   61.2914 H   0  0  0  0  0  0  0  0  0  0  0  0
  -13.4766   29.1608   59.9535 H   0  0  0  0  0  0  0  0  0  0  0  0
  -11.9406   29.9474   60.2270 H   0  0  0  0  0  0  0  0  0  0  0  0
   -9.8143   29.3236   58.5809 H   0  0  0  0  0  0  0  0  0  0  0  0
   -7.8971   27.9595   60.3986 H   0  0  0  0  0  0  0  0  0  0  0  0
   -7.2985   29.2288   57.8018 H   0  0  0  0  0  0  0  0  0  0  0  0
   -7.3325   27.5166   58.1487 H   0  0  0  0  0  0  0  0  0  0  0  0
   -6.1478   28.5416   58.9228 H   0  0  0  0  0  0  0  0  0  0  0  0
   -6.7981   29.4564   61.7326 H   0  0  0  0  0  0  0  0  0  0  0  0
   -7.4809   32.3691   61.5739 H   0  0  0  0  0  0  0  0  0  0  0  0
   -6.4503   30.8183   63.8812 H   0  0  0  0  0  0  0  0  0  0  0  0
   -8.1884   31.0759   63.5043 H   0  0  0  0  0  0  0  0  0  0  0  0
   -6.2154   33.1593   64.1545 H   0  0  0  0  0  0  0  0  0  0  0  0
   -9.2250   33.2087   63.7171 H   0  0  0  0  0  0  0  0  0  0  0  0
   -8.0474   33.8398   62.5911 H   0  0  0  0  0  0  0  0  0  0  0  0
   -8.2614   34.6006   64.1495 H   0  0  0  0  0  0  0  0  0  0  0  0
   -8.5312   32.1416   65.7791 H   0  0  0  0  0  0  0  0  0  0  0  0
   -7.5108   33.4969   66.1976 H   0  0  0  0  0  0  0  0  0  0  0  0
   -6.8414   31.8839   66.1414 H   0  0  0  0  0  0  0  0  0  0  0  0
   -5.7097   33.6887   60.9330 H   0  0  0  0  0  0  0  0  0  0  0  0
   -3.0180   32.4113   61.0133 H   0  0  0  0  0  0  0  0  0  0  0  0
   -3.7789   34.8318   59.4653 H   0  0  0  0  0  0  0  0  0  0  0  0
   -2.3085   33.8106   59.3661 H   0  0  0  0  0  0  0  0  0  0  0  0
   -5.0076   33.2794   58.4563 H   0  0  0  0  0  0  0  0  0  0  0  0
   -2.4666   33.2010   56.8742 H   0  0  0  0  0  0  0  0  0  0  0  0
   -3.6572   34.4795   56.8401 H   0  0  0  0  0  0  0  0  0  0  0  0
   -4.0701   32.8853   56.2560 H   0  0  0  0  0  0  0  0  0  0  0  0
   -2.7306   31.3069   58.4795 H   0  0  0  0  0  0  0  0  0  0  0  0
   -4.3100   31.0211   57.7891 H   0  0  0  0  0  0  0  0  0  0  0  0
   -4.1373   31.2408   59.5139 H   0  0  0  0  0  0  0  0  0  0  0  0
   -2.1781   33.1137   62.9946 H   0  0  0  0  0  0  0  0  0  0  0  0
   -2.6268   35.8312   63.9936 H   0  0  0  0  0  0  0  0  0  0  0  0
   -1.1170   34.9681   64.1620 H   0  0  0  0  0  0  0  0  0  0  0  0
   -2.5375   34.4187   65.0183 H   0  0  0  0  0  0  0  0  0  0  0  0
  1 32  1  0  0  0  0
  1 33  1  0  0  0  0
  1 34  1  0  0  0  0
  2  1  1  0  0  0  0
  2  4  1  0  0  0  0
  3  2  2  0  0  0  0
  4  5  1  0  0  0  0
  4 35  1  0  0  0  0
  5  6  1  0  0  0  0
  5  8  1  0  0  0  0
  5 36  1  6  0  0  0
  6  7  2  0  0  0  0
  8 37  1  0  0  0  0
  8 38  1  0  0  0  0
  8 39  1  0  0  0  0
  9 10  1  0  0  0  0
  9  6  1  0  0  0  0
  9 40  1  0  0  0  0
 10 11  1  0  0  0  0
 10 41  1  1  0  0  0
 11 14  1  0  0  0  0
 12 11  2  0  0  0  0
 13 10  1  0  0  0  0
 13 42  1  0  0  0  0
 13 43  1  0  0  0  0
 13 44  1  0  0  0  0
 14 15  1  0  0  0  0
 14 45  1  0  0  0  0
 15 18  1  0  0  0  0
 15 46  1  6  0  0  0
 16 17  2  0  0  0  0
 16 15  1  0  0  0  0
 18 19  1  0  0  0  0
 18 47  1  0  0  0  0
 18 48  1  0  0  0  0
 19 21  1  0  0  0  0
 19 49  1  0  0  0  0
 20 19  1  0  0  0  0
 20 50  1  0  0  0  0
 20 51  1  0  0  0  0
 20 52  1  0  0  0  0
 21 53  1  0  0  0  0
 21 54  1  0  0  0  0
 21 55  1  0  0  0  0
 22 16  1  0  0  0  0
 22 56  1  0  0  0  0
 23 22  1  0  0  0  0
 23 24  1  0  0  0  0
 23 57  1  1  0  0  0
 24 30  1  0  0  0  0
 25 24  2  0  0  0  0
 26 23  1  0  0  0  0
 26 58  1  0  0  0  0
 26 59  1  0  0  0  0
 27 29  1  0  0  0  0
 27 26  1  0  0  0  0
 27 60  1  0  0  0  0
 28 27  1  0  0  0  0
 28 61  1  0  0  0  0
 28 62  1  0  0  0  0
 28 63  1  0  0  0  0
 29 64  1  0  0  0  0
 29 65  1  0  0  0  0
 29 66  1  0  0  0  0
 30 31  1  0  0  0  0
 30 67  1  0  0  0  0
 31 68  1  0  0  0  0
 31 69  1  0  0  0  0
 31 70  1  0  0  0  0
M  END
>  <MODEL>
       0

$$$$
selected_4mers/AALL/124_noH.pdb
 OpenBabel03042517503D

 70 69  0  0  1  0  0  0  0  0999 V2000
  -27.3810   34.0930   17.6490 C   0  0  0  0  0  0  0  0  0  0  0  0
  -27.0590   32.6690   18.0690 C   0  0  0  0  0  0  0  0  0  0  0  0
  -27.7030   32.1260   18.9690 O   0  0  0  0  0  0  0  0  0  0  0  0
  -26.0850   32.0510   17.4030 N   0  0  0  0  0  0  0  0  0  0  0  0
  -25.5430   30.7680   17.8430 C   0  0  2  0  0  0  0  0  0  0  0  0
  -24.0530   30.9520   18.0940 C   0  0  0  0  0  0  0  0  0  0  0  0
  -23.3980   31.7370   17.3950 O   0  0  0  0  0  0  0  0  0  0  0  0
  -25.7670   29.6850   16.7850 C   0  0  0  0  0  0  0  0  0  0  0  0
  -23.5190   30.2360   19.0850 N   0  0  0  0  0  0  0  0  0  0  0  0
  -22.1090   30.3180   19.4320 C   0  0  2  0  0  0  0  0  0  0  0  0
  -21.2030   29.4520   18.5370 C   0  0  0  0  0  0  0  0  0  0  0  0
  -20.0840   29.0990   18.9270 O   0  0  0  0  0  0  0  0  0  0  0  0
  -21.8950   29.9720   20.9090 C   0  0  0  0  0  0  0  0  0  0  0  0
  -21.6710   29.1190   17.3430 N   0  0  0  0  0  0  0  0  0  0  0  0
  -20.8200   28.3920   16.3950 C   0  0  2  0  0  0  0  0  0  0  0  0
  -19.8140   29.3570   15.8110 C   0  0  0  0  0  0  0  0  0  0  0  0
  -20.1940   30.4450   15.3520 O   0  0  0  0  0  0  0  0  0  0  0  0
  -21.6460   27.7700   15.2790 C   0  0  0  0  0  0  0  0  0  0  0  0
  -22.6130   26.6550   15.6950 C   0  0  0  0  0  0  0  0  0  0  0  0
  -23.6310   26.4180   14.5840 C   0  0  0  0  0  0  0  0  0  0  0  0
  -21.8650   25.3830   16.0120 C   0  0  0  0  0  0  0  0  0  0  0  0
  -18.5370   28.9590   15.8270 N   0  0  0  0  0  0  0  0  0  0  0  0
  -17.4600   29.7240   15.1850 C   0  0  2  0  0  0  0  0  0  0  0  0
  -16.6400   28.8000   14.3020 C   0  0  0  0  0  0  0  0  0  0  0  0
  -16.3200   27.6770   14.7020 O   0  0  0  0  0  0  0  0  0  0  0  0
  -16.5280   30.3470   16.2420 C   0  0  0  0  0  0  0  0  0  0  0  0
  -17.1670   31.3480   17.2060 C   0  0  0  0  0  0  0  0  0  0  0  0
  -16.1800   31.7250   18.3320 C   0  0  0  0  0  0  0  0  0  0  0  0
  -17.6670   32.5940   16.4600 C   0  0  0  0  0  0  0  0  0  0  0  0
  -16.2740   29.2900   13.1220 N   0  0  0  0  0  0  0  0  0  0  0  0
  -15.3900   28.5740   12.1930 C   0  0  0  0  0  0  0  0  0  0  0  0
  -26.7216   34.3900   16.8604 H   0  0  0  0  0  0  0  0  0  0  0  0
  -27.2550   34.7486   18.4852 H   0  0  0  0  0  0  0  0  0  0  0  0
  -28.3932   34.1434   17.3056 H   0  0  0  0  0  0  0  0  0  0  0  0
  -25.7199   32.4710   16.5909 H   0  0  0  0  0  0  0  0  0  0  0  0
  -26.0410   30.4532   18.7362 H   0  0  0  0  0  0  0  0  0  0  0  0
  -25.2803   29.9689   15.8754 H   0  0  0  0  0  0  0  0  0  0  0  0
  -26.8160   29.5711   16.6077 H   0  0  0  0  0  0  0  0  0  0  0  0
  -25.3612   28.7578   17.1322 H   0  0  0  0  0  0  0  0  0  0  0  0
  -24.1001   29.6305   19.5998 H   0  0  0  0  0  0  0  0  0  0  0  0
  -21.8187   31.3331   19.2585 H   0  0  0  0  0  0  0  0  0  0  0  0
  -22.1851   28.9569   21.0832 H   0  0  0  0  0  0  0  0  0  0  0  0
  -22.4887   30.6220   21.5172 H   0  0  0  0  0  0  0  0  0  0  0  0
  -20.8618   30.0954   21.1582 H   0  0  0  0  0  0  0  0  0  0  0  0
  -22.5918   29.3600   17.0916 H   0  0  0  0  0  0  0  0  0  0  0  0
  -20.3203   27.5998   16.9123 H   0  0  0  0  0  0  0  0  0  0  0  0
  -22.2218   28.5495   14.8254 H   0  0  0  0  0  0  0  0  0  0  0  0
  -20.9391   27.3067   14.6229 H   0  0  0  0  0  0  0  0  0  0  0  0
  -23.1284   26.9594   16.5819 H   0  0  0  0  0  0  0  0  0  0  0  0
  -23.1224   26.1131   13.6933 H   0  0  0  0  0  0  0  0  0  0  0  0
  -24.1698   27.3229   14.3950 H   0  0  0  0  0  0  0  0  0  0  0  0
  -24.3148   25.6518   14.8843 H   0  0  0  0  0  0  0  0  0  0  0  0
  -21.3379   25.0528   15.1414 H   0  0  0  0  0  0  0  0  0  0  0  0
  -22.5589   24.6277   16.3167 H   0  0  0  0  0  0  0  0  0  0  0  0
  -21.1679   25.5668   16.8027 H   0  0  0  0  0  0  0  0  0  0  0  0
  -18.3098   28.1192   16.2878 H   0  0  0  0  0  0  0  0  0  0  0  0
  -17.9030   30.5043   14.6021 H   0  0  0  0  0  0  0  0  0  0  0  0
  -15.7395   30.8517   15.7239 H   0  0  0  0  0  0  0  0  0  0  0  0
  -16.2047   29.5303   16.8530 H   0  0  0  0  0  0  0  0  0  0  0  0
  -18.0182   30.8814   17.6560 H   0  0  0  0  0  0  0  0  0  0  0  0
  -15.3173   32.1947   17.9077 H   0  0  0  0  0  0  0  0  0  0  0  0
  -15.8830   30.8410   18.8567 H   0  0  0  0  0  0  0  0  0  0  0  0
  -16.6557   32.4005   19.0120 H   0  0  0  0  0  0  0  0  0  0  0  0
  -16.8391   33.0879   15.9957 H   0  0  0  0  0  0  0  0  0  0  0  0
  -18.1366   33.2602   17.1532 H   0  0  0  0  0  0  0  0  0  0  0  0
  -18.3736   32.3019   15.7114 H   0  0  0  0  0  0  0  0  0  0  0  0
  -16.6119   30.1761   12.8578 H   0  0  0  0  0  0  0  0  0  0  0  0
  -15.1100   27.6338   12.6202 H   0  0  0  0  0  0  0  0  0  0  0  0
  -14.5126   29.1594   12.0128 H   0  0  0  0  0  0  0  0  0  0  0  0
  -15.9034   28.4072   11.2691 H   0  0  0  0  0  0  0  0  0  0  0  0
  1  2  1  0  0  0  0
  1 32  1  0  0  0  0
  1 33  1  0  0  0  0
  1 34  1  0  0  0  0
  2  3  2  0  0  0  0
  4  5  1  0  0  0  0
  4  2  1  0  0  0  0
  4 35  1  0  0  0  0
  5  6  1  0  0  0  0
  5 36  1  1  0  0  0
  6  9  1  0  0  0  0
  7  6  2  0  0  0  0
  8  5  1  0  0  0  0
  8 37  1  0  0  0  0
  8 38  1  0  0  0  0
  8 39  1  0  0  0  0
  9 10  1  0  0  0  0
  9 40  1  0  0  0  0
 10 13  1  0  0  0  0
 10 41  1  6  0  0  0
 11 12  2  0  0  0  0
 11 10  1  0  0  0  0
 13 42  1  0  0  0  0
 13 43  1  0  0  0  0
 13 44  1  0  0  0  0
 14 11  1  0  0  0  0
 14 45  1  0  0  0  0
 15 14  1  0  0  0  0
 15 46  1  1  0  0  0
 16 22  1  0  0  0  0
 16 15  1  0  0  0  0
 17 16  2  0  0  0  0
 18 19  1  0  0  0  0
 18 15  1  0  0  0  0
 18 47  1  0  0  0  0
 18 48  1  0  0  0  0
 19 21  1  0  0  0  0
 19 49  1  0  0  0  0
 20 19  1  0  0  0  0
 20 50  1  0  0  0  0
 20 51  1  0  0  0  0
 20 52  1  0  0  0  0
 21 53  1  0  0  0  0
 21 54  1  0  0  0  0
 21 55  1  0  0  0  0
 22 56  1  0  0  0  0
 23 22  1  0  0  0  0
 23 26  1  0  0  0  0
 23 57  1  6  0  0  0
 24 25  2  0  0  0  0
 24 23  1  0  0  0  0
 26 27  1  0  0  0  0
 26 58  1  0  0  0  0
 26 59  1  0  0  0  0
 27 28  1  0  0  0  0
 27 60  1  0  0  0  0
 28 61  1  0  0  0  0
 28 62  1  0  0  0  0
 28 63  1  0  0  0  0
 29 27  1  0  0  0  0
 29 64  1  0  0  0  0
 29 65  1  0  0  0  0
 29 66  1  0  0  0  0
 30 24  1  0  0  0  0
 30 67  1  0  0  0  0
 31 30  1  0  0  0  0
 31 68  1  0  0  0  0
 31 69  1  0  0  0  0
 31 70  1  0  0  0  0
M  END
>  <MODEL>
       0

$$$$
