selected_4mers/AALV/275_noH.pdb
 OpenBabel03042517593D

 67 66  0  0  1  0  0  0  0  0999 V2000
   17.8380    8.4610  -32.4510 C   0  0  0  0  0  0  0  0  0  0  0  0
   17.2300    9.3960  -33.4720 C   0  0  0  0  0  0  0  0  0  0  0  0
   16.8150    8.9810  -34.5550 O   0  0  0  0  0  0  0  0  0  0  0  0
   17.1840   10.6740  -33.1170 N   0  0  0  0  0  0  0  0  0  0  0  0
   16.7270   11.7080  -34.0290 C   0  0  2  0  0  0  0  0  0  0  0  0
   17.5730   12.9410  -33.8440 C   0  0  0  0  0  0  0  0  0  0  0  0
   18.1170   13.1800  -32.7660 O   0  0  0  0  0  0  0  0  0  0  0  0
   15.2510   12.0330  -33.7920 C   0  0  0  0  0  0  0  0  0  0  0  0
   17.7100   13.7110  -34.9120 N   0  0  0  0  0  0  0  0  0  0  0  0
   18.3940   14.9900  -34.8310 C   0  0  2  0  0  0  0  0  0  0  0  0
   17.6220   16.0140  -35.6300 C   0  0  0  0  0  0  0  0  0  0  0  0
   17.3150   15.8010  -36.8000 O   0  0  0  0  0  0  0  0  0  0  0  0
   19.8170   14.8780  -35.3330 C   0  0  0  0  0  0  0  0  0  0  0  0
   17.3270   17.1260  -34.9710 N   0  0  0  0  0  0  0  0  0  0  0  0
   16.4690   18.1740  -35.5010 C   0  0  2  0  0  0  0  0  0  0  0  0
   17.3200   19.4170  -35.6940 C   0  0  0  0  0  0  0  0  0  0  0  0
   18.0610   19.8040  -34.7790 O   0  0  0  0  0  0  0  0  0  0  0  0
   15.3730   18.4560  -34.4690 C   0  0  0  0  0  0  0  0  0  0  0  0
   14.3080   19.5180  -34.6740 C   0  0  0  0  0  0  0  0  0  0  0  0
   13.3980   19.1650  -35.8480 C   0  0  0  0  0  0  0  0  0  0  0  0
   13.5130   19.6340  -33.3820 C   0  0  0  0  0  0  0  0  0  0  0  0
   17.2400   20.0340  -36.8720 N   0  0  0  0  0  0  0  0  0  0  0  0
   17.9980   21.2590  -37.1140 C   0  0  2  0  0  0  0  0  0  0  0  0
   17.0230   22.4020  -37.3230 C   0  0  0  0  0  0  0  0  0  0  0  0
   16.0740   22.2710  -38.0820 O   0  0  0  0  0  0  0  0  0  0  0  0
   19.0300   21.1330  -38.2880 C   0  0  0  0  0  0  0  0  0  0  0  0
   18.3500   20.8140  -39.6270 C   0  0  0  0  0  0  0  0  0  0  0  0
   19.8970   22.4040  -38.3760 C   0  0  0  0  0  0  0  0  0  0  0  0
   17.2590   23.5070  -36.6270 N   0  0  0  0  0  0  0  0  0  0  0  0
   16.3250   24.6250  -36.6140 C   0  0  0  0  0  0  0  0  0  0  0  0
   17.8276    7.4612  -32.8321 H   0  0  0  0  0  0  0  0  0  0  0  0
   17.2696    8.5034  -31.5455 H   0  0  0  0  0  0  0  0  0  0  0  0
   18.8471    8.7567  -32.2529 H   0  0  0  0  0  0  0  0  0  0  0  0
   17.4678   10.9285  -32.2093 H   0  0  0  0  0  0  0  0  0  0  0  0
   16.8254   11.3541  -35.0340 H   0  0  0  0  0  0  0  0  0  0  0  0
   15.1206   12.3905  -32.7920 H   0  0  0  0  0  0  0  0  0  0  0  0
   14.6640   11.1498  -33.9344 H   0  0  0  0  0  0  0  0  0  0  0  0
   14.9360   12.7860  -34.4839 H   0  0  0  0  0  0  0  0  0  0  0  0
   17.3424   13.4121  -35.7750 H   0  0  0  0  0  0  0  0  0  0  0  0
   18.4402   15.2991  -33.8076 H   0  0  0  0  0  0  0  0  0  0  0  0
   19.8105   14.5697  -36.3576 H   0  0  0  0  0  0  0  0  0  0  0  0
   20.3463   14.1562  -34.7467 H   0  0  0  0  0  0  0  0  0  0  0  0
   20.3005   15.8289  -35.2498 H   0  0  0  0  0  0  0  0  0  0  0  0
   17.7102   17.2492  -34.0726 H   0  0  0  0  0  0  0  0  0  0  0  0
   16.0253   17.8861  -36.4311 H   0  0  0  0  0  0  0  0  0  0  0  0
   15.8791   18.7150  -33.5625 H   0  0  0  0  0  0  0  0  0  0  0  0
   14.7949   17.5567  -34.5145 H   0  0  0  0  0  0  0  0  0  0  0  0
   14.7656   20.4559  -34.9103 H   0  0  0  0  0  0  0  0  0  0  0  0
   12.9156   18.2293  -35.6566 H   0  0  0  0  0  0  0  0  0  0  0  0
   13.9818   19.0891  -36.7415 H   0  0  0  0  0  0  0  0  0  0  0  0
   12.6589   19.9292  -35.9687 H   0  0  0  0  0  0  0  0  0  0  0  0
   13.0604   18.6912  -33.1559 H   0  0  0  0  0  0  0  0  0  0  0  0
   12.7515   20.3767  -33.4973 H   0  0  0  0  0  0  0  0  0  0  0  0
   14.1681   19.9156  -32.5842 H   0  0  0  0  0  0  0  0  0  0  0  0
   16.6679   19.6630  -37.5821 H   0  0  0  0  0  0  0  0  0  0  0  0
   18.6003   21.4568  -36.2520 H   0  0  0  0  0  0  0  0  0  0  0  0
   19.6706   20.3033  -38.0731 H   0  0  0  0  0  0  0  0  0  0  0  0
   17.6930   21.6155  -39.8932 H   0  0  0  0  0  0  0  0  0  0  0  0
   17.7883   19.9080  -39.5348 H   0  0  0  0  0  0  0  0  0  0  0  0
   19.0948   20.6962  -40.3861 H   0  0  0  0  0  0  0  0  0  0  0  0
   19.2737   23.2468  -38.5907 H   0  0  0  0  0  0  0  0  0  0  0  0
   20.6213   22.2884  -39.1550 H   0  0  0  0  0  0  0  0  0  0  0  0
   20.3980   22.5593  -37.4434 H   0  0  0  0  0  0  0  0  0  0  0  0
   18.0903   23.5732  -36.1037 H   0  0  0  0  0  0  0  0  0  0  0  0
   15.4810   24.3918  -37.2290 H   0  0  0  0  0  0  0  0  0  0  0  0
   16.8109   25.5001  -36.9921 H   0  0  0  0  0  0  0  0  0  0  0  0
   15.9971   24.8042  -35.6114 H   0  0  0  0  0  0  0  0  0  0  0  0
  1 31  1  0  0  0  0
  1 32  1  0  0  0  0
  1 33  1  0  0  0  0
  2  4  1  0  0  0  0
  2  1  1  0  0  0  0
  3  2  2  0  0  0  0
  4 34  1  0  0  0  0
  5  6  1  0  0  0  0
  5  8  1  0  0  0  0
  5  4  1  0  0  0  0
  5 35  1  6  0  0  0
  6  7  2  0  0  0  0
  8 36  1  0  0  0  0
  8 37  1  0  0  0  0
  8 38  1  0  0  0  0
  9 10  1  0  0  0  0
  9  6  1  0  0  0  0
  9 39  1  0  0  0  0
 10 40  1  1  0  0  0
 11 14  1  0  0  0  0
 11 10  1  0  0  0  0
 12 11  2  0  0  0  0
 13 10  1  0  0  0  0
 13 41  1  0  0  0  0
 13 42  1  0  0  0  0
 13 43  1  0  0  0  0
 14 44  1  0  0  0  0
 15 14  1  0  0  0  0
 15 18  1  0  0  0  0
 15 45  1  6  0  0  0
 16 15  1  0  0  0  0
 16 17  2  0  0  0  0
 18 46  1  0  0  0  0
 18 47  1  0  0  0  0
 19 18  1  0  0  0  0
 19 21  1  0  0  0  0
 19 48  1  0  0  0  0
 20 19  1  0  0  0  0
 20 49  1  0  0  0  0
 20 50  1  0  0  0  0
 20 51  1  0  0  0  0
 21 52  1  0  0  0  0
 21 53  1  0  0  0  0
 21 54  1  0  0  0  0
 22 16  1  0  0  0  0
 22 55  1  0  0  0  0
 23 22  1  0  0  0  0
 23 56  1  1  0  0  0
 24 23  1  0  0  0  0
 24 29  1  0  0  0  0
 25 24  2  0  0  0  0
 26 23  1  0  0  0  0
 26 57  1  0  0  0  0
 27 26  1  0  0  0  0
 27 58  1  0  0  0  0
 27 59  1  0  0  0  0
 27 60  1  0  0  0  0
 28 26  1  0  0  0  0
 28 61  1  0  0  0  0
 28 62  1  0  0  0  0
 28 63  1  0  0  0  0
 29 30  1  0  0  0  0
 29 64  1  0  0  0  0
 30 65  1  0  0  0  0
 30 66  1  0  0  0  0
 30 67  1  0  0  0  0
M  END
>  <MODEL>
       0

$$$$
selected_4mers/AALV/276_noH.pdb
 OpenBabel03042517593D

 67 66  0  0  1  0  0  0  0  0999 V2000
   35.7180   16.9350   41.8380 C   0  0  0  0  0  0  0  0  0  0  0  0
   35.2660   15.6410   41.1580 C   0  0  0  0  0  0  0  0  0  0  0  0
   34.1660   15.5750   40.5920 O   0  0  0  0  0  0  0  0  0  0  0  0
   36.1200   14.6190   41.2190 N   0  0  0  0  0  0  0  0  0  0  0  0
   35.7790   13.2870   40.7240 C   0  0  2  0  0  0  0  0  0  0  0  0
   34.5970   12.7110   41.5050 C   0  0  0  0  0  0  0  0  0  0  0  0
   33.6950   12.0950   40.9260 O   0  0  0  0  0  0  0  0  0  0  0  0
   36.9760   12.3640   40.8350 C   0  0  0  0  0  0  0  0  0  0  0  0
   34.6110   12.9230   42.8210 N   0  0  0  0  0  0  0  0  0  0  0  0
   33.5180   12.4880   43.6830 C   0  0  2  0  0  0  0  0  0  0  0  0
   32.2160   13.2110   43.3260 C   0  0  0  0  0  0  0  0  0  0  0  0
   31.1510   12.6020   43.3040 O   0  0  0  0  0  0  0  0  0  0  0  0
   33.8760   12.7250   45.1620 C   0  0  0  0  0  0  0  0  0  0  0  0
   32.3100   14.5120   43.0630 N   0  0  0  0  0  0  0  0  0  0  0  0
   31.1240   15.3000   42.7000 C   0  0  2  0  0  0  0  0  0  0  0  0
   30.5220   14.8100   41.3990 C   0  0  0  0  0  0  0  0  0  0  0  0
   29.3070   14.7250   41.2800 O   0  0  0  0  0  0  0  0  0  0  0  0
   31.4490   16.7940   42.5880 C   0  0  0  0  0  0  0  0  0  0  0  0
   31.2480   17.6070   43.8640 C   0  0  0  0  0  0  0  0  0  0  0  0
   31.8510   18.9870   43.7150 C   0  0  0  0  0  0  0  0  0  0  0  0
   29.7800   17.7020   44.1890 C   0  0  0  0  0  0  0  0  0  0  0  0
   31.3780   14.4680   40.4410 N   0  0  0  0  0  0  0  0  0  0  0  0
   30.9380   13.9920   39.1340 C   0  0  2  0  0  0  0  0  0  0  0  0
   30.2460   12.6340   39.2530 C   0  0  0  0  0  0  0  0  0  0  0  0
   29.1890   12.4130   38.6590 O   0  0  0  0  0  0  0  0  0  0  0  0
   32.1250   13.9160   38.1290 C   0  0  0  0  0  0  0  0  0  0  0  0
   31.7610   13.0650   36.9160 C   0  0  0  0  0  0  0  0  0  0  0  0
   32.5530   15.3110   37.7190 C   0  0  0  0  0  0  0  0  0  0  0  0
   30.8240   11.7240   40.0330 N   0  0  0  0  0  0  0  0  0  0  0  0
   30.1870   10.4260   40.2520 C   0  0  0  0  0  0  0  0  0  0  0  0
   34.9588   17.6807   41.7263 H   0  0  0  0  0  0  0  0  0  0  0  0
   36.6245   17.2782   41.3848 H   0  0  0  0  0  0  0  0  0  0  0  0
   35.8868   16.7510   42.8785 H   0  0  0  0  0  0  0  0  0  0  0  0
   37.0109   14.7668   41.6110 H   0  0  0  0  0  0  0  0  0  0  0  0
   35.4997   13.3697   39.6944 H   0  0  0  0  0  0  0  0  0  0  0  0
   37.2634   12.2745   41.8618 H   0  0  0  0  0  0  0  0  0  0  0  0
   37.7907   12.7670   40.2704 H   0  0  0  0  0  0  0  0  0  0  0  0
   36.7190   11.3989   40.4512 H   0  0  0  0  0  0  0  0  0  0  0  0
   35.3812   13.3865   43.2225 H   0  0  0  0  0  0  0  0  0  0  0  0
   33.3686   11.4398   43.5286 H   0  0  0  0  0  0  0  0  0  0  0  0
   34.0280   13.7709   45.3290 H   0  0  0  0  0  0  0  0  0  0  0  0
   34.7720   12.1916   45.4020 H   0  0  0  0  0  0  0  0  0  0  0  0
   33.0768   12.3772   45.7826 H   0  0  0  0  0  0  0  0  0  0  0  0
   33.1884   14.9538   43.1124 H   0  0  0  0  0  0  0  0  0  0  0  0
   30.4102   15.1682   43.4862 H   0  0  0  0  0  0  0  0  0  0  0  0
   30.8218   17.2119   41.8285 H   0  0  0  0  0  0  0  0  0  0  0  0
   32.4937   16.8517   42.3641 H   0  0  0  0  0  0  0  0  0  0  0  0
   31.7464   17.1108   44.6704 H   0  0  0  0  0  0  0  0  0  0  0  0
   31.3668   19.5030   42.9124 H   0  0  0  0  0  0  0  0  0  0  0  0
   32.8961   18.8986   43.5032 H   0  0  0  0  0  0  0  0  0  0  0  0
   31.7164   19.5351   44.6241 H   0  0  0  0  0  0  0  0  0  0  0  0
   29.2690   18.1969   43.3897 H   0  0  0  0  0  0  0  0  0  0  0  0
   29.6503   18.2583   45.0938 H   0  0  0  0  0  0  0  0  0  0  0  0
   29.3781   16.7183   44.3144 H   0  0  0  0  0  0  0  0  0  0  0  0
   32.3435   14.5385   40.6200 H   0  0  0  0  0  0  0  0  0  0  0  0
   30.2305   14.6990   38.7540 H   0  0  0  0  0  0  0  0  0  0  0  0
   32.9530   13.4418   38.6132 H   0  0  0  0  0  0  0  0  0  0  0  0
   30.9332   13.5094   36.4040 H   0  0  0  0  0  0  0  0  0  0  0  0
   31.4940   12.0803   37.2383 H   0  0  0  0  0  0  0  0  0  0  0  0
   32.6005   13.0085   36.2550 H   0  0  0  0  0  0  0  0  0  0  0  0
   31.7386   15.8051   37.2316 H   0  0  0  0  0  0  0  0  0  0  0  0
   33.3840   15.2464   37.0480 H   0  0  0  0  0  0  0  0  0  0  0  0
   32.8386   15.8663   38.5879 H   0  0  0  0  0  0  0  0  0  0  0  0
   31.6853   11.9257   40.4651 H   0  0  0  0  0  0  0  0  0  0  0  0
   29.2662   10.3843   39.7085 H   0  0  0  0  0  0  0  0  0  0  0  0
   29.9912   10.2964   41.2959 H   0  0  0  0  0  0  0  0  0  0  0  0
   30.8375    9.6475   39.9118 H   0  0  0  0  0  0  0  0  0  0  0  0
  1 31  1  0  0  0  0
  1 32  1  0  0  0  0
  1 33  1  0  0  0  0
  2  4  1  0  0  0  0
  2  1  1  0  0  0  0
  3  2  2  0  0  0  0
  4 34  1  0  0  0  0
  5  8  1  0  0  0  0
  5  4  1  0  0  0  0
  5  6  1  0  0  0  0
  5 35  1  6  0  0  0
  6  9  1  0  0  0  0
  7  6  2  0  0  0  0
  8 36  1  0  0  0  0
  8 37  1  0  0  0  0
  8 38  1  0  0  0  0
  9 10  1  0  0  0  0
  9 39  1  0  0  0  0
 10 13  1  0  0  0  0
 10 40  1  6  0  0  0
 11 10  1  0  0  0  0
 12 11  2  0  0  0  0
 13 41  1  0  0  0  0
 13 42  1  0  0  0  0
 13 43  1  0  0  0  0
 14 11  1  0  0  0  0
 14 44  1  0  0  0  0
 15 14  1  0  0  0  0
 15 45  1  1  0  0  0
 16 15  1  0  0  0  0
 17 16  2  0  0  0  0
 18 15  1  0  0  0  0
 18 19  1  0  0  0  0
 18 46  1  0  0  0  0
 18 47  1  0  0  0  0
 19 21  1  0  0  0  0
 19 48  1  0  0  0  0
 20 19  1  0  0  0  0
 20 49  1  0  0  0  0
 20 50  1  0  0  0  0
 20 51  1  0  0  0  0
 21 52  1  0  0  0  0
 21 53  1  0  0  0  0
 21 54  1  0  0  0  0
 22 16  1  0  0  0  0
 22 55  1  0  0  0  0
 23 24  1  0  0  0  0
 23 22  1  0  0  0  0
 23 56  1  6  0  0  0
 24 29  1  0  0  0  0
 25 24  2  0  0  0  0
 26 23  1  0  0  0  0
 26 57  1  0  0  0  0
 27 26  1  0  0  0  0
 27 58  1  0  0  0  0
 27 59  1  0  0  0  0
 27 60  1  0  0  0  0
 28 26  1  0  0  0  0
 28 61  1  0  0  0  0
 28 62  1  0  0  0  0
 28 63  1  0  0  0  0
 29 30  1  0  0  0  0
 29 64  1  0  0  0  0
 30 65  1  0  0  0  0
 30 66  1  0  0  0  0
 30 67  1  0  0  0  0
M  END
>  <MODEL>
       0

$$$$
selected_4mers/AALV/277_noH.pdb
 OpenBabel03042517593D

 67 66  0  0  1  0  0  0  0  0999 V2000
   27.5110    2.7770   10.2780 C   0  0  0  0  0  0  0  0  0  0  0  0
   27.8680    4.1670   10.8360 C   0  0  0  0  0  0  0  0  0  0  0  0
   27.2040    5.1500   10.5830 O   0  0  0  0  0  0  0  0  0  0  0  0
   28.9280    4.2190   11.6360 N   0  0  0  0  0  0  0  0  0  0  0  0
   29.3490    5.4850   12.2400 C   0  0  2  0  0  0  0  0  0  0  0  0
   29.6610    6.5600   11.2030 C   0  0  0  0  0  0  0  0  0  0  0  0
   29.3940    7.7360   11.4200 O   0  0  0  0  0  0  0  0  0  0  0  0
   30.5400    5.2660   13.1380 C   0  0  0  0  0  0  0  0  0  0  0  0
   30.2670    6.1570   10.0870 N   0  0  0  0  0  0  0  0  0  0  0  0
   30.5710    7.1410    9.0240 C   0  0  2  0  0  0  0  0  0  0  0  0
   29.3210    7.8290    8.5230 C   0  0  0  0  0  0  0  0  0  0  0  0
   29.2910    9.0170    8.2600 O   0  0  0  0  0  0  0  0  0  0  0  0
   31.3420    6.5010    7.8510 C   0  0  0  0  0  0  0  0  0  0  0  0
   28.2450    7.0370    8.4250 N   0  0  0  0  0  0  0  0  0  0  0  0
   26.9410    7.5640    7.9760 C   0  0  2  0  0  0  0  0  0  0  0  0
   26.3340    8.4950    9.0570 C   0  0  0  0  0  0  0  0  0  0  0  0
   25.8320    9.5960    8.7550 O   0  0  0  0  0  0  0  0  0  0  0  0
   26.0060    6.4320    7.5820 C   0  0  0  0  0  0  0  0  0  0  0  0
   26.5020    5.6030    6.3930 C   0  0  0  0  0  0  0  0  0  0  0  0
   25.5000    4.4820    6.1410 C   0  0  0  0  0  0  0  0  0  0  0  0
   26.6650    6.4660    5.1440 C   0  0  0  0  0  0  0  0  0  0  0  0
   26.4560    8.1030   10.3100 N   0  0  0  0  0  0  0  0  0  0  0  0
   26.0430    8.9650   11.4220 C   0  0  2  0  0  0  0  0  0  0  0  0
   26.7640   10.3310   11.3920 C   0  0  0  0  0  0  0  0  0  0  0  0
   26.1890   11.3880   11.5980 O   0  0  0  0  0  0  0  0  0  0  0  0
   26.2030    8.2580   12.7430 C   0  0  0  0  0  0  0  0  0  0  0  0
   26.0070    9.2470   13.9120 C   0  0  0  0  0  0  0  0  0  0  0  0
   25.2520    7.0450   12.8110 C   0  0  0  0  0  0  0  0  0  0  0  0
   28.0790   10.2560   11.1530 N   0  0  0  0  0  0  0  0  0  0  0  0
   28.8850   11.5020   11.1470 C   0  0  0  0  0  0  0  0  0  0  0  0
   26.6472    2.8553    9.6514 H   0  0  0  0  0  0  0  0  0  0  0  0
   27.3045    2.1096   11.0884 H   0  0  0  0  0  0  0  0  0  0  0  0
   28.3333    2.4002    9.7064 H   0  0  0  0  0  0  0  0  0  0  0  0
   29.4360    3.3971   11.8247 H   0  0  0  0  0  0  0  0  0  0  0  0
   28.5233    5.8414   12.8197 H   0  0  0  0  0  0  0  0  0  0  0  0
   31.3644    4.9096   12.5564 H   0  0  0  0  0  0  0  0  0  0  0  0
   30.2934    4.5433   13.8875 H   0  0  0  0  0  0  0  0  0  0  0  0
   30.8074    6.1896   13.6074 H   0  0  0  0  0  0  0  0  0  0  0  0
   30.5111    5.2104    9.9701 H   0  0  0  0  0  0  0  0  0  0  0  0
   31.2026    7.8824    9.4672 H   0  0  0  0  0  0  0  0  0  0  0  0
   30.7317    5.7537    7.3885 H   0  0  0  0  0  0  0  0  0  0  0  0
   32.2405    6.0506    8.2182 H   0  0  0  0  0  0  0  0  0  0  0  0
   31.5886    7.2548    7.1328 H   0  0  0  0  0  0  0  0  0  0  0  0
   28.3255    6.0837    8.6572 H   0  0  0  0  0  0  0  0  0  0  0  0
   27.0870    8.1572    7.0975 H   0  0  0  0  0  0  0  0  0  0  0  0
   25.8926    5.7804    8.4231 H   0  0  0  0  0  0  0  0  0  0  0  0
   25.0822    6.8817    7.2834 H   0  0  0  0  0  0  0  0  0  0  0  0
   27.4643    5.1946    6.6211 H   0  0  0  0  0  0  0  0  0  0  0  0
   24.5429    4.9034    5.9143 H   0  0  0  0  0  0  0  0  0  0  0  0
   25.4222    3.8699    7.0152 H   0  0  0  0  0  0  0  0  0  0  0  0
   25.8316    3.8859    5.3166 H   0  0  0  0  0  0  0  0  0  0  0  0
   25.7207    6.8950    4.8812 H   0  0  0  0  0  0  0  0  0  0  0  0
   27.0190    5.8606    4.3359 H   0  0  0  0  0  0  0  0  0  0  0  0
   27.3696    7.2472    5.3397 H   0  0  0  0  0  0  0  0  0  0  0  0
   26.8319    7.2138   10.5028 H   0  0  0  0  0  0  0  0  0  0  0  0
   25.0009    9.1758   11.3014 H   0  0  0  0  0  0  0  0  0  0  0  0
   27.1995    7.8784   12.8314 H   0  0  0  0  0  0  0  0  0  0  0  0
   25.0200    9.6580   13.8698 H   0  0  0  0  0  0  0  0  0  0  0  0
   26.7255   10.0362   13.8358 H   0  0  0  0  0  0  0  0  0  0  0  0
   26.1397    8.7323   14.8407 H   0  0  0  0  0  0  0  0  0  0  0  0
   24.2395    7.3804   12.7261 H   0  0  0  0  0  0  0  0  0  0  0  0
   25.3835    6.5407   13.7455 H   0  0  0  0  0  0  0  0  0  0  0  0
   25.4735    6.3727   12.0086 H   0  0  0  0  0  0  0  0  0  0  0  0
   28.5060    9.3853   10.9834 H   0  0  0  0  0  0  0  0  0  0  0  0
   28.2496   12.3388   11.3495 H   0  0  0  0  0  0  0  0  0  0  0  0
   29.3431   11.6259   10.1880 H   0  0  0  0  0  0  0  0  0  0  0  0
   29.6435   11.4398   11.8992 H   0  0  0  0  0  0  0  0  0  0  0  0
  1  2  1  0  0  0  0
  1 31  1  0  0  0  0
  1 32  1  0  0  0  0
  1 33  1  0  0  0  0
  2  4  1  0  0  0  0
  3  2  2  0  0  0  0
  4  5  1  0  0  0  0
  4 34  1  0  0  0  0
  5  8  1  0  0  0  0
  5 35  1  1  0  0  0
  6  7  2  0  0  0  0
  6  5  1  0  0  0  0
  8 36  1  0  0  0  0
  8 37  1  0  0  0  0
  8 38  1  0  0  0  0
  9  6  1  0  0  0  0
  9 39  1  0  0  0  0
 10  9  1  0  0  0  0
 10 40  1  1  0  0  0
 11 10  1  0  0  0  0
 12 11  2  0  0  0  0
 13 10  1  0  0  0  0
 13 41  1  0  0  0  0
 13 42  1  0  0  0  0
 13 43  1  0  0  0  0
 14 11  1  0  0  0  0
 14 44  1  0  0  0  0
 15 14  1  0  0  0  0
 15 16  1  0  0  0  0
 15 45  1  6  0  0  0
 16 22  1  0  0  0  0
 17 16  2  0  0  0  0
 18 15  1  0  0  0  0
 18 46  1  0  0  0  0
 18 47  1  0  0  0  0
 19 18  1  0  0  0  0
 19 48  1  0  0  0  0
 20 19  1  0  0  0  0
 20 49  1  0  0  0  0
 20 50  1  0  0  0  0
 20 51  1  0  0  0  0
 21 19  1  0  0  0  0
 21 52  1  0  0  0  0
 21 53  1  0  0  0  0
 21 54  1  0  0  0  0
 22 23  1  0  0  0  0
 22 55  1  0  0  0  0
 23 26  1  0  0  0  0
 23 56  1  6  0  0  0
 24 23  1  0  0  0  0
 24 25  2  0  0  0  0
 26 28  1  0  0  0  0
 26 27  1  0  0  0  0
 26 57  1  0  0  0  0
 27 58  1  0  0  0  0
 27 59  1  0  0  0  0
 27 60  1  0  0  0  0
 28 61  1  0  0  0  0
 28 62  1  0  0  0  0
 28 63  1  0  0  0  0
 29 24  1  0  0  0  0
 29 64  1  0  0  0  0
 30 29  1  0  0  0  0
 30 65  1  0  0  0  0
 30 66  1  0  0  0  0
 30 67  1  0  0  0  0
M  END
>  <MODEL>
       0

$$$$
selected_4mers/AALV/278_noH.pdb
 OpenBabel03042517593D

 67 66  0  0  1  0  0  0  0  0999 V2000
    8.5380   57.6640   -3.4000 C   0  0  0  0  0  0  0  0  0  0  0  0
    7.7580   57.8630   -4.7210 C   0  0  0  0  0  0  0  0  0  0  0  0
    7.6730   58.9830   -5.2140 O   0  0  0  0  0  0  0  0  0  0  0  0
    7.2120   56.7900   -5.2950 N   0  0  0  0  0  0  0  0  0  0  0  0
    6.5780   56.9070   -6.6070 C   0  0  2  0  0  0  0  0  0  0  0  0
    5.1590   57.4230   -6.5130 C   0  0  0  0  0  0  0  0  0  0  0  0
    4.5290   57.6440   -7.5400 O   0  0  0  0  0  0  0  0  0  0  0  0
    6.5620   55.5190   -7.3130 C   0  0  0  0  0  0  0  0  0  0  0  0
    4.6470   57.6340   -5.3000 N   0  0  0  0  0  0  0  0  0  0  0  0
    3.2050   57.7990   -5.1370 C   0  0  2  0  0  0  0  0  0  0  0  0
    2.9020   58.7050   -3.9290 C   0  0  0  0  0  0  0  0  0  0  0  0
    3.7630   58.9120   -3.0500 O   0  0  0  0  0  0  0  0  0  0  0  0
    2.6170   56.4570   -4.8620 C   0  0  0  0  0  0  0  0  0  0  0  0
    1.6520   59.1740   -3.8630 N   0  0  0  0  0  0  0  0  0  0  0  0
    1.1000   59.6710   -2.6200 C   0  0  2  0  0  0  0  0  0  0  0  0
    0.3860   58.4450   -2.0190 C   0  0  0  0  0  0  0  0  0  0  0  0
   -0.4190   57.7930   -2.7040 O   0  0  0  0  0  0  0  0  0  0  0  0
    0.0970   60.7770   -2.8580 C   0  0  0  0  0  0  0  0  0  0  0  0
   -0.6110   61.2840   -1.5960 C   0  0  0  0  0  0  0  0  0  0  0  0
    0.3290   62.0750   -0.6540 C   0  0  0  0  0  0  0  0  0  0  0  0
   -1.8220   62.1040   -1.9760 C   0  0  0  0  0  0  0  0  0  0  0  0
    0.7210   58.0810   -0.7920 N   0  0  0  0  0  0  0  0  0  0  0  0
    0.2420   56.8070   -0.2500 C   0  0  2  0  0  0  0  0  0  0  0  0
   -0.6580   57.1290    0.9450 C   0  0  0  0  0  0  0  0  0  0  0  0
   -0.2640   57.8810    1.8520 O   0  0  0  0  0  0  0  0  0  0  0  0
    1.3860   55.9130    0.1700 C   0  0  0  0  0  0  0  0  0  0  0  0
    0.8560   54.5800    0.7920 C   0  0  0  0  0  0  0  0  0  0  0  0
    2.3510   55.6980   -1.0220 C   0  0  0  0  0  0  0  0  0  0  0  0
   -1.8770   56.6090    0.9030 N   0  0  0  0  0  0  0  0  0  0  0  0
   -2.9200   56.9380    1.9060 C   0  0  0  0  0  0  0  0  0  0  0  0
    8.5081   56.6317   -3.1202 H   0  0  0  0  0  0  0  0  0  0  0  0
    8.0905   58.2557   -2.6289 H   0  0  0  0  0  0  0  0  0  0  0  0
    9.5550   57.9670   -3.5372 H   0  0  0  0  0  0  0  0  0  0  0  0
    7.2359   55.9197   -4.8354 H   0  0  0  0  0  0  0  0  0  0  0  0
    7.1525   57.6107   -7.1723 H   0  0  0  0  0  0  0  0  0  0  0  0
    5.9835   54.8306   -6.7331 H   0  0  0  0  0  0  0  0  0  0  0  0
    7.5636   55.1541   -7.4050 H   0  0  0  0  0  0  0  0  0  0  0  0
    6.1279   55.6187   -8.2859 H   0  0  0  0  0  0  0  0  0  0  0  0
    5.2401   57.6785   -4.5155 H   0  0  0  0  0  0  0  0  0  0  0  0
    2.7957   58.2381   -6.0228 H   0  0  0  0  0  0  0  0  0  0  0  0
    3.0510   56.0532   -3.9712 H   0  0  0  0  0  0  0  0  0  0  0  0
    2.8189   55.8037   -5.6850 H   0  0  0  0  0  0  0  0  0  0  0  0
    1.5590   56.5509   -4.7324 H   0  0  0  0  0  0  0  0  0  0  0  0
    1.0958   59.1817   -4.6753 H   0  0  0  0  0  0  0  0  0  0  0  0
    1.8560   60.0841   -1.9855 H   0  0  0  0  0  0  0  0  0  0  0  0
   -0.6478   60.4114   -3.5337 H   0  0  0  0  0  0  0  0  0  0  0  0
    0.6493   61.6064   -3.2479 H   0  0  0  0  0  0  0  0  0  0  0  0
   -0.9288   60.4253   -1.0424 H   0  0  0  0  0  0  0  0  0  0  0  0
    0.6816   62.9517   -1.1559 H   0  0  0  0  0  0  0  0  0  0  0  0
    1.1616   61.4602   -0.3825 H   0  0  0  0  0  0  0  0  0  0  0  0
   -0.2066   62.3598    0.2275 H   0  0  0  0  0  0  0  0  0  0  0  0
   -1.5104   62.9646   -2.5302 H   0  0  0  0  0  0  0  0  0  0  0  0
   -2.3336   62.4165   -1.0897 H   0  0  0  0  0  0  0  0  0  0  0  0
   -2.4796   61.5115   -2.5772 H   0  0  0  0  0  0  0  0  0  0  0  0
    1.2920   58.6660   -0.2434 H   0  0  0  0  0  0  0  0  0  0  0  0
   -0.2997   56.2732   -1.0027 H   0  0  0  0  0  0  0  0  0  0  0  0
    1.9496   56.3897    0.9446 H   0  0  0  0  0  0  0  0  0  0  0  0
    0.2792   54.0506    0.0626 H   0  0  0  0  0  0  0  0  0  0  0  0
    0.2421   54.8014    1.6400 H   0  0  0  0  0  0  0  0  0  0  0  0
    1.6839   53.9757    1.0991 H   0  0  0  0  0  0  0  0  0  0  0  0
    1.8268   55.2213   -1.8238 H   0  0  0  0  0  0  0  0  0  0  0  0
    3.1678   55.0800   -0.7126 H   0  0  0  0  0  0  0  0  0  0  0  0
    2.7251   56.6442   -1.3532 H   0  0  0  0  0  0  0  0  0  0  0  0
   -2.0987   55.9804    0.1785 H   0  0  0  0  0  0  0  0  0  0  0  0
   -2.5229   57.6290    2.6199 H   0  0  0  0  0  0  0  0  0  0  0  0
   -3.2272   56.0441    2.4075 H   0  0  0  0  0  0  0  0  0  0  0  0
   -3.7620   57.3781    1.4138 H   0  0  0  0  0  0  0  0  0  0  0  0
  1 31  1  0  0  0  0
  1 32  1  0  0  0  0
  1 33  1  0  0  0  0
  2  1  1  0  0  0  0
  3  2  2  0  0  0  0
  4  2  1  0  0  0  0
  4 34  1  0  0  0  0
  5  6  1  0  0  0  0
  5  4  1  0  0  0  0
  5 35  1  6  0  0  0
  6  9  1  0  0  0  0
  7  6  2  0  0  0  0
  8  5  1  0  0  0  0
  8 36  1  0  0  0  0
  8 37  1  0  0  0  0
  8 38  1  0  0  0  0
  9 10  1  0  0  0  0
  9 39  1  0  0  0  0
 10 13  1  0  0  0  0
 10 11  1  0  0  0  0
 10 40  1  6  0  0  0
 11 14  1  0  0  0  0
 11 12  2  0  0  0  0
 13 41  1  0  0  0  0
 13 42  1  0  0  0  0
 13 43  1  0  0  0  0
 14 15  1  0  0  0  0
 14 44  1  0  0  0  0
 15 16  1  0  0  0  0
 15 45  1  1  0  0  0
 16 22  1  0  0  0  0
 17 16  2  0  0  0  0
 18 15  1  0  0  0  0
 18 19  1  0  0  0  0
 18 46  1  0  0  0  0
 18 47  1  0  0  0  0
 19 20  1  0  0  0  0
 19 48  1  0  0  0  0
 20 49  1  0  0  0  0
 20 50  1  0  0  0  0
 20 51  1  0  0  0  0
 21 19  1  0  0  0  0
 21 52  1  0  0  0  0
 21 53  1  0  0  0  0
 21 54  1  0  0  0  0
 22 23  1  0  0  0  0
 22 55  1  0  0  0  0
 23 26  1  0  0  0  0
 23 24  1  0  0  0  0
 23 56  1  6  0  0  0
 24 25  2  0  0  0  0
 26 27  1  0  0  0  0
 26 57  1  0  0  0  0
 27 58  1  0  0  0  0
 27 59  1  0  0  0  0
 27 60  1  0  0  0  0
 28 26  1  0  0  0  0
 28 61  1  0  0  0  0
 28 62  1  0  0  0  0
 28 63  1  0  0  0  0
 29 24  1  0  0  0  0
 29 30  1  0  0  0  0
 29 64  1  0  0  0  0
 30 65  1  0  0  0  0
 30 66  1  0  0  0  0
 30 67  1  0  0  0  0
M  END
>  <MODEL>
       0

$$$$
selected_4mers/AALV/279_noH.pdb
 OpenBabel03042517593D

 67 66  0  0  1  0  0  0  0  0999 V2000
   18.6030   50.6220   30.9920 C   0  0  0  0  0  0  0  0  0  0  0  0
   19.9550   49.9730   31.1730 C   0  0  0  0  0  0  0  0  0  0  0  0
   20.8690   50.1890   30.3710 O   0  0  0  0  0  0  0  0  0  0  0  0
   20.0780   49.1780   32.2420 N   0  0  0  0  0  0  0  0  0  0  0  0
   21.3410   48.5160   32.6100 C   0  0  2  0  0  0  0  0  0  0  0  0
   22.5390   49.4420   32.4650 C   0  0  0  0  0  0  0  0  0  0  0  0
   23.5960   49.0310   31.9880 O   0  0  0  0  0  0  0  0  0  0  0  0
   21.5590   47.2000   31.8100 C   0  0  0  0  0  0  0  0  0  0  0  0
   22.3680   50.6750   32.9480 N   0  0  0  0  0  0  0  0  0  0  0  0
   23.3090   51.7590   32.6600 C   0  0  2  0  0  0  0  0  0  0  0  0
   24.4450   51.9440   33.6830 C   0  0  0  0  0  0  0  0  0  0  0  0
   25.3760   52.7120   33.4340 O   0  0  0  0  0  0  0  0  0  0  0  0
   22.5290   53.0590   32.5060 C   0  0  0  0  0  0  0  0  0  0  0  0
   24.3430   51.2720   34.8320 N   0  0  0  0  0  0  0  0  0  0  0  0
   25.2260   51.5400   35.9750 C   0  0  2  0  0  0  0  0  0  0  0  0
   26.2580   50.4420   36.2370 C   0  0  0  0  0  0  0  0  0  0  0  0
   26.3630   49.4760   35.4760 O   0  0  0  0  0  0  0  0  0  0  0  0
   24.3670   51.8310   37.2210 C   0  0  0  0  0  0  0  0  0  0  0  0
   23.6500   53.1990   37.1930 C   0  0  0  0  0  0  0  0  0  0  0  0
   22.6180   53.3140   38.3500 C   0  0  0  0  0  0  0  0  0  0  0  0
   24.5990   54.4060   37.2100 C   0  0  0  0  0  0  0  0  0  0  0  0
   27.0540   50.5990   37.2930 N   0  0  0  0  0  0  0  0  0  0  0  0
   28.1780   49.6970   37.5310 C   0  0  2  0  0  0  0  0  0  0  0  0
   27.7560   48.4050   38.2430 C   0  0  0  0  0  0  0  0  0  0  0  0
   28.4410   47.3900   38.0800 O   0  0  0  0  0  0  0  0  0  0  0  0
   29.3130   50.4460   38.2890 C   0  0  0  0  0  0  0  0  0  0  0  0
   30.4710   49.5330   38.6750 C   0  0  0  0  0  0  0  0  0  0  0  0
   29.8480   51.6060   37.4100 C   0  0  0  0  0  0  0  0  0  0  0  0
   26.6570   48.4590   39.0160 N   0  0  0  0  0  0  0  0  0  0  0  0
   26.0790   47.2640   39.6850 C   0  0  0  0  0  0  0  0  0  0  0  0
   18.6150   51.2320   30.1130 H   0  0  0  0  0  0  0  0  0  0  0  0
   18.3819   51.2294   31.8447 H   0  0  0  0  0  0  0  0  0  0  0  0
   17.8544   49.8643   30.8901 H   0  0  0  0  0  0  0  0  0  0  0  0
   19.2873   49.0286   32.8091 H   0  0  0  0  0  0  0  0  0  0  0  0
   21.2565   48.2603   33.6456 H   0  0  0  0  0  0  0  0  0  0  0  0
   21.6471   47.4265   30.7680 H   0  0  0  0  0  0  0  0  0  0  0  0
   20.7255   46.5469   31.9638 H   0  0  0  0  0  0  0  0  0  0  0  0
   22.4543   46.7213   32.1479 H   0  0  0  0  0  0  0  0  0  0  0  0
   21.5851   50.8609   33.5152 H   0  0  0  0  0  0  0  0  0  0  0  0
   23.8060   51.4814   31.7540 H   0  0  0  0  0  0  0  0  0  0  0  0
   22.0492   53.2989   33.4318 H   0  0  0  0  0  0  0  0  0  0  0  0
   21.7900   52.9431   31.7409 H   0  0  0  0  0  0  0  0  0  0  0  0
   23.2000   53.8479   32.2371 H   0  0  0  0  0  0  0  0  0  0  0  0
   23.6536   50.5742   34.9160 H   0  0  0  0  0  0  0  0  0  0  0  0
   25.8117   52.4015   35.7308 H   0  0  0  0  0  0  0  0  0  0  0  0
   25.0034   51.8037   38.0807 H   0  0  0  0  0  0  0  0  0  0  0  0
   23.6013   51.0840   37.2468 H   0  0  0  0  0  0  0  0  0  0  0  0
   23.1411   53.2301   36.2523 H   0  0  0  0  0  0  0  0  0  0  0  0
   23.1300   53.2826   39.2890 H   0  0  0  0  0  0  0  0  0  0  0  0
   21.9265   52.4994   38.2934 H   0  0  0  0  0  0  0  0  0  0  0  0
   22.0872   54.2391   38.2639 H   0  0  0  0  0  0  0  0  0  0  0  0
   25.1369   54.4238   38.1348 H   0  0  0  0  0  0  0  0  0  0  0  0
   24.0313   55.3075   37.1102 H   0  0  0  0  0  0  0  0  0  0  0  0
   25.2901   54.3278   36.3969 H   0  0  0  0  0  0  0  0  0  0  0  0
   26.8821   51.3352   37.9237 H   0  0  0  0  0  0  0  0  0  0  0  0
   28.5587   49.3874   36.5802 H   0  0  0  0  0  0  0  0  0  0  0  0
   28.8874   50.8221   39.1958 H   0  0  0  0  0  0  0  0  0  0  0  0
   30.9230   49.1366   37.7899 H   0  0  0  0  0  0  0  0  0  0  0  0
   30.1054   48.7293   39.2794 H   0  0  0  0  0  0  0  0  0  0  0  0
   31.1975   50.0922   39.2267 H   0  0  0  0  0  0  0  0  0  0  0  0
   30.2681   51.2073   36.5103 H   0  0  0  0  0  0  0  0  0  0  0  0
   30.6011   52.1430   37.9479 H   0  0  0  0  0  0  0  0  0  0  0  0
   29.0439   52.2681   37.1652 H   0  0  0  0  0  0  0  0  0  0  0  0
   26.2152   49.3293   39.1447 H   0  0  0  0  0  0  0  0  0  0  0  0
   26.6686   46.4029   39.4488 H   0  0  0  0  0  0  0  0  0  0  0  0
   25.0761   47.1142   39.3434 H   0  0  0  0  0  0  0  0  0  0  0  0
   26.0762   47.4147   40.7443 H   0  0  0  0  0  0  0  0  0  0  0  0
  1  2  1  0  0  0  0
  1 31  1  0  0  0  0
  1 32  1  0  0  0  0
  1 33  1  0  0  0  0
  2  4  1  0  0  0  0
  3  2  2  0  0  0  0
  4  5  1  0  0  0  0
  4 34  1  0  0  0  0
  5 35  1  1  0  0  0
  6  5  1  0  0  0  0
  6  9  1  0  0  0  0
  7  6  2  0  0  0  0
  8  5  1  0  0  0  0
  8 36  1  0  0  0  0
  8 37  1  0  0  0  0
  8 38  1  0  0  0  0
  9 39  1  0  0  0  0
 10  9  1  0  0  0  0
 10 11  1  0  0  0  0
 10 40  1  6  0  0  0
 11 14  1  0  0  0  0
 12 11  2  0  0  0  0
 13 10  1  0  0  0  0
 13 41  1  0  0  0  0
 13 42  1  0  0  0  0
 13 43  1  0  0  0  0
 14 15  1  0  0  0  0
 14 44  1  0  0  0  0
 15 16  1  0  0  0  0
 15 18  1  0  0  0  0
 15 45  1  6  0  0  0
 16 22  1  0  0  0  0
 17 16  2  0  0  0  0
 18 46  1  0  0  0  0
 18 47  1  0  0  0  0
 19 21  1  0  0  0  0
 19 18  1  0  0  0  0
 19 20  1  0  0  0  0
 19 48  1  0  0  0  0
 20 49  1  0  0  0  0
 20 50  1  0  0  0  0
 20 51  1  0  0  0  0
 21 52  1  0  0  0  0
 21 53  1  0  0  0  0
 21 54  1  0  0  0  0
 22 23  1  0  0  0  0
 22 55  1  0  0  0  0
 23 24  1  0  0  0  0
 23 26  1  0  0  0  0
 23 56  1  6  0  0  0
 24 29  1  0  0  0  0
 25 24  2  0  0  0  0
 26 27  1  0  0  0  0
 26 57  1  0  0  0  0
 27 58  1  0  0  0  0
 27 59  1  0  0  0  0
 27 60  1  0  0  0  0
 28 26  1  0  0  0  0
 28 61  1  0  0  0  0
 28 62  1  0  0  0  0
 28 63  1  0  0  0  0
 29 30  1  0  0  0  0
 29 64  1  0  0  0  0
 30 65  1  0  0  0  0
 30 66  1  0  0  0  0
 30 67  1  0  0  0  0
M  END
>  <MODEL>
       0

$$$$
