selected_4mers/AARA/80_noH.pdb
 OpenBabel03042517503D

 66 65  0  0  1  0  0  0  0  0999 V2000
    2.1380   35.2460   61.1170 C   0  0  0  0  0  0  0  0  0  0  0  0
    2.0220   36.6160   61.7510 C   0  0  0  0  0  0  0  0  0  0  0  0
    1.7420   37.6050   61.0800 O   0  0  0  0  0  0  0  0  0  0  0  0
    2.2400   36.6640   63.0520 N   0  0  0  0  0  0  0  0  0  0  0  0
    2.1620   37.9290   63.7820 C   0  0  2  0  0  0  0  0  0  0  0  0
    3.2480   38.8960   63.3340 C   0  0  0  0  0  0  0  0  0  0  0  0
    2.9930   40.0890   63.1470 O   0  0  0  0  0  0  0  0  0  0  0  0
    2.2920   37.6520   65.2830 C   0  0  0  0  0  0  0  0  0  0  0  0
    4.4630   38.3860   63.1600 N   0  0  0  0  0  0  0  0  0  0  0  0
    5.5750   39.2430   62.7650 C   0  0  2  0  0  0  0  0  0  0  0  0
    5.3350   39.8260   61.3800 C   0  0  0  0  0  0  0  0  0  0  0  0
    5.6070   40.9950   61.1450 O   0  0  0  0  0  0  0  0  0  0  0  0
    6.8970   38.4670   62.8030 C   0  0  0  0  0  0  0  0  0  0  0  0
    4.8370   39.0200   60.4500 N   0  0  0  0  0  0  0  0  0  0  0  0
    4.5630   39.5560   59.1230 C   0  0  2  0  0  0  0  0  0  0  0  0
    3.4940   40.6360   59.1630 C   0  0  0  0  0  0  0  0  0  0  0  0
    3.6020   41.6360   58.4570 O   0  0  0  0  0  0  0  0  0  0  0  0
    4.1350   38.4660   58.1380 C   0  0  0  0  0  0  0  0  0  0  0  0
    5.2880   37.5700   57.7760 C   0  0  0  0  0  0  0  0  0  0  0  0
    4.9320   36.5670   56.7010 C   0  0  0  0  0  0  0  0  0  0  0  0
    6.1360   35.8560   56.2860 N   0  0  0  0  0  0  0  0  0  0  0  0
    6.1370   34.6420   55.7520 C   0  0  0  0  0  0  0  0  0  0  0  0
    4.9890   34.0010   55.5670 N   0  0  0  0  0  0  0  0  0  0  0  0
    7.2830   34.0670   55.4110 N   0  0  0  0  0  0  0  0  0  0  0  0
    2.4570   40.4370   59.9670 N   0  0  0  0  0  0  0  0  0  0  0  0
    1.4090   41.4370   60.0750 C   0  0  2  0  0  0  0  0  0  0  0  0
    1.9800   42.7440   60.6280 C   0  0  0  0  0  0  0  0  0  0  0  0
    1.6440   43.8140   60.1400 O   0  0  0  0  0  0  0  0  0  0  0  0
    0.2830   40.9420   61.0130 C   0  0  0  0  0  0  0  0  0  0  0  0
    2.8290   42.6470   61.6490 N   0  0  0  0  0  0  0  0  0  0  0  0
    3.4100   43.8220   62.3030 C   0  0  0  0  0  0  0  0  0  0  0  0
    1.9434   35.3210   60.0675 H   0  0  0  0  0  0  0  0  0  0  0  0
    1.4267   34.5842   61.5652 H   0  0  0  0  0  0  0  0  0  0  0  0
    3.1259   34.8646   61.2702 H   0  0  0  0  0  0  0  0  0  0  0  0
    2.4583   35.8362   63.5381 H   0  0  0  0  0  0  0  0  0  0  0  0
    1.2161   38.3844   63.5751 H   0  0  0  0  0  0  0  0  0  0  0  0
    3.2400   37.1969   65.4809 H   0  0  0  0  0  0  0  0  0  0  0  0
    1.5083   36.9929   65.5933 H   0  0  0  0  0  0  0  0  0  0  0  0
    2.2186   38.5727   65.8233 H   0  0  0  0  0  0  0  0  0  0  0  0
    4.6134   37.4230   63.2987 H   0  0  0  0  0  0  0  0  0  0  0  0
    5.6410   40.0508   63.4636 H   0  0  0  0  0  0  0  0  0  0  0  0
    6.8527   37.6528   62.1102 H   0  0  0  0  0  0  0  0  0  0  0  0
    7.0593   38.0870   63.7900 H   0  0  0  0  0  0  0  0  0  0  0  0
    7.7015   39.1197   62.5353 H   0  0  0  0  0  0  0  0  0  0  0  0
    4.6555   38.0741   60.6539 H   0  0  0  0  0  0  0  0  0  0  0  0
    5.4831   39.9839   58.7835 H   0  0  0  0  0  0  0  0  0  0  0  0
    3.3628   37.8760   58.5856 H   0  0  0  0  0  0  0  0  0  0  0  0
    3.7824   38.9385   57.2451 H   0  0  0  0  0  0  0  0  0  0  0  0
    6.0959   38.1769   57.4241 H   0  0  0  0  0  0  0  0  0  0  0  0
    5.5590   37.0211   58.6536 H   0  0  0  0  0  0  0  0  0  0  0  0
    4.2193   35.8681   57.0864 H   0  0  0  0  0  0  0  0  0  0  0  0
    4.5101   37.0775   55.8606 H   0  0  0  0  0  0  0  0  0  0  0  0
    7.0250   36.3170   56.4130 H   0  0  0  0  0  0  0  0  0  0  0  0
    4.9867   33.0997   55.1708 H   0  0  0  0  0  0  0  0  0  0  0  0
    4.1401   34.4270   55.8260 H   0  0  0  0  0  0  0  0  0  0  0  0
    7.2828   33.1658   55.0147 H   0  0  0  0  0  0  0  0  0  0  0  0
    8.1336   34.5415   55.5543 H   0  0  0  0  0  0  0  0  0  0  0  0
    2.3977   39.6070   60.4931 H   0  0  0  0  0  0  0  0  0  0  0  0
    1.0077   41.6055   59.0975 H   0  0  0  0  0  0  0  0  0  0  0  0
    0.6823   40.7729   61.9912 H   0  0  0  0  0  0  0  0  0  0  0  0
   -0.1238   40.0290   60.6310 H   0  0  0  0  0  0  0  0  0  0  0  0
   -0.4883   41.6817   61.0656 H   0  0  0  0  0  0  0  0  0  0  0  0
    3.0756   41.7520   61.9767 H   0  0  0  0  0  0  0  0  0  0  0  0
    3.0436   44.7101   61.8319 H   0  0  0  0  0  0  0  0  0  0  0  0
    4.4760   43.7869   62.2178 H   0  0  0  0  0  0  0  0  0  0  0  0
    3.1348   43.8272   63.3370 H   0  0  0  0  0  0  0  0  0  0  0  0
  1  2  1  0  0  0  0
  1 32  1  0  0  0  0
  1 33  1  0  0  0  0
  1 34  1  0  0  0  0
  2  4  1  0  0  0  0
  3  2  2  0  0  0  0
  4  5  1  0  0  0  0
  4 35  1  0  0  0  0
  5  8  1  0  0  0  0
  5 36  1  6  0  0  0
  6  5  1  0  0  0  0
  7  6  2  0  0  0  0
  8 37  1  0  0  0  0
  8 38  1  0  0  0  0
  8 39  1  0  0  0  0
  9  6  1  0  0  0  0
  9 40  1  0  0  0  0
 10 13  1  0  0  0  0
 10  9  1  0  0  0  0
 10 41  1  1  0  0  0
 11 10  1  0  0  0  0
 12 11  2  0  0  0  0
 13 42  1  0  0  0  0
 13 43  1  0  0  0  0
 13 44  1  0  0  0  0
 14 11  1  0  0  0  0
 14 45  1  0  0  0  0
 15 16  1  0  0  0  0
 15 14  1  0  0  0  0
 15 46  1  6  0  0  0
 16 25  1  0  0  0  0
 17 16  2  0  0  0  0
 18 15  1  0  0  0  0
 18 47  1  0  0  0  0
 18 48  1  0  0  0  0
 19 18  1  0  0  0  0
 19 49  1  0  0  0  0
 19 50  1  0  0  0  0
 20 19  1  0  0  0  0
 20 51  1  0  0  0  0
 20 52  1  0  0  0  0
 21 20  1  0  0  0  0
 21 53  1  0  0  0  0 
 22 21  1  0  0  0  0
 23 22  2  0  0  0  0
 23 54  1  0  0  0  0
 23 55  1  0  0  0  0
 24 22  1  0  0  0  0
 24 56  1  0  0  0  0
 24 57  1  0  0  0  0
 25 26  1  0  0  0  0
 25 58  1  0  0  0  0
 26 27  1  0  0  0  0
 26 29  1  0  0  0  0
 26 59  1  6  0  0  0
 27 30  1  0  0  0  0
 28 27  2  0  0  0  0
 29 60  1  0  0  0  0
 29 61  1  0  0  0  0
 29 62  1  0  0  0  0
 30 31  1  0  0  0  0
 30 63  1  0  0  0  0
 31 64  1  0  0  0  0
 31 65  1  0  0  0  0
 31 66  1  0  0  0  0
M  CHG  1  23  1
M  END
>  <MODEL>
       0

$$$$
selected_4mers/AARA/81_noH.pdb
 OpenBabel03042517503D

 66 65  0  0  1  0  0  0  0  0999 V2000
   50.5750   50.8440   19.5760 C   0  0  0  0  0  0  0  0  0  0  0  0
   49.8180   50.6920   20.8990 C   0  0  0  0  0  0  0  0  0  0  0  0
   48.8580   51.4170   21.1470 O   0  0  0  0  0  0  0  0  0  0  0  0
   50.2620   49.7770   21.7620 N   0  0  0  0  0  0  0  0  0  0  0  0
   49.6070   49.5630   23.0500 C   0  0  2  0  0  0  0  0  0  0  0  0
   49.7490   50.7800   23.9650 C   0  0  0  0  0  0  0  0  0  0  0  0
   48.8100   51.1280   24.6780 O   0  0  0  0  0  0  0  0  0  0  0  0
   50.1730   48.3040   23.7440 C   0  0  0  0  0  0  0  0  0  0  0  0
   50.9170   51.4230   23.9400 N   0  0  0  0  0  0  0  0  0  0  0  0
   51.1600   52.5950   24.7670 C   0  0  2  0  0  0  0  0  0  0  0  0
   50.2330   53.7390   24.3590 C   0  0  0  0  0  0  0  0  0  0  0  0
   49.7320   54.4800   25.2040 O   0  0  0  0  0  0  0  0  0  0  0  0
   52.6070   53.0320   24.6320 C   0  0  0  0  0  0  0  0  0  0  0  0
   49.9980   53.8430   23.0510 N   0  0  0  0  0  0  0  0  0  0  0  0
   49.1550   54.8750   22.4470 C   0  0  2  0  0  0  0  0  0  0  0  0
   47.6860   54.5060   22.2410 C   0  0  0  0  0  0  0  0  0  0  0  0
   46.8780   55.3470   21.8200 O   0  0  0  0  0  0  0  0  0  0  0  0
   49.7910   55.2590   21.1160 C   0  0  0  0  0  0  0  0  0  0  0  0
   51.1590   55.8530   21.3210 C   0  0  0  0  0  0  0  0  0  0  0  0
   52.0060   55.8810   20.0740 C   0  0  0  0  0  0  0  0  0  0  0  0
   53.2650   56.5730   20.3360 N   0  0  0  0  0  0  0  0  0  0  0  0
   54.2840   56.0760   21.0390 C   0  0  0  0  0  0  0  0  0  0  0  0
   54.2150   54.8590   21.5640 N   0  0  0  0  0  0  0  0  0  0  0  0
   55.3790   56.8100   21.2220 N   0  0  0  0  0  0  0  0  0  0  0  0
   47.3340   53.2650   22.5800 N   0  0  0  0  0  0  0  0  0  0  0  0
   45.9720   52.7730   22.4100 C   0  0  2  0  0  0  0  0  0  0  0  0
   44.9270   53.6300   23.0900 C   0  0  0  0  0  0  0  0  0  0  0  0
   45.0270   53.9400   24.2860 O   0  0  0  0  0  0  0  0  0  0  0  0
   45.8700   51.3380   22.8900 C   0  0  0  0  0  0  0  0  0  0  0  0
   43.9370   54.0370   22.3050 N   0  0  0  0  0  0  0  0  0  0  0  0
   42.8510   54.8550   22.8070 C   0  0  0  0  0  0  0  0  0  0  0  0
   50.1126   51.6077   18.9862 H   0  0  0  0  0  0  0  0  0  0  0  0
   50.5501   49.9170   19.0423 H   0  0  0  0  0  0  0  0  0  0  0  0
   51.5911   51.1136   19.7754 H   0  0  0  0  0  0  0  0  0  0  0  0
   51.0484   49.2339   21.5257 H   0  0  0  0  0  0  0  0  0  0  0  0
   48.5643   49.4166   22.8595 H   0  0  0  0  0  0  0  0  0  0  0  0
   51.2161   48.4423   23.9382 H   0  0  0  0  0  0  0  0  0  0  0  0
   50.0383   47.4547   23.1072 H   0  0  0  0  0  0  0  0  0  0  0  0
   49.6566   48.1431   24.6672 H   0  0  0  0  0  0  0  0  0  0  0  0
   51.6323   51.0967   23.3475 H   0  0  0  0  0  0  0  0  0  0  0  0
   50.9616   52.3400   25.7871 H   0  0  0  0  0  0  0  0  0  0  0  0
   52.8087   53.2878   23.6128 H   0  0  0  0  0  0  0  0  0  0  0  0
   53.2507   52.2321   24.9331 H   0  0  0  0  0  0  0  0  0  0  0  0
   52.7818   53.8842   25.2549 H   0  0  0  0  0  0  0  0  0  0  0  0
   50.4185   53.1833   22.4533 H   0  0  0  0  0  0  0  0  0  0  0  0
   49.1171   55.6872   23.1426 H   0  0  0  0  0  0  0  0  0  0  0  0
   49.8774   54.3850   20.5048 H   0  0  0  0  0  0  0  0  0  0  0  0
   49.1706   55.9899   20.6409 H   0  0  0  0  0  0  0  0  0  0  0  0
   51.0412   56.8573   21.6709 H   0  0  0  0  0  0  0  0  0  0  0  0
   51.6660   55.2288   22.0269 H   0  0  0  0  0  0  0  0  0  0  0  0
   52.2118   54.8779   19.7637 H   0  0  0  0  0  0  0  0  0  0  0  0
   51.4758   56.3999   19.3029 H   0  0  0  0  0  0  0  0  0  0  0  0
   53.3730   57.5020   19.9550 H   0  0  0  0  0  0  0  0  0  0  0  0
   53.4077   54.3111   21.4322 H   0  0  0  0  0  0  0  0  0  0  0  0
   54.9711   54.5042   22.0852 H   0  0  0  0  0  0  0  0  0  0  0  0
   55.4363   57.7135   20.8351 H   0  0  0  0  0  0  0  0  0  0  0  0
   56.1317   56.4495   21.7442 H   0  0  0  0  0  0  0  0  0  0  0  0
   48.0151   52.6623   22.9568 H   0  0  0  0  0  0  0  0  0  0  0  0
   45.7628   52.8233   21.3618 H   0  0  0  0  0  0  0  0  0  0  0  0
   46.0805   51.2967   23.9383 H   0  0  0  0  0  0  0  0  0  0  0  0
   46.5765   50.7337   22.3603 H   0  0  0  0  0  0  0  0  0  0  0  0
   44.8811   50.9711   22.7100 H   0  0  0  0  0  0  0  0  0  0  0  0
   43.9405   53.7760   21.3557 H   0  0  0  0  0  0  0  0  0  0  0  0
   43.0003   55.0455   23.8493 H   0  0  0  0  0  0  0  0  0  0  0  0
   41.9232   54.3406   22.6677 H   0  0  0  0  0  0  0  0  0  0  0  0
   42.8278   55.7829   22.2746 H   0  0  0  0  0  0  0  0  0  0  0  0
  1  2  1  0  0  0  0
  1 32  1  0  0  0  0
  1 33  1  0  0  0  0
  1 34  1  0  0  0  0
  2  4  1  0  0  0  0
  3  2  2  0  0  0  0
  4  5  1  0  0  0  0
  4 35  1  0  0  0  0
  5  8  1  0  0  0  0
  5 36  1  6  0  0  0
  6  5  1  0  0  0  0
  7  6  2  0  0  0  0
  8 37  1  0  0  0  0
  8 38  1  0  0  0  0
  8 39  1  0  0  0  0
  9  6  1  0  0  0  0
  9 40  1  0  0  0  0
 10 13  1  0  0  0  0
 10  9  1  0  0  0  0
 10 41  1  1  0  0  0
 11 10  1  0  0  0  0
 12 11  2  0  0  0  0
 13 42  1  0  0  0  0
 13 43  1  0  0  0  0
 13 44  1  0  0  0  0
 14 11  1  0  0  0  0
 14 45  1  0  0  0  0
 15 16  1  0  0  0  0
 15 14  1  0  0  0  0
 15 46  1  6  0  0  0
 16 25  1  0  0  0  0
 17 16  2  0  0  0  0
 18 15  1  0  0  0  0
 18 47  1  0  0  0  0
 18 48  1  0  0  0  0
 19 18  1  0  0  0  0
 19 49  1  0  0  0  0
 19 50  1  0  0  0  0
 20 19  1  0  0  0  0
 20 51  1  0  0  0  0
 20 52  1  0  0  0  0
 21 20  1  0  0  0  0
 21 53  1  0  0  0  0 
 22 21  1  0  0  0  0
 23 22  2  0  0  0  0
 23 54  1  0  0  0  0
 23 55  1  0  0  0  0
 24 22  1  0  0  0  0
 24 56  1  0  0  0  0
 24 57  1  0  0  0  0
 25 26  1  0  0  0  0
 25 58  1  0  0  0  0
 26 27  1  0  0  0  0
 26 29  1  0  0  0  0
 26 59  1  6  0  0  0
 27 30  1  0  0  0  0
 28 27  2  0  0  0  0
 29 60  1  0  0  0  0
 29 61  1  0  0  0  0
 29 62  1  0  0  0  0
 30 31  1  0  0  0  0
 30 63  1  0  0  0  0
 31 64  1  0  0  0  0
 31 65  1  0  0  0  0
 31 66  1  0  0  0  0
M  CHG  1  23  1
M  END
>  <MODEL>
       0

$$$$
selected_4mers/AARA/82_noH.pdb
 OpenBabel03042517503D

 66 65  0  0  1  0  0  0  0  0999 V2000
   -7.9600    8.0310    4.1270 C   0  0  0  0  0  0  0  0  0  0  0  0
   -8.9270    6.9400    3.5800 C   0  0  0  0  0  0  0  0  0  0  0  0
   -8.5070    6.1330    2.7210 O   0  0  0  0  0  0  0  0  0  0  0  0
  -10.1780    6.9350    4.0910 N   0  0  0  0  0  0  0  0  0  0  0  0
  -11.2540    6.1360    3.5100 C   0  0  2  0  0  0  0  0  0  0  0  0
  -11.7330    6.7120    2.1560 C   0  0  0  0  0  0  0  0  0  0  0  0
  -11.9120    7.9260    1.9680 O   0  0  0  0  0  0  0  0  0  0  0  0
  -12.4720    6.0250    4.4960 C   0  0  0  0  0  0  0  0  0  0  0  0
  -11.9650    5.8370    1.1930 N   0  0  0  0  0  0  0  0  0  0  0  0
  -12.7640    6.2260    0.0100 C   0  0  2  0  0  0  0  0  0  0  0  0
  -14.1900    6.5660    0.4090 C   0  0  0  0  0  0  0  0  0  0  0  0
  -14.6470    6.2240    1.5000 O   0  0  0  0  0  0  0  0  0  0  0  0
  -12.7690    5.0860   -1.0800 C   0  0  0  0  0  0  0  0  0  0  0  0
  -14.8740    7.2920   -0.4660 N   0  0  0  0  0  0  0  0  0  0  0  0
  -16.2820    7.5690   -0.2530 C   0  0  2  0  0  0  0  0  0  0  0  0
  -17.1080    6.3180   -0.5100 C   0  0  0  0  0  0  0  0  0  0  0  0
  -17.0660    5.7820   -1.6300 O   0  0  0  0  0  0  0  0  0  0  0  0
  -16.7390    8.6880   -1.1480 C   0  0  0  0  0  0  0  0  0  0  0  0
  -18.1000    9.3690   -0.6710 C   0  0  0  0  0  0  0  0  0  0  0  0
  -18.5500   10.5700   -1.4710 C   0  0  0  0  0  0  0  0  0  0  0  0
  -17.4980   11.5380   -1.5390 N   0  0  0  0  0  0  0  0  0  0  0  0
  -17.0260   12.2650   -0.5520 C   0  0  0  0  0  0  0  0  0  0  0  0
  -17.5840   12.2260    0.6620 N   0  0  0  0  0  0  0  0  0  0  0  0
  -15.9680   13.0550   -0.7760 N   0  0  0  0  0  0  0  0  0  0  0  0
  -17.9060    5.9040    0.4780 N   0  0  0  0  0  0  0  0  0  0  0  0
  -18.6480    4.6600    0.3610 C   0  0  2  0  0  0  0  0  0  0  0  0
  -19.8410    4.6660    1.2700 C   0  0  0  0  0  0  0  0  0  0  0  0
  -19.8190    5.2960    2.3350 O   0  0  0  0  0  0  0  0  0  0  0  0
  -17.7800    3.3800    0.6750 C   0  0  0  0  0  0  0  0  0  0  0  0
  -20.8620    3.8980    0.8580 N   0  0  0  0  0  0  0  0  0  0  0  0
  -22.0110    3.5820    1.7440 C   0  0  0  0  0  0  0  0  0  0  0  0
   -7.0069    7.9342    3.6505 H   0  0  0  0  0  0  0  0  0  0  0  0
   -7.8446    7.9080    5.1836 H   0  0  0  0  0  0  0  0  0  0  0  0
   -8.3640    9.0005    3.9228 H   0  0  0  0  0  0  0  0  0  0  0  0
  -10.3708    7.4888    4.8818 H   0  0  0  0  0  0  0  0  0  0  0  0
  -10.8531    5.1592    3.3369 H   0  0  0  0  0  0  0  0  0  0  0  0
  -12.8774    6.9992    4.6731 H   0  0  0  0  0  0  0  0  0  0  0  0
  -12.1437    5.6015    5.4222 H   0  0  0  0  0  0  0  0  0  0  0  0
  -13.2244    5.3986    4.0643 H   0  0  0  0  0  0  0  0  0  0  0  0
  -11.6050    4.9234    1.2631 H   0  0  0  0  0  0  0  0  0  0  0  0
  -12.3057    7.0952   -0.4134 H   0  0  0  0  0  0  0  0  0  0  0  0
  -13.2244    4.2068   -0.6744 H   0  0  0  0  0  0  0  0  0  0  0  0
  -11.7629    4.8653   -1.3699 H   0  0  0  0  0  0  0  0  0  0  0  0
  -13.3231    5.4126   -1.9351 H   0  0  0  0  0  0  0  0  0  0  0  0
  -14.4224    7.6455   -1.2662 H   0  0  0  0  0  0  0  0  0  0  0  0
  -16.4201    7.8700    0.7645 H   0  0  0  0  0  0  0  0  0  0  0  0
  -15.9753    9.4371   -1.1705 H   0  0  0  0  0  0  0  0  0  0  0  0
  -16.9207    8.2644   -2.1136 H   0  0  0  0  0  0  0  0  0  0  0  0
  -18.8728    8.6308   -0.7241 H   0  0  0  0  0  0  0  0  0  0  0  0
  -17.9124    9.7321    0.3179 H   0  0  0  0  0  0  0  0  0  0  0  0
  -18.8090   10.2586   -2.4614 H   0  0  0  0  0  0  0  0  0  0  0  0
  -19.4005   11.0101   -0.9936 H   0  0  0  0  0  0  0  0  0  0  0  0
  -17.0720   11.6770   -2.4440 H   0  0  0  0  0  0  0  0  0  0  0  0
  -18.3618   11.6457    0.8279 H   0  0  0  0  0  0  0  0  0  0  0  0
  -17.2172   12.7776    1.3903 H   0  0  0  0  0  0  0  0  0  0  0  0
  -15.5562   13.0846   -1.6697 H   0  0  0  0  0  0  0  0  0  0  0  0
  -15.6021   13.6062   -0.0469 H   0  0  0  0  0  0  0  0  0  0  0  0
  -17.9924    6.4475    1.2943 H   0  0  0  0  0  0  0  0  0  0  0  0
  -18.9546    4.6034   -0.6626 H   0  0  0  0  0  0  0  0  0  0  0  0
  -17.4581    3.4088    1.6950 H   0  0  0  0  0  0  0  0  0  0  0  0
  -16.9253    3.3621    0.0316 H   0  0  0  0  0  0  0  0  0  0  0  0
  -18.3682    2.5013    0.5113 H   0  0  0  0  0  0  0  0  0  0  0  0
  -20.8487    3.5342   -0.0567 H   0  0  0  0  0  0  0  0  0  0  0  0
  -21.8683    4.0521    2.6945 H   0  0  0  0  0  0  0  0  0  0  0  0
  -22.0782    2.5224    1.8767 H   0  0  0  0  0  0  0  0  0  0  0  0
  -22.9144    3.9438    1.2992 H   0  0  0  0  0  0  0  0  0  0  0  0
  1  2  1  0  0  0  0
  1 32  1  0  0  0  0
  1 33  1  0  0  0  0
  1 34  1  0  0  0  0
  2  4  1  0  0  0  0
  3  2  2  0  0  0  0
  4  5  1  0  0  0  0
  4 35  1  0  0  0  0
  5  8  1  0  0  0  0
  5 36  1  6  0  0  0
  6  5  1  0  0  0  0
  7  6  2  0  0  0  0
  8 37  1  0  0  0  0
  8 38  1  0  0  0  0
  8 39  1  0  0  0  0
  9  6  1  0  0  0  0
  9 40  1  0  0  0  0
 10 13  1  0  0  0  0
 10  9  1  0  0  0  0
 10 41  1  1  0  0  0
 11 10  1  0  0  0  0
 12 11  2  0  0  0  0
 13 42  1  0  0  0  0
 13 43  1  0  0  0  0
 13 44  1  0  0  0  0
 14 11  1  0  0  0  0
 14 45  1  0  0  0  0
 15 16  1  0  0  0  0
 15 14  1  0  0  0  0
 15 46  1  6  0  0  0
 16 25  1  0  0  0  0
 17 16  2  0  0  0  0
 18 15  1  0  0  0  0
 18 47  1  0  0  0  0
 18 48  1  0  0  0  0
 19 18  1  0  0  0  0
 19 49  1  0  0  0  0
 19 50  1  0  0  0  0
 20 19  1  0  0  0  0
 20 51  1  0  0  0  0
 20 52  1  0  0  0  0
 21 20  1  0  0  0  0
 21 53  1  0  0  0  0 
 22 21  1  0  0  0  0
 23 22  2  0  0  0  0
 23 54  1  0  0  0  0
 23 55  1  0  0  0  0
 24 22  1  0  0  0  0
 24 56  1  0  0  0  0
 24 57  1  0  0  0  0
 25 26  1  0  0  0  0
 25 58  1  0  0  0  0
 26 27  1  0  0  0  0
 26 29  1  0  0  0  0
 26 59  1  6  0  0  0
 27 30  1  0  0  0  0
 28 27  2  0  0  0  0
 29 60  1  0  0  0  0
 29 61  1  0  0  0  0
 29 62  1  0  0  0  0
 30 31  1  0  0  0  0
 30 63  1  0  0  0  0
 31 64  1  0  0  0  0
 31 65  1  0  0  0  0
 31 66  1  0  0  0  0
M  CHG  1  23  1
M  END
>  <MODEL>
       0

$$$$
selected_4mers/AARA/83_noH.pdb
 OpenBabel03042517503D

 66 65  0  0  1  0  0  0  0  0999 V2000
   19.2280   36.8740   36.7920 C   0  0  0  0  0  0  0  0  0  0  0  0
   18.6300   36.6670   38.1760 C   0  0  0  0  0  0  0  0  0  0  0  0
   18.8760   37.4870   39.0580 O   0  0  0  0  0  0  0  0  0  0  0  0
   17.7970   35.6220   38.3520 N   0  0  0  0  0  0  0  0  0  0  0  0
   17.2920   35.2710   39.6500 C   0  0  2  0  0  0  0  0  0  0  0  0
   18.3710   34.9610   40.6730 C   0  0  0  0  0  0  0  0  0  0  0  0
   18.2890   35.4060   41.8390 O   0  0  0  0  0  0  0  0  0  0  0  0
   16.3100   34.1580   39.5200 C   0  0  0  0  0  0  0  0  0  0  0  0
   19.3880   34.1940   40.2780 N   0  0  0  0  0  0  0  0  0  0  0  0
   20.4520   33.9110   41.1750 C   0  0  2  0  0  0  0  0  0  0  0  0
   21.2000   35.1690   41.5900 C   0  0  0  0  0  0  0  0  0  0  0  0
   21.5410   35.3610   42.7750 O   0  0  0  0  0  0  0  0  0  0  0  0
   21.4080   32.9290   40.5500 C   0  0  0  0  0  0  0  0  0  0  0  0
   21.5030   36.0180   40.6120 N   0  0  0  0  0  0  0  0  0  0  0  0
   22.1520   37.2970   40.9520 C   0  0  2  0  0  0  0  0  0  0  0  0
   21.2780   38.1340   41.8520 C   0  0  0  0  0  0  0  0  0  0  0  0
   21.7590   38.7030   42.8020 O   0  0  0  0  0  0  0  0  0  0  0  0
   22.5320   38.0670   39.7020 C   0  0  0  0  0  0  0  0  0  0  0  0
   23.0270   39.4480   40.0120 C   0  0  0  0  0  0  0  0  0  0  0  0
   24.3250   39.4280   40.8300 C   0  0  0  0  0  0  0  0  0  0  0  0
   24.6630   40.8090   41.2220 N   0  0  0  0  0  0  0  0  0  0  0  0
   25.8190   41.4260   41.0200 C   0  0  0  0  0  0  0  0  0  0  0  0
   26.8680   40.7820   40.5400 N   0  0  0  0  0  0  0  0  0  0  0  0
   25.9240   42.7180   41.3530 N   0  0  0  0  0  0  0  0  0  0  0  0
   19.9560   38.1830   41.6080 N   0  0  0  0  0  0  0  0  0  0  0  0
   19.0770   38.9650   42.4720 C   0  0  2  0  0  0  0  0  0  0  0  0
   18.9470   38.4020   43.8800 C   0  0  0  0  0  0  0  0  0  0  0  0
   18.7740   39.1770   44.8610 O   0  0  0  0  0  0  0  0  0  0  0  0
   17.6870   39.0800   41.8590 C   0  0  0  0  0  0  0  0  0  0  0  0
   19.0280   37.0700   44.0260 N   0  0  0  0  0  0  0  0  0  0  0  0
   18.9930   36.4230   45.3520 C   0  0  0  0  0  0  0  0  0  0  0  0
   18.9188   36.0781   36.1472 H   0  0  0  0  0  0  0  0  0  0  0  0
   20.2957   36.8817   36.8623 H   0  0  0  0  0  0  0  0  0  0  0  0
   18.8900   37.8077   36.3934 H   0  0  0  0  0  0  0  0  0  0  0  0
   17.5280   35.0859   37.5713 H   0  0  0  0  0  0  0  0  0  0  0  0
   16.7983   36.1370   40.0389 H   0  0  0  0  0  0  0  0  0  0  0  0
   16.8026   33.2914   39.1311 H   0  0  0  0  0  0  0  0  0  0  0  0
   15.5250   34.4509   38.8545 H   0  0  0  0  0  0  0  0  0  0  0  0
   15.8972   33.9325   40.4811 H   0  0  0  0  0  0  0  0  0  0  0  0
   19.4011   33.8244   39.3656 H   0  0  0  0  0  0  0  0  0  0  0  0
   20.0221   33.4843   42.0571 H   0  0  0  0  0  0  0  0  0  0  0  0
   21.8357   33.3592   39.6686 H   0  0  0  0  0  0  0  0  0  0  0  0
   20.8815   32.0343   40.2908 H   0  0  0  0  0  0  0  0  0  0  0  0
   22.1860   32.6959   41.2467 H   0  0  0  0  0  0  0  0  0  0  0  0
   21.2970   35.7956   39.6754 H   0  0  0  0  0  0  0  0  0  0  0  0
   23.0502   37.0693   41.4870 H   0  0  0  0  0  0  0  0  0  0  0  0
   23.3040   37.5318   39.1897 H   0  0  0  0  0  0  0  0  0  0  0  0
   21.6545   38.1622   39.0971 H   0  0  0  0  0  0  0  0  0  0  0  0
   22.2756   39.9662   40.5704 H   0  0  0  0  0  0  0  0  0  0  0  0
   23.2309   39.9401   39.0840 H   0  0  0  0  0  0  0  0  0  0  0  0
   25.1166   39.0186   40.2379 H   0  0  0  0  0  0  0  0  0  0  0  0
   24.1940   38.8245   41.7038 H   0  0  0  0  0  0  0  0  0  0  0  0
   23.9420   41.3380   41.6910 H   0  0  0  0  0  0  0  0  0  0  0  0
   26.7922   39.8316   40.2946 H   0  0  0  0  0  0  0  0  0  0  0  0
   27.7255   41.2525   40.4277 H   0  0  0  0  0  0  0  0  0  0  0  0
   26.7733   43.1954   41.2114 H   0  0  0  0  0  0  0  0  0  0  0  0
   25.1519   43.1910   41.7395 H   0  0  0  0  0  0  0  0  0  0  0  0
   19.5799   37.6895   40.8437 H   0  0  0  0  0  0  0  0  0  0  0  0
   19.5360   39.9282   42.5522 H   0  0  0  0  0  0  0  0  0  0  0  0
   17.2469   38.1073   41.7881 H   0  0  0  0  0  0  0  0  0  0  0  0
   17.7625   39.5094   40.8819 H   0  0  0  0  0  0  0  0  0  0  0  0
   17.0754   39.7041   42.4765 H   0  0  0  0  0  0  0  0  0  0  0  0
   19.1135   36.5068   43.2230 H   0  0  0  0  0  0  0  0  0  0  0  0
   18.8977   37.1708   46.1113 H   0  0  0  0  0  0  0  0  0  0  0  0
   19.8981   35.8731   45.5046 H   0  0  0  0  0  0  0  0  0  0  0  0
   18.1578   35.7560   45.4015 H   0  0  0  0  0  0  0  0  0  0  0  0
  1  2  1  0  0  0  0
  1 32  1  0  0  0  0
  1 33  1  0  0  0  0
  1 34  1  0  0  0  0
  2  4  1  0  0  0  0
  3  2  2  0  0  0  0
  4  5  1  0  0  0  0
  4 35  1  0  0  0  0
  5  8  1  0  0  0  0
  5 36  1  6  0  0  0
  6  5  1  0  0  0  0
  7  6  2  0  0  0  0
  8 37  1  0  0  0  0
  8 38  1  0  0  0  0
  8 39  1  0  0  0  0
  9  6  1  0  0  0  0
  9 40  1  0  0  0  0
 10 13  1  0  0  0  0
 10  9  1  0  0  0  0
 10 41  1  1  0  0  0
 11 10  1  0  0  0  0
 12 11  2  0  0  0  0
 13 42  1  0  0  0  0
 13 43  1  0  0  0  0
 13 44  1  0  0  0  0
 14 11  1  0  0  0  0
 14 45  1  0  0  0  0
 15 16  1  0  0  0  0
 15 14  1  0  0  0  0
 15 46  1  6  0  0  0
 16 25  1  0  0  0  0
 17 16  2  0  0  0  0
 18 15  1  0  0  0  0
 18 47  1  0  0  0  0
 18 48  1  0  0  0  0
 19 18  1  0  0  0  0
 19 49  1  0  0  0  0
 19 50  1  0  0  0  0
 20 19  1  0  0  0  0
 20 51  1  0  0  0  0
 20 52  1  0  0  0  0
 21 20  1  0  0  0  0
 21 53  1  0  0  0  0 
 22 21  1  0  0  0  0
 23 22  2  0  0  0  0
 23 54  1  0  0  0  0
 23 55  1  0  0  0  0
 24 22  1  0  0  0  0
 24 56  1  0  0  0  0
 24 57  1  0  0  0  0
 25 26  1  0  0  0  0
 25 58  1  0  0  0  0
 26 27  1  0  0  0  0
 26 29  1  0  0  0  0
 26 59  1  6  0  0  0
 27 30  1  0  0  0  0
 28 27  2  0  0  0  0
 29 60  1  0  0  0  0
 29 61  1  0  0  0  0
 29 62  1  0  0  0  0
 30 31  1  0  0  0  0
 30 63  1  0  0  0  0
 31 64  1  0  0  0  0
 31 65  1  0  0  0  0
 31 66  1  0  0  0  0
M  CHG  1  23  1
M  END
>  <MODEL>
       0

$$$$
selected_4mers/AARA/84_noH.pdb
 OpenBabel03042517503D

 66 65  0  0  1  0  0  0  0  0999 V2000
   -6.3760   -9.6720  -20.0210 C   0  0  0  0  0  0  0  0  0  0  0  0
   -7.8190   -9.8580  -20.4740 C   0  0  0  0  0  0  0  0  0  0  0  0
   -8.7300   -9.1840  -20.0080 O   0  0  0  0  0  0  0  0  0  0  0  0
   -8.0420  -10.8110  -21.3860 N   0  0  0  0  0  0  0  0  0  0  0  0
   -9.3950  -11.0350  -21.8790 C   0  0  2  0  0  0  0  0  0  0  0  0
  -10.3310  -11.6120  -20.8230 C   0  0  0  0  0  0  0  0  0  0  0  0
   -9.9940  -12.5320  -20.0870 O   0  0  0  0  0  0  0  0  0  0  0  0
   -9.3460  -11.9630  -23.0900 C   0  0  0  0  0  0  0  0  0  0  0  0
  -11.5530  -11.0840  -20.7830 N   0  0  0  0  0  0  0  0  0  0  0  0
  -12.5770  -11.6120  -19.8760 C   0  0  2  0  0  0  0  0  0  0  0  0
  -12.9540  -13.0270  -20.2900 C   0  0  0  0  0  0  0  0  0  0  0  0
  -13.2300  -13.3480  -21.4440 O   0  0  0  0  0  0  0  0  0  0  0  0
  -13.7640  -10.6690  -19.8040 C   0  0  0  0  0  0  0  0  0  0  0  0
  -12.8400  -13.9680  -19.3570 N   0  0  0  0  0  0  0  0  0  0  0  0
  -13.1680  -15.3590  -19.6430 C   0  0  2  0  0  0  0  0  0  0  0  0
  -14.6930  -15.5090  -19.6360 C   0  0  0  0  0  0  0  0  0  0  0  0
  -15.3370  -15.0640  -18.6800 O   0  0  0  0  0  0  0  0  0  0  0  0
  -12.5250  -16.2690  -18.5930 C   0  0  0  0  0  0  0  0  0  0  0  0
  -11.1230  -16.7290  -18.9470 C   0  0  0  0  0  0  0  0  0  0  0  0
  -10.2490  -15.5940  -19.4710 C   0  0  0  0  0  0  0  0  0  0  0  0
   -8.8840  -16.0930  -19.6350 N   0  0  0  0  0  0  0  0  0  0  0  0
   -7.7900  -15.4060  -19.9200 C   0  0  0  0  0  0  0  0  0  0  0  0
   -7.8180  -14.1040  -20.0890 N   0  0  0  0  0  0  0  0  0  0  0  0
   -6.6260  -16.0530  -20.0330 N   0  0  0  0  0  0  0  0  0  0  0  0
  -15.2410  -16.0500  -20.7120 N   0  0  0  0  0  0  0  0  0  0  0  0
  -16.6830  -16.2780  -20.8350 C   0  0  2  0  0  0  0  0  0  0  0  0
  -17.1960  -17.1540  -19.6910 C   0  0  0  0  0  0  0  0  0  0  0  0
  -18.2810  -16.9270  -19.1550 O   0  0  0  0  0  0  0  0  0  0  0  0
  -17.0030  -16.9350  -22.1680 C   0  0  0  0  0  0  0  0  0  0  0  0
  -16.3750  -18.1300  -19.3340 N   0  0  0  0  0  0  0  0  0  0  0  0
  -16.6530  -19.0810  -18.2710 C   0  0  0  0  0  0  0  0  0  0  0  0
   -5.7452  -10.3556  -20.5498 H   0  0  0  0  0  0  0  0  0  0  0  0
   -6.3049   -9.8609  -18.9702 H   0  0  0  0  0  0  0  0  0  0  0  0
   -6.0647   -8.6688  -20.2249 H   0  0  0  0  0  0  0  0  0  0  0  0
   -7.2959  -11.3582  -21.7224 H   0  0  0  0  0  0  0  0  0  0  0  0
   -9.7925  -10.0797  -22.1516 H   0  0  0  0  0  0  0  0  0  0  0  0
   -8.9462  -12.9112  -22.7968 H   0  0  0  0  0  0  0  0  0  0  0  0
   -8.7229  -11.5313  -23.8452 H   0  0  0  0  0  0  0  0  0  0  0  0
  -10.3346  -12.0970  -23.4769 H   0  0  0  0  0  0  0  0  0  0  0  0
  -11.7725  -10.3265  -21.3723 H   0  0  0  0  0  0  0  0  0  0  0  0
  -12.1861  -11.6728  -18.8818 H   0  0  0  0  0  0  0  0  0  0  0  0
  -14.1991  -10.5684  -20.7764 H   0  0  0  0  0  0  0  0  0  0  0  0
  -13.4375   -9.7104  -19.4584 H   0  0  0  0  0  0  0  0  0  0  0  0
  -14.4923  -11.0634  -19.1265 H   0  0  0  0  0  0  0  0  0  0  0  0
  -12.5283  -13.7204  -18.4566 H   0  0  0  0  0  0  0  0  0  0  0  0
  -12.7890  -15.6427  -20.6026 H   0  0  0  0  0  0  0  0  0  0  0  0
  -13.1428  -17.1346  -18.4748 H   0  0  0  0  0  0  0  0  0  0  0  0
  -12.4434  -15.6938  -17.6945 H   0  0  0  0  0  0  0  0  0  0  0  0
  -10.6649  -17.1380  -18.0708 H   0  0  0  0  0  0  0  0  0  0  0  0
  -11.2077  -17.4589  -19.7248 H   0  0  0  0  0  0  0  0  0  0  0  0
  -10.6248  -15.2557  -20.4140 H   0  0  0  0  0  0  0  0  0  0  0  0
  -10.2587  -14.7768  -18.7804 H   0  0  0  0  0  0  0  0  0  0  0  0
   -8.7610  -17.0880  -19.5160 H   0  0  0  0  0  0  0  0  0  0  0  0
   -6.9889  -13.6171  -20.3005 H   0  0  0  0  0  0  0  0  0  0  0  0
   -8.6681  -13.6148  -20.0042 H   0  0  0  0  0  0  0  0  0  0  0  0
   -5.8041  -15.5542  -20.2447 H   0  0  0  0  0  0  0  0  0  0  0  0
   -6.5905  -17.0284  -19.9045 H   0  0  0  0  0  0  0  0  0  0  0  0
  -14.6562  -16.3098  -21.4601 H   0  0  0  0  0  0  0  0  0  0  0  0
  -17.1732  -15.3282  -20.7847 H   0  0  0  0  0  0  0  0  0  0  0  0
  -16.5150  -17.8856  -22.2234 H   0  0  0  0  0  0  0  0  0  0  0  0
  -16.6585  -16.3102  -22.9654 H   0  0  0  0  0  0  0  0  0  0  0  0
  -18.0608  -17.0716  -22.2535 H   0  0  0  0  0  0  0  0  0  0  0  0
  -15.5228  -18.2167  -19.8193 H   0  0  0  0  0  0  0  0  0  0  0  0
  -17.6073  -18.8637  -17.8386 H   0  0  0  0  0  0  0  0  0  0  0  0
  -15.8955  -19.0068  -17.5190 H   0  0  0  0  0  0  0  0  0  0  0  0
  -16.6609  -20.0727  -18.6727 H   0  0  0  0  0  0  0  0  0  0  0  0
  1  2  1  0  0  0  0
  1 32  1  0  0  0  0
  1 33  1  0  0  0  0
  1 34  1  0  0  0  0
  2  4  1  0  0  0  0
  3  2  2  0  0  0  0
  4  5  1  0  0  0  0
  4 35  1  0  0  0  0
  5  8  1  0  0  0  0
  5 36  1  6  0  0  0
  6  5  1  0  0  0  0
  7  6  2  0  0  0  0
  8 37  1  0  0  0  0
  8 38  1  0  0  0  0
  8 39  1  0  0  0  0
  9  6  1  0  0  0  0
  9 40  1  0  0  0  0
 10 13  1  0  0  0  0
 10  9  1  0  0  0  0
 10 41  1  1  0  0  0
 11 10  1  0  0  0  0
 12 11  2  0  0  0  0
 13 42  1  0  0  0  0
 13 43  1  0  0  0  0
 13 44  1  0  0  0  0
 14 11  1  0  0  0  0
 14 45  1  0  0  0  0
 15 16  1  0  0  0  0
 15 14  1  0  0  0  0
 15 46  1  6  0  0  0
 16 25  1  0  0  0  0
 17 16  2  0  0  0  0
 18 15  1  0  0  0  0
 18 47  1  0  0  0  0
 18 48  1  0  0  0  0
 19 18  1  0  0  0  0
 19 49  1  0  0  0  0
 19 50  1  0  0  0  0
 20 19  1  0  0  0  0
 20 51  1  0  0  0  0
 20 52  1  0  0  0  0
 21 20  1  0  0  0  0
 21 53  1  0  0  0  0 
 22 21  1  0  0  0  0
 23 22  2  0  0  0  0
 23 54  1  0  0  0  0
 23 55  1  0  0  0  0
 24 22  1  0  0  0  0
 24 56  1  0  0  0  0
 24 57  1  0  0  0  0
 25 26  1  0  0  0  0
 25 58  1  0  0  0  0
 26 27  1  0  0  0  0
 26 29  1  0  0  0  0
 26 59  1  6  0  0  0
 27 30  1  0  0  0  0
 28 27  2  0  0  0  0
 29 60  1  0  0  0  0
 29 61  1  0  0  0  0
 29 62  1  0  0  0  0
 30 31  1  0  0  0  0
 30 63  1  0  0  0  0
 31 64  1  0  0  0  0
 31 65  1  0  0  0  0
 31 66  1  0  0  0  0
M  CHG  1  23  1
M  END
>  <MODEL>
       0

$$$$
