selected_4mers/AATA/435_noH.pdb
 OpenBabel03042517593D

 56 55  0  0  1  0  0  0  0  0999 V2000
    5.8960   45.0310   -3.0210 C   0  0  0  0  0  0  0  0  0  0  0  0
    7.1580   44.1750   -3.0950 C   0  0  0  0  0  0  0  0  0  0  0  0
    7.1810   43.1370   -3.7560 O   0  0  0  0  0  0  0  0  0  0  0  0
    8.2050   44.6300   -2.4110 N   0  0  0  0  0  0  0  0  0  0  0  0
    9.4820   43.9180   -2.3770 C   0  0  2  0  0  0  0  0  0  0  0  0
   10.2580   44.2360   -1.1020 C   0  0  0  0  0  0  0  0  0  0  0  0
   10.1140   45.3030   -0.5220 O   0  0  0  0  0  0  0  0  0  0  0  0
   10.3260   44.2860   -3.5880 C   0  0  0  0  0  0  0  0  0  0  0  0
   11.0860   43.2870   -0.6860 N   0  0  0  0  0  0  0  0  0  0  0  0
   11.9190   43.4180    0.5040 C   0  0  2  0  0  0  0  0  0  0  0  0
   13.0220   42.4190    0.2050 C   0  0  0  0  0  0  0  0  0  0  0  0
   12.8510   41.2190    0.4130 O   0  0  0  0  0  0  0  0  0  0  0  0
   11.1280   43.0070    1.7420 C   0  0  0  0  0  0  0  0  0  0  0  0
   14.1560   42.9050   -0.2910 N   0  0  0  0  0  0  0  0  0  0  0  0
   15.2120   41.9860   -0.6890 C   0  0  2  0  0  0  0  0  0  0  0  0
   16.5570   42.6700   -0.8920 C   0  0  0  0  0  0  0  0  0  0  0  0
   16.6550   43.8930   -0.8760 O   0  0  0  0  0  0  0  0  0  0  0  0
   14.8140   41.3130   -2.0310 C   0  0  2  0  0  0  0  0  0  0  0  0
   15.7980   40.3510   -2.4190 O   0  0  0  0  0  0  0  0  0  0  0  0
   14.6940   42.3750   -3.1370 C   0  0  0  0  0  0  0  0  0  0  0  0
   17.5860   41.8530   -1.0910 N   0  0  0  0  0  0  0  0  0  0  0  0
   18.9310   42.3410   -1.3510 C   0  0  2  0  0  0  0  0  0  0  0  0
   19.2790   41.9270   -2.7790 C   0  0  0  0  0  0  0  0  0  0  0  0
   20.2860   42.3630   -3.3390 O   0  0  0  0  0  0  0  0  0  0  0  0
   19.9190   41.7220   -0.3660 C   0  0  0  0  0  0  0  0  0  0  0  0
   18.4250   41.0900   -3.3640 N   0  0  0  0  0  0  0  0  0  0  0  0
   18.6130   40.5860   -4.7280 C   0  0  0  0  0  0  0  0  0  0  0  0
    5.1218   44.5759   -3.6027 H   0  0  0  0  0  0  0  0  0  0  0  0
    6.1042   46.0074   -3.4059 H   0  0  0  0  0  0  0  0  0  0  0  0
    5.5775   45.1096   -2.0025 H   0  0  0  0  0  0  0  0  0  0  0  0
    8.1170   45.4737   -1.9114 H   0  0  0  0  0  0  0  0  0  0  0  0
    9.2693   42.8695   -2.3951 H   0  0  0  0  0  0  0  0  0  0  0  0
   10.5384   45.3345   -3.5694 H   0  0  0  0  0  0  0  0  0  0  0  0
    9.7899   44.0465   -4.4825 H   0  0  0  0  0  0  0  0  0  0  0  0
   11.2434   43.7358   -3.5639 H   0  0  0  0  0  0  0  0  0  0  0  0
   11.1410   42.4530   -1.2062 H   0  0  0  0  0  0  0  0  0  0  0  0
   12.2725   44.4087    0.7001 H   0  0  0  0  0  0  0  0  0  0  0  0
   10.7446   42.0171    1.6079 H   0  0  0  0  0  0  0  0  0  0  0  0
   10.3153   43.6875    1.8882 H   0  0  0  0  0  0  0  0  0  0  0  0
   11.7693   43.0282    2.5983 H   0  0  0  0  0  0  0  0  0  0  0  0
   14.2800   43.8768   -0.3880 H   0  0  0  0  0  0  0  0  0  0  0  0
   15.3199   41.2764    0.1045 H   0  0  0  0  0  0  0  0  0  0  0  0
   13.8727   40.8231   -1.8936 H   0  0  0  0  0  0  0  0  0  0  0  0
   16.6518   40.7941   -2.5438 H   0  0  0  0  0  0  0  0  0  0  0  0
   15.6382   42.8607   -3.2690 H   0  0  0  0  0  0  0  0  0  0  0  0
   13.9566   43.0985   -2.8582 H   0  0  0  0  0  0  0  0  0  0  0  0
   14.4037   41.9046   -4.0532 H   0  0  0  0  0  0  0  0  0  0  0  0
   17.4320   40.8811   -1.0613 H   0  0  0  0  0  0  0  0  0  0  0  0
   18.9831   43.4034   -1.2345 H   0  0  0  0  0  0  0  0  0  0  0  0
   19.8923   40.6562   -0.4564 H   0  0  0  0  0  0  0  0  0  0  0  0
   19.6512   42.0022    0.6313 H   0  0  0  0  0  0  0  0  0  0  0  0
   20.9061   42.0737   -0.5824 H   0  0  0  0  0  0  0  0  0  0  0  0
   17.6326   40.7966   -2.8587 H   0  0  0  0  0  0  0  0  0  0  0  0
   19.5128   40.9945   -5.1383 H   0  0  0  0  0  0  0  0  0  0  0  0
   17.7804   40.8772   -5.3338 H   0  0  0  0  0  0  0  0  0  0  0  0
   18.6830   39.5185   -4.7073 H   0  0  0  0  0  0  0  0  0  0  0  0
  1 28  1  0  0  0  0
  1 29  1  0  0  0  0
  1 30  1  0  0  0  0
  2  1  1  0  0  0  0
  2  4  1  0  0  0  0
  3  2  2  0  0  0  0
  4  5  1  0  0  0  0
  4 31  1  0  0  0  0
  5  6  1  0  0  0  0
  5 32  1  6  0  0  0
  6  9  1  0  0  0  0
  6  7  2  0  0  0  0
  8  5  1  0  0  0  0
  8 33  1  0  0  0  0
  8 34  1  0  0  0  0
  8 35  1  0  0  0  0
  9 10  1  0  0  0  0
  9 36  1  0  0  0  0
 10 13  1  0  0  0  0
 10 37  1  1  0  0  0
 11 12  2  0  0  0  0
 11 10  1  0  0  0  0
 13 38  1  0  0  0  0
 13 39  1  0  0  0  0
 13 40  1  0  0  0  0
 14 11  1  0  0  0  0
 14 41  1  0  0  0  0
 15 14  1  0  0  0  0
 15 42  1  1  0  0  0
 16 17  2  0  0  0  0
 16 15  1  0  0  0  0
 18 15  1  0  0  0  0
 18 43  1  1  0  0  0
 19 18  1  0  0  0  0
 19 44  1  0  0  0  0
 20 18  1  0  0  0  0
 20 45  1  0  0  0  0
 20 46  1  0  0  0  0
 20 47  1  0  0  0  0
 21 16  1  0  0  0  0
 21 48  1  0  0  0  0
 22 21  1  0  0  0  0
 22 25  1  0  0  0  0
 22 49  1  1  0  0  0
 23 22  1  0  0  0  0
 24 23  2  0  0  0  0
 25 50  1  0  0  0  0
 25 51  1  0  0  0  0
 25 52  1  0  0  0  0
 26 23  1  0  0  0  0
 26 53  1  0  0  0  0
 27 26  1  0  0  0  0
 27 54  1  0  0  0  0
 27 55  1  0  0  0  0
 27 56  1  0  0  0  0
M  END
>  <MODEL>
       0

$$$$
selected_4mers/AATA/436_noH.pdb
 OpenBabel03042517593D

 56 55  0  0  1  0  0  0  0  0999 V2000
   28.0040   45.6260  -19.9380 C   0  0  0  0  0  0  0  0  0  0  0  0
   26.6120   45.6790  -20.5760 C   0  0  0  0  0  0  0  0  0  0  0  0
   26.4500   46.4090  -21.5690 O   0  0  0  0  0  0  0  0  0  0  0  0
   25.5930   44.9890  -20.0460 N   0  0  0  0  0  0  0  0  0  0  0  0
   24.3430   44.8890  -20.7750 C   0  0  2  0  0  0  0  0  0  0  0  0
   23.1550   44.7170  -19.8750 C   0  0  0  0  0  0  0  0  0  0  0  0
   23.2830   44.1210  -18.7920 O   0  0  0  0  0  0  0  0  0  0  0  0
   24.3820   43.6800  -21.6850 C   0  0  0  0  0  0  0  0  0  0  0  0
   21.9960   45.2090  -20.3160 N   0  0  0  0  0  0  0  0  0  0  0  0
   20.7150   44.9200  -19.6570 C   0  0  2  0  0  0  0  0  0  0  0  0
   20.0530   43.8930  -20.5720 C   0  0  0  0  0  0  0  0  0  0  0  0
   20.5290   43.6850  -21.7020 O   0  0  0  0  0  0  0  0  0  0  0  0
   19.8070   46.1530  -19.6010 C   0  0  0  0  0  0  0  0  0  0  0  0
   19.0220   43.1950  -20.1000 N   0  0  0  0  0  0  0  0  0  0  0  0
   18.3380   42.1430  -20.8360 C   0  0  2  0  0  0  0  0  0  0  0  0
   16.8560   42.4890  -20.8000 C   0  0  0  0  0  0  0  0  0  0  0  0
   16.2740   42.6390  -19.7080 O   0  0  0  0  0  0  0  0  0  0  0  0
   18.5480   40.7930  -20.1500 C   0  0  2  0  0  0  0  0  0  0  0  0
   19.9600   40.5110  -20.0610 O   0  0  0  0  0  0  0  0  0  0  0  0
   17.8380   39.6880  -20.9190 C   0  0  0  0  0  0  0  0  0  0  0  0
   16.2400   42.6760  -21.9790 N   0  0  0  0  0  0  0  0  0  0  0  0
   14.8080   42.9770  -22.0660 C   0  0  2  0  0  0  0  0  0  0  0  0
   14.0660   41.7240  -22.5050 C   0  0  0  0  0  0  0  0  0  0  0  0
   14.6540   40.9360  -23.2480 O   0  0  0  0  0  0  0  0  0  0  0  0
   14.5600   44.0920  -23.0730 C   0  0  0  0  0  0  0  0  0  0  0  0
   12.8390   41.4320  -22.0550 N   0  0  0  0  0  0  0  0  0  0  0  0
   12.1500   40.1950  -22.4310 C   0  0  0  0  0  0  0  0  0  0  0  0
   28.6778   46.2375  -20.5009 H   0  0  0  0  0  0  0  0  0  0  0  0
   28.3568   44.6158  -19.9351 H   0  0  0  0  0  0  0  0  0  0  0  0
   27.9495   45.9876  -18.9324 H   0  0  0  0  0  0  0  0  0  0  0  0
   25.6919   44.5533  -19.1687 H   0  0  0  0  0  0  0  0  0  0  0  0
   24.2392   45.8047  -21.3186 H   0  0  0  0  0  0  0  0  0  0  0  0
   24.4863   42.7931  -21.0955 H   0  0  0  0  0  0  0  0  0  0  0  0
   25.2131   43.7636  -22.3537 H   0  0  0  0  0  0  0  0  0  0  0  0
   23.4742   43.6287  -22.2490 H   0  0  0  0  0  0  0  0  0  0  0  0
   21.9992   45.7873  -21.1127 H   0  0  0  0  0  0  0  0  0  0  0  0
   20.8687   44.5928  -18.6499 H   0  0  0  0  0  0  0  0  0  0  0  0
   19.6297   46.5107  -20.5937 H   0  0  0  0  0  0  0  0  0  0  0  0
   20.2818   46.9197  -19.0251 H   0  0  0  0  0  0  0  0  0  0  0  0
   18.8755   45.8896  -19.1451 H   0  0  0  0  0  0  0  0  0  0  0  0
   18.7014   43.4047  -19.1931 H   0  0  0  0  0  0  0  0  0  0  0  0
   18.7121   42.0741  -21.8361 H   0  0  0  0  0  0  0  0  0  0  0  0
   18.1338   40.8355  -19.1643 H   0  0  0  0  0  0  0  0  0  0  0  0
   20.3387   40.4718  -20.9531 H   0  0  0  0  0  0  0  0  0  0  0  0
   18.2383   39.6289  -21.9095 H   0  0  0  0  0  0  0  0  0  0  0  0
   16.7914   39.9045  -20.9696 H   0  0  0  0  0  0  0  0  0  0  0  0
   17.9852   38.7538  -20.4185 H   0  0  0  0  0  0  0  0  0  0  0  0
   16.7656   42.6089  -22.8088 H   0  0  0  0  0  0  0  0  0  0  0  0
   14.4568   43.2967  -21.1072 H   0  0  0  0  0  0  0  0  0  0  0  0
   14.9070   43.7852  -24.0375 H   0  0  0  0  0  0  0  0  0  0  0  0
   15.0867   44.9719  -22.7678 H   0  0  0  0  0  0  0  0  0  0  0  0
   13.5120   44.3024  -23.1213 H   0  0  0  0  0  0  0  0  0  0  0  0
   12.3867   42.0672  -21.4539 H   0  0  0  0  0  0  0  0  0  0  0  0
   12.7757   39.6223  -23.0833 H   0  0  0  0  0  0  0  0  0  0  0  0
   11.2359   40.4343  -22.9330 H   0  0  0  0  0  0  0  0  0  0  0  0
   11.9352   39.6249  -21.5514 H   0  0  0  0  0  0  0  0  0  0  0  0
  1 28  1  0  0  0  0
  1 29  1  0  0  0  0
  1 30  1  0  0  0  0
  2  4  1  0  0  0  0
  2  1  1  0  0  0  0
  3  2  2  0  0  0  0
  4 31  1  0  0  0  0
  5  4  1  0  0  0  0
  5  6  1  0  0  0  0
  5 32  1  6  0  0  0
  6  7  2  0  0  0  0
  8  5  1  0  0  0  0
  8 33  1  0  0  0  0
  8 34  1  0  0  0  0
  8 35  1  0  0  0  0
  9  6  1  0  0  0  0
  9 10  1  0  0  0  0
  9 36  1  0  0  0  0
 10 13  1  0  0  0  0
 10 37  1  1  0  0  0
 11 14  1  0  0  0  0
 11 10  1  0  0  0  0
 12 11  2  0  0  0  0
 13 38  1  0  0  0  0
 13 39  1  0  0  0  0
 13 40  1  0  0  0  0
 14 41  1  0  0  0  0
 15 16  1  0  0  0  0
 15 18  1  0  0  0  0
 15 14  1  0  0  0  0
 15 42  1  6  0  0  0
 16 17  2  0  0  0  0
 18 19  1  0  0  0  0
 18 43  1  1  0  0  0
 19 44  1  0  0  0  0
 20 18  1  0  0  0  0
 20 45  1  0  0  0  0
 20 46  1  0  0  0  0
 20 47  1  0  0  0  0
 21 16  1  0  0  0  0
 21 48  1  0  0  0  0
 22 21  1  0  0  0  0
 22 49  1  1  0  0  0
 23 22  1  0  0  0  0
 23 26  1  0  0  0  0
 24 23  2  0  0  0  0
 25 22  1  0  0  0  0
 25 50  1  0  0  0  0
 25 51  1  0  0  0  0
 25 52  1  0  0  0  0
 26 53  1  0  0  0  0
 27 26  1  0  0  0  0
 27 54  1  0  0  0  0
 27 55  1  0  0  0  0
 27 56  1  0  0  0  0
M  END
>  <MODEL>
       0

$$$$
selected_4mers/AATA/437_noH.pdb
 OpenBabel03042517593D

 56 55  0  0  1  0  0  0  0  0999 V2000
   20.5160   47.1000  -17.0810 C   0  0  0  0  0  0  0  0  0  0  0  0
   20.4260   47.6700  -15.6610 C   0  0  0  0  0  0  0  0  0  0  0  0
   21.2210   48.5320  -15.2710 O   0  0  0  0  0  0  0  0  0  0  0  0
   19.4680   47.1670  -14.8890 N   0  0  0  0  0  0  0  0  0  0  0  0
   19.2580   47.6100  -13.5150 C   0  0  2  0  0  0  0  0  0  0  0  0
   20.4120   47.1640  -12.6200 C   0  0  0  0  0  0  0  0  0  0  0  0
   20.8520   47.9040  -11.7480 O   0  0  0  0  0  0  0  0  0  0  0  0
   17.9390   47.0460  -12.9850 C   0  0  0  0  0  0  0  0  0  0  0  0
   20.9100   45.9570  -12.8650 N   0  0  0  0  0  0  0  0  0  0  0  0
   21.9940   45.4020  -12.0620 C   0  0  2  0  0  0  0  0  0  0  0  0
   23.3520   46.0190  -12.3580 C   0  0  0  0  0  0  0  0  0  0  0  0
   24.2880   45.8600  -11.5720 O   0  0  0  0  0  0  0  0  0  0  0  0
   22.0720   43.8920  -12.2660 C   0  0  0  0  0  0  0  0  0  0  0  0
   23.4700   46.7140  -13.4850 N   0  0  0  0  0  0  0  0  0  0  0  0
   24.7520   47.2990  -13.8620 C   0  0  2  0  0  0  0  0  0  0  0  0
   24.7460   48.8210  -13.9630 C   0  0  0  0  0  0  0  0  0  0  0  0
   25.1200   49.5150  -13.0220 O   0  0  0  0  0  0  0  0  0  0  0  0
   25.2460   46.6910  -15.2080 C   0  0  2  0  0  0  0  0  0  0  0  0
   24.2440   46.8750  -16.2180 O   0  0  0  0  0  0  0  0  0  0  0  0
   25.5120   45.2020  -15.0550 C   0  0  0  0  0  0  0  0  0  0  0  0
   24.3110   49.3330  -15.1070 N   0  0  0  0  0  0  0  0  0  0  0  0
   24.2810   50.7710  -15.3340 C   0  0  2  0  0  0  0  0  0  0  0  0
   23.4360   51.5440  -14.3230 C   0  0  0  0  0  0  0  0  0  0  0  0
   23.9010   52.5350  -13.7620 O   0  0  0  0  0  0  0  0  0  0  0  0
   23.7880   51.0570  -16.7500 C   0  0  0  0  0  0  0  0  0  0  0  0
   22.2000   51.1030  -14.0880 N   0  0  0  0  0  0  0  0  0  0  0  0
   21.3430   51.8170  -13.1480 C   0  0  0  0  0  0  0  0  0  0  0  0
   21.3175   47.5760  -17.6063 H   0  0  0  0  0  0  0  0  0  0  0  0
   19.5956   47.2793  -17.5963 H   0  0  0  0  0  0  0  0  0  0  0  0
   20.6978   46.0467  -17.0317 H   0  0  0  0  0  0  0  0  0  0  0  0
   18.8786   46.4700  -15.2579 H   0  0  0  0  0  0  0  0  0  0  0  0
   19.2168   48.6792  -13.5049 H   0  0  0  0  0  0  0  0  0  0  0  0
   17.9788   45.9768  -12.9946 H   0  0  0  0  0  0  0  0  0  0  0  0
   17.1337   47.3785  -13.6062 H   0  0  0  0  0  0  0  0  0  0  0  0
   17.7816   47.3881  -11.9835 H   0  0  0  0  0  0  0  0  0  0  0  0
   20.5389   45.4249  -13.6055 H   0  0  0  0  0  0  0  0  0  0  0  0
   21.7613   45.6376  -11.0445 H   0  0  0  0  0  0  0  0  0  0  0  0
   22.3054   43.6819  -13.2889 H   0  0  0  0  0  0  0  0  0  0  0  0
   21.1303   43.4493  -12.0169 H   0  0  0  0  0  0  0  0  0  0  0  0
   22.8350   43.4858  -11.6353 H   0  0  0  0  0  0  0  0  0  0  0  0
   22.6868   46.8347  -14.0692 H   0  0  0  0  0  0  0  0  0  0  0  0
   25.4227   47.0543  -13.0650 H   0  0  0  0  0  0  0  0  0  0  0  0
   26.1514   47.1872  -15.4889 H   0  0  0  0  0  0  0  0  0  0  0  0
   23.4293   46.4210  -15.9517 H   0  0  0  0  0  0  0  0  0  0  0  0
   24.6070   44.7050  -14.7740 H   0  0  0  0  0  0  0  0  0  0  0  0
   26.2531   45.0479  -14.2987 H   0  0  0  0  0  0  0  0  0  0  0  0
   25.8631   44.8050  -15.9845 H   0  0  0  0  0  0  0  0  0  0  0  0
   24.0015   48.7270  -15.8185 H   0  0  0  0  0  0  0  0  0  0  0  0
   25.2855   51.1164  -15.2049 H   0  0  0  0  0  0  0  0  0  0  0  0
   22.7835   50.7039  -16.8561 H   0  0  0  0  0  0  0  0  0  0  0  0
   24.4184   50.5565  -17.4550 H   0  0  0  0  0  0  0  0  0  0  0  0
   23.8165   52.1111  -16.9315 H   0  0  0  0  0  0  0  0  0  0  0  0
   21.8669   50.2984  -14.5472 H   0  0  0  0  0  0  0  0  0  0  0  0
   21.8719   52.6583  -12.7513 H   0  0  0  0  0  0  0  0  0  0  0  0
   21.0656   51.1612  -12.3493 H   0  0  0  0  0  0  0  0  0  0  0  0
   20.4629   52.1552  -13.6538 H   0  0  0  0  0  0  0  0  0  0  0  0
  1  2  1  0  0  0  0
  1 28  1  0  0  0  0
  1 29  1  0  0  0  0
  1 30  1  0  0  0  0
  2  3  2  0  0  0  0
  2  4  1  0  0  0  0
  4  5  1  0  0  0  0
  4 31  1  0  0  0  0
  5  8  1  0  0  0  0
  5  6  1  0  0  0  0
  5 32  1  1  0  0  0
  6  7  2  0  0  0  0
  8 33  1  0  0  0  0
  8 34  1  0  0  0  0
  8 35  1  0  0  0  0
  9  6  1  0  0  0  0
  9 10  1  0  0  0  0
  9 36  1  0  0  0  0
 10 37  1  1  0  0  0
 11 10  1  0  0  0  0
 11 12  2  0  0  0  0
 13 10  1  0  0  0  0
 13 38  1  0  0  0  0
 13 39  1  0  0  0  0
 13 40  1  0  0  0  0
 14 11  1  0  0  0  0
 14 41  1  0  0  0  0
 15 14  1  0  0  0  0
 15 42  1  1  0  0  0
 16 15  1  0  0  0  0
 16 17  2  0  0  0  0
 18 20  1  0  0  0  0
 18 15  1  0  0  0  0
 18 43  1  6  0  0  0
 19 18  1  0  0  0  0
 19 44  1  0  0  0  0
 20 45  1  0  0  0  0
 20 46  1  0  0  0  0
 20 47  1  0  0  0  0
 21 16  1  0  0  0  0
 21 48  1  0  0  0  0
 22 21  1  0  0  0  0
 22 23  1  0  0  0  0
 22 49  1  1  0  0  0
 23 26  1  0  0  0  0
 23 24  2  0  0  0  0
 25 22  1  0  0  0  0
 25 50  1  0  0  0  0
 25 51  1  0  0  0  0
 25 52  1  0  0  0  0
 26 27  1  0  0  0  0
 26 53  1  0  0  0  0
 27 54  1  0  0  0  0
 27 55  1  0  0  0  0
 27 56  1  0  0  0  0
M  END
>  <MODEL>
       0

$$$$
selected_4mers/AATA/438_noH.pdb
 OpenBabel03042517593D

 56 55  0  0  1  0  0  0  0  0999 V2000
   33.6380   18.6720   45.6230 C   0  0  0  0  0  0  0  0  0  0  0  0
   33.7150   19.6730   44.4730 C   0  0  0  0  0  0  0  0  0  0  0  0
   34.1890   20.7950   44.6490 O   0  0  0  0  0  0  0  0  0  0  0  0
   33.2460   19.2680   43.2960 N   0  0  0  0  0  0  0  0  0  0  0  0
   33.2610   20.1570   42.1410 C   0  0  2  0  0  0  0  0  0  0  0  0
   32.3280   21.3330   42.4200 C   0  0  0  0  0  0  0  0  0  0  0  0
   32.6690   22.4780   42.1480 O   0  0  0  0  0  0  0  0  0  0  0  0
   32.8040   19.4100   40.8890 C   0  0  0  0  0  0  0  0  0  0  0  0
   31.1520   21.0390   42.9670 N   0  0  0  0  0  0  0  0  0  0  0  0
   30.1740   22.0780   43.2840 C   0  0  2  0  0  0  0  0  0  0  0  0
   30.7190   23.0700   44.3040 C   0  0  0  0  0  0  0  0  0  0  0  0
   30.5000   24.2770   44.1920 O   0  0  0  0  0  0  0  0  0  0  0  0
   28.8900   21.4480   43.8100 C   0  0  0  0  0  0  0  0  0  0  0  0
   31.4270   22.5670   45.3100 N   0  0  0  0  0  0  0  0  0  0  0  0
   31.9830   23.4480   46.3310 C   0  0  2  0  0  0  0  0  0  0  0  0
   33.0690   24.3490   45.7490 C   0  0  0  0  0  0  0  0  0  0  0  0
   33.1400   25.5410   46.0650 O   0  0  0  0  0  0  0  0  0  0  0  0
   32.5480   22.6250   47.5230 C   0  0  2  0  0  0  0  0  0  0  0  0
   31.4540   22.0800   48.2760 O   0  0  0  0  0  0  0  0  0  0  0  0
   33.4010   23.5010   48.4360 C   0  0  0  0  0  0  0  0  0  0  0  0
   33.9180   23.7890   44.8940 N   0  0  0  0  0  0  0  0  0  0  0  0
   34.9790   24.5790   44.2890 C   0  0  2  0  0  0  0  0  0  0  0  0
   34.3760   25.6620   43.3950 C   0  0  0  0  0  0  0  0  0  0  0  0
   34.8880   26.7800   43.3320 O   0  0  0  0  0  0  0  0  0  0  0  0
   35.9150   23.6780   43.4760 C   0  0  0  0  0  0  0  0  0  0  0  0
   33.2910   25.3360   42.7000 N   0  0  0  0  0  0  0  0  0  0  0  0
   32.6610   26.3310   41.8380 C   0  0  0  0  0  0  0  0  0  0  0  0
   33.1986   17.7609   45.2740 H   0  0  0  0  0  0  0  0  0  0  0  0
   33.0382   19.0786   46.4103 H   0  0  0  0  0  0  0  0  0  0  0  0
   34.6233   18.4748   45.9908 H   0  0  0  0  0  0  0  0  0  0  0  0
   32.8844   18.3569   43.2039 H   0  0  0  0  0  0  0  0  0  0  0  0
   34.2562   20.5123   41.9727 H   0  0  0  0  0  0  0  0  0  0  0  0
   31.8089   19.0449   41.0349 H   0  0  0  0  0  0  0  0  0  0  0  0
   33.4624   18.5870   40.7044 H   0  0  0  0  0  0  0  0  0  0  0  0
   32.8207   20.0750   40.0509 H   0  0  0  0  0  0  0  0  0  0  0  0
   30.9349   20.0990   43.1631 H   0  0  0  0  0  0  0  0  0  0  0  0
   29.9656   22.6134   42.3813 H   0  0  0  0  0  0  0  0  0  0  0  0
   29.0991   20.9128   44.7126 H   0  0  0  0  0  0  0  0  0  0  0  0
   28.4978   20.7733   43.0779 H   0  0  0  0  0  0  0  0  0  0  0  0
   28.1715   22.2156   44.0088 H   0  0  0  0  0  0  0  0  0  0  0  0
   31.5768   21.5956   45.3664 H   0  0  0  0  0  0  0  0  0  0  0  0
   31.1895   24.0691   46.6908 H   0  0  0  0  0  0  0  0  0  0  0  0
   33.1629   21.8393   47.1363 H   0  0  0  0  0  0  0  0  0  0  0  0
   30.9062   22.8029   48.6197 H   0  0  0  0  0  0  0  0  0  0  0  0
   32.8011   24.2934   48.8323 H   0  0  0  0  0  0  0  0  0  0  0  0
   34.2136   23.9146   47.8761 H   0  0  0  0  0  0  0  0  0  0  0  0
   33.7865   22.9092   49.2398 H   0  0  0  0  0  0  0  0  0  0  0  0
   33.8285   22.8348   44.6689 H   0  0  0  0  0  0  0  0  0  0  0  0
   35.5481   25.0474   45.0647 H   0  0  0  0  0  0  0  0  0  0  0  0
   35.3611   23.2010   42.6946 H   0  0  0  0  0  0  0  0  0  0  0  0
   36.3400   22.9343   44.1172 H   0  0  0  0  0  0  0  0  0  0  0  0
   36.6974   24.2697   43.0486 H   0  0  0  0  0  0  0  0  0  0  0  0
   32.9145   24.4287   42.7663 H   0  0  0  0  0  0  0  0  0  0  0  0
   33.2068   27.2495   41.8955 H   0  0  0  0  0  0  0  0  0  0  0  0
   31.6534   26.4941   42.1589 H   0  0  0  0  0  0  0  0  0  0  0  0
   32.6610   25.9788   40.8276 H   0  0  0  0  0  0  0  0  0  0  0  0
  1 28  1  0  0  0  0
  1 29  1  0  0  0  0
  1 30  1  0  0  0  0
  2  3  2  0  0  0  0
  2  1  1  0  0  0  0
  4  2  1  0  0  0  0
  4 31  1  0  0  0  0
  5  6  1  0  0  0  0
  5  4  1  0  0  0  0
  5 32  1  6  0  0  0
  6  9  1  0  0  0  0
  7  6  2  0  0  0  0
  8  5  1  0  0  0  0
  8 33  1  0  0  0  0
  8 34  1  0  0  0  0
  8 35  1  0  0  0  0
  9 10  1  0  0  0  0
  9 36  1  0  0  0  0
 10 13  1  0  0  0  0
 10 11  1  0  0  0  0
 10 37  1  6  0  0  0
 11 14  1  0  0  0  0
 12 11  2  0  0  0  0
 13 38  1  0  0  0  0
 13 39  1  0  0  0  0
 13 40  1  0  0  0  0
 14 15  1  0  0  0  0
 14 41  1  0  0  0  0
 15 18  1  0  0  0  0
 15 42  1  1  0  0  0
 16 17  2  0  0  0  0
 16 15  1  0  0  0  0
 18 19  1  0  0  0  0
 18 20  1  0  0  0  0
 18 43  1  6  0  0  0
 19 44  1  0  0  0  0
 20 45  1  0  0  0  0
 20 46  1  0  0  0  0
 20 47  1  0  0  0  0
 21 16  1  0  0  0  0
 21 48  1  0  0  0  0
 22 21  1  0  0  0  0
 22 49  1  1  0  0  0
 23 22  1  0  0  0  0
 24 23  2  0  0  0  0
 25 22  1  0  0  0  0
 25 50  1  0  0  0  0
 25 51  1  0  0  0  0
 25 52  1  0  0  0  0
 26 23  1  0  0  0  0
 26 53  1  0  0  0  0
 27 26  1  0  0  0  0
 27 54  1  0  0  0  0
 27 55  1  0  0  0  0
 27 56  1  0  0  0  0
M  END
>  <MODEL>
       0

$$$$
selected_4mers/AATA/439_noH.pdb
 OpenBabel03042517593D

 56 55  0  0  1  0  0  0  0  0999 V2000
    2.5020   42.2570   20.0200 C   0  0  0  0  0  0  0  0  0  0  0  0
    3.9290   42.3820   19.5210 C   0  0  0  0  0  0  0  0  0  0  0  0
    4.1670   42.8640   18.4080 O   0  0  0  0  0  0  0  0  0  0  0  0
    4.8750   41.9000   20.3250 N   0  0  0  0  0  0  0  0  0  0  0  0
    6.2730   42.0000   19.9300 C   0  0  2  0  0  0  0  0  0  0  0  0
    6.5200   41.0180   18.7810 C   0  0  0  0  0  0  0  0  0  0  0  0
    7.2410   41.3240   17.8400 O   0  0  0  0  0  0  0  0  0  0  0  0
    7.2100   41.6800   21.1300 C   0  0  0  0  0  0  0  0  0  0  0  0
    5.9000   39.8440   18.8500 N   0  0  0  0  0  0  0  0  0  0  0  0
    6.0780   38.8480   17.8100 C   0  0  2  0  0  0  0  0  0  0  0  0
    5.4240   39.2590   16.5070 C   0  0  0  0  0  0  0  0  0  0  0  0
    5.7600   38.7140   15.4630 O   0  0  0  0  0  0  0  0  0  0  0  0
    5.4880   37.5030   18.2580 C   0  0  0  0  0  0  0  0  0  0  0  0
    4.4580   40.1840   16.5560 N   0  0  0  0  0  0  0  0  0  0  0  0
    3.7920   40.5770   15.3260 C   0  0  2  0  0  0  0  0  0  0  0  0
    4.1680   41.9830   14.8600 C   0  0  0  0  0  0  0  0  0  0  0  0
    3.5190   42.5280   13.9840 O   0  0  0  0  0  0  0  0  0  0  0  0
    2.2500   40.5040   15.4310 C   0  0  2  0  0  0  0  0  0  0  0  0
    1.8200   41.2570   16.5640 O   0  0  0  0  0  0  0  0  0  0  0  0
    1.7850   39.0570   15.5730 C   0  0  0  0  0  0  0  0  0  0  0  0
    5.2180   42.5470   15.4430 N   0  0  0  0  0  0  0  0  0  0  0  0
    5.7050   43.8590   15.0310 C   0  0  2  0  0  0  0  0  0  0  0  0
    5.9850   43.9020   13.5250 C   0  0  0  0  0  0  0  0  0  0  0  0
    6.2400   42.8800   12.8870 O   0  0  0  0  0  0  0  0  0  0  0  0
    6.9790   44.1770   15.7550 C   0  0  0  0  0  0  0  0  0  0  0  0
    5.9630   45.1010   12.9590 N   0  0  0  0  0  0  0  0  0  0  0  0
    6.2360   45.2450   11.5430 C   0  0  0  0  0  0  0  0  0  0  0  0
    1.8333   42.6749   19.2967 H   0  0  0  0  0  0  0  0  0  0  0  0
    2.4005   42.7838   20.9458 H   0  0  0  0  0  0  0  0  0  0  0  0
    2.2656   41.2242   20.1695 H   0  0  0  0  0  0  0  0  0  0  0  0
    4.6308   41.4789   21.1807 H   0  0  0  0  0  0  0  0  0  0  0  0
    6.4873   42.9986   19.6111 H   0  0  0  0  0  0  0  0  0  0  0  0
    7.0210   40.6848   21.4746 H   0  0  0  0  0  0  0  0  0  0  0  0
    7.0233   42.3736   21.9231 H   0  0  0  0  0  0  0  0  0  0  0  0
    8.2301   41.7616   20.8176 H   0  0  0  0  0  0  0  0  0  0  0  0
    5.3132   39.6481   19.6158 H   0  0  0  0  0  0  0  0  0  0  0  0
    7.1310   38.7562   17.6436 H   0  0  0  0  0  0  0  0  0  0  0  0
    4.4359   37.6113   18.4200 H   0  0  0  0  0  0  0  0  0  0  0  0
    5.9588   37.1922   19.1672 H   0  0  0  0  0  0  0  0  0  0  0  0
    5.6582   36.7683   17.4989 H   0  0  0  0  0  0  0  0  0  0  0  0
    4.2020   40.5928   17.4143 H   0  0  0  0  0  0  0  0  0  0  0  0
    4.1373   39.8651   14.6057 H   0  0  0  0  0  0  0  0  0  0  0  0
    1.8241   40.9107   14.5376 H   0  0  0  0  0  0  0  0  0  0  0  0
    2.2105   40.8817   17.3687 H   0  0  0  0  0  0  0  0  0  0  0  0
    2.2023   38.6340   16.4628 H   0  0  0  0  0  0  0  0  0  0  0  0
    2.1098   38.4930   14.7237 H   0  0  0  0  0  0  0  0  0  0  0  0
    0.7170   39.0297   15.6320 H   0  0  0  0  0  0  0  0  0  0  0  0
    5.6789   42.0693   16.1701 H   0  0  0  0  0  0  0  0  0  0  0  0
    4.9460   44.5752   15.2673 H   0  0  0  0  0  0  0  0  0  0  0  0
    7.7227   43.4496   15.5046 H   0  0  0  0  0  0  0  0  0  0  0  0
    6.8036   44.1589   16.8104 H   0  0  0  0  0  0  0  0  0  0  0  0
    7.3199   45.1494   15.4667 H   0  0  0  0  0  0  0  0  0  0  0  0
    5.7605   45.8963   13.5027 H   0  0  0  0  0  0  0  0  0  0  0  0
    6.4334   44.2830   11.1182 H   0  0  0  0  0  0  0  0  0  0  0  0
    7.0887   45.8769   11.4066 H   0  0  0  0  0  0  0  0  0  0  0  0
    5.3875   45.6815   11.0588 H   0  0  0  0  0  0  0  0  0  0  0  0
  1 28  1  0  0  0  0
  1 29  1  0  0  0  0
  1 30  1  0  0  0  0
  2  1  1  0  0  0  0
  2  4  1  0  0  0  0
  3  2  2  0  0  0  0
  4 31  1  0  0  0  0
  5  4  1  0  0  0  0
  5  8  1  0  0  0  0
  5 32  1  6  0  0  0
  6  9  1  0  0  0  0
  6  5  1  0  0  0  0
  7  6  2  0  0  0  0
  8 33  1  0  0  0  0
  8 34  1  0  0  0  0
  8 35  1  0  0  0  0
  9 36  1  0  0  0  0
 10 13  1  0  0  0  0
 10  9  1  0  0  0  0
 10 37  1  6  0  0  0
 11 14  1  0  0  0  0
 11 10  1  0  0  0  0
 12 11  2  0  0  0  0
 13 38  1  0  0  0  0
 13 39  1  0  0  0  0
 13 40  1  0  0  0  0
 14 41  1  0  0  0  0
 15 18  1  0  0  0  0
 15 14  1  0  0  0  0
 15 42  1  6  0  0  0
 16 15  1  0  0  0  0
 16 21  1  0  0  0  0
 17 16  2  0  0  0  0
 18 20  1  0  0  0  0
 18 19  1  0  0  0  0
 18 43  1  6  0  0  0
 19 44  1  0  0  0  0
 20 45  1  0  0  0  0
 20 46  1  0  0  0  0
 20 47  1  0  0  0  0
 21 48  1  0  0  0  0
 22 21  1  0  0  0  0
 22 25  1  0  0  0  0
 22 49  1  1  0  0  0
 23 22  1  0  0  0  0
 24 23  2  0  0  0  0
 25 50  1  0  0  0  0
 25 51  1  0  0  0  0
 25 52  1  0  0  0  0
 26 23  1  0  0  0  0
 26 53  1  0  0  0  0
 27 26  1  0  0  0  0
 27 54  1  0  0  0  0
 27 55  1  0  0  0  0
 27 56  1  0  0  0  0
M  END
>  <MODEL>
       0

$$$$
