selected_4mers/AAVA/380_noH.pdb
 OpenBabel03042517593D

 58 57  0  0  1  0  0  0  0  0999 V2000
   29.4710   12.1420  -11.4930 C   0  0  0  0  0  0  0  0  0  0  0  0
   30.5510   12.6230  -12.4430 C   0  0  0  0  0  0  0  0  0  0  0  0
   31.4070   13.4840  -12.0910 O   0  0  0  0  0  0  0  0  0  0  0  0
   30.5380   12.0980  -13.6640 N   0  0  0  0  0  0  0  0  0  0  0  0
   31.4900   12.5230  -14.6690 C   0  0  2  0  0  0  0  0  0  0  0  0
   31.2950   14.0050  -15.0620 C   0  0  0  0  0  0  0  0  0  0  0  0
   32.2710   14.7070  -15.3220 O   0  0  0  0  0  0  0  0  0  0  0  0
   31.3030   11.6440  -15.9370 C   0  0  0  0  0  0  0  0  0  0  0  0
   30.0420   14.4310  -15.1510 N   0  0  0  0  0  0  0  0  0  0  0  0
   29.7710   15.8570  -15.5180 C   0  0  2  0  0  0  0  0  0  0  0  0
   30.3290   16.7540  -14.3980 C   0  0  0  0  0  0  0  0  0  0  0  0
   30.9570   17.7890  -14.6750 O   0  0  0  0  0  0  0  0  0  0  0  0
   28.2440   16.0900  -15.6770 C   0  0  0  0  0  0  0  0  0  0  0  0
   30.1170   16.3570  -13.1490 N   0  0  0  0  0  0  0  0  0  0  0  0
   30.6340   17.1520  -12.0260 C   0  0  2  0  0  0  0  0  0  0  0  0
   32.1610   17.1830  -12.1150 C   0  0  0  0  0  0  0  0  0  0  0  0
   32.7530   18.2630  -12.0040 O   0  0  0  0  0  0  0  0  0  0  0  0
   30.1910   16.5530  -10.6760 C   0  0  0  0  0  0  0  0  0  0  0  0
   30.9420   17.2210   -9.4530 C   0  0  0  0  0  0  0  0  0  0  0  0
   28.6850   16.7710  -10.5320 C   0  0  0  0  0  0  0  0  0  0  0  0
   32.8130   16.0300  -12.3360 N   0  0  0  0  0  0  0  0  0  0  0  0
   34.2820   16.0520  -12.4470 C   0  0  2  0  0  0  0  0  0  0  0  0
   34.7620   16.8840  -13.6350 C   0  0  0  0  0  0  0  0  0  0  0  0
   35.7690   17.5840  -13.5500 O   0  0  0  0  0  0  0  0  0  0  0  0
   34.8180   14.5320  -12.6110 C   0  0  0  0  0  0  0  0  0  0  0  0
   34.0970   16.7400  -14.7880 N   0  0  0  0  0  0  0  0  0  0  0  0
   34.5660   17.4440  -15.9650 C   0  0  0  0  0  0  0  0  0  0  0  0
   28.8568   11.4190  -11.9879 H   0  0  0  0  0  0  0  0  0  0  0  0
   28.8690   12.9722  -11.1876 H   0  0  0  0  0  0  0  0  0  0  0  0
   29.9253   11.6955  -10.6333 H   0  0  0  0  0  0  0  0  0  0  0  0
   29.8709   11.4097  -13.8886 H   0  0  0  0  0  0  0  0  0  0  0  0
   32.4728   12.4145  -14.2600 H   0  0  0  0  0  0  0  0  0  0  0  0
   30.3124   11.7758  -16.3195 H   0  0  0  0  0  0  0  0  0  0  0  0
   31.4534   10.6154  -15.6833 H   0  0  0  0  0  0  0  0  0  0  0  0
   32.0144   11.9355  -16.6812 H   0  0  0  0  0  0  0  0  0  0  0  0
   29.2952   13.8136  -14.9769 H   0  0  0  0  0  0  0  0  0  0  0  0
   30.2419   16.0923  -16.4495 H   0  0  0  0  0  0  0  0  0  0  0  0
   27.7504   15.8607  -14.7558 H   0  0  0  0  0  0  0  0  0  0  0  0
   27.8653   15.4566  -16.4518 H   0  0  0  0  0  0  0  0  0  0  0  0
   28.0641   17.1132  -15.9330 H   0  0  0  0  0  0  0  0  0  0  0  0
   29.6131   15.5294  -12.9748 H   0  0  0  0  0  0  0  0  0  0  0  0
   30.2415   18.1457  -12.0843 H   0  0  0  0  0  0  0  0  0  0  0  0
   30.4354   15.5113  -10.6664 H   0  0  0  0  0  0  0  0  0  0  0  0
   30.7220   18.2678   -9.4280 H   0  0  0  0  0  0  0  0  0  0  0  0
   31.9971   17.0808   -9.5627 H   0  0  0  0  0  0  0  0  0  0  0  0
   30.6145   16.7659   -8.5417 H   0  0  0  0  0  0  0  0  0  0  0  0
   28.4736   17.8198  -10.5451 H   0  0  0  0  0  0  0  0  0  0  0  0
   28.3508   16.3513   -9.6062 H   0  0  0  0  0  0  0  0  0  0  0  0
   28.1764   16.2945  -11.3439 H   0  0  0  0  0  0  0  0  0  0  0  0
   32.3174   15.1837  -12.4224 H   0  0  0  0  0  0  0  0  0  0  0  0
   34.6712   16.5038  -11.5586 H   0  0  0  0  0  0  0  0  0  0  0  0
   34.4140   14.1059  -13.5055 H   0  0  0  0  0  0  0  0  0  0  0  0
   34.5076   13.9514  -11.7676 H   0  0  0  0  0  0  0  0  0  0  0  0
   35.8865   14.5348  -12.6683 H   0  0  0  0  0  0  0  0  0  0  0  0
   33.3002   16.1637  -14.8358 H   0  0  0  0  0  0  0  0  0  0  0  0
   35.4366   18.0142  -15.7163 H   0  0  0  0  0  0  0  0  0  0  0  0
   33.7982   18.1007  -16.3174 H   0  0  0  0  0  0  0  0  0  0  0  0
   34.8094   16.7368  -16.7302 H   0  0  0  0  0  0  0  0  0  0  0  0
  1 28  1  0  0  0  0
  1 29  1  0  0  0  0
  1 30  1  0  0  0  0
  2  3  2  0  0  0  0
  2  1  1  0  0  0  0
  4  2  1  0  0  0  0
  4 31  1  0  0  0  0
  5  4  1  0  0  0  0
  5 32  1  1  0  0  0
  6  5  1  0  0  0  0
  7  6  2  0  0  0  0
  8  5  1  0  0  0  0
  8 33  1  0  0  0  0
  8 34  1  0  0  0  0
  8 35  1  0  0  0  0
  9  6  1  0  0  0  0
  9 36  1  0  0  0  0
 10  9  1  0  0  0  0
 10 11  1  0  0  0  0
 10 37  1  6  0  0  0
 11 14  1  0  0  0  0
 12 11  2  0  0  0  0
 13 10  1  0  0  0  0
 13 38  1  0  0  0  0
 13 39  1  0  0  0  0
 13 40  1  0  0  0  0
 14 15  1  0  0  0  0
 14 41  1  0  0  0  0
 15 18  1  0  0  0  0
 15 42  1  6  0  0  0
 16 15  1  0  0  0  0
 16 17  2  0  0  0  0
 18 20  1  0  0  0  0
 18 19  1  0  0  0  0
 18 43  1  0  0  0  0
 19 44  1  0  0  0  0
 19 45  1  0  0  0  0
 19 46  1  0  0  0  0
 20 47  1  0  0  0  0
 20 48  1  0  0  0  0
 20 49  1  0  0  0  0
 21 16  1  0  0  0  0
 21 50  1  0  0  0  0
 22 21  1  0  0  0  0
 22 51  1  1  0  0  0
 23 24  2  0  0  0  0
 23 22  1  0  0  0  0
 25 22  1  0  0  0  0
 25 52  1  0  0  0  0
 25 53  1  0  0  0  0
 25 54  1  0  0  0  0
 26 23  1  0  0  0  0
 26 55  1  0  0  0  0
 27 26  1  0  0  0  0
 27 56  1  0  0  0  0
 27 57  1  0  0  0  0
 27 58  1  0  0  0  0
M  END
>  <MODEL>
       0

$$$$
selected_4mers/AAVA/381_noH.pdb
 OpenBabel03042517593D

 58 57  0  0  1  0  0  0  0  0999 V2000
    3.7710    5.2710   29.5820 C   0  0  0  0  0  0  0  0  0  0  0  0
    4.2660    4.8270   30.9600 C   0  0  0  0  0  0  0  0  0  0  0  0
    3.5760    5.0190   31.9540 O   0  0  0  0  0  0  0  0  0  0  0  0
    5.4640    4.2550   31.0410 N   0  0  0  0  0  0  0  0  0  0  0  0
    6.0210    3.8540   32.3260 C   0  0  2  0  0  0  0  0  0  0  0  0
    6.2050    5.0460   33.2590 C   0  0  0  0  0  0  0  0  0  0  0  0
    6.0690    4.9060   34.4760 O   0  0  0  0  0  0  0  0  0  0  0  0
    7.3560    3.1380   32.1220 C   0  0  0  0  0  0  0  0  0  0  0  0
    6.5160    6.2080   32.7000 N   0  0  0  0  0  0  0  0  0  0  0  0
    6.7300    7.4200   33.4860 C   0  0  2  0  0  0  0  0  0  0  0  0
    5.4130    8.0420   33.9280 C   0  0  0  0  0  0  0  0  0  0  0  0
    5.3110    8.5070   35.0620 O   0  0  0  0  0  0  0  0  0  0  0  0
    7.5480    8.4350   32.6990 C   0  0  0  0  0  0  0  0  0  0  0  0
    4.4130    8.0850   33.0550 N   0  0  0  0  0  0  0  0  0  0  0  0
    3.1710    8.7960   33.3820 C   0  0  2  0  0  0  0  0  0  0  0  0
    2.1200    7.9150   34.0560 C   0  0  0  0  0  0  0  0  0  0  0  0
    1.2220    8.4400   34.7310 O   0  0  0  0  0  0  0  0  0  0  0  0
    2.5530    9.5430   32.1590 C   0  0  0  0  0  0  0  0  0  0  0  0
    3.5840   10.4450   31.4960 C   0  0  0  0  0  0  0  0  0  0  0  0
    1.9200    8.5930   31.1590 C   0  0  0  0  0  0  0  0  0  0  0  0
    2.2320    6.5990   33.8970 N   0  0  0  0  0  0  0  0  0  0  0  0
    1.3020    5.6490   34.5020 C   0  0  2  0  0  0  0  0  0  0  0  0
    2.1000    4.4880   35.0880 C   0  0  0  0  0  0  0  0  0  0  0  0
    1.9430    3.3280   34.6800 O   0  0  0  0  0  0  0  0  0  0  0  0
    0.2780    5.1590   33.4870 C   0  0  0  0  0  0  0  0  0  0  0  0
    2.9720    4.7830   36.0470 N   0  0  0  0  0  0  0  0  0  0  0  0
    3.8780    3.7420   36.5430 C   0  0  0  0  0  0  0  0  0  0  0  0
    4.5029    5.0212   28.8426 H   0  0  0  0  0  0  0  0  0  0  0  0
    3.6126    6.3292   29.5838 H   0  0  0  0  0  0  0  0  0  0  0  0
    2.8513    4.7731   29.3559 H   0  0  0  0  0  0  0  0  0  0  0  0
    5.9830    4.1000   30.2189 H   0  0  0  0  0  0  0  0  0  0  0  0
    5.3247    3.1840   32.7855 H   0  0  0  0  0  0  0  0  0  0  0  0
    8.0531    3.8072   31.6625 H   0  0  0  0  0  0  0  0  0  0  0  0
    7.2110    2.2858   31.4914 H   0  0  0  0  0  0  0  0  0  0  0  0
    7.7385    2.8198   33.0693 H   0  0  0  0  0  0  0  0  0  0  0  0
    6.6057    6.2550   31.7207 H   0  0  0  0  0  0  0  0  0  0  0  0
    7.2744    7.1387   34.3631 H   0  0  0  0  0  0  0  0  0  0  0  0
    7.0101    8.7217   31.8196 H   0  0  0  0  0  0  0  0  0  0  0  0
    8.4837    7.9984   32.4183 H   0  0  0  0  0  0  0  0  0  0  0  0
    7.7250    9.2981   33.3061 H   0  0  0  0  0  0  0  0  0  0  0  0
    4.5053    7.6372   32.1831 H   0  0  0  0  0  0  0  0  0  0  0  0
    3.4718    9.5327   34.0973 H   0  0  0  0  0  0  0  0  0  0  0  0
    1.7626   10.1595   32.5334 H   0  0  0  0  0  0  0  0  0  0  0  0
    4.3858    9.8489   31.1132 H   0  0  0  0  0  0  0  0  0  0  0  0
    3.9669   11.1381   32.2157 H   0  0  0  0  0  0  0  0  0  0  0  0
    3.1241   10.9823   30.6930 H   0  0  0  0  0  0  0  0  0  0  0  0
    2.6724    7.9501   30.7522 H   0  0  0  0  0  0  0  0  0  0  0  0
    1.4669    9.1558   30.3698 H   0  0  0  0  0  0  0  0  0  0  0  0
    1.1744    8.0032   31.6500 H   0  0  0  0  0  0  0  0  0  0  0  0
    2.9722    6.2511   33.3490 H   0  0  0  0  0  0  0  0  0  0  0  0
    0.7554    6.1340   35.2836 H   0  0  0  0  0  0  0  0  0  0  0  0
    0.7815    4.6647   32.6826 H   0  0  0  0  0  0  0  0  0  0  0  0
   -0.2723    5.9931   33.1044 H   0  0  0  0  0  0  0  0  0  0  0  0
   -0.3947    4.4750   33.9608 H   0  0  0  0  0  0  0  0  0  0  0  0
    3.0093    5.6929   36.4212 H   0  0  0  0  0  0  0  0  0  0  0  0
    3.6903    2.8273   36.0205 H   0  0  0  0  0  0  0  0  0  0  0  0
    3.7132    3.5950   37.5900 H   0  0  0  0  0  0  0  0  0  0  0  0
    4.8915    4.0442   36.3804 H   0  0  0  0  0  0  0  0  0  0  0  0
  1  2  1  0  0  0  0
  1 28  1  0  0  0  0
  1 29  1  0  0  0  0
  1 30  1  0  0  0  0
  2  4  1  0  0  0  0
  2  3  2  0  0  0  0
  4  5  1  0  0  0  0
  4 31  1  0  0  0  0
  5  6  1  0  0  0  0
  5 32  1  1  0  0  0
  6  7  2  0  0  0  0
  8  5  1  0  0  0  0
  8 33  1  0  0  0  0
  8 34  1  0  0  0  0
  8 35  1  0  0  0  0
  9  6  1  0  0  0  0
  9 10  1  0  0  0  0
  9 36  1  0  0  0  0
 10 11  1  0  0  0  0
 10 37  1  1  0  0  0
 11 12  2  0  0  0  0
 13 10  1  0  0  0  0
 13 38  1  0  0  0  0
 13 39  1  0  0  0  0
 13 40  1  0  0  0  0
 14 15  1  0  0  0  0
 14 11  1  0  0  0  0
 14 41  1  0  0  0  0
 15 16  1  0  0  0  0
 15 42  1  1  0  0  0
 16 17  2  0  0  0  0
 18 15  1  0  0  0  0
 18 43  1  0  0  0  0
 19 18  1  0  0  0  0
 19 44  1  0  0  0  0
 19 45  1  0  0  0  0
 19 46  1  0  0  0  0
 20 18  1  0  0  0  0
 20 47  1  0  0  0  0
 20 48  1  0  0  0  0
 20 49  1  0  0  0  0
 21 16  1  0  0  0  0
 21 22  1  0  0  0  0
 21 50  1  0  0  0  0
 22 23  1  0  0  0  0
 22 51  1  1  0  0  0
 23 26  1  0  0  0  0
 24 23  2  0  0  0  0
 25 22  1  0  0  0  0
 25 52  1  0  0  0  0
 25 53  1  0  0  0  0
 25 54  1  0  0  0  0
 26 27  1  0  0  0  0
 26 55  1  0  0  0  0
 27 56  1  0  0  0  0
 27 57  1  0  0  0  0
 27 58  1  0  0  0  0
M  END
>  <MODEL>
       0

$$$$
selected_4mers/AAVA/382_noH.pdb
 OpenBabel03042517593D

 58 57  0  0  1  0  0  0  0  0999 V2000
   16.1560  -10.3130   33.1210 C   0  0  0  0  0  0  0  0  0  0  0  0
   15.6480   -9.1340   32.3060 C   0  0  0  0  0  0  0  0  0  0  0  0
   14.4390   -8.9820   32.1260 O   0  0  0  0  0  0  0  0  0  0  0  0
   16.5500   -8.2900   31.8170 N   0  0  0  0  0  0  0  0  0  0  0  0
   16.1500   -7.2330   30.8890 C   0  0  2  0  0  0  0  0  0  0  0  0
   16.2530   -7.7920   29.4600 C   0  0  0  0  0  0  0  0  0  0  0  0
   17.2800   -8.3420   29.0800 O   0  0  0  0  0  0  0  0  0  0  0  0
   17.0250   -5.9810   31.0680 C   0  0  0  0  0  0  0  0  0  0  0  0
   15.1600   -7.6950   28.7060 N   0  0  0  0  0  0  0  0  0  0  0  0
   15.1080   -8.1130   27.3080 C   0  0  2  0  0  0  0  0  0  0  0  0
   15.0140   -6.8300   26.4880 C   0  0  0  0  0  0  0  0  0  0  0  0
   13.9520   -6.2290   26.3880 O   0  0  0  0  0  0  0  0  0  0  0  0
   13.8820   -9.0120   27.0640 C   0  0  0  0  0  0  0  0  0  0  0  0
   16.1410   -6.4050   25.9350 N   0  0  0  0  0  0  0  0  0  0  0  0
   16.2630   -5.0810   25.3620 C   0  0  2  0  0  0  0  0  0  0  0  0
   16.2670   -5.1260   23.8370 C   0  0  0  0  0  0  0  0  0  0  0  0
   17.1760   -5.6880   23.2300 O   0  0  0  0  0  0  0  0  0  0  0  0
   17.5660   -4.4180   25.8140 C   0  0  0  0  0  0  0  0  0  0  0  0
   17.7130   -3.0570   25.1410 C   0  0  0  0  0  0  0  0  0  0  0  0
   17.6140   -4.3200   27.3550 C   0  0  0  0  0  0  0  0  0  0  0  0
   15.2550   -4.5070   23.2390 N   0  0  0  0  0  0  0  0  0  0  0  0
   15.2090   -4.2810   21.7970 C   0  0  2  0  0  0  0  0  0  0  0  0
   15.2150   -2.7860   21.5400 C   0  0  0  0  0  0  0  0  0  0  0  0
   14.7130   -2.0120   22.3530 O   0  0  0  0  0  0  0  0  0  0  0  0
   13.9640   -4.9110   21.2050 C   0  0  0  0  0  0  0  0  0  0  0  0
   15.7920   -2.3830   20.4120 N   0  0  0  0  0  0  0  0  0  0  0  0
   15.7860   -0.9910   20.0140 C   0  0  0  0  0  0  0  0  0  0  0  0
   17.2244  -10.2796   33.1689 H   0  0  0  0  0  0  0  0  0  0  0  0
   15.8482  -11.2266   32.6568 H   0  0  0  0  0  0  0  0  0  0  0  0
   15.7529  -10.2625   34.1109 H   0  0  0  0  0  0  0  0  0  0  0  0
   17.4944   -8.3768   32.0813 H   0  0  0  0  0  0  0  0  0  0  0  0
   15.1425   -6.9315   31.0864 H   0  0  0  0  0  0  0  0  0  0  0  0
   18.0483   -6.2312   30.8805 H   0  0  0  0  0  0  0  0  0  0  0  0
   16.9247   -5.6159   32.0688 H   0  0  0  0  0  0  0  0  0  0  0  0
   16.7108   -5.2248   30.3793 H   0  0  0  0  0  0  0  0  0  0  0  0
   14.3444   -7.3220   29.1122 H   0  0  0  0  0  0  0  0  0  0  0  0
   15.9708   -8.6832   27.0336 H   0  0  0  0  0  0  0  0  0  0  0  0
   12.9916   -8.4798   27.3263 H   0  0  0  0  0  0  0  0  0  0  0  0
   13.9608   -9.8936   27.6653 H   0  0  0  0  0  0  0  0  0  0  0  0
   13.8416   -9.2874   26.0308 H   0  0  0  0  0  0  0  0  0  0  0  0
   16.9189   -7.0080   25.9132 H   0  0  0  0  0  0  0  0  0  0  0  0
   15.4172   -4.5199   25.7008 H   0  0  0  0  0  0  0  0  0  0  0  0
   18.3989   -5.0189   25.5138 H   0  0  0  0  0  0  0  0  0  0  0  0
   16.8927   -2.4299   25.4217 H   0  0  0  0  0  0  0  0  0  0  0  0
   17.7182   -3.1832   24.0785 H   0  0  0  0  0  0  0  0  0  0  0  0
   18.6312   -2.6032   25.4508 H   0  0  0  0  0  0  0  0  0  0  0  0
   16.7947   -3.7246   27.7002 H   0  0  0  0  0  0  0  0  0  0  0  0
   18.5356   -3.8667   27.6550 H   0  0  0  0  0  0  0  0  0  0  0  0
   17.5449   -5.3008   27.7771 H   0  0  0  0  0  0  0  0  0  0  0  0
   14.5050   -4.1874   23.7909 H   0  0  0  0  0  0  0  0  0  0  0  0
   16.0617   -4.7314   21.3333 H   0  0  0  0  0  0  0  0  0  0  0  0
   13.0959   -4.4757   21.6542 H   0  0  0  0  0  0  0  0  0  0  0  0
   13.9731   -5.9642   21.3936 H   0  0  0  0  0  0  0  0  0  0  0  0
   13.9441   -4.7378   20.1493 H   0  0  0  0  0  0  0  0  0  0  0  0
   16.2335   -3.0465   19.8340 H   0  0  0  0  0  0  0  0  0  0  0  0
   15.2684   -0.4119   20.7499 H   0  0  0  0  0  0  0  0  0  0  0  0
   15.2920   -0.8921   19.0700 H   0  0  0  0  0  0  0  0  0  0  0  0
   16.7932   -0.6403   19.9279 H   0  0  0  0  0  0  0  0  0  0  0  0
  1 28  1  0  0  0  0
  1 29  1  0  0  0  0
  1 30  1  0  0  0  0
  2  1  1  0  0  0  0
  3  2  2  0  0  0  0
  4  2  1  0  0  0  0
  4 31  1  0  0  0  0
  5  8  1  0  0  0  0
  5  4  1  0  0  0  0
  5 32  1  1  0  0  0
  6  5  1  0  0  0  0
  7  6  2  0  0  0  0
  8 33  1  0  0  0  0
  8 34  1  0  0  0  0
  8 35  1  0  0  0  0
  9  6  1  0  0  0  0
  9 36  1  0  0  0  0
 10  9  1  0  0  0  0
 10 37  1  6  0  0  0
 11 10  1  0  0  0  0
 12 11  2  0  0  0  0
 13 10  1  0  0  0  0
 13 38  1  0  0  0  0
 13 39  1  0  0  0  0
 13 40  1  0  0  0  0
 14 11  1  0  0  0  0
 14 41  1  0  0  0  0
 15 18  1  0  0  0  0
 15 14  1  0  0  0  0
 15 42  1  1  0  0  0
 16 15  1  0  0  0  0
 17 16  2  0  0  0  0
 18 20  1  0  0  0  0
 18 43  1  0  0  0  0
 19 18  1  0  0  0  0
 19 44  1  0  0  0  0
 19 45  1  0  0  0  0
 19 46  1  0  0  0  0
 20 47  1  0  0  0  0
 20 48  1  0  0  0  0
 20 49  1  0  0  0  0
 21 16  1  0  0  0  0
 21 50  1  0  0  0  0
 22 21  1  0  0  0  0
 22 51  1  6  0  0  0
 23 22  1  0  0  0  0
 23 24  2  0  0  0  0
 25 22  1  0  0  0  0
 25 52  1  0  0  0  0
 25 53  1  0  0  0  0
 25 54  1  0  0  0  0
 26 23  1  0  0  0  0
 26 55  1  0  0  0  0
 27 26  1  0  0  0  0
 27 56  1  0  0  0  0
 27 57  1  0  0  0  0
 27 58  1  0  0  0  0
M  END
>  <MODEL>
       0

$$$$
selected_4mers/AAVA/383_noH.pdb
 OpenBabel03042517593D

 58 57  0  0  1  0  0  0  0  0999 V2000
   18.0500   71.7800   25.5840 C   0  0  0  0  0  0  0  0  0  0  0  0
   19.0870   72.9130   25.7370 C   0  0  0  0  0  0  0  0  0  0  0  0
   20.2240   72.6480   26.1200 O   0  0  0  0  0  0  0  0  0  0  0  0
   18.7210   74.1610   25.4950 N   0  0  0  0  0  0  0  0  0  0  0  0
   19.6850   75.2580   25.6180 C   0  0  2  0  0  0  0  0  0  0  0  0
   20.1740   75.4270   27.0610 C   0  0  0  0  0  0  0  0  0  0  0  0
   21.3370   75.7270   27.2850 O   0  0  0  0  0  0  0  0  0  0  0  0
   19.1290   76.5280   25.0790 C   0  0  0  0  0  0  0  0  0  0  0  0
   19.3320   75.1340   28.0300 N   0  0  0  0  0  0  0  0  0  0  0  0
   19.7790   75.1910   29.4470 C   0  0  2  0  0  0  0  0  0  0  0  0
   20.9320   74.2210   29.6590 C   0  0  0  0  0  0  0  0  0  0  0  0
   21.9040   74.5300   30.3180 O   0  0  0  0  0  0  0  0  0  0  0  0
   18.6550   74.8680   30.3670 C   0  0  0  0  0  0  0  0  0  0  0  0
   20.8420   73.0450   29.0670 N   0  0  0  0  0  0  0  0  0  0  0  0
   21.9080   72.0410   29.2010 C   0  0  2  0  0  0  0  0  0  0  0  0
   23.1560   72.4870   28.4770 C   0  0  0  0  0  0  0  0  0  0  0  0
   24.2520   72.3890   28.9970 O   0  0  0  0  0  0  0  0  0  0  0  0
   21.4930   70.6580   28.6980 C   0  0  0  0  0  0  0  0  0  0  0  0
   22.6300   69.5910   28.8560 C   0  0  0  0  0  0  0  0  0  0  0  0
   20.2740   70.1850   29.4480 C   0  0  0  0  0  0  0  0  0  0  0  0
   22.9580   72.9360   27.2300 N   0  0  0  0  0  0  0  0  0  0  0  0
   24.0980   73.3510   26.4080 C   0  0  2  0  0  0  0  0  0  0  0  0
   24.8540   74.4750   27.1240 C   0  0  0  0  0  0  0  0  0  0  0  0
   26.0810   74.4620   27.1760 O   0  0  0  0  0  0  0  0  0  0  0  0
   23.6910   73.7950   25.0670 C   0  0  0  0  0  0  0  0  0  0  0  0
   24.1170   75.3820   27.7300 N   0  0  0  0  0  0  0  0  0  0  0  0
   24.6980   76.5310   28.4190 C   0  0  0  0  0  0  0  0  0  0  0  0
   17.1219   72.1895   25.2438 H   0  0  0  0  0  0  0  0  0  0  0  0
   17.9032   71.3008   26.5294 H   0  0  0  0  0  0  0  0  0  0  0  0
   18.4061   71.0642   24.8728 H   0  0  0  0  0  0  0  0  0  0  0  0
   17.7928   74.3546   25.2299 H   0  0  0  0  0  0  0  0  0  0  0  0
   20.5378   75.0001   25.0255 H   0  0  0  0  0  0  0  0  0  0  0  0
   18.2719   76.8138   25.6522 H   0  0  0  0  0  0  0  0  0  0  0  0
   18.8441   76.3874   24.0573 H   0  0  0  0  0  0  0  0  0  0  0  0
   19.8711   77.2964   25.1398 H   0  0  0  0  0  0  0  0  0  0  0  0
   18.4060   74.8770   27.8162 H   0  0  0  0  0  0  0  0  0  0  0  0
   20.1109   76.1847   29.6644 H   0  0  0  0  0  0  0  0  0  0  0  0
   18.3051   73.8765   30.1683 H   0  0  0  0  0  0  0  0  0  0  0  0
   17.8576   75.5649   30.2143 H   0  0  0  0  0  0  0  0  0  0  0  0
   18.9940   74.9303   31.3800 H   0  0  0  0  0  0  0  0  0  0  0  0
   20.0466   72.8360   28.5257 H   0  0  0  0  0  0  0  0  0  0  0  0
   22.1060   71.9552   30.2490 H   0  0  0  0  0  0  0  0  0  0  0  0
   21.2811   70.7594   27.6541 H   0  0  0  0  0  0  0  0  0  0  0  0
   22.8629   69.4689   29.8932 H   0  0  0  0  0  0  0  0  0  0  0  0
   23.5025   69.9191   28.3307 H   0  0  0  0  0  0  0  0  0  0  0  0
   22.3008   68.6565   28.4519 H   0  0  0  0  0  0  0  0  0  0  0  0
   20.5091   70.0910   30.4876 H   0  0  0  0  0  0  0  0  0  0  0  0
   19.9658   69.2347   29.0647 H   0  0  0  0  0  0  0  0  0  0  0  0
   19.4818   70.8935   29.3241 H   0  0  0  0  0  0  0  0  0  0  0  0
   22.0449   72.9872   26.8654 H   0  0  0  0  0  0  0  0  0  0  0  0
   24.7330   72.4999   26.2768 H   0  0  0  0  0  0  0  0  0  0  0  0
   23.0516   74.6487   25.1527 H   0  0  0  0  0  0  0  0  0  0  0  0
   23.1657   73.0041   24.5736 H   0  0  0  0  0  0  0  0  0  0  0  0
   24.5594   74.0554   24.4987 H   0  0  0  0  0  0  0  0  0  0  0  0
   23.1377   75.2819   27.7182 H   0  0  0  0  0  0  0  0  0  0  0  0
   25.7644   76.4927   28.3396 H   0  0  0  0  0  0  0  0  0  0  0  0
   24.4161   76.5080   29.4509 H   0  0  0  0  0  0  0  0  0  0  0  0
   24.3392   77.4342   27.9713 H   0  0  0  0  0  0  0  0  0  0  0  0
  1  2  1  0  0  0  0
  1 28  1  0  0  0  0
  1 29  1  0  0  0  0
  1 30  1  0  0  0  0
  2  3  2  0  0  0  0
  4  5  1  0  0  0  0
  4  2  1  0  0  0  0
  4 31  1  0  0  0  0
  5  6  1  0  0  0  0
  5 32  1  6  0  0  0
  6  7  2  0  0  0  0
  6  9  1  0  0  0  0
  8  5  1  0  0  0  0
  8 33  1  0  0  0  0
  8 34  1  0  0  0  0
  8 35  1  0  0  0  0
  9 10  1  0  0  0  0
  9 36  1  0  0  0  0
 10 11  1  0  0  0  0
 10 13  1  0  0  0  0
 10 37  1  1  0  0  0
 11 12  2  0  0  0  0
 13 38  1  0  0  0  0
 13 39  1  0  0  0  0
 13 40  1  0  0  0  0
 14 15  1  0  0  0  0
 14 11  1  0  0  0  0
 14 41  1  0  0  0  0
 15 42  1  1  0  0  0
 16 17  2  0  0  0  0
 16 15  1  0  0  0  0
 18 19  1  0  0  0  0
 18 15  1  0  0  0  0
 18 20  1  0  0  0  0
 18 43  1  0  0  0  0
 19 44  1  0  0  0  0
 19 45  1  0  0  0  0
 19 46  1  0  0  0  0
 20 47  1  0  0  0  0
 20 48  1  0  0  0  0
 20 49  1  0  0  0  0
 21 16  1  0  0  0  0
 21 50  1  0  0  0  0
 22 23  1  0  0  0  0
 22 21  1  0  0  0  0
 22 51  1  6  0  0  0
 23 24  2  0  0  0  0
 23 26  1  0  0  0  0
 25 22  1  0  0  0  0
 25 52  1  0  0  0  0
 25 53  1  0  0  0  0
 25 54  1  0  0  0  0
 26 27  1  0  0  0  0
 26 55  1  0  0  0  0
 27 56  1  0  0  0  0
 27 57  1  0  0  0  0
 27 58  1  0  0  0  0
M  END
>  <MODEL>
       0

$$$$
selected_4mers/AAVA/384_noH.pdb
 OpenBabel03042517593D

 58 57  0  0  1  0  0  0  0  0999 V2000
   10.3270   35.4510   46.9970 C   0  0  0  0  0  0  0  0  0  0  0  0
   10.8610   35.2950   45.5790 C   0  0  0  0  0  0  0  0  0  0  0  0
   10.7470   36.2100   44.7610 O   0  0  0  0  0  0  0  0  0  0  0  0
   11.4610   34.1430   45.2990 N   0  0  0  0  0  0  0  0  0  0  0  0
   12.0470   33.8880   43.9890 C   0  0  2  0  0  0  0  0  0  0  0  0
   11.1290   33.1280   43.0410 C   0  0  0  0  0  0  0  0  0  0  0  0
   11.2670   33.2290   41.8210 O   0  0  0  0  0  0  0  0  0  0  0  0
   13.3580   33.1290   44.1540 C   0  0  0  0  0  0  0  0  0  0  0  0
   10.1990   32.3640   43.6010 N   0  0  0  0  0  0  0  0  0  0  0  0
    9.2750   31.5860   42.7880 C   0  0  2  0  0  0  0  0  0  0  0  0
    7.8830   31.5850   43.3930 C   0  0  0  0  0  0  0  0  0  0  0  0
    7.7210   31.7520   44.6010 O   0  0  0  0  0  0  0  0  0  0  0  0
    9.7790   30.1530   42.6530 C   0  0  0  0  0  0  0  0  0  0  0  0
    6.8810   31.3900   42.5440 N   0  0  0  0  0  0  0  0  0  0  0  0
    5.4960   31.3530   42.9900 C   0  0  2  0  0  0  0  0  0  0  0  0
    5.3280   30.3900   44.1630 C   0  0  0  0  0  0  0  0  0  0  0  0
    4.5790   30.6620   45.0980 O   0  0  0  0  0  0  0  0  0  0  0  0
    4.5600   30.9110   41.8430 C   0  0  0  0  0  0  0  0  0  0  0  0
    3.1300   30.7940   42.3440 C   0  0  0  0  0  0  0  0  0  0  0  0
    4.6410   31.9090   40.6990 C   0  0  0  0  0  0  0  0  0  0  0  0
    6.0390   29.2670   44.1100 N   0  0  0  0  0  0  0  0  0  0  0  0
    5.9640   28.2580   45.1610 C   0  0  2  0  0  0  0  0  0  0  0  0
    6.2890   28.8130   46.5470 C   0  0  0  0  0  0  0  0  0  0  0  0
    5.7850   28.3160   47.5520 O   0  0  0  0  0  0  0  0  0  0  0  0
    6.9050   27.1050   44.8350 C   0  0  0  0  0  0  0  0  0  0  0  0
    7.1280   29.8430   46.5910 N   0  0  0  0  0  0  0  0  0  0  0  0
    7.5390   30.4660   47.8480 C   0  0  0  0  0  0  0  0  0  0  0  0
    9.8687   36.4122   47.1018 H   0  0  0  0  0  0  0  0  0  0  0  0
   11.1342   35.3629   47.6938 H   0  0  0  0  0  0  0  0  0  0  0  0
    9.6030   34.6875   47.1915 H   0  0  0  0  0  0  0  0  0  0  0  0
   11.5109   33.4457   45.9922 H   0  0  0  0  0  0  0  0  0  0  0  0
   12.2152   34.8452   43.5414 H   0  0  0  0  0  0  0  0  0  0  0  0
   13.1649   32.1770   44.6026 H   0  0  0  0  0  0  0  0  0  0  0  0
   14.0191   33.6909   44.7802 H   0  0  0  0  0  0  0  0  0  0  0  0
   13.8106   32.9862   43.1950 H   0  0  0  0  0  0  0  0  0  0  0  0
   10.1329   32.3228   44.5824 H   0  0  0  0  0  0  0  0  0  0  0  0
    9.2215   32.0386   41.8199 H   0  0  0  0  0  0  0  0  0  0  0  0
    9.8323   29.7009   43.6214 H   0  0  0  0  0  0  0  0  0  0  0  0
   10.7518   30.1576   42.2075 H   0  0  0  0  0  0  0  0  0  0  0  0
    9.1065   29.5951   42.0354 H   0  0  0  0  0  0  0  0  0  0  0  0
    7.0801   31.2672   41.5877 H   0  0  0  0  0  0  0  0  0  0  0  0
    5.2343   32.3426   43.3015 H   0  0  0  0  0  0  0  0  0  0  0  0
    4.8726   29.9510   41.4886 H   0  0  0  0  0  0  0  0  0  0  0  0
    2.7989   31.7460   42.7033 H   0  0  0  0  0  0  0  0  0  0  0  0
    3.0879   30.0786   43.1385 H   0  0  0  0  0  0  0  0  0  0  0  0
    2.4964   30.4751   41.5429 H   0  0  0  0  0  0  0  0  0  0  0  0
    4.3300   32.8730   41.0439 H   0  0  0  0  0  0  0  0  0  0  0  0
    4.0007   31.5915   39.9027 H   0  0  0  0  0  0  0  0  0  0  0  0
    5.6493   31.9649   40.3452 H   0  0  0  0  0  0  0  0  0  0  0  0
    6.6325   29.1124   43.3399 H   0  0  0  0  0  0  0  0  0  0  0  0
    4.9508   27.9155   45.1924 H   0  0  0  0  0  0  0  0  0  0  0  0
    7.9126   27.4639   44.8075 H   0  0  0  0  0  0  0  0  0  0  0  0
    6.6471   26.6927   43.8819 H   0  0  0  0  0  0  0  0  0  0  0  0
    6.8162   26.3487   45.5866 H   0  0  0  0  0  0  0  0  0  0  0  0
    7.4858   30.1995   45.7459 H   0  0  0  0  0  0  0  0  0  0  0  0
    7.0651   29.9650   48.6661 H   0  0  0  0  0  0  0  0  0  0  0  0
    7.2514   31.4966   47.8461 H   0  0  0  0  0  0  0  0  0  0  0  0
    8.6014   30.3924   47.9519 H   0  0  0  0  0  0  0  0  0  0  0  0
  1 28  1  0  0  0  0
  1 29  1  0  0  0  0
  1 30  1  0  0  0  0
  2  1  1  0  0  0  0
  3  2  2  0  0  0  0
  4  2  1  0  0  0  0
  4 31  1  0  0  0  0
  5  8  1  0  0  0  0
  5  4  1  0  0  0  0
  5 32  1  6  0  0  0
  6  9  1  0  0  0  0
  6  5  1  0  0  0  0
  7  6  2  0  0  0  0
  8 33  1  0  0  0  0
  8 34  1  0  0  0  0
  8 35  1  0  0  0  0
  9 36  1  0  0  0  0
 10 11  1  0  0  0  0
 10  9  1  0  0  0  0
 10 37  1  6  0  0  0
 11 12  2  0  0  0  0
 13 10  1  0  0  0  0
 13 38  1  0  0  0  0
 13 39  1  0  0  0  0
 13 40  1  0  0  0  0
 14 15  1  0  0  0  0
 14 11  1  0  0  0  0
 14 41  1  0  0  0  0
 15 16  1  0  0  0  0
 15 42  1  1  0  0  0
 16 17  2  0  0  0  0
 18 19  1  0  0  0  0
 18 15  1  0  0  0  0
 18 43  1  0  0  0  0
 19 44  1  0  0  0  0
 19 45  1  0  0  0  0
 19 46  1  0  0  0  0
 20 18  1  0  0  0  0
 20 47  1  0  0  0  0
 20 48  1  0  0  0  0
 20 49  1  0  0  0  0
 21 16  1  0  0  0  0
 21 22  1  0  0  0  0
 21 50  1  0  0  0  0
 22 23  1  0  0  0  0
 22 51  1  1  0  0  0
 23 26  1  0  0  0  0
 23 24  2  0  0  0  0
 25 22  1  0  0  0  0
 25 52  1  0  0  0  0
 25 53  1  0  0  0  0
 25 54  1  0  0  0  0
 26 27  1  0  0  0  0
 26 55  1  0  0  0  0
 27 56  1  0  0  0  0
 27 57  1  0  0  0  0
 27 58  1  0  0  0  0
M  END
>  <MODEL>
       0

$$$$
