selected_4mers/AAVL/410_noH.pdb
 OpenBabel03042517593D

 67 66  0  0  1  0  0  0  0  0999 V2000
   29.4360  -20.8590   57.6850 C   0  0  0  0  0  0  0  0  0  0  0  0
   29.3930  -19.6470   56.7480 C   0  0  0  0  0  0  0  0  0  0  0  0
   29.6270  -18.5070   57.1810 O   0  0  0  0  0  0  0  0  0  0  0  0
   29.0400  -19.8900   55.4850 N   0  0  0  0  0  0  0  0  0  0  0  0
   28.9780  -18.8270   54.4730 C   0  0  2  0  0  0  0  0  0  0  0  0
   27.6670  -18.7810   53.6980 C   0  0  0  0  0  0  0  0  0  0  0  0
   27.0980  -19.8220   53.3480 O   0  0  0  0  0  0  0  0  0  0  0  0
   30.1530  -18.9770   53.4730 C   0  0  0  0  0  0  0  0  0  0  0  0
   27.2000  -17.5680   53.4270 N   0  0  0  0  0  0  0  0  0  0  0  0
   25.9820  -17.3500   52.6470 C   0  0  2  0  0  0  0  0  0  0  0  0
   26.3930  -16.4770   51.4580 C   0  0  0  0  0  0  0  0  0  0  0  0
   27.3530  -15.7150   51.5430 O   0  0  0  0  0  0  0  0  0  0  0  0
   24.9280  -16.6320   53.4840 C   0  0  0  0  0  0  0  0  0  0  0  0
   25.6550  -16.5730   50.3630 N   0  0  0  0  0  0  0  0  0  0  0  0
   25.9540  -15.8040   49.1610 C   0  0  2  0  0  0  0  0  0  0  0  0
   24.8470  -14.7770   48.9150 C   0  0  0  0  0  0  0  0  0  0  0  0
   23.6570  -15.1240   48.9220 O   0  0  0  0  0  0  0  0  0  0  0  0
   26.0660  -16.7540   47.9280 C   0  0  0  0  0  0  0  0  0  0  0  0
   26.2450  -15.9470   46.6270 C   0  0  0  0  0  0  0  0  0  0  0  0
   27.2430  -17.7190   48.0990 C   0  0  0  0  0  0  0  0  0  0  0  0
   25.2330  -13.5160   48.7270 N   0  0  0  0  0  0  0  0  0  0  0  0
   24.2760  -12.4430   48.4600 C   0  0  2  0  0  0  0  0  0  0  0  0
   24.4960  -11.9470   47.0240 C   0  0  0  0  0  0  0  0  0  0  0  0
   25.5580  -11.4020   46.7180 O   0  0  0  0  0  0  0  0  0  0  0  0
   24.4870  -11.2700   49.4240 C   0  0  0  0  0  0  0  0  0  0  0  0
   24.7130  -11.5570   50.9180 C   0  0  0  0  0  0  0  0  0  0  0  0
   24.6790  -10.2560   51.7040 C   0  0  0  0  0  0  0  0  0  0  0  0
   23.6910  -12.5320   51.4570 C   0  0  0  0  0  0  0  0  0  0  0  0
   23.5140  -12.1650   46.1470 N   0  0  0  0  0  0  0  0  0  0  0  0
   23.6000  -11.7320   44.7480 C   0  0  0  0  0  0  0  0  0  0  0  0
   29.2087  -21.7460   57.1314 H   0  0  0  0  0  0  0  0  0  0  0  0
   28.7159  -20.7317   58.4661 H   0  0  0  0  0  0  0  0  0  0  0  0
   30.4134  -20.9455   58.1116 H   0  0  0  0  0  0  0  0  0  0  0  0
   28.8137  -20.8115   55.2225 H   0  0  0  0  0  0  0  0  0  0  0  0
   29.0482  -17.9067   55.0143 H   0  0  0  0  0  0  0  0  0  0  0  0
   30.0575  -19.9038   52.9469 H   0  0  0  0  0  0  0  0  0  0  0  0
   31.0799  -18.9641   54.0073 H   0  0  0  0  0  0  0  0  0  0  0  0
   30.1326  -18.1667   52.7746 H   0  0  0  0  0  0  0  0  0  0  0  0
   27.6926  -16.7851   53.7641 H   0  0  0  0  0  0  0  0  0  0  0  0
   25.5551  -18.2782   52.3290 H   0  0  0  0  0  0  0  0  0  0  0  0
   25.3186  -15.6950   53.8222 H   0  0  0  0  0  0  0  0  0  0  0  0
   24.6704  -17.2367   54.3284 H   0  0  0  0  0  0  0  0  0  0  0  0
   24.0556  -16.4607   52.8886 H   0  0  0  0  0  0  0  0  0  0  0  0
   24.8813  -17.1818   50.3604 H   0  0  0  0  0  0  0  0  0  0  0  0
   26.8867  -15.2979   49.2986 H   0  0  0  0  0  0  0  0  0  0  0  0
   25.1574  -17.3154   47.8635 H   0  0  0  0  0  0  0  0  0  0  0  0
   27.1515  -15.3810   46.6802 H   0  0  0  0  0  0  0  0  0  0  0  0
   25.4160  -15.2819   46.5029 H   0  0  0  0  0  0  0  0  0  0  0  0
   26.2918  -16.6179   45.7947 H   0  0  0  0  0  0  0  0  0  0  0  0
   28.1543  -17.1620   48.1640 H   0  0  0  0  0  0  0  0  0  0  0  0
   27.2878  -18.3794   47.2583 H   0  0  0  0  0  0  0  0  0  0  0  0
   27.1092  -18.2897   48.9941 H   0  0  0  0  0  0  0  0  0  0  0  0
   26.1925  -13.2997   48.7691 H   0  0  0  0  0  0  0  0  0  0  0  0
   23.2831  -12.8194   48.5916 H   0  0  0  0  0  0  0  0  0  0  0  0
   23.6197  -10.6474   49.3531 H   0  0  0  0  0  0  0  0  0  0  0  0
   25.4141  -10.8420   49.1044 H   0  0  0  0  0  0  0  0  0  0  0  0
   25.6761  -12.0098   51.0295 H   0  0  0  0  0  0  0  0  0  0  0  0
   23.7176   -9.7989   51.5958 H   0  0  0  0  0  0  0  0  0  0  0  0
   25.4326   -9.5942   51.3311 H   0  0  0  0  0  0  0  0  0  0  0  0
   24.8629  -10.4593   52.7383 H   0  0  0  0  0  0  0  0  0  0  0  0
   22.7118  -12.1114   51.3616 H   0  0  0  0  0  0  0  0  0  0  0  0
   23.8955  -12.7291   52.4886 H   0  0  0  0  0  0  0  0  0  0  0  0
   23.7424  -13.4456   50.9023 H   0  0  0  0  0  0  0  0  0  0  0  0
   22.7026  -12.6333   46.4498 H   0  0  0  0  0  0  0  0  0  0  0  0
   24.5373  -11.2429   44.5830 H   0  0  0  0  0  0  0  0  0  0  0  0
   22.8010  -11.0530   44.5350 H   0  0  0  0  0  0  0  0  0  0  0  0
   23.5245  -12.5843   44.1056 H   0  0  0  0  0  0  0  0  0  0  0  0
  1 31  1  0  0  0  0
  1 32  1  0  0  0  0
  1 33  1  0  0  0  0
  2  3  2  0  0  0  0
  2  1  1  0  0  0  0
  4  2  1  0  0  0  0
  4 34  1  0  0  0  0
  5  4  1  0  0  0  0
  5 35  1  1  0  0  0
  6  5  1  0  0  0  0
  7  6  2  0  0  0  0
  8  5  1  0  0  0  0
  8 36  1  0  0  0  0
  8 37  1  0  0  0  0
  8 38  1  0  0  0  0
  9  6  1  0  0  0  0
  9 39  1  0  0  0  0
 10  9  1  0  0  0  0
 10 13  1  0  0  0  0
 10 40  1  6  0  0  0
 11 12  2  0  0  0  0
 11 10  1  0  0  0  0
 13 41  1  0  0  0  0
 13 42  1  0  0  0  0
 13 43  1  0  0  0  0
 14 11  1  0  0  0  0
 14 44  1  0  0  0  0
 15 14  1  0  0  0  0
 15 45  1  1  0  0  0
 16 17  2  0  0  0  0
 16 15  1  0  0  0  0
 18 20  1  0  0  0  0
 18 15  1  0  0  0  0
 18 46  1  0  0  0  0
 19 18  1  0  0  0  0
 19 47  1  0  0  0  0
 19 48  1  0  0  0  0
 19 49  1  0  0  0  0
 20 50  1  0  0  0  0
 20 51  1  0  0  0  0
 20 52  1  0  0  0  0
 21 16  1  0  0  0  0
 21 53  1  0  0  0  0
 22 21  1  0  0  0  0
 22 25  1  0  0  0  0
 22 54  1  1  0  0  0
 23 22  1  0  0  0  0
 24 23  2  0  0  0  0
 25 26  1  0  0  0  0
 25 55  1  0  0  0  0
 25 56  1  0  0  0  0
 26 28  1  0  0  0  0
 26 27  1  0  0  0  0
 26 57  1  0  0  0  0
 27 58  1  0  0  0  0
 27 59  1  0  0  0  0
 27 60  1  0  0  0  0
 28 61  1  0  0  0  0
 28 62  1  0  0  0  0
 28 63  1  0  0  0  0
 29 23  1  0  0  0  0
 29 64  1  0  0  0  0
 30 29  1  0  0  0  0
 30 65  1  0  0  0  0
 30 66  1  0  0  0  0
 30 67  1  0  0  0  0
M  END
>  <MODEL>
       0

$$$$
selected_4mers/AAVL/411_noH.pdb
 OpenBabel03042517593D

 67 66  0  0  1  0  0  0  0  0999 V2000
   52.2310   38.1650  102.7210 C   0  0  0  0  0  0  0  0  0  0  0  0
   53.4970   38.5020  101.9560 C   0  0  0  0  0  0  0  0  0  0  0  0
   54.5870   38.4240  102.5030 O   0  0  0  0  0  0  0  0  0  0  0  0
   53.3580   38.8810  100.7010 N   0  0  0  0  0  0  0  0  0  0  0  0
   54.5320   39.2090   99.8710 C   0  0  2  0  0  0  0  0  0  0  0  0
   54.9500   40.6560  100.0740 C   0  0  0  0  0  0  0  0  0  0  0  0
   54.2560   41.5740   99.6990 O   0  0  0  0  0  0  0  0  0  0  0  0
   54.1990   38.9580   98.3700 C   0  0  0  0  0  0  0  0  0  0  0  0
   56.1530   40.8370  100.6310 N   0  0  0  0  0  0  0  0  0  0  0  0
   56.6490   42.1940  100.8230 C   0  0  2  0  0  0  0  0  0  0  0  0
   56.9710   42.8560   99.4830 C   0  0  0  0  0  0  0  0  0  0  0  0
   56.9750   44.0860   99.3960 O   0  0  0  0  0  0  0  0  0  0  0  0
   57.8780   42.1690  101.6780 C   0  0  0  0  0  0  0  0  0  0  0  0
   57.3140   42.0450   98.4780 N   0  0  0  0  0  0  0  0  0  0  0  0
   57.5420   42.6170   97.1400 C   0  0  2  0  0  0  0  0  0  0  0  0
   56.7940   41.7720   96.1160 C   0  0  0  0  0  0  0  0  0  0  0  0
   56.8390   40.5260   96.1400 O   0  0  0  0  0  0  0  0  0  0  0  0
   59.0440   42.7630   96.7710 C   0  0  0  0  0  0  0  0  0  0  0  0
   59.7200   41.4150   96.7380 C   0  0  0  0  0  0  0  0  0  0  0  0
   59.1870   43.5310   95.4610 C   0  0  0  0  0  0  0  0  0  0  0  0
   56.0870   42.4860   95.2350 N   0  0  0  0  0  0  0  0  0  0  0  0
   55.2690   41.8820   94.1750 C   0  0  2  0  0  0  0  0  0  0  0  0
   55.8120   42.4110   92.8460 C   0  0  0  0  0  0  0  0  0  0  0  0
   56.5050   43.4360   92.8340 O   0  0  0  0  0  0  0  0  0  0  0  0
   53.7940   42.2970   94.3670 C   0  0  0  0  0  0  0  0  0  0  0  0
   53.0600   41.5230   95.4840 C   0  0  0  0  0  0  0  0  0  0  0  0
   51.7120   42.1790   95.8280 C   0  0  0  0  0  0  0  0  0  0  0  0
   52.8670   40.0720   95.0600 C   0  0  0  0  0  0  0  0  0  0  0  0
   55.4320   41.7680   91.7220 N   0  0  0  0  0  0  0  0  0  0  0  0
   55.8970   42.1670   90.3780 C   0  0  0  0  0  0  0  0  0  0  0  0
   51.3831   38.2913  102.0807 H   0  0  0  0  0  0  0  0  0  0  0  0
   52.1405   38.8161  103.5653 H   0  0  0  0  0  0  0  0  0  0  0  0
   52.2765   37.1500  103.0566 H   0  0  0  0  0  0  0  0  0  0  0  0
   52.4561   38.9461  100.3117 H   0  0  0  0  0  0  0  0  0  0  0  0
   55.3453   38.5797  100.1666 H   0  0  0  0  0  0  0  0  0  0  0  0
   53.3857   39.5876   98.0750 H   0  0  0  0  0  0  0  0  0  0  0  0
   53.9248   37.9330   98.2321 H   0  0  0  0  0  0  0  0  0  0  0  0
   55.0578   39.1811   97.7720 H   0  0  0  0  0  0  0  0  0  0  0  0
   56.6960   40.0637  100.9075 H   0  0  0  0  0  0  0  0  0  0  0  0
   55.8837   42.7640  101.3071 H   0  0  0  0  0  0  0  0  0  0  0  0
   58.6403   41.5982  101.1902 H   0  0  0  0  0  0  0  0  0  0  0  0
   57.6466   41.7218  102.6221 H   0  0  0  0  0  0  0  0  0  0  0  0
   58.2253   43.1692  101.8327 H   0  0  0  0  0  0  0  0  0  0  0  0
   57.4131   41.0774   98.6299 H   0  0  0  0  0  0  0  0  0  0  0  0
   57.1634   43.6178   97.1413 H   0  0  0  0  0  0  0  0  0  0  0  0
   59.5434   43.3321   97.5271 H   0  0  0  0  0  0  0  0  0  0  0  0
   59.2565   40.8017   95.9938 H   0  0  0  0  0  0  0  0  0  0  0  0
   59.6272   40.9459   97.6952 H   0  0  0  0  0  0  0  0  0  0  0  0
   60.7559   41.5412   96.5016 H   0  0  0  0  0  0  0  0  0  0  0  0
   58.6983   42.9920   94.6764 H   0  0  0  0  0  0  0  0  0  0  0  0
   60.2245   43.6427   95.2245 H   0  0  0  0  0  0  0  0  0  0  0  0
   58.7384   44.4971   95.5631 H   0  0  0  0  0  0  0  0  0  0  0  0
   56.1159   43.4679   95.2998 H   0  0  0  0  0  0  0  0  0  0  0  0
   55.3142   40.8132   94.1986 H   0  0  0  0  0  0  0  0  0  0  0  0
   53.2755   42.1297   93.4461 H   0  0  0  0  0  0  0  0  0  0  0  0
   53.7992   43.3266   94.6580 H   0  0  0  0  0  0  0  0  0  0  0  0
   53.6606   41.5509   96.3691 H   0  0  0  0  0  0  0  0  0  0  0  0
   51.0804   42.1703   94.9643 H   0  0  0  0  0  0  0  0  0  0  0  0
   51.8762   43.1893   96.1396 H   0  0  0  0  0  0  0  0  0  0  0  0
   51.2416   41.6337   96.6193 H   0  0  0  0  0  0  0  0  0  0  0  0
   52.2669   40.0359   94.1749 H   0  0  0  0  0  0  0  0  0  0  0  0
   52.3782   39.5332   95.8446 H   0  0  0  0  0  0  0  0  0  0  0  0
   53.8204   39.6282   94.8628 H   0  0  0  0  0  0  0  0  0  0  0  0
   54.8195   41.0013   91.8011 H   0  0  0  0  0  0  0  0  0  0  0  0
   56.5509   43.0097   90.4624 H   0  0  0  0  0  0  0  0  0  0  0  0
   55.0547   42.4285   89.7722 H   0  0  0  0  0  0  0  0  0  0  0  0
   56.4223   41.3519   89.9257 H   0  0  0  0  0  0  0  0  0  0  0  0
  1 31  1  0  0  0  0
  1 32  1  0  0  0  0
  1 33  1  0  0  0  0
  2  3  2  0  0  0  0
  2  1  1  0  0  0  0
  4  2  1  0  0  0  0
  4 34  1  0  0  0  0
  5  6  1  0  0  0  0
  5  4  1  0  0  0  0
  5 35  1  1  0  0  0
  6  9  1  0  0  0  0
  7  6  2  0  0  0  0
  8  5  1  0  0  0  0
  8 36  1  0  0  0  0
  8 37  1  0  0  0  0
  8 38  1  0  0  0  0
  9 10  1  0  0  0  0
  9 39  1  0  0  0  0
 10 13  1  0  0  0  0
 10 40  1  1  0  0  0
 11 10  1  0  0  0  0
 12 11  2  0  0  0  0
 13 41  1  0  0  0  0
 13 42  1  0  0  0  0
 13 43  1  0  0  0  0
 14 11  1  0  0  0  0
 14 44  1  0  0  0  0
 15 14  1  0  0  0  0
 15 45  1  6  0  0  0
 16 17  2  0  0  0  0
 16 15  1  0  0  0  0
 18 15  1  0  0  0  0
 18 46  1  0  0  0  0
 19 18  1  0  0  0  0
 19 47  1  0  0  0  0
 19 48  1  0  0  0  0
 19 49  1  0  0  0  0
 20 18  1  0  0  0  0
 20 50  1  0  0  0  0
 20 51  1  0  0  0  0
 20 52  1  0  0  0  0
 21 16  1  0  0  0  0
 21 53  1  0  0  0  0
 22 25  1  0  0  0  0
 22 21  1  0  0  0  0
 22 54  1  1  0  0  0
 23 22  1  0  0  0  0
 24 23  2  0  0  0  0
 25 26  1  0  0  0  0
 25 55  1  0  0  0  0
 25 56  1  0  0  0  0
 26 27  1  0  0  0  0
 26 57  1  0  0  0  0
 27 58  1  0  0  0  0
 27 59  1  0  0  0  0
 27 60  1  0  0  0  0
 28 26  1  0  0  0  0
 28 61  1  0  0  0  0
 28 62  1  0  0  0  0
 28 63  1  0  0  0  0
 29 23  1  0  0  0  0
 29 64  1  0  0  0  0
 30 29  1  0  0  0  0
 30 65  1  0  0  0  0
 30 66  1  0  0  0  0
 30 67  1  0  0  0  0
M  END
>  <MODEL>
       0

$$$$
selected_4mers/AAVL/412_noH.pdb
 OpenBabel03042517593D

 67 66  0  0  1  0  0  0  0  0999 V2000
   15.8230    4.0170   -1.7870 C   0  0  0  0  0  0  0  0  0  0  0  0
   14.5820    4.8670   -1.4950 C   0  0  0  0  0  0  0  0  0  0  0  0
   14.4870    6.0010   -1.9550 O   0  0  0  0  0  0  0  0  0  0  0  0
   13.6390    4.3190   -0.7280 N   0  0  0  0  0  0  0  0  0  0  0  0
   12.3740    5.0010   -0.4600 C   0  0  2  0  0  0  0  0  0  0  0  0
   11.8690    4.9900    0.9820 C   0  0  0  0  0  0  0  0  0  0  0  0
   10.8140    5.5510    1.2450 O   0  0  0  0  0  0  0  0  0  0  0  0
   11.3060    4.4220   -1.3560 C   0  0  0  0  0  0  0  0  0  0  0  0
   12.5780    4.3470    1.9100 N   0  0  0  0  0  0  0  0  0  0  0  0
   12.1150    4.2720    3.2880 C   0  0  2  0  0  0  0  0  0  0  0  0
   13.2190    4.5970    4.2740 C   0  0  0  0  0  0  0  0  0  0  0  0
   14.4090    4.4000    4.0000 O   0  0  0  0  0  0  0  0  0  0  0  0
   11.5360    2.8700    3.6000 C   0  0  0  0  0  0  0  0  0  0  0  0
   12.8040    5.0700    5.4430 N   0  0  0  0  0  0  0  0  0  0  0  0
   13.7220    5.3900    6.5090 C   0  0  2  0  0  0  0  0  0  0  0  0
   13.1810    4.7390    7.7690 C   0  0  0  0  0  0  0  0  0  0  0  0
   11.9880    4.8480    8.0700 O   0  0  0  0  0  0  0  0  0  0  0  0
   13.8200    6.9140    6.7470 C   0  0  0  0  0  0  0  0  0  0  0  0
   14.8350    7.2020    7.8270 C   0  0  0  0  0  0  0  0  0  0  0  0
   14.1880    7.6370    5.4660 C   0  0  0  0  0  0  0  0  0  0  0  0
   14.0490    4.0370    8.4810 N   0  0  0  0  0  0  0  0  0  0  0  0
   13.6780    3.4200    9.7480 C   0  0  2  0  0  0  0  0  0  0  0  0
   14.6560    3.9730   10.7660 C   0  0  0  0  0  0  0  0  0  0  0  0
   15.8630    4.0350   10.5010 O   0  0  0  0  0  0  0  0  0  0  0  0
   13.7660    1.9040    9.6330 C   0  0  0  0  0  0  0  0  0  0  0  0
   13.0780    1.0420   10.6860 C   0  0  0  0  0  0  0  0  0  0  0  0
   11.6110    1.4040   10.9180 C   0  0  0  0  0  0  0  0  0  0  0  0
   13.1830   -0.4310   10.2900 C   0  0  0  0  0  0  0  0  0  0  0  0
   14.1400    4.4140   11.9070 N   0  0  0  0  0  0  0  0  0  0  0  0
   14.9660    4.9940   12.9640 C   0  0  0  0  0  0  0  0  0  0  0  0
   16.4960    4.5701   -2.4084 H   0  0  0  0  0  0  0  0  0  0  0  0
   15.5300    3.1189   -2.2895 H   0  0  0  0  0  0  0  0  0  0  0  0
   16.3096    3.7684   -0.8670 H   0  0  0  0  0  0  0  0  0  0  0  0
   13.7988    3.4320   -0.3318 H   0  0  0  0  0  0  0  0  0  0  0  0
   12.5816    6.0313   -0.6606 H   0  0  0  0  0  0  0  0  0  0  0  0
   11.1478    3.3942   -1.1041 H   0  0  0  0  0  0  0  0  0  0  0  0
   11.6186    4.4950   -2.3767 H   0  0  0  0  0  0  0  0  0  0  0  0
   10.3946    4.9664   -1.2223 H   0  0  0  0  0  0  0  0  0  0  0  0
   13.4273    3.9165    1.6596 H   0  0  0  0  0  0  0  0  0  0  0  0
   11.3434    5.0053    3.3965 H   0  0  0  0  0  0  0  0  0  0  0  0
   12.3055    2.1343    3.4923 H   0  0  0  0  0  0  0  0  0  0  0  0
   10.7385    2.6541    2.9201 H   0  0  0  0  0  0  0  0  0  0  0  0
   11.1640    2.8529    4.6031 H   0  0  0  0  0  0  0  0  0  0  0  0
   11.8397    5.2067    5.5870 H   0  0  0  0  0  0  0  0  0  0  0  0
   14.6988    5.0375    6.2513 H   0  0  0  0  0  0  0  0  0  0  0  0
   12.8632    7.2718    7.0655 H   0  0  0  0  0  0  0  0  0  0  0  0
   15.7958    6.8474    7.5172 H   0  0  0  0  0  0  0  0  0  0  0  0
   14.5458    6.7058    8.7298 H   0  0  0  0  0  0  0  0  0  0  0  0
   14.8827    8.2569    7.9994 H   0  0  0  0  0  0  0  0  0  0  0  0
   15.1435    7.2960    5.1259 H   0  0  0  0  0  0  0  0  0  0  0  0
   14.2300    8.6902    5.6503 H   0  0  0  0  0  0  0  0  0  0  0  0
   13.4502    7.4350    4.7179 H   0  0  0  0  0  0  0  0  0  0  0  0
   14.9684    3.9291    8.1459 H   0  0  0  0  0  0  0  0  0  0  0  0
   12.6708    3.6381   10.0357 H   0  0  0  0  0  0  0  0  0  0  0  0
   14.8048    1.6481    9.6481 H   0  0  0  0  0  0  0  0  0  0  0  0
   13.2326    1.6834    8.7320 H   0  0  0  0  0  0  0  0  0  0  0  0
   13.5866    1.2286   11.6087 H   0  0  0  0  0  0  0  0  0  0  0  0
   11.0553    1.2342   10.0195 H   0  0  0  0  0  0  0  0  0  0  0  0
   11.5374    2.4353   11.1934 H   0  0  0  0  0  0  0  0  0  0  0  0
   11.2135    0.7958   11.7035 H   0  0  0  0  0  0  0  0  0  0  0  0
   12.6671   -0.5896    9.3661 H   0  0  0  0  0  0  0  0  0  0  0  0
   12.7424   -1.0378   11.0532 H   0  0  0  0  0  0  0  0  0  0  0  0
   14.2130   -0.6965   10.1736 H   0  0  0  0  0  0  0  0  0  0  0  0
   13.1676    4.3481   12.0458 H   0  0  0  0  0  0  0  0  0  0  0  0
   15.9911    4.9920   12.6572 H   0  0  0  0  0  0  0  0  0  0  0  0
   14.8600    4.4151   13.8576 H   0  0  0  0  0  0  0  0  0  0  0  0
   14.6517    5.9995   13.1510 H   0  0  0  0  0  0  0  0  0  0  0  0
  1  2  1  0  0  0  0
  1 31  1  0  0  0  0
  1 32  1  0  0  0  0
  1 33  1  0  0  0  0
  2  4  1  0  0  0  0
  3  2  2  0  0  0  0
  4  5  1  0  0  0  0
  4 34  1  0  0  0  0
  5  6  1  0  0  0  0
  5 35  1  6  0  0  0
  6  7  2  0  0  0  0
  6  9  1  0  0  0  0
  8  5  1  0  0  0  0
  8 36  1  0  0  0  0
  8 37  1  0  0  0  0
  8 38  1  0  0  0  0
  9 10  1  0  0  0  0
  9 39  1  0  0  0  0
 10 13  1  0  0  0  0
 10 11  1  0  0  0  0
 10 40  1  1  0  0  0
 11 14  1  0  0  0  0
 12 11  2  0  0  0  0
 13 41  1  0  0  0  0
 13 42  1  0  0  0  0
 13 43  1  0  0  0  0
 14 15  1  0  0  0  0
 14 44  1  0  0  0  0
 15 18  1  0  0  0  0
 15 16  1  0  0  0  0
 15 45  1  6  0  0  0
 16 17  2  0  0  0  0
 16 21  1  0  0  0  0
 18 19  1  0  0  0  0
 18 46  1  0  0  0  0
 19 47  1  0  0  0  0
 19 48  1  0  0  0  0
 19 49  1  0  0  0  0
 20 18  1  0  0  0  0
 20 50  1  0  0  0  0
 20 51  1  0  0  0  0
 20 52  1  0  0  0  0
 21 22  1  0  0  0  0
 21 53  1  0  0  0  0
 22 23  1  0  0  0  0
 22 54  1  1  0  0  0
 23 29  1  0  0  0  0
 24 23  2  0  0  0  0
 25 22  1  0  0  0  0
 25 26  1  0  0  0  0
 25 55  1  0  0  0  0
 25 56  1  0  0  0  0
 26 27  1  0  0  0  0
 26 57  1  0  0  0  0
 27 58  1  0  0  0  0
 27 59  1  0  0  0  0
 27 60  1  0  0  0  0
 28 26  1  0  0  0  0
 28 61  1  0  0  0  0
 28 62  1  0  0  0  0
 28 63  1  0  0  0  0
 29 30  1  0  0  0  0
 29 64  1  0  0  0  0
 30 65  1  0  0  0  0
 30 66  1  0  0  0  0
 30 67  1  0  0  0  0
M  END
>  <MODEL>
       0

$$$$
selected_4mers/AAVL/413_noH.pdb
 OpenBabel03042517593D

 67 66  0  0  1  0  0  0  0  0999 V2000
   21.3330   -1.5800   24.1360 C   0  0  0  0  0  0  0  0  0  0  0  0
   21.1390   -0.7830   25.4240 C   0  0  0  0  0  0  0  0  0  0  0  0
   22.0370   -0.0500   25.8510 O   0  0  0  0  0  0  0  0  0  0  0  0
   19.9670   -0.9280   26.0400 N   0  0  0  0  0  0  0  0  0  0  0  0
   19.6590   -0.2210   27.2810 C   0  0  2  0  0  0  0  0  0  0  0  0
   20.5670   -0.6830   28.4160 C   0  0  0  0  0  0  0  0  0  0  0  0
   20.9950    0.1220   29.2440 O   0  0  0  0  0  0  0  0  0  0  0  0
   18.1890   -0.4300   27.6550 C   0  0  0  0  0  0  0  0  0  0  0  0
   20.8640   -1.9770   28.4530 N   0  0  0  0  0  0  0  0  0  0  0  0
   21.7420   -2.5180   29.4850 C   0  0  2  0  0  0  0  0  0  0  0  0
   23.1410   -1.9230   29.3440 C   0  0  0  0  0  0  0  0  0  0  0  0
   23.7740   -1.5470   30.3300 O   0  0  0  0  0  0  0  0  0  0  0  0
   21.8050   -4.0340   29.3780 C   0  0  0  0  0  0  0  0  0  0  0  0
   23.6260   -1.8340   28.1110 N   0  0  0  0  0  0  0  0  0  0  0  0
   24.9470   -1.2720   27.8760 C   0  0  2  0  0  0  0  0  0  0  0  0
   24.9910    0.2170   28.2280 C   0  0  0  0  0  0  0  0  0  0  0  0
   25.9400    0.6800   28.8680 O   0  0  0  0  0  0  0  0  0  0  0  0
   25.3830   -1.4750   26.4080 C   0  0  0  0  0  0  0  0  0  0  0  0
   26.6930   -0.7540   26.1500 C   0  0  0  0  0  0  0  0  0  0  0  0
   25.5550   -2.9590   26.1220 C   0  0  0  0  0  0  0  0  0  0  0  0
   23.9620    0.9620   27.8300 N   0  0  0  0  0  0  0  0  0  0  0  0
   23.9250    2.3940   28.1220 C   0  0  2  0  0  0  0  0  0  0  0  0
   23.9630    2.6260   29.6300 C   0  0  0  0  0  0  0  0  0  0  0  0
   24.6270    3.5420   30.1120 O   0  0  0  0  0  0  0  0  0  0  0  0
   22.6660    3.0400   27.5300 C   0  0  0  0  0  0  0  0  0  0  0  0
   22.6570    4.5760   27.5530 C   0  0  0  0  0  0  0  0  0  0  0  0
   23.7540    5.1030   26.6320 C   0  0  0  0  0  0  0  0  0  0  0  0
   21.3030    5.0980   27.1060 C   0  0  0  0  0  0  0  0  0  0  0  0
   23.2520    1.7880   30.3760 N   0  0  0  0  0  0  0  0  0  0  0  0
   23.2140    1.9050   31.8270 C   0  0  0  0  0  0  0  0  0  0  0  0
   22.3059   -1.3818   23.7371 H   0  0  0  0  0  0  0  0  0  0  0  0
   20.5895   -1.2916   23.4227 H   0  0  0  0  0  0  0  0  0  0  0  0
   21.2396   -2.6251   24.3458 H   0  0  0  0  0  0  0  0  0  0  0  0
   19.2907   -1.5271   25.6490 H   0  0  0  0  0  0  0  0  0  0  0  0
   19.8330    0.8230   27.1237 H   0  0  0  0  0  0  0  0  0  0  0  0
   18.0062   -1.4722   27.8142 H   0  0  0  0  0  0  0  0  0  0  0  0
   17.5651   -0.0756   26.8612 H   0  0  0  0  0  0  0  0  0  0  0  0
   17.9684    0.1117   28.5510 H   0  0  0  0  0  0  0  0  0  0  0  0
   20.4858   -2.5806   27.7734 H   0  0  0  0  0  0  0  0  0  0  0  0
   21.3491   -2.2573   30.4455 H   0  0  0  0  0  0  0  0  0  0  0  0
   22.1968   -4.3080   28.4208 H   0  0  0  0  0  0  0  0  0  0  0  0
   20.8217   -4.4407   29.4907 H   0  0  0  0  0  0  0  0  0  0  0  0
   22.4408   -4.4197   30.1473 H   0  0  0  0  0  0  0  0  0  0  0  0
   23.0875   -2.1508   27.3502 H   0  0  0  0  0  0  0  0  0  0  0  0
   25.6297   -1.7922   28.5149 H   0  0  0  0  0  0  0  0  0  0  0  0
   24.6284   -1.0738   25.7642 H   0  0  0  0  0  0  0  0  0  0  0  0
   27.4514   -1.1516   26.7916 H   0  0  0  0  0  0  0  0  0  0  0  0
   26.5702    0.2904   26.3476 H   0  0  0  0  0  0  0  0  0  0  0  0
   26.9812   -0.8923   25.1289 H   0  0  0  0  0  0  0  0  0  0  0  0
   26.3095   -3.3611   26.7654 H   0  0  0  0  0  0  0  0  0  0  0  0
   25.8474   -3.0940   25.1016 H   0  0  0  0  0  0  0  0  0  0  0  0
   24.6292   -3.4658   26.2978 H   0  0  0  0  0  0  0  0  0  0  0  0
   23.2200    0.5453   27.3351 H   0  0  0  0  0  0  0  0  0  0  0  0
   24.7842    2.8471   27.6733 H   0  0  0  0  0  0  0  0  0  0  0  0
   22.5761    2.7220   26.5123 H   0  0  0  0  0  0  0  0  0  0  0  0
   21.8490    2.7253   28.1450 H   0  0  0  0  0  0  0  0  0  0  0  0
   22.8397    4.9158   28.5510 H   0  0  0  0  0  0  0  0  0  0  0  0
   23.5740    4.7647   25.6330 H   0  0  0  0  0  0  0  0  0  0  0  0
   24.7041    4.7409   26.9654 H   0  0  0  0  0  0  0  0  0  0  0  0
   23.7530    6.1728   26.6519 H   0  0  0  0  0  0  0  0  0  0  0  0
   21.1047    4.7666   26.1081 H   0  0  0  0  0  0  0  0  0  0  0  0
   21.3067    6.1677   27.1324 H   0  0  0  0  0  0  0  0  0  0  0  0
   20.5435    4.7276   27.7624 H   0  0  0  0  0  0  0  0  0  0  0  0
   22.7388    1.0712   29.9378 H   0  0  0  0  0  0  0  0  0  0  0  0
   23.8221    2.7301   32.1343 H   0  0  0  0  0  0  0  0  0  0  0  0
   23.5866    1.0038   32.2674 H   0  0  0  0  0  0  0  0  0  0  0  0
   22.2054    2.0671   32.1455 H   0  0  0  0  0  0  0  0  0  0  0  0
  1  2  1  0  0  0  0
  1 31  1  0  0  0  0
  1 32  1  0  0  0  0
  1 33  1  0  0  0  0
  2  3  2  0  0  0  0
  2  4  1  0  0  0  0
  4  5  1  0  0  0  0
  4 34  1  0  0  0  0
  5  8  1  0  0  0  0
  5  6  1  0  0  0  0
  5 35  1  6  0  0  0
  6  9  1  0  0  0  0
  6  7  2  0  0  0  0
  8 36  1  0  0  0  0
  8 37  1  0  0  0  0
  8 38  1  0  0  0  0
  9 10  1  0  0  0  0
  9 39  1  0  0  0  0
 10 40  1  1  0  0  0
 11 10  1  0  0  0  0
 11 12  2  0  0  0  0
 13 10  1  0  0  0  0
 13 41  1  0  0  0  0
 13 42  1  0  0  0  0
 13 43  1  0  0  0  0
 14 11  1  0  0  0  0
 14 44  1  0  0  0  0
 15 14  1  0  0  0  0
 15 16  1  0  0  0  0
 15 45  1  1  0  0  0
 16 17  2  0  0  0  0
 18 15  1  0  0  0  0
 18 46  1  0  0  0  0
 19 18  1  0  0  0  0
 19 47  1  0  0  0  0
 19 48  1  0  0  0  0
 19 49  1  0  0  0  0
 20 18  1  0  0  0  0
 20 50  1  0  0  0  0
 20 51  1  0  0  0  0
 20 52  1  0  0  0  0
 21 22  1  0  0  0  0
 21 16  1  0  0  0  0
 21 53  1  0  0  0  0
 22 23  1  0  0  0  0
 22 54  1  6  0  0  0
 23 24  2  0  0  0  0
 23 29  1  0  0  0  0
 25 26  1  0  0  0  0
 25 22  1  0  0  0  0
 25 55  1  0  0  0  0
 25 56  1  0  0  0  0
 26 57  1  0  0  0  0
 27 26  1  0  0  0  0
 27 58  1  0  0  0  0
 27 59  1  0  0  0  0
 27 60  1  0  0  0  0
 28 26  1  0  0  0  0
 28 61  1  0  0  0  0
 28 62  1  0  0  0  0
 28 63  1  0  0  0  0
 29 30  1  0  0  0  0
 29 64  1  0  0  0  0
 30 65  1  0  0  0  0
 30 66  1  0  0  0  0
 30 67  1  0  0  0  0
M  END
>  <MODEL>
       0

$$$$
selected_4mers/AAVL/414_noH.pdb
 OpenBabel03042517593D

 67 66  0  0  1  0  0  0  0  0999 V2000
   39.6100   -7.8050   21.2330 C   0  0  0  0  0  0  0  0  0  0  0  0
   39.0650   -9.1380   21.7160 C   0  0  0  0  0  0  0  0  0  0  0  0
   39.5920   -9.7200   22.6620 O   0  0  0  0  0  0  0  0  0  0  0  0
   38.0140   -9.6260   21.0690 N   0  0  0  0  0  0  0  0  0  0  0  0
   37.4260  -10.9030   21.4580 C   0  0  2  0  0  0  0  0  0  0  0  0
   38.4170  -12.0670   21.3440 C   0  0  0  0  0  0  0  0  0  0  0  0
   38.3060  -13.0600   22.0690 O   0  0  0  0  0  0  0  0  0  0  0  0
   36.1870  -11.1900   20.5990 C   0  0  0  0  0  0  0  0  0  0  0  0
   39.3790  -11.9460   20.4330 N   0  0  0  0  0  0  0  0  0  0  0  0
   40.3700  -12.9970   20.2200 C   0  0  2  0  0  0  0  0  0  0  0  0
   41.6000  -12.8840   21.1300 C   0  0  0  0  0  0  0  0  0  0  0  0
   42.5100  -13.7160   21.0610 O   0  0  0  0  0  0  0  0  0  0  0  0
   40.8050  -13.0120   18.7570 C   0  0  0  0  0  0  0  0  0  0  0  0
   41.6350  -11.8590   21.9710 N   0  0  0  0  0  0  0  0  0  0  0  0
   42.7690  -11.6890   22.8760 C   0  0  2  0  0  0  0  0  0  0  0  0
   42.4330  -12.4500   24.1500 C   0  0  0  0  0  0  0  0  0  0  0  0
   41.5630  -12.0460   24.9200 O   0  0  0  0  0  0  0  0  0  0  0  0
   43.0220  -10.1940   23.1900 C   0  0  0  0  0  0  0  0  0  0  0  0
   44.2620  -10.0470   24.0810 C   0  0  0  0  0  0  0  0  0  0  0  0
   43.2130   -9.4250   21.8930 C   0  0  0  0  0  0  0  0  0  0  0  0
   43.1250  -13.5680   24.3480 N   0  0  0  0  0  0  0  0  0  0  0  0
   42.9090  -14.4440   25.4960 C   0  0  2  0  0  0  0  0  0  0  0  0
   43.6190  -14.0090   26.7730 C   0  0  0  0  0  0  0  0  0  0  0  0
   43.0820  -14.1650   27.8800 O   0  0  0  0  0  0  0  0  0  0  0  0
   43.3780  -15.8550   25.1490 C   0  0  0  0  0  0  0  0  0  0  0  0
   42.6790  -16.5860   24.0010 C   0  0  0  0  0  0  0  0  0  0  0  0
   43.5160  -17.7780   23.5690 C   0  0  0  0  0  0  0  0  0  0  0  0
   41.2930  -17.0230   24.4390 C   0  0  0  0  0  0  0  0  0  0  0  0
   44.8230  -13.4710   26.6300 N   0  0  0  0  0  0  0  0  0  0  0  0
   45.5810  -13.0810   27.8090 C   0  0  0  0  0  0  0  0  0  0  0  0
   39.0240   -7.4580   20.4077 H   0  0  0  0  0  0  0  0  0  0  0  0
   40.6266   -7.9268   20.9223 H   0  0  0  0  0  0  0  0  0  0  0  0
   39.5633   -7.0912   22.0287 H   0  0  0  0  0  0  0  0  0  0  0  0
   37.6269   -9.1205   20.3181 H   0  0  0  0  0  0  0  0  0  0  0  0
   37.1489  -10.8219   22.4883 H   0  0  0  0  0  0  0  0  0  0  0  0
   36.4757  -11.2690   19.5717 H   0  0  0  0  0  0  0  0  0  0  0  0
   35.4826  -10.3924   20.7112 H   0  0  0  0  0  0  0  0  0  0  0  0
   35.7388  -12.1087   20.9152 H   0  0  0  0  0  0  0  0  0  0  0  0
   39.4238  -11.1269   19.8886 H   0  0  0  0  0  0  0  0  0  0  0  0
   39.8904  -13.9181   20.4780 H   0  0  0  0  0  0  0  0  0  0  0  0
   41.2819  -12.0846   18.5172 H   0  0  0  0  0  0  0  0  0  0  0  0
   39.9472  -13.1443   18.1312 H   0  0  0  0  0  0  0  0  0  0  0  0
   41.4908  -13.8176   18.5971 H   0  0  0  0  0  0  0  0  0  0  0  0
   40.8943  -11.2106   21.9854 H   0  0  0  0  0  0  0  0  0  0  0  0
   43.6639  -12.0636   22.4246 H   0  0  0  0  0  0  0  0  0  0  0  0
   42.1769   -9.7952   23.7112 H   0  0  0  0  0  0  0  0  0  0  0  0
   45.1160  -10.4423   23.5718 H   0  0  0  0  0  0  0  0  0  0  0  0
   44.1109  -10.5841   24.9940 H   0  0  0  0  0  0  0  0  0  0  0  0
   44.4241   -9.0120   24.2987 H   0  0  0  0  0  0  0  0  0  0  0  0
   44.0569   -9.8186   21.3660 H   0  0  0  0  0  0  0  0  0  0  0  0
   43.3800   -8.3912   22.1126 H   0  0  0  0  0  0  0  0  0  0  0  0
   42.3365   -9.5239   21.2873 H   0  0  0  0  0  0  0  0  0  0  0  0
   43.8144  -13.8165   23.6906 H   0  0  0  0  0  0  0  0  0  0  0  0
   41.8589  -14.3997   25.6965 H   0  0  0  0  0  0  0  0  0  0  0  0
   44.4166  -15.7920   24.8996 H   0  0  0  0  0  0  0  0  0  0  0  0
   43.1409  -16.4347   26.0166 H   0  0  0  0  0  0  0  0  0  0  0  0
   42.5741  -15.9268   23.1647 H   0  0  0  0  0  0  0  0  0  0  0  0
   43.6322  -18.4499   24.3936 H   0  0  0  0  0  0  0  0  0  0  0  0
   44.4784  -17.4398   23.2462 H   0  0  0  0  0  0  0  0  0  0  0  0
   43.0269  -18.2839   22.7629 H   0  0  0  0  0  0  0  0  0  0  0  0
   41.3755  -17.6843   25.2761 H   0  0  0  0  0  0  0  0  0  0  0  0
   40.8067  -17.5290   23.6313 H   0  0  0  0  0  0  0  0  0  0  0  0
   40.7198  -16.1638   24.7183 H   0  0  0  0  0  0  0  0  0  0  0  0
   45.2015  -13.3364   25.7312 H   0  0  0  0  0  0  0  0  0  0  0  0
   45.0123  -13.3023   28.6879 H   0  0  0  0  0  0  0  0  0  0  0  0
   45.7847  -12.0313   27.7709 H   0  0  0  0  0  0  0  0  0  0  0  0
   46.5034  -13.6226   27.8352 H   0  0  0  0  0  0  0  0  0  0  0  0
  1  2  1  0  0  0  0
  1 31  1  0  0  0  0
  1 32  1  0  0  0  0
  1 33  1  0  0  0  0
  2  3  2  0  0  0  0
  4  5  1  0  0  0  0
  4  2  1  0  0  0  0
  4 34  1  0  0  0  0
  5 35  1  1  0  0  0
  6  5  1  0  0  0  0
  6  7  2  0  0  0  0
  8  5  1  0  0  0  0
  8 36  1  0  0  0  0
  8 37  1  0  0  0  0
  8 38  1  0  0  0  0
  9  6  1  0  0  0  0
  9 39  1  0  0  0  0
 10  9  1  0  0  0  0
 10 11  1  0  0  0  0
 10 40  1  1  0  0  0
 11 14  1  0  0  0  0
 12 11  2  0  0  0  0
 13 10  1  0  0  0  0
 13 41  1  0  0  0  0
 13 42  1  0  0  0  0
 13 43  1  0  0  0  0
 14 15  1  0  0  0  0
 14 44  1  0  0  0  0
 15 18  1  0  0  0  0
 15 16  1  0  0  0  0
 15 45  1  6  0  0  0
 16 21  1  0  0  0  0
 16 17  2  0  0  0  0
 18 19  1  0  0  0  0
 18 46  1  0  0  0  0
 19 47  1  0  0  0  0
 19 48  1  0  0  0  0
 19 49  1  0  0  0  0
 20 18  1  0  0  0  0
 20 50  1  0  0  0  0
 20 51  1  0  0  0  0
 20 52  1  0  0  0  0
 21 22  1  0  0  0  0
 21 53  1  0  0  0  0
 22 23  1  0  0  0  0
 22 54  1  1  0  0  0
 23 24  2  0  0  0  0
 25 22  1  0  0  0  0
 25 55  1  0  0  0  0
 25 56  1  0  0  0  0
 26 28  1  0  0  0  0
 26 25  1  0  0  0  0
 26 57  1  0  0  0  0
 27 26  1  0  0  0  0
 27 58  1  0  0  0  0
 27 59  1  0  0  0  0
 27 60  1  0  0  0  0
 28 61  1  0  0  0  0
 28 62  1  0  0  0  0
 28 63  1  0  0  0  0
 29 23  1  0  0  0  0
 29 30  1  0  0  0  0
 29 64  1  0  0  0  0
 30 65  1  0  0  0  0
 30 66  1  0  0  0  0
 30 67  1  0  0  0  0
M  END
>  <MODEL>
       0

$$$$
