selected_4mers/AAVV/455_noH.pdb
 OpenBabel03042517593D

 64 63  0  0  1  0  0  0  0  0999 V2000
   86.6090   -1.1700   24.0080 C   0  0  0  0  0  0  0  0  0  0  0  0
   87.7340   -1.4610   23.0160 C   0  0  0  0  0  0  0  0  0  0  0  0
   88.9150   -1.4030   23.3580 O   0  0  0  0  0  0  0  0  0  0  0  0
   87.3570   -1.7810   21.7810 N   0  0  0  0  0  0  0  0  0  0  0  0
   88.3320   -2.0830   20.7470 C   0  0  2  0  0  0  0  0  0  0  0  0
   89.1910   -0.8570   20.4580 C   0  0  0  0  0  0  0  0  0  0  0  0
   90.3960   -0.9680   20.2640 O   0  0  0  0  0  0  0  0  0  0  0  0
   87.6200   -2.5510   19.4750 C   0  0  0  0  0  0  0  0  0  0  0  0
   88.5640    0.3150   20.4430 N   0  0  0  0  0  0  0  0  0  0  0  0
   89.2860    1.5590   20.1870 C   0  0  2  0  0  0  0  0  0  0  0  0
   90.3700    1.8040   21.2340 C   0  0  0  0  0  0  0  0  0  0  0  0
   91.4750    2.2320   20.8970 O   0  0  0  0  0  0  0  0  0  0  0  0
   88.3070    2.7400   20.1570 C   0  0  0  0  0  0  0  0  0  0  0  0
   90.0580    1.5340   22.5010 N   0  0  0  0  0  0  0  0  0  0  0  0
   91.0300    1.7370   23.5720 C   0  0  2  0  0  0  0  0  0  0  0  0
   92.1810    0.7350   23.4940 C   0  0  0  0  0  0  0  0  0  0  0  0
   93.3510    1.1130   23.6070 O   0  0  0  0  0  0  0  0  0  0  0  0
   90.3790    1.6350   24.9730 C   0  0  0  0  0  0  0  0  0  0  0  0
   91.4380    1.8710   26.0520 C   0  0  0  0  0  0  0  0  0  0  0  0
   89.2550    2.6570   25.1100 C   0  0  0  0  0  0  0  0  0  0  0  0
   91.8570   -0.5420   23.3110 N   0  0  0  0  0  0  0  0  0  0  0  0
   92.9020   -1.5540   23.2090 C   0  0  2  0  0  0  0  0  0  0  0  0
   93.7860   -1.2300   22.0070 C   0  0  0  0  0  0  0  0  0  0  0  0
   95.0180   -1.3040   22.0890 O   0  0  0  0  0  0  0  0  0  0  0  0
   92.3070   -2.9720   23.0340 C   0  0  0  0  0  0  0  0  0  0  0  0
   93.4240   -3.9750   22.7630 C   0  0  0  0  0  0  0  0  0  0  0  0
   91.5550   -3.3710   24.2970 C   0  0  0  0  0  0  0  0  0  0  0  0
   93.1580   -0.8640   20.8900 N   0  0  0  0  0  0  0  0  0  0  0  0
   93.9190   -0.5140   19.6940 C   0  0  0  0  0  0  0  0  0  0  0  0
   85.6643   -1.2737   23.5164 H   0  0  0  0  0  0  0  0  0  0  0  0
   86.7102   -0.1716   24.3792 H   0  0  0  0  0  0  0  0  0  0  0  0
   86.6646   -1.8609   24.8231 H   0  0  0  0  0  0  0  0  0  0  0  0
   86.3975   -1.8139   21.5632 H   0  0  0  0  0  0  0  0  0  0  0  0
   88.9701   -2.8700   21.0910 H   0  0  0  0  0  0  0  0  0  0  0  0
   86.9774   -1.7729   19.1191 H   0  0  0  0  0  0  0  0  0  0  0  0
   87.0384   -3.4226   19.6919 H   0  0  0  0  0  0  0  0  0  0  0  0
   88.3465   -2.7846   18.7250 H   0  0  0  0  0  0  0  0  0  0  0  0
   87.5938    0.3453   20.6077 H   0  0  0  0  0  0  0  0  0  0  0  0
   89.7643    1.4699   19.2340 H   0  0  0  0  0  0  0  0  0  0  0  0
   87.8279    2.8304   21.1094 H   0  0  0  0  0  0  0  0  0  0  0  0
   87.5688    2.5722   19.4009 H   0  0  0  0  0  0  0  0  0  0  0  0
   88.8416    3.6410   19.9398 H   0  0  0  0  0  0  0  0  0  0  0  0
   89.1603    1.1931   22.7181 H   0  0  0  0  0  0  0  0  0  0  0  0
   91.4126    2.7266   23.4334 H   0  0  0  0  0  0  0  0  0  0  0  0
   89.9656    0.6555   25.0940 H   0  0  0  0  0  0  0  0  0  0  0  0
   91.8544    2.8497   25.9350 H   0  0  0  0  0  0  0  0  0  0  0  0
   92.2133    1.1398   25.9568 H   0  0  0  0  0  0  0  0  0  0  0  0
   90.9868    1.7886   27.0187 H   0  0  0  0  0  0  0  0  0  0  0  0
   89.6531    3.6431   24.9913 H   0  0  0  0  0  0  0  0  0  0  0  0
   88.8073    2.5672   26.0777 H   0  0  0  0  0  0  0  0  0  0  0  0
   88.5161    2.4776   24.3572 H   0  0  0  0  0  0  0  0  0  0  0  0
   90.9104   -0.8043   23.2443 H   0  0  0  0  0  0  0  0  0  0  0  0
   93.4715   -1.5431   24.1148 H   0  0  0  0  0  0  0  0  0  0  0  0
   91.6312   -2.9685   22.2044 H   0  0  0  0  0  0  0  0  0  0  0  0
   94.1038   -3.9836   23.5892 H   0  0  0  0  0  0  0  0  0  0  0  0
   93.9476   -3.6940   21.8732 H   0  0  0  0  0  0  0  0  0  0  0  0
   93.0040   -4.9510   22.6365 H   0  0  0  0  0  0  0  0  0  0  0  0
   92.2296   -3.3750   25.1275 H   0  0  0  0  0  0  0  0  0  0  0  0
   91.1391   -4.3487   24.1706 H   0  0  0  0  0  0  0  0  0  0  0  0
   90.7680   -2.6696   24.4801 H   0  0  0  0  0  0  0  0  0  0  0  0
   92.1743   -0.8294   20.8711 H   0  0  0  0  0  0  0  0  0  0  0  0
   94.9654   -0.6077   19.8969 H   0  0  0  0  0  0  0  0  0  0  0  0
   93.6990    0.4950   19.4138 H   0  0  0  0  0  0  0  0  0  0  0  0
   93.6503   -1.1727   18.8948 H   0  0  0  0  0  0  0  0  0  0  0  0
  1 30  1  0  0  0  0
  1 31  1  0  0  0  0
  1 32  1  0  0  0  0
  2  3  2  0  0  0  0
  2  1  1  0  0  0  0
  4  2  1  0  0  0  0
  4 33  1  0  0  0  0
  5  4  1  0  0  0  0
  5 34  1  1  0  0  0
  6  5  1  0  0  0  0
  7  6  2  0  0  0  0
  8  5  1  0  0  0  0
  8 35  1  0  0  0  0
  8 36  1  0  0  0  0
  8 37  1  0  0  0  0
  9  6  1  0  0  0  0
  9 38  1  0  0  0  0
 10  9  1  0  0  0  0
 10 11  1  0  0  0  0
 10 39  1  6  0  0  0
 11 14  1  0  0  0  0
 12 11  2  0  0  0  0
 13 10  1  0  0  0  0
 13 40  1  0  0  0  0
 13 41  1  0  0  0  0
 13 42  1  0  0  0  0
 14 15  1  0  0  0  0
 14 43  1  0  0  0  0
 15 18  1  0  0  0  0
 15 44  1  6  0  0  0
 16 15  1  0  0  0  0
 16 17  2  0  0  0  0
 18 20  1  0  0  0  0
 18 19  1  0  0  0  0
 18 45  1  0  0  0  0
 19 46  1  0  0  0  0
 19 47  1  0  0  0  0
 19 48  1  0  0  0  0
 20 49  1  0  0  0  0
 20 50  1  0  0  0  0
 20 51  1  0  0  0  0
 21 16  1  0  0  0  0
 21 52  1  0  0  0  0
 22 21  1  0  0  0  0
 22 53  1  1  0  0  0
 23 24  2  0  0  0  0
 23 22  1  0  0  0  0
 25 22  1  0  0  0  0
 25 27  1  0  0  0  0
 25 54  1  0  0  0  0
 26 25  1  0  0  0  0
 26 55  1  0  0  0  0
 26 56  1  0  0  0  0
 26 57  1  0  0  0  0
 27 58  1  0  0  0  0
 27 59  1  0  0  0  0
 27 60  1  0  0  0  0
 28 23  1  0  0  0  0
 28 61  1  0  0  0  0
 29 28  1  0  0  0  0
 29 62  1  0  0  0  0
 29 63  1  0  0  0  0
 29 64  1  0  0  0  0
M  END
>  <MODEL>
       0

$$$$
selected_4mers/AAVV/456_noH.pdb
 OpenBabel03042517593D

 64 63  0  0  1  0  0  0  0  0999 V2000
   24.6790   61.3930   11.9900 C   0  0  0  0  0  0  0  0  0  0  0  0
   25.7620   62.2080   12.6870 C   0  0  0  0  0  0  0  0  0  0  0  0
   25.7590   63.4330   12.6200 O   0  0  0  0  0  0  0  0  0  0  0  0
   26.7080   61.5220   13.3210 N   0  0  0  0  0  0  0  0  0  0  0  0
   27.7820   62.1890   14.0490 C   0  0  2  0  0  0  0  0  0  0  0  0
   28.6450   63.1140   13.2050 C   0  0  0  0  0  0  0  0  0  0  0  0
   29.2740   64.0210   13.7400 O   0  0  0  0  0  0  0  0  0  0  0  0
   28.6510   61.1550   14.7300 C   0  0  0  0  0  0  0  0  0  0  0  0
   28.6840   62.8930   11.8940 N   0  0  0  0  0  0  0  0  0  0  0  0
   29.4890   63.7400   11.0180 C   0  0  2  0  0  0  0  0  0  0  0  0
   28.8380   65.1070   10.7950 C   0  0  0  0  0  0  0  0  0  0  0  0
   29.4980   66.0540   10.3530 O   0  0  0  0  0  0  0  0  0  0  0  0
   29.7000   63.0440    9.6770 C   0  0  0  0  0  0  0  0  0  0  0  0
   27.5550   65.2190   11.1160 N   0  0  0  0  0  0  0  0  0  0  0  0
   26.8350   66.4700   10.9010 C   0  0  2  0  0  0  0  0  0  0  0  0
   26.3770   67.1580   12.1860 C   0  0  0  0  0  0  0  0  0  0  0  0
   26.3310   68.3860   12.2550 O   0  0  0  0  0  0  0  0  0  0  0  0
   25.5900   66.2340   10.0170 C   0  0  0  0  0  0  0  0  0  0  0  0
   25.0560   67.5550    9.5080 C   0  0  0  0  0  0  0  0  0  0  0  0
   25.9340   65.3070    8.8680 C   0  0  0  0  0  0  0  0  0  0  0  0
   26.0320   66.3790   13.2040 N   0  0  0  0  0  0  0  0  0  0  0  0
   25.5710   66.9620   14.4550 C   0  0  2  0  0  0  0  0  0  0  0  0
   26.2800   66.3650   15.6590 C   0  0  0  0  0  0  0  0  0  0  0  0
   26.6300   65.1900   15.6700 O   0  0  0  0  0  0  0  0  0  0  0  0
   24.0430   66.7640   14.6440 C   0  0  0  0  0  0  0  0  0  0  0  0
   23.2770   67.5540   13.5890 C   0  0  0  0  0  0  0  0  0  0  0  0
   23.6860   65.2930   14.5410 C   0  0  0  0  0  0  0  0  0  0  0  0
   26.5170   67.1900   16.6670 N   0  0  0  0  0  0  0  0  0  0  0  0
   27.1490   66.6860   17.8770 C   0  0  0  0  0  0  0  0  0  0  0  0
   23.9817   62.0546   11.5199 H   0  0  0  0  0  0  0  0  0  0  0  0
   24.1677   60.7893   12.7104 H   0  0  0  0  0  0  0  0  0  0  0  0
   25.1272   60.7630   11.2504 H   0  0  0  0  0  0  0  0  0  0  0  0
   26.6831   60.5381   13.2986 H   0  0  0  0  0  0  0  0  0  0  0  0
   27.3004   62.8210   14.7656 H   0  0  0  0  0  0  0  0  0  0  0  0
   29.1185   60.5391   13.9904 H   0  0  0  0  0  0  0  0  0  0  0  0
   28.0466   60.5470   15.3703 H   0  0  0  0  0  0  0  0  0  0  0  0
   29.4025   61.6475   15.3110 H   0  0  0  0  0  0  0  0  0  0  0  0
   28.1644   62.1502   11.5099 H   0  0  0  0  0  0  0  0  0  0  0  0
   30.4325   63.9010   11.4963 H   0  0  0  0  0  0  0  0  0  0  0  0
   28.7532   62.8861    9.2042 H   0  0  0  0  0  0  0  0  0  0  0  0
   30.1808   62.1014    9.8361 H   0  0  0  0  0  0  0  0  0  0  0  0
   30.3140   63.6563    9.0501 H   0  0  0  0  0  0  0  0  0  0  0  0
   27.0826   64.4475   11.5045 H   0  0  0  0  0  0  0  0  0  0  0  0
   27.5408   67.1153   10.4211 H   0  0  0  0  0  0  0  0  0  0  0  0
   24.8260   65.7684   10.6039 H   0  0  0  0  0  0  0  0  0  0  0  0
   25.8055   68.0388    8.9171 H   0  0  0  0  0  0  0  0  0  0  0  0
   24.7983   68.1791   10.3380 H   0  0  0  0  0  0  0  0  0  0  0  0
   24.1866   67.3812    8.9089 H   0  0  0  0  0  0  0  0  0  0  0  0
   26.6979   65.7532    8.2661 H   0  0  0  0  0  0  0  0  0  0  0  0
   25.0618   65.1399    8.2712 H   0  0  0  0  0  0  0  0  0  0  0  0
   26.2851   64.3736    9.2557 H   0  0  0  0  0  0  0  0  0  0  0  0
   26.0884   65.4004   13.1120 H   0  0  0  0  0  0  0  0  0  0  0  0
   25.7986   68.0057   14.3933 H   0  0  0  0  0  0  0  0  0  0  0  0
   23.7713   67.1207   15.6155 H   0  0  0  0  0  0  0  0  0  0  0  0
   23.5449   67.2013   12.6150 H   0  0  0  0  0  0  0  0  0  0  0  0
   23.5228   68.5920   13.6725 H   0  0  0  0  0  0  0  0  0  0  0  0
   22.2257   67.4232   13.7390 H   0  0  0  0  0  0  0  0  0  0  0  0
   23.9545   64.9278   13.5718 H   0  0  0  0  0  0  0  0  0  0  0  0
   22.6335   65.1702   14.6894 H   0  0  0  0  0  0  0  0  0  0  0  0
   24.2182   64.7436   15.2892 H   0  0  0  0  0  0  0  0  0  0  0  0
   26.2669   68.1397   16.5983 H   0  0  0  0  0  0  0  0  0  0  0  0
   27.3457   65.6399   17.7675 H   0  0  0  0  0  0  0  0  0  0  0  0
   26.4969   66.8409   18.7111 H   0  0  0  0  0  0  0  0  0  0  0  0
   28.0691   67.2065   18.0422 H   0  0  0  0  0  0  0  0  0  0  0  0
  1  2  1  0  0  0  0
  1 30  1  0  0  0  0
  1 31  1  0  0  0  0
  1 32  1  0  0  0  0
  2  4  1  0  0  0  0
  3  2  2  0  0  0  0
  4  5  1  0  0  0  0
  4 33  1  0  0  0  0
  5  8  1  0  0  0  0
  5 34  1  1  0  0  0
  6  7  2  0  0  0  0
  6  5  1  0  0  0  0
  8 35  1  0  0  0  0
  8 36  1  0  0  0  0
  8 37  1  0  0  0  0
  9  6  1  0  0  0  0
  9 38  1  0  0  0  0
 10  9  1  0  0  0  0
 10 39  1  1  0  0  0
 11 10  1  0  0  0  0
 11 14  1  0  0  0  0
 12 11  2  0  0  0  0
 13 10  1  0  0  0  0
 13 40  1  0  0  0  0
 13 41  1  0  0  0  0
 13 42  1  0  0  0  0
 14 43  1  0  0  0  0
 15 14  1  0  0  0  0
 15 16  1  0  0  0  0
 15 44  1  6  0  0  0
 16 17  2  0  0  0  0
 16 21  1  0  0  0  0
 18 15  1  0  0  0  0
 18 45  1  0  0  0  0
 19 18  1  0  0  0  0
 19 46  1  0  0  0  0
 19 47  1  0  0  0  0
 19 48  1  0  0  0  0
 20 18  1  0  0  0  0
 20 49  1  0  0  0  0
 20 50  1  0  0  0  0
 20 51  1  0  0  0  0
 21 22  1  0  0  0  0
 21 52  1  0  0  0  0
 22 25  1  0  0  0  0
 22 23  1  0  0  0  0
 22 53  1  6  0  0  0
 23 24  2  0  0  0  0
 23 28  1  0  0  0  0
 25 54  1  0  0  0  0
 26 25  1  0  0  0  0
 26 55  1  0  0  0  0
 26 56  1  0  0  0  0
 26 57  1  0  0  0  0
 27 25  1  0  0  0  0
 27 58  1  0  0  0  0
 27 59  1  0  0  0  0
 27 60  1  0  0  0  0
 28 29  1  0  0  0  0
 28 61  1  0  0  0  0
 29 62  1  0  0  0  0
 29 63  1  0  0  0  0
 29 64  1  0  0  0  0
M  END
>  <MODEL>
       0

$$$$
selected_4mers/AAVV/457_noH.pdb
 OpenBabel03042517593D

 64 63  0  0  1  0  0  0  0  0999 V2000
   43.5860   88.5690   77.8260 C   0  0  0  0  0  0  0  0  0  0  0  0
   42.2930   88.9270   78.5370 C   0  0  0  0  0  0  0  0  0  0  0  0
   41.6400   88.0570   79.1170 O   0  0  0  0  0  0  0  0  0  0  0  0
   41.9050   90.1990   78.4700 N   0  0  0  0  0  0  0  0  0  0  0  0
   40.7030   90.6710   79.1550 C   0  0  2  0  0  0  0  0  0  0  0  0
   39.7920   91.4680   78.2220 C   0  0  0  0  0  0  0  0  0  0  0  0
   40.2500   92.0460   77.2380 O   0  0  0  0  0  0  0  0  0  0  0  0
   41.0850   91.5070   80.3660 C   0  0  0  0  0  0  0  0  0  0  0  0
   38.5060   91.5130   78.5580 N   0  0  0  0  0  0  0  0  0  0  0  0
   37.4750   92.0010   77.6430 C   0  0  2  0  0  0  0  0  0  0  0  0
   37.2170   93.5000   77.7550 C   0  0  0  0  0  0  0  0  0  0  0  0
   37.2210   94.0640   78.8540 O   0  0  0  0  0  0  0  0  0  0  0  0
   36.1800   91.2380   77.8700 C   0  0  0  0  0  0  0  0  0  0  0  0
   36.8910   94.1150   76.6200 N   0  0  0  0  0  0  0  0  0  0  0  0
   36.5760   95.5420   76.5710 C   0  0  2  0  0  0  0  0  0  0  0  0
   35.2630   95.8860   75.8560 C   0  0  0  0  0  0  0  0  0  0  0  0
   34.7780   97.0100   75.9690 O   0  0  0  0  0  0  0  0  0  0  0  0
   37.7240   96.3530   75.9170 C   0  0  0  0  0  0  0  0  0  0  0  0
   38.9570   96.3270   76.8060 C   0  0  0  0  0  0  0  0  0  0  0  0
   38.0480   95.7980   74.5380 C   0  0  0  0  0  0  0  0  0  0  0  0
   34.6670   94.9240   75.1540 N   0  0  0  0  0  0  0  0  0  0  0  0
   33.4630   95.2100   74.3720 C   0  0  2  0  0  0  0  0  0  0  0  0
   32.2590   94.3280   74.7100 C   0  0  0  0  0  0  0  0  0  0  0  0
   31.1720   94.8360   74.9820 O   0  0  0  0  0  0  0  0  0  0  0  0
   33.7510   95.1210   72.8450 C   0  0  0  0  0  0  0  0  0  0  0  0
   32.4520   95.2100   72.0440 C   0  0  0  0  0  0  0  0  0  0  0  0
   34.6900   96.2430   72.4320 C   0  0  0  0  0  0  0  0  0  0  0  0
   32.4410   93.0110   74.6590 N   0  0  0  0  0  0  0  0  0  0  0  0
   31.3100   92.0930   74.7490 C   0  0  0  0  0  0  0  0  0  0  0  0
   44.0062   89.4489   77.3855 H   0  0  0  0  0  0  0  0  0  0  0  0
   43.3847   87.8484   77.0610 H   0  0  0  0  0  0  0  0  0  0  0  0
   44.2782   88.1574   78.5305 H   0  0  0  0  0  0  0  0  0  0  0  0
   42.4409   90.8374   77.9461 H   0  0  0  0  0  0  0  0  0  0  0  0
   40.1547   89.8114   79.4795 H   0  0  0  0  0  0  0  0  0  0  0  0
   41.6338   92.3681   80.0462 H   0  0  0  0  0  0  0  0  0  0  0  0
   41.6914   90.9225   81.0260 H   0  0  0  0  0  0  0  0  0  0  0  0
   40.1987   91.8188   80.8781 H   0  0  0  0  0  0  0  0  0  0  0  0
   38.2386   91.2069   79.4547 H   0  0  0  0  0  0  0  0  0  0  0  0
   37.8436   91.8293   76.6533 H   0  0  0  0  0  0  0  0  0  0  0  0
   35.8272   91.4217   78.8633 H   0  0  0  0  0  0  0  0  0  0  0  0
   36.3562   90.1904   77.7421 H   0  0  0  0  0  0  0  0  0  0  0  0
   35.4451   91.5648   77.1643 H   0  0  0  0  0  0  0  0  0  0  0  0
   36.8611   93.5919   75.7865 H   0  0  0  0  0  0  0  0  0  0  0  0
   36.4557   95.8168   77.5981 H   0  0  0  0  0  0  0  0  0  0  0  0
   37.4059   97.3684   75.8046 H   0  0  0  0  0  0  0  0  0  0  0  0
   39.2875   95.3167   76.9280 H   0  0  0  0  0  0  0  0  0  0  0  0
   38.7158   96.7414   77.7626 H   0  0  0  0  0  0  0  0  0  0  0  0
   39.7355   96.9047   76.3531 H   0  0  0  0  0  0  0  0  0  0  0  0
   38.3687   94.7813   74.6291 H   0  0  0  0  0  0  0  0  0  0  0  0
   38.8285   96.3797   74.0937 H   0  0  0  0  0  0  0  0  0  0  0  0
   37.1747   95.8427   73.9213 H   0  0  0  0  0  0  0  0  0  0  0  0
   35.0393   94.0126   75.1610 H   0  0  0  0  0  0  0  0  0  0  0  0
   33.1968   96.2099   74.6446 H   0  0  0  0  0  0  0  0  0  0  0  0
   34.2121   94.1775   72.6400 H   0  0  0  0  0  0  0  0  0  0  0  0
   31.9772   96.1491   72.2377 H   0  0  0  0  0  0  0  0  0  0  0  0
   31.7989   94.4136   72.3340 H   0  0  0  0  0  0  0  0  0  0  0  0
   32.6707   95.1296   70.9997 H   0  0  0  0  0  0  0  0  0  0  0  0
   34.2296   97.1869   72.6367 H   0  0  0  0  0  0  0  0  0  0  0  0
   34.8978   96.1670   71.3851 H   0  0  0  0  0  0  0  0  0  0  0  0
   35.6036   96.1647   72.9835 H   0  0  0  0  0  0  0  0  0  0  0  0
   33.3517   92.6506   74.5591 H   0  0  0  0  0  0  0  0  0  0  0  0
   30.4039   92.6525   74.8534 H   0  0  0  0  0  0  0  0  0  0  0  0
   31.4352   91.4551   75.5989 H   0  0  0  0  0  0  0  0  0  0  0  0
   31.2617   91.4984   73.8607 H   0  0  0  0  0  0  0  0  0  0  0  0
  1  2  1  0  0  0  0
  1 30  1  0  0  0  0
  1 31  1  0  0  0  0
  1 32  1  0  0  0  0
  2  3  2  0  0  0  0
  4  2  1  0  0  0  0
  4  5  1  0  0  0  0
  4 33  1  0  0  0  0
  5  8  1  0  0  0  0
  5 34  1  1  0  0  0
  6  9  1  0  0  0  0
  6  5  1  0  0  0  0
  7  6  2  0  0  0  0
  8 35  1  0  0  0  0
  8 36  1  0  0  0  0
  8 37  1  0  0  0  0
  9 38  1  0  0  0  0
 10 11  1  0  0  0  0
 10 13  1  0  0  0  0
 10  9  1  0  0  0  0
 10 39  1  6  0  0  0
 11 12  2  0  0  0  0
 13 40  1  0  0  0  0
 13 41  1  0  0  0  0
 13 42  1  0  0  0  0
 14 11  1  0  0  0  0
 14 43  1  0  0  0  0
 15 14  1  0  0  0  0
 15 44  1  1  0  0  0
 16 17  2  0  0  0  0
 16 15  1  0  0  0  0
 18 15  1  0  0  0  0
 18 19  1  0  0  0  0
 18 45  1  0  0  0  0
 19 46  1  0  0  0  0
 19 47  1  0  0  0  0
 19 48  1  0  0  0  0
 20 18  1  0  0  0  0
 20 49  1  0  0  0  0
 20 50  1  0  0  0  0
 20 51  1  0  0  0  0
 21 16  1  0  0  0  0
 21 52  1  0  0  0  0
 22 23  1  0  0  0  0
 22 21  1  0  0  0  0
 22 53  1  1  0  0  0
 23 24  2  0  0  0  0
 25 22  1  0  0  0  0
 25 54  1  0  0  0  0
 26 25  1  0  0  0  0
 26 55  1  0  0  0  0
 26 56  1  0  0  0  0
 26 57  1  0  0  0  0
 27 25  1  0  0  0  0
 27 58  1  0  0  0  0
 27 59  1  0  0  0  0
 27 60  1  0  0  0  0
 28 23  1  0  0  0  0
 28 29  1  0  0  0  0
 28 61  1  0  0  0  0
 29 62  1  0  0  0  0
 29 63  1  0  0  0  0
 29 64  1  0  0  0  0
M  END
>  <MODEL>
       0

$$$$
selected_4mers/AAVV/458_noH.pdb
 OpenBabel03042517593D

 64 63  0  0  1  0  0  0  0  0999 V2000
    9.0670   21.8730  112.2150 C   0  0  0  0  0  0  0  0  0  0  0  0
    8.0640   23.0020  112.3600 C   0  0  0  0  0  0  0  0  0  0  0  0
    7.2740   23.2570  111.4370 O   0  0  0  0  0  0  0  0  0  0  0  0
    8.0320   23.6040  113.5420 N   0  0  0  0  0  0  0  0  0  0  0  0
    7.1690   24.7680  113.7970 C   0  0  2  0  0  0  0  0  0  0  0  0
    8.0280   25.8080  114.5070 C   0  0  0  0  0  0  0  0  0  0  0  0
    8.7920   25.4350  115.3770 O   0  0  0  0  0  0  0  0  0  0  0  0
    5.9360   24.3330  114.6840 C   0  0  0  0  0  0  0  0  0  0  0  0
    7.9330   27.0750  114.1210 N   0  0  0  0  0  0  0  0  0  0  0  0
    8.7510   28.1390  114.7150 C   0  0  2  0  0  0  0  0  0  0  0  0
    7.9130   29.3180  115.1580 C   0  0  0  0  0  0  0  0  0  0  0  0
    6.9120   29.6680  114.5150 O   0  0  0  0  0  0  0  0  0  0  0  0
    9.8370   28.6350  113.7140 C   0  0  0  0  0  0  0  0  0  0  0  0
    8.3560   29.9300  116.2550 N   0  0  0  0  0  0  0  0  0  0  0  0
    7.7680   31.1380  116.7890 C   0  0  2  0  0  0  0  0  0  0  0  0
    8.8980   32.1190  117.0480 C   0  0  0  0  0  0  0  0  0  0  0  0
   10.0020   31.6780  117.4100 O   0  0  0  0  0  0  0  0  0  0  0  0
    6.9950   30.7710  118.1100 C   0  0  0  0  0  0  0  0  0  0  0  0
    7.9640   30.3940  119.2570 C   0  0  0  0  0  0  0  0  0  0  0  0
    6.0370   31.8660  118.4550 C   0  0  0  0  0  0  0  0  0  0  0  0
    8.6440   33.4240  116.8370 N   0  0  0  0  0  0  0  0  0  0  0  0
    9.5860   34.5010  117.2120 C   0  0  2  0  0  0  0  0  0  0  0  0
    9.1140   35.1460  118.5170 C   0  0  0  0  0  0  0  0  0  0  0  0
    7.9700   35.5570  118.6370 O   0  0  0  0  0  0  0  0  0  0  0  0
    9.7390   35.5500  116.1380 C   0  0  0  0  0  0  0  0  0  0  0  0
    8.4060   36.2560  115.8480 C   0  0  0  0  0  0  0  0  0  0  0  0
   10.7500   36.6040  116.5640 C   0  0  0  0  0  0  0  0  0  0  0  0
    9.9990   35.1680  119.5080 N   0  0  0  0  0  0  0  0  0  0  0  0
    9.6720   35.5290  120.8800 C   0  0  0  0  0  0  0  0  0  0  0  0
    9.0043   21.4648  111.2279 H   0  0  0  0  0  0  0  0  0  0  0  0
    8.8497   21.1087  112.9316 H   0  0  0  0  0  0  0  0  0  0  0  0
   10.0544   22.2493  112.3832 H   0  0  0  0  0  0  0  0  0  0  0  0
    8.6016   23.2623  114.2686 H   0  0  0  0  0  0  0  0  0  0  0  0
    6.7761   25.1764  112.8894 H   0  0  0  0  0  0  0  0  0  0  0  0
    6.2881   23.9175  115.6050 H   0  0  0  0  0  0  0  0  0  0  0  0
    5.3600   23.5998  114.1591 H   0  0  0  0  0  0  0  0  0  0  0  0
    5.3248   25.1871  114.8886 H   0  0  0  0  0  0  0  0  0  0  0  0
    7.2915   27.3088  113.4117 H   0  0  0  0  0  0  0  0  0  0  0  0
    9.2236   27.7137  115.5756 H   0  0  0  0  0  0  0  0  0  0  0  0
    9.3623   29.0598  112.8543 H   0  0  0  0  0  0  0  0  0  0  0  0
   10.4479   27.8098  113.4128 H   0  0  0  0  0  0  0  0  0  0  0  0
   10.4466   29.3760  114.1874 H   0  0  0  0  0  0  0  0  0  0  0  0
    9.1256   29.5385  116.7279 H   0  0  0  0  0  0  0  0  0  0  0  0
    7.0705   31.5850  116.1118 H   0  0  0  0  0  0  0  0  0  0  0  0
    6.4125   29.8882  117.9482 H   0  0  0  0  0  0  0  0  0  0  0  0
    8.5904   31.2312  119.4844 H   0  0  0  0  0  0  0  0  0  0  0  0
    8.5708   29.5665  118.9538 H   0  0  0  0  0  0  0  0  0  0  0  0
    7.4006   30.1238  120.1256 H   0  0  0  0  0  0  0  0  0  0  0  0
    6.5785   32.7729  118.6261 H   0  0  0  0  0  0  0  0  0  0  0  0
    5.4962   31.6012  119.3395 H   0  0  0  0  0  0  0  0  0  0  0  0
    5.3508   32.0075  117.6463 H   0  0  0  0  0  0  0  0  0  0  0  0
    7.7911   33.6733  116.4131 H   0  0  0  0  0  0  0  0  0  0  0  0
   10.5509   34.0568  117.3406 H   0  0  0  0  0  0  0  0  0  0  0  0
   10.0741   35.0471  115.2550 H   0  0  0  0  0  0  0  0  0  0  0  0
    8.0697   36.7594  116.7303 H   0  0  0  0  0  0  0  0  0  0  0  0
    7.6764   35.5321  115.5503 H   0  0  0  0  0  0  0  0  0  0  0  0
    8.5434   36.9682  115.0614 H   0  0  0  0  0  0  0  0  0  0  0  0
   10.4006   37.0970  117.4470 H   0  0  0  0  0  0  0  0  0  0  0  0
   10.8700   37.3211  115.7789 H   0  0  0  0  0  0  0  0  0  0  0  0
   11.6905   36.1352  116.7656 H   0  0  0  0  0  0  0  0  0  0  0  0
   10.9308   34.9259  119.3023 H   0  0  0  0  0  0  0  0  0  0  0  0
    8.6306   35.7652  120.9481 H   0  0  0  0  0  0  0  0  0  0  0  0
   10.2507   36.3802  121.1724 H   0  0  0  0  0  0  0  0  0  0  0  0
    9.8944   34.7069  121.5278 H   0  0  0  0  0  0  0  0  0  0  0  0
  1  2  1  0  0  0  0
  1 30  1  0  0  0  0
  1 31  1  0  0  0  0
  1 32  1  0  0  0  0
  2  4  1  0  0  0  0
  3  2  2  0  0  0  0
  4  5  1  0  0  0  0
  4 33  1  0  0  0  0
  5  6  1  0  0  0  0
  5  8  1  0  0  0  0
  5 34  1  6  0  0  0
  6  7  2  0  0  0  0
  8 35  1  0  0  0  0
  8 36  1  0  0  0  0
  8 37  1  0  0  0  0
  9  6  1  0  0  0  0
  9 10  1  0  0  0  0
  9 38  1  0  0  0  0
 10 11  1  0  0  0  0
 10 39  1  1  0  0  0
 11 14  1  0  0  0  0
 12 11  2  0  0  0  0
 13 10  1  0  0  0  0
 13 40  1  0  0  0  0
 13 41  1  0  0  0  0
 13 42  1  0  0  0  0
 14 15  1  0  0  0  0
 14 43  1  0  0  0  0
 15 16  1  0  0  0  0
 15 18  1  0  0  0  0
 15 44  1  6  0  0  0
 16 17  2  0  0  0  0
 18 20  1  0  0  0  0
 18 19  1  0  0  0  0
 18 45  1  0  0  0  0
 19 46  1  0  0  0  0
 19 47  1  0  0  0  0
 19 48  1  0  0  0  0
 20 49  1  0  0  0  0
 20 50  1  0  0  0  0
 20 51  1  0  0  0  0
 21 16  1  0  0  0  0
 21 22  1  0  0  0  0
 21 52  1  0  0  0  0
 22 23  1  0  0  0  0
 22 53  1  1  0  0  0
 23 24  2  0  0  0  0
 23 28  1  0  0  0  0
 25 27  1  0  0  0  0
 25 22  1  0  0  0  0
 25 54  1  0  0  0  0
 26 25  1  0  0  0  0
 26 55  1  0  0  0  0
 26 56  1  0  0  0  0
 26 57  1  0  0  0  0
 27 58  1  0  0  0  0
 27 59  1  0  0  0  0
 27 60  1  0  0  0  0
 28 29  1  0  0  0  0
 28 61  1  0  0  0  0
 29 62  1  0  0  0  0
 29 63  1  0  0  0  0
 29 64  1  0  0  0  0
M  END
>  <MODEL>
       0

$$$$
selected_4mers/AAVV/459_noH.pdb
 OpenBabel03042517593D

 64 63  0  0  1  0  0  0  0  0999 V2000
   23.3910   35.3750   53.0320 C   0  0  0  0  0  0  0  0  0  0  0  0
   24.0420   34.6740   54.2080 C   0  0  0  0  0  0  0  0  0  0  0  0
   24.3890   35.3100   55.1980 O   0  0  0  0  0  0  0  0  0  0  0  0
   24.2100   33.3610   54.0960 N   0  0  0  0  0  0  0  0  0  0  0  0
   24.8350   32.5650   55.1440 C   0  0  2  0  0  0  0  0  0  0  0  0
   26.0770   31.8480   54.6250 C   0  0  0  0  0  0  0  0  0  0  0  0
   26.1780   31.5510   53.4370 O   0  0  0  0  0  0  0  0  0  0  0  0
   23.8460   31.5480   55.6880 C   0  0  0  0  0  0  0  0  0  0  0  0
   27.0190   31.5800   55.5210 N   0  0  0  0  0  0  0  0  0  0  0  0
   28.1350   30.6890   55.2200 C   0  0  2  0  0  0  0  0  0  0  0  0
   27.9490   29.4020   56.0100 C   0  0  0  0  0  0  0  0  0  0  0  0
   27.5090   29.4360   57.1620 O   0  0  0  0  0  0  0  0  0  0  0  0
   29.4550   31.3430   55.5720 C   0  0  0  0  0  0  0  0  0  0  0  0
   28.2640   28.2710   55.3870 N   0  0  0  0  0  0  0  0  0  0  0  0
   28.1460   26.9770   56.0450 C   0  0  2  0  0  0  0  0  0  0  0  0
   29.5140   26.3210   56.0430 C   0  0  0  0  0  0  0  0  0  0  0  0
   30.1620   26.2270   55.0050 O   0  0  0  0  0  0  0  0  0  0  0  0
   27.1380   26.0580   55.3320 C   0  0  0  0  0  0  0  0  0  0  0  0
   26.9920   24.7410   56.0900 C   0  0  0  0  0  0  0  0  0  0  0  0
   25.7940   26.7510   55.1900 C   0  0  0  0  0  0  0  0  0  0  0  0
   29.9650   25.8830   57.2100 N   0  0  0  0  0  0  0  0  0  0  0  0
   31.3100   25.3390   57.3250 C   0  0  2  0  0  0  0  0  0  0  0  0
   31.2930   23.9760   57.9980 C   0  0  0  0  0  0  0  0  0  0  0  0
   30.5670   23.7680   58.9630 O   0  0  0  0  0  0  0  0  0  0  0  0
   32.2230   26.2920   58.1060 C   0  0  0  0  0  0  0  0  0  0  0  0
   33.6250   25.7330   58.1890 C   0  0  0  0  0  0  0  0  0  0  0  0
   32.2360   27.6530   57.4420 C   0  0  0  0  0  0  0  0  0  0  0  0
   32.0810   23.0430   57.4710 N   0  0  0  0  0  0  0  0  0  0  0  0
   32.1850   21.7260   58.0730 C   0  0  0  0  0  0  0  0  0  0  0  0
   23.1619   34.6579   52.2716 H   0  0  0  0  0  0  0  0  0  0  0  0
   24.0620   36.1098   52.6388 H   0  0  0  0  0  0  0  0  0  0  0  0
   22.4895   35.8520   53.3556 H   0  0  0  0  0  0  0  0  0  0  0  0
   23.9016   32.9104   53.2768 H   0  0  0  0  0  0  0  0  0  0  0  0
   25.1322   33.2286   55.9290 H   0  0  0  0  0  0  0  0  0  0  0  0
   23.5488   30.8843   54.9031 H   0  0  0  0  0  0  0  0  0  0  0  0
   22.9855   32.0564   56.0702 H   0  0  0  0  0  0  0  0  0  0  0  0
   24.3072   30.9871   56.4739 H   0  0  0  0  0  0  0  0  0  0  0  0
   26.9633   31.9935   56.4127 H   0  0  0  0  0  0  0  0  0  0  0  0
   28.1519   30.4741   54.1719 H   0  0  0  0  0  0  0  0  0  0  0  0
   29.4720   31.5722   56.6170 H   0  0  0  0  0  0  0  0  0  0  0  0
   29.5681   32.2447   55.0072 H   0  0  0  0  0  0  0  0  0  0  0  0
   30.2574   30.6741   55.3404 H   0  0  0  0  0  0  0  0  0  0  0  0
   28.5852   28.3089   54.4572 H   0  0  0  0  0  0  0  0  0  0  0  0
   27.7893   27.1304   57.0421 H   0  0  0  0  0  0  0  0  0  0  0  0
   27.5068   25.8421   54.3510 H   0  0  0  0  0  0  0  0  0  0  0  0
   26.6236   24.9357   57.0755 H   0  0  0  0  0  0  0  0  0  0  0  0
   27.9451   24.2589   56.1542 H   0  0  0  0  0  0  0  0  0  0  0  0
   26.3050   24.1053   55.5715 H   0  0  0  0  0  0  0  0  0  0  0  0
   25.4050   26.9771   56.1608 H   0  0  0  0  0  0  0  0  0  0  0  0
   25.1132   26.1066   54.6742 H   0  0  0  0  0  0  0  0  0  0  0  0
   25.9170   27.6575   54.6350 H   0  0  0  0  0  0  0  0  0  0  0  0
   29.3858   25.9260   58.0049 H   0  0  0  0  0  0  0  0  0  0  0  0
   31.6962   25.2270   56.3334 H   0  0  0  0  0  0  0  0  0  0  0  0
   31.8433   26.3951   59.1010 H   0  0  0  0  0  0  0  0  0  0  0  0
   34.0237   25.6220   57.2023 H   0  0  0  0  0  0  0  0  0  0  0  0
   33.6006   24.7792   58.6732 H   0  0  0  0  0  0  0  0  0  0  0  0
   34.2431   26.4022   58.7502 H   0  0  0  0  0  0  0  0  0  0  0  0
   32.6145   27.5601   56.4455 H   0  0  0  0  0  0  0  0  0  0  0  0
   32.8622   28.3166   58.0010 H   0  0  0  0  0  0  0  0  0  0  0  0
   31.2405   28.0439   57.4104 H   0  0  0  0  0  0  0  0  0  0  0  0
   32.6013   23.2485   56.6609 H   0  0  0  0  0  0  0  0  0  0  0  0
   31.5569   21.6786   58.9380 H   0  0  0  0  0  0  0  0  0  0  0  0
   33.1999   21.5436   58.3587 H   0  0  0  0  0  0  0  0  0  0  0  0
   31.8748   20.9852   57.3660 H   0  0  0  0  0  0  0  0  0  0  0  0
  1  2  1  0  0  0  0
  1 30  1  0  0  0  0
  1 31  1  0  0  0  0
  1 32  1  0  0  0  0
  2  3  2  0  0  0  0
  4  2  1  0  0  0  0
  4  5  1  0  0  0  0
  4 33  1  0  0  0  0
  5  8  1  0  0  0  0
  5 34  1  1  0  0  0
  6  5  1  0  0  0  0
  6  9  1  0  0  0  0
  7  6  2  0  0  0  0
  8 35  1  0  0  0  0
  8 36  1  0  0  0  0
  8 37  1  0  0  0  0
  9 38  1  0  0  0  0
 10  9  1  0  0  0  0
 10 13  1  0  0  0  0
 10 11  1  0  0  0  0
 10 39  1  6  0  0  0
 11 12  2  0  0  0  0
 13 40  1  0  0  0  0
 13 41  1  0  0  0  0
 13 42  1  0  0  0  0
 14 11  1  0  0  0  0
 14 15  1  0  0  0  0
 14 43  1  0  0  0  0
 15 44  1  1  0  0  0
 16 15  1  0  0  0  0
 16 21  1  0  0  0  0
 17 16  2  0  0  0  0
 18 15  1  0  0  0  0
 18 19  1  0  0  0  0
 18 45  1  0  0  0  0
 19 46  1  0  0  0  0
 19 47  1  0  0  0  0
 19 48  1  0  0  0  0
 20 18  1  0  0  0  0
 20 49  1  0  0  0  0
 20 50  1  0  0  0  0
 20 51  1  0  0  0  0
 21 22  1  0  0  0  0
 21 52  1  0  0  0  0
 22 23  1  0  0  0  0
 22 25  1  0  0  0  0
 22 53  1  6  0  0  0
 23 24  2  0  0  0  0
 25 26  1  0  0  0  0
 25 54  1  0  0  0  0
 26 55  1  0  0  0  0
 26 56  1  0  0  0  0
 26 57  1  0  0  0  0
 27 25  1  0  0  0  0
 27 58  1  0  0  0  0
 27 59  1  0  0  0  0
 27 60  1  0  0  0  0
 28 23  1  0  0  0  0
 28 29  1  0  0  0  0
 28 61  1  0  0  0  0
 29 62  1  0  0  0  0
 29 63  1  0  0  0  0
 29 64  1  0  0  0  0
M  END
>  <MODEL>
       0

$$$$
