selected_4mers/ADLV/285_noH.pdb
 OpenBabel03042517593D

 69 68  0  0  1  0  0  0  0  0999 V2000
   62.7600   -1.9840   44.3710 C   0  0  0  0  0  0  0  0  0  0  0  0
   62.9690   -1.9180   45.8910 C   0  0  0  0  0  0  0  0  0  0  0  0
   62.0980   -2.3260   46.6570 O   0  0  0  0  0  0  0  0  0  0  0  0
   64.1070   -1.3940   46.3350 N   0  0  0  0  0  0  0  0  0  0  0  0
   64.3780   -1.3030   47.7670 C   0  0  2  0  0  0  0  0  0  0  0  0
   63.5100   -0.2620   48.4720 C   0  0  0  0  0  0  0  0  0  0  0  0
   63.4060   -0.2630   49.6980 O   0  0  0  0  0  0  0  0  0  0  0  0
   65.8630   -0.9980   48.0020 C   0  0  0  0  0  0  0  0  0  0  0  0
   62.8810    0.6260   47.7050 N   0  0  0  0  0  0  0  0  0  0  0  0
   62.0350    1.6620   48.2960 C   0  0  2  0  0  0  0  0  0  0  0  0
   60.6300    1.1620   48.6010 C   0  0  0  0  0  0  0  0  0  0  0  0
   59.8910    1.7950   49.3530 O   0  0  0  0  0  0  0  0  0  0  0  0
   61.9380    2.8830   47.3640 C   0  0  0  0  0  0  0  0  0  0  0  0
   63.2990    3.4220   46.9660 C   0  0  0  0  0  0  0  0  0  0  0  0
   64.2320    3.2960   47.7810 O   0  0  0  0  0  0  0  0  0  0  0  0
   63.4380    3.9770   45.8480 O   0  0  0  0  0  0  0  0  0  0  0  0
   60.2610    0.0230   48.0270 N   0  0  0  0  0  0  0  0  0  0  0  0
   58.9270   -0.5210   48.2390 C   0  0  2  0  0  0  0  0  0  0  0  0
   58.6890   -0.9470   49.6850 C   0  0  0  0  0  0  0  0  0  0  0  0
   59.5400   -1.5770   50.3090 O   0  0  0  0  0  0  0  0  0  0  0  0
   58.6900   -1.7140   47.3030 C   0  0  0  0  0  0  0  0  0  0  0  0
   57.3040   -2.3690   47.3610 C   0  0  0  0  0  0  0  0  0  0  0  0
   56.2640   -1.4490   46.7410 C   0  0  0  0  0  0  0  0  0  0  0  0
   57.3370   -3.6990   46.6080 C   0  0  0  0  0  0  0  0  0  0  0  0
   57.5230   -0.5860   50.2100 N   0  0  0  0  0  0  0  0  0  0  0  0
   57.1490   -0.9410   51.5720 C   0  0  2  0  0  0  0  0  0  0  0  0
   55.8130   -1.6680   51.5580 C   0  0  0  0  0  0  0  0  0  0  0  0
   54.8140   -1.1380   51.0690 O   0  0  0  0  0  0  0  0  0  0  0  0
   57.0160    0.3120   52.4750 C   0  0  0  0  0  0  0  0  0  0  0  0
   56.4730   -0.0900   53.8520 C   0  0  0  0  0  0  0  0  0  0  0  0
   58.3790    0.9890   52.6290 C   0  0  0  0  0  0  0  0  0  0  0  0
   55.8050   -2.8890   52.0810 N   0  0  0  0  0  0  0  0  0  0  0  0
   54.5860   -3.6860   52.1520 C   0  0  0  0  0  0  0  0  0  0  0  0
   63.6205   -1.5858   43.8750 H   0  0  0  0  0  0  0  0  0  0  0  0
   61.8972   -1.4101   44.1044 H   0  0  0  0  0  0  0  0  0  0  0  0
   62.6167   -3.0021   44.0745 H   0  0  0  0  0  0  0  0  0  0  0  0
   64.7746   -1.0636   45.6913 H   0  0  0  0  0  0  0  0  0  0  0  0
   64.1292   -2.2529   48.1921 H   0  0  0  0  0  0  0  0  0  0  0  0
   66.1039   -0.0472   47.5743 H   0  0  0  0  0  0  0  0  0  0  0  0
   66.4602   -1.7575   47.5422 H   0  0  0  0  0  0  0  0  0  0  0  0
   66.0607   -0.9766   49.0534 H   0  0  0  0  0  0  0  0  0  0  0  0
   62.9868    0.5846   46.7271 H   0  0  0  0  0  0  0  0  0  0  0  0
   62.4997    1.9398   49.2189 H   0  0  0  0  0  0  0  0  0  0  0  0
   61.4101    2.5971   46.4783 H   0  0  0  0  0  0  0  0  0  0  0  0
   61.4255    3.6571   47.8960 H   0  0  0  0  0  0  0  0  0  0  0  0
   60.8971   -0.4596   47.4510 H   0  0  0  0  0  0  0  0  0  0  0  0
   58.2322    0.2623   48.0187 H   0  0  0  0  0  0  0  0  0  0  0  0
   58.8473   -1.3758   46.3001 H   0  0  0  0  0  0  0  0  0  0  0  0
   59.3727   -2.4697   47.6314 H   0  0  0  0  0  0  0  0  0  0  0  0
   57.0413   -2.5455   48.3831 H   0  0  0  0  0  0  0  0  0  0  0  0
   56.5158   -1.2646   45.7175 H   0  0  0  0  0  0  0  0  0  0  0  0
   56.2434   -0.5224   47.2757 H   0  0  0  0  0  0  0  0  0  0  0  0
   55.3011   -1.9126   46.7935 H   0  0  0  0  0  0  0  0  0  0  0  0
   57.5997   -3.5236   45.5857 H   0  0  0  0  0  0  0  0  0  0  0  0
   56.3721   -4.1592   46.6544 H   0  0  0  0  0  0  0  0  0  0  0  0
   58.0623   -4.3451   47.0568 H   0  0  0  0  0  0  0  0  0  0  0  0
   56.8936   -0.0633   49.6623 H   0  0  0  0  0  0  0  0  0  0  0  0
   57.9211   -1.5677   51.9671 H   0  0  0  0  0  0  0  0  0  0  0  0
   56.3341    0.9994   52.0196 H   0  0  0  0  0  0  0  0  0  0  0  0
   57.1492   -0.7779   54.3151 H   0  0  0  0  0  0  0  0  0  0  0  0
   55.5158   -0.5540   53.7364 H   0  0  0  0  0  0  0  0  0  0  0  0
   56.3752    0.7814   54.4651 H   0  0  0  0  0  0  0  0  0  0  0  0
   59.0666    0.3071   53.0841 H   0  0  0  0  0  0  0  0  0  0  0  0
   58.2780    1.8580   53.2451 H   0  0  0  0  0  0  0  0  0  0  0  0
   58.7458    1.2755   51.6655 H   0  0  0  0  0  0  0  0  0  0  0  0
   56.6448   -3.2660   52.4301 H   0  0  0  0  0  0  0  0  0  0  0  0
   53.7725   -3.1317   51.7326 H   0  0  0  0  0  0  0  0  0  0  0  0
   54.3703   -3.9176   53.1741 H   0  0  0  0  0  0  0  0  0  0  0  0
   54.7207   -4.5935   51.6014 H   0  0  0  0  0  0  0  0  0  0  0  0
  1  2  1  0  0  0  0
  1 34  1  0  0  0  0
  1 35  1  0  0  0  0
  1 36  1  0  0  0  0
  2  4  1  0  0  0  0
  2  3  2  0  0  0  0
  4  5  1  0  0  0  0
  4 37  1  0  0  0  0
  5  8  1  0  0  0  0
  5  6  1  0  0  0  0
  5 38  1  1  0  0  0
  6  7  2  0  0  0  0
  8 39  1  0  0  0  0
  8 40  1  0  0  0  0
  8 41  1  0  0  0  0
  9 10  1  0  0  0  0
  9  6  1  0  0  0  0
  9 42  1  0  0  0  0
 10 11  1  0  0  0  0
 10 43  1  1  0  0  0
 11 12  2  0  0  0  0
 13 10  1  0  0  0  0
 13 44  1  0  0  0  0
 13 45  1  0  0  0  0
 14 13  1  0  0  0  0
 14 15  1  0  0  0  0
 16 14  2  0  0  0  0
 17 18  1  0  0  0  0
 17 11  1  0  0  0  0
 17 46  1  0  0  0  0
 18 19  1  0  0  0  0
 18 47  1  6  0  0  0
 19 25  1  0  0  0  0
 19 20  2  0  0  0  0
 21 22  1  0  0  0  0
 21 18  1  0  0  0  0
 21 48  1  0  0  0  0
 21 49  1  0  0  0  0
 22 50  1  0  0  0  0
 23 22  1  0  0  0  0
 23 51  1  0  0  0  0
 23 52  1  0  0  0  0
 23 53  1  0  0  0  0
 24 22  1  0  0  0  0
 24 54  1  0  0  0  0
 24 55  1  0  0  0  0
 24 56  1  0  0  0  0
 25 26  1  0  0  0  0
 25 57  1  0  0  0  0
 26 29  1  0  0  0  0
 26 58  1  1  0  0  0
 27 26  1  0  0  0  0
 27 32  1  0  0  0  0
 28 27  2  0  0  0  0
 29 31  1  0  0  0  0
 29 30  1  0  0  0  0
 29 59  1  0  0  0  0
 30 60  1  0  0  0  0
 30 61  1  0  0  0  0
 30 62  1  0  0  0  0
 31 63  1  0  0  0  0
 31 64  1  0  0  0  0
 31 65  1  0  0  0  0
 32 33  1  0  0  0  0
 32 66  1  0  0  0  0
 33 67  1  0  0  0  0
 33 68  1  0  0  0  0
 33 69  1  0  0  0  0
M  CHG  1  15  -1
M  END
>  <MODEL>
       0

$$$$
selected_4mers/ADLV/286_noH.pdb
 OpenBabel03042517593D

 69 68  0  0  1  0  0  0  0  0999 V2000
  -10.9980   10.3300    6.0480 C   0  0  0  0  0  0  0  0  0  0  0  0
   -9.5920   10.3520    6.5710 C   0  0  0  0  0  0  0  0  0  0  0  0
   -8.7100    9.6490    6.0610 O   0  0  0  0  0  0  0  0  0  0  0  0
   -9.3540   11.1170    7.6300 N   0  0  0  0  0  0  0  0  0  0  0  0
   -7.9920   11.2390    8.1410 C   0  0  2  0  0  0  0  0  0  0  0  0
   -7.5200    9.8810    8.6700 C   0  0  0  0  0  0  0  0  0  0  0  0
   -6.3740    9.4840    8.5020 O   0  0  0  0  0  0  0  0  0  0  0  0
   -7.9360   12.3160    9.2280 C   0  0  0  0  0  0  0  0  0  0  0  0
   -8.4110    9.1610    9.2980 N   0  0  0  0  0  0  0  0  0  0  0  0
   -8.0580    7.8780    9.8530 C   0  0  2  0  0  0  0  0  0  0  0  0
   -7.7010    6.9330    8.6940 C   0  0  0  0  0  0  0  0  0  0  0  0
   -6.6970    6.2200    8.8180 O   0  0  0  0  0  0  0  0  0  0  0  0
   -9.2150    7.3050   10.6550 C   0  0  0  0  0  0  0  0  0  0  0  0
   -8.8660    5.9970   11.3500 C   0  0  0  0  0  0  0  0  0  0  0  0
   -7.7990    5.9420   11.9840 O   0  0  0  0  0  0  0  0  0  0  0  0
   -9.6620    5.0260   11.2540 O   0  0  0  0  0  0  0  0  0  0  0  0
   -8.4780    6.9410    7.5920 N   0  0  0  0  0  0  0  0  0  0  0  0
   -8.1650    6.0540    6.4630 C   0  0  2  0  0  0  0  0  0  0  0  0
   -6.8010    6.4220    5.8780 C   0  0  0  0  0  0  0  0  0  0  0  0
   -6.0060    5.5460    5.5630 O   0  0  0  0  0  0  0  0  0  0  0  0
   -9.2310    6.0810    5.3590 C   0  0  0  0  0  0  0  0  0  0  0  0
  -10.5240    5.3160    5.7080 C   0  0  0  0  0  0  0  0  0  0  0  0
  -11.5540    5.4790    4.6020 C   0  0  0  0  0  0  0  0  0  0  0  0
  -10.2400    3.8060    6.0060 C   0  0  0  0  0  0  0  0  0  0  0  0
   -6.5310    7.7090    5.7740 N   0  0  0  0  0  0  0  0  0  0  0  0
   -5.2780    8.1470    5.2010 C   0  0  2  0  0  0  0  0  0  0  0  0
   -4.1150    7.6790    6.1050 C   0  0  0  0  0  0  0  0  0  0  0  0
   -3.1110    7.2110    5.6310 O   0  0  0  0  0  0  0  0  0  0  0  0
   -5.2410    9.6830    5.0580 C   0  0  0  0  0  0  0  0  0  0  0  0
   -3.7380   10.1340    4.8210 C   0  0  0  0  0  0  0  0  0  0  0  0
   -6.2230   10.2000    3.9580 C   0  0  0  0  0  0  0  0  0  0  0  0
   -4.2720    7.8080    7.4230 N   0  0  0  0  0  0  0  0  0  0  0  0
   -3.2600    7.2960    8.3550 C   0  0  0  0  0  0  0  0  0  0  0  0
  -11.0529    9.6799    5.1999 H   0  0  0  0  0  0  0  0  0  0  0  0
  -11.2864   11.3189    5.7586 H   0  0  0  0  0  0  0  0  0  0  0  0
  -11.6574    9.9755    6.8125 H   0  0  0  0  0  0  0  0  0  0  0  0
  -10.0921   11.5993    8.0681 H   0  0  0  0  0  0  0  0  0  0  0  0
   -7.3337   11.5374    7.3520 H   0  0  0  0  0  0  0  0  0  0  0  0
   -8.5864   12.0444   10.0330 H   0  0  0  0  0  0  0  0  0  0  0  0
   -8.2486   13.2535    8.8177 H   0  0  0  0  0  0  0  0  0  0  0  0
   -6.9339   12.4028    9.5928 H   0  0  0  0  0  0  0  0  0  0  0  0
   -9.3314    9.4974    9.3931 H   0  0  0  0  0  0  0  0  0  0  0  0
   -7.2227    7.9879   10.5126 H   0  0  0  0  0  0  0  0  0  0  0  0
  -10.0362    7.1302    9.9917 H   0  0  0  0  0  0  0  0  0  0  0  0
   -9.4606    8.0162   11.4157 H   0  0  0  0  0  0  0  0  0  0  0  0
   -9.2562    7.5420    7.5437 H   0  0  0  0  0  0  0  0  0  0  0  0
   -8.1471    5.0563    6.8491 H   0  0  0  0  0  0  0  0  0  0  0  0
   -9.4872    7.1016    5.1651 H   0  0  0  0  0  0  0  0  0  0  0  0
   -8.8046    5.5912    4.5086 H   0  0  0  0  0  0  0  0  0  0  0  0
  -10.9257    5.7405    6.6043 H   0  0  0  0  0  0  0  0  0  0  0  0
  -11.1720    5.0604    3.6944 H   0  0  0  0  0  0  0  0  0  0  0  0
  -11.7594    6.5189    4.4564 H   0  0  0  0  0  0  0  0  0  0  0  0
  -12.4556    4.9724    4.8767 H   0  0  0  0  0  0  0  0  0  0  0  0
   -9.8351    3.3400    5.1320 H   0  0  0  0  0  0  0  0  0  0  0  0
  -11.1524    3.3187    6.2798 H   0  0  0  0  0  0  0  0  0  0  0  0
   -9.5383    3.7269    6.8099 H   0  0  0  0  0  0  0  0  0  0  0  0
   -7.1855    8.3741    6.0879 H   0  0  0  0  0  0  0  0  0  0  0  0
   -5.1789    7.7191    4.2253 H   0  0  0  0  0  0  0  0  0  0  0  0
   -5.5913   10.1352    5.9623 H   0  0  0  0  0  0  0  0  0  0  0  0
   -3.3705    9.6904    3.9193 H   0  0  0  0  0  0  0  0  0  0  0  0
   -3.1358    9.8158    5.6462 H   0  0  0  0  0  0  0  0  0  0  0  0
   -3.6944   11.1999    4.7377 H   0  0  0  0  0  0  0  0  0  0  0  0
   -5.9429    9.7918    3.0094 H   0  0  0  0  0  0  0  0  0  0  0  0
   -6.1786   11.2682    3.9138 H   0  0  0  0  0  0  0  0  0  0  0  0
   -7.2199    9.8940    4.1976 H   0  0  0  0  0  0  0  0  0  0  0  0
   -5.0768    8.2522    7.7754 H   0  0  0  0  0  0  0  0  0  0  0  0
   -2.4606    6.8479    7.8026 H   0  0  0  0  0  0  0  0  0  0  0  0
   -3.7041    6.5641    8.9969 H   0  0  0  0  0  0  0  0  0  0  0  0
   -2.8776    8.1028    8.9448 H   0  0  0  0  0  0  0  0  0  0  0  0
  1  2  1  0  0  0  0
  1 34  1  0  0  0  0
  1 35  1  0  0  0  0
  1 36  1  0  0  0  0
  2  4  1  0  0  0  0
  3  2  2  0  0  0  0
  4  5  1  0  0  0  0
  4 37  1  0  0  0  0
  5  6  1  0  0  0  0
  5  8  1  0  0  0  0
  5 38  1  6  0  0  0
  6  9  1  0  0  0  0
  7  6  2  0  0  0  0
  8 39  1  0  0  0  0
  8 40  1  0  0  0  0
  8 41  1  0  0  0  0
  9 10  1  0  0  0  0
  9 42  1  0  0  0  0
 10 13  1  0  0  0  0
 10 43  1  1  0  0  0
 11 12  2  0  0  0  0
 11 10  1  0  0  0  0
 13 14  1  0  0  0  0
 13 44  1  0  0  0  0
 13 45  1  0  0  0  0
 14 15  1  0  0  0  0
 16 14  2  0  0  0  0
 17 11  1  0  0  0  0
 17 46  1  0  0  0  0
 18 17  1  0  0  0  0
 18 47  1  1  0  0  0
 19 18  1  0  0  0  0
 20 19  2  0  0  0  0
 21 22  1  0  0  0  0
 21 18  1  0  0  0  0
 21 48  1  0  0  0  0
 21 49  1  0  0  0  0
 22 24  1  0  0  0  0
 22 50  1  0  0  0  0
 23 22  1  0  0  0  0
 23 51  1  0  0  0  0
 23 52  1  0  0  0  0
 23 53  1  0  0  0  0
 24 54  1  0  0  0  0
 24 55  1  0  0  0  0
 24 56  1  0  0  0  0
 25 19  1  0  0  0  0
 25 57  1  0  0  0  0
 26 25  1  0  0  0  0
 26 27  1  0  0  0  0
 26 58  1  6  0  0  0
 27 32  1  0  0  0  0
 28 27  2  0  0  0  0
 29 26  1  0  0  0  0
 29 59  1  0  0  0  0
 30 29  1  0  0  0  0
 30 60  1  0  0  0  0
 30 61  1  0  0  0  0
 30 62  1  0  0  0  0
 31 29  1  0  0  0  0
 31 63  1  0  0  0  0
 31 64  1  0  0  0  0
 31 65  1  0  0  0  0
 32 33  1  0  0  0  0
 32 66  1  0  0  0  0
 33 67  1  0  0  0  0
 33 68  1  0  0  0  0
 33 69  1  0  0  0  0
M  CHG  1  15  -1
M  END
>  <MODEL>
       0

$$$$
selected_4mers/ADLV/287_noH.pdb
 OpenBabel03042517593D

 69 68  0  0  1  0  0  0  0  0999 V2000
   54.0500   42.1180   37.2700 C   0  0  0  0  0  0  0  0  0  0  0  0
   53.4450   40.7830   37.6160 C   0  0  0  0  0  0  0  0  0  0  0  0
   53.5900   40.2950   38.7470 O   0  0  0  0  0  0  0  0  0  0  0  0
   52.8080   40.1640   36.6370 N   0  0  0  0  0  0  0  0  0  0  0  0
   52.1200   38.9140   36.8650 C   0  0  2  0  0  0  0  0  0  0  0  0
   53.0140   37.7070   37.0590 C   0  0  0  0  0  0  0  0  0  0  0  0
   54.0480   37.5680   36.3950 O   0  0  0  0  0  0  0  0  0  0  0  0
   51.1620   38.6190   35.6760 C   0  0  0  0  0  0  0  0  0  0  0  0
   52.5720   36.8200   37.9360 N   0  0  0  0  0  0  0  0  0  0  0  0
   53.2690   35.5450   38.1550 C   0  0  2  0  0  0  0  0  0  0  0  0
   52.6560   34.4670   37.2710 C   0  0  0  0  0  0  0  0  0  0  0  0
   53.3390   33.4860   36.9120 O   0  0  0  0  0  0  0  0  0  0  0  0
   53.1060   35.1160   39.6000 C   0  0  0  0  0  0  0  0  0  0  0  0
   53.8730   36.0210   40.5490 C   0  0  0  0  0  0  0  0  0  0  0  0
   55.1360   36.0380   40.5000 O   0  0  0  0  0  0  0  0  0  0  0  0
   53.2150   36.7270   41.3400 O   0  0  0  0  0  0  0  0  0  0  0  0
   51.3640   34.6470   36.9600 N   0  0  0  0  0  0  0  0  0  0  0  0
   50.5960   33.7060   36.1390 C   0  0  2  0  0  0  0  0  0  0  0  0
   49.7210   34.5070   35.1840 C   0  0  0  0  0  0  0  0  0  0  0  0
   49.0740   35.4730   35.6140 O   0  0  0  0  0  0  0  0  0  0  0  0
   49.6610   32.8680   37.0190 C   0  0  0  0  0  0  0  0  0  0  0  0
   48.5720   32.0740   36.2860 C   0  0  0  0  0  0  0  0  0  0  0  0
   49.1700   30.9890   35.3580 C   0  0  0  0  0  0  0  0  0  0  0  0
   47.6970   31.4050   37.3710 C   0  0  0  0  0  0  0  0  0  0  0  0
   49.7170   34.1110   33.9130 N   0  0  0  0  0  0  0  0  0  0  0  0
   48.8510   34.7650   32.9330 C   0  0  2  0  0  0  0  0  0  0  0  0
   47.9280   33.6950   32.3880 C   0  0  0  0  0  0  0  0  0  0  0  0
   48.3830   32.6690   31.8680 O   0  0  0  0  0  0  0  0  0  0  0  0
   49.6310   35.3680   31.7760 C   0  0  0  0  0  0  0  0  0  0  0  0
   48.6160   36.0740   30.7740 C   0  0  0  0  0  0  0  0  0  0  0  0
   50.6410   36.4280   32.3260 C   0  0  0  0  0  0  0  0  0  0  0  0
   46.6290   33.8990   32.5850 N   0  0  0  0  0  0  0  0  0  0  0  0
   45.6090   32.9720   32.0850 C   0  0  0  0  0  0  0  0  0  0  0  0
   53.8149   42.3640   36.2555 H   0  0  0  0  0  0  0  0  0  0  0  0
   55.1123   42.0696   37.3883 H   0  0  0  0  0  0  0  0  0  0  0  0
   53.6526   42.8690   37.9204 H   0  0  0  0  0  0  0  0  0  0  0  0
   52.8022   40.5618   35.7365 H   0  0  0  0  0  0  0  0  0  0  0  0
   51.5968   39.0552   37.7876 H   0  0  0  0  0  0  0  0  0  0  0  0
   51.7340   38.4866   34.7815 H   0  0  0  0  0  0  0  0  0  0  0  0
   50.4872   39.4397   35.5496 H   0  0  0  0  0  0  0  0  0  0  0  0
   50.6057   37.7278   35.8788 H   0  0  0  0  0  0  0  0  0  0  0  0
   51.7582   37.0187   38.4532 H   0  0  0  0  0  0  0  0  0  0  0  0
   54.3047   35.6746   37.9197 H   0  0  0  0  0  0  0  0  0  0  0  0
   53.4692   34.1152   39.7069 H   0  0  0  0  0  0  0  0  0  0  0  0
   52.0673   35.1778   39.8494 H   0  0  0  0  0  0  0  0  0  0  0  0
   50.9086   35.4510   37.2999 H   0  0  0  0  0  0  0  0  0  0  0  0
   51.2763   33.0661   35.6169 H   0  0  0  0  0  0  0  0  0  0  0  0
   49.1760   33.5314   37.7042 H   0  0  0  0  0  0  0  0  0  0  0  0
   50.2863   32.1346   37.4838 H   0  0  0  0  0  0  0  0  0  0  0  0
   48.0039   32.7342   35.6645 H   0  0  0  0  0  0  0  0  0  0  0  0
   49.7496   30.3025   35.9392 H   0  0  0  0  0  0  0  0  0  0  0  0
   49.7961   31.4526   34.6245 H   0  0  0  0  0  0  0  0  0  0  0  0
   48.3777   30.4619   34.8688 H   0  0  0  0  0  0  0  0  0  0  0  0
   48.3030   30.7556   37.9676 H   0  0  0  0  0  0  0  0  0  0  0  0
   46.9201   30.8375   36.9028 H   0  0  0  0  0  0  0  0  0  0  0  0
   47.2623   32.1589   37.9935 H   0  0  0  0  0  0  0  0  0  0  0  0
   50.3022   33.3714   33.6305 H   0  0  0  0  0  0  0  0  0  0  0  0
   48.3261   35.5662   33.4100 H   0  0  0  0  0  0  0  0  0  0  0  0
   50.1678   34.5979   31.2625 H   0  0  0  0  0  0  0  0  0  0  0  0
   48.0813   36.8432   31.2911 H   0  0  0  0  0  0  0  0  0  0  0  0
   47.9240   35.3496   30.3980 H   0  0  0  0  0  0  0  0  0  0  0  0
   49.1602   36.5039   29.9592 H   0  0  0  0  0  0  0  0  0  0  0  0
   50.1049   37.1985   32.8397 H   0  0  0  0  0  0  0  0  0  0  0  0
   51.1877   36.8558   31.5118 H   0  0  0  0  0  0  0  0  0  0  0  0
   51.3213   35.9548   33.0029 H   0  0  0  0  0  0  0  0  0  0  0  0
   46.3427   34.6986   33.0829 H   0  0  0  0  0  0  0  0  0  0  0  0
   46.0839   32.1628   31.5706 H   0  0  0  0  0  0  0  0  0  0  0  0
   44.9567   33.4885   31.4122 H   0  0  0  0  0  0  0  0  0  0  0  0
   45.0420   32.5882   32.9073 H   0  0  0  0  0  0  0  0  0  0  0  0
  1  2  1  0  0  0  0
  1 34  1  0  0  0  0
  1 35  1  0  0  0  0
  1 36  1  0  0  0  0
  2  3  2  0  0  0  0
  4  5  1  0  0  0  0
  4  2  1  0  0  0  0
  4 37  1  0  0  0  0
  5  6  1  0  0  0  0
  5 38  1  1  0  0  0
  6  9  1  0  0  0  0
  7  6  2  0  0  0  0
  8  5  1  0  0  0  0
  8 39  1  0  0  0  0
  8 40  1  0  0  0  0
  8 41  1  0  0  0  0
  9 10  1  0  0  0  0
  9 42  1  0  0  0  0
 10 13  1  0  0  0  0
 10 43  1  6  0  0  0
 11 10  1  0  0  0  0
 12 11  2  0  0  0  0
 13 14  1  0  0  0  0
 13 44  1  0  0  0  0
 13 45  1  0  0  0  0
 14 16  1  0  0  0  0
 15 14  2  0  0  0  0
 17 11  1  0  0  0  0
 17 46  1  0  0  0  0
 18 17  1  0  0  0  0
 18 21  1  0  0  0  0
 18 47  1  6  0  0  0
 19 20  2  0  0  0  0
 19 18  1  0  0  0  0
 21 48  1  0  0  0  0
 21 49  1  0  0  0  0
 22 21  1  0  0  0  0
 22 24  1  0  0  0  0
 22 50  1  0  0  0  0
 23 22  1  0  0  0  0
 23 51  1  0  0  0  0
 23 52  1  0  0  0  0
 23 53  1  0  0  0  0
 24 54  1  0  0  0  0
 24 55  1  0  0  0  0
 24 56  1  0  0  0  0
 25 19  1  0  0  0  0
 25 57  1  0  0  0  0
 26 25  1  0  0  0  0
 26 58  1  1  0  0  0
 27 32  1  0  0  0  0
 27 26  1  0  0  0  0
 28 27  2  0  0  0  0
 29 31  1  0  0  0  0
 29 26  1  0  0  0  0
 29 59  1  0  0  0  0
 30 29  1  0  0  0  0
 30 60  1  0  0  0  0
 30 61  1  0  0  0  0
 30 62  1  0  0  0  0
 31 63  1  0  0  0  0
 31 64  1  0  0  0  0
 31 65  1  0  0  0  0
 32 66  1  0  0  0  0
 33 32  1  0  0  0  0
 33 67  1  0  0  0  0
 33 68  1  0  0  0  0
 33 69  1  0  0  0  0
M  CHG  1  16  -1
M  END
>  <MODEL>
       0

$$$$
selected_4mers/ADLV/288_noH.pdb
 OpenBabel03042517593D

 69 68  0  0  1  0  0  0  0  0999 V2000
  -39.0110  -11.6530    8.1370 C   0  0  0  0  0  0  0  0  0  0  0  0
  -37.6910  -12.2220    7.5920 C   0  0  0  0  0  0  0  0  0  0  0  0
  -37.6640  -13.3880    7.1940 O   0  0  0  0  0  0  0  0  0  0  0  0
  -36.6090  -11.4440    7.6130 N   0  0  0  0  0  0  0  0  0  0  0  0
  -35.3260  -11.9370    7.0820 C   0  0  2  0  0  0  0  0  0  0  0  0
  -34.4640  -12.6430    8.1500 C   0  0  0  0  0  0  0  0  0  0  0  0
  -34.0920  -12.0190    9.1390 O   0  0  0  0  0  0  0  0  0  0  0  0
  -34.5310  -10.7780    6.4710 C   0  0  0  0  0  0  0  0  0  0  0  0
  -34.1270  -13.9200    7.9350 N   0  0  0  0  0  0  0  0  0  0  0  0
  -33.2320  -14.6250    8.8470 C   0  0  2  0  0  0  0  0  0  0  0  0
  -31.8640  -13.9590    8.7740 C   0  0  0  0  0  0  0  0  0  0  0  0
  -31.1910  -13.7800    9.7970 O   0  0  0  0  0  0  0  0  0  0  0  0
  -33.1100  -16.0940    8.4270 C   0  0  0  0  0  0  0  0  0  0  0  0
  -34.4410  -16.8150    8.5080 C   0  0  0  0  0  0  0  0  0  0  0  0
  -34.8820  -17.0250    9.6580 O   0  0  0  0  0  0  0  0  0  0  0  0
  -35.0800  -17.1100    7.4730 O   0  0  0  0  0  0  0  0  0  0  0  0
  -31.4510  -13.6330    7.5470 N   0  0  0  0  0  0  0  0  0  0  0  0
  -30.1340  -13.0650    7.2710 C   0  0  2  0  0  0  0  0  0  0  0  0
  -30.2570  -11.7850    6.4570 C   0  0  0  0  0  0  0  0  0  0  0  0
  -31.1310  -11.6820    5.5970 O   0  0  0  0  0  0  0  0  0  0  0  0
  -29.2820  -14.0320    6.4310 C   0  0  0  0  0  0  0  0  0  0  0  0
  -28.9180  -15.3330    7.1550 C   0  0  0  0  0  0  0  0  0  0  0  0
  -28.3040  -16.2940    6.1230 C   0  0  0  0  0  0  0  0  0  0  0  0
  -27.9280  -15.0650    8.2820 C   0  0  0  0  0  0  0  0  0  0  0  0
  -29.3590  -10.8370    6.7320 N   0  0  0  0  0  0  0  0  0  0  0  0
  -29.1460   -9.6750    5.8490 C   0  0  2  0  0  0  0  0  0  0  0  0
  -27.6460   -9.5690    5.6080 C   0  0  0  0  0  0  0  0  0  0  0  0
  -26.8770  -10.3330    6.1960 O   0  0  0  0  0  0  0  0  0  0  0  0
  -29.6900   -8.3400    6.4290 C   0  0  0  0  0  0  0  0  0  0  0  0
  -31.2110   -8.3440    6.4940 C   0  0  0  0  0  0  0  0  0  0  0  0
  -29.1160   -8.1120    7.8610 C   0  0  0  0  0  0  0  0  0  0  0  0
  -27.2410   -8.6460    4.7380 N   0  0  0  0  0  0  0  0  0  0  0  0
  -25.8100   -8.4090    4.5060 C   0  0  0  0  0  0  0  0  0  0  0  0
  -39.7800  -12.3921    8.0521 H   0  0  0  0  0  0  0  0  0  0  0  0
  -39.2856  -10.7862    7.5730 H   0  0  0  0  0  0  0  0  0  0  0  0
  -38.8862  -11.3847    9.1653 H   0  0  0  0  0  0  0  0  0  0  0  0
  -36.6674  -10.5346    7.9855 H   0  0  0  0  0  0  0  0  0  0  0  0
  -35.5628  -12.6632    6.3326 H   0  0  0  0  0  0  0  0  0  0  0  0
  -34.3026  -10.0617    7.2323 H   0  0  0  0  0  0  0  0  0  0  0  0
  -35.1136  -10.3106    5.7048 H   0  0  0  0  0  0  0  0  0  0  0  0
  -33.6217  -11.1524    6.0492 H   0  0  0  0  0  0  0  0  0  0  0  0
  -34.4883  -14.3911    7.1497 H   0  0  0  0  0  0  0  0  0  0  0  0
  -33.6160  -14.5848    9.8449 H   0  0  0  0  0  0  0  0  0  0  0  0
  -32.7532  -16.1376    7.4192 H   0  0  0  0  0  0  0  0  0  0  0  0
  -32.4292  -16.5761    9.0971 H   0  0  0  0  0  0  0  0  0  0  0  0
  -32.0641  -13.7828    6.7914 H   0  0  0  0  0  0  0  0  0  0  0  0
  -29.6777  -12.8772    8.2204 H   0  0  0  0  0  0  0  0  0  0  0  0
  -29.8299  -14.2813    5.5464 H   0  0  0  0  0  0  0  0  0  0  0  0
  -28.3621  -13.5287    6.2182 H   0  0  0  0  0  0  0  0  0  0  0  0
  -29.7944  -15.7649    7.5911 H   0  0  0  0  0  0  0  0  0  0  0  0
  -27.4297  -15.8483    5.6965 H   0  0  0  0  0  0  0  0  0  0  0  0
  -29.0173  -16.4906    5.3501 H   0  0  0  0  0  0  0  0  0  0  0  0
  -28.0378  -17.2117    6.6044 H   0  0  0  0  0  0  0  0  0  0  0  0
  -27.0370  -14.6313    7.8784 H   0  0  0  0  0  0  0  0  0  0  0  0
  -27.6867  -15.9855    8.7712 H   0  0  0  0  0  0  0  0  0  0  0  0
  -28.3652  -14.3900    8.9878 H   0  0  0  0  0  0  0  0  0  0  0  0
  -28.8203  -10.9159    7.5523 H   0  0  0  0  0  0  0  0  0  0  0  0
  -29.6924   -9.8320    4.9425 H   0  0  0  0  0  0  0  0  0  0  0  0
  -29.3793   -7.5487    5.7792 H   0  0  0  0  0  0  0  0  0  0  0  0
  -31.5383   -9.1309    7.1410 H   0  0  0  0  0  0  0  0  0  0  0  0
  -31.6095   -8.4997    5.5133 H   0  0  0  0  0  0  0  0  0  0  0  0
  -31.5543   -7.4043    6.8734 H   0  0  0  0  0  0  0  0  0  0  0  0
  -29.4319   -8.9078    8.5028 H   0  0  0  0  0  0  0  0  0  0  0  0
  -29.4752   -7.1801    8.2450 H   0  0  0  0  0  0  0  0  0  0  0  0
  -28.0471   -8.0917    7.8177 H   0  0  0  0  0  0  0  0  0  0  0  0
  -27.9082   -8.1163    4.2446 H   0  0  0  0  0  0  0  0  0  0  0  0
  -25.2348   -9.0684    5.1219 H   0  0  0  0  0  0  0  0  0  0  0  0
  -25.5723   -7.3947    4.7502 H   0  0  0  0  0  0  0  0  0  0  0  0
  -25.5805   -8.5913    3.4769 H   0  0  0  0  0  0  0  0  0  0  0  0
  1 34  1  0  0  0  0
  1 35  1  0  0  0  0
  1 36  1  0  0  0  0
  2  4  1  0  0  0  0
  2  1  1  0  0  0  0
  3  2  2  0  0  0  0
  4 37  1  0  0  0  0
  5  4  1  0  0  0  0
  5  6  1  0  0  0  0
  5 38  1  6  0  0  0
  6  7  2  0  0  0  0
  8  5  1  0  0  0  0
  8 39  1  0  0  0  0
  8 40  1  0  0  0  0
  8 41  1  0  0  0  0
  9  6  1  0  0  0  0
  9 10  1  0  0  0  0
  9 42  1  0  0  0  0
 10 43  1  1  0  0  0
 11 10  1  0  0  0  0
 11 12  2  0  0  0  0
 13 14  1  0  0  0  0
 13 10  1  0  0  0  0
 13 44  1  0  0  0  0
 13 45  1  0  0  0  0
 14 15  1  0  0  0  0
 16 14  2  0  0  0  0
 17 11  1  0  0  0  0
 17 46  1  0  0  0  0
 18 17  1  0  0  0  0
 18 47  1  1  0  0  0
 19 25  1  0  0  0  0
 19 18  1  0  0  0  0
 20 19  2  0  0  0  0
 21 22  1  0  0  0  0
 21 18  1  0  0  0  0
 21 48  1  0  0  0  0
 21 49  1  0  0  0  0
 22 24  1  0  0  0  0
 22 50  1  0  0  0  0
 23 22  1  0  0  0  0
 23 51  1  0  0  0  0
 23 52  1  0  0  0  0
 23 53  1  0  0  0  0
 24 54  1  0  0  0  0
 24 55  1  0  0  0  0
 24 56  1  0  0  0  0
 25 57  1  0  0  0  0
 26 29  1  0  0  0  0
 26 25  1  0  0  0  0
 26 58  1  6  0  0  0
 27 26  1  0  0  0  0
 27 28  2  0  0  0  0
 29 30  1  0  0  0  0
 29 31  1  0  0  0  0
 29 59  1  0  0  0  0
 30 60  1  0  0  0  0
 30 61  1  0  0  0  0
 30 62  1  0  0  0  0
 31 63  1  0  0  0  0
 31 64  1  0  0  0  0
 31 65  1  0  0  0  0
 32 27  1  0  0  0  0
 32 66  1  0  0  0  0
 33 32  1  0  0  0  0
 33 67  1  0  0  0  0
 33 68  1  0  0  0  0
 33 69  1  0  0  0  0
M  CHG  1  15  -1
M  END
>  <MODEL>
       0

$$$$
selected_4mers/ADLV/289_noH.pdb
 OpenBabel03042517593D

 69 68  0  0  1  0  0  0  0  0999 V2000
  184.7850   41.2740   13.7960 C   0  0  0  0  0  0  0  0  0  0  0  0
  184.0660   42.6270   13.7470 C   0  0  0  0  0  0  0  0  0  0  0  0
  184.2030   43.3590   12.7580 O   0  0  0  0  0  0  0  0  0  0  0  0
  183.3140   42.9680   14.7850 N   0  0  0  0  0  0  0  0  0  0  0  0
  182.3740   44.0930   14.7000 C   0  0  2  0  0  0  0  0  0  0  0  0
  183.0310   45.4430   14.4890 C   0  0  0  0  0  0  0  0  0  0  0  0
  182.3960   46.3290   13.9250 O   0  0  0  0  0  0  0  0  0  0  0  0
  181.4700   44.1460   15.9540 C   0  0  0  0  0  0  0  0  0  0  0  0
  184.2690   45.6230   14.9400 N   0  0  0  0  0  0  0  0  0  0  0  0
  184.9800   46.8930   14.7340 C   0  0  2  0  0  0  0  0  0  0  0  0
  185.1710   47.2230   13.2620 C   0  0  0  0  0  0  0  0  0  0  0  0
  185.4220   48.3760   12.9260 O   0  0  0  0  0  0  0  0  0  0  0  0
  186.3480   46.9390   15.4410 C   0  0  0  0  0  0  0  0  0  0  0  0
  187.2820   45.7890   15.0480 C   0  0  0  0  0  0  0  0  0  0  0  0
  186.8050   44.6430   14.8390 O   0  0  0  0  0  0  0  0  0  0  0  0
  188.5240   45.9390   14.9510 O   0  0  0  0  0  0  0  0  0  0  0  0
  185.0500   46.2140   12.3920 N   0  0  0  0  0  0  0  0  0  0  0  0
  185.2910   46.4000   10.9520 C   0  0  2  0  0  0  0  0  0  0  0  0
  184.0180   46.4880   10.1100 C   0  0  0  0  0  0  0  0  0  0  0  0
  184.0950   46.7400    8.9130 O   0  0  0  0  0  0  0  0  0  0  0  0
  186.1710   45.2550   10.4380 C   0  0  0  0  0  0  0  0  0  0  0  0
  187.5520   45.2870   11.0940 C   0  0  0  0  0  0  0  0  0  0  0  0
  188.2670   43.9590   10.9830 C   0  0  0  0  0  0  0  0  0  0  0  0
  188.4090   46.3700   10.4880 C   0  0  0  0  0  0  0  0  0  0  0  0
  182.8600   46.2900   10.7360 N   0  0  0  0  0  0  0  0  0  0  0  0
  181.5860   46.1430   10.0370 C   0  0  2  0  0  0  0  0  0  0  0  0
  180.7610   47.4200   10.0220 C   0  0  0  0  0  0  0  0  0  0  0  0
  180.6700   48.0930   11.0350 O   0  0  0  0  0  0  0  0  0  0  0  0
  180.7670   45.0180   10.6960 C   0  0  0  0  0  0  0  0  0  0  0  0
  179.3520   44.9390   10.1270 C   0  0  0  0  0  0  0  0  0  0  0  0
  181.5070   43.6710   10.5280 C   0  0  0  0  0  0  0  0  0  0  0  0
  180.1810   47.7490    8.8640 N   0  0  0  0  0  0  0  0  0  0  0  0
  179.3100   48.9390    8.7050 C   0  0  0  0  0  0  0  0  0  0  0  0
  185.3490   41.1370   12.8971 H   0  0  0  0  0  0  0  0  0  0  0  0
  184.0630   40.4895   13.8871 H   0  0  0  0  0  0  0  0  0  0  0  0
  185.4448   41.2510   14.6380 H   0  0  0  0  0  0  0  0  0  0  0  0
  183.3871   42.4594   15.6248 H   0  0  0  0  0  0  0  0  0  0  0  0
  181.7877   43.9028   13.8254 H   0  0  0  0  0  0  0  0  0  0  0  0
  182.0705   44.3366   16.8188 H   0  0  0  0  0  0  0  0  0  0  0  0
  180.9652   43.2097   16.0696 H   0  0  0  0  0  0  0  0  0  0  0  0
  180.7489   44.9284   15.8410 H   0  0  0  0  0  0  0  0  0  0  0  0
  184.7183   44.8911   15.4214 H   0  0  0  0  0  0  0  0  0  0  0  0
  184.3452   47.6322   15.1761 H   0  0  0  0  0  0  0  0  0  0  0  0
  186.1842   46.8955   16.4975 H   0  0  0  0  0  0  0  0  0  0  0  0
  186.8260   47.8477   15.1398 H   0  0  0  0  0  0  0  0  0  0  0  0
  184.7929   45.3234   12.7237 H   0  0  0  0  0  0  0  0  0  0  0  0
  185.7805   47.3455   10.8450 H   0  0  0  0  0  0  0  0  0  0  0  0
  186.2849   45.3500    9.3783 H   0  0  0  0  0  0  0  0  0  0  0  0
  185.6991   44.3265   10.6830 H   0  0  0  0  0  0  0  0  0  0  0  0
  187.3937   45.4947   12.1316 H   0  0  0  0  0  0  0  0  0  0  0  0
  188.4363   43.7302    9.9516 H   0  0  0  0  0  0  0  0  0  0  0  0
  187.6654   43.1921   11.4244 H   0  0  0  0  0  0  0  0  0  0  0  0
  189.2051   44.0152   11.4945 H   0  0  0  0  0  0  0  0  0  0  0  0
  188.5667   46.1614    9.4504 H   0  0  0  0  0  0  0  0  0  0  0  0
  189.3520   46.4028   10.9925 H   0  0  0  0  0  0  0  0  0  0  0  0
  187.9163   47.3142   10.5911 H   0  0  0  0  0  0  0  0  0  0  0  0
  182.8624   46.2402   11.7192 H   0  0  0  0  0  0  0  0  0  0  0  0
  181.8156   45.9048    9.0194 H   0  0  0  0  0  0  0  0  0  0  0  0
  180.6707   45.2385   11.7386 H   0  0  0  0  0  0  0  0  0  0  0  0
  179.4000   44.7191    9.0809 H   0  0  0  0  0  0  0  0  0  0  0  0
  178.8564   45.8761   10.2721 H   0  0  0  0  0  0  0  0  0  0  0  0
  178.8082   44.1664   10.6293 H   0  0  0  0  0  0  0  0  0  0  0  0
  181.6059   43.4459    9.4866 H   0  0  0  0  0  0  0  0  0  0  0  0
  180.9491   42.8951   11.0092 H   0  0  0  0  0  0  0  0  0  0  0  0
  182.4782   43.7398   10.9718 H   0  0  0  0  0  0  0  0  0  0  0  0
  180.3391   47.1749    8.0800 H   0  0  0  0  0  0  0  0  0  0  0  0
  179.2375   49.4554    9.6394 H   0  0  0  0  0  0  0  0  0  0  0  0
  178.3349   48.6282    8.3927 H   0  0  0  0  0  0  0  0  0  0  0  0
  179.7292   49.5919    7.9682 H   0  0  0  0  0  0  0  0  0  0  0  0
  1 34  1  0  0  0  0
  1 35  1  0  0  0  0
  1 36  1  0  0  0  0
  2  1  1  0  0  0  0
  2  4  1  0  0  0  0
  3  2  2  0  0  0  0
  4 37  1  0  0  0  0
  5  4  1  0  0  0  0
  5  8  1  0  0  0  0
  5 38  1  6  0  0  0
  6  5  1  0  0  0  0
  6  9  1  0  0  0  0
  7  6  2  0  0  0  0
  8 39  1  0  0  0  0
  8 40  1  0  0  0  0
  8 41  1  0  0  0  0
  9 42  1  0  0  0  0
 10  9  1  0  0  0  0
 10 13  1  0  0  0  0
 10 43  1  1  0  0  0
 11 10  1  0  0  0  0
 12 11  2  0  0  0  0
 13 44  1  0  0  0  0
 13 45  1  0  0  0  0
 14 13  1  0  0  0  0
 15 14  2  0  0  0  0
 16 14  1  0  0  0  0
 17 11  1  0  0  0  0
 17 46  1  0  0  0  0
 18 17  1  0  0  0  0
 18 47  1  6  0  0  0
 19 25  1  0  0  0  0
 19 18  1  0  0  0  0
 20 19  2  0  0  0  0
 21 18  1  0  0  0  0
 21 22  1  0  0  0  0
 21 48  1  0  0  0  0
 21 49  1  0  0  0  0
 22 50  1  0  0  0  0
 23 22  1  0  0  0  0
 23 51  1  0  0  0  0
 23 52  1  0  0  0  0
 23 53  1  0  0  0  0
 24 22  1  0  0  0  0
 24 54  1  0  0  0  0
 24 55  1  0  0  0  0
 24 56  1  0  0  0  0
 25 57  1  0  0  0  0
 26 29  1  0  0  0  0
 26 25  1  0  0  0  0
 26 58  1  6  0  0  0
 27 26  1  0  0  0  0
 27 28  2  0  0  0  0
 29 59  1  0  0  0  0
 30 29  1  0  0  0  0
 30 60  1  0  0  0  0
 30 61  1  0  0  0  0
 30 62  1  0  0  0  0
 31 29  1  0  0  0  0
 31 63  1  0  0  0  0
 31 64  1  0  0  0  0
 31 65  1  0  0  0  0
 32 27  1  0  0  0  0
 32 66  1  0  0  0  0
 33 32  1  0  0  0  0
 33 67  1  0  0  0  0
 33 68  1  0  0  0  0
 33 69  1  0  0  0  0
M  CHG  1  16  -1
M  END
>  <MODEL>
       0

$$$$
