selected_4mers/ADVV/460_noH.pdb
 OpenBabel03042517593D

 66 65  0  0  1  0  0  0  0  0999 V2000
  -11.6190    1.2880    4.8350 C   0  0  0  0  0  0  0  0  0  0  0  0
  -11.4040   -0.0280    4.0680 C   0  0  0  0  0  0  0  0  0  0  0  0
  -10.5350   -0.1160    3.2010 O   0  0  0  0  0  0  0  0  0  0  0  0
  -12.1720   -1.0570    4.4030 N   0  0  0  0  0  0  0  0  0  0  0  0
  -12.0530   -2.3500    3.7590 C   0  0  2  0  0  0  0  0  0  0  0  0
  -12.7320   -2.3350    2.3930 C   0  0  0  0  0  0  0  0  0  0  0  0
  -13.6860   -1.6090    2.1700 O   0  0  0  0  0  0  0  0  0  0  0  0
  -12.6860   -3.4230    4.6150 C   0  0  0  0  0  0  0  0  0  0  0  0
  -12.2250   -3.1460    1.4870 N   0  0  0  0  0  0  0  0  0  0  0  0
  -12.8140   -3.2620    0.1540 C   0  0  2  0  0  0  0  0  0  0  0  0
  -13.7090   -4.4760    0.1290 C   0  0  0  0  0  0  0  0  0  0  0  0
  -14.7500   -4.4680   -0.5270 O   0  0  0  0  0  0  0  0  0  0  0  0
  -11.7140   -3.4010   -0.8940 C   0  0  0  0  0  0  0  0  0  0  0  0
  -10.9070   -2.1160   -1.0380 C   0  0  0  0  0  0  0  0  0  0  0  0
  -11.5330   -1.1030   -1.4040 O   0  0  0  0  0  0  0  0  0  0  0  0
   -9.6820   -2.1070   -0.7820 O   0  0  0  0  0  0  0  0  0  0  0  0
  -13.2970   -5.5200    0.8480 N   0  0  0  0  0  0  0  0  0  0  0  0
  -14.0530   -6.7610    0.9340 C   0  0  2  0  0  0  0  0  0  0  0  0
  -14.1800   -7.1430    2.4100 C   0  0  0  0  0  0  0  0  0  0  0  0
  -13.2240   -6.9920    3.1520 O   0  0  0  0  0  0  0  0  0  0  0  0
  -13.3260   -7.9180    0.2030 C   0  0  0  0  0  0  0  0  0  0  0  0
  -14.1010   -9.2520    0.4250 C   0  0  0  0  0  0  0  0  0  0  0  0
  -13.1810   -7.5820   -1.3080 C   0  0  0  0  0  0  0  0  0  0  0  0
  -15.3570   -7.5960    2.8400 N   0  0  0  0  0  0  0  0  0  0  0  0
  -15.4860   -8.0170    4.2370 C   0  0  2  0  0  0  0  0  0  0  0  0
  -15.9080   -9.4740    4.2390 C   0  0  0  0  0  0  0  0  0  0  0  0
  -16.8650   -9.8410    3.5630 O   0  0  0  0  0  0  0  0  0  0  0  0
  -16.5320   -7.1940    5.0100 C   0  0  0  0  0  0  0  0  0  0  0  0
  -16.5290   -7.6250    6.4750 C   0  0  0  0  0  0  0  0  0  0  0  0
  -16.2030   -5.6880    4.8820 C   0  0  0  0  0  0  0  0  0  0  0  0
  -15.1740  -10.3130    4.9690 N   0  0  0  0  0  0  0  0  0  0  0  0
  -15.5210  -11.7170    5.0540 C   0  0  0  0  0  0  0  0  0  0  0  0
  -10.9402    2.0295    4.4684 H   0  0  0  0  0  0  0  0  0  0  0  0
  -11.4414    1.1262    5.8777 H   0  0  0  0  0  0  0  0  0  0  0  0
  -12.6249    1.6237    4.6924 H   0  0  0  0  0  0  0  0  0  0  0  0
  -12.8445   -0.9383    5.1121 H   0  0  0  0  0  0  0  0  0  0  0  0
  -11.0118   -2.5614    3.6322 H   0  0  0  0  0  0  0  0  0  0  0  0
  -13.7271   -3.2106    4.7411 H   0  0  0  0  0  0  0  0  0  0  0  0
  -12.2078   -3.4441    5.5720 H   0  0  0  0  0  0  0  0  0  0  0  0
  -12.5712   -4.3738    4.1379 H   0  0  0  0  0  0  0  0  0  0  0  0
  -11.4328   -3.6853    1.7124 H   0  0  0  0  0  0  0  0  0  0  0  0
  -13.3841   -2.3846   -0.0698 H   0  0  0  0  0  0  0  0  0  0  0  0
  -11.0560   -4.1930   -0.6031 H   0  0  0  0  0  0  0  0  0  0  0  0
  -12.1755   -3.6124   -1.8359 H   0  0  0  0  0  0  0  0  0  0  0  0
  -12.4475   -5.4490    1.3405 H   0  0  0  0  0  0  0  0  0  0  0  0
  -15.0082   -6.6093    0.4762 H   0  0  0  0  0  0  0  0  0  0  0  0
  -12.3422   -8.0384    0.6061 H   0  0  0  0  0  0  0  0  0  0  0  0
  -15.0911   -9.1593    0.0300 H   0  0  0  0  0  0  0  0  0  0  0  0
  -14.1533   -9.4641    1.4725 H   0  0  0  0  0  0  0  0  0  0  0  0
  -13.5906  -10.0485   -0.0751 H   0  0  0  0  0  0  0  0  0  0  0  0
  -14.1517   -7.4555   -1.7400 H   0  0  0  0  0  0  0  0  0  0  0  0
  -12.6714   -8.3816   -1.8039 H   0  0  0  0  0  0  0  0  0  0  0  0
  -12.6201   -6.6777   -1.4201 H   0  0  0  0  0  0  0  0  0  0  0  0
  -16.1272   -7.6469    2.2289 H   0  0  0  0  0  0  0  0  0  0  0  0
  -14.5451   -7.8673    4.7240 H   0  0  0  0  0  0  0  0  0  0  0  0
  -17.5064   -7.3647    4.6021 H   0  0  0  0  0  0  0  0  0  0  0  0
  -15.5585   -7.4586    6.8937 H   0  0  0  0  0  0  0  0  0  0  0  0
  -16.7726   -8.6648    6.5414 H   0  0  0  0  0  0  0  0  0  0  0  0
  -17.2538   -7.0536    7.0164 H   0  0  0  0  0  0  0  0  0  0  0  0
  -15.2302   -5.4998    5.2860 H   0  0  0  0  0  0  0  0  0  0  0  0
  -16.9297   -5.1171    5.4213 H   0  0  0  0  0  0  0  0  0  0  0  0
  -16.2215   -5.4053    3.8502 H   0  0  0  0  0  0  0  0  0  0  0  0
  -14.3877   -9.9753    5.4557 H   0  0  0  0  0  0  0  0  0  0  0  0
  -16.3960  -11.9043    4.4674 H   0  0  0  0  0  0  0  0  0  0  0  0
  -15.7135  -11.9757    6.0743 H   0  0  0  0  0  0  0  0  0  0  0  0
  -14.7098  -12.3080    4.6831 H   0  0  0  0  0  0  0  0  0  0  0  0
  1 33  1  0  0  0  0
  1 34  1  0  0  0  0
  1 35  1  0  0  0  0
  2  4  1  0  0  0  0
  2  1  1  0  0  0  0
  3  2  2  0  0  0  0
  4 36  1  0  0  0  0
  5  4  1  0  0  0  0
  5  8  1  0  0  0  0
  5 37  1  6  0  0  0
  6  5  1  0  0  0  0
  7  6  2  0  0  0  0
  8 38  1  0  0  0  0
  8 39  1  0  0  0  0
  8 40  1  0  0  0  0
  9  6  1  0  0  0  0
  9 41  1  0  0  0  0
 10  9  1  0  0  0  0
 10 42  1  6  0  0  0
 11 10  1  0  0  0  0
 11 17  1  0  0  0  0
 12 11  2  0  0  0  0
 13 10  1  0  0  0  0
 13 43  1  0  0  0  0
 13 44  1  0  0  0  0
 14 13  1  0  0  0  0
 14 16  1  0  0  0  0
 15 14  2  0  0  0  0
 17 18  1  0  0  0  0
 17 45  1  0  0  0  0
 18 19  1  0  0  0  0
 18 46  1  6  0  0  0
 19 24  1  0  0  0  0
 19 20  2  0  0  0  0
 21 22  1  0  0  0  0
 21 18  1  0  0  0  0
 21 47  1  0  0  0  0
 22 48  1  0  0  0  0
 22 49  1  0  0  0  0
 22 50  1  0  0  0  0
 23 21  1  0  0  0  0
 23 51  1  0  0  0  0
 23 52  1  0  0  0  0
 23 53  1  0  0  0  0
 24 25  1  0  0  0  0
 24 54  1  0  0  0  0
 25 26  1  0  0  0  0
 25 28  1  0  0  0  0
 25 55  1  1  0  0  0
 26 31  1  0  0  0  0
 27 26  2  0  0  0  0
 28 29  1  0  0  0  0
 28 56  1  0  0  0  0
 29 57  1  0  0  0  0
 29 58  1  0  0  0  0
 29 59  1  0  0  0  0
 30 28  1  0  0  0  0
 30 60  1  0  0  0  0
 30 61  1  0  0  0  0
 30 62  1  0  0  0  0
 31 32  1  0  0  0  0
 31 63  1  0  0  0  0
 32 64  1  0  0  0  0
 32 65  1  0  0  0  0
 32 66  1  0  0  0  0
M  CHG  1  16  -1
M  END
>  <MODEL>
       0

$$$$
selected_4mers/ADVV/461_noH.pdb
 OpenBabel03042517593D

 66 65  0  0  1  0  0  0  0  0999 V2000
    6.7910   -3.7230    2.8390 C   0  0  0  0  0  0  0  0  0  0  0  0
    7.4210   -5.0240    2.3290 C   0  0  0  0  0  0  0  0  0  0  0  0
    8.1790   -5.6760    3.0330 O   0  0  0  0  0  0  0  0  0  0  0  0
    7.1030   -5.3970    1.0980 N   0  0  0  0  0  0  0  0  0  0  0  0
    7.7380   -6.5920    0.5160 C   0  0  2  0  0  0  0  0  0  0  0  0
    9.1590   -6.2590    0.0770 C   0  0  0  0  0  0  0  0  0  0  0  0
    9.4530   -5.1340   -0.3420 O   0  0  0  0  0  0  0  0  0  0  0  0
    6.9270   -7.1130   -0.6690 C   0  0  0  0  0  0  0  0  0  0  0  0
   10.0530   -7.2360    0.1620 N   0  0  0  0  0  0  0  0  0  0  0  0
   11.3640   -7.0390   -0.4410 C   0  0  2  0  0  0  0  0  0  0  0  0
   11.1620   -7.0890   -1.9450 C   0  0  0  0  0  0  0  0  0  0  0  0
   10.5120   -8.0000   -2.4590 O   0  0  0  0  0  0  0  0  0  0  0  0
   12.3300   -8.1440   -0.0550 C   0  0  0  0  0  0  0  0  0  0  0  0
   12.7930   -8.0430    1.3800 C   0  0  0  0  0  0  0  0  0  0  0  0
   12.7530   -6.9450    1.9830 O   0  0  0  0  0  0  0  0  0  0  0  0
   13.2020   -9.0870    1.9100 O   0  0  0  0  0  0  0  0  0  0  0  0
   11.6680   -6.0870   -2.6440 N   0  0  0  0  0  0  0  0  0  0  0  0
   11.4630   -6.0060   -4.0910 C   0  0  2  0  0  0  0  0  0  0  0  0
   12.7970   -6.2900   -4.7550 C   0  0  0  0  0  0  0  0  0  0  0  0
   13.8190   -5.7030   -4.3770 O   0  0  0  0  0  0  0  0  0  0  0  0
   10.9950   -4.5940   -4.5060 C   0  0  0  0  0  0  0  0  0  0  0  0
   10.9910   -4.4620   -6.0450 C   0  0  0  0  0  0  0  0  0  0  0  0
    9.6130   -4.3210   -3.9480 C   0  0  0  0  0  0  0  0  0  0  0  0
   12.8030   -7.2030   -5.7250 N   0  0  0  0  0  0  0  0  0  0  0  0
   14.0190   -7.5030   -6.4770 C   0  0  2  0  0  0  0  0  0  0  0  0
   13.7180   -7.1860   -7.9300 C   0  0  0  0  0  0  0  0  0  0  0  0
   12.8420   -7.7820   -8.5530 O   0  0  0  0  0  0  0  0  0  0  0  0
   14.4900   -8.9700   -6.3120 C   0  0  0  0  0  0  0  0  0  0  0  0
   15.7970   -9.1920   -7.0750 C   0  0  0  0  0  0  0  0  0  0  0  0
   14.6830   -9.2870   -4.8270 C   0  0  0  0  0  0  0  0  0  0  0  0
   14.4320   -6.1950   -8.4410 N   0  0  0  0  0  0  0  0  0  0  0  0
   14.2130   -5.7510   -9.8120 C   0  0  0  0  0  0  0  0  0  0  0  0
    6.1641   -3.3079    2.0777 H   0  0  0  0  0  0  0  0  0  0  0  0
    7.5638   -3.0249    3.0846 H   0  0  0  0  0  0  0  0  0  0  0  0
    6.2054   -3.9281    3.7107 H   0  0  0  0  0  0  0  0  0  0  0  0
    6.4476   -4.8796    0.5765 H   0  0  0  0  0  0  0  0  0  0  0  0
    7.7710   -7.3593    1.2611 H   0  0  0  0  0  0  0  0  0  0  0  0
    6.8808   -6.3603   -1.4281 H   0  0  0  0  0  0  0  0  0  0  0  0
    5.9362   -7.3539   -0.3447 H   0  0  0  0  0  0  0  0  0  0  0  0
    7.3960   -7.9898   -1.0643 H   0  0  0  0  0  0  0  0  0  0  0  0
    9.8343   -8.0776    0.6237 H   0  0  0  0  0  0  0  0  0  0  0  0
   11.7754   -6.1095   -0.1069 H   0  0  0  0  0  0  0  0  0  0  0  0
   13.1858   -8.0888   -0.6949 H   0  0  0  0  0  0  0  0  0  0  0  0
   11.8135   -9.0750   -0.1619 H   0  0  0  0  0  0  0  0  0  0  0  0
   12.1883   -5.3878   -2.1861 H   0  0  0  0  0  0  0  0  0  0  0  0
   10.7128   -6.7094   -4.3865 H   0  0  0  0  0  0  0  0  0  0  0  0
   11.6758   -3.8719   -4.1060 H   0  0  0  0  0  0  0  0  0  0  0  0
   10.3143   -5.1779   -6.4626 H   0  0  0  0  0  0  0  0  0  0  0  0
   11.9766   -4.6413   -6.4209 H   0  0  0  0  0  0  0  0  0  0  0  0
   10.6793   -3.4753   -6.3175 H   0  0  0  0  0  0  0  0  0  0  0  0
    8.9219   -5.0372   -4.3408 H   0  0  0  0  0  0  0  0  0  0  0  0
    9.3035   -3.3358   -4.2281 H   0  0  0  0  0  0  0  0  0  0  0  0
    9.6377   -4.3972   -2.8810 H   0  0  0  0  0  0  0  0  0  0  0  0
   11.9717   -7.6850   -5.9393 H   0  0  0  0  0  0  0  0  0  0  0  0
   14.8276   -6.9106   -6.1028 H   0  0  0  0  0  0  0  0  0  0  0  0
   13.7450   -9.6246   -6.7137 H   0  0  0  0  0  0  0  0  0  0  0  0
   16.5528   -8.5434   -6.6840 H   0  0  0  0  0  0  0  0  0  0  0  0
   15.6452   -8.9781   -8.1123 H   0  0  0  0  0  0  0  0  0  0  0  0
   16.1073  -10.2098   -6.9624 H   0  0  0  0  0  0  0  0  0  0  0  0
   15.4270   -8.6363   -4.4172 H   0  0  0  0  0  0  0  0  0  0  0  0
   14.9986  -10.3035   -4.7174 H   0  0  0  0  0  0  0  0  0  0  0  0
   13.7583   -9.1428   -4.3084 H   0  0  0  0  0  0  0  0  0  0  0  0
   15.1177   -5.7536   -7.8895 H   0  0  0  0  0  0  0  0  0  0  0  0
   13.4371   -6.3380  -10.2574 H   0  0  0  0  0  0  0  0  0  0  0  0
   15.1162   -5.8686  -10.3736 H   0  0  0  0  0  0  0  0  0  0  0  0
   13.9250   -4.7205   -9.8115 H   0  0  0  0  0  0  0  0  0  0  0  0
  1 33  1  0  0  0  0
  1 34  1  0  0  0  0
  1 35  1  0  0  0  0
  2  1  1  0  0  0  0
  2  3  2  0  0  0  0
  4  2  1  0  0  0  0
  4 36  1  0  0  0  0
  5  4  1  0  0  0  0
  5 37  1  1  0  0  0
  6  9  1  0  0  0  0
  6  5  1  0  0  0  0
  7  6  2  0  0  0  0
  8  5  1  0  0  0  0
  8 38  1  0  0  0  0
  8 39  1  0  0  0  0
  8 40  1  0  0  0  0
  9 41  1  0  0  0  0
 10 13  1  0  0  0  0
 10  9  1  0  0  0  0
 10 42  1  1  0  0  0
 11 10  1  0  0  0  0
 12 11  2  0  0  0  0
 13 14  1  0  0  0  0
 13 43  1  0  0  0  0
 13 44  1  0  0  0  0
 14 16  2  0  0  0  0
 14 15  1  0  0  0  0
 17 11  1  0  0  0  0
 17 45  1  0  0  0  0
 18 17  1  0  0  0  0
 18 46  1  6  0  0  0
 19 20  2  0  0  0  0
 19 18  1  0  0  0  0
 21 18  1  0  0  0  0
 21 23  1  0  0  0  0
 21 47  1  0  0  0  0
 22 21  1  0  0  0  0
 22 48  1  0  0  0  0
 22 49  1  0  0  0  0
 22 50  1  0  0  0  0
 23 51  1  0  0  0  0
 23 52  1  0  0  0  0
 23 53  1  0  0  0  0
 24 19  1  0  0  0  0
 24 54  1  0  0  0  0
 25 28  1  0  0  0  0
 25 24  1  0  0  0  0
 25 55  1  1  0  0  0
 26 25  1  0  0  0  0
 27 26  2  0  0  0  0
 28 30  1  0  0  0  0
 28 56  1  0  0  0  0
 29 28  1  0  0  0  0
 29 57  1  0  0  0  0
 29 58  1  0  0  0  0
 29 59  1  0  0  0  0
 30 60  1  0  0  0  0
 30 61  1  0  0  0  0
 30 62  1  0  0  0  0
 31 26  1  0  0  0  0
 31 63  1  0  0  0  0
 32 31  1  0  0  0  0
 32 64  1  0  0  0  0
 32 65  1  0  0  0  0
 32 66  1  0  0  0  0
M  CHG  1  15  -1
M  END
>  <MODEL>
       0

$$$$
selected_4mers/ADVV/462_noH.pdb
 OpenBabel03042517593D

 66 65  0  0  1  0  0  0  0  0999 V2000
   41.7670   14.0840   21.4990 C   0  0  0  0  0  0  0  0  0  0  0  0
   41.5620   13.2520   20.2270 C   0  0  0  0  0  0  0  0  0  0  0  0
   41.0290   12.1560   20.2960 O   0  0  0  0  0  0  0  0  0  0  0  0
   41.9550   13.7680   19.0660 N   0  0  0  0  0  0  0  0  0  0  0  0
   41.6960   13.0620   17.8020 C   0  0  2  0  0  0  0  0  0  0  0  0
   42.2570   11.6360   17.7760 C   0  0  0  0  0  0  0  0  0  0  0  0
   41.6200   10.7280   17.2690 O   0  0  0  0  0  0  0  0  0  0  0  0
   42.2300   13.8570   16.6230 C   0  0  0  0  0  0  0  0  0  0  0  0
   43.4510   11.4300   18.3210 N   0  0  0  0  0  0  0  0  0  0  0  0
   44.0530   10.0940   18.3300 C   0  0  2  0  0  0  0  0  0  0  0  0
   43.2670    9.1410   19.2190 C   0  0  0  0  0  0  0  0  0  0  0  0
   43.0740    7.9890   18.8580 O   0  0  0  0  0  0  0  0  0  0  0  0
   45.5050   10.1450   18.8110 C   0  0  0  0  0  0  0  0  0  0  0  0
   46.4860   10.5120   17.7200 C   0  0  0  0  0  0  0  0  0  0  0  0
   46.1240   10.5710   16.5250 O   0  0  0  0  0  0  0  0  0  0  0  0
   47.6850   10.7200   17.9920 O   0  0  0  0  0  0  0  0  0  0  0  0
   42.8050    9.6160   20.3730 N   0  0  0  0  0  0  0  0  0  0  0  0
   41.9850    8.7690   21.2430 C   0  0  2  0  0  0  0  0  0  0  0  0
   40.6510    8.4390   20.5530 C   0  0  0  0  0  0  0  0  0  0  0  0
   40.1930    7.3050   20.5820 O   0  0  0  0  0  0  0  0  0  0  0  0
   41.7930    9.3530   22.6630 C   0  0  0  0  0  0  0  0  0  0  0  0
   41.2070   10.7020   22.6620 C   0  0  0  0  0  0  0  0  0  0  0  0
   40.9410    8.4610   23.5150 C   0  0  0  0  0  0  0  0  0  0  0  0
   40.0330    9.4160   19.8990 N   0  0  0  0  0  0  0  0  0  0  0  0
   38.7930    9.1390   19.1680 C   0  0  2  0  0  0  0  0  0  0  0  0
   39.0410    8.0740   18.0940 C   0  0  0  0  0  0  0  0  0  0  0  0
   38.3030    7.0880   17.9720 O   0  0  0  0  0  0  0  0  0  0  0  0
   38.2190   10.4290   18.5270 C   0  0  0  0  0  0  0  0  0  0  0  0
   37.0800   10.1080   17.5660 C   0  0  0  0  0  0  0  0  0  0  0  0
   37.7430   11.3870   19.5960 C   0  0  0  0  0  0  0  0  0  0  0  0
   40.0730    8.2800   17.2980 N   0  0  0  0  0  0  0  0  0  0  0  0
   40.4240    7.3310   16.2440 C   0  0  0  0  0  0  0  0  0  0  0  0
   42.2453   15.0076   21.2478 H   0  0  0  0  0  0  0  0  0  0  0  0
   42.3808   13.5398   22.1861 H   0  0  0  0  0  0  0  0  0  0  0  0
   40.8180   14.2850   21.9505 H   0  0  0  0  0  0  0  0  0  0  0  0
   42.4250   14.6330   19.0525 H   0  0  0  0  0  0  0  0  0  0  0  0
   40.6324   12.9752   17.7232 H   0  0  0  0  0  0  0  0  0  0  0  0
   43.2935   13.9430   16.7032 H   0  0  0  0  0  0  0  0  0  0  0  0
   41.7922   14.8333   16.6235 H   0  0  0  0  0  0  0  0  0  0  0  0
   41.9805   13.3547   15.7118 H   0  0  0  0  0  0  0  0  0  0  0  0
   43.9377   12.1849   18.7241 H   0  0  0  0  0  0  0  0  0  0  0  0
   44.0287    9.7340   17.3227 H   0  0  0  0  0  0  0  0  0  0  0  0
   45.5783   10.8727   19.5920 H   0  0  0  0  0  0  0  0  0  0  0  0
   45.7608    9.1625   19.1487 H   0  0  0  0  0  0  0  0  0  0  0  0
   43.0148   10.5392   20.6430 H   0  0  0  0  0  0  0  0  0  0  0  0
   42.5183    7.8543   21.3971 H   0  0  0  0  0  0  0  0  0  0  0  0
   42.7793    9.4176   23.0727 H   0  0  0  0  0  0  0  0  0  0  0  0
   40.2181   10.6610   22.2554 H   0  0  0  0  0  0  0  0  0  0  0  0
   41.8113   11.3529   22.0653 H   0  0  0  0  0  0  0  0  0  0  0  0
   41.1653   11.0735   23.6646 H   0  0  0  0  0  0  0  0  0  0  0  0
   39.9574    8.4025   23.0978 H   0  0  0  0  0  0  0  0  0  0  0  0
   40.8850    8.8613   24.5057 H   0  0  0  0  0  0  0  0  0  0  0  0
   41.3725    7.4825   23.5496 H   0  0  0  0  0  0  0  0  0  0  0  0
   40.4078   10.3263   19.9052 H   0  0  0  0  0  0  0  0  0  0  0  0
   38.0705    8.7695   19.8654 H   0  0  0  0  0  0  0  0  0  0  0  0
   39.0055   10.8940   17.9701 H   0  0  0  0  0  0  0  0  0  0  0  0
   36.2810    9.6412   18.1032 H   0  0  0  0  0  0  0  0  0  0  0  0
   37.4326    9.4449   16.8038 H   0  0  0  0  0  0  0  0  0  0  0  0
   36.7270   11.0125   17.1165 H   0  0  0  0  0  0  0  0  0  0  0  0
   36.9557   10.9307   20.1589 H   0  0  0  0  0  0  0  0  0  0  0  0
   37.3801   12.2825   19.1364 H   0  0  0  0  0  0  0  0  0  0  0  0
   38.5564   11.6256   20.2490 H   0  0  0  0  0  0  0  0  0  0  0  0
   40.6184    9.0909   17.4169 H   0  0  0  0  0  0  0  0  0  0  0  0
   39.7331    6.5141   16.2550 H   0  0  0  0  0  0  0  0  0  0  0  0
   41.4146    6.9626   16.4112 H   0  0  0  0  0  0  0  0  0  0  0  0
   40.3814    7.8213   15.2939 H   0  0  0  0  0  0  0  0  0  0  0  0
  1 33  1  0  0  0  0
  1 34  1  0  0  0  0
  1 35  1  0  0  0  0
  2  3  2  0  0  0  0
  2  1  1  0  0  0  0
  4  2  1  0  0  0  0
  4 36  1  0  0  0  0
  5  4  1  0  0  0  0
  5 37  1  6  0  0  0
  6  5  1  0  0  0  0
  6  9  1  0  0  0  0
  7  6  2  0  0  0  0
  8  5  1  0  0  0  0
  8 38  1  0  0  0  0
  8 39  1  0  0  0  0
  8 40  1  0  0  0  0
  9 10  1  0  0  0  0
  9 41  1  0  0  0  0
 10 13  1  0  0  0  0
 10 11  1  0  0  0  0
 10 42  1  6  0  0  0
 11 17  1  0  0  0  0
 12 11  2  0  0  0  0
 13 43  1  0  0  0  0
 13 44  1  0  0  0  0
 14 16  1  0  0  0  0
 14 13  1  0  0  0  0
 15 14  2  0  0  0  0
 17 18  1  0  0  0  0
 17 45  1  0  0  0  0
 18 21  1  0  0  0  0
 18 46  1  1  0  0  0
 19 20  2  0  0  0  0
 19 18  1  0  0  0  0
 21 23  1  0  0  0  0
 21 47  1  0  0  0  0
 22 21  1  0  0  0  0
 22 48  1  0  0  0  0
 22 49  1  0  0  0  0
 22 50  1  0  0  0  0
 23 51  1  0  0  0  0
 23 52  1  0  0  0  0
 23 53  1  0  0  0  0
 24 19  1  0  0  0  0
 24 54  1  0  0  0  0
 25 24  1  0  0  0  0
 25 55  1  1  0  0  0
 26 25  1  0  0  0  0
 27 26  2  0  0  0  0
 28 25  1  0  0  0  0
 28 30  1  0  0  0  0
 28 56  1  0  0  0  0
 29 28  1  0  0  0  0
 29 57  1  0  0  0  0
 29 58  1  0  0  0  0
 29 59  1  0  0  0  0
 30 60  1  0  0  0  0
 30 61  1  0  0  0  0
 30 62  1  0  0  0  0
 31 26  1  0  0  0  0
 31 63  1  0  0  0  0
 32 31  1  0  0  0  0
 32 64  1  0  0  0  0
 32 65  1  0  0  0  0
 32 66  1  0  0  0  0
M  CHG  1  16  -1
M  END
>  <MODEL>
       0

$$$$
selected_4mers/ADVV/463_noH.pdb
 OpenBabel03042517593D

 66 65  0  0  1  0  0  0  0  0999 V2000
   33.7060   30.2240   44.9590 C   0  0  0  0  0  0  0  0  0  0  0  0
   33.1390   28.9350   44.3490 C   0  0  0  0  0  0  0  0  0  0  0  0
   33.4310   27.8150   44.7800 O   0  0  0  0  0  0  0  0  0  0  0  0
   32.3220   29.0690   43.2940 N   0  0  0  0  0  0  0  0  0  0  0  0
   31.6810   27.9080   42.6960 C   0  0  2  0  0  0  0  0  0  0  0  0
   32.5650   27.0030   41.8510 C   0  0  0  0  0  0  0  0  0  0  0  0
   33.5410   27.4560   41.2580 O   0  0  0  0  0  0  0  0  0  0  0  0
   30.5570   28.3910   41.7550 C   0  0  0  0  0  0  0  0  0  0  0  0
   32.1700   25.7330   41.7370 N   0  0  0  0  0  0  0  0  0  0  0  0
   32.8140   24.8150   40.7990 C   0  0  2  0  0  0  0  0  0  0  0  0
   32.2620   25.2010   39.4150 C   0  0  0  0  0  0  0  0  0  0  0  0
   31.0430   25.3930   39.3020 O   0  0  0  0  0  0  0  0  0  0  0  0
   32.4320   23.3650   41.0750 C   0  0  0  0  0  0  0  0  0  0  0  0
   33.1420   22.6930   42.2260 C   0  0  0  0  0  0  0  0  0  0  0  0
   34.1640   23.2140   42.7180 O   0  0  0  0  0  0  0  0  0  0  0  0
   32.6520   21.6030   42.6110 O   0  0  0  0  0  0  0  0  0  0  0  0
   33.0770   25.3710   38.3980 N   0  0  0  0  0  0  0  0  0  0  0  0
   32.6440   25.7190   37.0450 C   0  0  2  0  0  0  0  0  0  0  0  0
   32.8180   24.5090   36.1300 C   0  0  0  0  0  0  0  0  0  0  0  0
   33.9270   23.9700   36.0030 O   0  0  0  0  0  0  0  0  0  0  0  0
   33.4180   26.9280   36.4790 C   0  0  0  0  0  0  0  0  0  0  0  0
   32.9840   27.2800   35.0580 C   0  0  0  0  0  0  0  0  0  0  0  0
   33.2560   28.1570   37.3690 C   0  0  0  0  0  0  0  0  0  0  0  0
   31.7260   24.0540   35.5300 N   0  0  0  0  0  0  0  0  0  0  0  0
   31.6820   22.9120   34.6090 C   0  0  2  0  0  0  0  0  0  0  0  0
   31.3330   23.4720   33.2330 C   0  0  0  0  0  0  0  0  0  0  0  0
   30.2630   24.0890   33.0790 O   0  0  0  0  0  0  0  0  0  0  0  0
   30.6200   21.8930   35.0790 C   0  0  0  0  0  0  0  0  0  0  0  0
   30.5120   20.7500   34.0850 C   0  0  0  0  0  0  0  0  0  0  0  0
   30.9260   21.4020   36.4900 C   0  0  0  0  0  0  0  0  0  0  0  0
   32.1940   23.2930   32.2320 N   0  0  0  0  0  0  0  0  0  0  0  0
   31.9970   23.9020   30.9210 C   0  0  0  0  0  0  0  0  0  0  0  0
   33.3189   31.0694   44.4296 H   0  0  0  0  0  0  0  0  0  0  0  0
   34.7733   30.2145   44.8843 H   0  0  0  0  0  0  0  0  0  0  0  0
   33.4210   30.2868   45.9884 H   0  0  0  0  0  0  0  0  0  0  0  0
   32.1540   29.9639   42.9197 H   0  0  0  0  0  0  0  0  0  0  0  0
   31.3539   27.3326   43.5367 H   0  0  0  0  0  0  0  0  0  0  0  0
   30.9825   28.9538   40.9506 H   0  0  0  0  0  0  0  0  0  0  0  0
   29.8755   29.0091   42.3013 H   0  0  0  0  0  0  0  0  0  0  0  0
   30.0337   27.5450   41.3608 H   0  0  0  0  0  0  0  0  0  0  0  0
   31.4286   25.4074   42.2970 H   0  0  0  0  0  0  0  0  0  0  0  0
   33.8787   24.8884   40.8766 H   0  0  0  0  0  0  0  0  0  0  0  0
   32.6380   22.7996   40.1902 H   0  0  0  0  0  0  0  0  0  0  0  0
   31.3990   23.3903   41.3529 H   0  0  0  0  0  0  0  0  0  0  0  0
   34.0418   25.2566   38.5573 H   0  0  0  0  0  0  0  0  0  0  0  0
   31.6122   25.9984   37.0914 H   0  0  0  0  0  0  0  0  0  0  0  0
   34.4474   26.6367   36.4566 H   0  0  0  0  0  0  0  0  0  0  0  0
   31.9552   27.5741   35.0618 H   0  0  0  0  0  0  0  0  0  0  0  0
   33.1086   26.4262   34.4252 H   0  0  0  0  0  0  0  0  0  0  0  0
   33.5841   28.0864   34.6912 H   0  0  0  0  0  0  0  0  0  0  0  0
   32.2266   28.4481   37.3912 H   0  0  0  0  0  0  0  0  0  0  0  0
   33.8454   28.9602   36.9787 H   0  0  0  0  0  0  0  0  0  0  0  0
   33.5824   27.9244   38.3611 H   0  0  0  0  0  0  0  0  0  0  0  0
   30.8785   24.5188   35.7171 H   0  0  0  0  0  0  0  0  0  0  0  0
   32.6200   22.3981   34.5772 H   0  0  0  0  0  0  0  0  0  0  0  0
   29.6667   22.3774   35.1181 H   0  0  0  0  0  0  0  0  0  0  0  0
   31.4519   20.2425   34.0215 H   0  0  0  0  0  0  0  0  0  0  0  0
   30.2503   21.1377   33.1227 H   0  0  0  0  0  0  0  0  0  0  0  0
   29.7577   20.0644   34.4104 H   0  0  0  0  0  0  0  0  0  0  0  0
   31.8754   20.9085   36.4979 H   0  0  0  0  0  0  0  0  0  0  0  0
   30.1655   20.7171   36.8021 H   0  0  0  0  0  0  0  0  0  0  0  0
   30.9519   22.2358   37.1600 H   0  0  0  0  0  0  0  0  0  0  0  0
   32.9888   22.7317   32.3819 H   0  0  0  0  0  0  0  0  0  0  0  0
   31.0936   24.4753   30.9262 H   0  0  0  0  0  0  0  0  0  0  0  0
   31.9284   23.1350   30.1781 H   0  0  0  0  0  0  0  0  0  0  0  0
   32.8245   24.5423   30.6972 H   0  0  0  0  0  0  0  0  0  0  0  0
  1 33  1  0  0  0  0
  1 34  1  0  0  0  0
  1 35  1  0  0  0  0
  2  3  2  0  0  0  0
  2  1  1  0  0  0  0
  4  2  1  0  0  0  0
  4 36  1  0  0  0  0
  5  4  1  0  0  0  0
  5 37  1  1  0  0  0
  6  5  1  0  0  0  0
  7  6  2  0  0  0  0
  8  5  1  0  0  0  0
  8 38  1  0  0  0  0
  8 39  1  0  0  0  0
  8 40  1  0  0  0  0
  9  6  1  0  0  0  0
  9 41  1  0  0  0  0
 10 13  1  0  0  0  0
 10  9  1  0  0  0  0
 10 42  1  1  0  0  0
 11 10  1  0  0  0  0
 12 11  2  0  0  0  0
 13 14  1  0  0  0  0
 13 43  1  0  0  0  0
 13 44  1  0  0  0  0
 14 16  2  0  0  0  0
 14 15  1  0  0  0  0
 17 11  1  0  0  0  0
 17 45  1  0  0  0  0
 18 17  1  0  0  0  0
 18 46  1  1  0  0  0
 19 18  1  0  0  0  0
 20 19  2  0  0  0  0
 21 18  1  0  0  0  0
 21 23  1  0  0  0  0
 21 47  1  0  0  0  0
 22 21  1  0  0  0  0
 22 48  1  0  0  0  0
 22 49  1  0  0  0  0
 22 50  1  0  0  0  0
 23 51  1  0  0  0  0
 23 52  1  0  0  0  0
 23 53  1  0  0  0  0
 24 19  1  0  0  0  0
 24 54  1  0  0  0  0
 25 28  1  0  0  0  0
 25 24  1  0  0  0  0
 25 55  1  6  0  0  0
 26 25  1  0  0  0  0
 27 26  2  0  0  0  0
 28 30  1  0  0  0  0
 28 56  1  0  0  0  0
 29 28  1  0  0  0  0
 29 57  1  0  0  0  0
 29 58  1  0  0  0  0
 29 59  1  0  0  0  0
 30 60  1  0  0  0  0
 30 61  1  0  0  0  0
 30 62  1  0  0  0  0
 31 26  1  0  0  0  0
 31 63  1  0  0  0  0
 32 31  1  0  0  0  0
 32 64  1  0  0  0  0
 32 65  1  0  0  0  0
 32 66  1  0  0  0  0
M  CHG  1  15  -1
M  END
>  <MODEL>
       0

$$$$
selected_4mers/ADVV/464_noH.pdb
 OpenBabel03042517593D

 66 65  0  0  1  0  0  0  0  0999 V2000
   29.3060   54.7310   46.0560 C   0  0  0  0  0  0  0  0  0  0  0  0
   29.6250   53.2340   46.0540 C   0  0  0  0  0  0  0  0  0  0  0  0
   29.9210   52.6540   45.0030 O   0  0  0  0  0  0  0  0  0  0  0  0
   29.5920   52.6160   47.2320 N   0  0  0  0  0  0  0  0  0  0  0  0
   29.9630   51.2130   47.3590 C   0  0  2  0  0  0  0  0  0  0  0  0
   29.2510   50.5170   48.4940 C   0  0  0  0  0  0  0  0  0  0  0  0
   28.8790   51.1320   49.4970 O   0  0  0  0  0  0  0  0  0  0  0  0
   31.4530   51.0680   47.5400 C   0  0  0  0  0  0  0  0  0  0  0  0
   29.0660   49.2170   48.3060 N   0  0  0  0  0  0  0  0  0  0  0  0
   28.6150   48.3250   49.3540 C   0  0  2  0  0  0  0  0  0  0  0  0
   29.8160   47.4790   49.7430 C   0  0  0  0  0  0  0  0  0  0  0  0
   30.3240   46.7090   48.9350 O   0  0  0  0  0  0  0  0  0  0  0  0
   27.4830   47.4310   48.8440 C   0  0  0  0  0  0  0  0  0  0  0  0
   26.1640   48.1770   48.6930 C   0  0  0  0  0  0  0  0  0  0  0  0
   26.0600   49.3440   49.1250 O   0  0  0  0  0  0  0  0  0  0  0  0
   25.2210   47.5830   48.1410 O   0  0  0  0  0  0  0  0  0  0  0  0
   30.2820   47.6490   50.9740 N   0  0  0  0  0  0  0  0  0  0  0  0
   31.4350   46.9050   51.4700 C   0  0  2  0  0  0  0  0  0  0  0  0
   30.9580   45.8620   52.4810 C   0  0  0  0  0  0  0  0  0  0  0  0
   30.2250   46.1820   53.4240 O   0  0  0  0  0  0  0  0  0  0  0  0
   32.4790   47.8490   52.0940 C   0  0  0  0  0  0  0  0  0  0  0  0
   33.7160   47.0740   52.5320 C   0  0  0  0  0  0  0  0  0  0  0  0
   32.8480   48.9490   51.1060 C   0  0  0  0  0  0  0  0  0  0  0  0
   31.3670   44.6120   52.2730 N   0  0  0  0  0  0  0  0  0  0  0  0
   30.7930   43.4810   53.0000 C   0  0  2  0  0  0  0  0  0  0  0  0
   31.8240   42.6530   53.7780 C   0  0  0  0  0  0  0  0  0  0  0  0
   32.7990   42.1490   53.2110 O   0  0  0  0  0  0  0  0  0  0  0  0
   30.0050   42.5590   52.0350 C   0  0  0  0  0  0  0  0  0  0  0  0
   29.3970   41.3810   52.7870 C   0  0  0  0  0  0  0  0  0  0  0  0
   28.9290   43.3610   51.2940 C   0  0  0  0  0  0  0  0  0  0  0  0
   31.5970   42.5170   55.0840 N   0  0  0  0  0  0  0  0  0  0  0  0
   32.4320   41.6660   55.9330 C   0  0  0  0  0  0  0  0  0  0  0  0
   29.3650   55.1096   45.0569 H   0  0  0  0  0  0  0  0  0  0  0  0
   30.0116   55.2452   46.6745 H   0  0  0  0  0  0  0  0  0  0  0  0
   28.3184   54.8847   46.4379 H   0  0  0  0  0  0  0  0  0  0  0  0
   29.3117   53.1161   48.0324 H   0  0  0  0  0  0  0  0  0  0  0  0
   29.6589   50.7416   46.4479 H   0  0  0  0  0  0  0  0  0  0  0  0
   31.7492   51.5416   48.4526 H   0  0  0  0  0  0  0  0  0  0  0  0
   31.9588   51.5299   46.7180 H   0  0  0  0  0  0  0  0  0  0  0  0
   31.7083   50.0296   47.5778 H   0  0  0  0  0  0  0  0  0  0  0  0
   29.2434   48.8414   47.4134 H   0  0  0  0  0  0  0  0  0  0  0  0
   28.2369   48.8738   50.1911 H   0  0  0  0  0  0  0  0  0  0  0  0
   27.7632   47.0355   47.8901 H   0  0  0  0  0  0  0  0  0  0  0  0
   27.3339   46.6563   49.5668 H   0  0  0  0  0  0  0  0  0  0  0  0
   29.8373   48.2951   51.5690 H   0  0  0  0  0  0  0  0  0  0  0  0
   31.9128   46.4084   50.6515 H   0  0  0  0  0  0  0  0  0  0  0  0
   32.0524   48.3030   52.9640 H   0  0  0  0  0  0  0  0  0  0  0  0
   34.1650   46.6078   51.6800 H   0  0  0  0  0  0  0  0  0  0  0  0
   33.4345   46.3244   53.2417 H   0  0  0  0  0  0  0  0  0  0  0  0
   34.4170   47.7457   52.9818 H   0  0  0  0  0  0  0  0  0  0  0  0
   33.2767   48.5114   50.2287 H   0  0  0  0  0  0  0  0  0  0  0  0
   33.5573   49.6108   51.5575 H   0  0  0  0  0  0  0  0  0  0  0  0
   31.9691   49.4972   50.8380 H   0  0  0  0  0  0  0  0  0  0  0  0
   32.0761   44.4447   51.6108 H   0  0  0  0  0  0  0  0  0  0  0  0
   30.1338   43.9087   53.7262 H   0  0  0  0  0  0  0  0  0  0  0  0
   30.6845   42.1632   51.3094 H   0  0  0  0  0  0  0  0  0  0  0  0
   28.7102   41.7438   53.5229 H   0  0  0  0  0  0  0  0  0  0  0  0
   30.1746   40.8253   53.2681 H   0  0  0  0  0  0  0  0  0  0  0  0
   28.8793   40.7469   52.0980 H   0  0  0  0  0  0  0  0  0  0  0  0
   28.2366   43.7673   52.0014 H   0  0  0  0  0  0  0  0  0  0  0  0
   28.4091   42.7179   50.6150 H   0  0  0  0  0  0  0  0  0  0  0  0
   29.3903   44.1575   50.7484 H   0  0  0  0  0  0  0  0  0  0  0  0
   30.8442   43.0041   55.4905 H   0  0  0  0  0  0  0  0  0  0  0  0
   33.1986   41.2129   55.3397 H   0  0  0  0  0  0  0  0  0  0  0  0
   31.8276   40.9033   56.3778 H   0  0  0  0  0  0  0  0  0  0  0  0
   32.8803   42.2597   56.7021 H   0  0  0  0  0  0  0  0  0  0  0  0
  1 33  1  0  0  0  0
  1 34  1  0  0  0  0
  1 35  1  0  0  0  0
  2  1  1  0  0  0  0
  2  4  1  0  0  0  0
  3  2  2  0  0  0  0
  4  5  1  0  0  0  0
  4 36  1  0  0  0  0
  5  8  1  0  0  0  0
  5  6  1  0  0  0  0
  5 37  1  6  0  0  0
  6  7  2  0  0  0  0
  8 38  1  0  0  0  0
  8 39  1  0  0  0  0
  8 40  1  0  0  0  0
  9  6  1  0  0  0  0
  9 10  1  0  0  0  0
  9 41  1  0  0  0  0
 10 11  1  0  0  0  0
 10 42  1  1  0  0  0
 11 17  1  0  0  0  0
 12 11  2  0  0  0  0
 13 10  1  0  0  0  0
 13 43  1  0  0  0  0
 13 44  1  0  0  0  0
 14 13  1  0  0  0  0
 14 15  1  0  0  0  0
 16 14  2  0  0  0  0
 17 18  1  0  0  0  0
 17 45  1  0  0  0  0
 18 21  1  0  0  0  0
 18 19  1  0  0  0  0
 18 46  1  6  0  0  0
 19 20  2  0  0  0  0
 21 22  1  0  0  0  0
 21 47  1  0  0  0  0
 22 48  1  0  0  0  0
 22 49  1  0  0  0  0
 22 50  1  0  0  0  0
 23 21  1  0  0  0  0
 23 51  1  0  0  0  0
 23 52  1  0  0  0  0
 23 53  1  0  0  0  0
 24 19  1  0  0  0  0
 24 25  1  0  0  0  0
 24 54  1  0  0  0  0
 25 26  1  0  0  0  0
 25 55  1  1  0  0  0
 26 31  1  0  0  0  0
 27 26  2  0  0  0  0
 28 29  1  0  0  0  0
 28 25  1  0  0  0  0
 28 56  1  0  0  0  0
 29 57  1  0  0  0  0
 29 58  1  0  0  0  0
 29 59  1  0  0  0  0
 30 28  1  0  0  0  0
 30 60  1  0  0  0  0
 30 61  1  0  0  0  0
 30 62  1  0  0  0  0
 31 32  1  0  0  0  0
 31 63  1  0  0  0  0
 32 64  1  0  0  0  0
 32 65  1  0  0  0  0
 32 66  1  0  0  0  0
M  CHG  1  15  -1
M  END
>  <MODEL>
       0

$$$$
