selected_4mers/AEAA/150_noH.pdb
 OpenBabel03042517503D

 57 56  0  0  1  0  0  0  0  0999 V2000
  -11.9610   11.4500   13.6090 C   0  0  0  0  0  0  0  0  0  0  0  0
  -11.4820   10.9830   14.9970 C   0  0  0  0  0  0  0  0  0  0  0  0
  -10.2670   10.9430   15.2660 O   0  0  0  0  0  0  0  0  0  0  0  0
  -12.4310   10.6140   15.8680 N   0  0  0  0  0  0  0  0  0  0  0  0
  -12.0660   10.1230   17.2030 C   0  0  2  0  0  0  0  0  0  0  0  0
  -11.2050    8.8640   17.1310 C   0  0  0  0  0  0  0  0  0  0  0  0
  -10.2800    8.7030   17.9140 O   0  0  0  0  0  0  0  0  0  0  0  0
  -13.3150    9.8620   18.0620 C   0  0  0  0  0  0  0  0  0  0  0  0
  -11.5570    7.9380   16.2360 N   0  0  0  0  0  0  0  0  0  0  0  0
  -10.7580    6.7310   16.0840 C   0  0  2  0  0  0  0  0  0  0  0  0
   -9.3250    7.0420   15.6310 C   0  0  0  0  0  0  0  0  0  0  0  0
   -8.3620    6.4710   16.1740 O   0  0  0  0  0  0  0  0  0  0  0  0
  -11.4830    5.7160   15.1770 C   0  0  0  0  0  0  0  0  0  0  0  0
  -12.6440    5.1010   15.9760 C   0  0  0  0  0  0  0  0  0  0  0  0
  -13.4110    4.0600   15.1920 C   0  0  0  0  0  0  0  0  0  0  0  0
  -13.1140    3.8590   13.9960 O   0  0  0  0  0  0  0  0  0  0  0  0
  -14.3200    3.4430   15.7750 O   0  0  0  0  0  0  0  0  0  0  0  0
   -9.1800    7.9720   14.6800 N   0  0  0  0  0  0  0  0  0  0  0  0
   -7.8500    8.3460   14.2260 C   0  0  2  0  0  0  0  0  0  0  0  0
   -7.0910    9.0360   15.3570 C   0  0  0  0  0  0  0  0  0  0  0  0
   -5.8960    8.7830   15.5590 O   0  0  0  0  0  0  0  0  0  0  0  0
   -7.9310    9.2590   12.9860 C   0  0  0  0  0  0  0  0  0  0  0  0
   -7.7830    9.8980   16.1020 N   0  0  0  0  0  0  0  0  0  0  0  0
   -7.1530   10.6080   17.2280 C   0  0  2  0  0  0  0  0  0  0  0  0
   -6.6390    9.6260   18.2920 C   0  0  0  0  0  0  0  0  0  0  0  0
   -5.5490    9.7910   18.8210 O   0  0  0  0  0  0  0  0  0  0  0  0
   -8.1440   11.6390   17.8470 C   0  0  0  0  0  0  0  0  0  0  0  0
   -7.4270    8.5960   18.6040 N   0  0  0  0  0  0  0  0  0  0  0  0
   -6.9960    7.6070   19.5840 C   0  0  0  0  0  0  0  0  0  0  0  0
  -11.1148   11.7154   13.0103 H   0  0  0  0  0  0  0  0  0  0  0  0
  -12.6003   12.3008   13.7200 H   0  0  0  0  0  0  0  0  0  0  0  0
  -12.5005   10.6581   13.1328 H   0  0  0  0  0  0  0  0  0  0  0  0
  -13.3796   10.6725   15.6112 H   0  0  0  0  0  0  0  0  0  0  0  0
  -11.4863   10.8932   17.6673 H   0  0  0  0  0  0  0  0  0  0  0  0
  -13.9050    9.0929   17.6090 H   0  0  0  0  0  0  0  0  0  0  0  0
  -13.8929   10.7597   18.1331 H   0  0  0  0  0  0  0  0  0  0  0  0
  -13.0159    9.5519   19.0414 H   0  0  0  0  0  0  0  0  0  0  0  0
  -12.3574    8.0717   15.6786 H   0  0  0  0  0  0  0  0  0  0  0  0
  -10.6528    6.2703   17.0440 H   0  0  0  0  0  0  0  0  0  0  0  0
  -11.8637    6.2130   14.3093 H   0  0  0  0  0  0  0  0  0  0  0  0
  -10.8045    4.9507   14.8627 H   0  0  0  0  0  0  0  0  0  0  0  0
  -13.3183    5.8833   16.2555 H   0  0  0  0  0  0  0  0  0  0  0  0
  -12.2232    4.6139   16.8307 H   0  0  0  0  0  0  0  0  0  0  0  0
   -9.9735    8.4030   14.2877 H   0  0  0  0  0  0  0  0  0  0  0  0
   -7.3205    7.4595   13.9457 H   0  0  0  0  0  0  0  0  0  0  0  0
   -8.4571   10.1562   13.2374 H   0  0  0  0  0  0  0  0  0  0  0  0
   -8.4498    8.7494   12.2011 H   0  0  0  0  0  0  0  0  0  0  0  0
   -6.9423    9.5050   12.6590 H   0  0  0  0  0  0  0  0  0  0  0  0
   -8.7315   10.0628   15.8960 H   0  0  0  0  0  0  0  0  0  0  0  0
   -6.3061   11.1418   16.8503 H   0  0  0  0  0  0  0  0  0  0  0  0
   -8.9999   11.1246   18.2314 H   0  0  0  0  0  0  0  0  0  0  0  0
   -8.4535   12.3329   17.0936 H   0  0  0  0  0  0  0  0  0  0  0  0
   -7.6591   12.1674   18.6411 H   0  0  0  0  0  0  0  0  0  0  0  0
   -8.3055    8.5032   18.1695 H   0  0  0  0  0  0  0  0  0  0  0  0
   -6.0240    7.8663   19.9487 H   0  0  0  0  0  0  0  0  0  0  0  0
   -6.9585    6.6417   19.1238 H   0  0  0  0  0  0  0  0  0  0  0  0
   -7.6890    7.5869   20.3990 H   0  0  0  0  0  0  0  0  0  0  0  0
  1  2  1  0  0  0  0
  1 30  1  0  0  0  0
  1 31  1  0  0  0  0
  1 32  1  0  0  0  0
  2  3  2  0  0  0  0
  2  4  1  0  0  0  0
  4  5  1  0  0  0  0
  4 33  1  0  0  0  0
  5  8  1  0  0  0  0
  5 34  1  1  0  0  0
  6  5  1  0  0  0  0
  6  7  2  0  0  0  0
  8 35  1  0  0  0  0
  8 36  1  0  0  0  0
  8 37  1  0  0  0  0
  9  6  1  0  0  0  0
  9 38  1  0  0  0  0
 10  9  1  0  0  0  0
 10 39  1  1  0  0  0
 11 10  1  0  0  0  0
 11 12  2  0  0  0  0
 13 14  1  0  0  0  0
 13 10  1  0  0  0  0
 13 40  1  0  0  0  0
 13 41  1  0  0  0  0
 14 42  1  0  0  0  0
 14 43  1  0  0  0  0
 15 17  1  0  0  0  0
 15 14  1  0  0  0  0
 16 15  2  0  0  0  0
 18 11  1  0  0  0  0
 18 44  1  0  0  0  0
 19 18  1  0  0  0  0
 19 20  1  0  0  0  0
 19 45  1  6  0  0  0
 20 21  2  0  0  0  0
 20 23  1  0  0  0  0
 22 19  1  0  0  0  0
 22 46  1  0  0  0  0
 22 47  1  0  0  0  0
 22 48  1  0  0  0  0
 23 24  1  0  0  0  0
 23 49  1  0  0  0  0
 24 27  1  0  0  0  0
 24 25  1  0  0  0  0
 24 50  1  6  0  0  0
 25 28  1  0  0  0  0
 25 26  2  0  0  0  0
 27 51  1  0  0  0  0
 27 52  1  0  0  0  0
 27 53  1  0  0  0  0
 28 29  1  0  0  0  0
 28 54  1  0  0  0  0
 29 55  1  0  0  0  0
 29 56  1  0  0  0  0
 29 57  1  0  0  0  0
M  CHG  1  17  -1
M  END
>  <MODEL>
       0

$$$$
selected_4mers/AEAA/151_noH.pdb
 OpenBabel03042517503D

 57 56  0  0  1  0  0  0  0  0999 V2000
    7.8900   48.4590   15.5090 C   0  0  0  0  0  0  0  0  0  0  0  0
    6.6800   47.7390   16.1200 C   0  0  0  0  0  0  0  0  0  0  0  0
    6.8410   46.8390   16.9480 O   0  0  0  0  0  0  0  0  0  0  0  0
    5.4690   48.1170   15.7020 N   0  0  0  0  0  0  0  0  0  0  0  0
    4.2680   47.4550   16.2110 C   0  0  2  0  0  0  0  0  0  0  0  0
    4.2260   45.9920   15.8270 C   0  0  0  0  0  0  0  0  0  0  0  0
    3.8200   45.1740   16.6350 O   0  0  0  0  0  0  0  0  0  0  0  0
    2.9700   48.1660   15.7100 C   0  0  0  0  0  0  0  0  0  0  0  0
    4.6590   45.6720   14.6080 N   0  0  0  0  0  0  0  0  0  0  0  0
    4.6830   44.2940   14.1290 C   0  0  2  0  0  0  0  0  0  0  0  0
    5.6170   43.4340   14.9700 C   0  0  0  0  0  0  0  0  0  0  0  0
    5.4250   42.2260   15.0710 O   0  0  0  0  0  0  0  0  0  0  0  0
    5.1400   44.2280   12.6650 C   0  0  0  0  0  0  0  0  0  0  0  0
    4.1050   44.7120   11.6590 C   0  0  0  0  0  0  0  0  0  0  0  0
    4.6540   44.9740   10.2450 C   0  0  0  0  0  0  0  0  0  0  0  0
    5.8840   44.9160   10.0050 O   0  0  0  0  0  0  0  0  0  0  0  0
    3.8270   45.2850    9.3700 O   0  0  0  0  0  0  0  0  0  0  0  0
    6.6320   44.0590   15.5640 N   0  0  0  0  0  0  0  0  0  0  0  0
    7.6350   43.3390   16.3510 C   0  0  2  0  0  0  0  0  0  0  0  0
    7.1760   43.0730   17.7750 C   0  0  0  0  0  0  0  0  0  0  0  0
    7.7230   42.2030   18.4560 O   0  0  0  0  0  0  0  0  0  0  0  0
    8.9210   44.1220   16.3930 C   0  0  0  0  0  0  0  0  0  0  0  0
    6.2020   43.8260   18.2530 N   0  0  0  0  0  0  0  0  0  0  0  0
    5.8510   43.7680   19.6690 C   0  0  2  0  0  0  0  0  0  0  0  0
    5.2360   42.4180   20.0910 C   0  0  0  0  0  0  0  0  0  0  0  0
    4.5810   41.7430   19.2820 O   0  0  0  0  0  0  0  0  0  0  0  0
    4.9040   44.9100   20.0050 C   0  0  0  0  0  0  0  0  0  0  0  0
    5.4320   42.0400   21.3560 N   0  0  0  0  0  0  0  0  0  0  0  0
    4.8230   40.8130   21.8920 C   0  0  0  0  0  0  0  0  0  0  0  0
    7.5512   49.2020   14.8176 H   0  0  0  0  0  0  0  0  0  0  0  0
    8.5059   47.7496   14.9969 H   0  0  0  0  0  0  0  0  0  0  0  0
    8.4564   48.9273   16.2866 H   0  0  0  0  0  0  0  0  0  0  0  0
    5.3841   48.8466   15.0465 H   0  0  0  0  0  0  0  0  0  0  0  0
    4.3113   47.5235   17.2779 H   0  0  0  0  0  0  0  0  0  0  0  0
    2.9178   48.1027   14.6432 H   0  0  0  0  0  0  0  0  0  0  0  0
    2.9897   49.1941   16.0057 H   0  0  0  0  0  0  0  0  0  0  0  0
    2.1137   47.6881   16.1380 H   0  0  0  0  0  0  0  0  0  0  0  0
    4.9731   46.3890   14.0109 H   0  0  0  0  0  0  0  0  0  0  0  0
    3.6845   43.9182   14.2107 H   0  0  0  0  0  0  0  0  0  0  0  0
    6.0162   44.8332   12.5606 H   0  0  0  0  0  0  0  0  0  0  0  0
    5.3168   43.1954   12.4473 H   0  0  0  0  0  0  0  0  0  0  0  0
    3.3384   43.9691   11.5863 H   0  0  0  0  0  0  0  0  0  0  0  0
    3.7475   45.6526   12.0229 H   0  0  0  0  0  0  0  0  0  0  0  0
    6.7104   45.0360   15.4710 H   0  0  0  0  0  0  0  0  0  0  0  0
    7.7853   42.3956   15.8690 H   0  0  0  0  0  0  0  0  0  0  0  0
    8.7514   45.0607   16.8777 H   0  0  0  0  0  0  0  0  0  0  0  0
    9.2670   44.2933   15.3951 H   0  0  0  0  0  0  0  0  0  0  0  0
    9.6582   43.5682   16.9360 H   0  0  0  0  0  0  0  0  0  0  0  0
    5.7098   44.4299   17.6511 H   0  0  0  0  0  0  0  0  0  0  0  0
    6.7611   43.8668   20.2230 H   0  0  0  0  0  0  0  0  0  0  0  0
    3.9990   44.7993   19.4450 H   0  0  0  0  0  0  0  0  0  0  0  0
    5.3664   45.8420   19.7551 H   0  0  0  0  0  0  0  0  0  0  0  0
    4.6805   44.8919   21.0512 H   0  0  0  0  0  0  0  0  0  0  0  0
    5.9960   42.5941   21.9426 H   0  0  0  0  0  0  0  0  0  0  0  0
    4.2470   40.3368   21.1263 H   0  0  0  0  0  0  0  0  0  0  0  0
    4.1860   41.0612   22.7152 H   0  0  0  0  0  0  0  0  0  0  0  0
    5.5929   40.1485   22.2245 H   0  0  0  0  0  0  0  0  0  0  0  0
  1  2  1  0  0  0  0
  1 30  1  0  0  0  0
  1 31  1  0  0  0  0
  1 32  1  0  0  0  0
  2  3  2  0  0  0  0
  2  4  1  0  0  0  0
  4  5  1  0  0  0  0
  4 33  1  0  0  0  0
  5  8  1  0  0  0  0
  5 34  1  1  0  0  0
  6  5  1  0  0  0  0
  6  7  2  0  0  0  0
  8 35  1  0  0  0  0
  8 36  1  0  0  0  0
  8 37  1  0  0  0  0
  9  6  1  0  0  0  0
  9 38  1  0  0  0  0
 10  9  1  0  0  0  0
 10 39  1  1  0  0  0
 11 10  1  0  0  0  0
 11 12  2  0  0  0  0
 13 14  1  0  0  0  0
 13 10  1  0  0  0  0
 13 40  1  0  0  0  0
 13 41  1  0  0  0  0
 14 42  1  0  0  0  0
 14 43  1  0  0  0  0
 15 17  1  0  0  0  0
 15 14  1  0  0  0  0
 16 15  2  0  0  0  0
 18 11  1  0  0  0  0
 18 44  1  0  0  0  0
 19 18  1  0  0  0  0
 19 20  1  0  0  0  0
 19 45  1  6  0  0  0
 20 21  2  0  0  0  0
 20 23  1  0  0  0  0
 22 19  1  0  0  0  0
 22 46  1  0  0  0  0
 22 47  1  0  0  0  0
 22 48  1  0  0  0  0
 23 24  1  0  0  0  0
 23 49  1  0  0  0  0
 24 27  1  0  0  0  0
 24 25  1  0  0  0  0
 24 50  1  6  0  0  0
 25 28  1  0  0  0  0
 25 26  2  0  0  0  0
 27 51  1  0  0  0  0
 27 52  1  0  0  0  0
 27 53  1  0  0  0  0
 28 29  1  0  0  0  0
 28 54  1  0  0  0  0
 29 55  1  0  0  0  0
 29 56  1  0  0  0  0
 29 57  1  0  0  0  0
M  CHG  1  17  -1
M  END
>  <MODEL>
       0

$$$$
selected_4mers/AEAA/152_noH.pdb
 OpenBabel03042517503D

 57 56  0  0  1  0  0  0  0  0999 V2000
   25.7390   44.4180  -14.7770 C   0  0  0  0  0  0  0  0  0  0  0  0
   26.9300   44.8710  -15.6160 C   0  0  0  0  0  0  0  0  0  0  0  0
   27.6020   45.8490  -15.2810 O   0  0  0  0  0  0  0  0  0  0  0  0
   27.1890   44.1420  -16.7010 N   0  0  0  0  0  0  0  0  0  0  0  0
   28.2340   44.5040  -17.6570 C   0  0  2  0  0  0  0  0  0  0  0  0
   27.9230   45.8360  -18.3290 C   0  0  0  0  0  0  0  0  0  0  0  0
   26.7520   46.2140  -18.4670 O   0  0  0  0  0  0  0  0  0  0  0  0
   28.3870   43.4030  -18.7030 C   0  0  0  0  0  0  0  0  0  0  0  0
   28.9730   46.5410  -18.7500 N   0  0  0  0  0  0  0  0  0  0  0  0
   28.8420   47.8720  -19.3460 C   0  0  2  0  0  0  0  0  0  0  0  0
   27.7940   47.9410  -20.4640 C   0  0  0  0  0  0  0  0  0  0  0  0
   26.9300   48.8190  -20.4680 O   0  0  0  0  0  0  0  0  0  0  0  0
   30.1930   48.3580  -19.8910 C   0  0  0  0  0  0  0  0  0  0  0  0
   30.1140   49.7560  -20.4900 C   0  0  0  0  0  0  0  0  0  0  0  0
   31.4570   50.3270  -20.9150 C   0  0  0  0  0  0  0  0  0  0  0  0
   32.4520   49.5780  -20.9830 O   0  0  0  0  0  0  0  0  0  0  0  0
   31.4990   51.5420  -21.1940 O   0  0  0  0  0  0  0  0  0  0  0  0
   27.8840   47.0150  -21.4100 N   0  0  0  0  0  0  0  0  0  0  0  0
   27.0240   47.0490  -22.5920 C   0  0  2  0  0  0  0  0  0  0  0  0
   25.6840   46.3290  -22.4020 C   0  0  0  0  0  0  0  0  0  0  0  0
   24.8470   46.3010  -23.3120 O   0  0  0  0  0  0  0  0  0  0  0  0
   27.7760   46.4960  -23.8000 C   0  0  0  0  0  0  0  0  0  0  0  0
   25.4750   45.7590  -21.2200 N   0  0  0  0  0  0  0  0  0  0  0  0
   24.2620   44.9930  -20.9490 C   0  0  2  0  0  0  0  0  0  0  0  0
   23.0190   45.8720  -20.8170 C   0  0  0  0  0  0  0  0  0  0  0  0
   23.1030   47.0420  -20.4300 O   0  0  0  0  0  0  0  0  0  0  0  0
   24.4440   44.1440  -19.7040 C   0  0  0  0  0  0  0  0  0  0  0  0
   21.8680   45.3050  -21.1710 N   0  0  0  0  0  0  0  0  0  0  0  0
   20.5790   45.8790  -20.7980 C   0  0  0  0  0  0  0  0  0  0  0  0
   25.2896   43.5592  -15.2301 H   0  0  0  0  0  0  0  0  0  0  0  0
   25.0205   45.2090  -14.7213 H   0  0  0  0  0  0  0  0  0  0  0  0
   26.0716   44.1682  -13.7912 H   0  0  0  0  0  0  0  0  0  0  0  0
   26.6571   43.3299  -16.8648 H   0  0  0  0  0  0  0  0  0  0  0  0
   29.1562   44.6109  -17.1250 H   0  0  0  0  0  0  0  0  0  0  0  0
   27.4680   43.2904  -19.2393 H   0  0  0  0  0  0  0  0  0  0  0  0
   28.6320   42.4814  -18.2176 H   0  0  0  0  0  0  0  0  0  0  0  0
   29.1683   43.6654  -19.3854 H   0  0  0  0  0  0  0  0  0  0  0  0
   29.8723   46.1513  -18.6565 H   0  0  0  0  0  0  0  0  0  0  0  0
   28.5080   48.5115  -18.5558 H   0  0  0  0  0  0  0  0  0  0  0  0
   30.9022   48.3680  -19.0898 H   0  0  0  0  0  0  0  0  0  0  0  0
   30.4881   47.6874  -20.6708 H   0  0  0  0  0  0  0  0  0  0  0  0
   29.4782   49.7175  -21.3498 H   0  0  0  0  0  0  0  0  0  0  0  0
   29.7347   50.3987  -19.7232 H   0  0  0  0  0  0  0  0  0  0  0  0
   28.5433   46.2902  -21.3141 H   0  0  0  0  0  0  0  0  0  0  0  0
   26.7758   48.0759  -22.7614 H   0  0  0  0  0  0  0  0  0  0  0  0
   28.0225   45.4692  -23.6272 H   0  0  0  0  0  0  0  0  0  0  0  0
   28.6741   47.0582  -23.9490 H   0  0  0  0  0  0  0  0  0  0  0  0
   27.1585   46.5730  -24.6704 H   0  0  0  0  0  0  0  0  0  0  0  0
   26.1524   45.8552  -20.5121 H   0  0  0  0  0  0  0  0  0  0  0  0
   24.1008   44.3585  -21.7953 H   0  0  0  0  0  0  0  0  0  0  0  0
   24.6050   44.7802  -18.8589 H   0  0  0  0  0  0  0  0  0  0  0  0
   25.2889   43.5000  -19.8318 H   0  0  0  0  0  0  0  0  0  0  0  0
   23.5664   43.5533  -19.5437 H   0  0  0  0  0  0  0  0  0  0  0  0
   21.8867   44.4746  -21.6996 H   0  0  0  0  0  0  0  0  0  0  0  0
   20.7371   46.7722  -20.2305 H   0  0  0  0  0  0  0  0  0  0  0  0
   20.0318   45.1737  -20.2080 H   0  0  0  0  0  0  0  0  0  0  0  0
   20.0230   46.1119  -21.6821 H   0  0  0  0  0  0  0  0  0  0  0  0
  1  2  1  0  0  0  0
  1 30  1  0  0  0  0
  1 31  1  0  0  0  0
  1 32  1  0  0  0  0
  2  3  2  0  0  0  0
  2  4  1  0  0  0  0
  4  5  1  0  0  0  0
  4 33  1  0  0  0  0
  5  8  1  0  0  0  0
  5 34  1  1  0  0  0
  6  5  1  0  0  0  0
  6  7  2  0  0  0  0
  8 35  1  0  0  0  0
  8 36  1  0  0  0  0
  8 37  1  0  0  0  0
  9  6  1  0  0  0  0
  9 38  1  0  0  0  0
 10  9  1  0  0  0  0
 10 39  1  1  0  0  0
 11 10  1  0  0  0  0
 11 12  2  0  0  0  0
 13 14  1  0  0  0  0
 13 10  1  0  0  0  0
 13 40  1  0  0  0  0
 13 41  1  0  0  0  0
 14 42  1  0  0  0  0
 14 43  1  0  0  0  0
 15 17  1  0  0  0  0
 15 14  1  0  0  0  0
 16 15  2  0  0  0  0
 18 11  1  0  0  0  0
 18 44  1  0  0  0  0
 19 18  1  0  0  0  0
 19 20  1  0  0  0  0
 19 45  1  6  0  0  0
 20 21  2  0  0  0  0
 20 23  1  0  0  0  0
 22 19  1  0  0  0  0
 22 46  1  0  0  0  0
 22 47  1  0  0  0  0
 22 48  1  0  0  0  0
 23 24  1  0  0  0  0
 23 49  1  0  0  0  0
 24 27  1  0  0  0  0
 24 25  1  0  0  0  0
 24 50  1  6  0  0  0
 25 28  1  0  0  0  0
 25 26  2  0  0  0  0
 27 51  1  0  0  0  0
 27 52  1  0  0  0  0
 27 53  1  0  0  0  0
 28 29  1  0  0  0  0
 28 54  1  0  0  0  0
 29 55  1  0  0  0  0
 29 56  1  0  0  0  0
 29 57  1  0  0  0  0
M  CHG  1  17  -1
M  END
>  <MODEL>
       0

$$$$
selected_4mers/AEAA/153_noH.pdb
 OpenBabel03042517503D

 57 56  0  0  1  0  0  0  0  0999 V2000
    3.2610   20.6750   46.8930 C   0  0  0  0  0  0  0  0  0  0  0  0
    4.4950   21.0150   47.7200 C   0  0  0  0  0  0  0  0  0  0  0  0
    5.6060   20.7010   47.3110 O   0  0  0  0  0  0  0  0  0  0  0  0
    4.3080   21.6800   48.8580 N   0  0  0  0  0  0  0  0  0  0  0  0
    5.4300   22.0450   49.7210 C   0  0  2  0  0  0  0  0  0  0  0  0
    5.5050   20.9960   50.8230 C   0  0  0  0  0  0  0  0  0  0  0  0
    4.4890   20.6390   51.4140 O   0  0  0  0  0  0  0  0  0  0  0  0
    5.2130   23.4300   50.3150 C   0  0  0  0  0  0  0  0  0  0  0  0
    6.7040   20.5050   51.1090 N   0  0  0  0  0  0  0  0  0  0  0  0
    6.8490   19.4490   52.1070 C   0  0  2  0  0  0  0  0  0  0  0  0
    8.0260   19.6520   53.0430 C   0  0  0  0  0  0  0  0  0  0  0  0
    8.9350   20.4190   52.7580 O   0  0  0  0  0  0  0  0  0  0  0  0
    7.0830   18.1130   51.3960 C   0  0  0  0  0  0  0  0  0  0  0  0
    8.5150   18.0280   50.8400 C   0  0  0  0  0  0  0  0  0  0  0  0
    8.8080   16.7850   50.0080 C   0  0  0  0  0  0  0  0  0  0  0  0
    8.3000   15.6910   50.3360 O   0  0  0  0  0  0  0  0  0  0  0  0
    9.5790   16.9090   49.0300 O   0  0  0  0  0  0  0  0  0  0  0  0
    7.9950   18.9370   54.1630 N   0  0  0  0  0  0  0  0  0  0  0  0
    9.1040   18.9420   55.1070 C   0  0  2  0  0  0  0  0  0  0  0  0
    9.7970   17.6560   54.6290 C   0  0  0  0  0  0  0  0  0  0  0  0
    9.2710   16.5630   54.8240 O   0  0  0  0  0  0  0  0  0  0  0  0
    8.5840   18.7890   56.5330 C   0  0  0  0  0  0  0  0  0  0  0  0
   10.9560   17.7870   53.9850 N   0  0  0  0  0  0  0  0  0  0  0  0
   11.6560   16.6330   53.4160 C   0  0  2  0  0  0  0  0  0  0  0  0
   12.6410   15.8450   54.2860 C   0  0  0  0  0  0  0  0  0  0  0  0
   13.4650   15.0930   53.7580 O   0  0  0  0  0  0  0  0  0  0  0  0
   12.3520   17.0590   52.1200 C   0  0  0  0  0  0  0  0  0  0  0  0
   12.5600   15.9880   55.6020 N   0  0  0  0  0  0  0  0  0  0  0  0
   13.4660   15.2520   56.4800 C   0  0  0  0  0  0  0  0  0  0  0  0
    3.5570   20.1445   46.0122 H   0  0  0  0  0  0  0  0  0  0  0  0
    2.7589   21.5777   46.6138 H   0  0  0  0  0  0  0  0  0  0  0  0
    2.6006   20.0641   47.4723 H   0  0  0  0  0  0  0  0  0  0  0  0
    3.3941   21.9315   49.1242 H   0  0  0  0  0  0  0  0  0  0  0  0
    6.3440   22.0754   49.1655 H   0  0  0  0  0  0  0  0  0  0  0  0
    4.3043   23.4375   50.8798 H   0  0  0  0  0  0  0  0  0  0  0  0
    5.1487   24.1503   49.5263 H   0  0  0  0  0  0  0  0  0  0  0  0
    6.0336   23.6756   50.9563 H   0  0  0  0  0  0  0  0  0  0  0  0
    7.4996   20.8543   50.6462 H   0  0  0  0  0  0  0  0  0  0  0  0
    5.9480   19.4658   52.6839 H   0  0  0  0  0  0  0  0  0  0  0  0
    6.9298   17.3147   52.0918 H   0  0  0  0  0  0  0  0  0  0  0  0
    6.3952   18.0360   50.5800 H   0  0  0  0  0  0  0  0  0  0  0  0
    8.6842   18.8871   50.2250 H   0  0  0  0  0  0  0  0  0  0  0  0
    9.1642   17.9804   51.6892 H   0  0  0  0  0  0  0  0  0  0  0  0
    7.2010   18.3892   54.3598 H   0  0  0  0  0  0  0  0  0  0  0  0
    9.7132   19.8214   55.1298 H   0  0  0  0  0  0  0  0  0  0  0  0
    7.9595   17.9223   56.5938 H   0  0  0  0  0  0  0  0  0  0  0  0
    8.0176   19.6563   56.8011 H   0  0  0  0  0  0  0  0  0  0  0  0
    9.4102   18.6811   57.2043 H   0  0  0  0  0  0  0  0  0  0  0  0
   11.3524   18.6831   53.8891 H   0  0  0  0  0  0  0  0  0  0  0  0
   10.8640   15.9274   53.2753 H   0  0  0  0  0  0  0  0  0  0  0  0
   13.1270   17.7614   52.3456 H   0  0  0  0  0  0  0  0  0  0  0  0
   11.6385   17.5133   51.4647 H   0  0  0  0  0  0  0  0  0  0  0  0
   12.7768   16.1999   51.6442 H   0  0  0  0  0  0  0  0  0  0  0  0
   11.8863   16.5928   55.9888 H   0  0  0  0  0  0  0  0  0  0  0  0
   14.1240   14.6495   55.8893 H   0  0  0  0  0  0  0  0  0  0  0  0
   12.8974   14.6238   57.1335 H   0  0  0  0  0  0  0  0  0  0  0  0
   14.0403   15.9435   57.0604 H   0  0  0  0  0  0  0  0  0  0  0  0
  1  2  1  0  0  0  0
  1 30  1  0  0  0  0
  1 31  1  0  0  0  0
  1 32  1  0  0  0  0
  2  3  2  0  0  0  0
  2  4  1  0  0  0  0
  4  5  1  0  0  0  0
  4 33  1  0  0  0  0
  5  8  1  0  0  0  0
  5 34  1  1  0  0  0
  6  5  1  0  0  0  0
  6  7  2  0  0  0  0
  8 35  1  0  0  0  0
  8 36  1  0  0  0  0
  8 37  1  0  0  0  0
  9  6  1  0  0  0  0
  9 38  1  0  0  0  0
 10  9  1  0  0  0  0
 10 39  1  1  0  0  0
 11 10  1  0  0  0  0
 11 12  2  0  0  0  0
 13 14  1  0  0  0  0
 13 10  1  0  0  0  0
 13 40  1  0  0  0  0
 13 41  1  0  0  0  0
 14 42  1  0  0  0  0
 14 43  1  0  0  0  0
 15 17  1  0  0  0  0
 15 14  1  0  0  0  0
 16 15  2  0  0  0  0
 18 11  1  0  0  0  0
 18 44  1  0  0  0  0
 19 18  1  0  0  0  0
 19 20  1  0  0  0  0
 19 45  1  6  0  0  0
 20 21  2  0  0  0  0
 20 23  1  0  0  0  0
 22 19  1  0  0  0  0
 22 46  1  0  0  0  0
 22 47  1  0  0  0  0
 22 48  1  0  0  0  0
 23 24  1  0  0  0  0
 23 49  1  0  0  0  0
 24 27  1  0  0  0  0
 24 25  1  0  0  0  0
 24 50  1  6  0  0  0
 25 28  1  0  0  0  0
 25 26  2  0  0  0  0
 27 51  1  0  0  0  0
 27 52  1  0  0  0  0
 27 53  1  0  0  0  0
 28 29  1  0  0  0  0
 28 54  1  0  0  0  0
 29 55  1  0  0  0  0
 29 56  1  0  0  0  0
 29 57  1  0  0  0  0
M  CHG  1  17  -1
M  END
>  <MODEL>
       0

$$$$
selected_4mers/AEAA/154_noH.pdb
 OpenBabel03042517503D

 57 56  0  0  1  0  0  0  0  0999 V2000
    1.2870  -23.9330    9.5430 C   0  0  0  0  0  0  0  0  0  0  0  0
    0.4460  -23.3570    8.4040 C   0  0  0  0  0  0  0  0  0  0  0  0
    0.5280  -22.1800    8.1350 O   0  0  0  0  0  0  0  0  0  0  0  0
   -0.3450  -24.1950    7.7410 N   0  0  0  0  0  0  0  0  0  0  0  0
   -1.3370  -23.7310    6.7680 C   0  0  2  0  0  0  0  0  0  0  0  0
   -2.4540  -22.9110    7.4550 C   0  0  0  0  0  0  0  0  0  0  0  0
   -3.0140  -22.0070    6.8600 O   0  0  0  0  0  0  0  0  0  0  0  0
   -1.9170  -24.9070    5.9930 C   0  0  0  0  0  0  0  0  0  0  0  0
   -2.7500  -23.2390    8.6980 N   0  0  0  0  0  0  0  0  0  0  0  0
   -3.8080  -22.6020    9.4730 C   0  0  2  0  0  0  0  0  0  0  0  0
   -3.3030  -21.4430   10.3330 C   0  0  0  0  0  0  0  0  0  0  0  0
   -2.0950  -21.3420   10.6310 O   0  0  0  0  0  0  0  0  0  0  0  0
   -4.4570  -23.6450   10.4000 C   0  0  0  0  0  0  0  0  0  0  0  0
   -5.0900  -24.8310    9.6920 C   0  0  0  0  0  0  0  0  0  0  0  0
   -4.0980  -25.8980    9.2450 C   0  0  0  0  0  0  0  0  0  0  0  0
   -2.9620  -25.9690    9.7670 O   0  0  0  0  0  0  0  0  0  0  0  0
   -4.4760  -26.6900    8.3550 O   0  0  0  0  0  0  0  0  0  0  0  0
   -4.2180  -20.5760   10.7700 N   0  0  0  0  0  0  0  0  0  0  0  0
   -3.8970  -19.6240   11.8330 C   0  0  2  0  0  0  0  0  0  0  0  0
   -3.3360  -20.4320   12.9910 C   0  0  0  0  0  0  0  0  0  0  0  0
   -3.8120  -21.5340   13.2590 O   0  0  0  0  0  0  0  0  0  0  0  0
   -5.1490  -18.8740   12.3250 C   0  0  0  0  0  0  0  0  0  0  0  0
   -2.3880  -19.8590   13.7150 N   0  0  0  0  0  0  0  0  0  0  0  0
   -1.6700  -20.5730   14.7430 C   0  0  2  0  0  0  0  0  0  0  0  0
   -1.0920  -19.6600   15.8260 C   0  0  0  0  0  0  0  0  0  0  0  0
   -0.8380  -18.4830   15.5680 O   0  0  0  0  0  0  0  0  0  0  0  0
   -0.5840  -21.4380   14.1420 C   0  0  0  0  0  0  0  0  0  0  0  0
   -0.9980  -20.2110   17.0440 N   0  0  0  0  0  0  0  0  0  0  0  0
   -0.1640  -19.6310   18.1020 C   0  0  0  0  0  0  0  0  0  0  0  0
    1.0885  -24.9801    9.6387 H   0  0  0  0  0  0  0  0  0  0  0  0
    1.0362  -23.4373   10.4575 H   0  0  0  0  0  0  0  0  0  0  0  0
    2.3251  -23.7848    9.3301 H   0  0  0  0  0  0  0  0  0  0  0  0
   -0.2612  -25.1613    7.9098 H   0  0  0  0  0  0  0  0  0  0  0  0
   -0.8436  -23.0838    6.0733 H   0  0  0  0  0  0  0  0  0  0  0  0
   -2.4162  -25.5687    6.6697 H   0  0  0  0  0  0  0  0  0  0  0  0
   -1.1271  -25.4323    5.4980 H   0  0  0  0  0  0  0  0  0  0  0  0
   -2.6151  -24.5461    5.2669 H   0  0  0  0  0  0  0  0  0  0  0  0
   -2.2269  -23.9544    9.1266 H   0  0  0  0  0  0  0  0  0  0  0  0
   -4.5115  -22.2064    8.7705 H   0  0  0  0  0  0  0  0  0  0  0  0
   -5.2182  -23.1542   10.9697 H   0  0  0  0  0  0  0  0  0  0  0  0
   -3.6659  -24.0436   11.0002 H   0  0  0  0  0  0  0  0  0  0  0  0
   -5.7915  -25.2848   10.3605 H   0  0  0  0  0  0  0  0  0  0  0  0
   -5.5487  -24.4484    8.8042 H   0  0  0  0  0  0  0  0  0  0  0  0
   -5.1188  -20.5770   10.3728 H   0  0  0  0  0  0  0  0  0  0  0  0
   -3.2044  -18.8974   11.4624 H   0  0  0  0  0  0  0  0  0  0  0  0
   -5.8611  -19.5779   12.7023 H   0  0  0  0  0  0  0  0  0  0  0  0
   -5.5817  -18.3302   11.5114 H   0  0  0  0  0  0  0  0  0  0  0  0
   -4.8740  -18.1929   13.1031 H   0  0  0  0  0  0  0  0  0  0  0  0
   -2.1654  -18.9149   13.5468 H   0  0  0  0  0  0  0  0  0  0  0  0
   -2.3903  -21.1991   15.2269 H   0  0  0  0  0  0  0  0  0  0  0  0
    0.1392  -20.8165   13.6566 H   0  0  0  0  0  0  0  0  0  0  0  0
   -1.0157  -22.1075   13.4277 H   0  0  0  0  0  0  0  0  0  0  0  0
   -0.1074  -22.0017   14.9166 H   0  0  0  0  0  0  0  0  0  0  0  0
   -1.5057  -21.0326   17.2350 H   0  0  0  0  0  0  0  0  0  0  0  0
    0.3164  -18.7486   17.7340 H   0  0  0  0  0  0  0  0  0  0  0  0
    0.5773  -20.3420   18.4019 H   0  0  0  0  0  0  0  0  0  0  0  0
   -0.7773  -19.3793   18.9419 H   0  0  0  0  0  0  0  0  0  0  0  0
  1  2  1  0  0  0  0
  1 30  1  0  0  0  0
  1 31  1  0  0  0  0
  1 32  1  0  0  0  0
  2  3  2  0  0  0  0
  2  4  1  0  0  0  0
  4  5  1  0  0  0  0
  4 33  1  0  0  0  0
  5  8  1  0  0  0  0
  5 34  1  1  0  0  0
  6  5  1  0  0  0  0
  6  7  2  0  0  0  0
  8 35  1  0  0  0  0
  8 36  1  0  0  0  0
  8 37  1  0  0  0  0
  9  6  1  0  0  0  0
  9 38  1  0  0  0  0
 10  9  1  0  0  0  0
 10 39  1  1  0  0  0
 11 10  1  0  0  0  0
 11 12  2  0  0  0  0
 13 14  1  0  0  0  0
 13 10  1  0  0  0  0
 13 40  1  0  0  0  0
 13 41  1  0  0  0  0
 14 42  1  0  0  0  0
 14 43  1  0  0  0  0
 15 17  1  0  0  0  0
 15 14  1  0  0  0  0
 16 15  2  0  0  0  0
 18 11  1  0  0  0  0
 18 44  1  0  0  0  0
 19 18  1  0  0  0  0
 19 20  1  0  0  0  0
 19 45  1  6  0  0  0
 20 21  2  0  0  0  0
 20 23  1  0  0  0  0
 22 19  1  0  0  0  0
 22 46  1  0  0  0  0
 22 47  1  0  0  0  0
 22 48  1  0  0  0  0
 23 24  1  0  0  0  0
 23 49  1  0  0  0  0
 24 27  1  0  0  0  0
 24 25  1  0  0  0  0
 24 50  1  6  0  0  0
 25 28  1  0  0  0  0
 25 26  2  0  0  0  0
 27 51  1  0  0  0  0
 27 52  1  0  0  0  0
 27 53  1  0  0  0  0
 28 29  1  0  0  0  0
 28 54  1  0  0  0  0
 29 55  1  0  0  0  0
 29 56  1  0  0  0  0
 29 57  1  0  0  0  0
M  CHG  1  17  -1
M  END
>  <MODEL>
       0

$$$$
