selected_4mers/AEAL/35_noH.pdb
 OpenBabel03042517493D

 66 65  0  0  1  0  0  0  0  0999 V2000
   -1.6980   -8.3700   34.2020 C   0  0  0  0  0  0  0  0  0  0  0  0
   -1.4760   -9.5660   35.1420 C   0  0  0  0  0  0  0  0  0  0  0  0
   -0.4580  -10.1990   35.0980 O   0  0  0  0  0  0  0  0  0  0  0  0
   -2.4270   -9.8290   36.0480 N   0  0  0  0  0  0  0  0  0  0  0  0
   -2.3070  -11.0240   36.9390 C   0  0  2  0  0  0  0  0  0  0  0  0
   -2.6980  -12.2600   36.1810 C   0  0  0  0  0  0  0  0  0  0  0  0
   -3.8340  -12.6240   36.1490 O   0  0  0  0  0  0  0  0  0  0  0  0
   -3.2470  -10.8040   38.2240 C   0  0  0  0  0  0  0  0  0  0  0  0
   -1.7070  -12.9070   35.5780 N   0  0  0  0  0  0  0  0  0  0  0  0
   -2.0310  -14.1220   34.8020 C   0  0  2  0  0  0  0  0  0  0  0  0
   -1.9110  -15.4160   35.6220 C   0  0  0  0  0  0  0  0  0  0  0  0
   -2.5490  -16.4420   35.1970 O   0  0  0  0  0  0  0  0  0  0  0  0
   -1.0660  -14.2430   33.6260 C   0  0  0  0  0  0  0  0  0  0  0  0
   -1.2060  -13.1190   32.6310 C   0  0  0  0  0  0  0  0  0  0  0  0
   -0.4810  -13.3490   31.3600 C   0  0  0  0  0  0  0  0  0  0  0  0
   -0.1580  -14.5340   31.0450 O   0  0  0  0  0  0  0  0  0  0  0  0
   -0.3550  -12.3890   30.5940 O   0  0  0  0  0  0  0  0  0  0  0  0
   -1.2160  -15.3840   36.7820 N   0  0  0  0  0  0  0  0  0  0  0  0
   -1.0400  -16.5940   37.5900 C   0  0  2  0  0  0  0  0  0  0  0  0
   -2.4250  -17.1060   37.9330 C   0  0  0  0  0  0  0  0  0  0  0  0
   -3.3580  -16.3520   38.1840 O   0  0  0  0  0  0  0  0  0  0  0  0
   -0.3320  -16.2720   38.8780 C   0  0  0  0  0  0  0  0  0  0  0  0
   -2.4810  -18.4230   38.0270 N   0  0  0  0  0  0  0  0  0  0  0  0
   -3.7380  -19.0250   38.4310 C   0  0  2  0  0  0  0  0  0  0  0  0
   -4.1350  -18.7460   39.8970 C   0  0  0  0  0  0  0  0  0  0  0  0
   -3.2980  -18.6570   40.7850 O   0  0  0  0  0  0  0  0  0  0  0  0
   -3.5520  -20.5520   38.1840 C   0  0  0  0  0  0  0  0  0  0  0  0
   -3.4570  -20.8360   36.6710 C   0  0  0  0  0  0  0  0  0  0  0  0
   -3.0330  -22.3320   36.3880 C   0  0  0  0  0  0  0  0  0  0  0  0
   -4.8280  -20.6680   36.0120 C   0  0  0  0  0  0  0  0  0  0  0  0
   -5.4300  -18.5780   40.1910 N   0  0  0  0  0  0  0  0  0  0  0  0
   -5.9160  -18.3610   41.5480 C   0  0  0  0  0  0  0  0  0  0  0  0
   -0.8649   -8.2798   33.5367 H   0  0  0  0  0  0  0  0  0  0  0  0
   -1.7913   -7.4745   34.7801 H   0  0  0  0  0  0  0  0  0  0  0  0
   -2.5923   -8.5233   33.6349 H   0  0  0  0  0  0  0  0  0  0  0  0
   -3.2072   -9.2338   36.1275 H   0  0  0  0  0  0  0  0  0  0  0  0
   -1.2963  -11.1473   37.2678 H   0  0  0  0  0  0  0  0  0  0  0  0
   -4.2613  -10.6794   37.9068 H   0  0  0  0  0  0  0  0  0  0  0  0
   -2.9289   -9.9301   38.7532 H   0  0  0  0  0  0  0  0  0  0  0  0
   -3.1766  -11.6560   38.8675 H   0  0  0  0  0  0  0  0  0  0  0  0
   -0.7792  -12.5849   35.6464 H   0  0  0  0  0  0  0  0  0  0  0  0
   -3.0478  -14.0136   34.4868 H   0  0  0  0  0  0  0  0  0  0  0  0
   -0.0652  -14.2406   34.0045 H   0  0  0  0  0  0  0  0  0  0  0  0
   -1.2974  -15.1539   33.1145 H   0  0  0  0  0  0  0  0  0  0  0  0
   -2.2450  -12.9936   32.4083 H   0  0  0  0  0  0  0  0  0  0  0  0
   -0.7748  -12.2496   33.0817 H   0  0  0  0  0  0  0  0  0  0  0  0
   -0.8224  -14.5351   37.0881 H   0  0  0  0  0  0  0  0  0  0  0  0
   -0.4633  -17.3128   37.0462 H   0  0  0  0  0  0  0  0  0  0  0  0
   -0.9024  -15.5533   39.4285 H   0  0  0  0  0  0  0  0  0  0  0  0
    0.6357  -15.8697   38.6621 H   0  0  0  0  0  0  0  0  0  0  0  0
   -0.2258  -17.1640   39.4593 H   0  0  0  0  0  0  0  0  0  0  0  0
   -1.6932  -18.9792   37.8288 H   0  0  0  0  0  0  0  0  0  0  0  0
   -4.5415  -18.6009   37.8659 H   0  0  0  0  0  0  0  0  0  0  0  0
   -2.6537  -20.8812   38.6630 H   0  0  0  0  0  0  0  0  0  0  0  0
   -4.3927  -21.0771   38.5870 H   0  0  0  0  0  0  0  0  0  0  0  0
   -2.7335  -20.1508   36.2812 H   0  0  0  0  0  0  0  0  0  0  0  0
   -3.7726  -22.9940   36.7876 H   0  0  0  0  0  0  0  0  0  0  0  0
   -2.0895  -22.5293   36.8525 H   0  0  0  0  0  0  0  0  0  0  0  0
   -2.9499  -22.4856   35.3323 H   0  0  0  0  0  0  0  0  0  0  0  0
   -5.5149  -21.3721   36.4332 H   0  0  0  0  0  0  0  0  0  0  0  0
   -4.7413  -20.8401   34.9595 H   0  0  0  0  0  0  0  0  0  0  0  0
   -5.1864  -19.6743   36.1826 H   0  0  0  0  0  0  0  0  0  0  0  0
   -6.0849  -18.6021   39.4563 H   0  0  0  0  0  0  0  0  0  0  0  0
   -5.0892  -18.3612   42.2272 H   0  0  0  0  0  0  0  0  0  0  0  0
   -6.5955  -19.1439   41.8130 H   0  0  0  0  0  0  0  0  0  0  0  0
   -6.4200  -17.4186   41.5999 H   0  0  0  0  0  0  0  0  0  0  0  0
  1  2  1  0  0  0  0
  1 33  1  0  0  0  0
  1 34  1  0  0  0  0
  1 35  1  0  0  0  0
  2  4  1  0  0  0  0
  3  2  2  0  0  0  0
  4  5  1  0  0  0  0
  4 36  1  0  0  0  0
  5  8  1  0  0  0  0
  5 37  1  1  0  0  0
  6  5  1  0  0  0  0
  7  6  2  0  0  0  0
  8 38  1  0  0  0  0
  8 39  1  0  0  0  0
  8 40  1  0  0  0  0
  9  6  1  0  0  0  0
  9 41  1  0  0  0  0
 10  9  1  0  0  0  0
 10 11  1  0  0  0  0
 10 42  1  6  0  0  0
 11 18  1  0  0  0  0
 12 11  2  0  0  0  0
 13 10  1  0  0  0  0
 13 43  1  0  0  0  0
 13 44  1  0  0  0  0
 14 13  1  0  0  0  0
 14 45  1  0  0  0  0
 14 46  1  0  0  0  0
 15 14  1  0  0  0  0
 16 15  1  0  0  0  0
 17 15  2  0  0  0  0
 18 19  1  0  0  0  0
 18 47  1  0  0  0  0
 19 20  1  0  0  0  0
 19 22  1  0  0  0  0
 19 48  1  6  0  0  0
 20 23  1  0  0  0  0
 20 21  2  0  0  0  0
 22 49  1  0  0  0  0
 22 50  1  0  0  0  0
 22 51  1  0  0  0  0
 23 24  1  0  0  0  0
 23 52  1  0  0  0  0
 24 25  1  0  0  0  0
 24 53  1  6  0  0  0
 25 31  1  0  0  0  0
 25 26  2  0  0  0  0
 27 24  1  0  0  0  0
 27 54  1  0  0  0  0
 27 55  1  0  0  0  0
 28 27  1  0  0  0  0
 28 56  1  0  0  0  0
 29 28  1  0  0  0  0
 29 57  1  0  0  0  0
 29 58  1  0  0  0  0
 29 59  1  0  0  0  0
 30 28  1  0  0  0  0
 30 60  1  0  0  0  0
 30 61  1  0  0  0  0
 30 62  1  0  0  0  0
 31 32  1  0  0  0  0
 31 63  1  0  0  0  0
 32 64  1  0  0  0  0
 32 65  1  0  0  0  0
 32 66  1  0  0  0  0
M  CHG  1  16  -1
M  END
>  <MODEL>
       0

$$$$
selected_4mers/AEAL/36_noH.pdb
 OpenBabel03042517493D

 66 65  0  0  1  0  0  0  0  0999 V2000
   -2.0420  -77.3620   18.4040 C   0  0  0  0  0  0  0  0  0  0  0  0
   -0.8600  -77.4570   17.4460 C   0  0  0  0  0  0  0  0  0  0  0  0
   -0.9140  -78.1580   16.4460 O   0  0  0  0  0  0  0  0  0  0  0  0
    0.1870  -76.6950   17.7320 N   0  0  0  0  0  0  0  0  0  0  0  0
    1.3480  -76.5840   16.8710 C   0  0  2  0  0  0  0  0  0  0  0  0
    1.9670  -77.9380   16.5570 C   0  0  0  0  0  0  0  0  0  0  0  0
    2.4270  -78.1810   15.4200 O   0  0  0  0  0  0  0  0  0  0  0  0
    2.3770  -75.6970   17.4990 C   0  0  0  0  0  0  0  0  0  0  0  0
    1.9750  -78.8190   17.5630 N   0  0  0  0  0  0  0  0  0  0  0  0
    2.5960  -80.1320   17.4120 C   0  0  2  0  0  0  0  0  0  0  0  0
    1.8280  -81.1010   16.5020 C   0  0  0  0  0  0  0  0  0  0  0  0
    2.3910  -82.1080   16.0660 O   0  0  0  0  0  0  0  0  0  0  0  0
    2.8680  -80.7360   18.7910 C   0  0  0  0  0  0  0  0  0  0  0  0
    3.9250  -79.8940   19.5080 C   0  0  0  0  0  0  0  0  0  0  0  0
    4.1860  -80.3050   20.9380 C   0  0  0  0  0  0  0  0  0  0  0  0
    3.3870  -81.1030   21.4840 O   0  0  0  0  0  0  0  0  0  0  0  0
    5.2010  -79.8090   21.5020 O   0  0  0  0  0  0  0  0  0  0  0  0
    0.5780  -80.7900   16.1880 N   0  0  0  0  0  0  0  0  0  0  0  0
   -0.1890  -81.5580   15.2140 C   0  0  2  0  0  0  0  0  0  0  0  0
   -0.1250  -80.9910   13.7880 C   0  0  0  0  0  0  0  0  0  0  0  0
   -0.6520  -81.6170   12.8700 O   0  0  0  0  0  0  0  0  0  0  0  0
   -1.6230  -81.6640   15.6250 C   0  0  0  0  0  0  0  0  0  0  0  0
    0.4940  -79.8330   13.5830 N   0  0  0  0  0  0  0  0  0  0  0  0
    0.6040  -79.3050   12.2180 C   0  0  2  0  0  0  0  0  0  0  0  0
    1.5090  -80.1820   11.3480 C   0  0  0  0  0  0  0  0  0  0  0  0
    2.4920  -80.7730   11.8250 O   0  0  0  0  0  0  0  0  0  0  0  0
    1.1210  -77.8600   12.2200 C   0  0  0  0  0  0  0  0  0  0  0  0
    0.3230  -76.8260   13.0130 C   0  0  0  0  0  0  0  0  0  0  0  0
    1.1070  -75.4810   13.0210 C   0  0  0  0  0  0  0  0  0  0  0  0
   -1.0910  -76.6950   12.4470 C   0  0  0  0  0  0  0  0  0  0  0  0
    1.1840  -80.2570   10.0560 N   0  0  0  0  0  0  0  0  0  0  0  0
    1.9890  -81.0010    9.0950 C   0  0  0  0  0  0  0  0  0  0  0  0
   -2.8217  -78.0164   18.0744 H   0  0  0  0  0  0  0  0  0  0  0  0
   -2.4053  -76.3558   18.4235 H   0  0  0  0  0  0  0  0  0  0  0  0
   -1.7286  -77.6471   19.3865 H   0  0  0  0  0  0  0  0  0  0  0  0
    0.1752  -76.1792   18.5705 H   0  0  0  0  0  0  0  0  0  0  0  0
    1.0127  -76.1570   15.9490 H   0  0  0  0  0  0  0  0  0  0  0  0
    2.7072  -76.1303   18.4199 H   0  0  0  0  0  0  0  0  0  0  0  0
    1.9496  -74.7349   17.6905 H   0  0  0  0  0  0  0  0  0  0  0  0
    3.2098  -75.5916   16.8355 H   0  0  0  0  0  0  0  0  0  0  0  0
    1.5550  -78.5782   18.4202 H   0  0  0  0  0  0  0  0  0  0  0  0
    3.5230  -79.9747   16.9012 H   0  0  0  0  0  0  0  0  0  0  0  0
    3.2245  -81.7386   18.6788 H   0  0  0  0  0  0  0  0  0  0  0  0
    1.9648  -80.7447   19.3647 H   0  0  0  0  0  0  0  0  0  0  0  0
    3.5983  -78.8751   19.5070 H   0  0  0  0  0  0  0  0  0  0  0  0
    4.8424  -80.0386   18.9766 H   0  0  0  0  0  0  0  0  0  0  0  0
    0.1545  -80.0166   16.6259 H   0  0  0  0  0  0  0  0  0  0  0  0
    0.2695  -82.5246   15.1973 H   0  0  0  0  0  0  0  0  0  0  0  0
   -2.0639  -80.6891   15.6359 H   0  0  0  0  0  0  0  0  0  0  0  0
   -1.6829  -82.0935   16.6032 H   0  0  0  0  0  0  0  0  0  0  0  0
   -2.1482  -82.2853   14.9300 H   0  0  0  0  0  0  0  0  0  0  0  0
    0.8757  -79.3334   14.3406 H   0  0  0  0  0  0  0  0  0  0  0  0
   -0.3804  -79.3155   11.7988 H   0  0  0  0  0  0  0  0  0  0  0  0
    1.1521  -77.5294   11.2028 H   0  0  0  0  0  0  0  0  0  0  0  0
    2.0686  -77.9104   12.7143 H   0  0  0  0  0  0  0  0  0  0  0  0
    0.2070  -77.1398   14.0294 H   0  0  0  0  0  0  0  0  0  0  0  0
    1.2398  -75.1396   12.0157 H   0  0  0  0  0  0  0  0  0  0  0  0
    2.0637  -75.6285   13.4769 H   0  0  0  0  0  0  0  0  0  0  0  0
    0.5563  -74.7505   13.5760 H   0  0  0  0  0  0  0  0  0  0  0  0
   -1.0386  -76.3815   11.4253 H   0  0  0  0  0  0  0  0  0  0  0  0
   -1.6368  -75.9707   13.0148 H   0  0  0  0  0  0  0  0  0  0  0  0
   -1.5874  -77.6411   12.5047 H   0  0  0  0  0  0  0  0  0  0  0  0
    0.3738  -79.7946    9.7414 H   0  0  0  0  0  0  0  0  0  0  0  0
    2.8267  -81.4399    9.5955 H   0  0  0  0  0  0  0  0  0  0  0  0
    2.3374  -80.3370    8.3317 H   0  0  0  0  0  0  0  0  0  0  0  0
    1.3938  -81.7722    8.6524 H   0  0  0  0  0  0  0  0  0  0  0  0
  1  2  1  0  0  0  0
  1 33  1  0  0  0  0
  1 34  1  0  0  0  0
  1 35  1  0  0  0  0
  2  4  1  0  0  0  0
  3  2  2  0  0  0  0
  4  5  1  0  0  0  0
  4 36  1  0  0  0  0
  5  8  1  0  0  0  0
  5 37  1  1  0  0  0
  6  5  1  0  0  0  0
  7  6  2  0  0  0  0
  8 38  1  0  0  0  0
  8 39  1  0  0  0  0
  8 40  1  0  0  0  0
  9  6  1  0  0  0  0
  9 41  1  0  0  0  0
 10  9  1  0  0  0  0
 10 11  1  0  0  0  0
 10 42  1  6  0  0  0
 11 18  1  0  0  0  0
 12 11  2  0  0  0  0
 13 10  1  0  0  0  0
 13 43  1  0  0  0  0
 13 44  1  0  0  0  0
 14 13  1  0  0  0  0
 14 45  1  0  0  0  0
 14 46  1  0  0  0  0
 15 14  1  0  0  0  0
 16 15  1  0  0  0  0
 17 15  2  0  0  0  0
 18 19  1  0  0  0  0
 18 47  1  0  0  0  0
 19 20  1  0  0  0  0
 19 22  1  0  0  0  0
 19 48  1  6  0  0  0
 20 23  1  0  0  0  0
 20 21  2  0  0  0  0
 22 49  1  0  0  0  0
 22 50  1  0  0  0  0
 22 51  1  0  0  0  0
 23 24  1  0  0  0  0
 23 52  1  0  0  0  0
 24 25  1  0  0  0  0
 24 53  1  6  0  0  0
 25 31  1  0  0  0  0
 25 26  2  0  0  0  0
 27 24  1  0  0  0  0
 27 54  1  0  0  0  0
 27 55  1  0  0  0  0
 28 27  1  0  0  0  0
 28 56  1  0  0  0  0
 29 28  1  0  0  0  0
 29 57  1  0  0  0  0
 29 58  1  0  0  0  0
 29 59  1  0  0  0  0
 30 28  1  0  0  0  0
 30 60  1  0  0  0  0
 30 61  1  0  0  0  0
 30 62  1  0  0  0  0
 31 32  1  0  0  0  0
 31 63  1  0  0  0  0
 32 64  1  0  0  0  0
 32 65  1  0  0  0  0
 32 66  1  0  0  0  0
M  CHG  1  16  -1
M  END
>  <MODEL>
       0

$$$$
selected_4mers/AEAL/37_noH.pdb
 OpenBabel03042517493D

 66 65  0  0  1  0  0  0  0  0999 V2000
   21.8160  106.9890   -2.3250 C   0  0  0  0  0  0  0  0  0  0  0  0
   21.2490  106.7820   -3.7360 C   0  0  0  0  0  0  0  0  0  0  0  0
   20.2800  106.0310   -3.9240 O   0  0  0  0  0  0  0  0  0  0  0  0
   21.8600  107.4460   -4.7190 N   0  0  0  0  0  0  0  0  0  0  0  0
   21.5130  107.2110   -6.1330 C   0  0  2  0  0  0  0  0  0  0  0  0
   21.5370  105.7370   -6.4740 C   0  0  0  0  0  0  0  0  0  0  0  0
   20.6870  105.2600   -7.2250 O   0  0  0  0  0  0  0  0  0  0  0  0
   22.4790  107.9310   -7.0240 C   0  0  0  0  0  0  0  0  0  0  0  0
   22.5630  105.0130   -5.9830 N   0  0  0  0  0  0  0  0  0  0  0  0
   22.7020  103.5890   -6.2880 C   0  0  2  0  0  0  0  0  0  0  0  0
   21.5330  102.7800   -5.7110 C   0  0  0  0  0  0  0  0  0  0  0  0
   20.9500  101.9150   -6.4040 O   0  0  0  0  0  0  0  0  0  0  0  0
   24.0430  103.0550   -5.7510 C   0  0  0  0  0  0  0  0  0  0  0  0
   25.2740  103.6740   -6.4400 C   0  0  0  0  0  0  0  0  0  0  0  0
   25.6130  105.1590   -6.0570 C   0  0  0  0  0  0  0  0  0  0  0  0
   25.0220  105.8050   -5.1360 O   0  0  0  0  0  0  0  0  0  0  0  0
   26.5410  105.6910   -6.7140 O   0  0  0  0  0  0  0  0  0  0  0  0
   21.1940  103.0600   -4.4560 N   0  0  0  0  0  0  0  0  0  0  0  0
   20.0610  102.3890   -3.8010 C   0  0  2  0  0  0  0  0  0  0  0  0
   18.7510  102.7070   -4.5320 C   0  0  0  0  0  0  0  0  0  0  0  0
   17.9500  101.8000   -4.7890 O   0  0  0  0  0  0  0  0  0  0  0  0
   19.9600  102.8120   -2.3040 C   0  0  0  0  0  0  0  0  0  0  0  0
   18.5380  103.9730   -4.8890 N   0  0  0  0  0  0  0  0  0  0  0  0
   17.3340  104.3270   -5.6770 C   0  0  2  0  0  0  0  0  0  0  0  0
   17.2410  103.5600   -6.9690 C   0  0  0  0  0  0  0  0  0  0  0  0
   16.1840  103.0210   -7.2950 O   0  0  0  0  0  0  0  0  0  0  0  0
   17.2250  105.8580   -5.9440 C   0  0  0  0  0  0  0  0  0  0  0  0
   16.8680  106.6700   -4.7170 C   0  0  0  0  0  0  0  0  0  0  0  0
   17.0390  108.1660   -5.0030 C   0  0  0  0  0  0  0  0  0  0  0  0
   15.4200  106.3260   -4.2410 C   0  0  0  0  0  0  0  0  0  0  0  0
   18.3580  103.4670   -7.6900 N   0  0  0  0  0  0  0  0  0  0  0  0
   18.3680  102.6990   -8.9080 C   0  0  0  0  0  0  0  0  0  0  0  0
   22.6430  107.6665   -2.3688 H   0  0  0  0  0  0  0  0  0  0  0  0
   22.1447  106.0499   -1.9314 H   0  0  0  0  0  0  0  0  0  0  0  0
   21.0556  107.3950   -1.6911 H   0  0  0  0  0  0  0  0  0  0  0  0
   22.5560  108.1056   -4.4960 H   0  0  0  0  0  0  0  0  0  0  0  0
   20.5209  107.5812   -6.2867 H   0  0  0  0  0  0  0  0  0  0  0  0
   23.4660  107.5516   -6.8604 H   0  0  0  0  0  0  0  0  0  0  0  0
   22.4577  108.9774   -6.8014 H   0  0  0  0  0  0  0  0  0  0  0  0
   22.2031  107.7782   -8.0465 H   0  0  0  0  0  0  0  0  0  0  0  0
   23.2315  105.4511   -5.4082 H   0  0  0  0  0  0  0  0  0  0  0  0
   22.6863  103.4757   -7.3519 H   0  0  0  0  0  0  0  0  0  0  0  0
   24.0977  103.2697   -4.7042 H   0  0  0  0  0  0  0  0  0  0  0  0
   24.0657  102.0045   -5.9529 H   0  0  0  0  0  0  0  0  0  0  0  0
   26.1231  103.0717   -6.1928 H   0  0  0  0  0  0  0  0  0  0  0  0
   25.0361  103.6957   -7.4830 H   0  0  0  0  0  0  0  0  0  0  0  0
   21.7123  103.7305   -3.9549 H   0  0  0  0  0  0  0  0  0  0  0  0
   20.2289  101.3331   -3.8442 H   0  0  0  0  0  0  0  0  0  0  0  0
   19.7918  103.8669   -2.2420 H   0  0  0  0  0  0  0  0  0  0  0  0
   20.8721  102.5661   -1.8016 H   0  0  0  0  0  0  0  0  0  0  0  0
   19.1467  102.2934   -1.8409 H   0  0  0  0  0  0  0  0  0  0  0  0
   19.1801  104.6727   -4.6294 H   0  0  0  0  0  0  0  0  0  0  0  0
   16.5018  104.0406   -5.0684 H   0  0  0  0  0  0  0  0  0  0  0  0
   16.4702  106.0180   -6.6854 H   0  0  0  0  0  0  0  0  0  0  0  0
   18.1913  106.1873   -6.2645 H   0  0  0  0  0  0  0  0  0  0  0  0
   17.5352  106.4171   -3.9196 H   0  0  0  0  0  0  0  0  0  0  0  0
   16.3839  108.4542   -5.7984 H   0  0  0  0  0  0  0  0  0  0  0  0
   18.0520  108.3614   -5.2867 H   0  0  0  0  0  0  0  0  0  0  0  0
   16.8004  108.7268   -4.1235 H   0  0  0  0  0  0  0  0  0  0  0  0
   14.7230  106.5669   -5.0163 H   0  0  0  0  0  0  0  0  0  0  0  0
   15.1884  106.8939   -3.3642 H   0  0  0  0  0  0  0  0  0  0  0  0
   15.3570  105.2817   -4.0166 H   0  0  0  0  0  0  0  0  0  0  0  0
   19.1768  103.9237   -7.3897 H   0  0  0  0  0  0  0  0  0  0  0  0
   17.3978  102.2789   -9.0727 H   0  0  0  0  0  0  0  0  0  0  0  0
   19.0885  101.9120   -8.8275 H   0  0  0  0  0  0  0  0  0  0  0  0
   18.6252  103.3354   -9.7288 H   0  0  0  0  0  0  0  0  0  0  0  0
  1  2  1  0  0  0  0
  1 33  1  0  0  0  0
  1 34  1  0  0  0  0
  1 35  1  0  0  0  0
  2  4  1  0  0  0  0
  3  2  2  0  0  0  0
  4  5  1  0  0  0  0
  4 36  1  0  0  0  0
  5  8  1  0  0  0  0
  5 37  1  1  0  0  0
  6  5  1  0  0  0  0
  7  6  2  0  0  0  0
  8 38  1  0  0  0  0
  8 39  1  0  0  0  0
  8 40  1  0  0  0  0
  9  6  1  0  0  0  0
  9 41  1  0  0  0  0
 10  9  1  0  0  0  0
 10 11  1  0  0  0  0
 10 42  1  6  0  0  0
 11 18  1  0  0  0  0
 12 11  2  0  0  0  0
 13 10  1  0  0  0  0
 13 43  1  0  0  0  0
 13 44  1  0  0  0  0
 14 13  1  0  0  0  0
 14 45  1  0  0  0  0
 14 46  1  0  0  0  0
 15 14  1  0  0  0  0
 16 15  1  0  0  0  0
 17 15  2  0  0  0  0
 18 19  1  0  0  0  0
 18 47  1  0  0  0  0
 19 20  1  0  0  0  0
 19 22  1  0  0  0  0
 19 48  1  6  0  0  0
 20 23  1  0  0  0  0
 20 21  2  0  0  0  0
 22 49  1  0  0  0  0
 22 50  1  0  0  0  0
 22 51  1  0  0  0  0
 23 24  1  0  0  0  0
 23 52  1  0  0  0  0
 24 25  1  0  0  0  0
 24 53  1  6  0  0  0
 25 31  1  0  0  0  0
 25 26  2  0  0  0  0
 27 24  1  0  0  0  0
 27 54  1  0  0  0  0
 27 55  1  0  0  0  0
 28 27  1  0  0  0  0
 28 56  1  0  0  0  0
 29 28  1  0  0  0  0
 29 57  1  0  0  0  0
 29 58  1  0  0  0  0
 29 59  1  0  0  0  0
 30 28  1  0  0  0  0
 30 60  1  0  0  0  0
 30 61  1  0  0  0  0
 30 62  1  0  0  0  0
 31 32  1  0  0  0  0
 31 63  1  0  0  0  0
 32 64  1  0  0  0  0
 32 65  1  0  0  0  0
 32 66  1  0  0  0  0
M  CHG  1  16  -1
M  END
>  <MODEL>
       0

$$$$
selected_4mers/AEAL/38_noH.pdb
 OpenBabel03042517493D

 66 65  0  0  1  0  0  0  0  0999 V2000
  -33.2500    4.6810    5.5100 C   0  0  0  0  0  0  0  0  0  0  0  0
  -32.8240    4.0160    4.2080 C   0  0  0  0  0  0  0  0  0  0  0  0
  -33.1900    4.4750    3.1250 O   0  0  0  0  0  0  0  0  0  0  0  0
  -32.0490    2.9380    4.3110 N   0  0  0  0  0  0  0  0  0  0  0  0
  -31.5980    2.2200    3.1240 C   0  0  2  0  0  0  0  0  0  0  0  0
  -32.8020    1.6340    2.3910 C   0  0  0  0  0  0  0  0  0  0  0  0
  -32.8870    1.6960    1.1660 O   0  0  0  0  0  0  0  0  0  0  0  0
  -30.6130    1.1110    3.5140 C   0  0  0  0  0  0  0  0  0  0  0  0
  -33.7380    1.0710    3.1490 N   0  0  0  0  0  0  0  0  0  0  0  0
  -34.9350    0.4880    2.5600 C   0  0  2  0  0  0  0  0  0  0  0  0
  -35.7570    1.5640    1.8610 C   0  0  0  0  0  0  0  0  0  0  0  0
  -36.2920    1.3320    0.7790 O   0  0  0  0  0  0  0  0  0  0  0  0
  -35.7740   -0.2050    3.6400 C   0  0  0  0  0  0  0  0  0  0  0  0
  -35.0460   -1.3680    4.3110 C   0  0  0  0  0  0  0  0  0  0  0  0
  -35.8420   -2.0140    5.4280 C   0  0  0  0  0  0  0  0  0  0  0  0
  -36.3800   -1.2780    6.2810 O   0  0  0  0  0  0  0  0  0  0  0  0
  -35.9160   -3.2610    5.4600 O   0  0  0  0  0  0  0  0  0  0  0  0
  -35.8500    2.7410    2.4740 N   0  0  0  0  0  0  0  0  0  0  0  0
  -36.6120    3.8420    1.8940 C   0  0  2  0  0  0  0  0  0  0  0  0
  -35.9630    4.3200    0.6000 C   0  0  0  0  0  0  0  0  0  0  0  0
  -36.6560    4.5960   -0.3790 O   0  0  0  0  0  0  0  0  0  0  0  0
  -36.7180    4.9930    2.8870 C   0  0  0  0  0  0  0  0  0  0  0  0
  -34.6380    4.4240    0.5890 N   0  0  0  0  0  0  0  0  0  0  0  0
  -33.9490    4.8570   -0.6190 C   0  0  2  0  0  0  0  0  0  0  0  0
  -34.1270    3.8360   -1.7410 C   0  0  0  0  0  0  0  0  0  0  0  0
  -34.3300    4.2110   -2.8960 O   0  0  0  0  0  0  0  0  0  0  0  0
  -32.4630    5.0860   -0.3380 C   0  0  0  0  0  0  0  0  0  0  0  0
  -32.1570    6.3060    0.5370 C   0  0  0  0  0  0  0  0  0  0  0  0
  -30.6720    6.3330    0.8640 C   0  0  0  0  0  0  0  0  0  0  0  0
  -32.5750    7.5850   -0.1830 C   0  0  0  0  0  0  0  0  0  0  0  0
  -34.0500    2.5480   -1.4120 N   0  0  0  0  0  0  0  0  0  0  0  0
  -34.2260    1.5120   -2.4260 C   0  0  0  0  0  0  0  0  0  0  0  0
  -33.8650    5.5292    5.2927 H   0  0  0  0  0  0  0  0  0  0  0  0
  -32.3819    4.9986    6.0490 H   0  0  0  0  0  0  0  0  0  0  0  0
  -33.8024    3.9825    6.1032 H   0  0  0  0  0  0  0  0  0  0  0  0
  -31.7762    2.6207    5.2021 H   0  0  0  0  0  0  0  0  0  0  0  0
  -31.0927    2.9017    2.4722 H   0  0  0  0  0  0  0  0  0  0  0  0
  -31.0984    0.4164    4.1673 H   0  0  0  0  0  0  0  0  0  0  0  0
  -29.7706    1.5417    4.0137 H   0  0  0  0  0  0  0  0  0  0  0  0
  -30.2828    0.6012    2.6331 H   0  0  0  0  0  0  0  0  0  0  0  0
  -33.6195    1.0479    4.1261 H   0  0  0  0  0  0  0  0  0  0  0  0
  -34.6401   -0.2417    1.8351 H   0  0  0  0  0  0  0  0  0  0  0  0
  -36.6689   -0.5789    3.1881 H   0  0  0  0  0  0  0  0  0  0  0  0
  -35.9807    0.5214    4.3979 H   0  0  0  0  0  0  0  0  0  0  0  0
  -34.1262   -1.0027    4.7177 H   0  0  0  0  0  0  0  0  0  0  0  0
  -34.8890   -2.1160    3.5622 H   0  0  0  0  0  0  0  0  0  0  0  0
  -35.3951    2.8720    3.3372 H   0  0  0  0  0  0  0  0  0  0  0  0
  -37.5970    3.4895    1.6694 H   0  0  0  0  0  0  0  0  0  0  0  0
  -35.7382    5.3546    3.1198 H   0  0  0  0  0  0  0  0  0  0  0  0
  -37.1933    4.6494    3.7819 H   0  0  0  0  0  0  0  0  0  0  0  0
  -37.2969    5.7833    2.4565 H   0  0  0  0  0  0  0  0  0  0  0  0
  -34.1214    4.2080    1.3987 H   0  0  0  0  0  0  0  0  0  0  0  0
  -34.3824    5.7829   -0.9350 H   0  0  0  0  0  0  0  0  0  0  0  0
  -31.9626    5.2141   -1.2750 H   0  0  0  0  0  0  0  0  0  0  0  0
  -32.1234    4.2304    0.2074 H   0  0  0  0  0  0  0  0  0  0  0  0
  -32.7114    6.2403    1.4498 H   0  0  0  0  0  0  0  0  0  0  0  0
  -30.1082    6.3987   -0.0430 H   0  0  0  0  0  0  0  0  0  0  0  0
  -30.4053    5.4377    1.3857 H   0  0  0  0  0  0  0  0  0  0  0  0
  -30.4577    7.1817    1.4794 H   0  0  0  0  0  0  0  0  0  0  0  0
  -32.0318    7.6715   -1.1008 H   0  0  0  0  0  0  0  0  0  0  0  0
  -32.3624    8.4298    0.4383 H   0  0  0  0  0  0  0  0  0  0  0  0
  -33.6240    7.5505   -0.3913 H   0  0  0  0  0  0  0  0  0  0  0  0
  -33.8730    2.2922   -0.4779 H   0  0  0  0  0  0  0  0  0  0  0  0
  -34.4083    1.9698   -3.3758 H   0  0  0  0  0  0  0  0  0  0  0  0
  -35.0582    0.8930   -2.1628 H   0  0  0  0  0  0  0  0  0  0  0  0
  -33.3405    0.9141   -2.4824 H   0  0  0  0  0  0  0  0  0  0  0  0
  1  2  1  0  0  0  0
  1 33  1  0  0  0  0
  1 34  1  0  0  0  0
  1 35  1  0  0  0  0
  2  4  1  0  0  0  0
  3  2  2  0  0  0  0
  4  5  1  0  0  0  0
  4 36  1  0  0  0  0
  5  8  1  0  0  0  0
  5 37  1  1  0  0  0
  6  5  1  0  0  0  0
  7  6  2  0  0  0  0
  8 38  1  0  0  0  0
  8 39  1  0  0  0  0
  8 40  1  0  0  0  0
  9  6  1  0  0  0  0
  9 41  1  0  0  0  0
 10  9  1  0  0  0  0
 10 11  1  0  0  0  0
 10 42  1  6  0  0  0
 11 18  1  0  0  0  0
 12 11  2  0  0  0  0
 13 10  1  0  0  0  0
 13 43  1  0  0  0  0
 13 44  1  0  0  0  0
 14 13  1  0  0  0  0
 14 45  1  0  0  0  0
 14 46  1  0  0  0  0
 15 14  1  0  0  0  0
 16 15  1  0  0  0  0
 17 15  2  0  0  0  0
 18 19  1  0  0  0  0
 18 47  1  0  0  0  0
 19 20  1  0  0  0  0
 19 22  1  0  0  0  0
 19 48  1  6  0  0  0
 20 23  1  0  0  0  0
 20 21  2  0  0  0  0
 22 49  1  0  0  0  0
 22 50  1  0  0  0  0
 22 51  1  0  0  0  0
 23 24  1  0  0  0  0
 23 52  1  0  0  0  0
 24 25  1  0  0  0  0
 24 53  1  6  0  0  0
 25 31  1  0  0  0  0
 25 26  2  0  0  0  0
 27 24  1  0  0  0  0
 27 54  1  0  0  0  0
 27 55  1  0  0  0  0
 28 27  1  0  0  0  0
 28 56  1  0  0  0  0
 29 28  1  0  0  0  0
 29 57  1  0  0  0  0
 29 58  1  0  0  0  0
 29 59  1  0  0  0  0
 30 28  1  0  0  0  0
 30 60  1  0  0  0  0
 30 61  1  0  0  0  0
 30 62  1  0  0  0  0
 31 32  1  0  0  0  0
 31 63  1  0  0  0  0
 32 64  1  0  0  0  0
 32 65  1  0  0  0  0
 32 66  1  0  0  0  0
M  CHG  1  16  -1
M  END
>  <MODEL>
       0

$$$$
selected_4mers/AEAL/39_noH.pdb
 OpenBabel03042517493D

 66 65  0  0  1  0  0  0  0  0999 V2000
   34.0590   39.4760   61.6120 C   0  0  0  0  0  0  0  0  0  0  0  0
   32.5820   39.6770   61.2980 C   0  0  0  0  0  0  0  0  0  0  0  0
   31.9710   38.9810   60.4840 O   0  0  0  0  0  0  0  0  0  0  0  0
   31.9910   40.6220   62.0200 N   0  0  0  0  0  0  0  0  0  0  0  0
   30.5530   40.8280   61.9770 C   0  0  2  0  0  0  0  0  0  0  0  0
   30.0180   41.1820   60.5990 C   0  0  0  0  0  0  0  0  0  0  0  0
   28.9770   40.6690   60.1490 O   0  0  0  0  0  0  0  0  0  0  0  0
   30.1730   41.9510   62.9540 C   0  0  0  0  0  0  0  0  0  0  0  0
   30.7210   42.0750   59.9150 N   0  0  0  0  0  0  0  0  0  0  0  0
   30.2850   42.4650   58.5780 C   0  0  2  0  0  0  0  0  0  0  0  0
   30.2630   41.2910   57.6190 C   0  0  0  0  0  0  0  0  0  0  0  0
   29.2850   41.0630   56.9220 O   0  0  0  0  0  0  0  0  0  0  0  0
   31.2620   43.5440   58.0550 C   0  0  0  0  0  0  0  0  0  0  0  0
   30.9220   44.0950   56.6810 C   0  0  0  0  0  0  0  0  0  0  0  0
   31.9060   45.1510   56.2700 C   0  0  0  0  0  0  0  0  0  0  0  0
   32.9890   44.8070   55.7250 O   0  0  0  0  0  0  0  0  0  0  0  0
   31.5940   46.3190   56.5470 O   0  0  0  0  0  0  0  0  0  0  0  0
   31.3720   40.5720   57.5000 N   0  0  0  0  0  0  0  0  0  0  0  0
   31.4090   39.4510   56.5880 C   0  0  2  0  0  0  0  0  0  0  0  0
   30.4230   38.3850   56.9420 C   0  0  0  0  0  0  0  0  0  0  0  0
   29.8150   37.7700   56.0770 O   0  0  0  0  0  0  0  0  0  0  0  0
   32.8310   38.8990   56.4670 C   0  0  0  0  0  0  0  0  0  0  0  0
   30.2410   38.1410   58.2350 N   0  0  0  0  0  0  0  0  0  0  0  0
   29.2280   37.1580   58.6580 C   0  0  2  0  0  0  0  0  0  0  0  0
   27.8240   37.5670   58.1970 C   0  0  0  0  0  0  0  0  0  0  0  0
   27.0760   36.7690   57.6510 O   0  0  0  0  0  0  0  0  0  0  0  0
   29.3080   36.9460   60.1600 C   0  0  0  0  0  0  0  0  0  0  0  0
   28.3290   35.9810   60.7830 C   0  0  0  0  0  0  0  0  0  0  0  0
   28.9310   35.2880   61.9890 C   0  0  0  0  0  0  0  0  0  0  0  0
   26.9850   36.6950   61.1810 C   0  0  0  0  0  0  0  0  0  0  0  0
   27.4840   38.8390   58.3740 N   0  0  0  0  0  0  0  0  0  0  0  0
   26.1790   39.3210   57.9500 C   0  0  0  0  0  0  0  0  0  0  0  0
   34.4539   38.7010   60.9888 H   0  0  0  0  0  0  0  0  0  0  0  0
   34.1707   39.1991   62.6395 H   0  0  0  0  0  0  0  0  0  0  0  0
   34.5899   40.3867   61.4282 H   0  0  0  0  0  0  0  0  0  0  0  0
   32.5410   41.1977   62.5991 H   0  0  0  0  0  0  0  0  0  0  0  0
   30.1096   39.8935   62.2509 H   0  0  0  0  0  0  0  0  0  0  0  0
   30.6357   42.8648   62.6445 H   0  0  0  0  0  0  0  0  0  0  0  0
   30.5085   41.6967   63.9377 H   0  0  0  0  0  0  0  0  0  0  0  0
   29.1101   42.0737   62.9603 H   0  0  0  0  0  0  0  0  0  0  0  0
   31.5320   42.4723   60.3069 H   0  0  0  0  0  0  0  0  0  0  0  0
   29.2849   42.8406   58.6376 H   0  0  0  0  0  0  0  0  0  0  0  0
   31.2629   44.3578   58.7497 H   0  0  0  0  0  0  0  0  0  0  0  0
   32.2162   43.0687   57.9626 H   0  0  0  0  0  0  0  0  0  0  0  0
   30.9454   43.2976   55.9680 H   0  0  0  0  0  0  0  0  0  0  0  0
   29.9464   44.5327   56.7196 H   0  0  0  0  0  0  0  0  0  0  0  0
   32.1681   40.8016   58.0318 H   0  0  0  0  0  0  0  0  0  0  0  0
   31.1116   39.8149   55.6267 H   0  0  0  0  0  0  0  0  0  0  0  0
   33.1518   38.5282   57.4180 H   0  0  0  0  0  0  0  0  0  0  0  0
   33.4903   39.6788   56.1474 H   0  0  0  0  0  0  0  0  0  0  0  0
   32.8453   38.1041   55.7509 H   0  0  0  0  0  0  0  0  0  0  0  0
   30.7808   38.6151   58.9081 H   0  0  0  0  0  0  0  0  0  0  0  0
   29.4351   36.2209   58.1848 H   0  0  0  0  0  0  0  0  0  0  0  0
   29.1597   37.8978   60.6259 H   0  0  0  0  0  0  0  0  0  0  0  0
   30.2676   36.5008   60.3206 H   0  0  0  0  0  0  0  0  0  0  0  0
   28.1062   35.2409   60.0430 H   0  0  0  0  0  0  0  0  0  0  0  0
   29.1603   36.0146   62.7403 H   0  0  0  0  0  0  0  0  0  0  0  0
   29.8270   34.7805   61.6983 H   0  0  0  0  0  0  0  0  0  0  0  0
   28.2307   34.5797   62.3798 H   0  0  0  0  0  0  0  0  0  0  0  0
   27.1833   37.4412   61.9218 H   0  0  0  0  0  0  0  0  0  0  0  0
   26.3011   35.9732   61.5761 H   0  0  0  0  0  0  0  0  0  0  0  0
   26.5564   37.1563   60.3159 H   0  0  0  0  0  0  0  0  0  0  0  0
   28.1206   39.4604   58.7956 H   0  0  0  0  0  0  0  0  0  0  0  0
   25.6247   38.5150   57.5165 H   0  0  0  0  0  0  0  0  0  0  0  0
   26.3040   40.0983   57.2254 H   0  0  0  0  0  0  0  0  0  0  0  0
   25.6482   39.7044   58.7962 H   0  0  0  0  0  0  0  0  0  0  0  0
  1  2  1  0  0  0  0
  1 33  1  0  0  0  0
  1 34  1  0  0  0  0
  1 35  1  0  0  0  0
  2  4  1  0  0  0  0
  3  2  2  0  0  0  0
  4  5  1  0  0  0  0
  4 36  1  0  0  0  0
  5  8  1  0  0  0  0
  5 37  1  1  0  0  0
  6  5  1  0  0  0  0
  7  6  2  0  0  0  0
  8 38  1  0  0  0  0
  8 39  1  0  0  0  0
  8 40  1  0  0  0  0
  9  6  1  0  0  0  0
  9 41  1  0  0  0  0
 10  9  1  0  0  0  0
 10 11  1  0  0  0  0
 10 42  1  6  0  0  0
 11 18  1  0  0  0  0
 12 11  2  0  0  0  0
 13 10  1  0  0  0  0
 13 43  1  0  0  0  0
 13 44  1  0  0  0  0
 14 13  1  0  0  0  0
 14 45  1  0  0  0  0
 14 46  1  0  0  0  0
 15 14  1  0  0  0  0
 16 15  1  0  0  0  0
 17 15  2  0  0  0  0
 18 19  1  0  0  0  0
 18 47  1  0  0  0  0
 19 20  1  0  0  0  0
 19 22  1  0  0  0  0
 19 48  1  6  0  0  0
 20 23  1  0  0  0  0
 20 21  2  0  0  0  0
 22 49  1  0  0  0  0
 22 50  1  0  0  0  0
 22 51  1  0  0  0  0
 23 24  1  0  0  0  0
 23 52  1  0  0  0  0
 24 25  1  0  0  0  0
 24 53  1  6  0  0  0
 25 31  1  0  0  0  0
 25 26  2  0  0  0  0
 27 24  1  0  0  0  0
 27 54  1  0  0  0  0
 27 55  1  0  0  0  0
 28 27  1  0  0  0  0
 28 56  1  0  0  0  0
 29 28  1  0  0  0  0
 29 57  1  0  0  0  0
 29 58  1  0  0  0  0
 29 59  1  0  0  0  0
 30 28  1  0  0  0  0
 30 60  1  0  0  0  0
 30 61  1  0  0  0  0
 30 62  1  0  0  0  0
 31 32  1  0  0  0  0
 31 63  1  0  0  0  0
 32 64  1  0  0  0  0
 32 65  1  0  0  0  0
 32 66  1  0  0  0  0
M  CHG  1  16  -1
M  END
>  <MODEL>
       0

$$$$
