selected_4mers/AEIA/400_noH.pdb
 OpenBabel03042518173D

 66 65  0  0  1  0  0  0  0  0999 V2000
    6.9700   16.5690   23.7140 C   0  0  0  0  0  0  0  0  0  0  0  0
    6.1600   17.7680   24.2120 C   0  0  0  0  0  0  0  0  0  0  0  0
    5.6140   17.7470   25.3160 O   0  0  0  0  0  0  0  0  0  0  0  0
    6.0800   18.8130   23.3930 N   0  0  0  0  0  0  0  0  0  0  0  0
    5.3330   20.0070   23.7700 C   0  0  2  0  0  0  0  0  0  0  0  0
    3.8490   19.6830   23.9710 C   0  0  0  0  0  0  0  0  0  0  0  0
    3.2290   20.1500   24.9270 O   0  0  0  0  0  0  0  0  0  0  0  0
    5.5020   21.0900   22.7050 C   0  0  0  0  0  0  0  0  0  0  0  0
    3.2860   18.8740   23.0770 N   0  0  0  0  0  0  0  0  0  0  0  0
    1.8800   18.4910   23.1690 C   0  0  2  0  0  0  0  0  0  0  0  0
    1.6170   17.6220   24.3960 C   0  0  0  0  0  0  0  0  0  0  0  0
    0.6320   17.8140   25.1050 O   0  0  0  0  0  0  0  0  0  0  0  0
    1.4470   17.7400   21.9070 C   0  0  0  0  0  0  0  0  0  0  0  0
    1.3300   18.5990   20.6550 C   0  0  0  0  0  0  0  0  0  0  0  0
    0.1880   19.5920   20.7300 C   0  0  0  0  0  0  0  0  0  0  0  0
   -0.7290   19.3850   21.5510 O   0  0  0  0  0  0  0  0  0  0  0  0
    0.1990   20.5740   19.9570 O   0  0  0  0  0  0  0  0  0  0  0  0
    2.4980   16.6570   24.6410 N   0  0  0  0  0  0  0  0  0  0  0  0
    2.3440   15.7730   25.7920 C   0  0  2  0  0  0  0  0  0  0  0  0
    2.4380   16.5690   27.0950 C   0  0  0  0  0  0  0  0  0  0  0  0
    1.6290   16.3830   28.0030 O   0  0  0  0  0  0  0  0  0  0  0  0
    3.4210   14.6550   25.7870 C   0  0  2  0  0  0  0  0  0  0  0  0
    3.1430   13.6680   24.6480 C   0  0  0  0  0  0  0  0  0  0  0  0
    3.4450   13.9370   27.1330 C   0  0  0  0  0  0  0  0  0  0  0  0
    1.8600   12.8740   24.8030 C   0  0  0  0  0  0  0  0  0  0  0  0
    3.4230   17.4580   27.1780 N   0  0  0  0  0  0  0  0  0  0  0  0
    3.6150   18.2820   28.3670 C   0  0  2  0  0  0  0  0  0  0  0  0
    2.4000   19.1680   28.6300 C   0  0  0  0  0  0  0  0  0  0  0  0
    1.9820   19.3430   29.7770 O   0  0  0  0  0  0  0  0  0  0  0  0
    4.8610   19.1370   28.2060 C   0  0  0  0  0  0  0  0  0  0  0  0
    1.8370   19.7240   27.5630 N   0  0  0  0  0  0  0  0  0  0  0  0
    0.6710   20.5920   27.6760 C   0  0  0  0  0  0  0  0  0  0  0  0
    7.3606   16.7819   22.7409 H   0  0  0  0  0  0  0  0  0  0  0  0
    6.3376   15.7074   23.6638 H   0  0  0  0  0  0  0  0  0  0  0  0
    7.7782   16.3794   24.3891 H   0  0  0  0  0  0  0  0  0  0  0  0
    6.5320   18.7797   22.5190 H   0  0  0  0  0  0  0  0  0  0  0  0
    5.7223   20.3694   24.6984 H   0  0  0  0  0  0  0  0  0  0  0  0
    5.1152   20.7363   21.7722 H   0  0  0  0  0  0  0  0  0  0  0  0
    6.5405   21.3232   22.5951 H   0  0  0  0  0  0  0  0  0  0  0  0
    4.9687   21.9687   23.0021 H   0  0  0  0  0  0  0  0  0  0  0  0
    3.8310   18.5250   22.3351 H   0  0  0  0  0  0  0  0  0  0  0  0
    1.3075   19.3901   23.2630 H   0  0  0  0  0  0  0  0  0  0  0  0
    2.1655   16.9706   21.7157 H   0  0  0  0  0  0  0  0  0  0  0  0
    0.4648   17.3645   22.1048 H   0  0  0  0  0  0  0  0  0  0  0  0
    2.2445   19.1387   20.5238 H   0  0  0  0  0  0  0  0  0  0  0  0
    1.1345   17.9442   19.8317 H   0  0  0  0  0  0  0  0  0  0  0  0
    3.2660   16.5369   24.0368 H   0  0  0  0  0  0  0  0  0  0  0  0
    1.3781   15.3176   25.7248 H   0  0  0  0  0  0  0  0  0  0  0  0
    4.3827   15.0963   25.6279 H   0  0  0  0  0  0  0  0  0  0  0  0
    3.0857   14.2205   23.7335 H   0  0  0  0  0  0  0  0  0  0  0  0
    3.9434   12.9580   24.6584 H   0  0  0  0  0  0  0  0  0  0  0  0
    2.4914   13.4868   27.3141 H   0  0  0  0  0  0  0  0  0  0  0  0
    3.6601   14.6414   27.9092 H   0  0  0  0  0  0  0  0  0  0  0  0
    4.2004   13.1793   27.1196 H   0  0  0  0  0  0  0  0  0  0  0  0
    1.0243   13.5422   24.7987 H   0  0  0  0  0  0  0  0  0  0  0  0
    1.8825   12.3370   25.7282 H   0  0  0  0  0  0  0  0  0  0  0  0
    1.7681   12.1827   23.9915 H   0  0  0  0  0  0  0  0  0  0  0  0
    4.0391   17.5632   26.4173 H   0  0  0  0  0  0  0  0  0  0  0  0
    3.7359   17.6319   29.2082 H   0  0  0  0  0  0  0  0  0  0  0  0
    4.7410   19.7874   27.3649 H   0  0  0  0  0  0  0  0  0  0  0  0
    5.7098   18.5046   28.0495 H   0  0  0  0  0  0  0  0  0  0  0  0
    5.0095   19.7210   29.0902 H   0  0  0  0  0  0  0  0  0  0  0  0
    2.2170   19.5453   26.6726 H   0  0  0  0  0  0  0  0  0  0  0  0
    0.3896   20.6792   28.7047 H   0  0  0  0  0  0  0  0  0  0  0  0
   -0.1407   20.1733   27.1185 H   0  0  0  0  0  0  0  0  0  0  0  0
    0.9083   21.5604   27.2878 H   0  0  0  0  0  0  0  0  0  0  0  0
  1  2  1  0  0  0  0
  1 33  1  0  0  0  0
  1 34  1  0  0  0  0
  1 35  1  0  0  0  0
  2  3  2  0  0  0  0
  4  5  1  0  0  0  0
  4  2  1  0  0  0  0
  4 36  1  0  0  0  0
  5  6  1  0  0  0  0
  5 37  1  1  0  0  0
  6  7  2  0  0  0  0
  8  5  1  0  0  0  0
  8 38  1  0  0  0  0
  8 39  1  0  0  0  0
  8 40  1  0  0  0  0
  9 10  1  0  0  0  0
  9  6  1  0  0  0  0
  9 41  1  0  0  0  0
 10 11  1  0  0  0  0
 10 42  1  1  0  0  0
 11 18  1  0  0  0  0
 11 12  2  0  0  0  0
 13 10  1  0  0  0  0
 13 43  1  0  0  0  0
 13 44  1  0  0  0  0
 14 15  1  0  0  0  0
 14 13  1  0  0  0  0
 14 45  1  0  0  0  0
 14 46  1  0  0  0  0
 15 16  1  0  0  0  0
 17 15  2  0  0  0  0
 18 19  1  0  0  0  0
 18 47  1  0  0  0  0
 19 20  1  0  0  0  0
 19 48  1  6  0  0  0
 20 26  1  0  0  0  0
 20 21  2  0  0  0  0
 22 19  1  0  0  0  0
 22 24  1  0  0  0  0
 22 49  1  6  0  0  0
 23 25  1  0  0  0  0
 23 22  1  0  0  0  0
 23 50  1  0  0  0  0
 23 51  1  0  0  0  0
 24 52  1  0  0  0  0
 24 53  1  0  0  0  0
 24 54  1  0  0  0  0
 25 55  1  0  0  0  0
 25 56  1  0  0  0  0
 25 57  1  0  0  0  0
 26 27  1  0  0  0  0
 26 58  1  0  0  0  0
 27 28  1  0  0  0  0
 27 59  1  1  0  0  0
 28 29  2  0  0  0  0
 30 27  1  0  0  0  0
 30 60  1  0  0  0  0
 30 61  1  0  0  0  0
 30 62  1  0  0  0  0
 31 32  1  0  0  0  0
 31 28  1  0  0  0  0
 31 63  1  0  0  0  0
 32 64  1  0  0  0  0
 32 65  1  0  0  0  0
 32 66  1  0  0  0  0
M  CHG  1  16  -1
M  END
>  <MODEL>
       0

$$$$
selected_4mers/AEIA/401_noH.pdb
 OpenBabel03042518173D

 66 65  0  0  1  0  0  0  0  0999 V2000
   25.3610   -0.9410    1.7600 C   0  0  0  0  0  0  0  0  0  0  0  0
   23.9510   -0.5810    2.1690 C   0  0  0  0  0  0  0  0  0  0  0  0
   23.7940    0.1910    3.1250 O   0  0  0  0  0  0  0  0  0  0  0  0
   22.9700   -1.1120    1.4650 N   0  0  0  0  0  0  0  0  0  0  0  0
   21.6080   -0.7230    1.6970 C   0  0  2  0  0  0  0  0  0  0  0  0
   20.7380   -1.8570    2.1920 C   0  0  0  0  0  0  0  0  0  0  0  0
   20.8020   -2.9640    1.6720 O   0  0  0  0  0  0  0  0  0  0  0  0
   20.9900   -0.1600    0.4170 C   0  0  0  0  0  0  0  0  0  0  0  0
   19.9210   -1.5560    3.1840 N   0  0  0  0  0  0  0  0  0  0  0  0
   18.8560   -2.4570    3.6050 C   0  0  2  0  0  0  0  0  0  0  0  0
   17.6170   -2.2260    2.7230 C   0  0  0  0  0  0  0  0  0  0  0  0
   17.2390   -1.0940    2.5100 O   0  0  0  0  0  0  0  0  0  0  0  0
   18.5620   -2.5620    5.1030 C   0  0  0  0  0  0  0  0  0  0  0  0
   17.9220   -1.5670    5.9610 C   0  0  0  0  0  0  0  0  0  0  0  0
   18.2260   -1.4350    7.4420 C   0  0  0  0  0  0  0  0  0  0  0  0
   19.2950   -1.1210    8.0310 O   0  0  0  0  0  0  0  0  0  0  0  0
   17.1520   -1.6770    8.0840 O   0  0  0  0  0  0  0  0  0  0  0  0
   17.0190   -3.3180    2.2390 N   0  0  0  0  0  0  0  0  0  0  0  0
   15.7100   -3.2370    1.5870 C   0  0  2  0  0  0  0  0  0  0  0  0
   14.6890   -3.3050    2.7130 C   0  0  0  0  0  0  0  0  0  0  0  0
   14.5000   -4.3480    3.3720 O   0  0  0  0  0  0  0  0  0  0  0  0
   15.5470   -4.3180    0.5520 C   0  0  2  0  0  0  0  0  0  0  0  0
   16.5730   -4.1620   -0.5950 C   0  0  0  0  0  0  0  0  0  0  0  0
   14.0940   -4.3040    0.0410 C   0  0  0  0  0  0  0  0  0  0  0  0
   16.7670   -5.3940   -1.4550 C   0  0  0  0  0  0  0  0  0  0  0  0
   14.0940   -2.1830    3.0420 N   0  0  0  0  0  0  0  0  0  0  0  0
   13.3240   -2.0210    4.2720 C   0  0  2  0  0  0  0  0  0  0  0  0
   11.8540   -2.2300    4.0010 C   0  0  0  0  0  0  0  0  0  0  0  0
   11.3250   -1.7520    3.0200 O   0  0  0  0  0  0  0  0  0  0  0  0
   13.5490   -0.6030    4.8170 C   0  0  0  0  0  0  0  0  0  0  0  0
   11.1440   -2.8980    4.9210 N   0  0  0  0  0  0  0  0  0  0  0  0
    9.6990   -3.0320    4.7870 C   0  0  0  0  0  0  0  0  0  0  0  0
   25.3305   -1.6107    0.9261 H   0  0  0  0  0  0  0  0  0  0  0  0
   25.8602   -1.4144    2.5795 H   0  0  0  0  0  0  0  0  0  0  0  0
   25.8904   -0.0527    1.4849 H   0  0  0  0  0  0  0  0  0  0  0  0
   23.1741   -1.7821    0.7732 H   0  0  0  0  0  0  0  0  0  0  0  0
   21.6428    0.0222    2.4641 H   0  0  0  0  0  0  0  0  0  0  0  0
   20.9665   -0.9227   -0.3331 H   0  0  0  0  0  0  0  0  0  0  0  0
   21.5777    0.6639    0.0696 H   0  0  0  0  0  0  0  0  0  0  0  0
   19.9933    0.1728    0.6186 H   0  0  0  0  0  0  0  0  0  0  0  0
   20.0344   -0.6979    3.6531 H   0  0  0  0  0  0  0  0  0  0  0  0
   19.2324   -3.4450    3.4403 H   0  0  0  0  0  0  0  0  0  0  0  0
   19.5153   -2.7386    5.5556 H   0  0  0  0  0  0  0  0  0  0  0  0
   17.7695   -3.2798    5.0648 H   0  0  0  0  0  0  0  0  0  0  0  0
   16.8701   -1.7503    5.8911 H   0  0  0  0  0  0  0  0  0  0  0  0
   18.3322   -0.6568    5.5762 H   0  0  0  0  0  0  0  0  0  0  0  0
   17.4654   -4.1915    2.3219 H   0  0  0  0  0  0  0  0  0  0  0  0
   15.5831   -2.3294    1.0348 H   0  0  0  0  0  0  0  0  0  0  0  0
   15.7447   -5.2712    0.9961 H   0  0  0  0  0  0  0  0  0  0  0  0
   16.2441   -3.3643   -1.2278 H   0  0  0  0  0  0  0  0  0  0  0  0
   17.5167   -3.9732   -0.1273 H   0  0  0  0  0  0  0  0  0  0  0  0
   13.8823   -3.3553   -0.4062 H   0  0  0  0  0  0  0  0  0  0  0  0
   13.4261   -4.4690    0.8605 H   0  0  0  0  0  0  0  0  0  0  0  0
   13.9642   -5.0780   -0.6863 H   0  0  0  0  0  0  0  0  0  0  0  0
   15.8488   -5.6314   -1.9504 H   0  0  0  0  0  0  0  0  0  0  0  0
   17.0624   -6.2168   -0.8380 H   0  0  0  0  0  0  0  0  0  0  0  0
   17.5268   -5.2040   -2.1840 H   0  0  0  0  0  0  0  0  0  0  0  0
   14.1702   -1.4146    2.4312 H   0  0  0  0  0  0  0  0  0  0  0  0
   13.6469   -2.7460    4.9896 H   0  0  0  0  0  0  0  0  0  0  0  0
   13.2231    0.1135    4.0922 H   0  0  0  0  0  0  0  0  0  0  0  0
   14.5901   -0.4591    5.0177 H   0  0  0  0  0  0  0  0  0  0  0  0
   12.9906   -0.4755    5.7208 H   0  0  0  0  0  0  0  0  0  0  0  0
   11.6023   -3.3013    5.6934 H   0  0  0  0  0  0  0  0  0  0  0  0
    9.3759   -2.5359    3.8957 H   0  0  0  0  0  0  0  0  0  0  0  0
    9.2196   -2.5897    5.6352 H   0  0  0  0  0  0  0  0  0  0  0  0
    9.4406   -4.0688    4.7317 H   0  0  0  0  0  0  0  0  0  0  0  0
  1  2  1  0  0  0  0
  1 33  1  0  0  0  0
  1 34  1  0  0  0  0
  1 35  1  0  0  0  0
  2  3  2  0  0  0  0
  4  5  1  0  0  0  0
  4  2  1  0  0  0  0
  4 36  1  0  0  0  0
  5  6  1  0  0  0  0
  5 37  1  1  0  0  0
  6  7  2  0  0  0  0
  8  5  1  0  0  0  0
  8 38  1  0  0  0  0
  8 39  1  0  0  0  0
  8 40  1  0  0  0  0
  9 10  1  0  0  0  0
  9  6  1  0  0  0  0
  9 41  1  0  0  0  0
 10 11  1  0  0  0  0
 10 42  1  1  0  0  0
 11 18  1  0  0  0  0
 11 12  2  0  0  0  0
 13 10  1  0  0  0  0
 13 43  1  0  0  0  0
 13 44  1  0  0  0  0
 14 15  1  0  0  0  0
 14 13  1  0  0  0  0
 14 45  1  0  0  0  0
 14 46  1  0  0  0  0
 15 16  1  0  0  0  0
 17 15  2  0  0  0  0
 18 19  1  0  0  0  0
 18 47  1  0  0  0  0
 19 20  1  0  0  0  0
 19 48  1  6  0  0  0
 20 26  1  0  0  0  0
 20 21  2  0  0  0  0
 22 19  1  0  0  0  0
 22 24  1  0  0  0  0
 22 49  1  6  0  0  0
 23 25  1  0  0  0  0
 23 22  1  0  0  0  0
 23 50  1  0  0  0  0
 23 51  1  0  0  0  0
 24 52  1  0  0  0  0
 24 53  1  0  0  0  0
 24 54  1  0  0  0  0
 25 55  1  0  0  0  0
 25 56  1  0  0  0  0
 25 57  1  0  0  0  0
 26 27  1  0  0  0  0
 26 58  1  0  0  0  0
 27 28  1  0  0  0  0
 27 59  1  1  0  0  0
 28 29  2  0  0  0  0
 30 27  1  0  0  0  0
 30 60  1  0  0  0  0
 30 61  1  0  0  0  0
 30 62  1  0  0  0  0
 31 32  1  0  0  0  0
 31 28  1  0  0  0  0
 31 63  1  0  0  0  0
 32 64  1  0  0  0  0
 32 65  1  0  0  0  0
 32 66  1  0  0  0  0
M  CHG  1  16  -1
M  END
>  <MODEL>
       0

$$$$
selected_4mers/AEIA/402_noH.pdb
 OpenBabel03042518173D

 66 65  0  0  1  0  0  0  0  0999 V2000
    7.0930   19.5260   32.3570 C   0  0  0  0  0  0  0  0  0  0  0  0
    8.5520   19.1560   32.2810 C   0  0  0  0  0  0  0  0  0  0  0  0
    8.9500   18.1520   31.7040 O   0  0  0  0  0  0  0  0  0  0  0  0
    9.3990   19.9860   32.8960 N   0  0  0  0  0  0  0  0  0  0  0  0
   10.8300   19.8060   32.7400 C   0  0  2  0  0  0  0  0  0  0  0  0
   11.3090   18.4150   33.1100 C   0  0  0  0  0  0  0  0  0  0  0  0
   12.0610   17.7610   32.3630 O   0  0  0  0  0  0  0  0  0  0  0  0
   11.6100   20.8470   33.5200 C   0  0  0  0  0  0  0  0  0  0  0  0
   10.8910   17.8780   34.2480 N   0  0  0  0  0  0  0  0  0  0  0  0
   11.3890   16.5680   34.6460 C   0  0  2  0  0  0  0  0  0  0  0  0
   10.7540   15.4350   33.8670 C   0  0  0  0  0  0  0  0  0  0  0  0
   11.4410   14.4990   33.4790 O   0  0  0  0  0  0  0  0  0  0  0  0
   11.1770   16.4190   36.1600 C   0  0  0  0  0  0  0  0  0  0  0  0
   12.0870   17.3820   36.9160 C   0  0  0  0  0  0  0  0  0  0  0  0
   11.6760   17.4540   38.3720 C   0  0  0  0  0  0  0  0  0  0  0  0
   10.6910   18.1550   38.6350 O   0  0  0  0  0  0  0  0  0  0  0  0
   12.4390   16.8430   39.1300 O   0  0  0  0  0  0  0  0  0  0  0  0
    9.4450   15.5190   33.6000 N   0  0  0  0  0  0  0  0  0  0  0  0
    8.8110   14.4180   32.8540 C   0  0  2  0  0  0  0  0  0  0  0  0
    9.3640   14.3320   31.4570 C   0  0  0  0  0  0  0  0  0  0  0  0
    9.6220   13.2360   30.9520 O   0  0  0  0  0  0  0  0  0  0  0  0
    7.3030   14.5860   32.8520 C   0  0  2  0  0  0  0  0  0  0  0  0
    6.7440   14.3560   34.2460 C   0  0  0  0  0  0  0  0  0  0  0  0
    6.6110   13.6550   31.8590 C   0  0  0  0  0  0  0  0  0  0  0  0
    5.2580   14.6340   34.3920 C   0  0  0  0  0  0  0  0  0  0  0  0
    9.6240   15.4700   30.8170 N   0  0  0  0  0  0  0  0  0  0  0  0
   10.1180   15.4510   29.4370 C   0  0  2  0  0  0  0  0  0  0  0  0
   11.4730   14.7670   29.3920 C   0  0  0  0  0  0  0  0  0  0  0  0
   11.7930   14.0700   28.4200 O   0  0  0  0  0  0  0  0  0  0  0  0
   10.2310   16.8710   28.9580 C   0  0  0  0  0  0  0  0  0  0  0  0
   12.3020   14.8950   30.4010 N   0  0  0  0  0  0  0  0  0  0  0  0
   13.6020   14.2350   30.3970 C   0  0  0  0  0  0  0  0  0  0  0  0
    6.5121   18.7956   31.8336 H   0  0  0  0  0  0  0  0  0  0  0  0
    6.9449   20.4867   31.9099 H   0  0  0  0  0  0  0  0  0  0  0  0
    6.7861   19.5583   33.3815 H   0  0  0  0  0  0  0  0  0  0  0  0
    9.0525   20.7190   33.4545 H   0  0  0  0  0  0  0  0  0  0  0  0
   11.0189   19.9346   31.6947 H   0  0  0  0  0  0  0  0  0  0  0  0
   11.4240   20.7220   34.5663 H   0  0  0  0  0  0  0  0  0  0  0  0
   11.3006   21.8255   33.2171 H   0  0  0  0  0  0  0  0  0  0  0  0
   12.6557   20.7279   33.3269 H   0  0  0  0  0  0  0  0  0  0  0  0
   10.2499   18.3601   34.8188 H   0  0  0  0  0  0  0  0  0  0  0  0
   12.4321   16.5053   34.4161 H   0  0  0  0  0  0  0  0  0  0  0  0
   11.4045   15.4150   36.4517 H   0  0  0  0  0  0  0  0  0  0  0  0
   10.1577   16.6451   36.3940 H   0  0  0  0  0  0  0  0  0  0  0  0
   12.0124   18.3558   36.4789 H   0  0  0  0  0  0  0  0  0  0  0  0
   13.0959   17.0308   36.8544 H   0  0  0  0  0  0  0  0  0  0  0  0
    8.9190   16.2972   33.8948 H   0  0  0  0  0  0  0  0  0  0  0  0
    9.0374   13.4934   33.3427 H   0  0  0  0  0  0  0  0  0  0  0  0
    7.1039   15.5907   32.5426 H   0  0  0  0  0  0  0  0  0  0  0  0
    7.2700   14.9944   34.9247 H   0  0  0  0  0  0  0  0  0  0  0  0
    6.8769   13.3151   34.4551 H   0  0  0  0  0  0  0  0  0  0  0  0
    6.7900   12.6380   32.1393 H   0  0  0  0  0  0  0  0  0  0  0  0
    6.9998   13.8281   30.8773 H   0  0  0  0  0  0  0  0  0  0  0  0
    5.5583   13.8465   31.8646 H   0  0  0  0  0  0  0  0  0  0  0  0
    5.0673   15.6678   34.1925 H   0  0  0  0  0  0  0  0  0  0  0  0
    4.9476   14.3999   35.3889 H   0  0  0  0  0  0  0  0  0  0  0  0
    4.7122   14.0301   33.6975 H   0  0  0  0  0  0  0  0  0  0  0  0
    9.4835   16.3307   31.2739 H   0  0  0  0  0  0  0  0  0  0  0  0
    9.4456   14.9099   28.8045 H   0  0  0  0  0  0  0  0  0  0  0  0
   10.9039   17.4090   29.5925 H   0  0  0  0  0  0  0  0  0  0  0  0
    9.2670   17.3346   28.9858 H   0  0  0  0  0  0  0  0  0  0  0  0
   10.6025   16.8805   27.9546 H   0  0  0  0  0  0  0  0  0  0  0  0
   12.0417   15.4462   31.1741 H   0  0  0  0  0  0  0  0  0  0  0  0
   13.7188   13.6827   29.4880 H   0  0  0  0  0  0  0  0  0  0  0  0
   13.6656   13.5673   31.2307 H   0  0  0  0  0  0  0  0  0  0  0  0
   14.3757   14.9706   30.4693 H   0  0  0  0  0  0  0  0  0  0  0  0
  1  2  1  0  0  0  0
  1 33  1  0  0  0  0
  1 34  1  0  0  0  0
  1 35  1  0  0  0  0
  2  3  2  0  0  0  0
  4  5  1  0  0  0  0
  4  2  1  0  0  0  0
  4 36  1  0  0  0  0
  5  6  1  0  0  0  0
  5 37  1  1  0  0  0
  6  7  2  0  0  0  0
  8  5  1  0  0  0  0
  8 38  1  0  0  0  0
  8 39  1  0  0  0  0
  8 40  1  0  0  0  0
  9 10  1  0  0  0  0
  9  6  1  0  0  0  0
  9 41  1  0  0  0  0
 10 11  1  0  0  0  0
 10 42  1  1  0  0  0
 11 18  1  0  0  0  0
 11 12  2  0  0  0  0
 13 10  1  0  0  0  0
 13 43  1  0  0  0  0
 13 44  1  0  0  0  0
 14 15  1  0  0  0  0
 14 13  1  0  0  0  0
 14 45  1  0  0  0  0
 14 46  1  0  0  0  0
 15 16  1  0  0  0  0
 17 15  2  0  0  0  0
 18 19  1  0  0  0  0
 18 47  1  0  0  0  0
 19 20  1  0  0  0  0
 19 48  1  6  0  0  0
 20 26  1  0  0  0  0
 20 21  2  0  0  0  0
 22 19  1  0  0  0  0
 22 24  1  0  0  0  0
 22 49  1  6  0  0  0
 23 25  1  0  0  0  0
 23 22  1  0  0  0  0
 23 50  1  0  0  0  0
 23 51  1  0  0  0  0
 24 52  1  0  0  0  0
 24 53  1  0  0  0  0
 24 54  1  0  0  0  0
 25 55  1  0  0  0  0
 25 56  1  0  0  0  0
 25 57  1  0  0  0  0
 26 27  1  0  0  0  0
 26 58  1  0  0  0  0
 27 28  1  0  0  0  0
 27 59  1  1  0  0  0
 28 29  2  0  0  0  0
 30 27  1  0  0  0  0
 30 60  1  0  0  0  0
 30 61  1  0  0  0  0
 30 62  1  0  0  0  0
 31 32  1  0  0  0  0
 31 28  1  0  0  0  0
 31 63  1  0  0  0  0
 32 64  1  0  0  0  0
 32 65  1  0  0  0  0
 32 66  1  0  0  0  0
M  CHG  1  16  -1
M  END
>  <MODEL>
       0

$$$$
selected_4mers/AEIA/403_noH.pdb
 OpenBabel03042518173D

 66 65  0  0  1  0  0  0  0  0999 V2000
   29.2920   44.7730   62.0750 C   0  0  0  0  0  0  0  0  0  0  0  0
   30.3760   44.1430   61.2220 C   0  0  0  0  0  0  0  0  0  0  0  0
   30.2970   42.9840   60.8320 O   0  0  0  0  0  0  0  0  0  0  0  0
   31.4110   44.9340   60.9370 N   0  0  0  0  0  0  0  0  0  0  0  0
   32.4980   44.4630   60.0970 C   0  0  2  0  0  0  0  0  0  0  0  0
   33.1830   43.1780   60.5410 C   0  0  0  0  0  0  0  0  0  0  0  0
   33.6650   42.4190   59.7030 O   0  0  0  0  0  0  0  0  0  0  0  0
   33.5440   45.5760   59.9170 C   0  0  0  0  0  0  0  0  0  0  0  0
   33.2120   42.9160   61.8480 N   0  0  0  0  0  0  0  0  0  0  0  0
   33.8640   41.7050   62.3240 C   0  0  2  0  0  0  0  0  0  0  0  0
   33.3970   40.4560   61.6050 C   0  0  0  0  0  0  0  0  0  0  0  0
   34.1790   39.5160   61.4290 O   0  0  0  0  0  0  0  0  0  0  0  0
   33.6550   41.5080   63.8250 C   0  0  0  0  0  0  0  0  0  0  0  0
   34.4560   40.3210   64.3330 C   0  0  0  0  0  0  0  0  0  0  0  0
   34.3850   40.1470   65.8270 C   0  0  0  0  0  0  0  0  0  0  0  0
   34.4850   41.1480   66.5330 O   0  0  0  0  0  0  0  0  0  0  0  0
   34.2430   39.0030   66.2700 O   0  0  0  0  0  0  0  0  0  0  0  0
   32.1310   40.4260   61.1860 N   0  0  0  0  0  0  0  0  0  0  0  0
   31.6350   39.2450   60.4950 C   0  0  2  0  0  0  0  0  0  0  0  0
   31.4070   39.4240   58.9870 C   0  0  0  0  0  0  0  0  0  0  0  0
   30.7590   38.6010   58.3410 O   0  0  0  0  0  0  0  0  0  0  0  0
   30.3470   38.6550   61.1670 C   0  0  2  0  0  0  0  0  0  0  0  0
   29.1990   39.6670   61.1560 C   0  0  0  0  0  0  0  0  0  0  0  0
   30.6540   38.2440   62.6170 C   0  0  0  0  0  0  0  0  0  0  0  0
   27.8630   39.0440   61.6040 C   0  0  0  0  0  0  0  0  0  0  0  0
   31.9590   40.4970   58.4300 N   0  0  0  0  0  0  0  0  0  0  0  0
   31.8730   40.6970   56.9870 C   0  0  2  0  0  0  0  0  0  0  0  0
   32.8130   39.6890   56.3010 C   0  0  0  0  0  0  0  0  0  0  0  0
   33.8240   39.2670   56.8900 O   0  0  0  0  0  0  0  0  0  0  0  0
   32.2870   42.1220   56.6470 C   0  0  0  0  0  0  0  0  0  0  0  0
   32.4720   39.2750   55.0800 N   0  0  0  0  0  0  0  0  0  0  0  0
   33.3190   38.3450   54.3180 C   0  0  0  0  0  0  0  0  0  0  0  0
   28.5125   44.0600   62.2451 H   0  0  0  0  0  0  0  0  0  0  0  0
   28.8908   45.6262   61.5691 H   0  0  0  0  0  0  0  0  0  0  0  0
   29.7078   45.0773   63.0128 H   0  0  0  0  0  0  0  0  0  0  0  0
   31.4386   45.8485   61.3005 H   0  0  0  0  0  0  0  0  0  0  0  0
   32.0279   44.2117   59.1692 H   0  0  0  0  0  0  0  0  0  0  0  0
   33.9922   45.8005   60.8623 H   0  0  0  0  0  0  0  0  0  0  0  0
   33.0686   46.4531   59.5304 H   0  0  0  0  0  0  0  0  0  0  0  0
   34.2990   45.2487   59.2331 H   0  0  0  0  0  0  0  0  0  0  0  0
   32.7949   43.5379   62.4872 H   0  0  0  0  0  0  0  0  0  0  0  0
   34.9036   41.8462   62.1138 H   0  0  0  0  0  0  0  0  0  0  0  0
   32.6160   41.3363   64.0144 H   0  0  0  0  0  0  0  0  0  0  0  0
   33.9875   42.3880   64.3348 H   0  0  0  0  0  0  0  0  0  0  0  0
   35.4802   40.4594   64.0560 H   0  0  0  0  0  0  0  0  0  0  0  0
   34.0330   39.4426   63.8922 H   0  0  0  0  0  0  0  0  0  0  0  0
   31.5375   41.1957   61.3427 H   0  0  0  0  0  0  0  0  0  0  0  0
   32.4359   38.5426   60.5952 H   0  0  0  0  0  0  0  0  0  0  0  0
   30.0454   37.7974   60.6026 H   0  0  0  0  0  0  0  0  0  0  0  0
   29.0850   40.0467   60.1621 H   0  0  0  0  0  0  0  0  0  0  0  0
   29.4440   40.4460   61.8474 H   0  0  0  0  0  0  0  0  0  0  0  0
   30.9548   39.1055   63.1758 H   0  0  0  0  0  0  0  0  0  0  0  0
   31.4430   37.5213   62.6234 H   0  0  0  0  0  0  0  0  0  0  0  0
   29.7777   37.8193   63.0605 H   0  0  0  0  0  0  0  0  0  0  0  0
   27.5914   38.2592   60.9293 H   0  0  0  0  0  0  0  0  0  0  0  0
   27.1010   39.7951   61.6027 H   0  0  0  0  0  0  0  0  0  0  0  0
   27.9688   38.6449   62.5912 H   0  0  0  0  0  0  0  0  0  0  0  0
   32.4262   41.1573   58.9912 H   0  0  0  0  0  0  0  0  0  0  0  0
   30.8704   40.5434   56.6463 H   0  0  0  0  0  0  0  0  0  0  0  0
   33.2890   42.2918   56.9817 H   0  0  0  0  0  0  0  0  0  0  0  0
   31.6273   42.8105   57.1324 H   0  0  0  0  0  0  0  0  0  0  0  0
   32.2357   42.2652   55.5879 H   0  0  0  0  0  0  0  0  0  0  0  0
   31.6334   39.5996   54.6792 H   0  0  0  0  0  0  0  0  0  0  0  0
   34.1840   38.0951   54.8961 H   0  0  0  0  0  0  0  0  0  0  0  0
   33.6233   38.8081   53.4027 H   0  0  0  0  0  0  0  0  0  0  0  0
   32.7659   37.4552   54.1009 H   0  0  0  0  0  0  0  0  0  0  0  0
  1  2  1  0  0  0  0
  1 33  1  0  0  0  0
  1 34  1  0  0  0  0
  1 35  1  0  0  0  0
  2  3  2  0  0  0  0
  4  5  1  0  0  0  0
  4  2  1  0  0  0  0
  4 36  1  0  0  0  0
  5  6  1  0  0  0  0
  5 37  1  1  0  0  0
  6  7  2  0  0  0  0
  8  5  1  0  0  0  0
  8 38  1  0  0  0  0
  8 39  1  0  0  0  0
  8 40  1  0  0  0  0
  9 10  1  0  0  0  0
  9  6  1  0  0  0  0
  9 41  1  0  0  0  0
 10 11  1  0  0  0  0
 10 42  1  1  0  0  0
 11 18  1  0  0  0  0
 11 12  2  0  0  0  0
 13 10  1  0  0  0  0
 13 43  1  0  0  0  0
 13 44  1  0  0  0  0
 14 15  1  0  0  0  0
 14 13  1  0  0  0  0
 14 45  1  0  0  0  0
 14 46  1  0  0  0  0
 15 16  1  0  0  0  0
 17 15  2  0  0  0  0
 18 19  1  0  0  0  0
 18 47  1  0  0  0  0
 19 20  1  0  0  0  0
 19 48  1  6  0  0  0
 20 26  1  0  0  0  0
 20 21  2  0  0  0  0
 22 19  1  0  0  0  0
 22 24  1  0  0  0  0
 22 49  1  6  0  0  0
 23 25  1  0  0  0  0
 23 22  1  0  0  0  0
 23 50  1  0  0  0  0
 23 51  1  0  0  0  0
 24 52  1  0  0  0  0
 24 53  1  0  0  0  0
 24 54  1  0  0  0  0
 25 55  1  0  0  0  0
 25 56  1  0  0  0  0
 25 57  1  0  0  0  0
 26 27  1  0  0  0  0
 26 58  1  0  0  0  0
 27 28  1  0  0  0  0
 27 59  1  1  0  0  0
 28 29  2  0  0  0  0
 30 27  1  0  0  0  0
 30 60  1  0  0  0  0
 30 61  1  0  0  0  0
 30 62  1  0  0  0  0
 31 32  1  0  0  0  0
 31 28  1  0  0  0  0
 31 63  1  0  0  0  0
 32 64  1  0  0  0  0
 32 65  1  0  0  0  0
 32 66  1  0  0  0  0
M  CHG  1  16  -1
M  END
>  <MODEL>
       0

$$$$
selected_4mers/AEIA/404_noH.pdb
 OpenBabel03042518173D

 66 65  0  0  1  0  0  0  0  0999 V2000
   43.9880   23.8350  -28.6010 C   0  0  0  0  0  0  0  0  0  0  0  0
   43.3090   25.1050  -29.0780 C   0  0  0  0  0  0  0  0  0  0  0  0
   43.6930   26.2030  -28.6920 O   0  0  0  0  0  0  0  0  0  0  0  0
   42.2830   24.9550  -29.9120 N   0  0  0  0  0  0  0  0  0  0  0  0
   41.5080   26.0980  -30.3850 C   0  0  2  0  0  0  0  0  0  0  0  0
   40.8070   26.8690  -29.2250 C   0  0  0  0  0  0  0  0  0  0  0  0
   40.7780   28.1160  -29.1940 O   0  0  0  0  0  0  0  0  0  0  0  0
   40.5020   25.6230  -31.4310 C   0  0  0  0  0  0  0  0  0  0  0  0
   40.2460   26.1140  -28.2860 N   0  0  0  0  0  0  0  0  0  0  0  0
   39.5150   26.6820  -27.1560 C   0  0  2  0  0  0  0  0  0  0  0  0
   40.4840   27.4240  -26.2470 C   0  0  0  0  0  0  0  0  0  0  0  0
   40.2290   28.5690  -25.8210 O   0  0  0  0  0  0  0  0  0  0  0  0
   38.7980   25.5480  -26.3920 C   0  0  0  0  0  0  0  0  0  0  0  0
   37.5440   24.9650  -27.1080 C   0  0  0  0  0  0  0  0  0  0  0  0
   36.9210   23.7630  -26.3250 C   0  0  0  0  0  0  0  0  0  0  0  0
   37.5860   23.1870  -25.4270 O   0  0  0  0  0  0  0  0  0  0  0  0
   35.7790   23.3740  -26.5950 O   0  0  0  0  0  0  0  0  0  0  0  0
   41.6180   26.8020  -25.9680 N   0  0  0  0  0  0  0  0  0  0  0  0
   42.6080   27.4590  -25.1280 C   0  0  2  0  0  0  0  0  0  0  0  0
   43.1240   28.7550  -25.7500 C   0  0  0  0  0  0  0  0  0  0  0  0
   43.2850   29.7260  -25.0390 O   0  0  0  0  0  0  0  0  0  0  0  0
   43.7680   26.5240  -24.7320 C   0  0  2  0  0  0  0  0  0  0  0  0
   43.2310   25.4270  -23.7990 C   0  0  0  0  0  0  0  0  0  0  0  0
   44.8810   27.2980  -24.0420 C   0  0  0  0  0  0  0  0  0  0  0  0
   44.1140   24.2040  -23.6590 C   0  0  0  0  0  0  0  0  0  0  0  0
   43.3850   28.7510  -27.0620 N   0  0  0  0  0  0  0  0  0  0  0  0
   43.8980   29.9160  -27.7660 C   0  0  2  0  0  0  0  0  0  0  0  0
   42.8870   31.0450  -27.6990 C   0  0  0  0  0  0  0  0  0  0  0  0
   43.2540   32.1960  -27.4940 O   0  0  0  0  0  0  0  0  0  0  0  0
   44.2310   29.5850  -29.2290 C   0  0  0  0  0  0  0  0  0  0  0  0
   41.6160   30.7150  -27.8530 N   0  0  0  0  0  0  0  0  0  0  0  0
   40.5520   31.7180  -27.7840 C   0  0  0  0  0  0  0  0  0  0  0  0
   43.5118   22.9869  -29.0468 H   0  0  0  0  0  0  0  0  0  0  0  0
   43.9114   23.7681  -27.5358 H   0  0  0  0  0  0  0  0  0  0  0  0
   45.0198   23.8543  -28.8839 H   0  0  0  0  0  0  0  0  0  0  0  0
   42.0407   24.0510  -30.2175 H   0  0  0  0  0  0  0  0  0  0  0  0
   42.1823   26.7982  -30.8322 H   0  0  0  0  0  0  0  0  0  0  0  0
   39.8272   24.9227  -30.9847 H   0  0  0  0  0  0  0  0  0  0  0  0
   41.0226   25.1518  -32.2384 H   0  0  0  0  0  0  0  0  0  0  0  0
   39.9513   26.4616  -31.8028 H   0  0  0  0  0  0  0  0  0  0  0  0
   40.3261   25.1352  -28.3546 H   0  0  0  0  0  0  0  0  0  0  0  0
   38.7796   27.3769  -27.5043 H   0  0  0  0  0  0  0  0  0  0  0  0
   38.4899   25.9308  -25.4415 H   0  0  0  0  0  0  0  0  0  0  0  0
   39.5013   24.7450  -26.3179 H   0  0  0  0  0  0  0  0  0  0  0  0
   37.8290   24.6300  -28.0834 H   0  0  0  0  0  0  0  0  0  0  0  0
   36.8072   25.7390  -27.1614 H   0  0  0  0  0  0  0  0  0  0  0  0
   41.7907   25.9013  -26.3261 H   0  0  0  0  0  0  0  0  0  0  0  0
   42.0986   27.7193  -24.2238 H   0  0  0  0  0  0  0  0  0  0  0  0
   44.1756   26.0818  -25.6170 H   0  0  0  0  0  0  0  0  0  0  0  0
   42.2821   25.1077  -24.1766 H   0  0  0  0  0  0  0  0  0  0  0  0
   43.1800   25.8671  -22.8250 H   0  0  0  0  0  0  0  0  0  0  0  0
   44.5003   27.7520  -23.1510 H   0  0  0  0  0  0  0  0  0  0  0  0
   45.2485   28.0573  -24.7003 H   0  0  0  0  0  0  0  0  0  0  0  0
   45.6770   26.6291  -23.7894 H   0  0  0  0  0  0  0  0  0  0  0  0
   44.2033   23.7180  -24.6081 H   0  0  0  0  0  0  0  0  0  0  0  0
   43.6787   23.5289  -22.9522 H   0  0  0  0  0  0  0  0  0  0  0  0
   45.0836   24.5013  -23.3179 H   0  0  0  0  0  0  0  0  0  0  0  0
   43.2231   27.9249  -27.5725 H   0  0  0  0  0  0  0  0  0  0  0  0
   44.8042   30.2233  -27.2871 H   0  0  0  0  0  0  0  0  0  0  0  0
   43.3415   29.2735  -29.7356 H   0  0  0  0  0  0  0  0  0  0  0  0
   44.9541   28.7969  -29.2607 H   0  0  0  0  0  0  0  0  0  0  0  0
   44.6294   30.4541  -29.7095 H   0  0  0  0  0  0  0  0  0  0  0  0
   41.3799   29.7736  -28.0178 H   0  0  0  0  0  0  0  0  0  0  0  0
   40.9809   32.6809  -27.6003 H   0  0  0  0  0  0  0  0  0  0  0  0
   39.8790   31.4700  -26.9900 H   0  0  0  0  0  0  0  0  0  0  0  0
   40.0184   31.7363  -28.7113 H   0  0  0  0  0  0  0  0  0  0  0  0
  1  2  1  0  0  0  0
  1 33  1  0  0  0  0
  1 34  1  0  0  0  0
  1 35  1  0  0  0  0
  2  3  2  0  0  0  0
  4  5  1  0  0  0  0
  4  2  1  0  0  0  0
  4 36  1  0  0  0  0
  5  6  1  0  0  0  0
  5 37  1  1  0  0  0
  6  7  2  0  0  0  0
  8  5  1  0  0  0  0
  8 38  1  0  0  0  0
  8 39  1  0  0  0  0
  8 40  1  0  0  0  0
  9 10  1  0  0  0  0
  9  6  1  0  0  0  0
  9 41  1  0  0  0  0
 10 11  1  0  0  0  0
 10 42  1  1  0  0  0
 11 18  1  0  0  0  0
 11 12  2  0  0  0  0
 13 10  1  0  0  0  0
 13 43  1  0  0  0  0
 13 44  1  0  0  0  0
 14 15  1  0  0  0  0
 14 13  1  0  0  0  0
 14 45  1  0  0  0  0
 14 46  1  0  0  0  0
 15 16  1  0  0  0  0
 17 15  2  0  0  0  0
 18 19  1  0  0  0  0
 18 47  1  0  0  0  0
 19 20  1  0  0  0  0
 19 48  1  6  0  0  0
 20 26  1  0  0  0  0
 20 21  2  0  0  0  0
 22 19  1  0  0  0  0
 22 24  1  0  0  0  0
 22 49  1  6  0  0  0
 23 25  1  0  0  0  0
 23 22  1  0  0  0  0
 23 50  1  0  0  0  0
 23 51  1  0  0  0  0
 24 52  1  0  0  0  0
 24 53  1  0  0  0  0
 24 54  1  0  0  0  0
 25 55  1  0  0  0  0
 25 56  1  0  0  0  0
 25 57  1  0  0  0  0
 26 27  1  0  0  0  0
 26 58  1  0  0  0  0
 27 28  1  0  0  0  0
 27 59  1  1  0  0  0
 28 29  2  0  0  0  0
 30 27  1  0  0  0  0
 30 60  1  0  0  0  0
 30 61  1  0  0  0  0
 30 62  1  0  0  0  0
 31 32  1  0  0  0  0
 31 28  1  0  0  0  0
 31 63  1  0  0  0  0
 32 64  1  0  0  0  0
 32 65  1  0  0  0  0
 32 66  1  0  0  0  0
M  CHG  1  16  -1
M  END
>  <MODEL>
       0

$$$$
