selected_4mers/AELA/135_noH.pdb
 OpenBabel03042517503D

 66 65  0  0  1  0  0  0  0  0999 V2000
   87.7400  130.9230   78.7170 C   0  0  0  0  0  0  0  0  0  0  0  0
   86.7620  129.8490   79.2240 C   0  0  0  0  0  0  0  0  0  0  0  0
   86.4270  128.9110   78.4970 O   0  0  0  0  0  0  0  0  0  0  0  0
   86.2820  130.0190   80.4540 N   0  0  0  0  0  0  0  0  0  0  0  0
   85.3420  129.0770   81.0590 C   0  0  2  0  0  0  0  0  0  0  0  0
   83.9390  129.0960   80.4210 C   0  0  0  0  0  0  0  0  0  0  0  0
   83.1290  128.2010   80.6680 O   0  0  0  0  0  0  0  0  0  0  0  0
   85.2540  129.3200   82.5570 C   0  0  0  0  0  0  0  0  0  0  0  0
   83.6570  130.1130   79.6110 N   0  0  0  0  0  0  0  0  0  0  0  0
   82.3670  130.2300   78.9310 C   0  0  2  0  0  0  0  0  0  0  0  0
   82.3050  129.3060   77.7280 C   0  0  0  0  0  0  0  0  0  0  0  0
   83.1650  129.3700   76.8470 O   0  0  0  0  0  0  0  0  0  0  0  0
   82.1360  131.6570   78.4580 C   0  0  0  0  0  0  0  0  0  0  0  0
   82.1220  132.6810   79.5650 C   0  0  0  0  0  0  0  0  0  0  0  0
   81.7110  134.0580   79.0750 C   0  0  0  0  0  0  0  0  0  0  0  0
   81.4140  134.2280   77.8700 O   0  0  0  0  0  0  0  0  0  0  0  0
   81.6770  134.9790   79.9090 O   0  0  0  0  0  0  0  0  0  0  0  0
   81.2500  128.4990   77.6550 N   0  0  0  0  0  0  0  0  0  0  0  0
   81.0920  127.5440   76.5620 C   0  0  2  0  0  0  0  0  0  0  0  0
   79.9780  127.9130   75.5930 C   0  0  0  0  0  0  0  0  0  0  0  0
   78.9020  128.3460   76.0000 O   0  0  0  0  0  0  0  0  0  0  0  0
   80.8500  126.1420   77.1210 C   0  0  0  0  0  0  0  0  0  0  0  0
   81.8620  125.6790   78.1680 C   0  0  0  0  0  0  0  0  0  0  0  0
   81.4720  124.3060   78.6440 C   0  0  0  0  0  0  0  0  0  0  0  0
   83.2780  125.6760   77.5930 C   0  0  0  0  0  0  0  0  0  0  0  0
   80.2460  127.7050   74.3100 N   0  0  0  0  0  0  0  0  0  0  0  0
   79.2980  128.0060   73.2460 C   0  0  2  0  0  0  0  0  0  0  0  0
   78.2420  126.9290   73.0090 C   0  0  0  0  0  0  0  0  0  0  0  0
   77.2570  127.1800   72.3100 O   0  0  0  0  0  0  0  0  0  0  0  0
   80.0580  128.2560   71.9530 C   0  0  0  0  0  0  0  0  0  0  0  0
   78.4600  125.7290   73.5480 N   0  0  0  0  0  0  0  0  0  0  0  0
   77.5330  124.6150   73.3400 C   0  0  0  0  0  0  0  0  0  0  0  0
   88.0545  130.6787   77.7239 H   0  0  0  0  0  0  0  0  0  0  0  0
   88.5929  130.9617   79.3619 H   0  0  0  0  0  0  0  0  0  0  0  0
   87.2527  131.8756   78.7126 H   0  0  0  0  0  0  0  0  0  0  0  0
   86.5694  130.8046   80.9730 H   0  0  0  0  0  0  0  0  0  0  0  0
   85.7316  128.0985   80.8701 H   0  0  0  0  0  0  0  0  0  0  0  0
   84.8638  130.2999   82.7371 H   0  0  0  0  0  0  0  0  0  0  0  0
   86.2295  129.2395   82.9893 H   0  0  0  0  0  0  0  0  0  0  0  0
   84.6068  128.5916   82.9991 H   0  0  0  0  0  0  0  0  0  0  0  0
   84.3379  130.8088   79.4646 H   0  0  0  0  0  0  0  0  0  0  0  0
   81.6085  129.9553   79.6339 H   0  0  0  0  0  0  0  0  0  0  0  0
   81.1929  131.6949   77.9540 H   0  0  0  0  0  0  0  0  0  0  0  0
   82.9578  131.9059   77.8195 H   0  0  0  0  0  0  0  0  0  0  0  0
   83.1035  132.7450   79.9862 H   0  0  0  0  0  0  0  0  0  0  0  0
   81.4030  132.3655   80.2919 H   0  0  0  0  0  0  0  0  0  0  0  0
   80.5592  128.5469   78.3548 H   0  0  0  0  0  0  0  0  0  0  0  0
   82.0050  127.5681   76.0045 H   0  0  0  0  0  0  0  0  0  0  0  0
   80.8771  125.4504   76.3050 H   0  0  0  0  0  0  0  0  0  0  0  0
   79.9027  126.1781   77.6172 H   0  0  0  0  0  0  0  0  0  0  0  0
   81.8564  126.3578   78.9951 H   0  0  0  0  0  0  0  0  0  0  0  0
   81.4775  123.6269   77.8171 H   0  0  0  0  0  0  0  0  0  0  0  0
   80.4911  124.3414   79.0700 H   0  0  0  0  0  0  0  0  0  0  0  0
   82.1701  123.9732   79.3834 H   0  0  0  0  0  0  0  0  0  0  0  0
   83.3233  125.0057   76.7602 H   0  0  0  0  0  0  0  0  0  0  0  0
   83.9680  125.3566   78.3459 H   0  0  0  0  0  0  0  0  0  0  0  0
   83.5340  126.6636   77.2704 H   0  0  0  0  0  0  0  0  0  0  0  0
   81.1236  127.3310   74.0669 H   0  0  0  0  0  0  0  0  0  0  0  0
   78.7637  128.8760   73.5661 H   0  0  0  0  0  0  0  0  0  0  0  0
   80.5775  127.3655   71.6668 H   0  0  0  0  0  0  0  0  0  0  0  0
   80.7622  129.0479   72.1006 H   0  0  0  0  0  0  0  0  0  0  0  0
   79.3691  128.5305   71.1817 H   0  0  0  0  0  0  0  0  0  0  0  0
   79.2637  125.5887   74.0991 H   0  0  0  0  0  0  0  0  0  0  0  0
   76.7208  124.9374   72.7225 H   0  0  0  0  0  0  0  0  0  0  0  0
   77.1538  124.2854   74.2847 H   0  0  0  0  0  0  0  0  0  0  0  0
   78.0469  123.8081   72.8608 H   0  0  0  0  0  0  0  0  0  0  0  0
  1  2  1  0  0  0  0
  1 33  1  0  0  0  0
  1 34  1  0  0  0  0
  1 35  1  0  0  0  0
  2  4  1  0  0  0  0
  3  2  2  0  0  0  0
  4  5  1  0  0  0  0
  4 36  1  0  0  0  0
  5  8  1  0  0  0  0
  5 37  1  6  0  0  0
  6  7  2  0  0  0  0
  6  5  1  0  0  0  0
  8 38  1  0  0  0  0
  8 39  1  0  0  0  0
  8 40  1  0  0  0  0
  9  6  1  0  0  0  0
  9 41  1  0  0  0  0
 10  9  1  0  0  0  0
 10 42  1  1  0  0  0
 11 10  1  0  0  0  0
 12 11  2  0  0  0  0
 13 10  1  0  0  0  0
 13 14  1  0  0  0  0
 13 43  1  0  0  0  0
 13 44  1  0  0  0  0
 14 45  1  0  0  0  0
 14 46  1  0  0  0  0
 15 14  1  0  0  0  0
 15 17  1  0  0  0  0
 16 15  2  0  0  0  0
 18 11  1  0  0  0  0
 18 47  1  0  0  0  0
 19 22  1  0  0  0  0
 19 18  1  0  0  0  0
 19 48  1  6  0  0  0
 20 21  2  0  0  0  0
 20 19  1  0  0  0  0
 22 23  1  0  0  0  0
 22 49  1  0  0  0  0
 22 50  1  0  0  0  0
 23 24  1  0  0  0  0
 23 51  1  0  0  0  0
 24 52  1  0  0  0  0
 24 53  1  0  0  0  0
 24 54  1  0  0  0  0
 25 23  1  0  0  0  0
 25 55  1  0  0  0  0
 25 56  1  0  0  0  0
 25 57  1  0  0  0  0
 26 20  1  0  0  0  0
 26 58  1  0  0  0  0
 27 26  1  0  0  0  0
 27 59  1  1  0  0  0
 28 27  1  0  0  0  0
 28 31  1  0  0  0  0
 29 28  2  0  0  0  0
 30 27  1  0  0  0  0
 30 60  1  0  0  0  0
 30 61  1  0  0  0  0
 30 62  1  0  0  0  0
 31 63  1  0  0  0  0
 32 31  1  0  0  0  0
 32 64  1  0  0  0  0
 32 65  1  0  0  0  0
 32 66  1  0  0  0  0
M  CHG  1  17  -1
M  END
>  <MODEL>
       0

$$$$
selected_4mers/AELA/136_noH.pdb
 OpenBabel03042517503D

 66 65  0  0  1  0  0  0  0  0999 V2000
   39.6100   13.3040   95.3690 C   0  0  0  0  0  0  0  0  0  0  0  0
   39.3980   12.9280   96.8350 C   0  0  0  0  0  0  0  0  0  0  0  0
   38.3070   12.4840   97.2030 O   0  0  0  0  0  0  0  0  0  0  0  0
   40.4230   13.1410   97.6610 N   0  0  0  0  0  0  0  0  0  0  0  0
   40.3710   12.8440   99.1000 C   0  0  2  0  0  0  0  0  0  0  0  0
   39.3420   13.7040   99.8020 C   0  0  0  0  0  0  0  0  0  0  0  0
   38.5760   13.2200  100.6490 O   0  0  0  0  0  0  0  0  0  0  0  0
   41.7510   13.0390   99.7470 C   0  0  0  0  0  0  0  0  0  0  0  0
   39.3330   14.9940   99.4770 N   0  0  0  0  0  0  0  0  0  0  0  0
   38.3200   15.8910   99.9980 C   0  0  2  0  0  0  0  0  0  0  0  0
   36.9480   15.4970   99.4830 C   0  0  0  0  0  0  0  0  0  0  0  0
   35.9970   15.3480  100.2510 O   0  0  0  0  0  0  0  0  0  0  0  0
   38.6270   17.3330   99.6180 C   0  0  0  0  0  0  0  0  0  0  0  0
   38.9680   18.1970  100.8010 C   0  0  0  0  0  0  0  0  0  0  0  0
   37.7320   18.6810  101.5090 C   0  0  0  0  0  0  0  0  0  0  0  0
   37.2770   19.7870  101.1490 O   0  0  0  0  0  0  0  0  0  0  0  0
   37.2190   17.9510  102.3960 O   0  0  0  0  0  0  0  0  0  0  0  0
   36.8390   15.3270   98.1750 N   0  0  0  0  0  0  0  0  0  0  0  0
   35.5470   14.9180   97.6040 C   0  0  2  0  0  0  0  0  0  0  0  0
   35.0340   13.6540   98.2990 C   0  0  0  0  0  0  0  0  0  0  0  0
   33.8790   13.5990   98.6940 O   0  0  0  0  0  0  0  0  0  0  0  0
   35.6390   14.7200   96.1000 C   0  0  0  0  0  0  0  0  0  0  0  0
   35.8950   16.0150   95.3340 C   0  0  0  0  0  0  0  0  0  0  0  0
   36.0150   15.7210   93.8760 C   0  0  0  0  0  0  0  0  0  0  0  0
   34.8250   17.1010   95.6020 C   0  0  0  0  0  0  0  0  0  0  0  0
   35.9000   12.6710   98.5040 N   0  0  0  0  0  0  0  0  0  0  0  0
   35.5070   11.4570   99.2340 C   0  0  2  0  0  0  0  0  0  0  0  0
   35.0680   11.7630  100.6650 C   0  0  0  0  0  0  0  0  0  0  0  0
   34.1260   11.1470  101.1740 O   0  0  0  0  0  0  0  0  0  0  0  0
   36.6250   10.4020   99.2000 C   0  0  0  0  0  0  0  0  0  0  0  0
   35.7160   12.7420  101.2950 N   0  0  0  0  0  0  0  0  0  0  0  0
   35.3280   13.1820  102.6250 C   0  0  0  0  0  0  0  0  0  0  0  0
   38.7219   13.0870   94.8131 H   0  0  0  0  0  0  0  0  0  0  0  0
   40.4270   12.7395   94.9706 H   0  0  0  0  0  0  0  0  0  0  0  0
   39.8296   14.3487   95.2969 H   0  0  0  0  0  0  0  0  0  0  0  0
   41.2544   13.5151   97.2894 H   0  0  0  0  0  0  0  0  0  0  0  0
   40.0813   11.8196   99.2072 H   0  0  0  0  0  0  0  0  0  0  0  0
   42.0512   14.0610   99.6457 H   0  0  0  0  0  0  0  0  0  0  0  0
   42.4652   12.4076   99.2610 H   0  0  0  0  0  0  0  0  0  0  0  0
   41.6976   12.7842  100.7848 H   0  0  0  0  0  0  0  0  0  0  0  0
   40.0259   15.3455   98.8725 H   0  0  0  0  0  0  0  0  0  0  0  0
   38.3243   15.8135  101.0652 H   0  0  0  0  0  0  0  0  0  0  0  0
   37.7688   17.7465   99.1308 H   0  0  0  0  0  0  0  0  0  0  0  0
   39.4839   17.3178   98.9774 H   0  0  0  0  0  0  0  0  0  0  0  0
   39.5281   19.0436  100.4626 H   0  0  0  0  0  0  0  0  0  0  0  0
   39.5397   17.6105  101.4896 H   0  0  0  0  0  0  0  0  0  0  0  0
   37.6165   15.4732   97.5891 H   0  0  0  0  0  0  0  0  0  0  0  0
   34.8443   15.7065   97.7755 H   0  0  0  0  0  0  0  0  0  0  0  0
   36.4400   14.0407   95.8955 H   0  0  0  0  0  0  0  0  0  0  0  0
   34.6938   14.3402   95.7724 H   0  0  0  0  0  0  0  0  0  0  0  0
   36.8174   16.4225   95.6919 H   0  0  0  0  0  0  0  0  0  0  0  0
   35.0930   15.3134   93.5173 H   0  0  0  0  0  0  0  0  0  0  0  0
   36.8027   15.0142   93.7183 H   0  0  0  0  0  0  0  0  0  0  0  0
   36.2354   16.6246   93.3469 H   0  0  0  0  0  0  0  0  0  0  0  0
   33.8712   16.7530   95.2641 H   0  0  0  0  0  0  0  0  0  0  0  0
   35.0852   17.9956   95.0758 H   0  0  0  0  0  0  0  0  0  0  0  0
   34.7790   17.3051   96.6514 H   0  0  0  0  0  0  0  0  0  0  0  0
   36.8195   12.7554   98.1624 H   0  0  0  0  0  0  0  0  0  0  0  0
   34.6559   11.0478   98.7309 H   0  0  0  0  0  0  0  0  0  0  0  0
   37.4917   10.7846   99.6974 H   0  0  0  0  0  0  0  0  0  0  0  0
   36.8689   10.1734   98.1836 H   0  0  0  0  0  0  0  0  0  0  0  0
   36.2924    9.5138   99.6954 H   0  0  0  0  0  0  0  0  0  0  0  0
   36.4770   13.1785  100.8483 H   0  0  0  0  0  0  0  0  0  0  0  0
   34.4901   12.6074  102.9605 H   0  0  0  0  0  0  0  0  0  0  0  0
   35.0609   14.2177  102.5943 H   0  0  0  0  0  0  0  0  0  0  0  0
   36.1474   13.0448  103.2993 H   0  0  0  0  0  0  0  0  0  0  0  0
  1  2  1  0  0  0  0
  1 33  1  0  0  0  0
  1 34  1  0  0  0  0
  1 35  1  0  0  0  0
  2  4  1  0  0  0  0
  3  2  2  0  0  0  0
  4  5  1  0  0  0  0
  4 36  1  0  0  0  0
  5  8  1  0  0  0  0
  5 37  1  6  0  0  0
  6  7  2  0  0  0  0
  6  5  1  0  0  0  0
  8 38  1  0  0  0  0
  8 39  1  0  0  0  0
  8 40  1  0  0  0  0
  9  6  1  0  0  0  0
  9 41  1  0  0  0  0
 10  9  1  0  0  0  0
 10 42  1  1  0  0  0
 11 10  1  0  0  0  0
 12 11  2  0  0  0  0
 13 10  1  0  0  0  0
 13 14  1  0  0  0  0
 13 43  1  0  0  0  0
 13 44  1  0  0  0  0
 14 45  1  0  0  0  0
 14 46  1  0  0  0  0
 15 14  1  0  0  0  0
 15 17  1  0  0  0  0
 16 15  2  0  0  0  0
 18 11  1  0  0  0  0
 18 47  1  0  0  0  0
 19 22  1  0  0  0  0
 19 18  1  0  0  0  0
 19 48  1  6  0  0  0
 20 21  2  0  0  0  0
 20 19  1  0  0  0  0
 22 23  1  0  0  0  0
 22 49  1  0  0  0  0
 22 50  1  0  0  0  0
 23 24  1  0  0  0  0
 23 51  1  0  0  0  0
 24 52  1  0  0  0  0
 24 53  1  0  0  0  0
 24 54  1  0  0  0  0
 25 23  1  0  0  0  0
 25 55  1  0  0  0  0
 25 56  1  0  0  0  0
 25 57  1  0  0  0  0
 26 20  1  0  0  0  0
 26 58  1  0  0  0  0
 27 26  1  0  0  0  0
 27 59  1  1  0  0  0
 28 27  1  0  0  0  0
 28 31  1  0  0  0  0
 29 28  2  0  0  0  0
 30 27  1  0  0  0  0
 30 60  1  0  0  0  0
 30 61  1  0  0  0  0
 30 62  1  0  0  0  0
 31 63  1  0  0  0  0
 32 31  1  0  0  0  0
 32 64  1  0  0  0  0
 32 65  1  0  0  0  0
 32 66  1  0  0  0  0
M  CHG  1  17  -1
M  END
>  <MODEL>
       0

$$$$
selected_4mers/AELA/137_noH.pdb
 OpenBabel03042517503D

 66 65  0  0  1  0  0  0  0  0999 V2000
    5.3510   17.1450   44.9960 C   0  0  0  0  0  0  0  0  0  0  0  0
    6.4850   16.3200   44.4100 C   0  0  0  0  0  0  0  0  0  0  0  0
    7.4600   16.0080   45.0900 O   0  0  0  0  0  0  0  0  0  0  0  0
    6.3610   15.9710   43.1290 N   0  0  0  0  0  0  0  0  0  0  0  0
    7.3830   15.1780   42.4530 C   0  0  2  0  0  0  0  0  0  0  0  0
    8.7230   15.8930   42.5080 C   0  0  0  0  0  0  0  0  0  0  0  0
    8.7880   17.1260   42.4760 O   0  0  0  0  0  0  0  0  0  0  0  0
    6.9850   14.9160   40.9970 C   0  0  0  0  0  0  0  0  0  0  0  0
    9.7940   15.1120   42.5850 N   0  0  0  0  0  0  0  0  0  0  0  0
   11.1400   15.6610   42.6570 C   0  0  2  0  0  0  0  0  0  0  0  0
   12.0720   15.0750   41.6120 C   0  0  0  0  0  0  0  0  0  0  0  0
   12.0540   13.8700   41.3500 O   0  0  0  0  0  0  0  0  0  0  0  0
   11.7430   15.3980   44.0400 C   0  0  0  0  0  0  0  0  0  0  0  0
   11.3670   16.4040   45.1050 C   0  0  0  0  0  0  0  0  0  0  0  0
   11.9200   17.7830   44.8100 C   0  0  0  0  0  0  0  0  0  0  0  0
   13.1400   17.9000   44.5560 O   0  0  0  0  0  0  0  0  0  0  0  0
   11.1380   18.7550   44.8330 O   0  0  0  0  0  0  0  0  0  0  0  0
   12.8830   15.9390   41.0140 N   0  0  0  0  0  0  0  0  0  0  0  0
   13.8760   15.5160   40.0340 C   0  0  2  0  0  0  0  0  0  0  0  0
   15.2030   15.9490   40.6510 C   0  0  0  0  0  0  0  0  0  0  0  0
   15.3790   17.1230   40.9930 O   0  0  0  0  0  0  0  0  0  0  0  0
   13.6580   16.2210   38.6830 C   0  0  0  0  0  0  0  0  0  0  0  0
   14.7670   16.0200   37.6410 C   0  0  0  0  0  0  0  0  0  0  0  0
   14.9180   14.5390   37.3010 C   0  0  0  0  0  0  0  0  0  0  0  0
   14.4410   16.8110   36.3950 C   0  0  0  0  0  0  0  0  0  0  0  0
   16.1200   15.0030   40.8230 N   0  0  0  0  0  0  0  0  0  0  0  0
   17.4150   15.3030   41.4180 C   0  0  2  0  0  0  0  0  0  0  0  0
   18.5390   14.6450   40.6370 C   0  0  0  0  0  0  0  0  0  0  0  0
   18.3460   13.6030   40.0030 O   0  0  0  0  0  0  0  0  0  0  0  0
   17.4440   14.8330   42.8720 C   0  0  0  0  0  0  0  0  0  0  0  0
   19.7190   15.2550   40.6890 N   0  0  0  0  0  0  0  0  0  0  0  0
   20.8690   14.7140   39.9800 C   0  0  0  0  0  0  0  0  0  0  0  0
    4.6042   17.3075   44.2471 H   0  0  0  0  0  0  0  0  0  0  0  0
    5.7315   18.0874   45.3306 H   0  0  0  0  0  0  0  0  0  0  0  0
    4.9190   16.6209   45.8228 H   0  0  0  0  0  0  0  0  0  0  0  0
    5.5623   16.2545   42.6281 H   0  0  0  0  0  0  0  0  0  0  0  0
    7.4704   14.2378   42.9562 H   0  0  0  0  0  0  0  0  0  0  0  0
    6.8933   15.8478   40.4791 H   0  0  0  0  0  0  0  0  0  0  0  0
    6.0482   14.3997   40.9707 H   0  0  0  0  0  0  0  0  0  0  0  0
    7.7355   14.3175   40.5243 H   0  0  0  0  0  0  0  0  0  0  0  0
    9.6744   14.1348   42.5936 H   0  0  0  0  0  0  0  0  0  0  0  0
   11.0469   16.7107   42.4716 H   0  0  0  0  0  0  0  0  0  0  0  0
   12.8086   15.4004   43.9430 H   0  0  0  0  0  0  0  0  0  0  0  0
   11.3471   14.4583   44.3642 H   0  0  0  0  0  0  0  0  0  0  0  0
   11.7542   16.0713   46.0454 H   0  0  0  0  0  0  0  0  0  0  0  0
   10.2996   16.4758   45.1269 H   0  0  0  0  0  0  0  0  0  0  0  0
   12.8118   16.8948   41.2391 H   0  0  0  0  0  0  0  0  0  0  0  0
   13.8284   14.4664   39.8317 H   0  0  0  0  0  0  0  0  0  0  0  0
   12.7437   15.8549   38.2648 H   0  0  0  0  0  0  0  0  0  0  0  0
   13.6472   17.2689   38.8991 H   0  0  0  0  0  0  0  0  0  0  0  0
   15.6935   16.3684   38.0474 H   0  0  0  0  0  0  0  0  0  0  0  0
   13.9999   14.1715   36.8924 H   0  0  0  0  0  0  0  0  0  0  0  0
   15.1576   13.9919   38.1888 H   0  0  0  0  0  0  0  0  0  0  0  0
   15.7023   14.4159   36.5836 H   0  0  0  0  0  0  0  0  0  0  0  0
   13.5148   16.4655   35.9854 H   0  0  0  0  0  0  0  0  0  0  0  0
   15.2210   16.6790   35.6745 H   0  0  0  0  0  0  0  0  0  0  0  0
   14.3564   17.8484   36.6431 H   0  0  0  0  0  0  0  0  0  0  0  0
   15.9200   14.0807   40.5426 H   0  0  0  0  0  0  0  0  0  0  0  0
   17.5606   16.3626   41.3861 H   0  0  0  0  0  0  0  0  0  0  0  0
   17.2987   13.7735   42.9073 H   0  0  0  0  0  0  0  0  0  0  0  0
   16.6633   15.3186   43.4194 H   0  0  0  0  0  0  0  0  0  0  0  0
   18.3903   15.0779   43.3072 H   0  0  0  0  0  0  0  0  0  0  0  0
   19.8161   16.0826   41.2134 H   0  0  0  0  0  0  0  0  0  0  0  0
   20.5834   13.8192   39.4675 H   0  0  0  0  0  0  0  0  0  0  0  0
   21.6471   14.4913   40.6799 H   0  0  0  0  0  0  0  0  0  0  0  0
   21.2220   15.4337   39.2713 H   0  0  0  0  0  0  0  0  0  0  0  0
  1  2  1  0  0  0  0
  1 33  1  0  0  0  0
  1 34  1  0  0  0  0
  1 35  1  0  0  0  0
  2  4  1  0  0  0  0
  3  2  2  0  0  0  0
  4  5  1  0  0  0  0
  4 36  1  0  0  0  0
  5  8  1  0  0  0  0
  5 37  1  6  0  0  0
  6  7  2  0  0  0  0
  6  5  1  0  0  0  0
  8 38  1  0  0  0  0
  8 39  1  0  0  0  0
  8 40  1  0  0  0  0
  9  6  1  0  0  0  0
  9 41  1  0  0  0  0
 10  9  1  0  0  0  0
 10 42  1  1  0  0  0
 11 10  1  0  0  0  0
 12 11  2  0  0  0  0
 13 10  1  0  0  0  0
 13 14  1  0  0  0  0
 13 43  1  0  0  0  0
 13 44  1  0  0  0  0
 14 45  1  0  0  0  0
 14 46  1  0  0  0  0
 15 14  1  0  0  0  0
 15 17  1  0  0  0  0
 16 15  2  0  0  0  0
 18 11  1  0  0  0  0
 18 47  1  0  0  0  0
 19 22  1  0  0  0  0
 19 18  1  0  0  0  0
 19 48  1  6  0  0  0
 20 21  2  0  0  0  0
 20 19  1  0  0  0  0
 22 23  1  0  0  0  0
 22 49  1  0  0  0  0
 22 50  1  0  0  0  0
 23 24  1  0  0  0  0
 23 51  1  0  0  0  0
 24 52  1  0  0  0  0
 24 53  1  0  0  0  0
 24 54  1  0  0  0  0
 25 23  1  0  0  0  0
 25 55  1  0  0  0  0
 25 56  1  0  0  0  0
 25 57  1  0  0  0  0
 26 20  1  0  0  0  0
 26 58  1  0  0  0  0
 27 26  1  0  0  0  0
 27 59  1  1  0  0  0
 28 27  1  0  0  0  0
 28 31  1  0  0  0  0
 29 28  2  0  0  0  0
 30 27  1  0  0  0  0
 30 60  1  0  0  0  0
 30 61  1  0  0  0  0
 30 62  1  0  0  0  0
 31 63  1  0  0  0  0
 32 31  1  0  0  0  0
 32 64  1  0  0  0  0
 32 65  1  0  0  0  0
 32 66  1  0  0  0  0
M  CHG  1  17  -1
M  END
>  <MODEL>
       0

$$$$
selected_4mers/AELA/138_noH.pdb
 OpenBabel03042517503D

 66 65  0  0  1  0  0  0  0  0999 V2000
   48.5910   18.9800   31.3560 C   0  0  0  0  0  0  0  0  0  0  0  0
   47.0940   18.8760   31.0760 C   0  0  0  0  0  0  0  0  0  0  0  0
   46.2700   19.3840   31.8370 O   0  0  0  0  0  0  0  0  0  0  0  0
   46.7480   18.1990   29.9850 N   0  0  0  0  0  0  0  0  0  0  0  0
   45.3490   18.0260   29.6060 C   0  0  2  0  0  0  0  0  0  0  0  0
   44.6070   17.2060   30.6580 C   0  0  0  0  0  0  0  0  0  0  0  0
   43.4380   17.4660   30.9530 O   0  0  0  0  0  0  0  0  0  0  0  0
   45.2560   17.3450   28.2460 C   0  0  0  0  0  0  0  0  0  0  0  0
   45.2870   16.2130   31.2220 N   0  0  0  0  0  0  0  0  0  0  0  0
   44.6780   15.3710   32.2460 C   0  0  2  0  0  0  0  0  0  0  0  0
   44.3640   16.2120   33.4790 C   0  0  0  0  0  0  0  0  0  0  0  0
   43.3010   16.0730   34.0860 O   0  0  0  0  0  0  0  0  0  0  0  0
   45.6180   14.2190   32.6210 C   0  0  0  0  0  0  0  0  0  0  0  0
   45.0900   13.3380   33.7510 C   0  0  0  0  0  0  0  0  0  0  0  0
   46.0560   12.2340   34.1410 C   0  0  0  0  0  0  0  0  0  0  0  0
   47.2430   12.3150   33.7610 O   0  0  0  0  0  0  0  0  0  0  0  0
   45.6320   11.2880   34.8390 O   0  0  0  0  0  0  0  0  0  0  0  0
   45.2890   17.0920   33.8460 N   0  0  0  0  0  0  0  0  0  0  0  0
   45.0780   17.9510   35.0050 C   0  0  2  0  0  0  0  0  0  0  0  0
   43.9220   18.9150   34.7520 C   0  0  0  0  0  0  0  0  0  0  0  0
   43.1200   19.1810   35.6470 O   0  0  0  0  0  0  0  0  0  0  0  0
   46.3480   18.7380   35.3320 C   0  0  0  0  0  0  0  0  0  0  0  0
   46.2320   19.6910   36.5270 C   0  0  0  0  0  0  0  0  0  0  0  0
   45.7650   18.9380   37.7640 C   0  0  0  0  0  0  0  0  0  0  0  0
   47.5770   20.3450   36.7810 C   0  0  0  0  0  0  0  0  0  0  0  0
   43.8400   19.4390   33.5330 N   0  0  0  0  0  0  0  0  0  0  0  0
   42.7630   20.3580   33.1790 C   0  0  2  0  0  0  0  0  0  0  0  0
   41.4370   19.6120   33.2740 C   0  0  0  0  0  0  0  0  0  0  0  0
   40.4210   20.1740   33.6920 O   0  0  0  0  0  0  0  0  0  0  0  0
   42.9680   20.8910   31.7680 C   0  0  0  0  0  0  0  0  0  0  0  0
   41.4560   18.3400   32.8850 N   0  0  0  0  0  0  0  0  0  0  0  0
   40.2630   17.5010   32.9340 C   0  0  0  0  0  0  0  0  0  0  0  0
   49.1342   18.4776   30.5831 H   0  0  0  0  0  0  0  0  0  0  0  0
   48.8099   18.5249   32.2994 H   0  0  0  0  0  0  0  0  0  0  0  0
   48.8783   20.0104   31.3818 H   0  0  0  0  0  0  0  0  0  0  0  0
   47.4516   17.8054   29.4199 H   0  0  0  0  0  0  0  0  0  0  0  0
   44.8906   18.9908   29.5432 H   0  0  0  0  0  0  0  0  0  0  0  0
   45.7122   16.3786   28.2991 H   0  0  0  0  0  0  0  0  0  0  0  0
   45.7628   17.9389   27.5143 H   0  0  0  0  0  0  0  0  0  0  0  0
   44.2277   17.2393   27.9696 H   0  0  0  0  0  0  0  0  0  0  0  0
   46.2161   16.0430   30.9444 H   0  0  0  0  0  0  0  0  0  0  0  0
   43.7706   14.9558   31.8597 H   0  0  0  0  0  0  0  0  0  0  0  0
   46.5557   14.6341   32.9265 H   0  0  0  0  0  0  0  0  0  0  0  0
   45.7093   13.5961   31.7558 H   0  0  0  0  0  0  0  0  0  0  0  0
   44.1709   12.8911   33.4342 H   0  0  0  0  0  0  0  0  0  0  0  0
   44.9544   13.9633   34.6086 H   0  0  0  0  0  0  0  0  0  0  0  0
   46.1247   17.1648   33.3306 H   0  0  0  0  0  0  0  0  0  0  0  0
   44.8345   17.3281   35.8403 H   0  0  0  0  0  0  0  0  0  0  0  0
   46.6107   19.3163   34.4709 H   0  0  0  0  0  0  0  0  0  0  0  0
   47.0878   18.0127   35.5996 H   0  0  0  0  0  0  0  0  0  0  0  0
   45.5086   20.4476   36.3053 H   0  0  0  0  0  0  0  0  0  0  0  0
   46.4744   18.1743   38.0056 H   0  0  0  0  0  0  0  0  0  0  0  0
   44.8120   18.4915   37.5711 H   0  0  0  0  0  0  0  0  0  0  0  0
   45.6803   19.6188   38.5851 H   0  0  0  0  0  0  0  0  0  0  0  0
   48.3036   19.5916   37.0031 H   0  0  0  0  0  0  0  0  0  0  0  0
   47.4958   21.0175   37.6093 H   0  0  0  0  0  0  0  0  0  0  0  0
   47.8802   20.8871   35.9098 H   0  0  0  0  0  0  0  0  0  0  0  0
   44.5168   19.2033   32.8581 H   0  0  0  0  0  0  0  0  0  0  0  0
   42.7600   21.1899   33.8520 H   0  0  0  0  0  0  0  0  0  0  0  0
   42.9746   20.0750   31.0759 H   0  0  0  0  0  0  0  0  0  0  0  0
   43.9017   21.4109   31.7153 H   0  0  0  0  0  0  0  0  0  0  0  0
   42.1718   21.5618   31.5209 H   0  0  0  0  0  0  0  0  0  0  0  0
   42.2991   17.9536   32.5546 H   0  0  0  0  0  0  0  0  0  0  0  0
   39.4414   18.0712   33.3145 H   0  0  0  0  0  0  0  0  0  0  0  0
   40.4425   16.6629   33.5745 H   0  0  0  0  0  0  0  0  0  0  0  0
   40.0304   17.1538   31.9490 H   0  0  0  0  0  0  0  0  0  0  0  0
  1  2  1  0  0  0  0
  1 33  1  0  0  0  0
  1 34  1  0  0  0  0
  1 35  1  0  0  0  0
  2  4  1  0  0  0  0
  3  2  2  0  0  0  0
  4  5  1  0  0  0  0
  4 36  1  0  0  0  0
  5  8  1  0  0  0  0
  5 37  1  6  0  0  0
  6  7  2  0  0  0  0
  6  5  1  0  0  0  0
  8 38  1  0  0  0  0
  8 39  1  0  0  0  0
  8 40  1  0  0  0  0
  9  6  1  0  0  0  0
  9 41  1  0  0  0  0
 10  9  1  0  0  0  0
 10 42  1  1  0  0  0
 11 10  1  0  0  0  0
 12 11  2  0  0  0  0
 13 10  1  0  0  0  0
 13 14  1  0  0  0  0
 13 43  1  0  0  0  0
 13 44  1  0  0  0  0
 14 45  1  0  0  0  0
 14 46  1  0  0  0  0
 15 14  1  0  0  0  0
 15 17  1  0  0  0  0
 16 15  2  0  0  0  0
 18 11  1  0  0  0  0
 18 47  1  0  0  0  0
 19 22  1  0  0  0  0
 19 18  1  0  0  0  0
 19 48  1  6  0  0  0
 20 21  2  0  0  0  0
 20 19  1  0  0  0  0
 22 23  1  0  0  0  0
 22 49  1  0  0  0  0
 22 50  1  0  0  0  0
 23 24  1  0  0  0  0
 23 51  1  0  0  0  0
 24 52  1  0  0  0  0
 24 53  1  0  0  0  0
 24 54  1  0  0  0  0
 25 23  1  0  0  0  0
 25 55  1  0  0  0  0
 25 56  1  0  0  0  0
 25 57  1  0  0  0  0
 26 20  1  0  0  0  0
 26 58  1  0  0  0  0
 27 26  1  0  0  0  0
 27 59  1  1  0  0  0
 28 27  1  0  0  0  0
 28 31  1  0  0  0  0
 29 28  2  0  0  0  0
 30 27  1  0  0  0  0
 30 60  1  0  0  0  0
 30 61  1  0  0  0  0
 30 62  1  0  0  0  0
 31 63  1  0  0  0  0
 32 31  1  0  0  0  0
 32 64  1  0  0  0  0
 32 65  1  0  0  0  0
 32 66  1  0  0  0  0
M  CHG  1  17  -1
M  END
>  <MODEL>
       0

$$$$
selected_4mers/AELA/139_noH.pdb
 OpenBabel03042517503D

 66 65  0  0  1  0  0  0  0  0999 V2000
   29.7740   34.9590   30.1670 C   0  0  0  0  0  0  0  0  0  0  0  0
   30.4470   33.6000   30.3640 C   0  0  0  0  0  0  0  0  0  0  0  0
   30.7620   32.9050   29.3990 O   0  0  0  0  0  0  0  0  0  0  0  0
   30.6270   33.2150   31.6250 N   0  0  0  0  0  0  0  0  0  0  0  0
   31.2730   31.9510   31.9570 C   0  0  2  0  0  0  0  0  0  0  0  0
   30.3960   30.7580   31.5780 C   0  0  0  0  0  0  0  0  0  0  0  0
   30.8920   29.7550   31.0750 O   0  0  0  0  0  0  0  0  0  0  0  0
   31.6220   31.9080   33.4390 C   0  0  0  0  0  0  0  0  0  0  0  0
   29.0920   30.8720   31.8150 N   0  0  0  0  0  0  0  0  0  0  0  0
   28.1510   29.8210   31.4420 C   0  0  2  0  0  0  0  0  0  0  0  0
   28.1620   29.5850   29.9300 C   0  0  0  0  0  0  0  0  0  0  0  0
   28.0990   28.4460   29.4820 O   0  0  0  0  0  0  0  0  0  0  0  0
   26.7380   30.1720   31.9140 C   0  0  0  0  0  0  0  0  0  0  0  0
   26.5710   30.1070   33.4300 C   0  0  0  0  0  0  0  0  0  0  0  0
   25.3030   30.7670   33.9420 C   0  0  0  0  0  0  0  0  0  0  0  0
   24.6650   31.5430   33.2020 O   0  0  0  0  0  0  0  0  0  0  0  0
   24.9410   30.5150   35.1100 O   0  0  0  0  0  0  0  0  0  0  0  0
   28.2670   30.6630   29.1540 N   0  0  0  0  0  0  0  0  0  0  0  0
   28.2860   30.5750   27.6920 C   0  0  2  0  0  0  0  0  0  0  0  0
   29.6340   30.1110   27.1490 C   0  0  0  0  0  0  0  0  0  0  0  0
   29.7070   29.6190   26.0270 O   0  0  0  0  0  0  0  0  0  0  0  0
   27.9570   31.9320   27.0680 C   0  0  0  0  0  0  0  0  0  0  0  0
   26.5090   32.4030   27.2000 C   0  0  0  0  0  0  0  0  0  0  0  0
   26.4240   33.9080   27.0030 C   0  0  0  0  0  0  0  0  0  0  0  0
   25.6190   31.6700   26.2020 C   0  0  0  0  0  0  0  0  0  0  0  0
   30.6940   30.2730   27.9350 N   0  0  0  0  0  0  0  0  0  0  0  0
   32.0530   29.9770   27.4830 C   0  0  2  0  0  0  0  0  0  0  0  0
   32.3190   28.4760   27.3950 C   0  0  0  0  0  0  0  0  0  0  0  0
   32.3370   27.7850   28.4060 O   0  0  0  0  0  0  0  0  0  0  0  0
   33.0690   30.6340   28.4070 C   0  0  0  0  0  0  0  0  0  0  0  0
   32.5300   27.9810   26.1800 N   0  0  0  0  0  0  0  0  0  0  0  0
   32.8420   26.5730   25.9660 C   0  0  0  0  0  0  0  0  0  0  0  0
   29.6819   35.1631   29.1207 H   0  0  0  0  0  0  0  0  0  0  0  0
   30.3671   35.7209   30.6282 H   0  0  0  0  0  0  0  0  0  0  0  0
   28.8021   34.9439   30.6143 H   0  0  0  0  0  0  0  0  0  0  0  0
   30.3155   33.7995   32.3534 H   0  0  0  0  0  0  0  0  0  0  0  0
   32.1761   31.8842   31.3870 H   0  0  0  0  0  0  0  0  0  0  0  0
   30.7251   31.9742   34.0187 H   0  0  0  0  0  0  0  0  0  0  0  0
   32.2630   32.7306   33.6785 H   0  0  0  0  0  0  0  0  0  0  0  0
   32.1231   30.9890   33.6609 H   0  0  0  0  0  0  0  0  0  0  0  0
   28.7533   31.6860   32.2531 H   0  0  0  0  0  0  0  0  0  0  0  0
   28.4592   28.9168   31.9240 H   0  0  0  0  0  0  0  0  0  0  0  0
   26.0507   29.4842   31.4674 H   0  0  0  0  0  0  0  0  0  0  0  0
   26.5485   31.1828   31.6186 H   0  0  0  0  0  0  0  0  0  0  0  0
   27.4096   30.5943   33.8818 H   0  0  0  0  0  0  0  0  0  0  0  0
   26.5065   29.0710   33.6895 H   0  0  0  0  0  0  0  0  0  0  0  0
   28.3341   31.5491   29.5778 H   0  0  0  0  0  0  0  0  0  0  0  0
   27.5459   29.8489   27.4276 H   0  0  0  0  0  0  0  0  0  0  0  0
   28.5823   32.6652   27.5331 H   0  0  0  0  0  0  0  0  0  0  0  0
   28.1241   31.8120   26.0180 H   0  0  0  0  0  0  0  0  0  0  0  0
   26.1604   32.1752   28.1856 H   0  0  0  0  0  0  0  0  0  0  0  0
   26.7685   34.1593   26.0216 H   0  0  0  0  0  0  0  0  0  0  0  0
   27.0350   34.3982   27.7319 H   0  0  0  0  0  0  0  0  0  0  0  0
   25.4087   34.2258   27.1168 H   0  0  0  0  0  0  0  0  0  0  0  0
   25.9488   31.8828   25.2066 H   0  0  0  0  0  0  0  0  0  0  0  0
   24.6069   31.9965   26.3198 H   0  0  0  0  0  0  0  0  0  0  0  0
   25.6768   30.6164   26.3793 H   0  0  0  0  0  0  0  0  0  0  0  0
   30.5595   30.6035   28.8526 H   0  0  0  0  0  0  0  0  0  0  0  0
   32.1538   30.3783   26.4962 H   0  0  0  0  0  0  0  0  0  0  0  0
   32.9668   30.2316   29.3932 H   0  0  0  0  0  0  0  0  0  0  0  0
   32.8971   31.6898   28.4330 H   0  0  0  0  0  0  0  0  0  0  0  0
   34.0572   30.4424   28.0443 H   0  0  0  0  0  0  0  0  0  0  0  0
   32.4741   28.5821   25.4023 H   0  0  0  0  0  0  0  0  0  0  0  0
   32.8639   26.0654   26.9077 H   0  0  0  0  0  0  0  0  0  0  0  0
   33.7976   26.4874   25.4924 H   0  0  0  0  0  0  0  0  0  0  0  0
   32.0934   26.1328   25.3409 H   0  0  0  0  0  0  0  0  0  0  0  0
  1  2  1  0  0  0  0
  1 33  1  0  0  0  0
  1 34  1  0  0  0  0
  1 35  1  0  0  0  0
  2  4  1  0  0  0  0
  3  2  2  0  0  0  0
  4  5  1  0  0  0  0
  4 36  1  0  0  0  0
  5  8  1  0  0  0  0
  5 37  1  6  0  0  0
  6  7  2  0  0  0  0
  6  5  1  0  0  0  0
  8 38  1  0  0  0  0
  8 39  1  0  0  0  0
  8 40  1  0  0  0  0
  9  6  1  0  0  0  0
  9 41  1  0  0  0  0
 10  9  1  0  0  0  0
 10 42  1  1  0  0  0
 11 10  1  0  0  0  0
 12 11  2  0  0  0  0
 13 10  1  0  0  0  0
 13 14  1  0  0  0  0
 13 43  1  0  0  0  0
 13 44  1  0  0  0  0
 14 45  1  0  0  0  0
 14 46  1  0  0  0  0
 15 14  1  0  0  0  0
 15 17  1  0  0  0  0
 16 15  2  0  0  0  0
 18 11  1  0  0  0  0
 18 47  1  0  0  0  0
 19 22  1  0  0  0  0
 19 18  1  0  0  0  0
 19 48  1  6  0  0  0
 20 21  2  0  0  0  0
 20 19  1  0  0  0  0
 22 23  1  0  0  0  0
 22 49  1  0  0  0  0
 22 50  1  0  0  0  0
 23 24  1  0  0  0  0
 23 51  1  0  0  0  0
 24 52  1  0  0  0  0
 24 53  1  0  0  0  0
 24 54  1  0  0  0  0
 25 23  1  0  0  0  0
 25 55  1  0  0  0  0
 25 56  1  0  0  0  0
 25 57  1  0  0  0  0
 26 20  1  0  0  0  0
 26 58  1  0  0  0  0
 27 26  1  0  0  0  0
 27 59  1  1  0  0  0
 28 27  1  0  0  0  0
 28 31  1  0  0  0  0
 29 28  2  0  0  0  0
 30 27  1  0  0  0  0
 30 60  1  0  0  0  0
 30 61  1  0  0  0  0
 30 62  1  0  0  0  0
 31 63  1  0  0  0  0
 32 31  1  0  0  0  0
 32 64  1  0  0  0  0
 32 65  1  0  0  0  0
 32 66  1  0  0  0  0
M  CHG  1  17  -1
M  END
>  <MODEL>
       0

$$$$
