selected_4mers/AELV/315_noH.pdb
 OpenBabel03042517593D

 72 71  0  0  1  0  0  0  0  0999 V2000
   -0.9230   16.8490   36.9300 C   0  0  0  0  0  0  0  0  0  0  0  0
   -1.4490   17.9820   37.8050 C   0  0  0  0  0  0  0  0  0  0  0  0
   -1.0200   18.1520   38.9410 O   0  0  0  0  0  0  0  0  0  0  0  0
   -2.3910   18.7460   37.2640 N   0  0  0  0  0  0  0  0  0  0  0  0
   -2.9780   19.8680   37.9810 C   0  0  2  0  0  0  0  0  0  0  0  0
   -3.6770   19.3950   39.2510 C   0  0  0  0  0  0  0  0  0  0  0  0
   -3.5950   20.0430   40.2910 O   0  0  0  0  0  0  0  0  0  0  0  0
   -3.9580   20.5960   37.0880 C   0  0  0  0  0  0  0  0  0  0  0  0
   -4.3640   18.2610   39.1620 N   0  0  0  0  0  0  0  0  0  0  0  0
   -5.0680   17.6990   40.3110 C   0  0  2  0  0  0  0  0  0  0  0  0
   -4.0940   17.3280   41.4320 C   0  0  0  0  0  0  0  0  0  0  0  0
   -4.3520   17.6040   42.6060 O   0  0  0  0  0  0  0  0  0  0  0  0
   -5.8600   16.4620   39.8780 C   0  0  0  0  0  0  0  0  0  0  0  0
   -6.6980   15.8450   40.9710 C   0  0  0  0  0  0  0  0  0  0  0  0
   -6.9490   14.3620   40.7460 C   0  0  0  0  0  0  0  0  0  0  0  0
   -6.9790   13.9350   39.5690 O   0  0  0  0  0  0  0  0  0  0  0  0
   -7.1150   13.6260   41.7500 O   0  0  0  0  0  0  0  0  0  0  0  0
   -2.9730   16.7080   41.0700 N   0  0  0  0  0  0  0  0  0  0  0  0
   -1.9770   16.3130   42.0620 C   0  0  2  0  0  0  0  0  0  0  0  0
   -1.3060   17.5320   42.6860 C   0  0  0  0  0  0  0  0  0  0  0  0
   -1.1210   17.5960   43.9050 O   0  0  0  0  0  0  0  0  0  0  0  0
   -0.9240   15.4060   41.4230 C   0  0  0  0  0  0  0  0  0  0  0  0
   -1.3890   13.9890   41.0790 C   0  0  0  0  0  0  0  0  0  0  0  0
   -0.2360   13.2150   40.4670 C   0  0  0  0  0  0  0  0  0  0  0  0
   -1.9180   13.2880   42.3340 C   0  0  0  0  0  0  0  0  0  0  0  0
   -0.9410   18.4990   41.8500 N   0  0  0  0  0  0  0  0  0  0  0  0
   -0.3060   19.7150   42.3500 C   0  0  2  0  0  0  0  0  0  0  0  0
   -1.2830   20.4560   43.2640 C   0  0  0  0  0  0  0  0  0  0  0  0
   -0.9030   20.9510   44.3240 O   0  0  0  0  0  0  0  0  0  0  0  0
    0.1240   20.6330   41.1810 C   0  0  0  0  0  0  0  0  0  0  0  0
    0.2940   22.0610   41.6620 C   0  0  0  0  0  0  0  0  0  0  0  0
    1.4240   20.1220   40.5820 C   0  0  0  0  0  0  0  0  0  0  0  0
   -2.5430   20.5190   42.8500 N   0  0  0  0  0  0  0  0  0  0  0  0
   -3.5750   21.1880   43.6310 C   0  0  0  0  0  0  0  0  0  0  0  0
   -1.4198   16.8699   35.9826 H   0  0  0  0  0  0  0  0  0  0  0  0
   -1.1100   15.9113   37.4102 H   0  0  0  0  0  0  0  0  0  0  0  0
    0.1299   16.9709   36.7834 H   0  0  0  0  0  0  0  0  0  0  0  0
   -2.7013   18.5474   36.3510 H   0  0  0  0  0  0  0  0  0  0  0  0
   -2.1924   20.5385   38.2607 H   0  0  0  0  0  0  0  0  0  0  0  0
   -4.7460   19.9296   36.8053 H   0  0  0  0  0  0  0  0  0  0  0  0
   -3.4521   20.9424   36.2111 H   0  0  0  0  0  0  0  0  0  0  0  0
   -4.3692   21.4310   37.6158 H   0  0  0  0  0  0  0  0  0  0  0  0
   -4.3992   17.7878   38.2994 H   0  0  0  0  0  0  0  0  0  0  0  0
   -5.7395   18.4420   40.6878 H   0  0  0  0  0  0  0  0  0  0  0  0
   -5.1663   15.7247   39.5314 H   0  0  0  0  0  0  0  0  0  0  0  0
   -6.5396   16.7850   39.1173 H   0  0  0  0  0  0  0  0  0  0  0  0
   -7.6402   16.3507   41.0078 H   0  0  0  0  0  0  0  0  0  0  0  0
   -6.1600   15.9478   41.8902 H   0  0  0  0  0  0  0  0  0  0  0  0
   -2.8130   16.5127   40.1184 H   0  0  0  0  0  0  0  0  0  0  0  0
   -2.4804   15.7751   42.8380 H   0  0  0  0  0  0  0  0  0  0  0  0
   -0.5938   15.8723   40.5183 H   0  0  0  0  0  0  0  0  0  0  0  0
   -0.1545   15.2901   42.1574 H   0  0  0  0  0  0  0  0  0  0  0  0
   -2.1867   14.0355   40.3673 H   0  0  0  0  0  0  0  0  0  0  0  0
    0.5697   13.1608   41.1690 H   0  0  0  0  0  0  0  0  0  0  0  0
    0.0966   13.7125   39.5800 H   0  0  0  0  0  0  0  0  0  0  0  0
   -0.5614   12.2259   40.2205 H   0  0  0  0  0  0  0  0  0  0  0  0
   -1.1383   13.2279   43.0644 H   0  0  0  0  0  0  0  0  0  0  0  0
   -2.2458   12.3016   42.0802 H   0  0  0  0  0  0  0  0  0  0  0  0
   -2.7394   13.8449   42.7341 H   0  0  0  0  0  0  0  0  0  0  0  0
   -1.1004   18.3942   40.8842 H   0  0  0  0  0  0  0  0  0  0  0  0
    0.5706   19.4452   42.9011 H   0  0  0  0  0  0  0  0  0  0  0  0
   -0.6386   20.6195   40.4305 H   0  0  0  0  0  0  0  0  0  0  0  0
    1.0539   22.0958   42.4145 H   0  0  0  0  0  0  0  0  0  0  0  0
   -0.6301   22.4117   42.0718 H   0  0  0  0  0  0  0  0  0  0  0  0
    0.5782   22.6831   40.8391 H   0  0  0  0  0  0  0  0  0  0  0  0
    2.1898   20.1337   41.3292 H   0  0  0  0  0  0  0  0  0  0  0  0
    1.7122   20.7511   39.7659 H   0  0  0  0  0  0  0  0  0  0  0  0
    1.2851   19.1214   40.2292 H   0  0  0  0  0  0  0  0  0  0  0  0
   -2.7865   20.1023   41.9919 H   0  0  0  0  0  0  0  0  0  0  0  0
   -3.1443   21.5826   44.5275 H   0  0  0  0  0  0  0  0  0  0  0  0
   -4.3426   20.4865   43.8829 H   0  0  0  0  0  0  0  0  0  0  0  0
   -3.9960   21.9863   43.0562 H   0  0  0  0  0  0  0  0  0  0  0  0
  1  2  1  0  0  0  0
  1 35  1  0  0  0  0
  1 36  1  0  0  0  0
  1 37  1  0  0  0  0
  2  3  2  0  0  0  0
  4  2  1  0  0  0  0
  4  5  1  0  0  0  0
  4 38  1  0  0  0  0
  5  6  1  0  0  0  0
  5 39  1  1  0  0  0
  6  7  2  0  0  0  0
  8  5  1  0  0  0  0
  8 40  1  0  0  0  0
  8 41  1  0  0  0  0
  8 42  1  0  0  0  0
  9  6  1  0  0  0  0
  9 10  1  0  0  0  0
  9 43  1  0  0  0  0
 10 11  1  0  0  0  0
 10 44  1  1  0  0  0
 11 12  2  0  0  0  0
 13 10  1  0  0  0  0
 13 14  1  0  0  0  0
 13 45  1  0  0  0  0
 13 46  1  0  0  0  0
 14 47  1  0  0  0  0
 14 48  1  0  0  0  0
 15 14  1  0  0  0  0
 15 17  1  0  0  0  0
 16 15  2  0  0  0  0
 18 11  1  0  0  0  0
 18 19  1  0  0  0  0
 18 49  1  0  0  0  0
 19 20  1  0  0  0  0
 19 50  1  1  0  0  0
 20 21  2  0  0  0  0
 22 19  1  0  0  0  0
 22 51  1  0  0  0  0
 22 52  1  0  0  0  0
 23 22  1  0  0  0  0
 23 25  1  0  0  0  0
 23 53  1  0  0  0  0
 24 23  1  0  0  0  0
 24 54  1  0  0  0  0
 24 55  1  0  0  0  0
 24 56  1  0  0  0  0
 25 57  1  0  0  0  0
 25 58  1  0  0  0  0
 25 59  1  0  0  0  0
 26 27  1  0  0  0  0
 26 20  1  0  0  0  0
 26 60  1  0  0  0  0
 27 28  1  0  0  0  0
 27 61  1  1  0  0  0
 28 29  2  0  0  0  0
 30 31  1  0  0  0  0
 30 27  1  0  0  0  0
 30 62  1  0  0  0  0
 31 63  1  0  0  0  0
 31 64  1  0  0  0  0
 31 65  1  0  0  0  0
 32 30  1  0  0  0  0
 32 66  1  0  0  0  0
 32 67  1  0  0  0  0
 32 68  1  0  0  0  0
 33 28  1  0  0  0  0
 33 34  1  0  0  0  0
 33 69  1  0  0  0  0
 34 70  1  0  0  0  0
 34 71  1  0  0  0  0
 34 72  1  0  0  0  0
M  CHG  1  17  -1
M  END
>  <MODEL>
       0

$$$$
selected_4mers/AELV/316_noH.pdb
 OpenBabel03042517593D

 72 71  0  0  1  0  0  0  0  0999 V2000
   28.6930  -13.9620   36.3390 C   0  0  0  0  0  0  0  0  0  0  0  0
   28.3080  -14.4400   34.9640 C   0  0  0  0  0  0  0  0  0  0  0  0
   28.5650  -13.7460   33.9700 O   0  0  0  0  0  0  0  0  0  0  0  0
   27.6590  -15.5960   34.8830 N   0  0  0  0  0  0  0  0  0  0  0  0
   27.1930  -16.1400   33.5910 C   0  0  2  0  0  0  0  0  0  0  0  0
   26.2070  -15.2360   32.8280 C   0  0  0  0  0  0  0  0  0  0  0  0
   26.0830  -15.3390   31.5910 O   0  0  0  0  0  0  0  0  0  0  0  0
   26.5570  -17.4700   33.7960 C   0  0  0  0  0  0  0  0  0  0  0  0
   25.4760  -14.3920   33.5600 N   0  0  0  0  0  0  0  0  0  0  0  0
   24.4830  -13.4940   32.9710 C   0  0  2  0  0  0  0  0  0  0  0  0
   25.0700  -12.1640   32.4770 C   0  0  0  0  0  0  0  0  0  0  0  0
   24.3190  -11.3460   31.9360 O   0  0  0  0  0  0  0  0  0  0  0  0
   23.4150  -13.1410   34.0130 C   0  0  0  0  0  0  0  0  0  0  0  0
   22.3730  -14.2050   34.2780 C   0  0  0  0  0  0  0  0  0  0  0  0
   21.4280  -13.7770   35.4220 C   0  0  0  0  0  0  0  0  0  0  0  0
   21.8720  -13.6950   36.5960 O   0  0  0  0  0  0  0  0  0  0  0  0
   20.2370  -13.4910   35.1310 O   0  0  0  0  0  0  0  0  0  0  0  0
   26.3600  -11.9310   32.7070 N   0  0  0  0  0  0  0  0  0  0  0  0
   26.9920  -10.6830   32.2890 C   0  0  2  0  0  0  0  0  0  0  0  0
   26.7810  -10.3720   30.8180 C   0  0  0  0  0  0  0  0  0  0  0  0
   26.9530  -11.2420   29.9460 O   0  0  0  0  0  0  0  0  0  0  0  0
   28.4850  -10.6910   32.5980 C   0  0  0  0  0  0  0  0  0  0  0  0
   28.8780  -10.3510   34.0250 C   0  0  0  0  0  0  0  0  0  0  0  0
   30.2940  -10.7820   34.2720 C   0  0  0  0  0  0  0  0  0  0  0  0
   28.7020   -8.8630   34.2990 C   0  0  0  0  0  0  0  0  0  0  0  0
   26.3680   -9.1300   30.5650 N   0  0  0  0  0  0  0  0  0  0  0  0
   26.2910   -8.6090   29.2120 C   0  0  2  0  0  0  0  0  0  0  0  0
   26.8370   -7.1820   29.1730 C   0  0  0  0  0  0  0  0  0  0  0  0
   27.0720   -6.5450   30.2090 O   0  0  0  0  0  0  0  0  0  0  0  0
   24.8630   -8.6400   28.6570 C   0  0  0  0  0  0  0  0  0  0  0  0
   24.2840  -10.0930   28.6530 C   0  0  0  0  0  0  0  0  0  0  0  0
   23.9740   -7.7470   29.4590 C   0  0  0  0  0  0  0  0  0  0  0  0
   27.1050   -6.6910   27.9650 N   0  0  0  0  0  0  0  0  0  0  0  0
   27.7620   -5.4320   27.7880 C   0  0  0  0  0  0  0  0  0  0  0  0
   29.2059  -13.0262   36.2607 H   0  0  0  0  0  0  0  0  0  0  0  0
   29.3349  -14.6830   36.8005 H   0  0  0  0  0  0  0  0  0  0  0  0
   27.8118  -13.8371   36.9329 H   0  0  0  0  0  0  0  0  0  0  0  0
   27.4835  -16.1048   35.7074 H   0  0  0  0  0  0  0  0  0  0  0  0
   28.0728  -16.2122   32.9864 H   0  0  0  0  0  0  0  0  0  0  0  0
   25.6832  -17.3577   34.4033 H   0  0  0  0  0  0  0  0  0  0  0  0
   27.2486  -18.1247   34.2838 H   0  0  0  0  0  0  0  0  0  0  0  0
   26.2820  -17.8837   32.8483 H   0  0  0  0  0  0  0  0  0  0  0  0
   25.6107  -14.3733   34.5351 H   0  0  0  0  0  0  0  0  0  0  0  0
   24.0814  -14.0253   32.1335 H   0  0  0  0  0  0  0  0  0  0  0  0
   22.9071  -12.2613   33.6767 H   0  0  0  0  0  0  0  0  0  0  0  0
   23.9415  -13.0153   34.9360 H   0  0  0  0  0  0  0  0  0  0  0  0
   22.8637  -15.1158   34.5510 H   0  0  0  0  0  0  0  0  0  0  0  0
   21.7933  -14.3450   33.3896 H   0  0  0  0  0  0  0  0  0  0  0  0
   26.8988  -12.6138   33.1682 H   0  0  0  0  0  0  0  0  0  0  0  0
   26.5122   -9.9114   32.8542 H   0  0  0  0  0  0  0  0  0  0  0  0
   28.9556   -9.9797   31.9519 H   0  0  0  0  0  0  0  0  0  0  0  0
   28.8023  -11.7017   32.4475 H   0  0  0  0  0  0  0  0  0  0  0  0
   28.2342  -10.8777   34.6980 H   0  0  0  0  0  0  0  0  0  0  0  0
   30.9472  -10.2609   33.6036 H   0  0  0  0  0  0  0  0  0  0  0  0
   30.3803  -11.8355   34.1059 H   0  0  0  0  0  0  0  0  0  0  0  0
   30.5642  -10.5569   35.2826 H   0  0  0  0  0  0  0  0  0  0  0  0
   29.3331   -8.3022   33.6417 H   0  0  0  0  0  0  0  0  0  0  0  0
   28.9681   -8.6533   35.3140 H   0  0  0  0  0  0  0  0  0  0  0  0
   27.6812   -8.5882   34.1339 H   0  0  0  0  0  0  0  0  0  0  0  0
   26.1079   -8.5498   31.3167 H   0  0  0  0  0  0  0  0  0  0  0  0
   26.8874   -9.2431   28.5898 H   0  0  0  0  0  0  0  0  0  0  0  0
   24.9007   -8.2897   27.6467 H   0  0  0  0  0  0  0  0  0  0  0  0
   24.2383  -10.4615   29.6565 H   0  0  0  0  0  0  0  0  0  0  0  0
   24.9169  -10.7275   28.0685 H   0  0  0  0  0  0  0  0  0  0  0  0
   23.3007  -10.0839   28.2313 H   0  0  0  0  0  0  0  0  0  0  0  0
   23.9355   -8.0964   30.4696 H   0  0  0  0  0  0  0  0  0  0  0  0
   22.9891   -7.7555   29.0409 H   0  0  0  0  0  0  0  0  0  0  0  0
   24.3605   -6.7494   29.4410 H   0  0  0  0  0  0  0  0  0  0  0  0
   26.8435   -7.2093   27.1699 H   0  0  0  0  0  0  0  0  0  0  0  0
   27.9752   -5.0033   28.7449 H   0  0  0  0  0  0  0  0  0  0  0  0
   27.1261   -4.7724   27.2354 H   0  0  0  0  0  0  0  0  0  0  0  0
   28.6760   -5.5790   27.2514 H   0  0  0  0  0  0  0  0  0  0  0  0
  1  2  1  0  0  0  0
  1 35  1  0  0  0  0
  1 36  1  0  0  0  0
  1 37  1  0  0  0  0
  2  3  2  0  0  0  0
  4  2  1  0  0  0  0
  4  5  1  0  0  0  0
  4 38  1  0  0  0  0
  5  6  1  0  0  0  0
  5 39  1  1  0  0  0
  6  7  2  0  0  0  0
  8  5  1  0  0  0  0
  8 40  1  0  0  0  0
  8 41  1  0  0  0  0
  8 42  1  0  0  0  0
  9  6  1  0  0  0  0
  9 10  1  0  0  0  0
  9 43  1  0  0  0  0
 10 11  1  0  0  0  0
 10 44  1  1  0  0  0
 11 12  2  0  0  0  0
 13 10  1  0  0  0  0
 13 14  1  0  0  0  0
 13 45  1  0  0  0  0
 13 46  1  0  0  0  0
 14 47  1  0  0  0  0
 14 48  1  0  0  0  0
 15 14  1  0  0  0  0
 15 17  1  0  0  0  0
 16 15  2  0  0  0  0
 18 11  1  0  0  0  0
 18 19  1  0  0  0  0
 18 49  1  0  0  0  0
 19 20  1  0  0  0  0
 19 50  1  1  0  0  0
 20 21  2  0  0  0  0
 22 19  1  0  0  0  0
 22 51  1  0  0  0  0
 22 52  1  0  0  0  0
 23 22  1  0  0  0  0
 23 25  1  0  0  0  0
 23 53  1  0  0  0  0
 24 23  1  0  0  0  0
 24 54  1  0  0  0  0
 24 55  1  0  0  0  0
 24 56  1  0  0  0  0
 25 57  1  0  0  0  0
 25 58  1  0  0  0  0
 25 59  1  0  0  0  0
 26 27  1  0  0  0  0
 26 20  1  0  0  0  0
 26 60  1  0  0  0  0
 27 28  1  0  0  0  0
 27 61  1  1  0  0  0
 28 29  2  0  0  0  0
 30 31  1  0  0  0  0
 30 27  1  0  0  0  0
 30 62  1  0  0  0  0
 31 63  1  0  0  0  0
 31 64  1  0  0  0  0
 31 65  1  0  0  0  0
 32 30  1  0  0  0  0
 32 66  1  0  0  0  0
 32 67  1  0  0  0  0
 32 68  1  0  0  0  0
 33 28  1  0  0  0  0
 33 34  1  0  0  0  0
 33 69  1  0  0  0  0
 34 70  1  0  0  0  0
 34 71  1  0  0  0  0
 34 72  1  0  0  0  0
M  CHG  1  17  -1
M  END
>  <MODEL>
       0

$$$$
selected_4mers/AELV/317_noH.pdb
 OpenBabel03042517593D

 72 71  0  0  1  0  0  0  0  0999 V2000
  -38.3080    2.1300   76.7400 C   0  0  0  0  0  0  0  0  0  0  0  0
  -38.5110    2.7140   75.3260 C   0  0  0  0  0  0  0  0  0  0  0  0
  -39.5760    3.2400   75.0030 O   0  0  0  0  0  0  0  0  0  0  0  0
  -37.4890    2.6070   74.4940 N   0  0  0  0  0  0  0  0  0  0  0  0
  -37.5120    3.1690   73.1480 C   0  0  2  0  0  0  0  0  0  0  0  0
  -38.4610    2.5580   72.1070 C   0  0  0  0  0  0  0  0  0  0  0  0
  -38.7300    1.3540   72.1190 O   0  0  0  0  0  0  0  0  0  0  0  0
  -36.0960    3.1630   72.6000 C   0  0  0  0  0  0  0  0  0  0  0  0
  -38.9620    3.4110   71.2090 N   0  0  0  0  0  0  0  0  0  0  0  0
  -39.8310    2.9740   70.1140 C   0  0  2  0  0  0  0  0  0  0  0  0
  -38.9610    2.8150   68.8780 C   0  0  0  0  0  0  0  0  0  0  0  0
  -39.2760    2.0510   67.9600 O   0  0  0  0  0  0  0  0  0  0  0  0
  -40.9120    4.0040   69.8160 C   0  0  0  0  0  0  0  0  0  0  0  0
  -41.8610    4.2590   70.9540 C   0  0  0  0  0  0  0  0  0  0  0  0
  -42.9820    5.1840   70.5350 C   0  0  0  0  0  0  0  0  0  0  0  0
  -43.8380    4.7430   69.7270 O   0  0  0  0  0  0  0  0  0  0  0  0
  -42.9960    6.3500   71.0010 O   0  0  0  0  0  0  0  0  0  0  0  0
  -37.8670    3.5680   68.8590 N   0  0  0  0  0  0  0  0  0  0  0  0
  -36.8890    3.5230   67.7850 C   0  0  2  0  0  0  0  0  0  0  0  0
  -35.5510    3.7330   68.4560 C   0  0  0  0  0  0  0  0  0  0  0  0
  -35.4510    4.5110   69.4020 O   0  0  0  0  0  0  0  0  0  0  0  0
  -37.0710    4.6680   66.7820 C   0  0  0  0  0  0  0  0  0  0  0  0
  -38.2640    4.7350   65.8290 C   0  0  0  0  0  0  0  0  0  0  0  0
  -38.1070    5.9760   64.9290 C   0  0  0  0  0  0  0  0  0  0  0  0
  -38.3360    3.4610   64.9850 C   0  0  0  0  0  0  0  0  0  0  0  0
  -34.5300    3.0420   67.9780 N   0  0  0  0  0  0  0  0  0  0  0  0
  -33.1880    3.2260   68.5080 C   0  0  2  0  0  0  0  0  0  0  0  0
  -32.2540    3.5710   67.3530 C   0  0  0  0  0  0  0  0  0  0  0  0
  -32.1780    2.8550   66.3400 O   0  0  0  0  0  0  0  0  0  0  0  0
  -32.6500    1.9700   69.2250 C   0  0  0  0  0  0  0  0  0  0  0  0
  -31.2160    2.2370   69.7060 C   0  0  0  0  0  0  0  0  0  0  0  0
  -33.5560    1.6030   70.3980 C   0  0  0  0  0  0  0  0  0  0  0  0
  -31.5350    4.6760   67.5150 N   0  0  0  0  0  0  0  0  0  0  0  0
  -30.6110    5.1340   66.4930 C   0  0  0  0  0  0  0  0  0  0  0  0
  -37.3221    1.7217   76.8191 H   0  0  0  0  0  0  0  0  0  0  0  0
  -39.0286    1.3584   76.9140 H   0  0  0  0  0  0  0  0  0  0  0  0
  -38.4325    2.9049   77.4672 H   0  0  0  0  0  0  0  0  0  0  0  0
  -36.6818    2.1299   74.7943 H   0  0  0  0  0  0  0  0  0  0  0  0
  -37.9222    4.1466   73.2923 H   0  0  0  0  0  0  0  0  0  0  0  0
  -35.7621    2.1529   72.4857 H   0  0  0  0  0  0  0  0  0  0  0  0
  -35.4487    3.6780   73.2787 H   0  0  0  0  0  0  0  0  0  0  0  0
  -36.0794    3.6539   71.6494 H   0  0  0  0  0  0  0  0  0  0  0  0
  -38.7392    4.3669   71.2860 H   0  0  0  0  0  0  0  0  0  0  0  0
  -40.3108    2.0580   70.3891 H   0  0  0  0  0  0  0  0  0  0  0  0
  -41.4805    3.6589   68.9777 H   0  0  0  0  0  0  0  0  0  0  0  0
  -40.4076    4.9286   69.6274 H   0  0  0  0  0  0  0  0  0  0  0  0
  -41.3231    4.7069   71.7633 H   0  0  0  0  0  0  0  0  0  0  0  0
  -42.2873    3.3250   71.2553 H   0  0  0  0  0  0  0  0  0  0  0  0
  -37.7111    4.1866   69.6088 H   0  0  0  0  0  0  0  0  0  0  0  0
  -36.9832    2.5997   67.2525 H   0  0  0  0  0  0  0  0  0  0  0  0
  -37.0991    5.5686   67.3591 H   0  0  0  0  0  0  0  0  0  0  0  0
  -36.2568    4.5040   66.1075 H   0  0  0  0  0  0  0  0  0  0  0  0
  -39.1738    4.8126   66.3868 H   0  0  0  0  0  0  0  0  0  0  0  0
  -37.1973    5.8990   64.3709 H   0  0  0  0  0  0  0  0  0  0  0  0
  -38.0792    6.8562   65.5368 H   0  0  0  0  0  0  0  0  0  0  0  0
  -38.9355    6.0345   64.2544 H   0  0  0  0  0  0  0  0  0  0  0  0
  -37.4358    3.3590   64.4156 H   0  0  0  0  0  0  0  0  0  0  0  0
  -39.1732    3.5198   64.3212 H   0  0  0  0  0  0  0  0  0  0  0  0
  -38.4494    2.6132   65.6279 H   0  0  0  0  0  0  0  0  0  0  0  0
  -34.6803    2.3935   67.2527 H   0  0  0  0  0  0  0  0  0  0  0  0
  -33.2304    4.0128   69.2319 H   0  0  0  0  0  0  0  0  0  0  0  0
  -32.6408    1.1447   68.5440 H   0  0  0  0  0  0  0  0  0  0  0  0
  -31.2163    3.0615   70.3880 H   0  0  0  0  0  0  0  0  0  0  0  0
  -30.5954    2.4692   68.8659 H   0  0  0  0  0  0  0  0  0  0  0  0
  -30.8373    1.3663   70.1993 H   0  0  0  0  0  0  0  0  0  0  0  0
  -33.5825    2.4140   71.0955 H   0  0  0  0  0  0  0  0  0  0  0  0
  -33.1754    0.7282   70.8825 H   0  0  0  0  0  0  0  0  0  0  0  0
  -34.5449    1.4097   70.0380 H   0  0  0  0  0  0  0  0  0  0  0  0
  -31.6307    5.1955   68.3458 H   0  0  0  0  0  0  0  0  0  0  0  0
  -30.6319    4.4575   65.6643 H   0  0  0  0  0  0  0  0  0  0  0  0
  -29.6213    5.1715   66.8979 H   0  0  0  0  0  0  0  0  0  0  0  0
  -30.8989    6.1105   66.1636 H   0  0  0  0  0  0  0  0  0  0  0  0
  1  2  1  0  0  0  0
  1 35  1  0  0  0  0
  1 36  1  0  0  0  0
  1 37  1  0  0  0  0
  2  3  2  0  0  0  0
  4  2  1  0  0  0  0
  4  5  1  0  0  0  0
  4 38  1  0  0  0  0
  5  6  1  0  0  0  0
  5 39  1  1  0  0  0
  6  7  2  0  0  0  0
  8  5  1  0  0  0  0
  8 40  1  0  0  0  0
  8 41  1  0  0  0  0
  8 42  1  0  0  0  0
  9  6  1  0  0  0  0
  9 10  1  0  0  0  0
  9 43  1  0  0  0  0
 10 11  1  0  0  0  0
 10 44  1  1  0  0  0
 11 12  2  0  0  0  0
 13 10  1  0  0  0  0
 13 14  1  0  0  0  0
 13 45  1  0  0  0  0
 13 46  1  0  0  0  0
 14 47  1  0  0  0  0
 14 48  1  0  0  0  0
 15 14  1  0  0  0  0
 15 17  1  0  0  0  0
 16 15  2  0  0  0  0
 18 11  1  0  0  0  0
 18 19  1  0  0  0  0
 18 49  1  0  0  0  0
 19 20  1  0  0  0  0
 19 50  1  1  0  0  0
 20 21  2  0  0  0  0
 22 19  1  0  0  0  0
 22 51  1  0  0  0  0
 22 52  1  0  0  0  0
 23 22  1  0  0  0  0
 23 25  1  0  0  0  0
 23 53  1  0  0  0  0
 24 23  1  0  0  0  0
 24 54  1  0  0  0  0
 24 55  1  0  0  0  0
 24 56  1  0  0  0  0
 25 57  1  0  0  0  0
 25 58  1  0  0  0  0
 25 59  1  0  0  0  0
 26 27  1  0  0  0  0
 26 20  1  0  0  0  0
 26 60  1  0  0  0  0
 27 28  1  0  0  0  0
 27 61  1  1  0  0  0
 28 29  2  0  0  0  0
 30 31  1  0  0  0  0
 30 27  1  0  0  0  0
 30 62  1  0  0  0  0
 31 63  1  0  0  0  0
 31 64  1  0  0  0  0
 31 65  1  0  0  0  0
 32 30  1  0  0  0  0
 32 66  1  0  0  0  0
 32 67  1  0  0  0  0
 32 68  1  0  0  0  0
 33 28  1  0  0  0  0
 33 34  1  0  0  0  0
 33 69  1  0  0  0  0
 34 70  1  0  0  0  0
 34 71  1  0  0  0  0
 34 72  1  0  0  0  0
M  CHG  1  17  -1
M  END
>  <MODEL>
       0

$$$$
selected_4mers/AELV/318_noH.pdb
 OpenBabel03042517593D

 72 71  0  0  1  0  0  0  0  0999 V2000
   55.1910   83.6000  -15.4400 C   0  0  0  0  0  0  0  0  0  0  0  0
   55.9710   84.6140  -14.6170 C   0  0  0  0  0  0  0  0  0  0  0  0
   55.3820   85.4880  -13.9800 O   0  0  0  0  0  0  0  0  0  0  0  0
   57.2940   84.4780  -14.6230 N   0  0  0  0  0  0  0  0  0  0  0  0
   58.1710   85.3920  -13.8990 C   0  0  2  0  0  0  0  0  0  0  0  0
   58.5250   86.5100  -14.8740 C   0  0  0  0  0  0  0  0  0  0  0  0
   59.0440   86.2560  -15.9590 O   0  0  0  0  0  0  0  0  0  0  0  0
   59.4230   84.6630  -13.4390 C   0  0  0  0  0  0  0  0  0  0  0  0
   58.2340   87.7430  -14.4800 N   0  0  0  0  0  0  0  0  0  0  0  0
   58.4680   88.9010  -15.3330 C   0  0  2  0  0  0  0  0  0  0  0  0
   59.6800   89.7400  -14.9390 C   0  0  0  0  0  0  0  0  0  0  0  0
   59.7910   90.2000  -13.8040 O   0  0  0  0  0  0  0  0  0  0  0  0
   57.2030   89.7680  -15.3360 C   0  0  0  0  0  0  0  0  0  0  0  0
   57.3020   91.0940  -16.0780 C   0  0  0  0  0  0  0  0  0  0  0  0
   56.0170   91.8990  -15.9800 C   0  0  0  0  0  0  0  0  0  0  0  0
   55.3150   91.7730  -14.9540 O   0  0  0  0  0  0  0  0  0  0  0  0
   55.7110   92.6680  -16.9190 O   0  0  0  0  0  0  0  0  0  0  0  0
   60.5950   89.9210  -15.8870 N   0  0  0  0  0  0  0  0  0  0  0  0
   61.7830   90.7330  -15.6580 C   0  0  2  0  0  0  0  0  0  0  0  0
   61.7070   91.9580  -16.5590 C   0  0  0  0  0  0  0  0  0  0  0  0
   61.6530   91.8410  -17.7830 O   0  0  0  0  0  0  0  0  0  0  0  0
   63.0590   89.9420  -15.9680 C   0  0  0  0  0  0  0  0  0  0  0  0
   64.3710   90.7370  -15.8840 C   0  0  0  0  0  0  0  0  0  0  0  0
   64.5290   91.3510  -14.4970 C   0  0  0  0  0  0  0  0  0  0  0  0
   65.5400   89.8180  -16.1940 C   0  0  0  0  0  0  0  0  0  0  0  0
   61.6910   93.1320  -15.9390 N   0  0  0  0  0  0  0  0  0  0  0  0
   61.6180   94.3880  -16.6700 C   0  0  2  0  0  0  0  0  0  0  0  0
   62.8460   95.2270  -16.3460 C   0  0  0  0  0  0  0  0  0  0  0  0
   63.3060   95.2460  -15.2080 O   0  0  0  0  0  0  0  0  0  0  0  0
   60.3680   95.1910  -16.2660 C   0  0  0  0  0  0  0  0  0  0  0  0
   60.1930   96.3830  -17.1960 C   0  0  0  0  0  0  0  0  0  0  0  0
   59.1420   94.2950  -16.2940 C   0  0  0  0  0  0  0  0  0  0  0  0
   63.3790   95.9170  -17.3490 N   0  0  0  0  0  0  0  0  0  0  0  0
   64.5460   96.7610  -17.1380 C   0  0  0  0  0  0  0  0  0  0  0  0
   55.8730   82.9275  -15.9170 H   0  0  0  0  0  0  0  0  0  0  0  0
   54.6154   84.1110  -16.1833 H   0  0  0  0  0  0  0  0  0  0  0  0
   54.5360   83.0482  -14.7986 H   0  0  0  0  0  0  0  0  0  0  0  0
   57.6944   83.7367  -15.1324 H   0  0  0  0  0  0  0  0  0  0  0  0
   57.6938   85.7834  -13.0249 H   0  0  0  0  0  0  0  0  0  0  0  0
   59.9306   84.2553  -14.2881 H   0  0  0  0  0  0  0  0  0  0  0  0
   59.1503   83.8715  -12.7726 H   0  0  0  0  0  0  0  0  0  0  0  0
   60.0694   85.3490  -12.9325 H   0  0  0  0  0  0  0  0  0  0  0  0
   57.8484   87.8797  -13.5845 H   0  0  0  0  0  0  0  0  0  0  0  0
   58.6901   88.5285  -16.3112 H   0  0  0  0  0  0  0  0  0  0  0  0
   56.4174   89.1986  -15.7872 H   0  0  0  0  0  0  0  0  0  0  0  0
   57.0272   90.0238  -14.3120 H   0  0  0  0  0  0  0  0  0  0  0  0
   58.1014   91.6668  -15.6564 H   0  0  0  0  0  0  0  0  0  0  0  0
   57.4808   90.8817  -17.1114 H   0  0  0  0  0  0  0  0  0  0  0  0
   60.4664   89.4957  -16.7655 H   0  0  0  0  0  0  0  0  0  0  0  0
   61.8186   91.0237  -14.6289 H   0  0  0  0  0  0  0  0  0  0  0  0
   63.1205   89.1311  -15.2726 H   0  0  0  0  0  0  0  0  0  0  0  0
   62.9700   89.6319  -16.9882 H   0  0  0  0  0  0  0  0  0  0  0  0
   64.3498   91.5306  -16.6014 H   0  0  0  0  0  0  0  0  0  0  0  0
   64.5526   90.5728  -13.7630 H   0  0  0  0  0  0  0  0  0  0  0  0
   63.7038   92.0028  -14.2994 H   0  0  0  0  0  0  0  0  0  0  0  0
   65.4415   91.9082  -14.4554 H   0  0  0  0  0  0  0  0  0  0  0  0
   65.5669   89.0217  -15.4798 H   0  0  0  0  0  0  0  0  0  0  0  0
   66.4533   90.3732  -16.1437 H   0  0  0  0  0  0  0  0  0  0  0  0
   65.4233   89.4117  -17.1769 H   0  0  0  0  0  0  0  0  0  0  0  0
   61.7297   93.1533  -14.9555 H   0  0  0  0  0  0  0  0  0  0  0  0
   61.5698   94.1640  -17.7152 H   0  0  0  0  0  0  0  0  0  0  0  0
   60.4914   95.5582  -15.2686 H   0  0  0  0  0  0  0  0  0  0  0  0
   60.0678   96.0363  -18.2005 H   0  0  0  0  0  0  0  0  0  0  0  0
   61.0589   97.0091  -17.1401 H   0  0  0  0  0  0  0  0  0  0  0  0
   59.3293   96.9416  -16.9012 H   0  0  0  0  0  0  0  0  0  0  0  0
   58.9997   93.9161  -17.2845 H   0  0  0  0  0  0  0  0  0  0  0  0
   58.2813   94.8590  -16.0008 H   0  0  0  0  0  0  0  0  0  0  0  0
   59.2813   93.4787  -15.6164 H   0  0  0  0  0  0  0  0  0  0  0  0
   62.9792   95.8565  -18.2466 H   0  0  0  0  0  0  0  0  0  0  0  0
   64.8442   96.7073  -16.1118 H   0  0  0  0  0  0  0  0  0  0  0  0
   64.3038   97.7732  -17.3866 H   0  0  0  0  0  0  0  0  0  0  0  0
   65.3479   96.4230  -17.7606 H   0  0  0  0  0  0  0  0  0  0  0  0
  1  2  1  0  0  0  0
  1 35  1  0  0  0  0
  1 36  1  0  0  0  0
  1 37  1  0  0  0  0
  2  3  2  0  0  0  0
  4  2  1  0  0  0  0
  4  5  1  0  0  0  0
  4 38  1  0  0  0  0
  5  6  1  0  0  0  0
  5 39  1  1  0  0  0
  6  7  2  0  0  0  0
  8  5  1  0  0  0  0
  8 40  1  0  0  0  0
  8 41  1  0  0  0  0
  8 42  1  0  0  0  0
  9  6  1  0  0  0  0
  9 10  1  0  0  0  0
  9 43  1  0  0  0  0
 10 11  1  0  0  0  0
 10 44  1  1  0  0  0
 11 12  2  0  0  0  0
 13 10  1  0  0  0  0
 13 14  1  0  0  0  0
 13 45  1  0  0  0  0
 13 46  1  0  0  0  0
 14 47  1  0  0  0  0
 14 48  1  0  0  0  0
 15 14  1  0  0  0  0
 15 17  1  0  0  0  0
 16 15  2  0  0  0  0
 18 11  1  0  0  0  0
 18 19  1  0  0  0  0
 18 49  1  0  0  0  0
 19 20  1  0  0  0  0
 19 50  1  1  0  0  0
 20 21  2  0  0  0  0
 22 19  1  0  0  0  0
 22 51  1  0  0  0  0
 22 52  1  0  0  0  0
 23 22  1  0  0  0  0
 23 25  1  0  0  0  0
 23 53  1  0  0  0  0
 24 23  1  0  0  0  0
 24 54  1  0  0  0  0
 24 55  1  0  0  0  0
 24 56  1  0  0  0  0
 25 57  1  0  0  0  0
 25 58  1  0  0  0  0
 25 59  1  0  0  0  0
 26 27  1  0  0  0  0
 26 20  1  0  0  0  0
 26 60  1  0  0  0  0
 27 28  1  0  0  0  0
 27 61  1  1  0  0  0
 28 29  2  0  0  0  0
 30 31  1  0  0  0  0
 30 27  1  0  0  0  0
 30 62  1  0  0  0  0
 31 63  1  0  0  0  0
 31 64  1  0  0  0  0
 31 65  1  0  0  0  0
 32 30  1  0  0  0  0
 32 66  1  0  0  0  0
 32 67  1  0  0  0  0
 32 68  1  0  0  0  0
 33 28  1  0  0  0  0
 33 34  1  0  0  0  0
 33 69  1  0  0  0  0
 34 70  1  0  0  0  0
 34 71  1  0  0  0  0
 34 72  1  0  0  0  0
M  CHG  1  17  -1
M  END
>  <MODEL>
       0

$$$$
selected_4mers/AELV/319_noH.pdb
 OpenBabel03042517593D

 72 71  0  0  1  0  0  0  0  0999 V2000
    8.4160   13.6910   11.4620 C   0  0  0  0  0  0  0  0  0  0  0  0
    7.8490   15.0600   11.8320 C   0  0  0  0  0  0  0  0  0  0  0  0
    8.4270   15.7350   12.6910 O   0  0  0  0  0  0  0  0  0  0  0  0
    6.7440   15.4730   11.2140 N   0  0  0  0  0  0  0  0  0  0  0  0
    6.2510   16.8070   11.4790 C   0  0  2  0  0  0  0  0  0  0  0  0
    5.8330   16.9830   12.9270 C   0  0  0  0  0  0  0  0  0  0  0  0
    5.9390   18.0950   13.4440 O   0  0  0  0  0  0  0  0  0  0  0  0
    5.0760   17.1250   10.5600 C   0  0  0  0  0  0  0  0  0  0  0  0
    5.3630   15.9100   13.5650 N   0  0  0  0  0  0  0  0  0  0  0  0
    4.9700   16.0040   14.9950 C   0  0  2  0  0  0  0  0  0  0  0  0
    6.1870   16.1300   15.8940 C   0  0  0  0  0  0  0  0  0  0  0  0
    6.1690   16.8790   16.8760 O   0  0  0  0  0  0  0  0  0  0  0  0
    4.1100   14.8030   15.3920 C   0  0  0  0  0  0  0  0  0  0  0  0
    2.7870   14.8240   14.6540 C   0  0  0  0  0  0  0  0  0  0  0  0
    1.7670   13.8630   15.2090 C   0  0  0  0  0  0  0  0  0  0  0  0
    2.1720   12.8270   15.7720 O   0  0  0  0  0  0  0  0  0  0  0  0
    0.5340   14.1040   15.0750 O   0  0  0  0  0  0  0  0  0  0  0  0
    7.2380   15.3900   15.5690 N   0  0  0  0  0  0  0  0  0  0  0  0
    8.5010   15.4990   16.2870 C   0  0  2  0  0  0  0  0  0  0  0  0
    9.1510   16.8740   16.1350 C   0  0  0  0  0  0  0  0  0  0  0  0
    9.5970   17.4870   17.1070 O   0  0  0  0  0  0  0  0  0  0  0  0
    9.4720   14.3920   15.9000 C   0  0  0  0  0  0  0  0  0  0  0  0
    8.9110   12.9590   16.0290 C   0  0  0  0  0  0  0  0  0  0  0  0
    9.9100   11.9160   15.5470 C   0  0  0  0  0  0  0  0  0  0  0  0
    8.3640   12.6770   17.4030 C   0  0  0  0  0  0  0  0  0  0  0  0
    9.1980   17.3640   14.8890 N   0  0  0  0  0  0  0  0  0  0  0  0
    9.6980   18.7090   14.6150 C   0  0  2  0  0  0  0  0  0  0  0  0
    8.8330   19.7490   15.3440 C   0  0  0  0  0  0  0  0  0  0  0  0
    9.3800   20.7060   15.9370 O   0  0  0  0  0  0  0  0  0  0  0  0
    9.7780   18.9530   13.0950 C   0  0  0  0  0  0  0  0  0  0  0  0
   10.0390   20.4490   12.7490 C   0  0  0  0  0  0  0  0  0  0  0  0
   10.8590   18.0520   12.4980 C   0  0  0  0  0  0  0  0  0  0  0  0
    7.5150   19.5640   15.3130 N   0  0  0  0  0  0  0  0  0  0  0  0
    6.6210   20.4940   15.9970 C   0  0  0  0  0  0  0  0  0  0  0  0
    7.8019   13.2421   10.7095 H   0  0  0  0  0  0  0  0  0  0  0  0
    8.4317   13.0651   12.3297 H   0  0  0  0  0  0  0  0  0  0  0  0
    9.4117   13.8067   11.0876 H   0  0  0  0  0  0  0  0  0  0  0  0
    6.2703   14.8801   10.5869 H   0  0  0  0  0  0  0  0  0  0  0  0
    7.0540   17.4876   11.2870 H   0  0  0  0  0  0  0  0  0  0  0  0
    4.2756   16.4423   10.7552 H   0  0  0  0  0  0  0  0  0  0  0  0
    5.3851   17.0300    9.5400 H   0  0  0  0  0  0  0  0  0  0  0  0
    4.7431   18.1258   10.7400 H   0  0  0  0  0  0  0  0  0  0  0  0
    5.2763   15.0536   13.0873 H   0  0  0  0  0  0  0  0  0  0  0  0
    4.3860   16.8913   15.1233 H   0  0  0  0  0  0  0  0  0  0  0  0
    4.6328   13.9013   15.1500 H   0  0  0  0  0  0  0  0  0  0  0  0
    3.9180   14.8502   16.4436 H   0  0  0  0  0  0  0  0  0  0  0  0
    2.3844   15.8137   14.7109 H   0  0  0  0  0  0  0  0  0  0  0  0
    2.9862   14.5209   13.6473 H   0  0  0  0  0  0  0  0  0  0  0  0
    7.1631   14.7509   14.8239 H   0  0  0  0  0  0  0  0  0  0  0  0
    8.2610   15.3795   17.3229 H   0  0  0  0  0  0  0  0  0  0  0  0
    9.7613   14.5450   14.8813 H   0  0  0  0  0  0  0  0  0  0  0  0
   10.2895   14.4567   16.5873 H   0  0  0  0  0  0  0  0  0  0  0  0
    8.0697   12.8877   15.3717 H   0  0  0  0  0  0  0  0  0  0  0  0
   10.7793   11.9399   16.1704 H   0  0  0  0  0  0  0  0  0  0  0  0
   10.1897   12.1301   14.5366 H   0  0  0  0  0  0  0  0  0  0  0  0
    9.4631   10.9450   15.5952 H   0  0  0  0  0  0  0  0  0  0  0  0
    9.1561   12.7312   18.1203 H   0  0  0  0  0  0  0  0  0  0  0  0
    7.9328   11.6979   17.4212 H   0  0  0  0  0  0  0  0  0  0  0  0
    7.6143   13.4014   17.6440 H   0  0  0  0  0  0  0  0  0  0  0  0
    8.8883   16.8045   14.1405 H   0  0  0  0  0  0  0  0  0  0  0  0
   10.6939   18.8089   14.9932 H   0  0  0  0  0  0  0  0  0  0  0  0
    8.8296   18.7077   12.6647 H   0  0  0  0  0  0  0  0  0  0  0  0
   10.9809   20.7505   13.1575 H   0  0  0  0  0  0  0  0  0  0  0  0
    9.2599   21.0526   13.1656 H   0  0  0  0  0  0  0  0  0  0  0  0
   10.0555   20.5716   11.6862 H   0  0  0  0  0  0  0  0  0  0  0  0
   11.8068   18.2983   12.9292 H   0  0  0  0  0  0  0  0  0  0  0  0
   10.9002   18.1981   11.4388 H   0  0  0  0  0  0  0  0  0  0  0  0
   10.6267   17.0289   12.7081 H   0  0  0  0  0  0  0  0  0  0  0  0
    7.1406   18.7949   14.8256 H   0  0  0  0  0  0  0  0  0  0  0  0
    7.1981   21.2615   16.4691 H   0  0  0  0  0  0  0  0  0  0  0  0
    6.0558   19.9666   16.7368 H   0  0  0  0  0  0  0  0  0  0  0  0
    5.9540   20.9355   15.2863 H   0  0  0  0  0  0  0  0  0  0  0  0
  1  2  1  0  0  0  0
  1 35  1  0  0  0  0
  1 36  1  0  0  0  0
  1 37  1  0  0  0  0
  2  3  2  0  0  0  0
  4  2  1  0  0  0  0
  4  5  1  0  0  0  0
  4 38  1  0  0  0  0
  5  6  1  0  0  0  0
  5 39  1  1  0  0  0
  6  7  2  0  0  0  0
  8  5  1  0  0  0  0
  8 40  1  0  0  0  0
  8 41  1  0  0  0  0
  8 42  1  0  0  0  0
  9  6  1  0  0  0  0
  9 10  1  0  0  0  0
  9 43  1  0  0  0  0
 10 11  1  0  0  0  0
 10 44  1  1  0  0  0
 11 12  2  0  0  0  0
 13 10  1  0  0  0  0
 13 14  1  0  0  0  0
 13 45  1  0  0  0  0
 13 46  1  0  0  0  0
 14 47  1  0  0  0  0
 14 48  1  0  0  0  0
 15 14  1  0  0  0  0
 15 17  1  0  0  0  0
 16 15  2  0  0  0  0
 18 11  1  0  0  0  0
 18 19  1  0  0  0  0
 18 49  1  0  0  0  0
 19 20  1  0  0  0  0
 19 50  1  1  0  0  0
 20 21  2  0  0  0  0
 22 19  1  0  0  0  0
 22 51  1  0  0  0  0
 22 52  1  0  0  0  0
 23 22  1  0  0  0  0
 23 25  1  0  0  0  0
 23 53  1  0  0  0  0
 24 23  1  0  0  0  0
 24 54  1  0  0  0  0
 24 55  1  0  0  0  0
 24 56  1  0  0  0  0
 25 57  1  0  0  0  0
 25 58  1  0  0  0  0
 25 59  1  0  0  0  0
 26 27  1  0  0  0  0
 26 20  1  0  0  0  0
 26 60  1  0  0  0  0
 27 28  1  0  0  0  0
 27 61  1  1  0  0  0
 28 29  2  0  0  0  0
 30 31  1  0  0  0  0
 30 27  1  0  0  0  0
 30 62  1  0  0  0  0
 31 63  1  0  0  0  0
 31 64  1  0  0  0  0
 31 65  1  0  0  0  0
 32 30  1  0  0  0  0
 32 66  1  0  0  0  0
 32 67  1  0  0  0  0
 32 68  1  0  0  0  0
 33 28  1  0  0  0  0
 33 34  1  0  0  0  0
 33 69  1  0  0  0  0
 34 70  1  0  0  0  0
 34 71  1  0  0  0  0
 34 72  1  0  0  0  0
M  CHG  1  17  -1
M  END
>  <MODEL>
       0

$$$$
