selected_4mers/AGAA/475_noH.pdb
 OpenBabel03042518173D

 49 48  0  0  1  0  0  0  0  0999 V2000
   68.4120   34.4260   44.5870 C   0  0  0  0  0  0  0  0  0  0  0  0
   68.5320   35.0370   43.1810 C   0  0  0  0  0  0  0  0  0  0  0  0
   69.5220   34.7960   42.4870 O   0  0  0  0  0  0  0  0  0  0  0  0
   67.5360   35.8240   42.7610 N   0  0  0  0  0  0  0  0  0  0  0  0
   67.5800   36.4510   41.4380 C   0  0  2  0  0  0  0  0  0  0  0  0
   68.4420   37.7090   41.3750 C   0  0  0  0  0  0  0  0  0  0  0  0
   68.7150   38.2130   40.2890 O   0  0  0  0  0  0  0  0  0  0  0  0
   66.1490   36.7790   40.9400 C   0  0  0  0  0  0  0  0  0  0  0  0
   68.8500   38.2450   42.5230 N   0  0  0  0  0  0  0  0  0  0  0  0
   69.7010   39.4220   42.4900 C   0  0  0  0  0  0  0  0  0  0  0  0
   69.1480   40.7190   43.0580 C   0  0  0  0  0  0  0  0  0  0  0  0
   69.7110   41.7800   42.8180 O   0  0  0  0  0  0  0  0  0  0  0  0
   68.0530   40.6610   43.8080 N   0  0  0  0  0  0  0  0  0  0  0  0
   67.5070   41.8940   44.3790 C   0  0  2  0  0  0  0  0  0  0  0  0
   68.4940   42.4550   45.3950 C   0  0  0  0  0  0  0  0  0  0  0  0
   69.0330   41.7060   46.2100 O   0  0  0  0  0  0  0  0  0  0  0  0
   66.1610   41.6220   45.0560 C   0  0  0  0  0  0  0  0  0  0  0  0
   68.7120   43.7680   45.3580 N   0  0  0  0  0  0  0  0  0  0  0  0
   69.6520   44.4160   46.2860 C   0  0  2  0  0  0  0  0  0  0  0  0
   68.9610   45.0160   47.5050 C   0  0  0  0  0  0  0  0  0  0  0  0
   69.6140   45.3750   48.4790 O   0  0  0  0  0  0  0  0  0  0  0  0
   70.4410   45.5060   45.5480 C   0  0  0  0  0  0  0  0  0  0  0  0
   67.6430   45.1270   47.4460 N   0  0  0  0  0  0  0  0  0  0  0  0
   66.8920   45.6860   48.5580 C   0  0  0  0  0  0  0  0  0  0  0  0
   69.2731   33.8238   44.7888 H   0  0  0  0  0  0  0  0  0  0  0  0
   67.5323   33.8191   44.6382 H   0  0  0  0  0  0  0  0  0  0  0  0
   68.3471   35.2100   45.3123 H   0  0  0  0  0  0  0  0  0  0  0  0
   66.7627   35.9842   43.3489 H   0  0  0  0  0  0  0  0  0  0  0  0
   68.0410   35.7296   40.7961 H   0  0  0  0  0  0  0  0  0  0  0  0
   65.7015   37.5007   41.5910 H   0  0  0  0  0  0  0  0  0  0  0  0
   65.5589   35.8865   40.9376 H   0  0  0  0  0  0  0  0  0  0  0  0
   66.1990   37.1762   39.9477 H   0  0  0  0  0  0  0  0  0  0  0  0
   68.5788   37.8493   43.3827 H   0  0  0  0  0  0  0  0  0  0  0  0
   69.9518   39.6046   41.4660 H   0  0  0  0  0  0  0  0  0  0  0  0
   70.5207   39.1770   43.1326 H   0  0  0  0  0  0  0  0  0  0  0  0
   67.6127   39.7971   43.9783 H   0  0  0  0  0  0  0  0  0  0  0  0
   67.3526   42.6048   43.5943 H   0  0  0  0  0  0  0  0  0  0  0  0
   66.2957   40.9120   45.8451 H   0  0  0  0  0  0  0  0  0  0  0  0
   65.4728   41.2296   44.3367 H   0  0  0  0  0  0  0  0  0  0  0  0
   65.7738   42.5343   45.4593 H   0  0  0  0  0  0  0  0  0  0  0  0
   68.2339   44.3171   44.6953 H   0  0  0  0  0  0  0  0  0  0  0  0
   70.3146   43.6556   46.6435 H   0  0  0  0  0  0  0  0  0  0  0  0
   69.7664   46.2586   45.1966 H   0  0  0  0  0  0  0  0  0  0  0  0
   70.9561   45.0723   44.7164 H   0  0  0  0  0  0  0  0  0  0  0  0
   71.1506   45.9471   46.2164 H   0  0  0  0  0  0  0  0  0  0  0  0
   67.1656   44.8272   46.6389 H   0  0  0  0  0  0  0  0  0  0  0  0
   67.5662   45.9562   49.3437 H   0  0  0  0  0  0  0  0  0  0  0  0
   66.1958   44.9584   48.9198 H   0  0  0  0  0  0  0  0  0  0  0  0
   66.3612   46.5548   48.2290 H   0  0  0  0  0  0  0  0  0  0  0  0
  1 25  1  0  0  0  0
  1 26  1  0  0  0  0
  1 27  1  0  0  0  0
  2  1  1  0  0  0  0
  3  2  2  0  0  0  0
  4  2  1  0  0  0  0
  4 28  1  0  0  0  0
  5  4  1  0  0  0  0
  5 29  1  6  0  0  0
  6  5  1  0  0  0  0
  6  9  1  0  0  0  0
  7  6  2  0  0  0  0
  8  5  1  0  0  0  0
  8 30  1  0  0  0  0
  8 31  1  0  0  0  0
  8 32  1  0  0  0  0
  9 33  1  0  0  0  0
 10  9  1  0  0  0  0
 10 11  1  0  0  0  0
 10 34  1  0  0  0  0
 10 35  1  0  0  0  0
 11 13  1  0  0  0  0
 12 11  2  0  0  0  0
 13 14  1  0  0  0  0
 13 36  1  0  0  0  0
 14 17  1  0  0  0  0
 14 15  1  0  0  0  0
 14 37  1  6  0  0  0
 15 16  2  0  0  0  0
 17 38  1  0  0  0  0
 17 39  1  0  0  0  0
 17 40  1  0  0  0  0
 18 15  1  0  0  0  0
 18 19  1  0  0  0  0
 18 41  1  0  0  0  0
 19 20  1  0  0  0  0
 19 42  1  1  0  0  0
 20 21  2  0  0  0  0
 22 19  1  0  0  0  0
 22 43  1  0  0  0  0
 22 44  1  0  0  0  0
 22 45  1  0  0  0  0
 23 20  1  0  0  0  0
 23 24  1  0  0  0  0
 23 46  1  0  0  0  0
 24 47  1  0  0  0  0
 24 48  1  0  0  0  0
 24 49  1  0  0  0  0
M  END
>  <MODEL>
       0

$$$$
selected_4mers/AGAA/476_noH.pdb
 OpenBabel03042518173D

 49 48  0  0  1  0  0  0  0  0999 V2000
   48.4180   11.2540   50.9500 C   0  0  0  0  0  0  0  0  0  0  0  0
   49.3150   10.5120   51.9500 C   0  0  0  0  0  0  0  0  0  0  0  0
   48.9930   10.4570   53.1410 O   0  0  0  0  0  0  0  0  0  0  0  0
   50.4350    9.9650   51.4880 N   0  0  0  0  0  0  0  0  0  0  0  0
   51.3470    9.2220   52.3620 C   0  0  2  0  0  0  0  0  0  0  0  0
   51.8350   10.0040   53.5910 C   0  0  0  0  0  0  0  0  0  0  0  0
   51.8440    9.4710   54.7080 O   0  0  0  0  0  0  0  0  0  0  0  0
   52.5420    8.7190   51.5550 C   0  0  0  0  0  0  0  0  0  0  0  0
   52.2510   11.2520   53.3890 N   0  0  0  0  0  0  0  0  0  0  0  0
   52.7240   12.0580   54.5060 C   0  0  0  0  0  0  0  0  0  0  0  0
   54.2340   12.2310   54.5650 C   0  0  0  0  0  0  0  0  0  0  0  0
   54.9800   11.4910   53.9250 O   0  0  0  0  0  0  0  0  0  0  0  0
   54.6870   13.2010   55.3530 N   0  0  0  0  0  0  0  0  0  0  0  0
   56.1140   13.4930   55.4830 C   0  0  2  0  0  0  0  0  0  0  0  0
   56.9810   12.3300   55.9770 C   0  0  0  0  0  0  0  0  0  0  0  0
   58.0960   12.1300   55.4920 O   0  0  0  0  0  0  0  0  0  0  0  0
   56.3060   14.7050   56.3940 C   0  0  0  0  0  0  0  0  0  0  0  0
   56.4660   11.5590   56.9280 N   0  0  0  0  0  0  0  0  0  0  0  0
   57.2140   10.4420   57.4980 C   0  0  2  0  0  0  0  0  0  0  0  0
   57.4360    9.2390   56.5790 C   0  0  0  0  0  0  0  0  0  0  0  0
   58.1800    8.3250   56.9390 O   0  0  0  0  0  0  0  0  0  0  0  0
   56.5390    9.9820   58.7830 C   0  0  0  0  0  0  0  0  0  0  0  0
   56.8080    9.2370   55.4040 N   0  0  0  0  0  0  0  0  0  0  0  0
   56.9450    8.1190   54.4630 C   0  0  0  0  0  0  0  0  0  0  0  0
   48.8510   11.1985   49.9731 H   0  0  0  0  0  0  0  0  0  0  0  0
   48.3292   12.2793   51.2430 H   0  0  0  0  0  0  0  0  0  0  0  0
   47.4484   10.8016   50.9367 H   0  0  0  0  0  0  0  0  0  0  0  0
   50.6576   10.0615   50.5339 H   0  0  0  0  0  0  0  0  0  0  0  0
   50.7773    8.4033   52.7493 H   0  0  0  0  0  0  0  0  0  0  0  0
   53.0952    9.5540   51.1788 H   0  0  0  0  0  0  0  0  0  0  0  0
   52.1946    8.1235   50.7367 H   0  0  0  0  0  0  0  0  0  0  0  0
   53.1734    8.1270   52.1841 H   0  0  0  0  0  0  0  0  0  0  0  0
   52.2389   11.6319   52.4808 H   0  0  0  0  0  0  0  0  0  0  0  0
   52.4056   11.5901   55.4141 H   0  0  0  0  0  0  0  0  0  0  0  0
   52.3110   13.0359   54.3717 H   0  0  0  0  0  0  0  0  0  0  0  0
   54.0415   13.7397   55.8652 H   0  0  0  0  0  0  0  0  0  0  0  0
   56.4550   13.6915   54.4884 H   0  0  0  0  0  0  0  0  0  0  0  0
   55.9552   14.4711   57.3774 H   0  0  0  0  0  0  0  0  0  0  0  0
   55.7525   15.5343   56.0057 H   0  0  0  0  0  0  0  0  0  0  0  0
   57.3447   14.9581   56.4367 H   0  0  0  0  0  0  0  0  0  0  0  0
   55.5570   11.7453   57.2569 H   0  0  0  0  0  0  0  0  0  0  0  0
   58.1940   10.8330   57.6758 H   0  0  0  0  0  0  0  0  0  0  0  0
   55.5653    9.6001   58.5574 H   0  0  0  0  0  0  0  0  0  0  0  0
   56.4506   10.8096   59.4554 H   0  0  0  0  0  0  0  0  0  0  0  0
   57.1268    9.2130   59.2391 H   0  0  0  0  0  0  0  0  0  0  0  0
   56.2390   10.0029   55.1614 H   0  0  0  0  0  0  0  0  0  0  0  0
   57.5937    7.3781   54.8814 H   0  0  0  0  0  0  0  0  0  0  0  0
   57.3580    8.4760   53.5427 H   0  0  0  0  0  0  0  0  0  0  0  0
   55.9832    7.6879   54.2788 H   0  0  0  0  0  0  0  0  0  0  0  0
  1  2  1  0  0  0  0
  1 25  1  0  0  0  0
  1 26  1  0  0  0  0
  1 27  1  0  0  0  0
  2  3  2  0  0  0  0
  4  2  1  0  0  0  0
  4  5  1  0  0  0  0
  4 28  1  0  0  0  0
  5  6  1  0  0  0  0
  5 29  1  1  0  0  0
  6  7  2  0  0  0  0
  8  5  1  0  0  0  0
  8 30  1  0  0  0  0
  8 31  1  0  0  0  0
  8 32  1  0  0  0  0
  9  6  1  0  0  0  0
  9 10  1  0  0  0  0
  9 33  1  0  0  0  0
 10 11  1  0  0  0  0
 10 34  1  0  0  0  0
 10 35  1  0  0  0  0
 11 13  1  0  0  0  0
 12 11  2  0  0  0  0
 13 14  1  0  0  0  0
 13 36  1  0  0  0  0
 14 15  1  0  0  0  0
 14 17  1  0  0  0  0
 14 37  1  6  0  0  0
 15 18  1  0  0  0  0
 16 15  2  0  0  0  0
 17 38  1  0  0  0  0
 17 39  1  0  0  0  0
 17 40  1  0  0  0  0
 18 19  1  0  0  0  0
 18 41  1  0  0  0  0
 19 22  1  0  0  0  0
 19 42  1  1  0  0  0
 20 21  2  0  0  0  0
 20 19  1  0  0  0  0
 22 43  1  0  0  0  0
 22 44  1  0  0  0  0
 22 45  1  0  0  0  0
 23 20  1  0  0  0  0
 23 46  1  0  0  0  0
 24 23  1  0  0  0  0
 24 47  1  0  0  0  0
 24 48  1  0  0  0  0
 24 49  1  0  0  0  0
M  END
>  <MODEL>
       0

$$$$
selected_4mers/AGAA/477_noH.pdb
 OpenBabel03042518173D

 49 48  0  0  1  0  0  0  0  0999 V2000
   68.9790  -10.3170   55.3240 C   0  0  0  0  0  0  0  0  0  0  0  0
   69.4090   -9.1700   56.2340 C   0  0  0  0  0  0  0  0  0  0  0  0
   69.4350   -9.3110   57.4610 O   0  0  0  0  0  0  0  0  0  0  0  0
   69.8100   -8.0410   55.6340 N   0  0  0  0  0  0  0  0  0  0  0  0
   70.2330   -6.8660   56.4270 C   0  0  2  0  0  0  0  0  0  0  0  0
   69.0570   -6.0860   57.0060 C   0  0  0  0  0  0  0  0  0  0  0  0
   69.2810   -5.1990   57.8270 O   0  0  0  0  0  0  0  0  0  0  0  0
   71.1600   -5.9090   55.6170 C   0  0  0  0  0  0  0  0  0  0  0  0
   67.8370   -6.3890   56.5670 N   0  0  0  0  0  0  0  0  0  0  0  0
   66.6330   -5.7390   57.1040 C   0  0  0  0  0  0  0  0  0  0  0  0
   65.6990   -5.0610   56.1350 C   0  0  0  0  0  0  0  0  0  0  0  0
   64.6870   -4.5180   56.5510 O   0  0  0  0  0  0  0  0  0  0  0  0
   65.9970   -5.0800   54.8440 N   0  0  0  0  0  0  0  0  0  0  0  0
   65.1180   -4.4700   53.8570 C   0  0  2  0  0  0  0  0  0  0  0  0
   63.8250   -5.2710   53.7480 C   0  0  0  0  0  0  0  0  0  0  0  0
   63.8700   -6.4870   53.5530 O   0  0  0  0  0  0  0  0  0  0  0  0
   65.7840   -4.4090   52.4990 C   0  0  0  0  0  0  0  0  0  0  0  0
   62.6880   -4.5950   53.9130 N   0  0  0  0  0  0  0  0  0  0  0  0
   61.3830   -5.2540   53.8130 C   0  0  2  0  0  0  0  0  0  0  0  0
   60.8830   -5.1320   52.3830 C   0  0  0  0  0  0  0  0  0  0  0  0
   60.0270   -5.8710   51.9830 O   0  0  0  0  0  0  0  0  0  0  0  0
   60.3790   -4.6100   54.7870 C   0  0  0  0  0  0  0  0  0  0  0  0
   61.4120   -4.1850   51.6060 N   0  0  0  0  0  0  0  0  0  0  0  0
   60.9860   -3.9730   50.2090 C   0  0  0  0  0  0  0  0  0  0  0  0
   69.0234   -9.9985   54.3035 H   0  0  0  0  0  0  0  0  0  0  0  0
   67.9772  -10.6064   55.5640 H   0  0  0  0  0  0  0  0  0  0  0  0
   69.6348  -11.1504   55.4664 H   0  0  0  0  0  0  0  0  0  0  0  0
   69.8233   -7.9927   54.6508 H   0  0  0  0  0  0  0  0  0  0  0  0
   70.7932   -7.2668   57.2458 H   0  0  0  0  0  0  0  0  0  0  0  0
   70.6155   -5.4982   54.7926 H   0  0  0  0  0  0  0  0  0  0  0  0
   72.0037   -6.4555   55.2503 H   0  0  0  0  0  0  0  0  0  0  0  0
   71.4970   -5.1166   56.2522 H   0  0  0  0  0  0  0  0  0  0  0  0
   67.7384   -7.0687   55.8617 H   0  0  0  0  0  0  0  0  0  0  0  0
   66.0686   -6.4898   57.6164 H   0  0  0  0  0  0  0  0  0  0  0  0
   67.0095   -4.9427   57.7115 H   0  0  0  0  0  0  0  0  0  0  0  0
   66.8287   -5.5149   54.5467 H   0  0  0  0  0  0  0  0  0  0  0  0
   64.9018   -3.4723   54.1776 H   0  0  0  0  0  0  0  0  0  0  0  0
   66.0061   -5.4012   52.1658 H   0  0  0  0  0  0  0  0  0  0  0  0
   66.6909   -3.8457   52.5715 H   0  0  0  0  0  0  0  0  0  0  0  0
   65.1258   -3.9369   51.7998 H   0  0  0  0  0  0  0  0  0  0  0  0
   62.7259   -3.6305   54.1066 H   0  0  0  0  0  0  0  0  0  0  0  0
   61.4815   -6.2868   54.0746 H   0  0  0  0  0  0  0  0  0  0  0  0
   60.2626   -3.5740   54.5459 H   0  0  0  0  0  0  0  0  0  0  0  0
   60.7432   -4.7043   55.7887 H   0  0  0  0  0  0  0  0  0  0  0  0
   59.4337   -5.1042   54.7032 H   0  0  0  0  0  0  0  0  0  0  0  0
   62.1142   -3.6048   51.9794 H   0  0  0  0  0  0  0  0  0  0  0  0
   60.2221   -4.6790   49.9580 H   0  0  0  0  0  0  0  0  0  0  0  0
   61.8235   -4.1067   49.5566 H   0  0  0  0  0  0  0  0  0  0  0  0
   60.6036   -2.9797   50.0996 H   0  0  0  0  0  0  0  0  0  0  0  0
  1  2  1  0  0  0  0
  1 25  1  0  0  0  0
  1 26  1  0  0  0  0
  1 27  1  0  0  0  0
  2  3  2  0  0  0  0
  4  2  1  0  0  0  0
  4  5  1  0  0  0  0
  4 28  1  0  0  0  0
  5  6  1  0  0  0  0
  5 29  1  1  0  0  0
  6  7  2  0  0  0  0
  8  5  1  0  0  0  0
  8 30  1  0  0  0  0
  8 31  1  0  0  0  0
  8 32  1  0  0  0  0
  9  6  1  0  0  0  0
  9 10  1  0  0  0  0
  9 33  1  0  0  0  0
 10 34  1  0  0  0  0
 10 35  1  0  0  0  0
 11 12  2  0  0  0  0
 11 10  1  0  0  0  0
 13 11  1  0  0  0  0
 13 36  1  0  0  0  0
 14 13  1  0  0  0  0
 14 37  1  1  0  0  0
 15 14  1  0  0  0  0
 15 18  1  0  0  0  0
 16 15  2  0  0  0  0
 17 14  1  0  0  0  0
 17 38  1  0  0  0  0
 17 39  1  0  0  0  0
 17 40  1  0  0  0  0
 18 41  1  0  0  0  0
 19 18  1  0  0  0  0
 19 22  1  0  0  0  0
 19 42  1  1  0  0  0
 20 19  1  0  0  0  0
 21 20  2  0  0  0  0
 22 43  1  0  0  0  0
 22 44  1  0  0  0  0
 22 45  1  0  0  0  0
 23 20  1  0  0  0  0
 23 46  1  0  0  0  0
 24 23  1  0  0  0  0
 24 47  1  0  0  0  0
 24 48  1  0  0  0  0
 24 49  1  0  0  0  0
M  END
>  <MODEL>
       0

$$$$
selected_4mers/AGAA/478_noH.pdb
 OpenBabel03042518173D

 49 48  0  0  1  0  0  0  0  0999 V2000
   18.0120   42.1380   73.3780 C   0  0  0  0  0  0  0  0  0  0  0  0
   17.6560   41.8460   71.9220 C   0  0  0  0  0  0  0  0  0  0  0  0
   16.4790   41.7850   71.5540 O   0  0  0  0  0  0  0  0  0  0  0  0
   18.6830   41.6710   71.0960 N   0  0  0  0  0  0  0  0  0  0  0  0
   18.4840   41.3700   69.6870 C   0  0  2  0  0  0  0  0  0  0  0  0
   17.7480   40.0360   69.5440 C   0  0  0  0  0  0  0  0  0  0  0  0
   16.8600   39.8910   68.7000 O   0  0  0  0  0  0  0  0  0  0  0  0
   19.8390   41.3110   68.9680 C   0  0  0  0  0  0  0  0  0  0  0  0
   18.1210   39.0670   70.3780 N   0  0  0  0  0  0  0  0  0  0  0  0
   17.4870   37.7580   70.3350 C   0  0  0  0  0  0  0  0  0  0  0  0
   16.0160   37.7750   70.7200 C   0  0  0  0  0  0  0  0  0  0  0  0
   15.1910   37.1220   70.0750 O   0  0  0  0  0  0  0  0  0  0  0  0
   15.6780   38.5150   71.7730 N   0  0  0  0  0  0  0  0  0  0  0  0
   14.2880   38.6030   72.2050 C   0  0  2  0  0  0  0  0  0  0  0  0
   13.4770   39.2520   71.0870 C   0  0  0  0  0  0  0  0  0  0  0  0
   12.3570   38.8340   70.8010 O   0  0  0  0  0  0  0  0  0  0  0  0
   14.1800   39.4240   73.4930 C   0  0  0  0  0  0  0  0  0  0  0  0
   14.0520   40.2670   70.4460 N   0  0  0  0  0  0  0  0  0  0  0  0
   13.3740   40.9500   69.3490 C   0  0  2  0  0  0  0  0  0  0  0  0
   13.1290   39.9710   68.2030 C   0  0  0  0  0  0  0  0  0  0  0  0
   12.0610   39.9700   67.5900 O   0  0  0  0  0  0  0  0  0  0  0  0
   14.2080   42.1290   68.8640 C   0  0  0  0  0  0  0  0  0  0  0  0
   14.1230   39.1400   67.9100 N   0  0  0  0  0  0  0  0  0  0  0  0
   13.9850   38.1540   66.8440 C   0  0  0  0  0  0  0  0  0  0  0  0
   19.0761   42.1482   73.4898 H   0  0  0  0  0  0  0  0  0  0  0  0
   17.5946   41.3791   74.0063 H   0  0  0  0  0  0  0  0  0  0  0  0
   17.6148   43.0912   73.6580 H   0  0  0  0  0  0  0  0  0  0  0  0
   19.5999   41.7470   71.4464 H   0  0  0  0  0  0  0  0  0  0  0  0
   17.8928   42.1419   69.2403 H   0  0  0  0  0  0  0  0  0  0  0  0
   20.4414   40.5422   69.4050 H   0  0  0  0  0  0  0  0  0  0  0  0
   20.3364   42.2532   69.0666 H   0  0  0  0  0  0  0  0  0  0  0  0
   19.6836   41.0964   67.9313 H   0  0  0  0  0  0  0  0  0  0  0  0
   18.8358   39.2388   71.0329 H   0  0  0  0  0  0  0  0  0  0  0  0
   18.0050   37.1100   71.0108 H   0  0  0  0  0  0  0  0  0  0  0  0
   17.5397   37.4196   69.3213 H   0  0  0  0  0  0  0  0  0  0  0  0
   16.3734   39.0081   72.2654 H   0  0  0  0  0  0  0  0  0  0  0  0
   13.9065   37.6243   72.4089 H   0  0  0  0  0  0  0  0  0  0  0  0
   14.5553   40.4109   73.3194 H   0  0  0  0  0  0  0  0  0  0  0  0
   14.7541   38.9546   74.2643 H   0  0  0  0  0  0  0  0  0  0  0  0
   13.1551   39.4802   73.7953 H   0  0  0  0  0  0  0  0  0  0  0  0
   14.9512   40.5624   70.7169 H   0  0  0  0  0  0  0  0  0  0  0  0
   12.4332   41.3203   69.6993 H   0  0  0  0  0  0  0  0  0  0  0  0
   15.1536   41.7752   68.5097 H   0  0  0  0  0  0  0  0  0  0  0  0
   14.3631   42.8127   69.6723 H   0  0  0  0  0  0  0  0  0  0  0  0
   13.6931   42.6272   68.0693 H   0  0  0  0  0  0  0  0  0  0  0  0
   14.9641   39.1903   68.4192 H   0  0  0  0  0  0  0  0  0  0  0  0
   13.0145   38.2404   66.4017 H   0  0  0  0  0  0  0  0  0  0  0  0
   14.1060   37.1712   67.2494 H   0  0  0  0  0  0  0  0  0  0  0  0
   14.7333   38.3271   66.0990 H   0  0  0  0  0  0  0  0  0  0  0  0
  1 25  1  0  0  0  0
  1 26  1  0  0  0  0
  1 27  1  0  0  0  0
  2  1  1  0  0  0  0
  3  2  2  0  0  0  0
  4  2  1  0  0  0  0
  4 28  1  0  0  0  0
  5  4  1  0  0  0  0
  5 29  1  6  0  0  0
  6  5  1  0  0  0  0
  6  9  1  0  0  0  0
  7  6  2  0  0  0  0
  8  5  1  0  0  0  0
  8 30  1  0  0  0  0
  8 31  1  0  0  0  0
  8 32  1  0  0  0  0
  9 33  1  0  0  0  0
 10  9  1  0  0  0  0
 10 11  1  0  0  0  0
 10 34  1  0  0  0  0
 10 35  1  0  0  0  0
 11 13  1  0  0  0  0
 12 11  2  0  0  0  0
 13 14  1  0  0  0  0
 13 36  1  0  0  0  0
 14 17  1  0  0  0  0
 14 37  1  1  0  0  0
 15 14  1  0  0  0  0
 16 15  2  0  0  0  0
 17 38  1  0  0  0  0
 17 39  1  0  0  0  0
 17 40  1  0  0  0  0
 18 15  1  0  0  0  0
 18 41  1  0  0  0  0
 19 18  1  0  0  0  0
 19 42  1  1  0  0  0
 20 19  1  0  0  0  0
 21 20  2  0  0  0  0
 22 19  1  0  0  0  0
 22 43  1  0  0  0  0
 22 44  1  0  0  0  0
 22 45  1  0  0  0  0
 23 20  1  0  0  0  0
 23 46  1  0  0  0  0
 24 23  1  0  0  0  0
 24 47  1  0  0  0  0
 24 48  1  0  0  0  0
 24 49  1  0  0  0  0
M  END
>  <MODEL>
       0

$$$$
selected_4mers/AGAA/479_noH.pdb
 OpenBabel03042518173D

 49 48  0  0  1  0  0  0  0  0999 V2000
   64.8940   45.6530   26.4600 C   0  0  0  0  0  0  0  0  0  0  0  0
   64.3770   44.3430   27.0610 C   0  0  0  0  0  0  0  0  0  0  0  0
   64.7880   43.2790   26.6410 O   0  0  0  0  0  0  0  0  0  0  0  0
   63.5090   44.4310   28.0690 N   0  0  0  0  0  0  0  0  0  0  0  0
   62.8850   43.2410   28.6690 C   0  0  2  0  0  0  0  0  0  0  0  0
   62.0180   42.4910   27.6400 C   0  0  0  0  0  0  0  0  0  0  0  0
   62.0780   41.2560   27.5350 O   0  0  0  0  0  0  0  0  0  0  0  0
   62.0390   43.6390   29.8710 C   0  0  0  0  0  0  0  0  0  0  0  0
   61.2100   43.2450   26.8940 N   0  0  0  0  0  0  0  0  0  0  0  0
   60.3650   42.6670   25.8520 C   0  0  0  0  0  0  0  0  0  0  0  0
   61.1640   41.8570   24.8460 C   0  0  0  0  0  0  0  0  0  0  0  0
   60.7810   40.7340   24.4890 O   0  0  0  0  0  0  0  0  0  0  0  0
   62.2810   42.4260   24.3890 N   0  0  0  0  0  0  0  0  0  0  0  0
   63.1190   41.7600   23.3950 C   0  0  2  0  0  0  0  0  0  0  0  0
   63.7780   40.5080   23.9590 C   0  0  0  0  0  0  0  0  0  0  0  0
   63.8530   39.4820   23.2810 O   0  0  0  0  0  0  0  0  0  0  0  0
   64.1510   42.7370   22.7970 C   0  0  0  0  0  0  0  0  0  0  0  0
   64.2180   40.5720   25.2120 N   0  0  0  0  0  0  0  0  0  0  0  0
   64.8660   39.4260   25.8600 C   0  0  2  0  0  0  0  0  0  0  0  0
   63.8770   38.2850   26.0750 C   0  0  0  0  0  0  0  0  0  0  0  0
   64.1930   37.1000   25.8520 O   0  0  0  0  0  0  0  0  0  0  0  0
   65.4860   39.8550   27.2140 C   0  0  0  0  0  0  0  0  0  0  0  0
   62.6770   38.6440   26.5160 N   0  0  0  0  0  0  0  0  0  0  0  0
   61.6460   37.6490   26.7600 C   0  0  0  0  0  0  0  0  0  0  0  0
   65.5777   45.4358   25.6661 H   0  0  0  0  0  0  0  0  0  0  0  0
   65.3948   46.2195   27.2170 H   0  0  0  0  0  0  0  0  0  0  0  0
   64.0708   46.2190   26.0769 H   0  0  0  0  0  0  0  0  0  0  0  0
   63.2782   45.3201   28.4231 H   0  0  0  0  0  0  0  0  0  0  0  0
   63.6663   42.5848   28.9913 H   0  0  0  0  0  0  0  0  0  0  0  0
   61.2558   44.2956   29.5542 H   0  0  0  0  0  0  0  0  0  0  0  0
   62.6539   44.1384   30.5903 H   0  0  0  0  0  0  0  0  0  0  0  0
   61.6129   42.7627   30.3131 H   0  0  0  0  0  0  0  0  0  0  0  0
   61.1822   44.2167   27.0495 H   0  0  0  0  0  0  0  0  0  0  0  0
   59.6409   42.0272   26.3116 H   0  0  0  0  0  0  0  0  0  0  0  0
   59.8966   43.4724   25.3259 H   0  0  0  0  0  0  0  0  0  0  0  0
   62.5454   43.3116   24.7282 H   0  0  0  0  0  0  0  0  0  0  0  0
   62.4830   41.4379   22.5971 H   0  0  0  0  0  0  0  0  0  0  0  0
   64.8063   43.0807   23.5699 H   0  0  0  0  0  0  0  0  0  0  0  0
   63.6419   43.5723   22.3634 H   0  0  0  0  0  0  0  0  0  0  0  0
   64.7211   42.2360   22.0427 H   0  0  0  0  0  0  0  0  0  0  0  0
   64.1062   41.4093   25.7177 H   0  0  0  0  0  0  0  0  0  0  0  0
   65.6441   39.0768   25.2138 H   0  0  0  0  0  0  0  0  0  0  0  0
   64.7127   40.2055   27.8652 H   0  0  0  0  0  0  0  0  0  0  0  0
   66.1957   40.6385   27.0490 H   0  0  0  0  0  0  0  0  0  0  0  0
   65.9776   39.0171   27.6626 H   0  0  0  0  0  0  0  0  0  0  0  0
   62.4834   39.5953   26.6796 H   0  0  0  0  0  0  0  0  0  0  0  0
   62.0279   36.6761   26.5308 H   0  0  0  0  0  0  0  0  0  0  0  0
   60.7982   37.8545   26.1404 H   0  0  0  0  0  0  0  0  0  0  0  0
   61.3529   37.6839   27.7885 H   0  0  0  0  0  0  0  0  0  0  0  0
  1  2  1  0  0  0  0
  1 25  1  0  0  0  0
  1 26  1  0  0  0  0
  1 27  1  0  0  0  0
  2  4  1  0  0  0  0
  3  2  2  0  0  0  0
  4  5  1  0  0  0  0
  4 28  1  0  0  0  0
  5  8  1  0  0  0  0
  5 29  1  1  0  0  0
  6  5  1  0  0  0  0
  7  6  2  0  0  0  0
  8 30  1  0  0  0  0
  8 31  1  0  0  0  0
  8 32  1  0  0  0  0
  9  6  1  0  0  0  0
  9 33  1  0  0  0  0
 10  9  1  0  0  0  0
 10 34  1  0  0  0  0
 10 35  1  0  0  0  0
 11 10  1  0  0  0  0
 12 11  2  0  0  0  0
 13 11  1  0  0  0  0
 13 36  1  0  0  0  0
 14 15  1  0  0  0  0
 14 13  1  0  0  0  0
 14 37  1  6  0  0  0
 15 18  1  0  0  0  0
 16 15  2  0  0  0  0
 17 14  1  0  0  0  0
 17 38  1  0  0  0  0
 17 39  1  0  0  0  0
 17 40  1  0  0  0  0
 18 19  1  0  0  0  0
 18 41  1  0  0  0  0
 19 20  1  0  0  0  0
 19 22  1  0  0  0  0
 19 42  1  6  0  0  0
 20 23  1  0  0  0  0
 21 20  2  0  0  0  0
 22 43  1  0  0  0  0
 22 44  1  0  0  0  0
 22 45  1  0  0  0  0
 23 24  1  0  0  0  0
 23 46  1  0  0  0  0
 24 47  1  0  0  0  0
 24 48  1  0  0  0  0
 24 49  1  0  0  0  0
M  END
>  <MODEL>
       0

$$$$
