selected_4mers/AGAD/470_noH.pdb
 OpenBabel03042517593D

 51 50  0  0  1  0  0  0  0  0999 V2000
   -4.1400   39.0700   12.7890 C   0  0  0  0  0  0  0  0  0  0  0  0
   -4.7300   40.3210   12.1350 C   0  0  0  0  0  0  0  0  0  0  0  0
   -5.7820   40.2400   11.5150 O   0  0  0  0  0  0  0  0  0  0  0  0
   -4.0660   41.4720   12.2910 N   0  0  0  0  0  0  0  0  0  0  0  0
   -4.4840   42.7360   11.6950 C   0  0  2  0  0  0  0  0  0  0  0  0
   -4.3050   42.7440   10.1690 C   0  0  0  0  0  0  0  0  0  0  0  0
   -4.8290   43.6220    9.5060 O   0  0  0  0  0  0  0  0  0  0  0  0
   -3.7110   43.9190   12.3150 C   0  0  0  0  0  0  0  0  0  0  0  0
   -3.4910   41.8270    9.6530 N   0  0  0  0  0  0  0  0  0  0  0  0
   -3.2720   41.6970    8.2170 C   0  0  0  0  0  0  0  0  0  0  0  0
   -1.8560   41.8170    7.7060 C   0  0  0  0  0  0  0  0  0  0  0  0
   -1.6290   41.6640    6.5000 O   0  0  0  0  0  0  0  0  0  0  0  0
   -0.8760   42.0040    8.5950 N   0  0  0  0  0  0  0  0  0  0  0  0
    0.5060   42.0870    8.1300 C   0  0  2  0  0  0  0  0  0  0  0  0
    1.0280   40.7110    7.7510 C   0  0  0  0  0  0  0  0  0  0  0  0
    0.7870   39.7260    8.4540 O   0  0  0  0  0  0  0  0  0  0  0  0
    1.4230   42.6770    9.2360 C   0  0  0  0  0  0  0  0  0  0  0  0
    1.8000   40.6480    6.6750 N   0  0  0  0  0  0  0  0  0  0  0  0
    2.6370   39.4950    6.4120 C   0  0  2  0  0  0  0  0  0  0  0  0
    3.8700   39.5460    7.3320 C   0  0  0  0  0  0  0  0  0  0  0  0
    4.3380   40.6400    7.6900 O   0  0  0  0  0  0  0  0  0  0  0  0
    3.0870   39.4760    4.9430 C   0  0  0  0  0  0  0  0  0  0  0  0
    1.9430   39.2130    3.9710 C   0  0  0  0  0  0  0  0  0  0  0  0
    0.9560   38.5350    4.3400 O   0  0  0  0  0  0  0  0  0  0  0  0
    2.0330   39.6390    2.8020 O   0  0  0  0  0  0  0  0  0  0  0  0
    4.3630   38.3630    7.7110 N   0  0  0  0  0  0  0  0  0  0  0  0
    5.5010   38.2750    8.6240 C   0  0  0  0  0  0  0  0  0  0  0  0
   -4.7698   38.2296   12.5841 H   0  0  0  0  0  0  0  0  0  0  0  0
   -4.0750   39.2174   13.8468 H   0  0  0  0  0  0  0  0  0  0  0  0
   -3.1626   38.8880   12.3935 H   0  0  0  0  0  0  0  0  0  0  0  0
   -3.2485   41.4655   12.8395 H   0  0  0  0  0  0  0  0  0  0  0  0
   -5.5273   42.8454   11.9060 H   0  0  0  0  0  0  0  0  0  0  0  0
   -2.6672   43.8120   12.1054 H   0  0  0  0  0  0  0  0  0  0  0  0
   -3.8630   43.9285   13.3741 H   0  0  0  0  0  0  0  0  0  0  0  0
   -4.0668   44.8367   11.8954 H   0  0  0  0  0  0  0  0  0  0  0  0
   -3.0195   41.2141   10.2624 H   0  0  0  0  0  0  0  0  0  0  0  0
   -3.6360   40.7342    7.9247 H   0  0  0  0  0  0  0  0  0  0  0  0
   -3.7839   42.5339    7.7899 H   0  0  0  0  0  0  0  0  0  0  0  0
   -1.0835   42.0850    9.5540 H   0  0  0  0  0  0  0  0  0  0  0  0
    0.5196   42.7265    7.2723 H   0  0  0  0  0  0  0  0  0  0  0  0
    1.4073   42.0354   10.0921 H   0  0  0  0  0  0  0  0  0  0  0  0
    1.0694   43.6485    9.5118 H   0  0  0  0  0  0  0  0  0  0  0  0
    2.4241   42.7536    8.8660 H   0  0  0  0  0  0  0  0  0  0  0  0
    1.8046   41.4011    6.0409 H   0  0  0  0  0  0  0  0  0  0  0  0
    2.0746   38.6054    6.6047 H   0  0  0  0  0  0  0  0  0  0  0  0
    3.5224   40.4247    4.7079 H   0  0  0  0  0  0  0  0  0  0  0  0
    3.7886   38.6754    4.8344 H   0  0  0  0  0  0  0  0  0  0  0  0
    3.9523   37.5361    7.3691 H   0  0  0  0  0  0  0  0  0  0  0  0
    5.8189   39.2604    8.8937 H   0  0  0  0  0  0  0  0  0  0  0  0
    6.3057   37.7599    8.1423 H   0  0  0  0  0  0  0  0  0  0  0  0
    5.2114   37.7402    9.5044 H   0  0  0  0  0  0  0  0  0  0  0  0
  1 28  1  0  0  0  0
  1 29  1  0  0  0  0
  1 30  1  0  0  0  0
  2  4  1  0  0  0  0
  2  1  1  0  0  0  0
  3  2  2  0  0  0  0
  4 31  1  0  0  0  0
  5  4  1  0  0  0  0
  5  8  1  0  0  0  0
  5 32  1  1  0  0  0
  6  5  1  0  0  0  0
  7  6  2  0  0  0  0
  8 33  1  0  0  0  0
  8 34  1  0  0  0  0
  8 35  1  0  0  0  0
  9  6  1  0  0  0  0
  9 36  1  0  0  0  0
 10  9  1  0  0  0  0
 10 37  1  0  0  0  0
 10 38  1  0  0  0  0
 11 10  1  0  0  0  0
 11 13  1  0  0  0  0
 12 11  2  0  0  0  0
 13 39  1  0  0  0  0
 14 13  1  0  0  0  0
 14 17  1  0  0  0  0
 14 40  1  6  0  0  0
 15 14  1  0  0  0  0
 15 16  2  0  0  0  0
 17 41  1  0  0  0  0
 17 42  1  0  0  0  0
 17 43  1  0  0  0  0
 18 15  1  0  0  0  0
 18 44  1  0  0  0  0
 19 18  1  0  0  0  0
 19 20  1  0  0  0  0
 19 45  1  1  0  0  0
 20 21  2  0  0  0  0
 20 26  1  0  0  0  0
 22 19  1  0  0  0  0
 22 46  1  0  0  0  0
 22 47  1  0  0  0  0
 23 24  1  0  0  0  0
 23 22  1  0  0  0  0
 25 23  2  0  0  0  0
 26 27  1  0  0  0  0
 26 48  1  0  0  0  0
 27 49  1  0  0  0  0
 27 50  1  0  0  0  0
 27 51  1  0  0  0  0
M  CHG  1  24  -1
M  END
>  <MODEL>
       0

$$$$
selected_4mers/AGAD/471_noH.pdb
 OpenBabel03042517593D

 51 50  0  0  1  0  0  0  0  0999 V2000
   29.3690   48.0300   62.4200 C   0  0  0  0  0  0  0  0  0  0  0  0
   28.1710   48.9430   62.2030 C   0  0  0  0  0  0  0  0  0  0  0  0
   27.1150   48.7510   62.8080 O   0  0  0  0  0  0  0  0  0  0  0  0
   28.3340   49.9290   61.3250 N   0  0  0  0  0  0  0  0  0  0  0  0
   27.2690   50.8780   61.0340 C   0  0  2  0  0  0  0  0  0  0  0  0
   26.1860   50.3030   60.1260 C   0  0  0  0  0  0  0  0  0  0  0  0
   25.1370   50.9200   59.9480 O   0  0  0  0  0  0  0  0  0  0  0  0
   27.8480   52.1370   60.4040 C   0  0  0  0  0  0  0  0  0  0  0  0
   26.4530   49.1460   59.5310 N   0  0  0  0  0  0  0  0  0  0  0  0
   25.4640   48.5300   58.6650 C   0  0  0  0  0  0  0  0  0  0  0  0
   25.8340   48.3010   57.2090 C   0  0  0  0  0  0  0  0  0  0  0  0
   24.9690   47.9070   56.4210 O   0  0  0  0  0  0  0  0  0  0  0  0
   27.0860   48.5540   56.8290 N   0  0  0  0  0  0  0  0  0  0  0  0
   27.5000   48.3220   55.4430 C   0  0  2  0  0  0  0  0  0  0  0  0
   27.2900   46.8410   55.1290 C   0  0  0  0  0  0  0  0  0  0  0  0
   27.7110   45.9800   55.8940 O   0  0  0  0  0  0  0  0  0  0  0  0
   28.9700   48.6960   55.2510 C   0  0  0  0  0  0  0  0  0  0  0  0
   26.6470   46.5490   54.0030 N   0  0  0  0  0  0  0  0  0  0  0  0
   26.3740   45.1650   53.6010 C   0  0  2  0  0  0  0  0  0  0  0  0
   27.5560   44.5320   52.8980 C   0  0  0  0  0  0  0  0  0  0  0  0
   27.6650   43.3060   52.8390 O   0  0  0  0  0  0  0  0  0  0  0  0
   25.1830   45.1060   52.6370 C   0  0  0  0  0  0  0  0  0  0  0  0
   23.8960   45.5760   53.2680 C   0  0  0  0  0  0  0  0  0  0  0  0
   23.3460   44.8290   54.1040 O   0  0  0  0  0  0  0  0  0  0  0  0
   23.4400   46.6940   52.9310 O   0  0  0  0  0  0  0  0  0  0  0  0
   28.4180   45.3880   52.3510 N   0  0  0  0  0  0  0  0  0  0  0  0
   29.6010   44.9860   51.5950 C   0  0  0  0  0  0  0  0  0  0  0  0
   30.1834   48.3589   61.8089 H   0  0  0  0  0  0  0  0  0  0  0  0
   29.1061   47.0274   62.1544 H   0  0  0  0  0  0  0  0  0  0  0  0
   29.6598   48.0617   63.4492 H   0  0  0  0  0  0  0  0  0  0  0  0
   29.1971   50.0193   60.8600 H   0  0  0  0  0  0  0  0  0  0  0  0
   26.8042   51.1111   61.9692 H   0  0  0  0  0  0  0  0  0  0  0  0
   28.3090   51.8892   59.4707 H   0  0  0  0  0  0  0  0  0  0  0  0
   28.5783   52.5612   61.0610 H   0  0  0  0  0  0  0  0  0  0  0  0
   27.0637   52.8456   60.2374 H   0  0  0  0  0  0  0  0  0  0  0  0
   27.3215   48.7061   59.6772 H   0  0  0  0  0  0  0  0  0  0  0  0
   25.2227   47.5762   59.0857 H   0  0  0  0  0  0  0  0  0  0  0  0
   24.6626   49.2380   58.6288 H   0  0  0  0  0  0  0  0  0  0  0  0
   27.7361   48.8986   57.4831 H   0  0  0  0  0  0  0  0  0  0  0  0
   26.9183   48.9301   54.7822 H   0  0  0  0  0  0  0  0  0  0  0  0
   29.5771   48.1016   55.9014 H   0  0  0  0  0  0  0  0  0  0  0  0
   29.1077   49.7316   55.4821 H   0  0  0  0  0  0  0  0  0  0  0  0
   29.2540   48.5165   54.2351 H   0  0  0  0  0  0  0  0  0  0  0  0
   26.3449   47.2836   53.4214 H   0  0  0  0  0  0  0  0  0  0  0  0
   26.1646   44.6287   54.5029 H   0  0  0  0  0  0  0  0  0  0  0  0
   25.3961   45.7269   51.7920 H   0  0  0  0  0  0  0  0  0  0  0  0
   25.0481   44.0829   52.3541 H   0  0  0  0  0  0  0  0  0  0  0  0
   28.2469   46.3510   52.4634 H   0  0  0  0  0  0  0  0  0  0  0  0
   29.6543   43.9180   51.5574 H   0  0  0  0  0  0  0  0  0  0  0  0
   30.4776   45.3703   52.0734 H   0  0  0  0  0  0  0  0  0  0  0  0
   29.5379   45.3752   50.6003 H   0  0  0  0  0  0  0  0  0  0  0  0
  1 28  1  0  0  0  0
  1 29  1  0  0  0  0
  1 30  1  0  0  0  0
  2  1  1  0  0  0  0
  2  3  2  0  0  0  0
  4  2  1  0  0  0  0
  4 31  1  0  0  0  0
  5  4  1  0  0  0  0
  5 32  1  1  0  0  0
  6  5  1  0  0  0  0
  7  6  2  0  0  0  0
  8  5  1  0  0  0  0
  8 33  1  0  0  0  0
  8 34  1  0  0  0  0
  8 35  1  0  0  0  0
  9  6  1  0  0  0  0
  9 36  1  0  0  0  0
 10  9  1  0  0  0  0
 10 37  1  0  0  0  0
 10 38  1  0  0  0  0
 11 10  1  0  0  0  0
 12 11  2  0  0  0  0
 13 11  1  0  0  0  0
 13 39  1  0  0  0  0
 14 13  1  0  0  0  0
 14 40  1  6  0  0  0
 15 14  1  0  0  0  0
 15 16  2  0  0  0  0
 17 14  1  0  0  0  0
 17 41  1  0  0  0  0
 17 42  1  0  0  0  0
 17 43  1  0  0  0  0
 18 15  1  0  0  0  0
 18 44  1  0  0  0  0
 19 18  1  0  0  0  0
 19 45  1  1  0  0  0
 20 19  1  0  0  0  0
 21 20  2  0  0  0  0
 22 23  1  0  0  0  0
 22 19  1  0  0  0  0
 22 46  1  0  0  0  0
 22 47  1  0  0  0  0
 23 24  1  0  0  0  0
 25 23  2  0  0  0  0
 26 20  1  0  0  0  0
 26 48  1  0  0  0  0
 27 26  1  0  0  0  0
 27 49  1  0  0  0  0
 27 50  1  0  0  0  0
 27 51  1  0  0  0  0
M  CHG  1  24  -1
M  END
>  <MODEL>
       0

$$$$
selected_4mers/AGAD/472_noH.pdb
 OpenBabel03042517593D

 51 50  0  0  1  0  0  0  0  0999 V2000
   -6.5650    8.5210  -39.8290 C   0  0  0  0  0  0  0  0  0  0  0  0
   -5.7500    8.5200  -41.1300 C   0  0  0  0  0  0  0  0  0  0  0  0
   -6.1270    7.8690  -42.1090 O   0  0  0  0  0  0  0  0  0  0  0  0
   -4.6200    9.2300  -41.1340 N   0  0  0  0  0  0  0  0  0  0  0  0
   -3.7310    9.2140  -42.2860 C   0  0  2  0  0  0  0  0  0  0  0  0
   -3.1240    7.8200  -42.4870 C   0  0  0  0  0  0  0  0  0  0  0  0
   -3.0320    7.3460  -43.6420 O   0  0  0  0  0  0  0  0  0  0  0  0
   -2.6420   10.2760  -42.1430 C   0  0  0  0  0  0  0  0  0  0  0  0
   -2.7580    7.1390  -41.4000 N   0  0  0  0  0  0  0  0  0  0  0  0
   -2.2790    5.7550  -41.5320 C   0  0  0  0  0  0  0  0  0  0  0  0
   -3.3610    4.8460  -42.0860 C   0  0  0  0  0  0  0  0  0  0  0  0
   -3.1210    4.0370  -42.9860 O   0  0  0  0  0  0  0  0  0  0  0  0
   -4.5790    4.9940  -41.5750 N   0  0  0  0  0  0  0  0  0  0  0  0
   -5.6530    4.1400  -42.0510 C   0  0  2  0  0  0  0  0  0  0  0  0
   -5.9270    4.3670  -43.5480 C   0  0  0  0  0  0  0  0  0  0  0  0
   -6.1890    3.4190  -44.2790 O   0  0  0  0  0  0  0  0  0  0  0  0
   -6.9110    4.3710  -41.2450 C   0  0  0  0  0  0  0  0  0  0  0  0
   -5.8560    5.6270  -43.9900 N   0  0  0  0  0  0  0  0  0  0  0  0
   -6.0410    5.9440  -45.4070 C   0  0  2  0  0  0  0  0  0  0  0  0
   -4.9270    5.3090  -46.2550 C   0  0  0  0  0  0  0  0  0  0  0  0
   -5.1840    4.8450  -47.3720 O   0  0  0  0  0  0  0  0  0  0  0  0
   -6.0730    7.4650  -45.6410 C   0  0  0  0  0  0  0  0  0  0  0  0
   -7.4010    8.1170  -45.2190 C   0  0  0  0  0  0  0  0  0  0  0  0
   -8.3440    7.3940  -44.7990 O   0  0  0  0  0  0  0  0  0  0  0  0
   -7.4950    9.3710  -45.3340 O   0  0  0  0  0  0  0  0  0  0  0  0
   -3.6950    5.3240  -45.7490 N   0  0  0  0  0  0  0  0  0  0  0  0
   -2.5640    4.6730  -46.4240 C   0  0  0  0  0  0  0  0  0  0  0  0
   -7.4406    7.9193  -39.9562 H   0  0  0  0  0  0  0  0  0  0  0  0
   -6.8527    9.5233  -39.5891 H   0  0  0  0  0  0  0  0  0  0  0  0
   -5.9697    8.1211  -39.0349 H   0  0  0  0  0  0  0  0  0  0  0  0
   -4.3846    9.7721  -40.3467 H   0  0  0  0  0  0  0  0  0  0  0  0
   -4.3060    9.4484  -43.1574 H   0  0  0  0  0  0  0  0  0  0  0  0
   -2.0501   10.0655  -41.2768 H   0  0  0  0  0  0  0  0  0  0  0  0
   -3.0951   11.2398  -42.0398 H   0  0  0  0  0  0  0  0  0  0  0  0
   -2.0181   10.2664  -43.0122 H   0  0  0  0  0  0  0  0  0  0  0  0
   -2.8084    7.5616  -40.5122 H   0  0  0  0  0  0  0  0  0  0  0  0
   -1.4382    5.7390  -42.1936 H   0  0  0  0  0  0  0  0  0  0  0  0
   -2.0043    5.3992  -40.5610 H   0  0  0  0  0  0  0  0  0  0  0  0
   -4.7508    5.6732  -40.8833 H   0  0  0  0  0  0  0  0  0  0  0  0
   -5.3433    3.1238  -41.9229 H   0  0  0  0  0  0  0  0  0  0  0  0
   -7.2306    5.3850  -41.3654 H   0  0  0  0  0  0  0  0  0  0  0  0
   -6.7123    4.1801  -40.2111 H   0  0  0  0  0  0  0  0  0  0  0  0
   -7.6805    3.7114  -41.5880 H   0  0  0  0  0  0  0  0  0  0  0  0
   -5.6762    6.3542  -43.3512 H   0  0  0  0  0  0  0  0  0  0  0  0
   -6.9838    5.5368  -45.7073 H   0  0  0  0  0  0  0  0  0  0  0  0
   -5.9189    7.6517  -46.6833 H   0  0  0  0  0  0  0  0  0  0  0  0
   -5.3021    7.8953  -45.0364 H   0  0  0  0  0  0  0  0  0  0  0  0
   -3.5370    5.7866  -44.8944 H   0  0  0  0  0  0  0  0  0  0  0  0
   -2.9033    4.2203  -47.3322 H   0  0  0  0  0  0  0  0  0  0  0  0
   -2.1509    3.9218  -45.7837 H   0  0  0  0  0  0  0  0  0  0  0  0
   -1.8141    5.4028  -46.6477 H   0  0  0  0  0  0  0  0  0  0  0  0
  1 28  1  0  0  0  0
  1 29  1  0  0  0  0
  1 30  1  0  0  0  0
  2  1  1  0  0  0  0
  3  2  2  0  0  0  0
  4  2  1  0  0  0  0
  4 31  1  0  0  0  0
  5  8  1  0  0  0  0
  5  4  1  0  0  0  0
  5 32  1  6  0  0  0
  6  5  1  0  0  0  0
  6  9  1  0  0  0  0
  7  6  2  0  0  0  0
  8 33  1  0  0  0  0
  8 34  1  0  0  0  0
  8 35  1  0  0  0  0
  9 36  1  0  0  0  0
 10  9  1  0  0  0  0
 10 37  1  0  0  0  0
 10 38  1  0  0  0  0
 11 13  1  0  0  0  0
 11 10  1  0  0  0  0
 12 11  2  0  0  0  0
 13 39  1  0  0  0  0
 14 13  1  0  0  0  0
 14 17  1  0  0  0  0
 14 40  1  1  0  0  0
 15 14  1  0  0  0  0
 16 15  2  0  0  0  0
 17 41  1  0  0  0  0
 17 42  1  0  0  0  0
 17 43  1  0  0  0  0
 18 15  1  0  0  0  0
 18 44  1  0  0  0  0
 19 18  1  0  0  0  0
 19 45  1  6  0  0  0
 20 26  1  0  0  0  0
 20 19  1  0  0  0  0
 21 20  2  0  0  0  0
 22 19  1  0  0  0  0
 22 23  1  0  0  0  0
 22 46  1  0  0  0  0
 22 47  1  0  0  0  0
 23 24  1  0  0  0  0
 25 23  2  0  0  0  0
 26 48  1  0  0  0  0
 27 26  1  0  0  0  0
 27 49  1  0  0  0  0
 27 50  1  0  0  0  0
 27 51  1  0  0  0  0
M  CHG  1  24  -1
M  END
>  <MODEL>
       0

$$$$
selected_4mers/AGAD/473_noH.pdb
 OpenBabel03042518173D

 51 50  0  0  1  0  0  0  0  0999 V2000
   -3.2420  -16.5810    6.0750 C   0  0  0  0  0  0  0  0  0  0  0  0
   -4.1820  -15.6610    5.2720 C   0  0  0  0  0  0  0  0  0  0  0  0
   -5.1900  -15.1850    5.7970 O   0  0  0  0  0  0  0  0  0  0  0  0
   -3.8210  -15.3950    4.0200 N   0  0  0  0  0  0  0  0  0  0  0  0
   -4.6240  -14.5220    3.1810 C   0  0  2  0  0  0  0  0  0  0  0  0
   -5.9280  -15.1730    2.6960 C   0  0  0  0  0  0  0  0  0  0  0  0
   -6.8640  -14.4550    2.3200 O   0  0  0  0  0  0  0  0  0  0  0  0
   -3.8040  -14.0410    2.0100 C   0  0  0  0  0  0  0  0  0  0  0  0
   -5.9720  -16.5170    2.6740 N   0  0  0  0  0  0  0  0  0  0  0  0
   -7.1340  -17.2270    2.1240 C   0  0  0  0  0  0  0  0  0  0  0  0
   -6.8190  -18.1350    0.9450 C   0  0  0  0  0  0  0  0  0  0  0  0
   -7.7380  -18.7260    0.3830 O   0  0  0  0  0  0  0  0  0  0  0  0
   -5.5450  -18.2760    0.5840 N   0  0  0  0  0  0  0  0  0  0  0  0
   -5.1090  -19.2760   -0.3960 C   0  0  2  0  0  0  0  0  0  0  0  0
   -5.8710  -19.1020   -1.7030 C   0  0  0  0  0  0  0  0  0  0  0  0
   -6.1140  -17.9810   -2.1480 O   0  0  0  0  0  0  0  0  0  0  0  0
   -5.2100  -20.6940    0.2160 C   0  0  0  0  0  0  0  0  0  0  0  0
   -6.2430  -20.2020   -2.3480 N   0  0  0  0  0  0  0  0  0  0  0  0
   -6.9270  -20.2110   -3.6360 C   0  0  2  0  0  0  0  0  0  0  0  0
   -8.2600  -19.4580   -3.6140 C   0  0  0  0  0  0  0  0  0  0  0  0
   -8.7540  -18.9920   -4.6420 O   0  0  0  0  0  0  0  0  0  0  0  0
   -7.1170  -21.6730   -4.0910 C   0  0  0  0  0  0  0  0  0  0  0  0
   -5.7920  -22.3730   -4.3260 C   0  0  0  0  0  0  0  0  0  0  0  0
   -4.9000  -21.7440   -4.9310 O   0  0  0  0  0  0  0  0  0  0  0  0
   -5.6310  -23.5350   -3.8910 O   0  0  0  0  0  0  0  0  0  0  0  0
   -8.9030  -19.4440   -2.4470 N   0  0  0  0  0  0  0  0  0  0  0  0
  -10.2210  -18.8000   -2.3290 C   0  0  0  0  0  0  0  0  0  0  0  0
   -2.4291  -16.8914    5.4523 H   0  0  0  0  0  0  0  0  0  0  0  0
   -3.7841  -17.4410    6.4089 H   0  0  0  0  0  0  0  0  0  0  0  0
   -2.8601  -16.0494    6.9214 H   0  0  0  0  0  0  0  0  0  0  0  0
   -2.9982  -15.7952    3.6566 H   0  0  0  0  0  0  0  0  0  0  0  0
   -4.9156  -13.6902    3.7875 H   0  0  0  0  0  0  0  0  0  0  0  0
   -3.5162  -14.8778    1.4084 H   0  0  0  0  0  0  0  0  0  0  0  0
   -2.9283  -13.5418    2.3689 H   0  0  0  0  0  0  0  0  0  0  0  0
   -4.3858  -13.3623    1.4220 H   0  0  0  0  0  0  0  0  0  0  0  0
   -5.2137  -17.0328    3.0321 H   0  0  0  0  0  0  0  0  0  0  0  0
   -7.5590  -17.8255    2.9025 H   0  0  0  0  0  0  0  0  0  0  0  0
   -7.8042  -16.4768    1.7595 H   0  0  0  0  0  0  0  0  0  0  0  0
   -4.8698  -17.6862    0.9907 H   0  0  0  0  0  0  0  0  0  0  0  0
   -4.0775  -19.1325   -0.6416 H   0  0  0  0  0  0  0  0  0  0  0  0
   -6.2263  -20.8956    0.4832 H   0  0  0  0  0  0  0  0  0  0  0  0
   -4.5938  -20.7504    1.0889 H   0  0  0  0  0  0  0  0  0  0  0  0
   -4.8797  -21.4163   -0.5010 H   0  0  0  0  0  0  0  0  0  0  0  0
   -6.0435  -21.0699   -1.9282 H   0  0  0  0  0  0  0  0  0  0  0  0
   -6.3146  -19.6863   -4.3393 H   0  0  0  0  0  0  0  0  0  0  0  0
   -7.6578  -22.2025   -3.3346 H   0  0  0  0  0  0  0  0  0  0  0  0
   -7.6539  -21.6634   -5.0165 H   0  0  0  0  0  0  0  0  0  0  0  0
   -8.4935  -19.8674   -1.6582 H   0  0  0  0  0  0  0  0  0  0  0  0
  -10.5071  -18.3966   -3.2778 H   0  0  0  0  0  0  0  0  0  0  0  0
  -10.1695  -18.0118   -1.6072 H   0  0  0  0  0  0  0  0  0  0  0  0
  -10.9447  -19.5234   -2.0162 H   0  0  0  0  0  0  0  0  0  0  0  0
  1 28  1  0  0  0  0
  1 29  1  0  0  0  0
  1 30  1  0  0  0  0
  2  3  2  0  0  0  0
  2  1  1  0  0  0  0
  4  2  1  0  0  0  0
  4 31  1  0  0  0  0
  5  4  1  0  0  0  0
  5 32  1  1  0  0  0
  6  5  1  0  0  0  0
  7  6  2  0  0  0  0
  8  5  1  0  0  0  0
  8 33  1  0  0  0  0
  8 34  1  0  0  0  0
  8 35  1  0  0  0  0
  9  6  1  0  0  0  0
  9 36  1  0  0  0  0
 10  9  1  0  0  0  0
 10 37  1  0  0  0  0
 10 38  1  0  0  0  0
 11 10  1  0  0  0  0
 12 11  2  0  0  0  0
 13 11  1  0  0  0  0
 13 39  1  0  0  0  0
 14 17  1  0  0  0  0
 14 13  1  0  0  0  0
 14 40  1  6  0  0  0
 15 14  1  0  0  0  0
 16 15  2  0  0  0  0
 17 41  1  0  0  0  0
 17 42  1  0  0  0  0
 17 43  1  0  0  0  0
 18 15  1  0  0  0  0
 18 44  1  0  0  0  0
 19 20  1  0  0  0  0
 19 18  1  0  0  0  0
 19 45  1  6  0  0  0
 20 26  1  0  0  0  0
 21 20  2  0  0  0  0
 22 19  1  0  0  0  0
 22 46  1  0  0  0  0
 22 47  1  0  0  0  0
 23 22  1  0  0  0  0
 23 25  1  0  0  0  0
 24 23  2  0  0  0  0
 26 27  1  0  0  0  0
 26 48  1  0  0  0  0
 27 49  1  0  0  0  0
 27 50  1  0  0  0  0
 27 51  1  0  0  0  0
M  CHG  1  25  -1
M  END
>  <MODEL>
       0

$$$$
selected_4mers/AGAD/474_noH.pdb
 OpenBabel03042518173D

 51 50  0  0  1  0  0  0  0  0999 V2000
   60.5290   53.3990   15.0170 C   0  0  0  0  0  0  0  0  0  0  0  0
   60.5130   51.9600   14.5530 C   0  0  0  0  0  0  0  0  0  0  0  0
   59.7290   51.6010   13.6800 O   0  0  0  0  0  0  0  0  0  0  0  0
   61.4000   51.1440   15.1230 N   0  0  0  0  0  0  0  0  0  0  0  0
   61.4860   49.7140   14.8080 C   0  0  2  0  0  0  0  0  0  0  0  0
   61.9730   48.9580   16.0310 C   0  0  0  0  0  0  0  0  0  0  0  0
   62.5290   49.5660   16.9540 O   0  0  0  0  0  0  0  0  0  0  0  0
   62.4150   49.4660   13.6220 C   0  0  0  0  0  0  0  0  0  0  0  0
   61.7510   47.6440   16.0370 N   0  0  0  0  0  0  0  0  0  0  0  0
   62.2180   46.7680   17.1070 C   0  0  0  0  0  0  0  0  0  0  0  0
   61.7660   47.2200   18.4790 C   0  0  0  0  0  0  0  0  0  0  0  0
   60.5910   47.4870   18.6850 O   0  0  0  0  0  0  0  0  0  0  0  0
   62.7190   47.3660   19.3980 N   0  0  0  0  0  0  0  0  0  0  0  0
   62.4270   47.7660   20.7760 C   0  0  2  0  0  0  0  0  0  0  0  0
   61.8640   49.1890   20.9260 C   0  0  0  0  0  0  0  0  0  0  0  0
   61.3020   49.5250   21.9710 O   0  0  0  0  0  0  0  0  0  0  0  0
   63.6730   47.5800   21.6610 C   0  0  0  0  0  0  0  0  0  0  0  0
   61.9880   50.0060   19.8780 N   0  0  0  0  0  0  0  0  0  0  0  0
   61.5660   51.4060   19.9080 C   0  0  2  0  0  0  0  0  0  0  0  0
   60.2920   51.6580   19.0750 C   0  0  0  0  0  0  0  0  0  0  0  0
   59.9680   52.7910   18.7520 O   0  0  0  0  0  0  0  0  0  0  0  0
   62.7180   52.2930   19.4170 C   0  0  0  0  0  0  0  0  0  0  0  0
   64.0800   51.8140   19.9130 C   0  0  0  0  0  0  0  0  0  0  0  0
   64.2180   51.5490   21.1280 O   0  0  0  0  0  0  0  0  0  0  0  0
   65.0110   51.6990   19.0840 O   0  0  0  0  0  0  0  0  0  0  0  0
   59.5870   50.5920   18.7170 N   0  0  0  0  0  0  0  0  0  0  0  0
   58.3570   50.6920   17.9300 C   0  0  0  0  0  0  0  0  0  0  0  0
   59.7783   53.9515   14.4915 H   0  0  0  0  0  0  0  0  0  0  0  0
   61.4899   53.8266   14.8202 H   0  0  0  0  0  0  0  0  0  0  0  0
   60.3301   53.4372   16.0677 H   0  0  0  0  0  0  0  0  0  0  0  0
   62.0253   51.5180   15.7850 H   0  0  0  0  0  0  0  0  0  0  0  0
   60.5128   49.3625   14.5357 H   0  0  0  0  0  0  0  0  0  0  0  0
   63.3999   49.8077   13.8629 H   0  0  0  0  0  0  0  0  0  0  0  0
   62.0521   49.9977   12.7674 H   0  0  0  0  0  0  0  0  0  0  0  0
   62.4441   48.4187   13.4046 H   0  0  0  0  0  0  0  0  0  0  0  0
   61.2506   47.2472   15.2877 H   0  0  0  0  0  0  0  0  0  0  0  0
   63.2877   46.7482   17.0894 H   0  0  0  0  0  0  0  0  0  0  0  0
   61.7985   45.7990   16.9342 H   0  0  0  0  0  0  0  0  0  0  0  0
   63.6546   47.1987   19.1412 H   0  0  0  0  0  0  0  0  0  0  0  0
   61.6422   47.1169   21.1042 H   0  0  0  0  0  0  0  0  0  0  0  0
   64.4505   48.2333   21.3241 H   0  0  0  0  0  0  0  0  0  0  0  0
   64.0072   46.5655   21.5978 H   0  0  0  0  0  0  0  0  0  0  0  0
   63.4272   47.8119   22.6762 H   0  0  0  0  0  0  0  0  0  0  0  0
   62.3808   49.6506   19.0482 H   0  0  0  0  0  0  0  0  0  0  0  0
   61.3207   51.6541   20.9195 H   0  0  0  0  0  0  0  0  0  0  0  0
   62.5565   53.2905   19.7689 H   0  0  0  0  0  0  0  0  0  0  0  0
   62.7284   52.2486   18.3480 H   0  0  0  0  0  0  0  0  0  0  0  0
   59.9032   49.7008   18.9910 H   0  0  0  0  0  0  0  0  0  0  0  0
   58.1533   51.7203   17.7158 H   0  0  0  0  0  0  0  0  0  0  0  0
   57.5431   50.2754   18.4858 H   0  0  0  0  0  0  0  0  0  0  0  0
   58.4755   50.1534   17.0131 H   0  0  0  0  0  0  0  0  0  0  0  0
  1 28  1  0  0  0  0
  1 29  1  0  0  0  0
  1 30  1  0  0  0  0
  2  1  1  0  0  0  0
  2  4  1  0  0  0  0
  3  2  2  0  0  0  0
  4 31  1  0  0  0  0
  5  4  1  0  0  0  0
  5  6  1  0  0  0  0
  5 32  1  6  0  0  0
  6  9  1  0  0  0  0
  6  7  2  0  0  0  0
  8  5  1  0  0  0  0
  8 33  1  0  0  0  0
  8 34  1  0  0  0  0
  8 35  1  0  0  0  0
  9 10  1  0  0  0  0
  9 36  1  0  0  0  0
 10 11  1  0  0  0  0
 10 37  1  0  0  0  0
 10 38  1  0  0  0  0
 11 12  2  0  0  0  0
 11 13  1  0  0  0  0
 13 14  1  0  0  0  0
 13 39  1  0  0  0  0
 14 15  1  0  0  0  0
 14 17  1  0  0  0  0
 14 40  1  1  0  0  0
 15 16  2  0  0  0  0
 17 41  1  0  0  0  0
 17 42  1  0  0  0  0
 17 43  1  0  0  0  0
 18 19  1  0  0  0  0
 18 15  1  0  0  0  0
 18 44  1  0  0  0  0
 19 45  1  1  0  0  0
 20 19  1  0  0  0  0
 21 20  2  0  0  0  0
 22 19  1  0  0  0  0
 22 23  1  0  0  0  0
 22 46  1  0  0  0  0
 22 47  1  0  0  0  0
 23 24  1  0  0  0  0
 25 23  2  0  0  0  0
 26 20  1  0  0  0  0
 26 48  1  0  0  0  0
 27 26  1  0  0  0  0
 27 49  1  0  0  0  0
 27 50  1  0  0  0  0
 27 51  1  0  0  0  0
M  CHG  1  24  -1
M  END
>  <MODEL>
       0

$$$$
