selected_4mers/AGAV/495_noH.pdb
 OpenBabel03042518173D

 55 54  0  0  1  0  0  0  0  0999 V2000
   -2.3700   21.8080   33.7250 C   0  0  0  0  0  0  0  0  0  0  0  0
   -2.8780   20.5790   32.9460 C   0  0  0  0  0  0  0  0  0  0  0  0
   -2.3080   19.4660   33.0370 O   0  0  0  0  0  0  0  0  0  0  0  0
   -3.9460   20.7980   32.1750 N   0  0  0  0  0  0  0  0  0  0  0  0
   -4.6030   19.7430   31.4120 C   0  0  2  0  0  0  0  0  0  0  0  0
   -4.1290   19.6080   29.9780 C   0  0  0  0  0  0  0  0  0  0  0  0
   -4.6780   18.7970   29.2500 O   0  0  0  0  0  0  0  0  0  0  0  0
   -6.1050   19.9630   31.4280 C   0  0  0  0  0  0  0  0  0  0  0  0
   -3.0340   20.3000   29.6220 N   0  0  0  0  0  0  0  0  0  0  0  0
   -2.5470   20.2880   28.2440 C   0  0  0  0  0  0  0  0  0  0  0  0
   -2.9900   21.5270   27.4880 C   0  0  0  0  0  0  0  0  0  0  0  0
   -3.9740   22.1870   27.8550 O   0  0  0  0  0  0  0  0  0  0  0  0
   -2.2830   21.8210   26.3990 N   0  0  0  0  0  0  0  0  0  0  0  0
   -2.5790   23.0410   25.6270 C   0  0  2  0  0  0  0  0  0  0  0  0
   -3.9760   23.0290   25.0360 C   0  0  0  0  0  0  0  0  0  0  0  0
   -4.5860   24.1020   24.9120 O   0  0  0  0  0  0  0  0  0  0  0  0
   -1.5870   23.2230   24.5260 C   0  0  0  0  0  0  0  0  0  0  0  0
   -4.5030   21.8630   24.6350 N   0  0  0  0  0  0  0  0  0  0  0  0
   -5.8900   21.8000   24.1370 C   0  0  2  0  0  0  0  0  0  0  0  0
   -6.8870   21.8650   25.2770 C   0  0  0  0  0  0  0  0  0  0  0  0
   -7.8470   22.6730   25.2460 O   0  0  0  0  0  0  0  0  0  0  0  0
   -6.1170   20.5420   23.2770 C   0  0  0  0  0  0  0  0  0  0  0  0
   -7.5670   20.3880   22.8870 C   0  0  0  0  0  0  0  0  0  0  0  0
   -5.2170   20.5920   22.0870 C   0  0  0  0  0  0  0  0  0  0  0  0
   -6.7080   20.9750   26.2540 N   0  0  0  0  0  0  0  0  0  0  0  0
   -7.7430   20.8260   27.2810 C   0  0  0  0  0  0  0  0  0  0  0  0
   -2.9930   22.6504   33.5079 H   0  0  0  0  0  0  0  0  0  0  0  0
   -1.3635   22.0242   33.4332 H   0  0  0  0  0  0  0  0  0  0  0  0
   -2.4008   21.6027   34.7747 H   0  0  0  0  0  0  0  0  0  0  0  0
   -4.3060   21.7126   32.1191 H   0  0  0  0  0  0  0  0  0  0  0  0
   -4.3369   18.8268   31.8964 H   0  0  0  0  0  0  0  0  0  0  0  0
   -6.3356   20.8853   30.9370 H   0  0  0  0  0  0  0  0  0  0  0  0
   -6.4490   20.0022   32.4404 H   0  0  0  0  0  0  0  0  0  0  0  0
   -6.5890   19.1566   30.9178 H   0  0  0  0  0  0  0  0  0  0  0  0
   -2.5512   20.8243   30.3011 H   0  0  0  0  0  0  0  0  0  0  0  0
   -1.4777   20.2498   28.2532 H   0  0  0  0  0  0  0  0  0  0  0  0
   -2.9540   19.4299   27.7511 H   0  0  0  0  0  0  0  0  0  0  0  0
   -1.5590   21.2206   26.1080 H   0  0  0  0  0  0  0  0  0  0  0  0
   -2.5153   23.8568   26.3164 H   0  0  0  0  0  0  0  0  0  0  0  0
   -1.6584   22.4029   23.8425 H   0  0  0  0  0  0  0  0  0  0  0  0
   -0.6000   23.2594   24.9376 H   0  0  0  0  0  0  0  0  0  0  0  0
   -1.7917   24.1371   24.0089 H   0  0  0  0  0  0  0  0  0  0  0  0
   -3.9600   21.0427   24.6733 H   0  0  0  0  0  0  0  0  0  0  0  0
   -6.0484   22.6559   23.5147 H   0  0  0  0  0  0  0  0  0  0  0  0
   -5.8729   19.6745   23.8538 H   0  0  0  0  0  0  0  0  0  0  0  0
   -7.8711   21.2320   22.3039 H   0  0  0  0  0  0  0  0  0  0  0  0
   -8.1693   20.3285   23.7694 H   0  0  0  0  0  0  0  0  0  0  0  0
   -7.6885   19.4943   22.3113 H   0  0  0  0  0  0  0  0  0  0  0  0
   -5.4498   21.4557   21.4998 H   0  0  0  0  0  0  0  0  0  0  0  0
   -5.3573   19.7108   21.4964 H   0  0  0  0  0  0  0  0  0  0  0  0
   -4.1989   20.6453   22.4118 H   0  0  0  0  0  0  0  0  0  0  0  0
   -5.8917   20.4255   26.2849 H   0  0  0  0  0  0  0  0  0  0  0  0
   -8.5464   21.5031   27.0786 H   0  0  0  0  0  0  0  0  0  0  0  0
   -7.3260   21.0443   28.2419 H   0  0  0  0  0  0  0  0  0  0  0  0
   -8.1122   19.8218   27.2722 H   0  0  0  0  0  0  0  0  0  0  0  0
  1 27  1  0  0  0  0
  1 28  1  0  0  0  0
  1 29  1  0  0  0  0
  2  3  2  0  0  0  0
  2  1  1  0  0  0  0
  4  2  1  0  0  0  0
  4 30  1  0  0  0  0
  5  8  1  0  0  0  0
  5  4  1  0  0  0  0
  5 31  1  1  0  0  0
  6  5  1  0  0  0  0
  7  6  2  0  0  0  0
  8 32  1  0  0  0  0
  8 33  1  0  0  0  0
  8 34  1  0  0  0  0
  9  6  1  0  0  0  0
  9 35  1  0  0  0  0
 10  9  1  0  0  0  0
 10 36  1  0  0  0  0
 10 37  1  0  0  0  0
 11 12  2  0  0  0  0
 11 10  1  0  0  0  0
 13 11  1  0  0  0  0
 13 38  1  0  0  0  0
 14 13  1  0  0  0  0
 14 39  1  1  0  0  0
 15 14  1  0  0  0  0
 16 15  2  0  0  0  0
 17 14  1  0  0  0  0
 17 40  1  0  0  0  0
 17 41  1  0  0  0  0
 17 42  1  0  0  0  0
 18 15  1  0  0  0  0
 18 43  1  0  0  0  0
 19 18  1  0  0  0  0
 19 20  1  0  0  0  0
 19 44  1  6  0  0  0
 20 25  1  0  0  0  0
 21 20  2  0  0  0  0
 22 19  1  0  0  0  0
 22 45  1  0  0  0  0
 23 22  1  0  0  0  0
 23 46  1  0  0  0  0
 23 47  1  0  0  0  0
 23 48  1  0  0  0  0
 24 22  1  0  0  0  0
 24 49  1  0  0  0  0
 24 50  1  0  0  0  0
 24 51  1  0  0  0  0
 25 26  1  0  0  0  0
 25 52  1  0  0  0  0
 26 53  1  0  0  0  0
 26 54  1  0  0  0  0
 26 55  1  0  0  0  0
M  END
>  <MODEL>
       0

$$$$
selected_4mers/AGAV/496_noH.pdb
 OpenBabel03042518173D

 55 54  0  0  1  0  0  0  0  0999 V2000
   22.8430   10.3000   23.8140 C   0  0  0  0  0  0  0  0  0  0  0  0
   22.6100    9.8550   25.2550 C   0  0  0  0  0  0  0  0  0  0  0  0
   23.3950    9.0860   25.8080 O   0  0  0  0  0  0  0  0  0  0  0  0
   21.5340   10.3520   25.8590 N   0  0  0  0  0  0  0  0  0  0  0  0
   21.1930   10.0090   27.2370 C   0  0  2  0  0  0  0  0  0  0  0  0
   20.0900    8.9570   27.2780 C   0  0  0  0  0  0  0  0  0  0  0  0
   19.8980    8.2830   28.2900 O   0  0  0  0  0  0  0  0  0  0  0  0
   20.7520   11.2610   27.9990 C   0  0  0  0  0  0  0  0  0  0  0  0
   19.3650    8.8140   26.1750 N   0  0  0  0  0  0  0  0  0  0  0  0
   18.3030    7.8280   26.1350 C   0  0  0  0  0  0  0  0  0  0  0  0
   17.6030    7.7770   24.7960 C   0  0  0  0  0  0  0  0  0  0  0  0
   17.9020    8.5660   23.9030 O   0  0  0  0  0  0  0  0  0  0  0  0
   16.6800    6.8290   24.6570 N   0  0  0  0  0  0  0  0  0  0  0  0
   15.9140    6.6750   23.4300 C   0  0  2  0  0  0  0  0  0  0  0  0
   14.4930    6.2770   23.7980 C   0  0  0  0  0  0  0  0  0  0  0  0
   14.2460    5.7390   24.8780 O   0  0  0  0  0  0  0  0  0  0  0  0
   16.5450    5.6070   22.5310 C   0  0  0  0  0  0  0  0  0  0  0  0
   13.5600    6.5720   22.9030 N   0  0  0  0  0  0  0  0  0  0  0  0
   12.1590    6.2290   23.1000 C   0  0  2  0  0  0  0  0  0  0  0  0
   11.7910    5.3750   21.8910 C   0  0  0  0  0  0  0  0  0  0  0  0
   11.9420    5.8090   20.7470 O   0  0  0  0  0  0  0  0  0  0  0  0
   11.2750    7.4920   23.1600 C   0  0  0  0  0  0  0  0  0  0  0  0
    9.8200    7.1030   23.3530 C   0  0  0  0  0  0  0  0  0  0  0  0
   11.7330    8.3880   24.3050 C   0  0  0  0  0  0  0  0  0  0  0  0
   11.3350    4.1530   22.1550 N   0  0  0  0  0  0  0  0  0  0  0  0
   10.9810    3.1980   21.1060 C   0  0  0  0  0  0  0  0  0  0  0  0
   23.7316    9.8381   23.4373 H   0  0  0  0  0  0  0  0  0  0  0  0
   22.9533   11.3638   23.7826 H   0  0  0  0  0  0  0  0  0  0  0  0
   22.0075   10.0101   23.2117 H   0  0  0  0  0  0  0  0  0  0  0  0
   20.9500   10.9696   25.3622 H   0  0  0  0  0  0  0  0  0  0  0  0
   22.0645    9.6025   27.7062 H   0  0  0  0  0  0  0  0  0  0  0  0
   19.8804   11.6726   27.5346 H   0  0  0  0  0  0  0  0  0  0  0  0
   21.5402   11.9845   27.9828 H   0  0  0  0  0  0  0  0  0  0  0  0
   20.5272   11.0011   29.0123 H   0  0  0  0  0  0  0  0  0  0  0  0
   19.5479    9.3754   25.3872 H   0  0  0  0  0  0  0  0  0  0  0  0
   18.7224    6.8649   26.3387 H   0  0  0  0  0  0  0  0  0  0  0  0
   17.5759    8.1068   26.8689 H   0  0  0  0  0  0  0  0  0  0  0  0
   16.5104    6.2137   25.4066 H   0  0  0  0  0  0  0  0  0  0  0  0
   15.9095    7.5987   22.8900 H   0  0  0  0  0  0  0  0  0  0  0  0
   16.5621    4.6703   23.0480 H   0  0  0  0  0  0  0  0  0  0  0  0
   17.5449    5.8955   22.2823 H   0  0  0  0  0  0  0  0  0  0  0  0
   15.9687    5.5093   21.6348 H   0  0  0  0  0  0  0  0  0  0  0  0
   13.8237    7.0388   22.0773 H   0  0  0  0  0  0  0  0  0  0  0  0
   12.0048    5.7145   24.0254 H   0  0  0  0  0  0  0  0  0  0  0  0
   11.3681    8.0270   22.2380 H   0  0  0  0  0  0  0  0  0  0  0  0
    9.7132    6.5667   24.2727 H   0  0  0  0  0  0  0  0  0  0  0  0
    9.5058    6.4827   22.5398 H   0  0  0  0  0  0  0  0  0  0  0  0
    9.2157    7.9856   23.3825 H   0  0  0  0  0  0  0  0  0  0  0  0
   11.6423    7.8586   25.2304 H   0  0  0  0  0  0  0  0  0  0  0  0
   11.1236    9.2670   24.3357 H   0  0  0  0  0  0  0  0  0  0  0  0
   12.7546    8.6674   24.1526 H   0  0  0  0  0  0  0  0  0  0  0  0
   11.2318    3.8808   23.0955 H   0  0  0  0  0  0  0  0  0  0  0  0
   11.1486    3.6428   20.1474 H   0  0  0  0  0  0  0  0  0  0  0  0
    9.9490    2.9313   21.1999 H   0  0  0  0  0  0  0  0  0  0  0  0
   11.5863    2.3210   21.2030 H   0  0  0  0  0  0  0  0  0  0  0  0
  1  2  1  0  0  0  0
  1 27  1  0  0  0  0
  1 28  1  0  0  0  0
  1 29  1  0  0  0  0
  2  3  2  0  0  0  0
  2  4  1  0  0  0  0
  4  5  1  0  0  0  0
  4 30  1  0  0  0  0
  5  6  1  0  0  0  0
  5  8  1  0  0  0  0
  5 31  1  1  0  0  0
  6  7  2  0  0  0  0
  8 32  1  0  0  0  0
  8 33  1  0  0  0  0
  8 34  1  0  0  0  0
  9  6  1  0  0  0  0
  9 35  1  0  0  0  0
 10  9  1  0  0  0  0
 10 36  1  0  0  0  0
 10 37  1  0  0  0  0
 11 10  1  0  0  0  0
 12 11  2  0  0  0  0
 13 11  1  0  0  0  0
 13 38  1  0  0  0  0
 14 15  1  0  0  0  0
 14 13  1  0  0  0  0
 14 39  1  6  0  0  0
 15 16  2  0  0  0  0
 17 14  1  0  0  0  0
 17 40  1  0  0  0  0
 17 41  1  0  0  0  0
 17 42  1  0  0  0  0
 18 19  1  0  0  0  0
 18 15  1  0  0  0  0
 18 43  1  0  0  0  0
 19 22  1  0  0  0  0
 19 44  1  1  0  0  0
 20 25  1  0  0  0  0
 20 19  1  0  0  0  0
 21 20  2  0  0  0  0
 22 23  1  0  0  0  0
 22 24  1  0  0  0  0
 22 45  1  0  0  0  0
 23 46  1  0  0  0  0
 23 47  1  0  0  0  0
 23 48  1  0  0  0  0
 24 49  1  0  0  0  0
 24 50  1  0  0  0  0
 24 51  1  0  0  0  0
 25 52  1  0  0  0  0
 26 25  1  0  0  0  0
 26 53  1  0  0  0  0
 26 54  1  0  0  0  0
 26 55  1  0  0  0  0
M  END
>  <MODEL>
       0

$$$$
selected_4mers/AGAV/497_noH.pdb
 OpenBabel03042518173D

 55 54  0  0  1  0  0  0  0  0999 V2000
   23.4990   18.8580   21.6960 C   0  0  0  0  0  0  0  0  0  0  0  0
   22.3010   18.0760   21.2030 C   0  0  0  0  0  0  0  0  0  0  0  0
   22.3700   16.8560   21.0600 O   0  0  0  0  0  0  0  0  0  0  0  0
   21.2000   18.7770   20.9560 N   0  0  0  0  0  0  0  0  0  0  0  0
   19.9900   18.1410   20.4590 C   0  0  2  0  0  0  0  0  0  0  0  0
   19.3330   19.0460   19.4290 C   0  0  0  0  0  0  0  0  0  0  0  0
   19.3860   20.2740   19.5440 O   0  0  0  0  0  0  0  0  0  0  0  0
   19.0380   17.8400   21.5970 C   0  0  0  0  0  0  0  0  0  0  0  0
   18.7430   18.4350   18.4100 N   0  0  0  0  0  0  0  0  0  0  0  0
   18.1220   19.1790   17.3270 C   0  0  0  0  0  0  0  0  0  0  0  0
   16.8210   18.5370   16.8920 C   0  0  0  0  0  0  0  0  0  0  0  0
   16.6470   17.3210   17.0000 O   0  0  0  0  0  0  0  0  0  0  0  0
   15.9060   19.3650   16.4040 N   0  0  0  0  0  0  0  0  0  0  0  0
   14.6290   18.8800   15.9070 C   0  0  2  0  0  0  0  0  0  0  0  0
   14.1200   19.7270   14.7580 C   0  0  0  0  0  0  0  0  0  0  0  0
   14.3510   20.9360   14.6990 O   0  0  0  0  0  0  0  0  0  0  0  0
   13.5970   18.8390   17.0190 C   0  0  0  0  0  0  0  0  0  0  0  0
   13.4460   19.0640   13.8310 N   0  0  0  0  0  0  0  0  0  0  0  0
   12.7020   19.7430   12.7910 C   0  0  2  0  0  0  0  0  0  0  0  0
   11.3250   19.1110   12.7340 C   0  0  0  0  0  0  0  0  0  0  0  0
   11.1860   17.8930   12.8600 O   0  0  0  0  0  0  0  0  0  0  0  0
   13.3850   19.6200   11.4040 C   0  0  0  0  0  0  0  0  0  0  0  0
   12.5010   20.2090   10.3040 C   0  0  0  0  0  0  0  0  0  0  0  0
   14.7460   20.3080   11.4090 C   0  0  0  0  0  0  0  0  0  0  0  0
   10.3120   19.9590   12.5980 N   0  0  0  0  0  0  0  0  0  0  0  0
    8.9600   19.5020   12.2980 C   0  0  0  0  0  0  0  0  0  0  0  0
   23.2473   19.8963   21.7554 H   0  0  0  0  0  0  0  0  0  0  0  0
   24.3148   18.7270   21.0161 H   0  0  0  0  0  0  0  0  0  0  0  0
   23.7820   18.5036   22.6651 H   0  0  0  0  0  0  0  0  0  0  0  0
   21.2031   19.7489   21.1129 H   0  0  0  0  0  0  0  0  0  0  0  0
   20.2455   17.2112   19.9951 H   0  0  0  0  0  0  0  0  0  0  0  0
   18.7628   18.7528   22.0827 H   0  0  0  0  0  0  0  0  0  0  0  0
   19.5170   17.1918   22.3008 H   0  0  0  0  0  0  0  0  0  0  0  0
   18.1613   17.3626   21.2118 H   0  0  0  0  0  0  0  0  0  0  0  0
   18.7253   17.4509   18.3868 H   0  0  0  0  0  0  0  0  0  0  0  0
   17.9242   20.1769   17.6585 H   0  0  0  0  0  0  0  0  0  0  0  0
   18.7919   19.1824   16.4927 H   0  0  0  0  0  0  0  0  0  0  0  0
   16.0965   20.3305   16.3780 H   0  0  0  0  0  0  0  0  0  0  0  0
   14.7867   17.8860   15.5436 H   0  0  0  0  0  0  0  0  0  0  0  0
   13.4322   19.8292   17.3893 H   0  0  0  0  0  0  0  0  0  0  0  0
   13.9526   18.2159   17.8128 H   0  0  0  0  0  0  0  0  0  0  0  0
   12.6786   18.4429   16.6388 H   0  0  0  0  0  0  0  0  0  0  0  0
   13.4509   18.0797   13.8495 H   0  0  0  0  0  0  0  0  0  0  0  0
   12.6522   20.7866   13.0219 H   0  0  0  0  0  0  0  0  0  0  0  0
   13.5283   18.5792   11.2014 H   0  0  0  0  0  0  0  0  0  0  0  0
   12.3466   21.2513   10.4903 H   0  0  0  0  0  0  0  0  0  0  0  0
   11.5575   19.7045   10.2963 H   0  0  0  0  0  0  0  0  0  0  0  0
   12.9804   20.0834    9.3557 H   0  0  0  0  0  0  0  0  0  0  0  0
   14.6177   21.3510   11.6107 H   0  0  0  0  0  0  0  0  0  0  0  0
   15.2118   20.1841   10.4537 H   0  0  0  0  0  0  0  0  0  0  0  0
   15.3635   19.8716   12.1661 H   0  0  0  0  0  0  0  0  0  0  0  0
   10.4785   20.9236   12.7027 H   0  0  0  0  0  0  0  0  0  0  0  0
    8.9538   18.4351   12.2172 H   0  0  0  0  0  0  0  0  0  0  0  0
    8.6352   19.9316   11.3734 H   0  0  0  0  0  0  0  0  0  0  0  0
    8.2989   19.8041   13.0833 H   0  0  0  0  0  0  0  0  0  0  0  0
  1 27  1  0  0  0  0
  1 28  1  0  0  0  0
  1 29  1  0  0  0  0
  2  1  1  0  0  0  0
  3  2  2  0  0  0  0
  4  2  1  0  0  0  0
  4 30  1  0  0  0  0
  5  4  1  0  0  0  0
  5  8  1  0  0  0  0
  5 31  1  6  0  0  0
  6  7  2  0  0  0  0
  6  5  1  0  0  0  0
  8 32  1  0  0  0  0
  8 33  1  0  0  0  0
  8 34  1  0  0  0  0
  9  6  1  0  0  0  0
  9 35  1  0  0  0  0
 10  9  1  0  0  0  0
 10 36  1  0  0  0  0
 10 37  1  0  0  0  0
 11 12  2  0  0  0  0
 11 10  1  0  0  0  0
 13 11  1  0  0  0  0
 13 38  1  0  0  0  0
 14 13  1  0  0  0  0
 14 17  1  0  0  0  0
 14 39  1  6  0  0  0
 15 14  1  0  0  0  0
 16 15  2  0  0  0  0
 17 40  1  0  0  0  0
 17 41  1  0  0  0  0
 17 42  1  0  0  0  0
 18 15  1  0  0  0  0
 18 43  1  0  0  0  0
 19 18  1  0  0  0  0
 19 44  1  1  0  0  0
 20 19  1  0  0  0  0
 20 21  2  0  0  0  0
 22 24  1  0  0  0  0
 22 19  1  0  0  0  0
 22 45  1  0  0  0  0
 23 22  1  0  0  0  0
 23 46  1  0  0  0  0
 23 47  1  0  0  0  0
 23 48  1  0  0  0  0
 24 49  1  0  0  0  0
 24 50  1  0  0  0  0
 24 51  1  0  0  0  0
 25 20  1  0  0  0  0
 25 52  1  0  0  0  0
 26 25  1  0  0  0  0
 26 53  1  0  0  0  0
 26 54  1  0  0  0  0
 26 55  1  0  0  0  0
M  END
>  <MODEL>
       0

$$$$
selected_4mers/AGAV/498_noH.pdb
 OpenBabel03042518173D

 55 54  0  0  1  0  0  0  0  0999 V2000
   43.8270  -19.4830  107.1060 C   0  0  0  0  0  0  0  0  0  0  0  0
   43.0410  -20.5810  106.3970 C   0  0  0  0  0  0  0  0  0  0  0  0
   43.4400  -21.7460  106.4100 O   0  0  0  0  0  0  0  0  0  0  0  0
   41.9330  -20.1990  105.7670 N   0  0  0  0  0  0  0  0  0  0  0  0
   41.0950  -21.1490  105.0480 C   0  0  2  0  0  0  0  0  0  0  0  0
   41.7110  -21.5320  103.7040 C   0  0  0  0  0  0  0  0  0  0  0  0
   41.2840  -22.4970  103.0720 O   0  0  0  0  0  0  0  0  0  0  0  0
   39.6950  -20.5630  104.8420 C   0  0  0  0  0  0  0  0  0  0  0  0
   42.7080  -20.7700  103.2660 N   0  0  0  0  0  0  0  0  0  0  0  0
   43.3650  -21.0760  102.0070 C   0  0  0  0  0  0  0  0  0  0  0  0
   43.0380  -20.1770  100.8270 C   0  0  0  0  0  0  0  0  0  0  0  0
   43.3190  -20.5350   99.6840 O   0  0  0  0  0  0  0  0  0  0  0  0
   42.4440  -19.0200  101.0850 N   0  0  0  0  0  0  0  0  0  0  0  0
   42.1310  -18.1000   99.9900 C   0  0  2  0  0  0  0  0  0  0  0  0
   43.4490  -17.6460   99.3650 C   0  0  0  0  0  0  0  0  0  0  0  0
   44.4560  -17.5000  100.0670 O   0  0  0  0  0  0  0  0  0  0  0  0
   41.3600  -16.8960  100.5160 C   0  0  0  0  0  0  0  0  0  0  0  0
   43.4560  -17.4260   98.0520 N   0  0  0  0  0  0  0  0  0  0  0  0
   44.6760  -16.9810   97.3870 C   0  0  2  0  0  0  0  0  0  0  0  0
   44.8210  -15.4620   97.4190 C   0  0  0  0  0  0  0  0  0  0  0  0
   45.8890  -14.9240   97.1200 O   0  0  0  0  0  0  0  0  0  0  0  0
   44.7510  -17.4780   95.9260 C   0  0  0  0  0  0  0  0  0  0  0  0
   44.8740  -18.9880   95.9190 C   0  0  0  0  0  0  0  0  0  0  0  0
   43.5180  -17.0340   95.1350 C   0  0  0  0  0  0  0  0  0  0  0  0
   43.7400  -14.7840   97.7870 N   0  0  0  0  0  0  0  0  0  0  0  0
   43.7290  -13.3280   97.9000 C   0  0  0  0  0  0  0  0  0  0  0  0
   43.3235  -18.5471  106.9820 H   0  0  0  0  0  0  0  0  0  0  0  0
   44.8086  -19.4184  106.6851 H   0  0  0  0  0  0  0  0  0  0  0  0
   43.9004  -19.7132  108.1484 H   0  0  0  0  0  0  0  0  0  0  0  0
   41.6729  -19.2497  105.7874 H   0  0  0  0  0  0  0  0  0  0  0  0
   41.0218  -22.0381  105.6387 H   0  0  0  0  0  0  0  0  0  0  0  0
   39.7641  -19.6734  104.2515 H   0  0  0  0  0  0  0  0  0  0  0  0
   39.2635  -20.3276  105.7924 H   0  0  0  0  0  0  0  0  0  0  0  0
   39.0794  -21.2786  104.3382 H   0  0  0  0  0  0  0  0  0  0  0  0
   43.0025  -19.9950  103.7970 H   0  0  0  0  0  0  0  0  0  0  0  0
   44.4209  -21.0226  102.1716 H   0  0  0  0  0  0  0  0  0  0  0  0
   43.0024  -22.0439  101.7302 H   0  0  0  0  0  0  0  0  0  0  0  0
   42.2138  -18.7799  102.0116 H   0  0  0  0  0  0  0  0  0  0  0  0
   41.5219  -18.5902   99.2595 H   0  0  0  0  0  0  0  0  0  0  0  0
   41.9498  -16.3877  101.2500 H   0  0  0  0  0  0  0  0  0  0  0  0
   40.4440  -17.2254  100.9602 H   0  0  0  0  0  0  0  0  0  0  0  0
   41.1448  -16.2292   99.7073 H   0  0  0  0  0  0  0  0  0  0  0  0
   42.6344  -17.5642   97.5275 H   0  0  0  0  0  0  0  0  0  0  0  0
   45.4869  -17.4125   97.9359 H   0  0  0  0  0  0  0  0  0  0  0  0
   45.6106  -17.0498   95.4541 H   0  0  0  0  0  0  0  0  0  0  0  0
   44.0151  -19.4180   96.3905 H   0  0  0  0  0  0  0  0  0  0  0  0
   45.7556  -19.2765   96.4523 H   0  0  0  0  0  0  0  0  0  0  0  0
   44.9381  -19.3359   94.9092 H   0  0  0  0  0  0  0  0  0  0  0  0
   42.6388  -17.4473   95.5834 H   0  0  0  0  0  0  0  0  0  0  0  0
   43.5990  -17.3785   94.1252 H   0  0  0  0  0  0  0  0  0  0  0  0
   43.4544  -15.9659   95.1435 H   0  0  0  0  0  0  0  0  0  0  0  0
   42.9153  -15.2814   97.9912 H   0  0  0  0  0  0  0  0  0  0  0  0
   44.6946  -12.9432   97.6460 H   0  0  0  0  0  0  0  0  0  0  0  0
   43.4873  -13.0500   98.9046 H   0  0  0  0  0  0  0  0  0  0  0  0
   42.9971  -12.9240   97.2322 H   0  0  0  0  0  0  0  0  0  0  0  0
  1 27  1  0  0  0  0
  1 28  1  0  0  0  0
  1 29  1  0  0  0  0
  2  3  2  0  0  0  0
  2  1  1  0  0  0  0
  4  2  1  0  0  0  0
  4 30  1  0  0  0  0
  5  4  1  0  0  0  0
  5 31  1  1  0  0  0
  6  5  1  0  0  0  0
  7  6  2  0  0  0  0
  8  5  1  0  0  0  0
  8 32  1  0  0  0  0
  8 33  1  0  0  0  0
  8 34  1  0  0  0  0
  9  6  1  0  0  0  0
  9 35  1  0  0  0  0
 10  9  1  0  0  0  0
 10 36  1  0  0  0  0
 10 37  1  0  0  0  0
 11 13  1  0  0  0  0
 11 10  1  0  0  0  0
 12 11  2  0  0  0  0
 13 38  1  0  0  0  0
 14 17  1  0  0  0  0
 14 13  1  0  0  0  0
 14 39  1  6  0  0  0
 15 14  1  0  0  0  0
 15 16  2  0  0  0  0
 17 40  1  0  0  0  0
 17 41  1  0  0  0  0
 17 42  1  0  0  0  0
 18 15  1  0  0  0  0
 18 43  1  0  0  0  0
 19 20  1  0  0  0  0
 19 18  1  0  0  0  0
 19 44  1  1  0  0  0
 20 25  1  0  0  0  0
 21 20  2  0  0  0  0
 22 19  1  0  0  0  0
 22 45  1  0  0  0  0
 23 22  1  0  0  0  0
 23 46  1  0  0  0  0
 23 47  1  0  0  0  0
 23 48  1  0  0  0  0
 24 22  1  0  0  0  0
 24 49  1  0  0  0  0
 24 50  1  0  0  0  0
 24 51  1  0  0  0  0
 25 26  1  0  0  0  0
 25 52  1  0  0  0  0
 26 53  1  0  0  0  0
 26 54  1  0  0  0  0
 26 55  1  0  0  0  0
M  END
>  <MODEL>
       0

$$$$
selected_4mers/AGAV/499_noH.pdb
 OpenBabel03042518173D

 55 54  0  0  1  0  0  0  0  0999 V2000
    2.9500   41.9770   13.7330 C   0  0  0  0  0  0  0  0  0  0  0  0
    2.8130   42.9970   12.6260 C   0  0  0  0  0  0  0  0  0  0  0  0
    1.7040   43.3300   12.1910 O   0  0  0  0  0  0  0  0  0  0  0  0
    3.9350   43.5700   12.2390 N   0  0  0  0  0  0  0  0  0  0  0  0
    3.9810   44.6420   11.2830 C   0  0  2  0  0  0  0  0  0  0  0  0
    3.4340   44.1850    9.9390 C   0  0  0  0  0  0  0  0  0  0  0  0
    2.7140   44.9470    9.2730 O   0  0  0  0  0  0  0  0  0  0  0  0
    5.3910   45.1870   11.1280 C   0  0  0  0  0  0  0  0  0  0  0  0
    3.7920   42.9800    9.5250 N   0  0  0  0  0  0  0  0  0  0  0  0
    3.3250   42.4780    8.2370 C   0  0  0  0  0  0  0  0  0  0  0  0
    1.8090   42.4720    8.1520 C   0  0  0  0  0  0  0  0  0  0  0  0
    1.1930   42.7640    7.1320 O   0  0  0  0  0  0  0  0  0  0  0  0
    1.1680   42.1040    9.2750 N   0  0  0  0  0  0  0  0  0  0  0  0
   -0.2830   42.0380    9.3210 C   0  0  2  0  0  0  0  0  0  0  0  0
   -0.9010   43.4360    9.3300 C   0  0  0  0  0  0  0  0  0  0  0  0
   -1.9180   43.6690    8.6640 O   0  0  0  0  0  0  0  0  0  0  0  0
   -0.7590   41.2230   10.5190 C   0  0  0  0  0  0  0  0  0  0  0  0
   -0.3040   44.3800   10.0670 N   0  0  0  0  0  0  0  0  0  0  0  0
   -0.8050   45.7550   10.0850 C   0  0  2  0  0  0  0  0  0  0  0  0
   -0.6700   46.3740    8.7080 C   0  0  0  0  0  0  0  0  0  0  0  0
   -1.5750   47.0370    8.2170 O   0  0  0  0  0  0  0  0  0  0  0  0
   -0.1100   46.5810   11.1700 C   0  0  0  0  0  0  0  0  0  0  0  0
   -0.5700   48.0190   11.1190 C   0  0  0  0  0  0  0  0  0  0  0  0
   -0.3560   46.0320   12.5690 C   0  0  0  0  0  0  0  0  0  0  0  0
    0.4640   46.1470    8.0690 N   0  0  0  0  0  0  0  0  0  0  0  0
    0.6870   46.6430    6.7000 C   0  0  0  0  0  0  0  0  0  0  0  0
    1.9867   41.5756   13.9694 H   0  0  0  0  0  0  0  0  0  0  0  0
    3.3637   42.4462   14.6011 H   0  0  0  0  0  0  0  0  0  0  0  0
    3.5966   41.1871   13.4122 H   0  0  0  0  0  0  0  0  0  0  0  0
    4.7823   43.2482   12.6233 H   0  0  0  0  0  0  0  0  0  0  0  0
    3.3633   45.4340   11.6518 H   0  0  0  0  0  0  0  0  0  0  0  0
    6.0334   44.4147   10.7595 H   0  0  0  0  0  0  0  0  0  0  0  0
    5.7489   45.5256   12.0778 H   0  0  0  0  0  0  0  0  0  0  0  0
    5.3835   46.0044   10.4376 H   0  0  0  0  0  0  0  0  0  0  0  0
    4.3750   42.4208   10.0877 H   0  0  0  0  0  0  0  0  0  0  0  0
    3.7133   43.1028    7.4600 H   0  0  0  0  0  0  0  0  0  0  0  0
    3.6689   41.4707    8.1274 H   0  0  0  0  0  0  0  0  0  0  0  0
    1.6894   41.8758   10.0783 H   0  0  0  0  0  0  0  0  0  0  0  0
   -0.6127   41.5405    8.4329 H   0  0  0  0  0  0  0  0  0  0  0  0
   -0.4420   41.6994   11.4231 H   0  0  0  0  0  0  0  0  0  0  0  0
   -0.3420   40.2389   10.4693 H   0  0  0  0  0  0  0  0  0  0  0  0
   -1.8270   41.1589   10.5051 H   0  0  0  0  0  0  0  0  0  0  0  0
    0.4856   44.1456   10.6063 H   0  0  0  0  0  0  0  0  0  0  0  0
   -1.8456   45.7449   10.3340 H   0  0  0  0  0  0  0  0  0  0  0  0
    0.9393   46.5220   10.9693 H   0  0  0  0  0  0  0  0  0  0  0  0
   -1.6197   48.0650   11.3211 H   0  0  0  0  0  0  0  0  0  0  0  0
   -0.3760   48.4213   10.1467 H   0  0  0  0  0  0  0  0  0  0  0  0
   -0.0401   48.5892   11.8531 H   0  0  0  0  0  0  0  0  0  0  0  0
   -1.4012   46.0809   12.7926 H   0  0  0  0  0  0  0  0  0  0  0  0
    0.1889   46.6150   13.2818 H   0  0  0  0  0  0  0  0  0  0  0  0
   -0.0285   45.0144   12.6155 H   0  0  0  0  0  0  0  0  0  0  0  0
    1.1754   45.6352    8.5176 H   0  0  0  0  0  0  0  0  0  0  0  0
   -0.1804   47.1738    6.3673 H   0  0  0  0  0  0  0  0  0  0  0  0
    0.8715   45.8160    6.0466 H   0  0  0  0  0  0  0  0  0  0  0  0
    1.5319   47.2995    6.6917 H   0  0  0  0  0  0  0  0  0  0  0  0
  1 27  1  0  0  0  0
  1 28  1  0  0  0  0
  1 29  1  0  0  0  0
  2  1  1  0  0  0  0
  3  2  2  0  0  0  0
  4  2  1  0  0  0  0
  4 30  1  0  0  0  0
  5  4  1  0  0  0  0
  5 31  1  1  0  0  0
  6  5  1  0  0  0  0
  7  6  2  0  0  0  0
  8  5  1  0  0  0  0
  8 32  1  0  0  0  0
  8 33  1  0  0  0  0
  8 34  1  0  0  0  0
  9  6  1  0  0  0  0
  9 35  1  0  0  0  0
 10  9  1  0  0  0  0
 10 36  1  0  0  0  0
 10 37  1  0  0  0  0
 11 10  1  0  0  0  0
 11 13  1  0  0  0  0
 12 11  2  0  0  0  0
 13 14  1  0  0  0  0
 13 38  1  0  0  0  0
 14 15  1  0  0  0  0
 14 17  1  0  0  0  0
 14 39  1  6  0  0  0
 15 18  1  0  0  0  0
 16 15  2  0  0  0  0
 17 40  1  0  0  0  0
 17 41  1  0  0  0  0
 17 42  1  0  0  0  0
 18 19  1  0  0  0  0
 18 43  1  0  0  0  0
 19 22  1  0  0  0  0
 19 44  1  1  0  0  0
 20 19  1  0  0  0  0
 21 20  2  0  0  0  0
 22 24  1  0  0  0  0
 22 45  1  0  0  0  0
 23 22  1  0  0  0  0
 23 46  1  0  0  0  0
 23 47  1  0  0  0  0
 23 48  1  0  0  0  0
 24 49  1  0  0  0  0
 24 50  1  0  0  0  0
 24 51  1  0  0  0  0
 25 20  1  0  0  0  0
 25 52  1  0  0  0  0
 26 25  1  0  0  0  0
 26 53  1  0  0  0  0
 26 54  1  0  0  0  0
 26 55  1  0  0  0  0
M  END
>  <MODEL>
       0

$$$$
