selected_4mers/AGVA/510_noH.pdb
 OpenBabel03042518173D

 55 54  0  0  1  0  0  0  0  0999 V2000
  -11.5940  -18.2290  -14.7260 C   0  0  0  0  0  0  0  0  0  0  0  0
  -10.2540  -18.1940  -15.4750 C   0  0  0  0  0  0  0  0  0  0  0  0
   -9.1950  -18.1020  -14.8530 O   0  0  0  0  0  0  0  0  0  0  0  0
  -10.2950  -18.2150  -16.8050 N   0  0  0  0  0  0  0  0  0  0  0  0
   -9.0760  -18.0610  -17.5960 C   0  0  2  0  0  0  0  0  0  0  0  0
   -8.4750  -16.6810  -17.3660 C   0  0  0  0  0  0  0  0  0  0  0  0
   -7.2520  -16.5370  -17.2140 O   0  0  0  0  0  0  0  0  0  0  0  0
   -9.3660  -18.2650  -19.0790 C   0  0  0  0  0  0  0  0  0  0  0  0
   -9.3270  -15.6610  -17.3100 N   0  0  0  0  0  0  0  0  0  0  0  0
   -8.8420  -14.3000  -17.0470 C   0  0  0  0  0  0  0  0  0  0  0  0
   -8.1550  -14.1390  -15.6960 C   0  0  0  0  0  0  0  0  0  0  0  0
   -7.1300  -13.4530  -15.5790 O   0  0  0  0  0  0  0  0  0  0  0  0
   -8.7440  -14.7390  -14.6630 N   0  0  0  0  0  0  0  0  0  0  0  0
   -8.1770  -14.6740  -13.3240 C   0  0  2  0  0  0  0  0  0  0  0  0
   -6.8410  -15.4290  -13.3040 C   0  0  0  0  0  0  0  0  0  0  0  0
   -5.8550  -14.9490  -12.7210 O   0  0  0  0  0  0  0  0  0  0  0  0
   -9.1550  -15.1930  -12.2320 C   0  0  0  0  0  0  0  0  0  0  0  0
   -8.4300  -15.3650  -10.8920 C   0  0  0  0  0  0  0  0  0  0  0  0
  -10.3160  -14.2240  -12.0500 C   0  0  0  0  0  0  0  0  0  0  0  0
   -6.7850  -16.5940  -13.9550 N   0  0  0  0  0  0  0  0  0  0  0  0
   -5.5190  -17.3350  -14.0440 C   0  0  2  0  0  0  0  0  0  0  0  0
   -4.4300  -16.5250  -14.7490 C   0  0  0  0  0  0  0  0  0  0  0  0
   -3.2660  -16.5200  -14.3080 O   0  0  0  0  0  0  0  0  0  0  0  0
   -5.7080  -18.6900  -14.7300 C   0  0  0  0  0  0  0  0  0  0  0  0
   -4.7930  -15.8650  -15.8490 N   0  0  0  0  0  0  0  0  0  0  0  0
   -3.8330  -15.0480  -16.5870 C   0  0  0  0  0  0  0  0  0  0  0  0
  -12.3947  -18.3110  -15.4311 H   0  0  0  0  0  0  0  0  0  0  0  0
  -11.7091  -17.3291  -14.1587 H   0  0  0  0  0  0  0  0  0  0  0  0
  -11.6120  -19.0713  -14.0663 H   0  0  0  0  0  0  0  0  0  0  0  0
  -11.1584  -18.3359  -17.2623 H   0  0  0  0  0  0  0  0  0  0  0  0
   -8.3736  -18.8052  -17.2834 H   0  0  0  0  0  0  0  0  0  0  0  0
  -10.0679  -17.5283  -19.4098 H   0  0  0  0  0  0  0  0  0  0  0  0
   -9.7756  -19.2417  -19.2313 H   0  0  0  0  0  0  0  0  0  0  0  0
   -8.4579  -18.1682  -19.6366 H   0  0  0  0  0  0  0  0  0  0  0  0
  -10.2891  -15.8195  -17.4458 H   0  0  0  0  0  0  0  0  0  0  0  0
   -9.6773  -13.6322  -17.0818 H   0  0  0  0  0  0  0  0  0  0  0  0
   -8.1095  -14.0814  -17.7957 H   0  0  0  0  0  0  0  0  0  0  0  0
   -9.5807  -15.2371  -14.8082 H   0  0  0  0  0  0  0  0  0  0  0  0
   -8.0024  -13.6464  -13.0823 H   0  0  0  0  0  0  0  0  0  0  0  0
   -9.5305  -16.1417  -12.5541 H   0  0  0  0  0  0  0  0  0  0  0  0
   -8.0529  -14.4181  -10.5664 H   0  0  0  0  0  0  0  0  0  0  0  0
   -7.6173  -16.0506  -11.0116 H   0  0  0  0  0  0  0  0  0  0  0  0
   -9.1139  -15.7464  -10.1628 H   0  0  0  0  0  0  0  0  0  0  0  0
   -9.9413  -13.2749  -11.7278 H   0  0  0  0  0  0  0  0  0  0  0  0
  -10.9904  -14.6096  -11.3142 H   0  0  0  0  0  0  0  0  0  0  0  0
  -10.8319  -14.1067  -12.9801 H   0  0  0  0  0  0  0  0  0  0  0  0
   -7.5962  -16.9582  -14.3775 H   0  0  0  0  0  0  0  0  0  0  0  0
   -5.1959  -17.5108  -13.0392 H   0  0  0  0  0  0  0  0  0  0  0  0
   -6.0317  -18.5372  -15.7383 H   0  0  0  0  0  0  0  0  0  0  0  0
   -6.4446  -19.2579  -14.2011 H   0  0  0  0  0  0  0  0  0  0  0  0
   -4.7798  -19.2222  -14.7302 H   0  0  0  0  0  0  0  0  0  0  0  0
   -5.7219  -15.9292  -16.1687 H   0  0  0  0  0  0  0  0  0  0  0  0
   -2.8801  -15.0922  -16.1023 H   0  0  0  0  0  0  0  0  0  0  0  0
   -4.1733  -14.0339  -16.6129 H   0  0  0  0  0  0  0  0  0  0  0  0
   -3.7425  -15.4194  -17.5864 H   0  0  0  0  0  0  0  0  0  0  0  0
  1 27  1  0  0  0  0
  1 28  1  0  0  0  0
  1 29  1  0  0  0  0
  2  3  2  0  0  0  0
  2  1  1  0  0  0  0
  4  2  1  0  0  0  0
  4 30  1  0  0  0  0
  5  6  1  0  0  0  0
  5  4  1  0  0  0  0
  5 31  1  1  0  0  0
  6  9  1  0  0  0  0
  6  7  2  0  0  0  0
  8  5  1  0  0  0  0
  8 32  1  0  0  0  0
  8 33  1  0  0  0  0
  8 34  1  0  0  0  0
  9 10  1  0  0  0  0
  9 35  1  0  0  0  0
 10 11  1  0  0  0  0
 10 36  1  0  0  0  0
 10 37  1  0  0  0  0
 11 12  2  0  0  0  0
 11 13  1  0  0  0  0
 13 14  1  0  0  0  0
 13 38  1  0  0  0  0
 14 15  1  0  0  0  0
 14 17  1  0  0  0  0
 14 39  1  1  0  0  0
 15 16  2  0  0  0  0
 17 19  1  0  0  0  0
 17 18  1  0  0  0  0
 17 40  1  0  0  0  0
 18 41  1  0  0  0  0
 18 42  1  0  0  0  0
 18 43  1  0  0  0  0
 19 44  1  0  0  0  0
 19 45  1  0  0  0  0
 19 46  1  0  0  0  0
 20 15  1  0  0  0  0
 20 47  1  0  0  0  0
 21 20  1  0  0  0  0
 21 48  1  1  0  0  0
 22 23  2  0  0  0  0
 22 21  1  0  0  0  0
 24 21  1  0  0  0  0
 24 49  1  0  0  0  0
 24 50  1  0  0  0  0
 24 51  1  0  0  0  0
 25 22  1  0  0  0  0
 25 52  1  0  0  0  0
 26 25  1  0  0  0  0
 26 53  1  0  0  0  0
 26 54  1  0  0  0  0
 26 55  1  0  0  0  0
M  END
>  <MODEL>
       0

$$$$
selected_4mers/AGVA/511_noH.pdb
 OpenBabel03042518173D

 55 54  0  0  1  0  0  0  0  0999 V2000
   -6.9150   22.3970   16.1670 C   0  0  0  0  0  0  0  0  0  0  0  0
   -8.2970   22.8440   16.6660 C   0  0  0  0  0  0  0  0  0  0  0  0
   -9.1930   23.1020   15.8640 O   0  0  0  0  0  0  0  0  0  0  0  0
   -8.4410   22.9580   17.9850 N   0  0  0  0  0  0  0  0  0  0  0  0
   -9.6640   23.4440   18.6020 C   0  0  2  0  0  0  0  0  0  0  0  0
   -9.6290   24.9680   18.7700 C   0  0  0  0  0  0  0  0  0  0  0  0
  -10.5980   25.5560   19.2560 O   0  0  0  0  0  0  0  0  0  0  0  0
   -9.8670   22.7570   19.9410 C   0  0  0  0  0  0  0  0  0  0  0  0
   -8.5160   25.5820   18.3770 N   0  0  0  0  0  0  0  0  0  0  0  0
   -8.3750   27.0490   18.4060 C   0  0  0  0  0  0  0  0  0  0  0  0
   -7.7980   27.5850   19.7020 C   0  0  0  0  0  0  0  0  0  0  0  0
   -7.7460   28.8010   19.8950 O   0  0  0  0  0  0  0  0  0  0  0  0
   -7.3570   26.7020   20.5880 N   0  0  0  0  0  0  0  0  0  0  0  0
   -6.7190   27.1290   21.8540 C   0  0  2  0  0  0  0  0  0  0  0  0
   -5.2840   27.5440   21.5700 C   0  0  0  0  0  0  0  0  0  0  0  0
   -4.5160   26.7510   21.0380 O   0  0  0  0  0  0  0  0  0  0  0  0
   -6.7460   25.9920   22.8990 C   0  0  0  0  0  0  0  0  0  0  0  0
   -5.9540   26.3670   24.1400 C   0  0  0  0  0  0  0  0  0  0  0  0
   -8.2070   25.6620   23.2840 C   0  0  0  0  0  0  0  0  0  0  0  0
   -4.9240   28.7760   21.9390 N   0  0  0  0  0  0  0  0  0  0  0  0
   -3.5840   29.3090   21.6950 C   0  0  2  0  0  0  0  0  0  0  0  0
   -2.9340   29.6830   23.0250 C   0  0  0  0  0  0  0  0  0  0  0  0
   -3.5600   30.3470   23.8550 O   0  0  0  0  0  0  0  0  0  0  0  0
   -3.6610   30.5410   20.7830 C   0  0  0  0  0  0  0  0  0  0  0  0
   -1.6690   29.3020   23.1850 N   0  0  0  0  0  0  0  0  0  0  0  0
   -0.9800   29.3960   24.4690 C   0  0  0  0  0  0  0  0  0  0  0  0
   -6.9222   22.3423   15.0984 H   0  0  0  0  0  0  0  0  0  0  0  0
   -6.6840   21.4339   16.5719 H   0  0  0  0  0  0  0  0  0  0  0  0
   -6.1760   23.1034   16.4830 H   0  0  0  0  0  0  0  0  0  0  0  0
   -7.6883   22.7027   18.5659 H   0  0  0  0  0  0  0  0  0  0  0  0
  -10.4890   23.2103   17.9620 H   0  0  0  0  0  0  0  0  0  0  0  0
   -9.0456   22.9858   20.5874 H   0  0  0  0  0  0  0  0  0  0  0  0
   -9.9212   21.6985   19.7942 H   0  0  0  0  0  0  0  0  0  0  0  0
  -10.7772   23.1026   20.3848 H   0  0  0  0  0  0  0  0  0  0  0  0
   -7.7609   25.0380   18.0559 H   0  0  0  0  0  0  0  0  0  0  0  0
   -9.3423   27.4834   18.2627 H   0  0  0  0  0  0  0  0  0  0  0  0
   -7.6881   27.3106   17.6284 H   0  0  0  0  0  0  0  0  0  0  0  0
   -7.4561   25.7408   20.3996 H   0  0  0  0  0  0  0  0  0  0  0  0
   -7.2646   27.9569   22.2563 H   0  0  0  0  0  0  0  0  0  0  0  0
   -6.2903   25.1281   22.4621 H   0  0  0  0  0  0  0  0  0  0  0  0
   -6.3921   27.2306   24.5952 H   0  0  0  0  0  0  0  0  0  0  0  0
   -4.9425   26.5827   23.8659 H   0  0  0  0  0  0  0  0  0  0  0  0
   -5.9697   25.5518   24.8329 H   0  0  0  0  0  0  0  0  0  0  0  0
   -8.6643   26.5250   23.7212 H   0  0  0  0  0  0  0  0  0  0  0  0
   -8.2170   24.8573   23.9891 H   0  0  0  0  0  0  0  0  0  0  0  0
   -8.7506   25.3754   22.4081 H   0  0  0  0  0  0  0  0  0  0  0  0
   -5.5856   29.3470   22.3924 H   0  0  0  0  0  0  0  0  0  0  0  0
   -2.9924   28.5613   21.2095 H   0  0  0  0  0  0  0  0  0  0  0  0
   -4.2504   31.2985   21.2559 H   0  0  0  0  0  0  0  0  0  0  0  0
   -4.1117   30.2678   19.8518 H   0  0  0  0  0  0  0  0  0  0  0  0
   -2.6745   30.9156   20.6055 H   0  0  0  0  0  0  0  0  0  0  0  0
   -1.1799   28.9437   22.4094 H   0  0  0  0  0  0  0  0  0  0  0  0
   -1.6454   29.8022   25.2019 H   0  0  0  0  0  0  0  0  0  0  0  0
   -0.1264   30.0335   24.3699 H   0  0  0  0  0  0  0  0  0  0  0  0
   -0.6634   28.4211   24.7761 H   0  0  0  0  0  0  0  0  0  0  0  0
  1  2  1  0  0  0  0
  1 27  1  0  0  0  0
  1 28  1  0  0  0  0
  1 29  1  0  0  0  0
  2  4  1  0  0  0  0
  3  2  2  0  0  0  0
  4  5  1  0  0  0  0
  4 30  1  0  0  0  0
  5  6  1  0  0  0  0
  5  8  1  0  0  0  0
  5 31  1  6  0  0  0
  6  7  2  0  0  0  0
  8 32  1  0  0  0  0
  8 33  1  0  0  0  0
  8 34  1  0  0  0  0
  9 10  1  0  0  0  0
  9  6  1  0  0  0  0
  9 35  1  0  0  0  0
 10 11  1  0  0  0  0
 10 36  1  0  0  0  0
 10 37  1  0  0  0  0
 11 12  2  0  0  0  0
 11 13  1  0  0  0  0
 13 14  1  0  0  0  0
 13 38  1  0  0  0  0
 14 17  1  0  0  0  0
 14 39  1  1  0  0  0
 15 14  1  0  0  0  0
 15 20  1  0  0  0  0
 16 15  2  0  0  0  0
 17 19  1  0  0  0  0
 17 18  1  0  0  0  0
 17 40  1  0  0  0  0
 18 41  1  0  0  0  0
 18 42  1  0  0  0  0
 18 43  1  0  0  0  0
 19 44  1  0  0  0  0
 19 45  1  0  0  0  0
 19 46  1  0  0  0  0
 20 47  1  0  0  0  0
 21 20  1  0  0  0  0
 21 22  1  0  0  0  0
 21 48  1  6  0  0  0
 22 25  1  0  0  0  0
 22 23  2  0  0  0  0
 24 21  1  0  0  0  0
 24 49  1  0  0  0  0
 24 50  1  0  0  0  0
 24 51  1  0  0  0  0
 25 26  1  0  0  0  0
 25 52  1  0  0  0  0
 26 53  1  0  0  0  0
 26 54  1  0  0  0  0
 26 55  1  0  0  0  0
M  END
>  <MODEL>
       0

$$$$
selected_4mers/AGVA/512_noH.pdb
 OpenBabel03042518173D

 55 54  0  0  1  0  0  0  0  0999 V2000
    5.0060  -15.4140    3.0860 C   0  0  0  0  0  0  0  0  0  0  0  0
    4.8310  -15.1470    1.5990 C   0  0  0  0  0  0  0  0  0  0  0  0
    3.7390  -15.3400    1.0580 O   0  0  0  0  0  0  0  0  0  0  0  0
    5.8990  -14.7030    0.9440 N   0  0  0  0  0  0  0  0  0  0  0  0
    5.8910  -14.4490   -0.4960 C   0  0  2  0  0  0  0  0  0  0  0  0
    6.2020  -15.7280   -1.2810 C   0  0  0  0  0  0  0  0  0  0  0  0
    7.2270  -15.8360   -1.9580 O   0  0  0  0  0  0  0  0  0  0  0  0
    6.8930  -13.3570   -0.8430 C   0  0  0  0  0  0  0  0  0  0  0  0
    5.2920  -16.6850   -1.1970 N   0  0  0  0  0  0  0  0  0  0  0  0
    5.4430  -17.9540   -1.8850 C   0  0  0  0  0  0  0  0  0  0  0  0
    4.4670  -18.9150   -1.2470 C   0  0  0  0  0  0  0  0  0  0  0  0
    3.8150  -18.5760   -0.2620 O   0  0  0  0  0  0  0  0  0  0  0  0
    4.3680  -20.1190   -1.7900 N   0  0  0  0  0  0  0  0  0  0  0  0
    3.4350  -21.0840   -1.2450 C   0  0  2  0  0  0  0  0  0  0  0  0
    4.0950  -22.4490   -1.2260 C   0  0  0  0  0  0  0  0  0  0  0  0
    4.8640  -22.7830   -2.1200 O   0  0  0  0  0  0  0  0  0  0  0  0
    2.1370  -21.1300   -2.0800 C   0  0  0  0  0  0  0  0  0  0  0  0
    2.4440  -21.4830   -3.5330 C   0  0  0  0  0  0  0  0  0  0  0  0
    1.1650  -22.1160   -1.4880 C   0  0  0  0  0  0  0  0  0  0  0  0
    3.8160  -23.2200   -0.1850 N   0  0  0  0  0  0  0  0  0  0  0  0
    4.3110  -24.5860   -0.0890 C   0  0  2  0  0  0  0  0  0  0  0  0
    3.8360  -25.3750   -1.3000 C   0  0  0  0  0  0  0  0  0  0  0  0
    2.6620  -25.2950   -1.6790 O   0  0  0  0  0  0  0  0  0  0  0  0
    3.8100  -25.2340    1.1890 C   0  0  0  0  0  0  0  0  0  0  0  0
    4.7480  -26.1440   -1.8880 N   0  0  0  0  0  0  0  0  0  0  0  0
    4.4910  -26.8440   -3.1470 C   0  0  0  0  0  0  0  0  0  0  0  0
    6.0125  -15.1909    3.3724 H   0  0  0  0  0  0  0  0  0  0  0  0
    4.7967  -16.4432    3.2906 H   0  0  0  0  0  0  0  0  0  0  0  0
    4.3319  -14.7957    3.6411 H   0  0  0  0  0  0  0  0  0  0  0  0
    6.7283  -14.5386    1.4484 H   0  0  0  0  0  0  0  0  0  0  0  0
    4.9111  -14.1202   -0.7726 H   0  0  0  0  0  0  0  0  0  0  0  0
    7.8772  -13.6762   -0.5701 H   0  0  0  0  0  0  0  0  0  0  0  0
    6.6466  -12.4637   -0.3080 H   0  0  0  0  0  0  0  0  0  0  0  0
    6.8596  -13.1635   -1.8948 H   0  0  0  0  0  0  0  0  0  0  0  0
    4.4874  -16.5314   -0.6508 H   0  0  0  0  0  0  0  0  0  0  0  0
    5.2195  -17.8381   -2.9250 H   0  0  0  0  0  0  0  0  0  0  0  0
    6.4465  -18.3168   -1.8058 H   0  0  0  0  0  0  0  0  0  0  0  0
    4.9281  -20.3580   -2.5635 H   0  0  0  0  0  0  0  0  0  0  0  0
    3.1723  -20.7935   -0.2493 H   0  0  0  0  0  0  0  0  0  0  0  0
    1.6877  -20.1591   -2.0596 H   0  0  0  0  0  0  0  0  0  0  0  0
    2.8949  -22.4523   -3.5769 H   0  0  0  0  0  0  0  0  0  0  0  0
    3.1164  -20.7580   -3.9418 H   0  0  0  0  0  0  0  0  0  0  0  0
    1.5359  -21.4861   -4.0988 H   0  0  0  0  0  0  0  0  0  0  0  0
    1.5978  -23.0945   -1.4999 H   0  0  0  0  0  0  0  0  0  0  0  0
    0.2633  -22.1178   -2.0641 H   0  0  0  0  0  0  0  0  0  0  0  0
    0.9432  -21.8364   -0.4793 H   0  0  0  0  0  0  0  0  0  0  0  0
    3.2593  -22.8597    0.5427 H   0  0  0  0  0  0  0  0  0  0  0  0
    5.3807  -24.5780   -0.0672 H   0  0  0  0  0  0  0  0  0  0  0  0
    2.7401  -25.2508    1.1847 H   0  0  0  0  0  0  0  0  0  0  0  0
    4.1545  -24.6727    2.0323 H   0  0  0  0  0  0  0  0  0  0  0  0
    4.1822  -26.2353    1.2508 H   0  0  0  0  0  0  0  0  0  0  0  0
    5.6288  -26.2461   -1.4603 H   0  0  0  0  0  0  0  0  0  0  0  0
    3.4959  -26.6303   -3.4772 H   0  0  0  0  0  0  0  0  0  0  0  0
    4.5985  -27.8980   -2.9974 H   0  0  0  0  0  0  0  0  0  0  0  0
    5.1907  -26.5156   -3.8870 H   0  0  0  0  0  0  0  0  0  0  0  0
  1 27  1  0  0  0  0
  1 28  1  0  0  0  0
  1 29  1  0  0  0  0
  2  1  1  0  0  0  0
  3  2  2  0  0  0  0
  4  2  1  0  0  0  0
  4 30  1  0  0  0  0
  5  4  1  0  0  0  0
  5 31  1  6  0  0  0
  6  9  1  0  0  0  0
  6  5  1  0  0  0  0
  7  6  2  0  0  0  0
  8  5  1  0  0  0  0
  8 32  1  0  0  0  0
  8 33  1  0  0  0  0
  8 34  1  0  0  0  0
  9 35  1  0  0  0  0
 10 11  1  0  0  0  0
 10  9  1  0  0  0  0
 10 36  1  0  0  0  0
 10 37  1  0  0  0  0
 11 12  2  0  0  0  0
 13 11  1  0  0  0  0
 13 14  1  0  0  0  0
 13 38  1  0  0  0  0
 14 15  1  0  0  0  0
 14 39  1  1  0  0  0
 15 20  1  0  0  0  0
 16 15  2  0  0  0  0
 17 19  1  0  0  0  0
 17 14  1  0  0  0  0
 17 40  1  0  0  0  0
 18 17  1  0  0  0  0
 18 41  1  0  0  0  0
 18 42  1  0  0  0  0
 18 43  1  0  0  0  0
 19 44  1  0  0  0  0
 19 45  1  0  0  0  0
 19 46  1  0  0  0  0
 20 21  1  0  0  0  0
 20 47  1  0  0  0  0
 21 24  1  0  0  0  0
 21 48  1  1  0  0  0
 22 21  1  0  0  0  0
 23 22  2  0  0  0  0
 24 49  1  0  0  0  0
 24 50  1  0  0  0  0
 24 51  1  0  0  0  0
 25 22  1  0  0  0  0
 25 52  1  0  0  0  0
 26 25  1  0  0  0  0
 26 53  1  0  0  0  0
 26 54  1  0  0  0  0
 26 55  1  0  0  0  0
M  END
>  <MODEL>
       0

$$$$
selected_4mers/AGVA/513_noH.pdb
 OpenBabel03042518173D

 55 54  0  0  1  0  0  0  0  0999 V2000
   42.6080   10.7210   57.6510 C   0  0  0  0  0  0  0  0  0  0  0  0
   43.2970   11.3680   58.8730 C   0  0  0  0  0  0  0  0  0  0  0  0
   44.0550   10.6640   59.6090 O   0  0  0  0  0  0  0  0  0  0  0  0
   43.0830   12.6560   59.1290 N   0  0  0  0  0  0  0  0  0  0  0  0
   43.8150   13.2510   60.2090 C   0  0  2  0  0  0  0  0  0  0  0  0
   42.8950   13.9410   61.1850 C   0  0  0  0  0  0  0  0  0  0  0  0
   42.4270   15.0270   60.8930 O   0  0  0  0  0  0  0  0  0  0  0  0
   44.8690   14.2400   59.6540 C   0  0  0  0  0  0  0  0  0  0  0  0
   42.6960   13.3350   62.3660 N   0  0  0  0  0  0  0  0  0  0  0  0
   41.9390   13.9650   63.4570 C   0  0  0  0  0  0  0  0  0  0  0  0
   40.4560   14.0730   63.2030 C   0  0  0  0  0  0  0  0  0  0  0  0
   39.7970   14.9080   63.8000 O   0  0  0  0  0  0  0  0  0  0  0  0
   39.9140   13.1790   62.3600 N   0  0  0  0  0  0  0  0  0  0  0  0
   38.4670   13.2030   61.9890 C   0  0  2  0  0  0  0  0  0  0  0  0
   37.5990   12.3080   62.8590 C   0  0  0  0  0  0  0  0  0  0  0  0
   36.3890   12.3170   62.7180 O   0  0  0  0  0  0  0  0  0  0  0  0
   38.1910   12.8940   60.4560 C   0  0  0  0  0  0  0  0  0  0  0  0
   38.9320   13.9750   59.6230 C   0  0  0  0  0  0  0  0  0  0  0  0
   38.6340   11.4550   60.0630 C   0  0  0  0  0  0  0  0  0  0  0  0
   38.2440   11.5450   63.7200 N   0  0  0  0  0  0  0  0  0  0  0  0
   37.5990   10.7410   64.7540 C   0  0  2  0  0  0  0  0  0  0  0  0
   36.7510    9.5960   64.2250 C   0  0  0  0  0  0  0  0  0  0  0  0
   36.8600    9.2010   63.0830 O   0  0  0  0  0  0  0  0  0  0  0  0
   36.8280   11.5960   65.8160 C   0  0  0  0  0  0  0  0  0  0  0  0
   36.0060    8.9890   65.1170 N   0  0  0  0  0  0  0  0  0  0  0  0
   35.6200    7.5910   64.9240 C   0  0  0  0  0  0  0  0  0  0  0  0
   42.0115   11.4536   57.1486 H   0  0  0  0  0  0  0  0  0  0  0  0
   41.9836    9.9161   57.9783 H   0  0  0  0  0  0  0  0  0  0  0  0
   43.3517   10.3452   56.9797 H   0  0  0  0  0  0  0  0  0  0  0  0
   42.4444   13.1822   58.5956 H   0  0  0  0  0  0  0  0  0  0  0  0
   44.3184   12.4709   60.7409 H   0  0  0  0  0  0  0  0  0  0  0  0
   44.3753   15.0247   59.1198 H   0  0  0  0  0  0  0  0  0  0  0  0
   45.5320   13.7212   58.9935 H   0  0  0  0  0  0  0  0  0  0  0  0
   45.4282   14.6576   60.4651 H   0  0  0  0  0  0  0  0  0  0  0  0
   43.0708   12.4356   62.5066 H   0  0  0  0  0  0  0  0  0  0  0  0
   42.3258   14.9513   63.6071 H   0  0  0  0  0  0  0  0  0  0  0  0
   42.0576   13.3363   64.3147 H   0  0  0  0  0  0  0  0  0  0  0  0
   40.4914   12.4822   61.9723 H   0  0  0  0  0  0  0  0  0  0  0  0
   38.1828   14.2181   62.1729 H   0  0  0  0  0  0  0  0  0  0  0  0
   37.1402   12.9322   60.2579 H   0  0  0  0  0  0  0  0  0  0  0  0
   39.9809   13.9272   59.8291 H   0  0  0  0  0  0  0  0  0  0  0  0
   38.5608   14.9437   59.8850 H   0  0  0  0  0  0  0  0  0  0  0  0
   38.7649   13.7989   58.5809 H   0  0  0  0  0  0  0  0  0  0  0  0
   39.6840   11.3451   60.2369 H   0  0  0  0  0  0  0  0  0  0  0  0
   38.4246   11.2878   59.0271 H   0  0  0  0  0  0  0  0  0  0  0  0
   38.0979   10.7427   60.6547 H   0  0  0  0  0  0  0  0  0  0  0  0
   39.2263   11.5156   63.6615 H   0  0  0  0  0  0  0  0  0  0  0  0
   38.4185   10.2787   65.2635 H   0  0  0  0  0  0  0  0  0  0  0  0
   35.9956   12.0792   65.3486 H   0  0  0  0  0  0  0  0  0  0  0  0
   37.4856   12.3345   66.2249 H   0  0  0  0  0  0  0  0  0  0  0  0
   36.4762   10.9584   66.5999 H   0  0  0  0  0  0  0  0  0  0  0  0
   35.7056    9.4751   65.9187 H   0  0  0  0  0  0  0  0  0  0  0  0
   36.0342    7.2301   64.0058 H   0  0  0  0  0  0  0  0  0  0  0  0
   34.5532    7.5173   64.8873 H   0  0  0  0  0  0  0  0  0  0  0  0
   35.9903    7.0031   65.7377 H   0  0  0  0  0  0  0  0  0  0  0  0
  1  2  1  0  0  0  0
  1 27  1  0  0  0  0
  1 28  1  0  0  0  0
  1 29  1  0  0  0  0
  2  4  1  0  0  0  0
  2  3  2  0  0  0  0
  4  5  1  0  0  0  0
  4 30  1  0  0  0  0
  5  6  1  0  0  0  0
  5 31  1  1  0  0  0
  6  9  1  0  0  0  0
  7  6  2  0  0  0  0
  8  5  1  0  0  0  0
  8 32  1  0  0  0  0
  8 33  1  0  0  0  0
  8 34  1  0  0  0  0
  9 10  1  0  0  0  0
  9 35  1  0  0  0  0
 10 36  1  0  0  0  0
 10 37  1  0  0  0  0
 11 10  1  0  0  0  0
 11 12  2  0  0  0  0
 13 11  1  0  0  0  0
 13 38  1  0  0  0  0
 14 13  1  0  0  0  0
 14 15  1  0  0  0  0
 14 39  1  1  0  0  0
 15 20  1  0  0  0  0
 16 15  2  0  0  0  0
 17 14  1  0  0  0  0
 17 40  1  0  0  0  0
 18 17  1  0  0  0  0
 18 41  1  0  0  0  0
 18 42  1  0  0  0  0
 18 43  1  0  0  0  0
 19 17  1  0  0  0  0
 19 44  1  0  0  0  0
 19 45  1  0  0  0  0
 19 46  1  0  0  0  0
 20 21  1  0  0  0  0
 20 47  1  0  0  0  0
 21 24  1  0  0  0  0
 21 48  1  1  0  0  0
 22 21  1  0  0  0  0
 22 25  1  0  0  0  0
 23 22  2  0  0  0  0
 24 49  1  0  0  0  0
 24 50  1  0  0  0  0
 24 51  1  0  0  0  0
 25 52  1  0  0  0  0
 26 25  1  0  0  0  0
 26 53  1  0  0  0  0
 26 54  1  0  0  0  0
 26 55  1  0  0  0  0
M  END
>  <MODEL>
       0

$$$$
selected_4mers/AGVA/514_noH.pdb
 OpenBabel03042518173D

 55 54  0  0  1  0  0  0  0  0999 V2000
   68.2690   21.3600   16.3860 C   0  0  0  0  0  0  0  0  0  0  0  0
   69.3980   20.3880   16.6300 C   0  0  0  0  0  0  0  0  0  0  0  0
   69.2310   19.1780   16.4330 O   0  0  0  0  0  0  0  0  0  0  0  0
   70.5520   20.9240   17.0400 N   0  0  0  0  0  0  0  0  0  0  0  0
   71.7330   20.1130   17.3670 C   0  0  2  0  0  0  0  0  0  0  0  0
   72.1080   19.1630   16.2290 C   0  0  0  0  0  0  0  0  0  0  0  0
   72.2750   17.9610   16.4350 O   0  0  0  0  0  0  0  0  0  0  0  0
   71.4850   19.3370   18.6750 C   0  0  0  0  0  0  0  0  0  0  0  0
   72.1650   19.7100   15.0200 N   0  0  0  0  0  0  0  0  0  0  0  0
   72.4990   18.9410   13.8280 C   0  0  0  0  0  0  0  0  0  0  0  0
   71.4790   17.8860   13.3970 C   0  0  0  0  0  0  0  0  0  0  0  0
   71.7940   17.0620   12.5380 O   0  0  0  0  0  0  0  0  0  0  0  0
   70.2730   17.8950   13.9680 N   0  0  0  0  0  0  0  0  0  0  0  0
   69.2770   16.8760   13.6250 C   0  0  2  0  0  0  0  0  0  0  0  0
   67.9700   17.5070   13.1580 C   0  0  0  0  0  0  0  0  0  0  0  0
   67.3860   18.3370   13.8690 O   0  0  0  0  0  0  0  0  0  0  0  0
   68.9810   15.9380   14.7940 C   0  0  0  0  0  0  0  0  0  0  0  0
   67.9540   14.8970   14.4110 C   0  0  0  0  0  0  0  0  0  0  0  0
   70.2910   15.2520   15.2760 C   0  0  0  0  0  0  0  0  0  0  0  0
   67.5250   17.0730   11.9850 N   0  0  0  0  0  0  0  0  0  0  0  0
   66.2320   17.4950   11.4170 C   0  0  2  0  0  0  0  0  0  0  0  0
   65.2170   16.3810   11.6850 C   0  0  0  0  0  0  0  0  0  0  0  0
   65.4860   15.1870   11.4720 O   0  0  0  0  0  0  0  0  0  0  0  0
   66.3110   17.7280    9.9230 C   0  0  0  0  0  0  0  0  0  0  0  0
   64.0650   16.7760   12.1830 N   0  0  0  0  0  0  0  0  0  0  0  0
   62.9760   15.8570   12.4630 C   0  0  0  0  0  0  0  0  0  0  0  0
   67.4006   20.8244   16.0636 H   0  0  0  0  0  0  0  0  0  0  0  0
   68.5578   22.0595   15.6296 H   0  0  0  0  0  0  0  0  0  0  0  0
   68.0483   21.8850   17.2918 H   0  0  0  0  0  0  0  0  0  0  0  0
   70.6132   21.9028   17.1265 H   0  0  0  0  0  0  0  0  0  0  0  0
   72.5632   20.7742   17.5031 H   0  0  0  0  0  0  0  0  0  0  0  0
   70.6554   18.6739   18.5445 H   0  0  0  0  0  0  0  0  0  0  0  0
   71.2693   20.0271   19.4637 H   0  0  0  0  0  0  0  0  0  0  0  0
   72.3580   18.7711   18.9250 H   0  0  0  0  0  0  0  0  0  0  0  0
   71.9744   20.6712   14.9256 H   0  0  0  0  0  0  0  0  0  0  0  0
   72.6182   19.6298   13.0180 H   0  0  0  0  0  0  0  0  0  0  0  0
   73.3857   18.3967   14.0777 H   0  0  0  0  0  0  0  0  0  0  0  0
   70.0502   18.5927   14.6259 H   0  0  0  0  0  0  0  0  0  0  0  0
   69.7047   16.3058   12.8270 H   0  0  0  0  0  0  0  0  0  0  0  0
   68.5777   16.5212   15.5953 H   0  0  0  0  0  0  0  0  0  0  0  0
   68.3342   14.2990   13.6093 H   0  0  0  0  0  0  0  0  0  0  0  0
   67.0535   15.3827   14.0977 H   0  0  0  0  0  0  0  0  0  0  0  0
   67.7473   14.2725   15.2549 H   0  0  0  0  0  0  0  0  0  0  0  0
   70.7008   14.6664   14.4797 H   0  0  0  0  0  0  0  0  0  0  0  0
   70.0754   14.6180   16.1105 H   0  0  0  0  0  0  0  0  0  0  0  0
   70.9980   15.9996   15.5693 H   0  0  0  0  0  0  0  0  0  0  0  0
   68.0819   16.4429   11.4731 H   0  0  0  0  0  0  0  0  0  0  0  0
   65.9460   18.4188   11.8748 H   0  0  0  0  0  0  0  0  0  0  0  0
   66.5958   16.8194    9.4349 H   0  0  0  0  0  0  0  0  0  0  0  0
   67.0379   18.4860    9.7182 H   0  0  0  0  0  0  0  0  0  0  0  0
   65.3550   18.0433    9.5601 H   0  0  0  0  0  0  0  0  0  0  0  0
   63.9361   17.7332   12.3735 H   0  0  0  0  0  0  0  0  0  0  0  0
   63.2728   14.8624   12.2029 H   0  0  0  0  0  0  0  0  0  0  0  0
   62.1178   16.1351   11.8876 H   0  0  0  0  0  0  0  0  0  0  0  0
   62.7350   15.8964   13.5048 H   0  0  0  0  0  0  0  0  0  0  0  0
  1  2  1  0  0  0  0
  1 27  1  0  0  0  0
  1 28  1  0  0  0  0
  1 29  1  0  0  0  0
  2  4  1  0  0  0  0
  3  2  2  0  0  0  0
  4  5  1  0  0  0  0
  4 30  1  0  0  0  0
  5  8  1  0  0  0  0
  5 31  1  1  0  0  0
  6  7  2  0  0  0  0
  6  5  1  0  0  0  0
  8 32  1  0  0  0  0
  8 33  1  0  0  0  0
  8 34  1  0  0  0  0
  9  6  1  0  0  0  0
  9 35  1  0  0  0  0
 10  9  1  0  0  0  0
 10 36  1  0  0  0  0
 10 37  1  0  0  0  0
 11 10  1  0  0  0  0
 11 13  1  0  0  0  0
 12 11  2  0  0  0  0
 13 38  1  0  0  0  0
 14 13  1  0  0  0  0
 14 17  1  0  0  0  0
 14 39  1  6  0  0  0
 15 14  1  0  0  0  0
 15 16  2  0  0  0  0
 17 19  1  0  0  0  0
 17 40  1  0  0  0  0
 18 17  1  0  0  0  0
 18 41  1  0  0  0  0
 18 42  1  0  0  0  0
 18 43  1  0  0  0  0
 19 44  1  0  0  0  0
 19 45  1  0  0  0  0
 19 46  1  0  0  0  0
 20 15  1  0  0  0  0
 20 47  1  0  0  0  0
 21 22  1  0  0  0  0
 21 20  1  0  0  0  0
 21 48  1  1  0  0  0
 22 25  1  0  0  0  0
 23 22  2  0  0  0  0
 24 21  1  0  0  0  0
 24 49  1  0  0  0  0
 24 50  1  0  0  0  0
 24 51  1  0  0  0  0
 25 26  1  0  0  0  0
 25 52  1  0  0  0  0
 26 53  1  0  0  0  0
 26 54  1  0  0  0  0
 26 55  1  0  0  0  0
M  END
>  <MODEL>
       0

$$$$
