selected_4mers/AIAA/565_noH.pdb
 OpenBabel03042518233D

 61 60  0  0  1  0  0  0  0  0999 V2000
  -75.7960   41.2430   24.3430 C   0  0  0  0  0  0  0  0  0  0  0  0
  -76.1360   39.9310   23.6430 C   0  0  0  0  0  0  0  0  0  0  0  0
  -76.5340   38.9610   24.2910 O   0  0  0  0  0  0  0  0  0  0  0  0
  -75.9580   39.9100   22.3220 N   0  0  0  0  0  0  0  0  0  0  0  0
  -76.3010   38.7480   21.4960 C   0  0  2  0  0  0  0  0  0  0  0  0
  -75.4580   37.5260   21.8550 C   0  0  0  0  0  0  0  0  0  0  0  0
  -75.9750   36.4110   21.9430 O   0  0  0  0  0  0  0  0  0  0  0  0
  -76.1570   39.0780   20.0200 C   0  0  0  0  0  0  0  0  0  0  0  0
  -74.1630   37.7470   22.0710 N   0  0  0  0  0  0  0  0  0  0  0  0
  -73.2520   36.6710   22.4550 C   0  0  2  0  0  0  0  0  0  0  0  0
  -73.5960   36.1350   23.8450 C   0  0  0  0  0  0  0  0  0  0  0  0
  -73.6620   34.9220   24.0420 O   0  0  0  0  0  0  0  0  0  0  0  0
  -71.7740   37.1180   22.3630 C   0  0  2  0  0  0  0  0  0  0  0  0
  -71.3670   37.2600   20.8910 C   0  0  0  0  0  0  0  0  0  0  0  0
  -70.8550   36.1350   23.0840 C   0  0  0  0  0  0  0  0  0  0  0  0
  -69.9670   37.8030   20.6660 C   0  0  0  0  0  0  0  0  0  0  0  0
  -73.8340   37.0380   24.7970 N   0  0  0  0  0  0  0  0  0  0  0  0
  -74.2420   36.6360   26.1460 C   0  0  2  0  0  0  0  0  0  0  0  0
  -75.5440   35.8310   26.1290 C   0  0  0  0  0  0  0  0  0  0  0  0
  -75.6630   34.8260   26.8270 O   0  0  0  0  0  0  0  0  0  0  0  0
  -74.3660   37.8480   27.0590 C   0  0  0  0  0  0  0  0  0  0  0  0
  -76.5050   36.2580   25.3140 N   0  0  0  0  0  0  0  0  0  0  0  0
  -77.7940   35.5690   25.2230 C   0  0  2  0  0  0  0  0  0  0  0  0
  -77.6890   34.1590   24.6340 C   0  0  0  0  0  0  0  0  0  0  0  0
  -78.4080   33.2510   25.0610 O   0  0  0  0  0  0  0  0  0  0  0  0
  -78.7970   36.4070   24.4390 C   0  0  0  0  0  0  0  0  0  0  0  0
  -76.7770   33.9860   23.6770 N   0  0  0  0  0  0  0  0  0  0  0  0
  -76.6230   32.7290   22.9400 C   0  0  0  0  0  0  0  0  0  0  0  0
  -75.4709   41.9600   23.6184 H   0  0  0  0  0  0  0  0  0  0  0  0
  -75.0146   41.0756   25.0546 H   0  0  0  0  0  0  0  0  0  0  0  0
  -76.6640   41.6137   24.8471 H   0  0  0  0  0  0  0  0  0  0  0  0
  -75.5811   40.7067   21.8834 H   0  0  0  0  0  0  0  0  0  0  0  0
  -77.3234   38.5047   21.6970 H   0  0  0  0  0  0  0  0  0  0  0  0
  -75.1374   39.3232   19.8072 H   0  0  0  0  0  0  0  0  0  0  0  0
  -76.7823   39.9120   19.7783 H   0  0  0  0  0  0  0  0  0  0  0  0
  -76.4498   38.2313   19.4350 H   0  0  0  0  0  0  0  0  0  0  0  0
  -73.8096   38.6602   21.9692 H   0  0  0  0  0  0  0  0  0  0  0  0
  -73.3792   35.8693   21.7578 H   0  0  0  0  0  0  0  0  0  0  0  0
  -71.6744   38.0673   22.8465 H   0  0  0  0  0  0  0  0  0  0  0  0
  -71.4265   36.2940   20.4347 H   0  0  0  0  0  0  0  0  0  0  0  0
  -72.0389   37.9729   20.4606 H   0  0  0  0  0  0  0  0  0  0  0  0
  -70.9311   35.1722   22.6235 H   0  0  0  0  0  0  0  0  0  0  0  0
  -71.1455   36.0630   24.1113 H   0  0  0  0  0  0  0  0  0  0  0  0
  -69.8443   36.4809   23.0226 H   0  0  0  0  0  0  0  0  0  0  0  0
  -69.2505   37.1245   21.0798 H   0  0  0  0  0  0  0  0  0  0  0  0
  -69.8730   38.7559   21.1435 H   0  0  0  0  0  0  0  0  0  0  0  0
  -69.7909   37.9112   19.6162 H   0  0  0  0  0  0  0  0  0  0  0  0
  -73.7335   37.9951   24.5892 H   0  0  0  0  0  0  0  0  0  0  0  0
  -73.4762   35.9979   26.5349 H   0  0  0  0  0  0  0  0  0  0  0  0
  -75.1286   38.4992   26.6857 H   0  0  0  0  0  0  0  0  0  0  0  0
  -73.4327   38.3707   27.0867 H   0  0  0  0  0  0  0  0  0  0  0  0
  -74.6238   37.5259   28.0463 H   0  0  0  0  0  0  0  0  0  0  0  0
  -76.3459   37.0556   24.7593 H   0  0  0  0  0  0  0  0  0  0  0  0
  -78.1429   35.4493   26.2274 H   0  0  0  0  0  0  0  0  0  0  0  0
  -78.4513   36.5289   23.4337 H   0  0  0  0  0  0  0  0  0  0  0  0
  -78.8975   37.3671   24.9005 H   0  0  0  0  0  0  0  0  0  0  0  0
  -79.7463   35.9133   24.4324 H   0  0  0  0  0  0  0  0  0  0  0  0
  -76.1800   34.7368   23.4555 H   0  0  0  0  0  0  0  0  0  0  0  0
  -77.3393   32.0176   23.2946 H   0  0  0  0  0  0  0  0  0  0  0  0
  -75.6353   32.3460   23.0905 H   0  0  0  0  0  0  0  0  0  0  0  0
  -76.7819   32.9055   21.8967 H   0  0  0  0  0  0  0  0  0  0  0  0
  1 29  1  0  0  0  0
  1 30  1  0  0  0  0
  1 31  1  0  0  0  0
  2  3  2  0  0  0  0
  2  1  1  0  0  0  0
  4  2  1  0  0  0  0
  4 32  1  0  0  0  0
  5  6  1  0  0  0  0
  5  4  1  0  0  0  0
  5 33  1  1  0  0  0
  6  7  2  0  0  0  0
  6  9  1  0  0  0  0
  8  5  1  0  0  0  0
  8 34  1  0  0  0  0
  8 35  1  0  0  0  0
  8 36  1  0  0  0  0
  9 10  1  0  0  0  0
  9 37  1  0  0  0  0
 10 11  1  0  0  0  0
 10 38  1  6  0  0  0
 11 12  2  0  0  0  0
 11 17  1  0  0  0  0
 13 10  1  0  0  0  0
 13 15  1  0  0  0  0
 13 39  1  1  0  0  0
 14 13  1  0  0  0  0
 14 40  1  0  0  0  0
 14 41  1  0  0  0  0
 15 42  1  0  0  0  0
 15 43  1  0  0  0  0
 15 44  1  0  0  0  0
 16 14  1  0  0  0  0
 16 45  1  0  0  0  0
 16 46  1  0  0  0  0
 16 47  1  0  0  0  0
 17 18  1  0  0  0  0
 17 48  1  0  0  0  0
 18 21  1  0  0  0  0
 18 49  1  1  0  0  0
 19 18  1  0  0  0  0
 19 20  2  0  0  0  0
 21 50  1  0  0  0  0
 21 51  1  0  0  0  0
 21 52  1  0  0  0  0
 22 19  1  0  0  0  0
 22 53  1  0  0  0  0
 23 22  1  0  0  0  0
 23 54  1  1  0  0  0
 24 25  2  0  0  0  0
 24 23  1  0  0  0  0
 26 23  1  0  0  0  0
 26 55  1  0  0  0  0
 26 56  1  0  0  0  0
 26 57  1  0  0  0  0
 27 24  1  0  0  0  0
 27 58  1  0  0  0  0
 28 27  1  0  0  0  0
 28 59  1  0  0  0  0
 28 60  1  0  0  0  0
 28 61  1  0  0  0  0
M  END
>  <MODEL>
       0

$$$$
selected_4mers/AIAA/566_noH.pdb
 OpenBabel03042518233D

 61 60  0  0  1  0  0  0  0  0999 V2000
   19.7750   94.8670    0.4450 C   0  0  0  0  0  0  0  0  0  0  0  0
   19.2190   96.2580    0.1530 C   0  0  0  0  0  0  0  0  0  0  0  0
   19.7720   97.2450    0.6430 O   0  0  0  0  0  0  0  0  0  0  0  0
   18.1350   96.3470   -0.6610 N   0  0  0  0  0  0  0  0  0  0  0  0
   17.4700   97.6190   -1.0440 C   0  0  2  0  0  0  0  0  0  0  0  0
   18.3860   98.5950   -1.8110 C   0  0  0  0  0  0  0  0  0  0  0  0
   18.0770   99.7860   -1.8830 O   0  0  0  0  0  0  0  0  0  0  0  0
   16.8940   98.3120    0.2050 C   0  0  0  0  0  0  0  0  0  0  0  0
   19.5060   98.1120   -2.3910 N   0  0  0  0  0  0  0  0  0  0  0  0
   20.4430   99.0150   -3.0830 C   0  0  2  0  0  0  0  0  0  0  0  0
   19.8210   99.5330   -4.4010 C   0  0  0  0  0  0  0  0  0  0  0  0
   19.7070  100.7420   -4.5830 O   0  0  0  0  0  0  0  0  0  0  0  0
   21.8510   98.3830   -3.2480 C   0  0  2  0  0  0  0  0  0  0  0  0
   22.4500   98.0580   -1.8400 C   0  0  0  0  0  0  0  0  0  0  0  0
   22.7750   99.3250   -4.0490 C   0  0  0  0  0  0  0  0  0  0  0  0
   23.5410   97.0290   -1.7670 C   0  0  0  0  0  0  0  0  0  0  0  0
   19.3830   98.6200   -5.3000 N   0  0  0  0  0  0  0  0  0  0  0  0
   18.7130   98.9930   -6.5490 C   0  0  2  0  0  0  0  0  0  0  0  0
   17.3950   99.7220   -6.2440 C   0  0  0  0  0  0  0  0  0  0  0  0
   17.0830  100.7250   -6.8910 O   0  0  0  0  0  0  0  0  0  0  0  0
   18.4330   97.7540   -7.3890 C   0  0  0  0  0  0  0  0  0  0  0  0
   16.6400   99.2340   -5.2460 N   0  0  0  0  0  0  0  0  0  0  0  0
   15.3380   99.8000   -4.8620 C   0  0  2  0  0  0  0  0  0  0  0  0
   15.4430  101.2710   -4.4150 C   0  0  0  0  0  0  0  0  0  0  0  0
   14.6120  102.0900   -4.8110 O   0  0  0  0  0  0  0  0  0  0  0  0
   14.6950   98.9520   -3.7740 C   0  0  0  0  0  0  0  0  0  0  0  0
   16.4970  101.6170   -3.6480 N   0  0  0  0  0  0  0  0  0  0  0  0
   16.7040  103.0010   -3.1980 C   0  0  0  0  0  0  0  0  0  0  0  0
   19.1791   94.1325   -0.0553 H   0  0  0  0  0  0  0  0  0  0  0  0
   19.7512   94.6876    1.4996 H   0  0  0  0  0  0  0  0  0  0  0  0
   20.7844   94.8058    0.0954 H   0  0  0  0  0  0  0  0  0  0  0  0
   17.7641   95.5097   -1.0225 H   0  0  0  0  0  0  0  0  0  0  0  0
   16.6830   97.3521   -1.7180 H   0  0  0  0  0  0  0  0  0  0  0  0
   17.6921   98.5724    0.8684 H   0  0  0  0  0  0  0  0  0  0  0  0
   16.2193   97.6471    0.7025 H   0  0  0  0  0  0  0  0  0  0  0  0
   16.3704   99.1979   -0.0882 H   0  0  0  0  0  0  0  0  0  0  0  0
   19.6984   97.1473   -2.3512 H   0  0  0  0  0  0  0  0  0  0  0  0
   20.6073   99.8756   -2.4687 H   0  0  0  0  0  0  0  0  0  0  0  0
   21.7670   97.4692   -3.7982 H   0  0  0  0  0  0  0  0  0  0  0  0
   21.6463   97.7162   -1.2218 H   0  0  0  0  0  0  0  0  0  0  0  0
   22.9158   98.9691   -1.5271 H   0  0  0  0  0  0  0  0  0  0  0  0
   22.8807  100.2517   -3.5246 H   0  0  0  0  0  0  0  0  0  0  0  0
   22.3488   99.5075   -5.0134 H   0  0  0  0  0  0  0  0  0  0  0  0
   23.7360   98.8688   -4.1643 H   0  0  0  0  0  0  0  0  0  0  0  0
   23.1546   96.0775   -2.0674 H   0  0  0  0  0  0  0  0  0  0  0  0
   23.9046   96.9653   -0.7627 H   0  0  0  0  0  0  0  0  0  0  0  0
   24.3413   97.3109   -2.4188 H   0  0  0  0  0  0  0  0  0  0  0  0
   19.5205   97.6646   -5.1063 H   0  0  0  0  0  0  0  0  0  0  0  0
   19.3569   99.6472   -7.0989 H   0  0  0  0  0  0  0  0  0  0  0  0
   17.7893   97.0934   -6.8467 H   0  0  0  0  0  0  0  0  0  0  0  0
   19.3542   97.2552   -7.6069 H   0  0  0  0  0  0  0  0  0  0  0  0
   17.9588   98.0429   -8.3037 H   0  0  0  0  0  0  0  0  0  0  0  0
   16.9761   98.4560   -4.7449 H   0  0  0  0  0  0  0  0  0  0  0  0
   14.7164   99.7853   -5.7328 H   0  0  0  0  0  0  0  0  0  0  0  0
   15.3132   98.9636   -2.9007 H   0  0  0  0  0  0  0  0  0  0  0  0
   14.5885   97.9459   -4.1222 H   0  0  0  0  0  0  0  0  0  0  0  0
   13.7313   99.3503   -3.5341 H   0  0  0  0  0  0  0  0  0  0  0  0
   17.1446  100.9246   -3.3826 H   0  0  0  0  0  0  0  0  0  0  0  0
   15.9152  103.6195   -3.5724 H   0  0  0  0  0  0  0  0  0  0  0  0
   17.6430  103.3589   -3.5656 H   0  0  0  0  0  0  0  0  0  0  0  0
   16.7045  103.0320   -2.1284 H   0  0  0  0  0  0  0  0  0  0  0  0
  1 29  1  0  0  0  0
  1 30  1  0  0  0  0
  1 31  1  0  0  0  0
  2  1  1  0  0  0  0
  2  3  2  0  0  0  0
  4  2  1  0  0  0  0
  4 32  1  0  0  0  0
  5  4  1  0  0  0  0
  5  8  1  0  0  0  0
  5 33  1  6  0  0  0
  6  5  1  0  0  0  0
  7  6  2  0  0  0  0
  8 34  1  0  0  0  0
  8 35  1  0  0  0  0
  8 36  1  0  0  0  0
  9  6  1  0  0  0  0
  9 37  1  0  0  0  0
 10  9  1  0  0  0  0
 10 38  1  1  0  0  0
 11 10  1  0  0  0  0
 12 11  2  0  0  0  0
 13 10  1  0  0  0  0
 13 14  1  0  0  0  0
 13 39  1  6  0  0  0
 14 16  1  0  0  0  0
 14 40  1  0  0  0  0
 14 41  1  0  0  0  0
 15 13  1  0  0  0  0
 15 42  1  0  0  0  0
 15 43  1  0  0  0  0
 15 44  1  0  0  0  0
 16 45  1  0  0  0  0
 16 46  1  0  0  0  0
 16 47  1  0  0  0  0
 17 11  1  0  0  0  0
 17 48  1  0  0  0  0
 18 19  1  0  0  0  0
 18 17  1  0  0  0  0
 18 49  1  6  0  0  0
 19 22  1  0  0  0  0
 20 19  2  0  0  0  0
 21 18  1  0  0  0  0
 21 50  1  0  0  0  0
 21 51  1  0  0  0  0
 21 52  1  0  0  0  0
 22 23  1  0  0  0  0
 22 53  1  0  0  0  0
 23 24  1  0  0  0  0
 23 26  1  0  0  0  0
 23 54  1  6  0  0  0
 24 27  1  0  0  0  0
 25 24  2  0  0  0  0
 26 55  1  0  0  0  0
 26 56  1  0  0  0  0
 26 57  1  0  0  0  0
 27 28  1  0  0  0  0
 27 58  1  0  0  0  0
 28 59  1  0  0  0  0
 28 60  1  0  0  0  0
 28 61  1  0  0  0  0
M  END
>  <MODEL>
       0

$$$$
selected_4mers/AIAA/567_noH.pdb
 OpenBabel03042518233D

 61 60  0  0  1  0  0  0  0  0999 V2000
  -15.2710   41.5120   22.2550 C   0  0  0  0  0  0  0  0  0  0  0  0
  -16.2530   41.5660   21.0820 C   0  0  0  0  0  0  0  0  0  0  0  0
  -16.8990   40.5700   20.7680 O   0  0  0  0  0  0  0  0  0  0  0  0
  -16.3660   42.7340   20.4480 N   0  0  0  0  0  0  0  0  0  0  0  0
  -17.1640   42.8670   19.2300 C   0  0  2  0  0  0  0  0  0  0  0  0
  -16.2680   43.4520   18.1500 C   0  0  0  0  0  0  0  0  0  0  0  0
  -15.5490   44.4270   18.3970 O   0  0  0  0  0  0  0  0  0  0  0  0
  -18.3790   43.7550   19.4540 C   0  0  0  0  0  0  0  0  0  0  0  0
  -16.2880   42.8060   16.9830 N   0  0  0  0  0  0  0  0  0  0  0  0
  -15.5350   43.2720   15.8130 C   0  0  2  0  0  0  0  0  0  0  0  0
  -16.5210   43.7420   14.7550 C   0  0  0  0  0  0  0  0  0  0  0  0
  -17.4800   43.0330   14.4360 O   0  0  0  0  0  0  0  0  0  0  0  0
  -14.6700   42.1510   15.1650 C   0  0  2  0  0  0  0  0  0  0  0  0
  -13.8200   41.3740   16.1990 C   0  0  0  0  0  0  0  0  0  0  0  0
  -13.7850   42.7680   14.0730 C   0  0  0  0  0  0  0  0  0  0  0  0
  -12.7870   42.2020   16.9900 C   0  0  0  0  0  0  0  0  0  0  0  0
  -16.2830   44.9270   14.1910 N   0  0  0  0  0  0  0  0  0  0  0  0
  -17.1120   45.4080   13.0870 C   0  0  2  0  0  0  0  0  0  0  0  0
  -16.2410   45.8780   11.9400 C   0  0  0  0  0  0  0  0  0  0  0  0
  -15.2530   46.5740   12.1510 O   0  0  0  0  0  0  0  0  0  0  0  0
  -18.0320   46.5400   13.5400 C   0  0  0  0  0  0  0  0  0  0  0  0
  -16.6040   45.4760   10.7280 N   0  0  0  0  0  0  0  0  0  0  0  0
  -15.9200   45.9770    9.5330 C   0  0  2  0  0  0  0  0  0  0  0  0
  -16.9260   46.7370    8.6790 C   0  0  0  0  0  0  0  0  0  0  0  0
  -18.0360   46.2500    8.4190 O   0  0  0  0  0  0  0  0  0  0  0  0
  -15.3400   44.8270    8.7470 C   0  0  0  0  0  0  0  0  0  0  0  0
  -16.5100   47.9130    8.2260 N   0  0  0  0  0  0  0  0  0  0  0  0
  -17.2580   48.6930    7.2450 C   0  0  0  0  0  0  0  0  0  0  0  0
  -14.8059   42.4681   22.3751 H   0  0  0  0  0  0  0  0  0  0  0  0
  -14.5222   40.7731   22.0595 H   0  0  0  0  0  0  0  0  0  0  0  0
  -15.7985   41.2570   23.1503 H   0  0  0  0  0  0  0  0  0  0  0  0
  -15.9019   43.5240   20.8081 H   0  0  0  0  0  0  0  0  0  0  0  0
  -17.5323   41.9068   18.9347 H   0  0  0  0  0  0  0  0  0  0  0  0
  -18.0574   44.7309   19.7525 H   0  0  0  0  0  0  0  0  0  0  0  0
  -18.9935   43.3319   20.2210 H   0  0  0  0  0  0  0  0  0  0  0  0
  -18.9406   43.8267   18.5461 H   0  0  0  0  0  0  0  0  0  0  0  0
  -16.8278   41.9865   16.9039 H   0  0  0  0  0  0  0  0  0  0  0  0
  -14.8855   44.0526   16.1501 H   0  0  0  0  0  0  0  0  0  0  0  0
  -15.3324   41.4310   14.7319 H   0  0  0  0  0  0  0  0  0  0  0  0
  -13.2907   40.6056   15.6753 H   0  0  0  0  0  0  0  0  0  0  0  0
  -14.5151   41.0116   16.9272 H   0  0  0  0  0  0  0  0  0  0  0  0
  -13.1253   43.4867   14.5124 H   0  0  0  0  0  0  0  0  0  0  0  0
  -14.4022   43.2495   13.3435 H   0  0  0  0  0  0  0  0  0  0  0  0
  -13.2107   41.9978   13.6019 H   0  0  0  0  0  0  0  0  0  0  0  0
  -12.0558   42.5975   16.3164 H   0  0  0  0  0  0  0  0  0  0  0  0
  -12.3054   41.5759   17.7118 H   0  0  0  0  0  0  0  0  0  0  0  0
  -13.2832   43.0070   17.4906 H   0  0  0  0  0  0  0  0  0  0  0  0
  -15.5413   45.4836   14.5216 H   0  0  0  0  0  0  0  0  0  0  0  0
  -17.7207   44.5932   12.7547 H   0  0  0  0  0  0  0  0  0  0  0  0
  -17.4416   47.3663   13.8769 H   0  0  0  0  0  0  0  0  0  0  0  0
  -18.6534   46.1960   14.3402 H   0  0  0  0  0  0  0  0  0  0  0  0
  -18.6455   46.8507   12.7202 H   0  0  0  0  0  0  0  0  0  0  0  0
  -17.3428   44.8326   10.6308 H   0  0  0  0  0  0  0  0  0  0  0  0
  -15.1205   46.6280    9.8194 H   0  0  0  0  0  0  0  0  0  0  0  0
  -16.1264   44.1643    8.4516 H   0  0  0  0  0  0  0  0  0  0  0  0
  -14.6371   44.2975    9.3557 H   0  0  0  0  0  0  0  0  0  0  0  0
  -14.8451   45.2037    7.8763 H   0  0  0  0  0  0  0  0  0  0  0  0
  -15.6601   48.2749    8.5664 H   0  0  0  0  0  0  0  0  0  0  0  0
  -18.1509   48.1676    6.9774 H   0  0  0  0  0  0  0  0  0  0  0  0
  -16.6561   48.8406    6.3728 H   0  0  0  0  0  0  0  0  0  0  0  0
  -17.5154   49.6426    7.6656 H   0  0  0  0  0  0  0  0  0  0  0  0
  1 29  1  0  0  0  0
  1 30  1  0  0  0  0
  1 31  1  0  0  0  0
  2  1  1  0  0  0  0
  3  2  2  0  0  0  0
  4  2  1  0  0  0  0
  4 32  1  0  0  0  0
  5  8  1  0  0  0  0
  5  4  1  0  0  0  0
  5 33  1  6  0  0  0
  6  7  2  0  0  0  0
  6  5  1  0  0  0  0
  8 34  1  0  0  0  0
  8 35  1  0  0  0  0
  8 36  1  0  0  0  0
  9  6  1  0  0  0  0
  9 37  1  0  0  0  0
 10  9  1  0  0  0  0
 10 38  1  1  0  0  0
 11 10  1  0  0  0  0
 12 11  2  0  0  0  0
 13 10  1  0  0  0  0
 13 14  1  0  0  0  0
 13 39  1  6  0  0  0
 14 16  1  0  0  0  0
 14 40  1  0  0  0  0
 14 41  1  0  0  0  0
 15 13  1  0  0  0  0
 15 42  1  0  0  0  0
 15 43  1  0  0  0  0
 15 44  1  0  0  0  0
 16 45  1  0  0  0  0
 16 46  1  0  0  0  0
 16 47  1  0  0  0  0
 17 11  1  0  0  0  0
 17 48  1  0  0  0  0
 18 21  1  0  0  0  0
 18 17  1  0  0  0  0
 18 49  1  6  0  0  0
 19 20  2  0  0  0  0
 19 18  1  0  0  0  0
 21 50  1  0  0  0  0
 21 51  1  0  0  0  0
 21 52  1  0  0  0  0
 22 19  1  0  0  0  0
 22 53  1  0  0  0  0
 23 22  1  0  0  0  0
 23 54  1  1  0  0  0
 24 23  1  0  0  0  0
 25 24  2  0  0  0  0
 26 23  1  0  0  0  0
 26 55  1  0  0  0  0
 26 56  1  0  0  0  0
 26 57  1  0  0  0  0
 27 24  1  0  0  0  0
 27 58  1  0  0  0  0
 28 27  1  0  0  0  0
 28 59  1  0  0  0  0
 28 60  1  0  0  0  0
 28 61  1  0  0  0  0
M  END
>  <MODEL>
       0

$$$$
selected_4mers/AIAA/568_noH.pdb
 OpenBabel03042518233D

 61 60  0  0  1  0  0  0  0  0999 V2000
  -14.0200   45.1910   16.0970 C   0  0  0  0  0  0  0  0  0  0  0  0
  -13.6310   46.6690   16.1880 C   0  0  0  0  0  0  0  0  0  0  0  0
  -14.3260   47.4370   16.8740 O   0  0  0  0  0  0  0  0  0  0  0  0
  -12.5840   47.1020   15.4570 N   0  0  0  0  0  0  0  0  0  0  0  0
  -12.1930   48.5280   15.4730 C   0  0  2  0  0  0  0  0  0  0  0  0
  -13.2960   49.3930   14.8270 C   0  0  0  0  0  0  0  0  0  0  0  0
  -13.6550   50.4560   15.3440 O   0  0  0  0  0  0  0  0  0  0  0  0
  -10.7670   48.7800   14.8000 C   0  0  0  0  0  0  0  0  0  0  0  0
  -13.8200   48.9470   13.6930 N   0  0  0  0  0  0  0  0  0  0  0  0
  -14.8520   49.6600   12.9770 C   0  0  2  0  0  0  0  0  0  0  0  0
  -16.1090   49.7950   13.8580 C   0  0  0  0  0  0  0  0  0  0  0  0
  -16.6830   50.8800   13.9650 O   0  0  0  0  0  0  0  0  0  0  0  0
  -15.1950   48.9660   11.6170 C   0  0  2  0  0  0  0  0  0  0  0  0
  -14.0340   49.1090   10.6180 C   0  0  0  0  0  0  0  0  0  0  0  0
  -16.5210   49.5140   11.0260 C   0  0  0  0  0  0  0  0  0  0  0  0
  -14.1010   48.0720    9.4340 C   0  0  0  0  0  0  0  0  0  0  0  0
  -16.5080   48.6890   14.4830 N   0  0  0  0  0  0  0  0  0  0  0  0
  -17.6780   48.6890   15.3730 C   0  0  2  0  0  0  0  0  0  0  0  0
  -17.4810   49.6700   16.5570 C   0  0  0  0  0  0  0  0  0  0  0  0
  -18.3960   50.4150   16.9130 O   0  0  0  0  0  0  0  0  0  0  0  0
  -18.0110   47.2400   15.8790 C   0  0  0  0  0  0  0  0  0  0  0  0
  -16.2720   49.7020   17.1380 N   0  0  0  0  0  0  0  0  0  0  0  0
  -16.0000   50.5600   18.2680 C   0  0  2  0  0  0  0  0  0  0  0  0
  -16.0640   52.0160   17.7870 C   0  0  0  0  0  0  0  0  0  0  0  0
  -16.5990   52.8820   18.4390 O   0  0  0  0  0  0  0  0  0  0  0  0
  -14.6230   50.2520   18.8970 C   0  0  0  0  0  0  0  0  0  0  0  0
  -15.5390   52.2740   16.6130 N   0  0  0  0  0  0  0  0  0  0  0  0
  -15.5600   53.6380   16.0960 C   0  0  0  0  0  0  0  0  0  0  0  0
  -13.3212   44.6761   15.4713 H   0  0  0  0  0  0  0  0  0  0  0  0
  -15.0019   45.1056   15.6805 H   0  0  0  0  0  0  0  0  0  0  0  0
  -14.0087   44.7583   17.0756 H   0  0  0  0  0  0  0  0  0  0  0  0
  -12.0752   46.4629   14.9076 H   0  0  0  0  0  0  0  0  0  0  0  0
  -12.0895   48.8239   16.4961 H   0  0  0  0  0  0  0  0  0  0  0  0
  -10.8055   48.5011   13.7677 H   0  0  0  0  0  0  0  0  0  0  0  0
  -10.0271   48.1915   15.3011 H   0  0  0  0  0  0  0  0  0  0  0  0
  -10.5129   49.8163   14.8803 H   0  0  0  0  0  0  0  0  0  0  0  0
  -13.4920   48.0951   13.3243 H   0  0  0  0  0  0  0  0  0  0  0  0
  -14.4831   50.6381   12.7486 H   0  0  0  0  0  0  0  0  0  0  0  0
  -15.3351   47.9222   11.8062 H   0  0  0  0  0  0  0  0  0  0  0  0
  -14.0593   50.0965   10.2067 H   0  0  0  0  0  0  0  0  0  0  0  0
  -13.1281   48.9196   11.1550 H   0  0  0  0  0  0  0  0  0  0  0  0
  -16.4163   50.5595   10.8240 H   0  0  0  0  0  0  0  0  0  0  0  0
  -17.3136   49.3642   11.7290 H   0  0  0  0  0  0  0  0  0  0  0  0
  -16.7475   48.9962   10.1175 H   0  0  0  0  0  0  0  0  0  0  0  0
  -14.9972   48.2305    8.8713 H   0  0  0  0  0  0  0  0  0  0  0  0
  -14.0996   47.0780    9.8300 H   0  0  0  0  0  0  0  0  0  0  0  0
  -13.2517   48.2032    8.7965 H   0  0  0  0  0  0  0  0  0  0  0  0
  -16.0080   47.8521   14.3459 H   0  0  0  0  0  0  0  0  0  0  0  0
  -18.5179   49.0313   14.8053 H   0  0  0  0  0  0  0  0  0  0  0  0
  -17.1894   46.8650   16.4528 H   0  0  0  0  0  0  0  0  0  0  0  0
  -18.1814   46.5993   15.0391 H   0  0  0  0  0  0  0  0  0  0  0  0
  -18.8891   47.2685   16.4898 H   0  0  0  0  0  0  0  0  0  0  0  0
  -15.5539   49.1277   16.7862 H   0  0  0  0  0  0  0  0  0  0  0  0
  -16.7316   50.3881   19.0296 H   0  0  0  0  0  0  0  0  0  0  0  0
  -13.8549   50.4106   18.1691 H   0  0  0  0  0  0  0  0  0  0  0  0
  -14.5999   49.2334   19.2238 H   0  0  0  0  0  0  0  0  0  0  0  0
  -14.4604   50.8987   19.7338 H   0  0  0  0  0  0  0  0  0  0  0  0
  -15.1327   51.5505   16.0832 H   0  0  0  0  0  0  0  0  0  0  0  0
  -16.0382   54.2809   16.8051 H   0  0  0  0  0  0  0  0  0  0  0  0
  -16.1001   53.6612   15.1726 H   0  0  0  0  0  0  0  0  0  0  0  0
  -14.5571   53.9724   15.9310 H   0  0  0  0  0  0  0  0  0  0  0  0
  1  2  1  0  0  0  0
  1 29  1  0  0  0  0
  1 30  1  0  0  0  0
  1 31  1  0  0  0  0
  2  3  2  0  0  0  0
  4  5  1  0  0  0  0
  4  2  1  0  0  0  0
  4 32  1  0  0  0  0
  5 33  1  1  0  0  0
  6  7  2  0  0  0  0
  6  5  1  0  0  0  0
  8  5  1  0  0  0  0
  8 34  1  0  0  0  0
  8 35  1  0  0  0  0
  8 36  1  0  0  0  0
  9  6  1  0  0  0  0
  9 37  1  0  0  0  0
 10  9  1  0  0  0  0
 10 11  1  0  0  0  0
 10 38  1  6  0  0  0
 11 12  2  0  0  0  0
 11 17  1  0  0  0  0
 13 10  1  0  0  0  0
 13 39  1  1  0  0  0
 14 13  1  0  0  0  0
 14 40  1  0  0  0  0
 14 41  1  0  0  0  0
 15 13  1  0  0  0  0
 15 42  1  0  0  0  0
 15 43  1  0  0  0  0
 15 44  1  0  0  0  0
 16 14  1  0  0  0  0
 16 45  1  0  0  0  0
 16 46  1  0  0  0  0
 16 47  1  0  0  0  0
 17 18  1  0  0  0  0
 17 48  1  0  0  0  0
 18 21  1  0  0  0  0
 18 19  1  0  0  0  0
 18 49  1  6  0  0  0
 19 20  2  0  0  0  0
 19 22  1  0  0  0  0
 21 50  1  0  0  0  0
 21 51  1  0  0  0  0
 21 52  1  0  0  0  0
 22 23  1  0  0  0  0
 22 53  1  0  0  0  0
 23 26  1  0  0  0  0
 23 54  1  1  0  0  0
 24 23  1  0  0  0  0
 24 25  2  0  0  0  0
 26 55  1  0  0  0  0
 26 56  1  0  0  0  0
 26 57  1  0  0  0  0
 27 24  1  0  0  0  0
 27 58  1  0  0  0  0
 28 27  1  0  0  0  0
 28 59  1  0  0  0  0
 28 60  1  0  0  0  0
 28 61  1  0  0  0  0
M  END
>  <MODEL>
       0

$$$$
selected_4mers/AIAA/569_noH.pdb
 OpenBabel03042518233D

 61 60  0  0  1  0  0  0  0  0999 V2000
  -32.6560   65.5970  121.6280 C   0  0  0  0  0  0  0  0  0  0  0  0
  -32.5810   65.0050  123.0340 C   0  0  0  0  0  0  0  0  0  0  0  0
  -31.7680   64.0970  123.3070 O   0  0  0  0  0  0  0  0  0  0  0  0
  -33.4140   65.5280  123.9210 N   0  0  0  0  0  0  0  0  0  0  0  0
  -33.5960   64.9580  125.2570 C   0  0  2  0  0  0  0  0  0  0  0  0
  -34.8510   64.0900  125.3020 C   0  0  0  0  0  0  0  0  0  0  0  0
  -35.9170   64.5050  124.8380 O   0  0  0  0  0  0  0  0  0  0  0  0
  -33.6980   66.0570  126.2850 C   0  0  0  0  0  0  0  0  0  0  0  0
  -34.7330   62.8730  125.8320 N   0  0  0  0  0  0  0  0  0  0  0  0
  -35.9130   62.0250  126.0700 C   0  0  2  0  0  0  0  0  0  0  0  0
  -36.0420   61.8890  127.5750 C   0  0  0  0  0  0  0  0  0  0  0  0
  -35.0830   61.4760  128.2360 O   0  0  0  0  0  0  0  0  0  0  0  0
  -35.8160   60.6210  125.3970 C   0  0  2  0  0  0  0  0  0  0  0  0
  -35.4480   60.7630  123.9270 C   0  0  0  0  0  0  0  0  0  0  0  0
  -37.1370   59.8760  125.5480 C   0  0  0  0  0  0  0  0  0  0  0  0
  -35.3200   59.4260  123.1530 C   0  0  0  0  0  0  0  0  0  0  0  0
  -37.1950   62.2730  128.1140 N   0  0  0  0  0  0  0  0  0  0  0  0
  -37.3880   62.3680  129.5570 C   0  0  2  0  0  0  0  0  0  0  0  0
  -38.8240   62.0990  129.9800 C   0  0  0  0  0  0  0  0  0  0  0  0
  -39.7670   62.3370  129.2050 O   0  0  0  0  0  0  0  0  0  0  0  0
  -36.9830   63.7560  130.0450 C   0  0  0  0  0  0  0  0  0  0  0  0
  -38.9940   61.6500  131.2260 N   0  0  0  0  0  0  0  0  0  0  0  0
  -40.3430   61.4550  131.7750 C   0  0  2  0  0  0  0  0  0  0  0  0
  -40.9910   62.8090  132.1140 C   0  0  0  0  0  0  0  0  0  0  0  0
  -42.1910   62.9550  131.9830 O   0  0  0  0  0  0  0  0  0  0  0  0
  -40.3250   60.5440  132.9940 C   0  0  0  0  0  0  0  0  0  0  0  0
  -40.1900   63.7790  132.5440 N   0  0  0  0  0  0  0  0  0  0  0  0
  -40.6900   65.0670  133.0000 C   0  0  0  0  0  0  0  0  0  0  0  0
  -31.9460   65.1058  120.9959 H   0  0  0  0  0  0  0  0  0  0  0  0
  -32.4335   66.6428  121.6690 H   0  0  0  0  0  0  0  0  0  0  0  0
  -33.6410   65.4571  121.2342 H   0  0  0  0  0  0  0  0  0  0  0  0
  -33.9295   66.3292  123.6728 H   0  0  0  0  0  0  0  0  0  0  0  0
  -32.7460   64.3478  125.4809 H   0  0  0  0  0  0  0  0  0  0  0  0
  -34.5464   66.6715  126.0672 H   0  0  0  0  0  0  0  0  0  0  0  0
  -32.8098   66.6531  126.2592 H   0  0  0  0  0  0  0  0  0  0  0  0
  -33.8101   65.6260  127.2579 H   0  0  0  0  0  0  0  0  0  0  0  0
  -33.8395   62.5343  126.0690 H   0  0  0  0  0  0  0  0  0  0  0  0
  -36.7737   62.4825  125.6286 H   0  0  0  0  0  0  0  0  0  0  0  0
  -35.0479   60.0570  125.8837 H   0  0  0  0  0  0  0  0  0  0  0  0
  -36.2041   61.3515  123.4506 H   0  0  0  0  0  0  0  0  0  0  0  0
  -34.4794   61.2170  123.9031 H   0  0  0  0  0  0  0  0  0  0  0  0
  -37.9156   60.4291  125.0654 H   0  0  0  0  0  0  0  0  0  0  0  0
  -37.3683   59.7670  126.5870 H   0  0  0  0  0  0  0  0  0  0  0  0
  -37.0546   58.9089  125.0976 H   0  0  0  0  0  0  0  0  0  0  0  0
  -36.2661   58.9264  123.1453 H   0  0  0  0  0  0  0  0  0  0  0  0
  -34.5925   58.8047  123.6322 H   0  0  0  0  0  0  0  0  0  0  0  0
  -35.0130   59.6241  122.1473 H   0  0  0  0  0  0  0  0  0  0  0  0
  -37.9450   62.5013  127.5185 H   0  0  0  0  0  0  0  0  0  0  0  0
  -36.7707   61.6139  129.9989 H   0  0  0  0  0  0  0  0  0  0  0  0
  -37.6130   64.4918  129.5904 H   0  0  0  0  0  0  0  0  0  0  0  0
  -35.9642   63.9447  129.7780 H   0  0  0  0  0  0  0  0  0  0  0  0
  -37.0878   63.8047  131.1087 H   0  0  0  0  0  0  0  0  0  0  0  0
  -38.2075   61.4475  131.7825 H   0  0  0  0  0  0  0  0  0  0  0  0
  -40.9336   60.9745  131.0232 H   0  0  0  0  0  0  0  0  0  0  0  0
  -39.7407   60.9957  133.7683 H   0  0  0  0  0  0  0  0  0  0  0  0
  -39.8961   59.6005  132.7279 H   0  0  0  0  0  0  0  0  0  0  0  0
  -41.3255   60.3952  133.3429 H   0  0  0  0  0  0  0  0  0  0  0  0
  -39.2186   63.6192  132.5543 H   0  0  0  0  0  0  0  0  0  0  0  0
  -41.7574   65.0814  132.9270 H   0  0  0  0  0  0  0  0  0  0  0  0
  -40.2803   65.8449  132.3901 H   0  0  0  0  0  0  0  0  0  0  0  0
  -40.4000   65.2220  134.0182 H   0  0  0  0  0  0  0  0  0  0  0  0
  1  2  1  0  0  0  0
  1 29  1  0  0  0  0
  1 30  1  0  0  0  0
  1 31  1  0  0  0  0
  2  3  2  0  0  0  0
  2  4  1  0  0  0  0
  4  5  1  0  0  0  0
  4 32  1  0  0  0  0
  5  6  1  0  0  0  0
  5  8  1  0  0  0  0
  5 33  1  1  0  0  0
  6  9  1  0  0  0  0
  7  6  2  0  0  0  0
  8 34  1  0  0  0  0
  8 35  1  0  0  0  0
  8 36  1  0  0  0  0
  9 10  1  0  0  0  0
  9 37  1  0  0  0  0
 10 11  1  0  0  0  0
 10 38  1  6  0  0  0
 11 17  1  0  0  0  0
 11 12  2  0  0  0  0
 13 15  1  0  0  0  0
 13 10  1  0  0  0  0
 13 39  1  1  0  0  0
 14 13  1  0  0  0  0
 14 40  1  0  0  0  0
 14 41  1  0  0  0  0
 15 42  1  0  0  0  0
 15 43  1  0  0  0  0
 15 44  1  0  0  0  0
 16 14  1  0  0  0  0
 16 45  1  0  0  0  0
 16 46  1  0  0  0  0
 16 47  1  0  0  0  0
 17 18  1  0  0  0  0
 17 48  1  0  0  0  0
 18 19  1  0  0  0  0
 18 21  1  0  0  0  0
 18 49  1  1  0  0  0
 19 22  1  0  0  0  0
 20 19  2  0  0  0  0
 21 50  1  0  0  0  0
 21 51  1  0  0  0  0
 21 52  1  0  0  0  0
 22 23  1  0  0  0  0
 22 53  1  0  0  0  0
 23 24  1  0  0  0  0
 23 26  1  0  0  0  0
 23 54  1  6  0  0  0
 24 27  1  0  0  0  0
 25 24  2  0  0  0  0
 26 55  1  0  0  0  0
 26 56  1  0  0  0  0
 26 57  1  0  0  0  0
 27 28  1  0  0  0  0
 27 58  1  0  0  0  0
 28 59  1  0  0  0  0
 28 60  1  0  0  0  0
 28 61  1  0  0  0  0
M  END
>  <MODEL>
       0

$$$$
