selected_4mers/AKAL/160_noH.pdb
 OpenBabel03042517503D

 72 71  0  0  1  0  0  0  0  0999 V2000
   45.3540   17.0130   12.6540 C   0  0  0  0  0  0  0  0  0  0  0  0
   46.8080   16.8280   12.2000 C   0  0  0  0  0  0  0  0  0  0  0  0
   47.4800   15.9080   12.6460 O   0  0  0  0  0  0  0  0  0  0  0  0
   47.3060   17.7110   11.3310 N   0  0  0  0  0  0  0  0  0  0  0  0
   48.6860   17.6080   10.8450 C   0  0  2  0  0  0  0  0  0  0  0  0
   49.7010   17.8390   11.9590 C   0  0  0  0  0  0  0  0  0  0  0  0
   50.7160   17.1340   12.0650 O   0  0  0  0  0  0  0  0  0  0  0  0
   48.9230   18.6290    9.6880 C   0  0  0  0  0  0  0  0  0  0  0  0
   49.4390   18.8380   12.7950 N   0  0  0  0  0  0  0  0  0  0  0  0
   50.3410   19.1400   13.8930 C   0  0  2  0  0  0  0  0  0  0  0  0
   50.3330   18.0170   14.9170 C   0  0  0  0  0  0  0  0  0  0  0  0
   51.3770   17.6840   15.4700 O   0  0  0  0  0  0  0  0  0  0  0  0
   49.9510   20.4440   14.5920 C   0  0  0  0  0  0  0  0  0  0  0  0
   50.2380   21.6620   13.7590 C   0  0  0  0  0  0  0  0  0  0  0  0
   49.9120   22.9390   14.5150 C   0  0  0  0  0  0  0  0  0  0  0  0
   50.8770   24.0420   14.1130 C   0  0  0  0  0  0  0  0  0  0  0  0
   50.6100   25.2510   14.9200 N   0  0  0  0  0  0  0  0  0  0  0  0
   49.1640   17.4400   15.1660 N   0  0  0  0  0  0  0  0  0  0  0  0
   49.0780   16.3410   16.1420 C   0  0  2  0  0  0  0  0  0  0  0  0
   49.9130   15.1610   15.6360 C   0  0  0  0  0  0  0  0  0  0  0  0
   50.6580   14.5290   16.3920 O   0  0  0  0  0  0  0  0  0  0  0  0
   47.6340   15.9090   16.3330 C   0  0  0  0  0  0  0  0  0  0  0  0
   49.7720   14.8510   14.3550 N   0  0  0  0  0  0  0  0  0  0  0  0
   50.5240   13.7520   13.7620 C   0  0  2  0  0  0  0  0  0  0  0  0
   52.0140   14.0590   13.8150 C   0  0  0  0  0  0  0  0  0  0  0  0
   52.8400   13.2050   14.1680 O   0  0  0  0  0  0  0  0  0  0  0  0
   50.1020   13.5370   12.3140 C   0  0  0  0  0  0  0  0  0  0  0  0
   51.0130   12.6090   11.5000 C   0  0  0  0  0  0  0  0  0  0  0  0
   50.8550   11.1690   11.9920 C   0  0  0  0  0  0  0  0  0  0  0  0
   50.6670   12.7180   10.0410 C   0  0  0  0  0  0  0  0  0  0  0  0
   52.3730   15.2850   13.4570 N   0  0  0  0  0  0  0  0  0  0  0  0
   53.7660   15.6840   13.4600 C   0  0  0  0  0  0  0  0  0  0  0  0
   44.9316   17.8630   12.1601 H   0  0  0  0  0  0  0  0  0  0  0  0
   45.3276   17.1660   13.7127 H   0  0  0  0  0  0  0  0  0  0  0  0
   44.7889   16.1390   12.4058 H   0  0  0  0  0  0  0  0  0  0  0  0
   46.7353   18.4461   11.0100 H   0  0  0  0  0  0  0  0  0  0  0  0
   48.8263   16.6120   10.4800 H   0  0  0  0  0  0  0  0  0  0  0  0
   48.7821   19.6239   10.0558 H   0  0  0  0  0  0  0  0  0  0  0  0
   48.2279   18.4393    8.8970 H   0  0  0  0  0  0  0  0  0  0  0  0
   49.9215   18.5236    9.3182 H   0  0  0  0  0  0  0  0  0  0  0  0
   48.6259   19.3786   12.6691 H   0  0  0  0  0  0  0  0  0  0  0  0
   51.3208   19.2452   13.4762 H   0  0  0  0  0  0  0  0  0  0  0  0
   48.9031   20.4162   14.8067 H   0  0  0  0  0  0  0  0  0  0  0  0
   50.5380   20.5188   15.4835 H   0  0  0  0  0  0  0  0  0  0  0  0
   51.2753   21.6679   13.4964 H   0  0  0  0  0  0  0  0  0  0  0  0
   49.6251   21.6232   12.8828 H   0  0  0  0  0  0  0  0  0  0  0  0
   49.9969   22.7598   15.5665 H   0  0  0  0  0  0  0  0  0  0  0  0
   48.9136   23.2423   14.2779 H   0  0  0  0  0  0  0  0  0  0  0  0
   50.7457   24.2698   13.0758 H   0  0  0  0  0  0  0  0  0  0  0  0
   51.8816   23.7153   14.2830 H   0  0  0  0  0  0  0  0  0  0  0  0
   49.6524   25.5630   14.7584 H   0  0  0  0  0  0  0  0  0  0  0  0
   51.2586   25.9903   14.6497 H   0  0  0  0  0  0  0  0  0  0  0  0
   48.3541   17.7470   14.6979 H   0  0  0  0  0  0  0  0  0  0  0  0
   49.4552   16.6764   17.0855 H   0  0  0  0  0  0  0  0  0  0  0  0
   47.2369   15.5693   15.3993 H   0  0  0  0  0  0  0  0  0  0  0  0
   47.0572   16.7385   16.6853 H   0  0  0  0  0  0  0  0  0  0  0  0
   47.5910   15.1150   17.0489 H   0  0  0  0  0  0  0  0  0  0  0  0
   49.1503   15.3706   13.7958 H   0  0  0  0  0  0  0  0  0  0  0  0
   50.3206   12.8611   14.3186 H   0  0  0  0  0  0  0  0  0  0  0  0
   49.1176   13.1176   12.3147 H   0  0  0  0  0  0  0  0  0  0  0  0
   50.1571   14.4960   11.8427 H   0  0  0  0  0  0  0  0  0  0  0  0
   52.0345   12.8997   11.6303 H   0  0  0  0  0  0  0  0  0  0  0  0
   49.8380   10.8598   11.8695 H   0  0  0  0  0  0  0  0  0  0  0  0
   51.1223   11.1142   13.0266 H   0  0  0  0  0  0  0  0  0  0  0  0
   51.4942   10.5258   11.4240 H   0  0  0  0  0  0  0  0  0  0  0  0
   49.6470   12.4302    9.8939 H   0  0  0  0  0  0  0  0  0  0  0  0
   51.3050   12.0727    9.4740 H   0  0  0  0  0  0  0  0  0  0  0  0
   50.8028   13.7286    9.7168 H   0  0  0  0  0  0  0  0  0  0  0  0
   51.6832   15.9328   13.1855 H   0  0  0  0  0  0  0  0  0  0  0  0
   54.3718   14.8619   13.7793 H   0  0  0  0  0  0  0  0  0  0  0  0
   53.8998   16.5072   14.1304 H   0  0  0  0  0  0  0  0  0  0  0  0
   54.0550   15.9776   12.4725 H   0  0  0  0  0  0  0  0  0  0  0  0
  1 33  1  0  0  0  0
  1 34  1  0  0  0  0
  1 35  1  0  0  0  0
  2  3  2  0  0  0  0
  2  1  1  0  0  0  0
  4  2  1  0  0  0  0
  4 36  1  0  0  0  0
  5  4  1  0  0  0  0
  5  6  1  0  0  0  0
  5 37  1  6  0  0  0
  6  7  2  0  0  0  0
  6  9  1  0  0  0  0
  8  5  1  0  0  0  0
  8 38  1  0  0  0  0
  8 39  1  0  0  0  0
  8 40  1  0  0  0  0
  9 10  1  0  0  0  0
  9 41  1  0  0  0  0
 10 13  1  0  0  0  0
 10 11  1  0  0  0  0
 10 42  1  6  0  0  0
 11 18  1  0  0  0  0
 11 12  2  0  0  0  0
 13 43  1  0  0  0  0
 13 44  1  0  0  0  0
 14 15  1  0  0  0  0
 14 13  1  0  0  0  0
 14 45  1  0  0  0  0
 14 46  1  0  0  0  0
 15 47  1  0  0  0  0
 15 48  1  0  0  0  0
 16 15  1  0  0  0  0
 16 17  1  0  0  0  0
 16 49  1  0  0  0  0
 16 50  1  0  0  0  0
 17 51  1  0  0  0  0
 17 52  1  0  0  0  0
 18 19  1  0  0  0  0
 18 53  1  0  0  0  0
 19 22  1  0  0  0  0
 19 54  1  1  0  0  0
 20 19  1  0  0  0  0
 20 21  2  0  0  0  0
 22 55  1  0  0  0  0
 22 56  1  0  0  0  0
 22 57  1  0  0  0  0
 23 20  1  0  0  0  0
 23 58  1  0  0  0  0
 24 25  1  0  0  0  0
 24 23  1  0  0  0  0
 24 59  1  1  0  0  0
 25 26  2  0  0  0  0
 27 24  1  0  0  0  0
 27 60  1  0  0  0  0
 27 61  1  0  0  0  0
 28 29  1  0  0  0  0
 28 27  1  0  0  0  0
 28 62  1  0  0  0  0
 29 63  1  0  0  0  0
 29 64  1  0  0  0  0
 29 65  1  0  0  0  0
 30 28  1  0  0  0  0
 30 66  1  0  0  0  0
 30 67  1  0  0  0  0
 30 68  1  0  0  0  0
 31 32  1  0  0  0  0
 31 25  1  0  0  0  0
 31 69  1  0  0  0  0
 32 70  1  0  0  0  0
 32 71  1  0  0  0  0
 32 72  1  0  0  0  0
M  END
>  <MODEL>
       0

$$$$
selected_4mers/AKAL/161_noH.pdb
 OpenBabel03042517503D

 72 71  0  0  1  0  0  0  0  0999 V2000
  -26.1480   -6.8140   94.4710 C   0  0  0  0  0  0  0  0  0  0  0  0
  -25.6900   -7.5710   95.6840 C   0  0  0  0  0  0  0  0  0  0  0  0
  -26.4000   -7.5920   96.7120 O   0  0  0  0  0  0  0  0  0  0  0  0
  -24.5040   -8.1600   95.6430 N   0  0  0  0  0  0  0  0  0  0  0  0
  -23.9410   -8.8830   96.7640 C   0  0  2  0  0  0  0  0  0  0  0  0
  -22.5890   -8.2420   97.0990 C   0  0  0  0  0  0  0  0  0  0  0  0
  -22.3030   -7.1390   96.6230 O   0  0  0  0  0  0  0  0  0  0  0  0
  -23.8550  -10.3770   96.5420 C   0  0  0  0  0  0  0  0  0  0  0  0
  -21.8690   -8.8760   98.0020 N   0  0  0  0  0  0  0  0  0  0  0  0
  -20.6080   -8.3440   98.5110 C   0  0  2  0  0  0  0  0  0  0  0  0
  -19.4710   -9.3300   98.3810 C   0  0  0  0  0  0  0  0  0  0  0  0
  -19.6750  -10.5210   98.6490 O   0  0  0  0  0  0  0  0  0  0  0  0
  -20.8220   -8.0530  100.0150 C   0  0  0  0  0  0  0  0  0  0  0  0
  -21.8350   -6.9210  100.2380 C   0  0  0  0  0  0  0  0  0  0  0  0
  -22.1150   -6.7910  101.7350 C   0  0  0  0  0  0  0  0  0  0  0  0
  -23.1140   -5.6580  101.9670 C   0  0  0  0  0  0  0  0  0  0  0  0
  -23.6710   -5.7510  103.3520 N   0  0  0  0  0  0  0  0  0  0  0  0
  -18.2830   -8.8410   98.0080 N   0  0  0  0  0  0  0  0  0  0  0  0
  -17.1500   -9.7230   97.8570 C   0  0  2  0  0  0  0  0  0  0  0  0
  -15.8330   -9.1060   98.3010 C   0  0  0  0  0  0  0  0  0  0  0  0
  -15.6540   -7.9060   98.4390 O   0  0  0  0  0  0  0  0  0  0  0  0
  -17.0310  -10.1860   96.3970 C   0  0  0  0  0  0  0  0  0  0  0  0
  -14.8670  -10.0020   98.4680 N   0  0  0  0  0  0  0  0  0  0  0  0
  -13.5340   -9.6280   98.9080 C   0  0  2  0  0  0  0  0  0  0  0  0
  -12.5570  -10.6870   98.4280 C   0  0  0  0  0  0  0  0  0  0  0  0
  -12.9070  -11.8650   98.4770 O   0  0  0  0  0  0  0  0  0  0  0  0
  -13.5160   -9.6570  100.4480 C   0  0  0  0  0  0  0  0  0  0  0  0
  -12.1600   -9.3910  101.1080 C   0  0  0  0  0  0  0  0  0  0  0  0
  -11.7120   -7.9630  100.8370 C   0  0  0  0  0  0  0  0  0  0  0  0
  -12.2150   -9.6820  102.6000 C   0  0  0  0  0  0  0  0  0  0  0  0
  -11.3750  -10.2670   98.0390 N   0  0  0  0  0  0  0  0  0  0  0  0
  -10.3300  -11.2130   97.6300 C   0  0  0  0  0  0  0  0  0  0  0  0
  -25.4174   -6.9081   93.6949 H   0  0  0  0  0  0  0  0  0  0  0  0
  -26.2718   -5.7810   94.7209 H   0  0  0  0  0  0  0  0  0  0  0  0
  -27.0812   -7.2134   94.1326 H   0  0  0  0  0  0  0  0  0  0  0  0
  -23.9808   -8.1034   94.8110 H   0  0  0  0  0  0  0  0  0  0  0  0
  -24.5984   -8.7991   97.6041 H   0  0  0  0  0  0  0  0  0  0  0  0
  -23.2116  -10.5776   95.7109 H   0  0  0  0  0  0  0  0  0  0  0  0
  -24.8316  -10.7642   96.3387 H   0  0  0  0  0  0  0  0  0  0  0  0
  -23.4610  -10.8459   97.4194 H   0  0  0  0  0  0  0  0  0  0  0  0
  -22.1929   -9.7397   98.3460 H   0  0  0  0  0  0  0  0  0  0  0  0
  -20.3463   -7.4736   97.9464 H   0  0  0  0  0  0  0  0  0  0  0  0
  -19.8859   -7.7708  100.4498 H   0  0  0  0  0  0  0  0  0  0  0  0
  -21.2074   -8.9395  100.4738 H   0  0  0  0  0  0  0  0  0  0  0  0
  -22.7444   -7.1465   99.7213 H   0  0  0  0  0  0  0  0  0  0  0  0
  -21.4370   -6.0010   99.8636 H   0  0  0  0  0  0  0  0  0  0  0  0
  -21.2032   -6.5745  102.2514 H   0  0  0  0  0  0  0  0  0  0  0  0
  -22.5230   -7.7089  102.1038 H   0  0  0  0  0  0  0  0  0  0  0  0
  -23.9110   -5.7360  101.2574 H   0  0  0  0  0  0  0  0  0  0  0  0
  -22.6168   -4.7180  101.8480 H   0  0  0  0  0  0  0  0  0  0  0  0
  -24.1456   -6.6463  103.4682 H   0  0  0  0  0  0  0  0  0  0  0  0
  -24.3354   -4.9919  103.5030 H   0  0  0  0  0  0  0  0  0  0  0  0
  -18.1810   -7.8770   97.8360 H   0  0  0  0  0  0  0  0  0  0  0  0
  -17.3350  -10.5563   98.5022 H   0  0  0  0  0  0  0  0  0  0  0  0
  -16.8464   -9.3400   95.7685 H   0  0  0  0  0  0  0  0  0  0  0  0
  -17.9422  -10.6605   96.0979 H   0  0  0  0  0  0  0  0  0  0  0  0
  -16.2215  -10.8800   96.3078 H   0  0  0  0  0  0  0  0  0  0  0  0
  -15.0606  -10.9503   98.2878 H   0  0  0  0  0  0  0  0  0  0  0  0
  -13.2733   -8.6615   98.5300 H   0  0  0  0  0  0  0  0  0  0  0  0
  -13.8485  -10.6246  100.7612 H   0  0  0  0  0  0  0  0  0  0  0  0
  -14.1511   -8.8541  100.7594 H   0  0  0  0  0  0  0  0  0  0  0  0
  -11.4368  -10.0529  100.6793 H   0  0  0  0  0  0  0  0  0  0  0  0
  -12.4212   -7.2809  101.2573 H   0  0  0  0  0  0  0  0  0  0  0  0
  -11.6468   -7.8040   99.7809 H   0  0  0  0  0  0  0  0  0  0  0  0
  -10.7528   -7.7995  101.2822 H   0  0  0  0  0  0  0  0  0  0  0  0
  -12.9310   -9.0358  103.0633 H   0  0  0  0  0  0  0  0  0  0  0  0
  -11.2507   -9.5137  103.0320 H   0  0  0  0  0  0  0  0  0  0  0  0
  -12.5020  -10.7012  102.7543 H   0  0  0  0  0  0  0  0  0  0  0  0
  -11.1866   -9.3008   98.0214 H   0  0  0  0  0  0  0  0  0  0  0  0
  -10.7028  -12.2128   97.7099 H   0  0  0  0  0  0  0  0  0  0  0  0
   -9.4768  -11.0987   98.2656 H   0  0  0  0  0  0  0  0  0  0  0  0
  -10.0485  -11.0172   96.6164 H   0  0  0  0  0  0  0  0  0  0  0  0
  1  2  1  0  0  0  0
  1 33  1  0  0  0  0
  1 34  1  0  0  0  0
  1 35  1  0  0  0  0
  2  3  2  0  0  0  0
  4  2  1  0  0  0  0
  4  5  1  0  0  0  0
  4 36  1  0  0  0  0
  5  6  1  0  0  0  0
  5 37  1  1  0  0  0
  6  9  1  0  0  0  0
  7  6  2  0  0  0  0
  8  5  1  0  0  0  0
  8 38  1  0  0  0  0
  8 39  1  0  0  0  0
  8 40  1  0  0  0  0
  9 10  1  0  0  0  0
  9 41  1  0  0  0  0
 10 13  1  0  0  0  0
 10 42  1  6  0  0  0
 11 10  1  0  0  0  0
 11 12  2  0  0  0  0
 13 14  1  0  0  0  0
 13 43  1  0  0  0  0
 13 44  1  0  0  0  0
 14 15  1  0  0  0  0
 14 45  1  0  0  0  0
 14 46  1  0  0  0  0
 15 16  1  0  0  0  0
 15 47  1  0  0  0  0
 15 48  1  0  0  0  0
 16 17  1  0  0  0  0
 16 49  1  0  0  0  0
 16 50  1  0  0  0  0
 17 51  1  0  0  0  0
 17 52  1  0  0  0  0
 18 11  1  0  0  0  0
 18 53  1  0  0  0  0
 19 18  1  0  0  0  0
 19 20  1  0  0  0  0
 19 54  1  1  0  0  0
 20 21  2  0  0  0  0
 20 23  1  0  0  0  0
 22 19  1  0  0  0  0
 22 55  1  0  0  0  0
 22 56  1  0  0  0  0
 22 57  1  0  0  0  0
 23 24  1  0  0  0  0
 23 58  1  0  0  0  0
 24 27  1  0  0  0  0
 24 59  1  6  0  0  0
 25 26  2  0  0  0  0
 25 24  1  0  0  0  0
 27 28  1  0  0  0  0
 27 60  1  0  0  0  0
 27 61  1  0  0  0  0
 28 30  1  0  0  0  0
 28 62  1  0  0  0  0
 29 28  1  0  0  0  0
 29 63  1  0  0  0  0
 29 64  1  0  0  0  0
 29 65  1  0  0  0  0
 30 66  1  0  0  0  0
 30 67  1  0  0  0  0
 30 68  1  0  0  0  0
 31 25  1  0  0  0  0
 31 69  1  0  0  0  0
 32 31  1  0  0  0  0
 32 70  1  0  0  0  0
 32 71  1  0  0  0  0
 32 72  1  0  0  0  0
M  END
>  <MODEL>
       0

$$$$
selected_4mers/AKAL/162_noH.pdb
 OpenBabel03042517503D

 72 71  0  0  1  0  0  0  0  0999 V2000
   71.8760   65.8650   21.6290 C   0  0  0  0  0  0  0  0  0  0  0  0
   72.7320   66.7720   20.7660 C   0  0  0  0  0  0  0  0  0  0  0  0
   72.3200   67.8650   20.3780 O   0  0  0  0  0  0  0  0  0  0  0  0
   73.9280   66.2820   20.4410 N   0  0  0  0  0  0  0  0  0  0  0  0
   74.9100   67.0420   19.6750 C   0  0  2  0  0  0  0  0  0  0  0  0
   74.9980   66.8260   18.1630 C   0  0  0  0  0  0  0  0  0  0  0  0
   76.0810   66.9570   17.5890 O   0  0  0  0  0  0  0  0  0  0  0  0
   76.2930   66.8300   20.3010 C   0  0  0  0  0  0  0  0  0  0  0  0
   73.8830   66.5190   17.5110 N   0  0  0  0  0  0  0  0  0  0  0  0
   73.9120   66.3220   16.0630 C   0  0  2  0  0  0  0  0  0  0  0  0
   74.1690   67.6390   15.3320 C   0  0  0  0  0  0  0  0  0  0  0  0
   74.8360   67.6660   14.2960 O   0  0  0  0  0  0  0  0  0  0  0  0
   72.5940   65.7120   15.5730 C   0  0  0  0  0  0  0  0  0  0  0  0
   72.4000   64.2520   15.9570 C   0  0  0  0  0  0  0  0  0  0  0  0
   71.1240   63.6910   15.3450 C   0  0  0  0  0  0  0  0  0  0  0  0
   70.9290   62.2270   15.7050 C   0  0  0  0  0  0  0  0  0  0  0  0
   69.7010   61.6600   15.0800 N   0  0  0  0  0  0  0  0  0  0  0  0
   73.6430   68.7310   15.8810 N   0  0  0  0  0  0  0  0  0  0  0  0
   73.8070   70.0540   15.2890 C   0  0  2  0  0  0  0  0  0  0  0  0
   73.4620   71.1200   16.3200 C   0  0  0  0  0  0  0  0  0  0  0  0
   72.8360   70.8230   17.3390 O   0  0  0  0  0  0  0  0  0  0  0  0
   72.9040   70.1980   14.0730 C   0  0  0  0  0  0  0  0  0  0  0  0
   73.8650   72.3580   16.0590 N   0  0  0  0  0  0  0  0  0  0  0  0
   73.5720   73.4340   16.9920 C   0  0  2  0  0  0  0  0  0  0  0  0
   72.7960   74.6070   16.4010 C   0  0  0  0  0  0  0  0  0  0  0  0
   72.9820   75.7560   16.7940 O   0  0  0  0  0  0  0  0  0  0  0  0
   74.8590   73.9100   17.6790 C   0  0  0  0  0  0  0  0  0  0  0  0
   75.2960   72.9800   18.8200 C   0  0  0  0  0  0  0  0  0  0  0  0
   76.6460   73.4100   19.3750 C   0  0  0  0  0  0  0  0  0  0  0  0
   74.2350   73.0010   19.9240 C   0  0  0  0  0  0  0  0  0  0  0  0
   71.9350   74.3100   15.4330 N   0  0  0  0  0  0  0  0  0  0  0  0
   71.0890   75.3530   14.8870 C   0  0  0  0  0  0  0  0  0  0  0  0
   70.9420   66.3451   21.8340 H   0  0  0  0  0  0  0  0  0  0  0  0
   72.3838   65.6651   22.5494 H   0  0  0  0  0  0  0  0  0  0  0  0
   71.6983   64.9449   21.1125 H   0  0  0  0  0  0  0  0  0  0  0  0
   74.1584   65.3694   20.7297 H   0  0  0  0  0  0  0  0  0  0  0  0
   74.5499   68.0472   19.7439 H   0  0  0  0  0  0  0  0  0  0  0  0
   76.5806   65.8052   20.1918 H   0  0  0  0  0  0  0  0  0  0  0  0
   76.2563   67.0813   21.3404 H   0  0  0  0  0  0  0  0  0  0  0  0
   77.0074   67.4555   19.8078 H   0  0  0  0  0  0  0  0  0  0  0  0
   73.0358   66.4239   18.0033 H   0  0  0  0  0  0  0  0  0  0  0  0
   74.7137   65.6474   15.8460 H   0  0  0  0  0  0  0  0  0  0  0  0
   71.7872   66.2783   15.9893 H   0  0  0  0  0  0  0  0  0  0  0  0
   72.6180   65.7476   14.5039 H   0  0  0  0  0  0  0  0  0  0  0  0
   73.2357   63.6838   15.6054 H   0  0  0  0  0  0  0  0  0  0  0  0
   72.3238   64.1873   17.0223 H   0  0  0  0  0  0  0  0  0  0  0  0
   70.2885   64.2524   15.7080 H   0  0  0  0  0  0  0  0  0  0  0  0
   71.2012   63.7671   14.2805 H   0  0  0  0  0  0  0  0  0  0  0  0
   71.7781   61.6713   15.3657 H   0  0  0  0  0  0  0  0  0  0  0  0
   70.8225   62.1581   16.7675 H   0  0  0  0  0  0  0  0  0  0  0  0
   69.7799   61.7150   14.0645 H   0  0  0  0  0  0  0  0  0  0  0  0
   68.8866   62.1918   15.3871 H   0  0  0  0  0  0  0  0  0  0  0  0
   73.1261   68.6431   16.7143 H   0  0  0  0  0  0  0  0  0  0  0  0
   74.8239   70.1764   14.9796 H   0  0  0  0  0  0  0  0  0  0  0  0
   71.8833   70.0774   14.3704 H   0  0  0  0  0  0  0  0  0  0  0  0
   73.1559   69.4496   13.3510 H   0  0  0  0  0  0  0  0  0  0  0  0
   73.0377   71.1683   13.6423 H   0  0  0  0  0  0  0  0  0  0  0  0
   74.3635   72.5478   15.2315 H   0  0  0  0  0  0  0  0  0  0  0  0
   72.9088   73.0110   17.7174 H   0  0  0  0  0  0  0  0  0  0  0  0
   74.6927   74.8885   18.0787 H   0  0  0  0  0  0  0  0  0  0  0  0
   75.6375   73.9115   16.9450 H   0  0  0  0  0  0  0  0  0  0  0  0
   75.3957   71.9841   18.4417 H   0  0  0  0  0  0  0  0  0  0  0  0
   76.5725   74.4055   19.7604 H   0  0  0  0  0  0  0  0  0  0  0  0
   77.3775   73.3828   18.5946 H   0  0  0  0  0  0  0  0  0  0  0  0
   76.9373   72.7441   20.1602 H   0  0  0  0  0  0  0  0  0  0  0  0
   74.1344   73.9965   20.3031 H   0  0  0  0  0  0  0  0  0  0  0  0
   74.5317   72.3459   20.7163 H   0  0  0  0  0  0  0  0  0  0  0  0
   73.2976   72.6753   19.5240 H   0  0  0  0  0  0  0  0  0  0  0  0
   71.8723   73.3894   15.0897 H   0  0  0  0  0  0  0  0  0  0  0  0
   71.2990   76.2781   15.3819 H   0  0  0  0  0  0  0  0  0  0  0  0
   70.0617   75.0937   15.0364 H   0  0  0  0  0  0  0  0  0  0  0  0
   71.2819   75.4570   13.8397 H   0  0  0  0  0  0  0  0  0  0  0  0
  1 33  1  0  0  0  0
  1 34  1  0  0  0  0
  1 35  1  0  0  0  0
  2  1  1  0  0  0  0
  3  2  2  0  0  0  0
  4  2  1  0  0  0  0
  4 36  1  0  0  0  0
  5  8  1  0  0  0  0
  5  4  1  0  0  0  0
  5 37  1  1  0  0  0
  6  5  1  0  0  0  0
  7  6  2  0  0  0  0
  8 38  1  0  0  0  0
  8 39  1  0  0  0  0
  8 40  1  0  0  0  0
  9  6  1  0  0  0  0
  9 41  1  0  0  0  0
 10  9  1  0  0  0  0
 10 42  1  6  0  0  0
 11 18  1  0  0  0  0
 11 10  1  0  0  0  0
 12 11  2  0  0  0  0
 13 14  1  0  0  0  0
 13 10  1  0  0  0  0
 13 43  1  0  0  0  0
 13 44  1  0  0  0  0
 14 45  1  0  0  0  0
 14 46  1  0  0  0  0
 15 16  1  0  0  0  0
 15 14  1  0  0  0  0
 15 47  1  0  0  0  0
 15 48  1  0  0  0  0
 16 49  1  0  0  0  0
 16 50  1  0  0  0  0
 17 16  1  0  0  0  0
 17 51  1  0  0  0  0
 17 52  1  0  0  0  0
 18 53  1  0  0  0  0
 19 18  1  0  0  0  0
 19 20  1  0  0  0  0
 19 54  1  6  0  0  0
 20 21  2  0  0  0  0
 22 19  1  0  0  0  0
 22 55  1  0  0  0  0
 22 56  1  0  0  0  0
 22 57  1  0  0  0  0
 23 20  1  0  0  0  0
 23 24  1  0  0  0  0
 23 58  1  0  0  0  0
 24 27  1  0  0  0  0
 24 59  1  1  0  0  0
 25 26  2  0  0  0  0
 25 24  1  0  0  0  0
 27 28  1  0  0  0  0
 27 60  1  0  0  0  0
 27 61  1  0  0  0  0
 28 29  1  0  0  0  0
 28 30  1  0  0  0  0
 28 62  1  0  0  0  0
 29 63  1  0  0  0  0
 29 64  1  0  0  0  0
 29 65  1  0  0  0  0
 30 66  1  0  0  0  0
 30 67  1  0  0  0  0
 30 68  1  0  0  0  0
 31 25  1  0  0  0  0
 31 69  1  0  0  0  0
 32 31  1  0  0  0  0
 32 70  1  0  0  0  0
 32 71  1  0  0  0  0
 32 72  1  0  0  0  0
M  END
>  <MODEL>
       0

$$$$
selected_4mers/AKAL/163_noH.pdb
 OpenBabel03042517503D

 72 71  0  0  1  0  0  0  0  0999 V2000
   77.0220  202.3030  141.5760 C   0  0  0  0  0  0  0  0  0  0  0  0
   78.2190  201.3760  141.7370 C   0  0  0  0  0  0  0  0  0  0  0  0
   78.8670  201.0170  140.7640 O   0  0  0  0  0  0  0  0  0  0  0  0
   78.4820  200.9760  142.9720 N   0  0  0  0  0  0  0  0  0  0  0  0
   79.5710  200.0530  143.2330 C   0  0  2  0  0  0  0  0  0  0  0  0
   79.3180  198.6820  142.6240 C   0  0  0  0  0  0  0  0  0  0  0  0
   80.1920  198.1140  141.9800 O   0  0  0  0  0  0  0  0  0  0  0  0
   79.8530  199.9610  144.7230 C   0  0  0  0  0  0  0  0  0  0  0  0
   78.1110  198.1590  142.7800 N   0  0  0  0  0  0  0  0  0  0  0  0
   77.8160  196.8580  142.2020 C   0  0  2  0  0  0  0  0  0  0  0  0
   77.9390  196.8650  140.6850 C   0  0  0  0  0  0  0  0  0  0  0  0
   78.1990  195.8340  140.0820 O   0  0  0  0  0  0  0  0  0  0  0  0
   76.4400  196.3670  142.6170 C   0  0  0  0  0  0  0  0  0  0  0  0
   76.3080  196.0780  144.1050 C   0  0  0  0  0  0  0  0  0  0  0  0
   74.8400  195.8390  144.4870 C   0  0  0  0  0  0  0  0  0  0  0  0
   74.6790  195.1610  145.8250 C   0  0  0  0  0  0  0  0  0  0  0  0
   73.2230  195.0360  146.1460 N   0  0  0  0  0  0  0  0  0  0  0  0
   77.6360  198.0020  140.0760 N   0  0  0  0  0  0  0  0  0  0  0  0
   77.5830  198.1100  138.6330 C   0  0  2  0  0  0  0  0  0  0  0  0
   78.9970  198.2500  138.0700 C   0  0  0  0  0  0  0  0  0  0  0  0
   79.1980  198.1370  136.8630 O   0  0  0  0  0  0  0  0  0  0  0  0
   76.6980  199.3030  138.2400 C   0  0  0  0  0  0  0  0  0  0  0  0
   80.0050  198.4360  138.9230 N   0  0  0  0  0  0  0  0  0  0  0  0
   81.3520  198.6850  138.4050 C   0  0  2  0  0  0  0  0  0  0  0  0
   81.9290  197.3670  137.9120 C   0  0  0  0  0  0  0  0  0  0  0  0
   81.8160  196.3510  138.5860 O   0  0  0  0  0  0  0  0  0  0  0  0
   82.2690  199.2940  139.4810 C   0  0  0  0  0  0  0  0  0  0  0  0
   83.6560  199.7530  139.0380 C   0  0  0  0  0  0  0  0  0  0  0  0
   83.6050  201.0600  138.2110 C   0  0  0  0  0  0  0  0  0  0  0  0
   84.4960  199.9320  140.2960 C   0  0  0  0  0  0  0  0  0  0  0  0
   82.4620  197.3370  136.6980 N   0  0  0  0  0  0  0  0  0  0  0  0
   83.0680  196.0950  136.2300 C   0  0  0  0  0  0  0  0  0  0  0  0
   76.9058  202.5594  140.5437 H   0  0  0  0  0  0  0  0  0  0  0  0
   77.1803  203.1928  142.1489 H   0  0  0  0  0  0  0  0  0  0  0  0
   76.1387  201.8083  141.9223 H   0  0  0  0  0  0  0  0  0  0  0  0
   77.9339  201.3078  143.7195 H   0  0  0  0  0  0  0  0  0  0  0  0
   80.4450  200.4424  142.7541 H   0  0  0  0  0  0  0  0  0  0  0  0
   78.9917  199.5732  145.2257 H   0  0  0  0  0  0  0  0  0  0  0  0
   80.0800  200.9348  145.1038 H   0  0  0  0  0  0  0  0  0  0  0  0
   80.6859  199.3101  144.8888 H   0  0  0  0  0  0  0  0  0  0  0  0
   77.4196  198.6471  143.2830 H   0  0  0  0  0  0  0  0  0  0  0  0
   78.5489  196.1794  142.5858 H   0  0  0  0  0  0  0  0  0  0  0  0
   76.2280  195.4665  142.0794 H   0  0  0  0  0  0  0  0  0  0  0  0
   75.7502  197.1536  142.3924 H   0  0  0  0  0  0  0  0  0  0  0  0
   76.6829  196.9131  144.6590 H   0  0  0  0  0  0  0  0  0  0  0  0
   76.8694  195.1963  144.3338 H   0  0  0  0  0  0  0  0  0  0  0  0
   74.3889  195.2235  143.7370 H   0  0  0  0  0  0  0  0  0  0  0  0
   74.3685  196.7970  144.5562 H   0  0  0  0  0  0  0  0  0  0  0  0
   75.1626  195.7436  146.5810 H   0  0  0  0  0  0  0  0  0  0  0  0
   75.1221  194.1877  145.7884 H   0  0  0  0  0  0  0  0  0  0  0  0
   72.8016  195.9642  146.1806 H   0  0  0  0  0  0  0  0  0  0  0  0
   73.1124  194.5784  147.0509 H   0  0  0  0  0  0  0  0  0  0  0  0
   77.4409  198.7980  140.6214 H   0  0  0  0  0  0  0  0  0  0  0  0
   77.1519  197.2235  138.2169 H   0  0  0  0  0  0  0  0  0  0  0  0
   77.1110  200.2026  138.6463 H   0  0  0  0  0  0  0  0  0  0  0  0
   75.7109  199.1574  138.6264 H   0  0  0  0  0  0  0  0  0  0  0  0
   76.6559  199.3798  137.1736 H   0  0  0  0  0  0  0  0  0  0  0  0
   79.8448  198.4061  139.8939 H   0  0  0  0  0  0  0  0  0  0  0  0
   81.2911  199.3906  137.6030 H   0  0  0  0  0  0  0  0  0  0  0  0
   82.4028  198.5566  140.2447 H   0  0  0  0  0  0  0  0  0  0  0  0
   81.7703  200.1872  139.7947 H   0  0  0  0  0  0  0  0  0  0  0  0
   84.0892  199.0183  138.3919 H   0  0  0  0  0  0  0  0  0  0  0  0
   83.1783  201.8413  138.8047 H   0  0  0  0  0  0  0  0  0  0  0  0
   83.0049  200.9068  137.3385 H   0  0  0  0  0  0  0  0  0  0  0  0
   84.5965  201.3356  137.9180 H   0  0  0  0  0  0  0  0  0  0  0  0
   84.0436  200.6700  140.9249 H   0  0  0  0  0  0  0  0  0  0  0  0
   85.4811  200.2498  140.0249 H   0  0  0  0  0  0  0  0  0  0  0  0
   84.5534  199.0019  140.8219 H   0  0  0  0  0  0  0  0  0  0  0  0
   82.4490  198.1368  136.1240 H   0  0  0  0  0  0  0  0  0  0  0  0
   82.9832  195.3478  136.9912 H   0  0  0  0  0  0  0  0  0  0  0  0
   84.1013  196.2634  136.0091 H   0  0  0  0  0  0  0  0  0  0  0  0
   82.5639  195.7630  135.3465 H   0  0  0  0  0  0  0  0  0  0  0  0
  1  2  1  0  0  0  0
  1 33  1  0  0  0  0
  1 34  1  0  0  0  0
  1 35  1  0  0  0  0
  2  4  1  0  0  0  0
  3  2  2  0  0  0  0
  4  5  1  0  0  0  0
  4 36  1  0  0  0  0
  5  8  1  0  0  0  0
  5 37  1  6  0  0  0
  6  9  1  0  0  0  0
  6  5  1  0  0  0  0
  7  6  2  0  0  0  0
  8 38  1  0  0  0  0
  8 39  1  0  0  0  0
  8 40  1  0  0  0  0
  9 41  1  0  0  0  0
 10 13  1  0  0  0  0
 10  9  1  0  0  0  0
 10 42  1  1  0  0  0
 11 10  1  0  0  0  0
 12 11  2  0  0  0  0
 13 14  1  0  0  0  0
 13 43  1  0  0  0  0
 13 44  1  0  0  0  0
 14 15  1  0  0  0  0
 14 45  1  0  0  0  0
 14 46  1  0  0  0  0
 15 16  1  0  0  0  0
 15 47  1  0  0  0  0
 15 48  1  0  0  0  0
 16 17  1  0  0  0  0
 16 49  1  0  0  0  0
 16 50  1  0  0  0  0
 17 51  1  0  0  0  0
 17 52  1  0  0  0  0
 18 11  1  0  0  0  0
 18 53  1  0  0  0  0
 19 18  1  0  0  0  0
 19 54  1  6  0  0  0
 20 19  1  0  0  0  0
 20 23  1  0  0  0  0
 21 20  2  0  0  0  0
 22 19  1  0  0  0  0
 22 55  1  0  0  0  0
 22 56  1  0  0  0  0
 22 57  1  0  0  0  0
 23 58  1  0  0  0  0
 24 23  1  0  0  0  0
 24 27  1  0  0  0  0
 24 59  1  6  0  0  0
 25 24  1  0  0  0  0
 25 26  2  0  0  0  0
 27 60  1  0  0  0  0
 27 61  1  0  0  0  0
 28 27  1  0  0  0  0
 28 30  1  0  0  0  0
 28 62  1  0  0  0  0
 29 28  1  0  0  0  0
 29 63  1  0  0  0  0
 29 64  1  0  0  0  0
 29 65  1  0  0  0  0
 30 66  1  0  0  0  0
 30 67  1  0  0  0  0
 30 68  1  0  0  0  0
 31 25  1  0  0  0  0
 31 69  1  0  0  0  0
 32 31  1  0  0  0  0
 32 70  1  0  0  0  0
 32 71  1  0  0  0  0
 32 72  1  0  0  0  0
M  END
>  <MODEL>
       0

$$$$
selected_4mers/AKAL/164_noH.pdb
 OpenBabel03042517503D

 72 71  0  0  1  0  0  0  0  0999 V2000
   29.6150   46.6970   82.2030 C   0  0  0  0  0  0  0  0  0  0  0  0
   29.6840   46.1780   80.7630 C   0  0  0  0  0  0  0  0  0  0  0  0
   30.4550   45.2620   80.4740 O   0  0  0  0  0  0  0  0  0  0  0  0
   28.8840   46.7620   79.8690 N   0  0  0  0  0  0  0  0  0  0  0  0
   28.8070   46.3070   78.4770 C   0  0  2  0  0  0  0  0  0  0  0  0
   30.0460   46.6870   77.6720 C   0  0  0  0  0  0  0  0  0  0  0  0
   30.2070   47.8360   77.2520 O   0  0  0  0  0  0  0  0  0  0  0  0
   27.5510   46.8250   77.8060 C   0  0  0  0  0  0  0  0  0  0  0  0
   30.9020   45.6960   77.4500 N   0  0  0  0  0  0  0  0  0  0  0  0
   32.1810   45.8720   76.7660 C   0  0  2  0  0  0  0  0  0  0  0  0
   32.0260   46.2640   75.2920 C   0  0  0  0  0  0  0  0  0  0  0  0
   32.7560   47.1260   74.7900 O   0  0  0  0  0  0  0  0  0  0  0  0
   32.9950   44.5740   76.8630 C   0  0  0  0  0  0  0  0  0  0  0  0
   33.1410   44.0270   78.2780 C   0  0  0  0  0  0  0  0  0  0  0  0
   33.8030   42.6520   78.2910 C   0  0  0  0  0  0  0  0  0  0  0  0
   34.1360   42.2140   79.7120 C   0  0  0  0  0  0  0  0  0  0  0  0
   34.4960   40.7640   79.7750 N   0  0  0  0  0  0  0  0  0  0  0  0
   31.0790   45.6350   74.6050 N   0  0  0  0  0  0  0  0  0  0  0  0
   30.9410   45.8230   73.1620 C   0  0  2  0  0  0  0  0  0  0  0  0
   29.6840   46.6250   72.8050 C   0  0  0  0  0  0  0  0  0  0  0  0
   28.9780   46.3140   71.8440 O   0  0  0  0  0  0  0  0  0  0  0  0
   30.9600   44.4800   72.4590 C   0  0  0  0  0  0  0  0  0  0  0  0
   29.4230   47.6610   73.5930 N   0  0  0  0  0  0  0  0  0  0  0  0
   28.2990   48.5680   73.3750 C   0  0  2  0  0  0  0  0  0  0  0  0
   28.8260   49.8720   72.7880 C   0  0  0  0  0  0  0  0  0  0  0  0
   29.7590   50.4580   73.3270 O   0  0  0  0  0  0  0  0  0  0  0  0
   27.5850   48.8380   74.7040 C   0  0  0  0  0  0  0  0  0  0  0  0
   26.3200   49.7080   74.8760 C   0  0  0  0  0  0  0  0  0  0  0  0
   26.5370   51.1920   74.5460 C   0  0  0  0  0  0  0  0  0  0  0  0
   25.1020   49.1600   74.1500 C   0  0  0  0  0  0  0  0  0  0  0  0
   28.2280   50.3330   71.6950 N   0  0  0  0  0  0  0  0  0  0  0  0
   28.7280   51.5240   71.0100 C   0  0  0  0  0  0  0  0  0  0  0  0
   28.8957   47.4869   82.2634 H   0  0  0  0  0  0  0  0  0  0  0  0
   30.5757   47.0663   82.4954 H   0  0  0  0  0  0  0  0  0  0  0  0
   29.3254   45.9002   82.8558 H   0  0  0  0  0  0  0  0  0  0  0  0
   28.3275   47.5229   80.1530 H   0  0  0  0  0  0  0  0  0  0  0  0
   28.7646   45.2381   78.5022 H   0  0  0  0  0  0  0  0  0  0  0  0
   27.5791   47.8941   77.7734 H   0  0  0  0  0  0  0  0  0  0  0  0
   26.6932   46.5075   78.3612 H   0  0  0  0  0  0  0  0  0  0  0  0
   27.4939   46.4391   76.8096 H   0  0  0  0  0  0  0  0  0  0  0  0
   30.6617   44.7941   77.7633 H   0  0  0  0  0  0  0  0  0  0  0  0
   32.6875   46.6782   77.2542 H   0  0  0  0  0  0  0  0  0  0  0  0
   33.9739   44.7630   76.4746 H   0  0  0  0  0  0  0  0  0  0  0  0
   32.4599   43.8353   76.3036 H   0  0  0  0  0  0  0  0  0  0  0  0
   32.1698   43.9476   78.7201 H   0  0  0  0  0  0  0  0  0  0  0  0
   33.7627   44.6997   78.8311 H   0  0  0  0  0  0  0  0  0  0  0  0
   34.7057   42.6939   77.7181 H   0  0  0  0  0  0  0  0  0  0  0  0
   33.1209   41.9436   77.8692 H   0  0  0  0  0  0  0  0  0  0  0  0
   33.2846   42.3871   80.3365 H   0  0  0  0  0  0  0  0  0  0  0  0
   34.9793   42.7814   80.0464 H   0  0  0  0  0  0  0  0  0  0  0  0
   33.7045   40.2032   79.4598 H   0  0  0  0  0  0  0  0  0  0  0  0
   34.7294   40.5130   80.7357 H   0  0  0  0  0  0  0  0  0  0  0  0
   30.4595   45.0319   75.0758 H   0  0  0  0  0  0  0  0  0  0  0  0
   31.7762   46.3987   72.8215 H   0  0  0  0  0  0  0  0  0  0  0  0
   30.1293   43.8924   72.7900 H   0  0  0  0  0  0  0  0  0  0  0  0
   31.8720   43.9698   72.6891 H   0  0  0  0  0  0  0  0  0  0  0  0
   30.8922   44.6299   71.4017 H   0  0  0  0  0  0  0  0  0  0  0  0
   30.0157   47.8260   74.3616 H   0  0  0  0  0  0  0  0  0  0  0  0
   27.6003   48.1260   72.6958 H   0  0  0  0  0  0  0  0  0  0  0  0
   28.3236   49.2822   75.3381 H   0  0  0  0  0  0  0  0  0  0  0  0
   27.1773   47.8686   74.9012 H   0  0  0  0  0  0  0  0  0  0  0  0
   26.1128   49.6523   75.9243 H   0  0  0  0  0  0  0  0  0  0  0  0
   26.7485   51.2981   73.5025 H   0  0  0  0  0  0  0  0  0  0  0  0
   27.3604   51.5676   75.1168 H   0  0  0  0  0  0  0  0  0  0  0  0
   25.6533   51.7443   74.7887 H   0  0  0  0  0  0  0  0  0  0  0  0
   25.2692   49.1982   73.0938 H   0  0  0  0  0  0  0  0  0  0  0  0
   24.2442   49.7500   74.3969 H   0  0  0  0  0  0  0  0  0  0  0  0
   24.9353   48.1460   74.4483 H   0  0  0  0  0  0  0  0  0  0  0  0
   27.4368   49.8660   71.3412 H   0  0  0  0  0  0  0  0  0  0  0  0
   29.5863   51.8990   71.5273 H   0  0  0  0  0  0  0  0  0  0  0  0
   27.9647   52.2737   70.9951 H   0  0  0  0  0  0  0  0  0  0  0  0
   28.9989   51.2708   70.0063 H   0  0  0  0  0  0  0  0  0  0  0  0
  1 33  1  0  0  0  0
  1 34  1  0  0  0  0
  1 35  1  0  0  0  0
  2  1  1  0  0  0  0
  3  2  2  0  0  0  0
  4  2  1  0  0  0  0
  4 36  1  0  0  0  0
  5  4  1  0  0  0  0
  5 37  1  1  0  0  0
  6  5  1  0  0  0  0
  7  6  2  0  0  0  0
  8  5  1  0  0  0  0
  8 38  1  0  0  0  0
  8 39  1  0  0  0  0
  8 40  1  0  0  0  0
  9  6  1  0  0  0  0
  9 41  1  0  0  0  0
 10 13  1  0  0  0  0
 10  9  1  0  0  0  0
 10 42  1  1  0  0  0
 11 10  1  0  0  0  0
 12 11  2  0  0  0  0
 13 14  1  0  0  0  0
 13 43  1  0  0  0  0
 13 44  1  0  0  0  0
 14 15  1  0  0  0  0
 14 45  1  0  0  0  0
 14 46  1  0  0  0  0
 15 16  1  0  0  0  0
 15 47  1  0  0  0  0
 15 48  1  0  0  0  0
 16 17  1  0  0  0  0
 16 49  1  0  0  0  0
 16 50  1  0  0  0  0
 17 51  1  0  0  0  0
 17 52  1  0  0  0  0
 18 11  1  0  0  0  0
 18 53  1  0  0  0  0
 19 18  1  0  0  0  0
 19 54  1  6  0  0  0
 20 19  1  0  0  0  0
 20 23  1  0  0  0  0
 21 20  2  0  0  0  0
 22 19  1  0  0  0  0
 22 55  1  0  0  0  0
 22 56  1  0  0  0  0
 22 57  1  0  0  0  0
 23 58  1  0  0  0  0
 24 23  1  0  0  0  0
 24 27  1  0  0  0  0
 24 59  1  6  0  0  0
 25 26  2  0  0  0  0
 25 24  1  0  0  0  0
 27 28  1  0  0  0  0
 27 60  1  0  0  0  0
 27 61  1  0  0  0  0
 28 62  1  0  0  0  0
 29 28  1  0  0  0  0
 29 63  1  0  0  0  0
 29 64  1  0  0  0  0
 29 65  1  0  0  0  0
 30 28  1  0  0  0  0
 30 66  1  0  0  0  0
 30 67  1  0  0  0  0
 30 68  1  0  0  0  0
 31 25  1  0  0  0  0
 31 69  1  0  0  0  0
 32 31  1  0  0  0  0
 32 70  1  0  0  0  0
 32 71  1  0  0  0  0
 32 72  1  0  0  0  0
M  END
>  <MODEL>
       0

$$$$
