selected_4mers/ALAA/10_noH.pdb
 OpenBabel03042517493D

 61 60  0  0  1  0  0  0  0  0999 V2000
    1.7490   12.4170   45.1390 C   0  0  0  0  0  0  0  0  0  0  0  0
    1.5400   13.3330   43.9510 C   0  0  0  0  0  0  0  0  0  0  0  0
    1.6090   12.8820   42.8060 O   0  0  0  0  0  0  0  0  0  0  0  0
    1.2990   14.6180   44.2180 N   0  0  0  0  0  0  0  0  0  0  0  0
    1.1070   15.5830   43.1400 C   0  0  2  0  0  0  0  0  0  0  0  0
    2.4020   15.7310   42.3460 C   0  0  0  0  0  0  0  0  0  0  0  0
    2.3770   15.8010   41.1140 O   0  0  0  0  0  0  0  0  0  0  0  0
    0.6730   16.9360   43.7080 C   0  0  0  0  0  0  0  0  0  0  0  0
    3.5320   15.7960   43.0510 N   0  0  0  0  0  0  0  0  0  0  0  0
    4.8270   15.9080   42.3880 C   0  0  2  0  0  0  0  0  0  0  0  0
    5.0800   14.6800   41.5130 C   0  0  0  0  0  0  0  0  0  0  0  0
    5.5680   14.7920   40.3820 O   0  0  0  0  0  0  0  0  0  0  0  0
    5.9450   16.0420   43.4260 C   0  0  0  0  0  0  0  0  0  0  0  0
    5.9170   17.3180   44.2830 C   0  0  0  0  0  0  0  0  0  0  0  0
    7.0340   17.2640   45.3290 C   0  0  0  0  0  0  0  0  0  0  0  0
    6.0810   18.5380   43.3900 C   0  0  0  0  0  0  0  0  0  0  0  0
    4.7600   13.5060   42.0500 N   0  0  0  0  0  0  0  0  0  0  0  0
    4.9520   12.2540   41.3160 C   0  0  2  0  0  0  0  0  0  0  0  0
    4.0730   12.2390   40.0780 C   0  0  0  0  0  0  0  0  0  0  0  0
    4.5210   11.8200   38.9980 O   0  0  0  0  0  0  0  0  0  0  0  0
    4.6160   11.0510   42.2230 C   0  0  0  0  0  0  0  0  0  0  0  0
    2.8290   12.6920   40.2210 N   0  0  0  0  0  0  0  0  0  0  0  0
    1.9020   12.7240   39.0840 C   0  0  2  0  0  0  0  0  0  0  0  0
    2.4130   13.7010   38.0350 C   0  0  0  0  0  0  0  0  0  0  0  0
    2.2890   13.4580   36.8310 O   0  0  0  0  0  0  0  0  0  0  0  0
    0.5040   13.1410   39.5400 C   0  0  0  0  0  0  0  0  0  0  0  0
    2.9670   14.8220   38.4850 N   0  0  0  0  0  0  0  0  0  0  0  0
    3.4920   15.8130   37.5430 C   0  0  0  0  0  0  0  0  0  0  0  0
    1.9321   11.4210   44.7935 H   0  0  0  0  0  0  0  0  0  0  0  0
    0.8738   12.4258   45.7545 H   0  0  0  0  0  0  0  0  0  0  0  0
    2.5888   12.7571   45.7082 H   0  0  0  0  0  0  0  0  0  0  0  0
    1.2501   14.9190   45.1541 H   0  0  0  0  0  0  0  0  0  0  0  0
    0.3363   15.2289   42.4876 H   0  0  0  0  0  0  0  0  0  0  0  0
    1.4321   17.3074   44.3643 H   0  0  0  0  0  0  0  0  0  0  0  0
   -0.2414   16.8181   44.2510 H   0  0  0  0  0  0  0  0  0  0  0  0
    0.5248   17.6286   42.9059 H   0  0  0  0  0  0  0  0  0  0  0  0
    3.4919   15.7680   44.0343 H   0  0  0  0  0  0  0  0  0  0  0  0
    4.8182   16.7819   41.7706 H   0  0  0  0  0  0  0  0  0  0  0  0
    6.8798   16.0170   42.9059 H   0  0  0  0  0  0  0  0  0  0  0  0
    5.8036   15.2312   44.1097 H   0  0  0  0  0  0  0  0  0  0  0  0
    4.9773   17.3873   44.7900 H   0  0  0  0  0  0  0  0  0  0  0  0
    7.9812   17.1945   44.8361 H   0  0  0  0  0  0  0  0  0  0  0  0
    6.8945   16.4082   45.9559 H   0  0  0  0  0  0  0  0  0  0  0  0
    7.0069   18.1516   45.9259 H   0  0  0  0  0  0  0  0  0  0  0  0
    7.0181   18.4809   42.8767 H   0  0  0  0  0  0  0  0  0  0  0  0
    6.0559   19.4243   43.9889 H   0  0  0  0  0  0  0  0  0  0  0  0
    5.2845   18.5672   42.6762 H   0  0  0  0  0  0  0  0  0  0  0  0
    4.3861   13.4784   42.9603 H   0  0  0  0  0  0  0  0  0  0  0  0
    5.9759   12.1811   41.0140 H   0  0  0  0  0  0  0  0  0  0  0  0
    3.5935   11.1121   42.5323 H   0  0  0  0  0  0  0  0  0  0  0  0
    5.2506   11.0655   43.0844 H   0  0  0  0  0  0  0  0  0  0  0  0
    4.7710   10.1415   41.6811 H   0  0  0  0  0  0  0  0  0  0  0  0
    2.5269   13.0101   41.1024 H   0  0  0  0  0  0  0  0  0  0  0  0
    1.8439   11.7424   38.6620 H   0  0  0  0  0  0  0  0  0  0  0  0
    0.5453   14.1221   39.9650 H   0  0  0  0  0  0  0  0  0  0  0  0
    0.1471   12.4491   40.2740 H   0  0  0  0  0  0  0  0  0  0  0  0
   -0.1591   13.1438   38.7002 H   0  0  0  0  0  0  0  0  0  0  0  0
    3.0247   14.9867   39.4539 H   0  0  0  0  0  0  0  0  0  0  0  0
    3.3436   15.4668   36.5415 H   0  0  0  0  0  0  0  0  0  0  0  0
    4.5377   15.9545   37.7202 H   0  0  0  0  0  0  0  0  0  0  0  0
    2.9783   16.7417   37.6791 H   0  0  0  0  0  0  0  0  0  0  0  0
  1 29  1  0  0  0  0
  1 30  1  0  0  0  0
  1 31  1  0  0  0  0
  2  4  1  0  0  0  0
  2  1  1  0  0  0  0
  3  2  2  0  0  0  0
  4 32  1  0  0  0  0
  5  8  1  0  0  0  0
  5  4  1  0  0  0  0
  5 33  1  6  0  0  0
  6  9  1  0  0  0  0
  6  5  1  0  0  0  0
  7  6  2  0  0  0  0
  8 34  1  0  0  0  0
  8 35  1  0  0  0  0
  8 36  1  0  0  0  0
  9 37  1  0  0  0  0
 10  9  1  0  0  0  0
 10 13  1  0  0  0  0
 10 38  1  6  0  0  0
 11 17  1  0  0  0  0
 11 10  1  0  0  0  0
 12 11  2  0  0  0  0
 13 14  1  0  0  0  0
 13 39  1  0  0  0  0
 13 40  1  0  0  0  0
 14 15  1  0  0  0  0
 14 41  1  0  0  0  0
 15 42  1  0  0  0  0
 15 43  1  0  0  0  0
 15 44  1  0  0  0  0
 16 14  1  0  0  0  0
 16 45  1  0  0  0  0
 16 46  1  0  0  0  0
 16 47  1  0  0  0  0
 17 48  1  0  0  0  0
 18 17  1  0  0  0  0
 18 21  1  0  0  0  0
 18 49  1  6  0  0  0
 19 22  1  0  0  0  0
 19 18  1  0  0  0  0
 20 19  2  0  0  0  0
 21 50  1  0  0  0  0
 21 51  1  0  0  0  0
 21 52  1  0  0  0  0
 22 53  1  0  0  0  0
 23 26  1  0  0  0  0
 23 22  1  0  0  0  0
 23 54  1  6  0  0  0
 24 27  1  0  0  0  0
 24 23  1  0  0  0  0
 25 24  2  0  0  0  0
 26 55  1  0  0  0  0
 26 56  1  0  0  0  0
 26 57  1  0  0  0  0
 27 58  1  0  0  0  0
 28 27  1  0  0  0  0
 28 59  1  0  0  0  0
 28 60  1  0  0  0  0
 28 61  1  0  0  0  0
M  END
>  <MODEL>
       0

$$$$
selected_4mers/ALAA/11_noH.pdb
 OpenBabel03042517493D

 61 60  0  0  1  0  0  0  0  0999 V2000
   20.8370    1.2070    7.8570 C   0  0  0  0  0  0  0  0  0  0  0  0
   21.2160    2.3010    6.8820 C   0  0  0  0  0  0  0  0  0  0  0  0
   22.4100    2.6180    6.7040 O   0  0  0  0  0  0  0  0  0  0  0  0
   20.1970    2.8520    6.2190 N   0  0  0  0  0  0  0  0  0  0  0  0
   20.3040    4.0820    5.4910 C   0  0  2  0  0  0  0  0  0  0  0  0
   19.3970    5.1110    6.0890 C   0  0  0  0  0  0  0  0  0  0  0  0
   18.2640    4.7880    6.4410 O   0  0  0  0  0  0  0  0  0  0  0  0
   19.9890    3.8700    4.0490 C   0  0  0  0  0  0  0  0  0  0  0  0
   19.8790    6.3390    6.2440 N   0  0  0  0  0  0  0  0  0  0  0  0
   19.1200    7.4680    6.7680 C   0  0  2  0  0  0  0  0  0  0  0  0
   19.0480    8.5000    5.6840 C   0  0  0  0  0  0  0  0  0  0  0  0
   20.0710    9.0390    5.2820 O   0  0  0  0  0  0  0  0  0  0  0  0
   19.7620    8.1280    7.9970 C   0  0  0  0  0  0  0  0  0  0  0  0
   19.9370    7.3110    9.2280 C   0  0  0  0  0  0  0  0  0  0  0  0
   20.7530    8.0720   10.2770 C   0  0  0  0  0  0  0  0  0  0  0  0
   18.5900    6.9010    9.8310 C   0  0  0  0  0  0  0  0  0  0  0  0
   17.8490    8.7740    5.2130 N   0  0  0  0  0  0  0  0  0  0  0  0
   17.6330    9.7970    4.2070 C   0  0  2  0  0  0  0  0  0  0  0  0
   17.0050   10.9940    4.9130 C   0  0  0  0  0  0  0  0  0  0  0  0
   15.8500   10.9780    5.3110 O   0  0  0  0  0  0  0  0  0  0  0  0
   16.7230    9.2800    3.1030 C   0  0  0  0  0  0  0  0  0  0  0  0
   17.8200   12.0110    5.1540 N   0  0  0  0  0  0  0  0  0  0  0  0
   17.4100   13.2020    5.9050 C   0  0  2  0  0  0  0  0  0  0  0  0
   17.0660   14.3280    4.9280 C   0  0  0  0  0  0  0  0  0  0  0  0
   17.6330   14.4100    3.8290 O   0  0  0  0  0  0  0  0  0  0  0  0
   18.5480   13.6420    6.8590 C   0  0  0  0  0  0  0  0  0  0  0  0
   16.1530   15.2160    5.3300 N   0  0  0  0  0  0  0  0  0  0  0  0
   15.6860   16.3220    4.5180 C   0  0  0  0  0  0  0  0  0  0  0  0
   19.7736    1.0883    7.8642 H   0  0  0  0  0  0  0  0  0  0  0  0
   21.1730    1.4713    8.8379 H   0  0  0  0  0  0  0  0  0  0  0  0
   21.2964    0.2880    7.5581 H   0  0  0  0  0  0  0  0  0  0  0  0
   19.3277    2.3901    6.2306 H   0  0  0  0  0  0  0  0  0  0  0  0
   21.3118    4.4352    5.5582 H   0  0  0  0  0  0  0  0  0  0  0  0
   18.9841    3.5156    3.9518 H   0  0  0  0  0  0  0  0  0  0  0  0
   20.6633    3.1473    3.6391 H   0  0  0  0  0  0  0  0  0  0  0  0
   20.0936    4.7949    3.5213 H   0  0  0  0  0  0  0  0  0  0  0  0
   20.8158    6.4981    5.9866 H   0  0  0  0  0  0  0  0  0  0  0  0
   18.1629    7.0983    7.0716 H   0  0  0  0  0  0  0  0  0  0  0  0
   19.1536    8.9684    8.2588 H   0  0  0  0  0  0  0  0  0  0  0  0
   20.7609    8.3505    7.6846 H   0  0  0  0  0  0  0  0  0  0  0  0
   20.4651    6.4254    8.9422 H   0  0  0  0  0  0  0  0  0  0  0  0
   20.2266    8.9581   10.5643 H   0  0  0  0  0  0  0  0  0  0  0  0
   21.7033    8.3396    9.8644 H   0  0  0  0  0  0  0  0  0  0  0  0
   20.8993    7.4499   11.1352 H   0  0  0  0  0  0  0  0  0  0  0  0
   18.0484    7.7766   10.1226 H   0  0  0  0  0  0  0  0  0  0  0  0
   18.7564    6.2826   10.6882 H   0  0  0  0  0  0  0  0  0  0  0  0
   18.0242    6.3574    9.1035 H   0  0  0  0  0  0  0  0  0  0  0  0
   17.0756    8.2692    5.5540 H   0  0  0  0  0  0  0  0  0  0  0  0
   18.5569   10.0760    3.7450 H   0  0  0  0  0  0  0  0  0  0  0  0
   15.7830    8.9884    3.5229 H   0  0  0  0  0  0  0  0  0  0  0  0
   17.1798    8.4357    2.6304 H   0  0  0  0  0  0  0  0  0  0  0  0
   16.5661   10.0523    2.3792 H   0  0  0  0  0  0  0  0  0  0  0  0
   18.7425   11.9648    4.8134 H   0  0  0  0  0  0  0  0  0  0  0  0
   16.5444   12.9740    6.4913 H   0  0  0  0  0  0  0  0  0  0  0  0
   19.4225   13.8740    6.2878 H   0  0  0  0  0  0  0  0  0  0  0  0
   18.7681   12.8480    7.5416 H   0  0  0  0  0  0  0  0  0  0  0  0
   18.2395   14.5079    7.4066 H   0  0  0  0  0  0  0  0  0  0  0  0
   15.7741   15.1131    6.2328 H   0  0  0  0  0  0  0  0  0  0  0  0
   16.1837   16.3042    3.5709 H   0  0  0  0  0  0  0  0  0  0  0  0
   15.8993   17.2449    5.0157 H   0  0  0  0  0  0  0  0  0  0  0  0
   14.6303   16.2334    4.3679 H   0  0  0  0  0  0  0  0  0  0  0  0
  1 29  1  0  0  0  0
  1 30  1  0  0  0  0
  1 31  1  0  0  0  0
  2  1  1  0  0  0  0
  3  2  2  0  0  0  0
  4  2  1  0  0  0  0
  4 32  1  0  0  0  0
  5  6  1  0  0  0  0
  5  4  1  0  0  0  0
  5 33  1  1  0  0  0
  6  9  1  0  0  0  0
  6  7  2  0  0  0  0
  8  5  1  0  0  0  0
  8 34  1  0  0  0  0
  8 35  1  0  0  0  0
  8 36  1  0  0  0  0
  9 10  1  0  0  0  0
  9 37  1  0  0  0  0
 10 13  1  0  0  0  0
 10 38  1  1  0  0  0
 11 10  1  0  0  0  0
 12 11  2  0  0  0  0
 13 14  1  0  0  0  0
 13 39  1  0  0  0  0
 13 40  1  0  0  0  0
 14 16  1  0  0  0  0
 14 15  1  0  0  0  0
 14 41  1  0  0  0  0
 15 42  1  0  0  0  0
 15 43  1  0  0  0  0
 15 44  1  0  0  0  0
 16 45  1  0  0  0  0
 16 46  1  0  0  0  0
 16 47  1  0  0  0  0
 17 11  1  0  0  0  0
 17 48  1  0  0  0  0
 18 19  1  0  0  0  0
 18 17  1  0  0  0  0
 18 49  1  6  0  0  0
 19 22  1  0  0  0  0
 19 20  2  0  0  0  0
 21 18  1  0  0  0  0
 21 50  1  0  0  0  0
 21 51  1  0  0  0  0
 21 52  1  0  0  0  0
 22 23  1  0  0  0  0
 22 53  1  0  0  0  0
 23 26  1  0  0  0  0
 23 54  1  1  0  0  0
 24 27  1  0  0  0  0
 24 23  1  0  0  0  0
 25 24  2  0  0  0  0
 26 55  1  0  0  0  0
 26 56  1  0  0  0  0
 26 57  1  0  0  0  0
 27 58  1  0  0  0  0
 28 27  1  0  0  0  0
 28 59  1  0  0  0  0
 28 60  1  0  0  0  0
 28 61  1  0  0  0  0
M  END
>  <MODEL>
       0

$$$$
selected_4mers/ALAA/12_noH.pdb
 OpenBabel03042517493D

 61 60  0  0  1  0  0  0  0  0999 V2000
    0.8520   -1.6350   17.4480 C   0  0  0  0  0  0  0  0  0  0  0  0
   -0.4240   -1.2370   16.6820 C   0  0  0  0  0  0  0  0  0  0  0  0
   -0.4760   -1.3340   15.4630 O   0  0  0  0  0  0  0  0  0  0  0  0
   -1.4630   -0.8310   17.4120 N   0  0  0  0  0  0  0  0  0  0  0  0
   -2.7170   -0.4260   16.7530 C   0  0  2  0  0  0  0  0  0  0  0  0
   -2.5630    0.7100   15.7600 C   0  0  0  0  0  0  0  0  0  0  0  0
   -3.3550    0.8050   14.8310 O   0  0  0  0  0  0  0  0  0  0  0  0
   -3.7400   -0.0530   17.7990 C   0  0  0  0  0  0  0  0  0  0  0  0
   -1.5550    1.5580   15.9350 N   0  0  0  0  0  0  0  0  0  0  0  0
   -1.2840    2.6420   14.9780 C   0  0  2  0  0  0  0  0  0  0  0  0
   -0.9140    2.0990   13.6030 C   0  0  0  0  0  0  0  0  0  0  0  0
   -1.0030    2.8050   12.5900 O   0  0  0  0  0  0  0  0  0  0  0  0
   -0.1700    3.5810   15.4710 C   0  0  0  0  0  0  0  0  0  0  0  0
   -0.3730    4.2580   16.8050 C   0  0  0  0  0  0  0  0  0  0  0  0
    0.8780    4.9240   17.2930 C   0  0  0  0  0  0  0  0  0  0  0  0
   -1.5270    5.2710   16.7080 C   0  0  0  0  0  0  0  0  0  0  0  0
   -0.4020    0.8780   13.5670 N   0  0  0  0  0  0  0  0  0  0  0  0
    0.0000    0.2860   12.3200 C   0  0  2  0  0  0  0  0  0  0  0  0
   -1.0950   -0.4580   11.5560 C   0  0  0  0  0  0  0  0  0  0  0  0
   -0.8430   -0.8930   10.4330 O   0  0  0  0  0  0  0  0  0  0  0  0
    1.1790   -0.6680   12.5740 C   0  0  0  0  0  0  0  0  0  0  0  0
   -2.2780   -0.6580   12.1430 N   0  0  0  0  0  0  0  0  0  0  0  0
   -3.3360   -1.4200   11.4570 C   0  0  2  0  0  0  0  0  0  0  0  0
   -3.7260   -0.7220   10.1720 C   0  0  0  0  0  0  0  0  0  0  0  0
   -4.0840    0.4490   10.1870 O   0  0  0  0  0  0  0  0  0  0  0  0
   -4.5550   -1.6010   12.3680 C   0  0  0  0  0  0  0  0  0  0  0  0
   -3.5670   -1.4140    9.0520 N   0  0  0  0  0  0  0  0  0  0  0  0
   -3.8140   -0.8530    7.7440 C   0  0  0  0  0  0  0  0  0  0  0  0
    1.6055   -1.9395   16.7520 H   0  0  0  0  0  0  0  0  0  0  0  0
    0.6315   -2.4447   18.1119 H   0  0  0  0  0  0  0  0  0  0  0  0
    1.2052   -0.7973   18.0122 H   0  0  0  0  0  0  0  0  0  0  0  0
   -1.3922   -0.8017   18.3935 H   0  0  0  0  0  0  0  0  0  0  0  0
   -3.0399   -1.2723   16.1835 H   0  0  0  0  0  0  0  0  0  0  0  0
   -3.3919    0.7942   18.3522 H   0  0  0  0  0  0  0  0  0  0  0  0
   -3.8866   -0.8778   18.4646 H   0  0  0  0  0  0  0  0  0  0  0  0
   -4.6665    0.1890   17.3215 H   0  0  0  0  0  0  0  0  0  0  0  0
   -0.9753    1.4584   16.7245 H   0  0  0  0  0  0  0  0  0  0  0  0
   -2.1923    3.2020   14.8982 H   0  0  0  0  0  0  0  0  0  0  0  0
   -0.0490    4.3493   14.7361 H   0  0  0  0  0  0  0  0  0  0  0  0
    0.6803    2.9470   15.6120 H   0  0  0  0  0  0  0  0  0  0  0  0
   -0.6255    3.5039   17.5209 H   0  0  0  0  0  0  0  0  0  0  0  0
    1.1673    5.6889   16.6030 H   0  0  0  0  0  0  0  0  0  0  0  0
    1.6611    4.1990   17.3706 H   0  0  0  0  0  0  0  0  0  0  0  0
    0.6987    5.3595   18.2538 H   0  0  0  0  0  0  0  0  0  0  0  0
   -1.2786    6.0272   15.9929 H   0  0  0  0  0  0  0  0  0  0  0  0
   -1.6860    5.7232   17.6646 H   0  0  0  0  0  0  0  0  0  0  0  0
   -2.4189    4.7671   16.3990 H   0  0  0  0  0  0  0  0  0  0  0  0
   -0.2955    0.3701   14.4036 H   0  0  0  0  0  0  0  0  0  0  0  0
    0.2710    1.1077   11.6905 H   0  0  0  0  0  0  0  0  0  0  0  0
    0.8591   -1.4700   13.2060 H   0  0  0  0  0  0  0  0  0  0  0  0
    1.9740   -0.1335   13.0507 H   0  0  0  0  0  0  0  0  0  0  0  0
    1.5243   -1.0643   11.6420 H   0  0  0  0  0  0  0  0  0  0  0  0
   -2.4445   -0.2930   13.0421 H   0  0  0  0  0  0  0  0  0  0  0  0
   -2.9575   -2.3920   11.2186 H   0  0  0  0  0  0  0  0  0  0  0  0
   -4.9552   -0.6420   12.6230 H   0  0  0  0  0  0  0  0  0  0  0  0
   -4.2607   -2.1134   13.2600 H   0  0  0  0  0  0  0  0  0  0  0  0
   -5.3002   -2.1740   11.8570 H   0  0  0  0  0  0  0  0  0  0  0  0
   -3.2679   -2.3499    9.1146 H   0  0  0  0  0  0  0  0  0  0  0  0
   -4.1300    0.1642    7.8461 H   0  0  0  0  0  0  0  0  0  0  0  0
   -4.5794   -1.4167    7.2529 H   0  0  0  0  0  0  0  0  0  0  0  0
   -2.9155   -0.8909    7.1642 H   0  0  0  0  0  0  0  0  0  0  0  0
  1 29  1  0  0  0  0
  1 30  1  0  0  0  0
  1 31  1  0  0  0  0
  2  4  1  0  0  0  0
  2  1  1  0  0  0  0
  3  2  2  0  0  0  0
  4 32  1  0  0  0  0
  5  4  1  0  0  0  0
  5  8  1  0  0  0  0
  5 33  1  6  0  0  0
  6  9  1  0  0  0  0
  6  5  1  0  0  0  0
  7  6  2  0  0  0  0
  8 34  1  0  0  0  0
  8 35  1  0  0  0  0
  8 36  1  0  0  0  0
  9 37  1  0  0  0  0
 10 13  1  0  0  0  0
 10  9  1  0  0  0  0
 10 38  1  6  0  0  0
 11 10  1  0  0  0  0
 12 11  2  0  0  0  0
 13 14  1  0  0  0  0
 13 39  1  0  0  0  0
 13 40  1  0  0  0  0
 14 15  1  0  0  0  0
 14 41  1  0  0  0  0
 15 42  1  0  0  0  0
 15 43  1  0  0  0  0
 15 44  1  0  0  0  0
 16 14  1  0  0  0  0
 16 45  1  0  0  0  0
 16 46  1  0  0  0  0
 16 47  1  0  0  0  0
 17 11  1  0  0  0  0
 17 48  1  0  0  0  0
 18 21  1  0  0  0  0
 18 17  1  0  0  0  0
 18 49  1  6  0  0  0
 19 22  1  0  0  0  0
 19 18  1  0  0  0  0
 20 19  2  0  0  0  0
 21 50  1  0  0  0  0
 21 51  1  0  0  0  0
 21 52  1  0  0  0  0
 22 53  1  0  0  0  0
 23 22  1  0  0  0  0
 23 26  1  0  0  0  0
 23 54  1  6  0  0  0
 24 25  2  0  0  0  0
 24 23  1  0  0  0  0
 26 55  1  0  0  0  0
 26 56  1  0  0  0  0
 26 57  1  0  0  0  0
 27 24  1  0  0  0  0
 27 58  1  0  0  0  0
 28 27  1  0  0  0  0
 28 59  1  0  0  0  0
 28 60  1  0  0  0  0
 28 61  1  0  0  0  0
M  END
>  <MODEL>
       0

$$$$
selected_4mers/ALAA/13_noH.pdb
 OpenBabel03042517493D

 61 60  0  0  1  0  0  0  0  0999 V2000
    5.3550   24.4350   60.3560 C   0  0  0  0  0  0  0  0  0  0  0  0
    4.6220   25.2890   59.3320 C   0  0  0  0  0  0  0  0  0  0  0  0
    3.3940   25.2950   59.2810 O   0  0  0  0  0  0  0  0  0  0  0  0
    5.3920   25.9930   58.5080 N   0  0  0  0  0  0  0  0  0  0  0  0
    4.8360   26.8860   57.4980 C   0  0  2  0  0  0  0  0  0  0  0  0
    3.8110   26.2680   56.5490 C   0  0  0  0  0  0  0  0  0  0  0  0
    2.8710   26.9440   56.1320 O   0  0  0  0  0  0  0  0  0  0  0  0
    5.9790   27.5220   56.6890 C   0  0  0  0  0  0  0  0  0  0  0  0
    3.9780   24.9960   56.2010 N   0  0  0  0  0  0  0  0  0  0  0  0
    3.0440   24.3600   55.2770 C   0  0  2  0  0  0  0  0  0  0  0  0
    2.0360   23.4320   55.9590 C   0  0  0  0  0  0  0  0  0  0  0  0
    1.1920   22.8270   55.3010 O   0  0  0  0  0  0  0  0  0  0  0  0
    3.8150   23.5860   54.2010 C   0  0  0  0  0  0  0  0  0  0  0  0
    4.8660   24.3710   53.4040 C   0  0  0  0  0  0  0  0  0  0  0  0
    5.4270   23.4780   52.3050 C   0  0  0  0  0  0  0  0  0  0  0  0
    4.2500   25.6270   52.8050 C   0  0  0  0  0  0  0  0  0  0  0  0
    2.1130   23.3400   57.2790 N   0  0  0  0  0  0  0  0  0  0  0  0
    1.2100   22.4790   58.0340 C   0  0  2  0  0  0  0  0  0  0  0  0
   -0.1950   23.0470   58.2250 C   0  0  0  0  0  0  0  0  0  0  0  0
   -0.3960   24.2660   58.2560 O   0  0  0  0  0  0  0  0  0  0  0  0
    1.8230   22.1760   59.3880 C   0  0  0  0  0  0  0  0  0  0  0  0
   -1.1710   22.1510   58.3490 N   0  0  0  0  0  0  0  0  0  0  0  0
   -2.5550   22.5500   58.5850 C   0  0  2  0  0  0  0  0  0  0  0  0
   -2.6450   22.7640   60.0940 C   0  0  0  0  0  0  0  0  0  0  0  0
   -2.4750   21.8240   60.8720 O   0  0  0  0  0  0  0  0  0  0  0  0
   -3.5060   21.4470   58.1440 C   0  0  0  0  0  0  0  0  0  0  0  0
   -2.8940   24.0000   60.5140 N   0  0  0  0  0  0  0  0  0  0  0  0
   -2.9580   24.3150   61.9390 C   0  0  0  0  0  0  0  0  0  0  0  0
    6.4105   24.5666   60.2401 H   0  0  0  0  0  0  0  0  0  0  0  0
    5.1053   23.4054   60.2060 H   0  0  0  0  0  0  0  0  0  0  0  0
    5.0646   24.7325   61.3419 H   0  0  0  0  0  0  0  0  0  0  0  0
    6.3701   25.9087   58.5821 H   0  0  0  0  0  0  0  0  0  0  0  0
    4.2854   27.6187   58.0502 H   0  0  0  0  0  0  0  0  0  0  0  0
    6.5037   26.7592   56.1526 H   0  0  0  0  0  0  0  0  0  0  0  0
    6.6538   28.0185   57.3546 H   0  0  0  0  0  0  0  0  0  0  0  0
    5.5747   28.2308   55.9969 H   0  0  0  0  0  0  0  0  0  0  0  0
    4.7334   24.4817   56.5673 H   0  0  0  0  0  0  0  0  0  0  0  0
    2.4763   25.1520   54.8350 H   0  0  0  0  0  0  0  0  0  0  0  0
    4.3155   22.7725   54.6833 H   0  0  0  0  0  0  0  0  0  0  0  0
    3.0776   23.2955   53.4822 H   0  0  0  0  0  0  0  0  0  0  0  0
    5.6580   24.6701   54.0584 H   0  0  0  0  0  0  0  0  0  0  0  0
    4.6356   23.1785   51.6501 H   0  0  0  0  0  0  0  0  0  0  0  0
    5.8744   22.6107   52.7438 H   0  0  0  0  0  0  0  0  0  0  0  0
    6.1651   24.0175   51.7491 H   0  0  0  0  0  0  0  0  0  0  0  0
    3.4533   25.3537   52.1451 H   0  0  0  0  0  0  0  0  0  0  0  0
    4.9966   26.1650   52.2591 H   0  0  0  0  0  0  0  0  0  0  0  0
    3.8669   26.2454   53.5896 H   0  0  0  0  0  0  0  0  0  0  0  0
    2.7940   23.8638   57.7598 H   0  0  0  0  0  0  0  0  0  0  0  0
    1.0893   21.5899   57.4510 H   0  0  0  0  0  0  0  0  0  0  0  0
    1.9291   23.0847   59.9429 H   0  0  0  0  0  0  0  0  0  0  0  0
    2.7846   21.7270   59.2517 H   0  0  0  0  0  0  0  0  0  0  0  0
    1.1877   21.5026   59.9245 H   0  0  0  0  0  0  0  0  0  0  0  0
   -0.9537   21.1933   58.2797 H   0  0  0  0  0  0  0  0  0  0  0  0
   -2.8253   23.4277   58.0359 H   0  0  0  0  0  0  0  0  0  0  0  0
   -3.2732   20.5443   58.6692 H   0  0  0  0  0  0  0  0  0  0  0  0
   -3.4005   21.2848   57.0916 H   0  0  0  0  0  0  0  0  0  0  0  0
   -4.5130   21.7364   58.3611 H   0  0  0  0  0  0  0  0  0  0  0  0
   -3.0378   24.7157   59.8534 H   0  0  0  0  0  0  0  0  0  0  0  0
   -2.7795   23.4272   62.5089 H   0  0  0  0  0  0  0  0  0  0  0  0
   -3.9272   24.7019   62.1756 H   0  0  0  0  0  0  0  0  0  0  0  0
   -2.2142   25.0467   62.1763 H   0  0  0  0  0  0  0  0  0  0  0  0
  1 29  1  0  0  0  0
  1 30  1  0  0  0  0
  1 31  1  0  0  0  0
  2  1  1  0  0  0  0
  3  2  2  0  0  0  0
  4  2  1  0  0  0  0
  4 32  1  0  0  0  0
  5  4  1  0  0  0  0
  5 33  1  1  0  0  0
  6  5  1  0  0  0  0
  7  6  2  0  0  0  0
  8  5  1  0  0  0  0
  8 34  1  0  0  0  0
  8 35  1  0  0  0  0
  8 36  1  0  0  0  0
  9  6  1  0  0  0  0
  9 37  1  0  0  0  0
 10 11  1  0  0  0  0
 10  9  1  0  0  0  0
 10 38  1  6  0  0  0
 11 17  1  0  0  0  0
 12 11  2  0  0  0  0
 13 10  1  0  0  0  0
 13 39  1  0  0  0  0
 13 40  1  0  0  0  0
 14 13  1  0  0  0  0
 14 41  1  0  0  0  0
 15 14  1  0  0  0  0
 15 42  1  0  0  0  0
 15 43  1  0  0  0  0
 15 44  1  0  0  0  0
 16 14  1  0  0  0  0
 16 45  1  0  0  0  0
 16 46  1  0  0  0  0
 16 47  1  0  0  0  0
 17 18  1  0  0  0  0
 17 48  1  0  0  0  0
 18 19  1  0  0  0  0
 18 21  1  0  0  0  0
 18 49  1  6  0  0  0
 19 20  2  0  0  0  0
 19 22  1  0  0  0  0
 21 50  1  0  0  0  0
 21 51  1  0  0  0  0
 21 52  1  0  0  0  0
 22 23  1  0  0  0  0
 22 53  1  0  0  0  0
 23 24  1  0  0  0  0
 23 54  1  6  0  0  0
 24 27  1  0  0  0  0
 24 25  2  0  0  0  0
 26 23  1  0  0  0  0
 26 55  1  0  0  0  0
 26 56  1  0  0  0  0
 26 57  1  0  0  0  0
 27 28  1  0  0  0  0
 27 58  1  0  0  0  0
 28 59  1  0  0  0  0
 28 60  1  0  0  0  0
 28 61  1  0  0  0  0
M  END
>  <MODEL>
       0

$$$$
selected_4mers/ALAA/14_noH.pdb
 OpenBabel03042517493D

 61 60  0  0  1  0  0  0  0  0999 V2000
   30.9340   -0.8030   46.6200 C   0  0  0  0  0  0  0  0  0  0  0  0
   31.2820   -2.1340   45.9810 C   0  0  0  0  0  0  0  0  0  0  0  0
   31.8770   -3.0070   46.6230 O   0  0  0  0  0  0  0  0  0  0  0  0
   30.8930   -2.3410   44.7310 N   0  0  0  0  0  0  0  0  0  0  0  0
   31.1340   -3.5960   44.0290 C   0  0  2  0  0  0  0  0  0  0  0  0
   32.6180   -3.8040   43.8280 C   0  0  0  0  0  0  0  0  0  0  0  0
   33.1310   -4.9100   44.0200 O   0  0  0  0  0  0  0  0  0  0  0  0
   30.3680   -3.6590   42.6710 C   0  0  0  0  0  0  0  0  0  0  0  0
   33.3160   -2.7710   43.4170 N   0  0  0  0  0  0  0  0  0  0  0  0
   34.7790   -2.8800   43.2490 C   0  0  2  0  0  0  0  0  0  0  0  0
   35.4240   -3.2480   44.5610 C   0  0  0  0  0  0  0  0  0  0  0  0
   36.2970   -4.1460   44.6090 O   0  0  0  0  0  0  0  0  0  0  0  0
   35.3710   -1.5720   42.7800 C   0  0  0  0  0  0  0  0  0  0  0  0
   35.2170   -1.2900   41.3090 C   0  0  0  0  0  0  0  0  0  0  0  0
   35.6360    0.1540   41.0470 C   0  0  0  0  0  0  0  0  0  0  0  0
   36.0680   -2.2810   40.4940 C   0  0  0  0  0  0  0  0  0  0  0  0
   35.0510   -2.5630   45.6440 N   0  0  0  0  0  0  0  0  0  0  0  0
   35.6530   -2.8410   46.9180 C   0  0  2  0  0  0  0  0  0  0  0  0
   35.3700   -4.2690   47.3730 C   0  0  0  0  0  0  0  0  0  0  0  0
   36.2370   -4.9540   47.9320 O   0  0  0  0  0  0  0  0  0  0  0  0
   35.2090   -1.8210   47.9560 C   0  0  0  0  0  0  0  0  0  0  0  0
   34.2010   -4.7950   47.0420 N   0  0  0  0  0  0  0  0  0  0  0  0
   33.8200   -6.1350   47.5020 C   0  0  2  0  0  0  0  0  0  0  0  0
   34.6110   -7.1610   46.7310 C   0  0  0  0  0  0  0  0  0  0  0  0
   35.0040   -8.1900   47.3010 O   0  0  0  0  0  0  0  0  0  0  0  0
   32.2840   -6.3580   47.3110 C   0  0  0  0  0  0  0  0  0  0  0  0
   34.9200   -6.8880   45.4900 N   0  0  0  0  0  0  0  0  0  0  0  0
   35.7130   -7.7940   44.6800 C   0  0  0  0  0  0  0  0  0  0  0  0
   30.4249   -0.1877   45.9078 H   0  0  0  0  0  0  0  0  0  0  0  0
   31.8314   -0.3140   46.9368 H   0  0  0  0  0  0  0  0  0  0  0  0
   30.3002   -0.9684   47.4661 H   0  0  0  0  0  0  0  0  0  0  0  0
   30.4221   -1.6178   44.2572 H   0  0  0  0  0  0  0  0  0  0  0  0
   30.7551   -4.3911   44.6366 H   0  0  0  0  0  0  0  0  0  0  0  0
   30.7165   -2.8777   42.0284 H   0  0  0  0  0  0  0  0  0  0  0  0
   29.3198   -3.5354   42.8467 H   0  0  0  0  0  0  0  0  0  0  0  0
   30.5425   -4.6071   42.2067 H   0  0  0  0  0  0  0  0  0  0  0  0
   32.8621   -1.9199   43.2199 H   0  0  0  0  0  0  0  0  0  0  0  0
   34.9650   -3.6371   42.5161 H   0  0  0  0  0  0  0  0  0  0  0  0
   34.8952   -0.7805   43.3205 H   0  0  0  0  0  0  0  0  0  0  0  0
   36.4234   -1.6404   42.9609 H   0  0  0  0  0  0  0  0  0  0  0  0
   34.1984   -1.4162   41.0066 H   0  0  0  0  0  0  0  0  0  0  0  0
   36.6542    0.2899   41.3466 H   0  0  0  0  0  0  0  0  0  0  0  0
   35.0081    0.8148   41.6073 H   0  0  0  0  0  0  0  0  0  0  0  0
   35.5394    0.3696   40.0034 H   0  0  0  0  0  0  0  0  0  0  0  0
   37.0963   -2.1811   40.7725 H   0  0  0  0  0  0  0  0  0  0  0  0
   35.9590   -2.0706   39.4506 H   0  0  0  0  0  0  0  0  0  0  0  0
   35.7401   -3.2800   40.6926 H   0  0  0  0  0  0  0  0  0  0  0  0
   34.3609   -1.8648   45.5693 H   0  0  0  0  0  0  0  0  0  0  0  0
   36.7138   -2.7554   46.8074 H   0  0  0  0  0  0  0  0  0  0  0  0
   34.1490   -1.8842   48.0875 H   0  0  0  0  0  0  0  0  0  0  0  0
   35.4692   -0.8377   47.6239 H   0  0  0  0  0  0  0  0  0  0  0  0
   35.6966   -2.0238   48.8866 H   0  0  0  0  0  0  0  0  0  0  0  0
   33.5787   -4.2798   46.4794 H   0  0  0  0  0  0  0  0  0  0  0  0
   34.0378   -6.2343   48.5449 H   0  0  0  0  0  0  0  0  0  0  0  0
   32.0362   -6.2643   46.2743 H   0  0  0  0  0  0  0  0  0  0  0  0
   31.7445   -5.6255   47.8743 H   0  0  0  0  0  0  0  0  0  0  0  0
   32.0204   -7.3368   47.6537 H   0  0  0  0  0  0  0  0  0  0  0  0
   34.6055   -6.0434   45.0938 H   0  0  0  0  0  0  0  0  0  0  0  0
   35.9703   -8.6569   45.2581 H   0  0  0  0  0  0  0  0  0  0  0  0
   36.6064   -7.2986   44.3616 H   0  0  0  0  0  0  0  0  0  0  0  0
   35.1470   -8.0946   43.8231 H   0  0  0  0  0  0  0  0  0  0  0  0
  1 29  1  0  0  0  0
  1 30  1  0  0  0  0
  1 31  1  0  0  0  0
  2  1  1  0  0  0  0
  2  3  2  0  0  0  0
  4  2  1  0  0  0  0
  4 32  1  0  0  0  0
  5  4  1  0  0  0  0
  5 33  1  1  0  0  0
  6  7  2  0  0  0  0
  6  5  1  0  0  0  0
  8  5  1  0  0  0  0
  8 34  1  0  0  0  0
  8 35  1  0  0  0  0
  8 36  1  0  0  0  0
  9  6  1  0  0  0  0
  9 37  1  0  0  0  0
 10  9  1  0  0  0  0
 10 11  1  0  0  0  0
 10 38  1  6  0  0  0
 11 12  2  0  0  0  0
 11 17  1  0  0  0  0
 13 10  1  0  0  0  0
 13 39  1  0  0  0  0
 13 40  1  0  0  0  0
 14 13  1  0  0  0  0
 14 41  1  0  0  0  0
 15 14  1  0  0  0  0
 15 42  1  0  0  0  0
 15 43  1  0  0  0  0
 15 44  1  0  0  0  0
 16 14  1  0  0  0  0
 16 45  1  0  0  0  0
 16 46  1  0  0  0  0
 16 47  1  0  0  0  0
 17 18  1  0  0  0  0
 17 48  1  0  0  0  0
 18 19  1  0  0  0  0
 18 21  1  0  0  0  0
 18 49  1  6  0  0  0
 19 20  2  0  0  0  0
 21 50  1  0  0  0  0
 21 51  1  0  0  0  0
 21 52  1  0  0  0  0
 22 19  1  0  0  0  0
 22 23  1  0  0  0  0
 22 53  1  0  0  0  0
 23 54  1  1  0  0  0
 24 25  2  0  0  0  0
 24 23  1  0  0  0  0
 26 23  1  0  0  0  0
 26 55  1  0  0  0  0
 26 56  1  0  0  0  0
 26 57  1  0  0  0  0
 27 24  1  0  0  0  0
 27 58  1  0  0  0  0
 28 27  1  0  0  0  0
 28 59  1  0  0  0  0
 28 60  1  0  0  0  0
 28 61  1  0  0  0  0
M  END
>  <MODEL>
       0

$$$$
