selected_4mers/ALAE/115_noH.pdb
 OpenBabel03042517503D

 66 65  0  0  1  0  0  0  0  0999 V2000
   37.4020   13.9080   38.9840 C   0  0  0  0  0  0  0  0  0  0  0  0
   36.2050   14.0900   39.9030 C   0  0  0  0  0  0  0  0  0  0  0  0
   35.0470   14.0200   39.4570 O   0  0  0  0  0  0  0  0  0  0  0  0
   36.4430   14.3550   41.1930 N   0  0  0  0  0  0  0  0  0  0  0  0
   35.2980   14.5140   42.1180 C   0  0  2  0  0  0  0  0  0  0  0  0
   34.4400   15.6720   41.6710 C   0  0  0  0  0  0  0  0  0  0  0  0
   33.1890   15.6050   41.7290 O   0  0  0  0  0  0  0  0  0  0  0  0
   35.8150   14.7460   43.5210 C   0  0  0  0  0  0  0  0  0  0  0  0
   35.0680   16.7770   41.2100 N   0  0  0  0  0  0  0  0  0  0  0  0
   34.3200   17.9110   40.7550 C   0  0  2  0  0  0  0  0  0  0  0  0
   33.5110   17.6410   39.4850 C   0  0  0  0  0  0  0  0  0  0  0  0
   32.3680   18.0640   39.3500 O   0  0  0  0  0  0  0  0  0  0  0  0
   35.2410   19.1280   40.5780 C   0  0  0  0  0  0  0  0  0  0  0  0
   34.5920   20.4300   40.1610 C   0  0  0  0  0  0  0  0  0  0  0  0
   33.5040   20.8980   41.1110 C   0  0  0  0  0  0  0  0  0  0  0  0
   35.7160   21.4690   39.9910 C   0  0  0  0  0  0  0  0  0  0  0  0
   34.1380   16.9370   38.5240 N   0  0  0  0  0  0  0  0  0  0  0  0
   33.4260   16.6430   37.2780 C   0  0  2  0  0  0  0  0  0  0  0  0
   32.1850   15.7760   37.5670 C   0  0  0  0  0  0  0  0  0  0  0  0
   31.1070   15.9710   37.0050 O   0  0  0  0  0  0  0  0  0  0  0  0
   34.3410   15.9080   36.2990 C   0  0  0  0  0  0  0  0  0  0  0  0
   32.3390   14.7820   38.4740 N   0  0  0  0  0  0  0  0  0  0  0  0
   31.2130   13.9330   38.8500 C   0  0  2  0  0  0  0  0  0  0  0  0
   30.1230   14.7510   39.5350 C   0  0  0  0  0  0  0  0  0  0  0  0
   28.9330   14.5530   39.2800 O   0  0  0  0  0  0  0  0  0  0  0  0
   31.6640   12.7910   39.7680 C   0  0  0  0  0  0  0  0  0  0  0  0
   32.6180   11.8110   39.1400 C   0  0  0  0  0  0  0  0  0  0  0  0
   33.0190   10.6750   40.0480 C   0  0  0  0  0  0  0  0  0  0  0  0
   32.8640   10.7930   41.2300 O   0  0  0  0  0  0  0  0  0  0  0  0
   33.5100    9.6310   39.5760 O   0  0  0  0  0  0  0  0  0  0  0  0
   30.5030   15.6770   40.3960 N   0  0  0  0  0  0  0  0  0  0  0  0
   29.5410   16.5760   41.0780 C   0  0  0  0  0  0  0  0  0  0  0  0
   37.0611   13.7032   37.9907 H   0  0  0  0  0  0  0  0  0  0  0  0
   37.9980   13.0904   39.3323 H   0  0  0  0  0  0  0  0  0  0  0  0
   37.9895   14.8023   38.9822 H   0  0  0  0  0  0  0  0  0  0  0  0
   37.3666   14.4430   41.5223 H   0  0  0  0  0  0  0  0  0  0  0  0
   34.7013   13.6259   42.1112 H   0  0  0  0  0  0  0  0  0  0  0  0
   36.4135   15.6328   43.5385 H   0  0  0  0  0  0  0  0  0  0  0  0
   36.4083   13.9092   43.8254 H   0  0  0  0  0  0  0  0  0  0  0  0
   34.9888   14.8601   44.1913 H   0  0  0  0  0  0  0  0  0  0  0  0
   36.0519   16.8027   41.1867 H   0  0  0  0  0  0  0  0  0  0  0  0
   33.6002   18.1247   41.5174 H   0  0  0  0  0  0  0  0  0  0  0  0
   35.7331   19.2982   41.5127 H   0  0  0  0  0  0  0  0  0  0  0  0
   35.8880   18.8692   39.7660 H   0  0  0  0  0  0  0  0  0  0  0  0
   34.0746   20.2866   39.2355 H   0  0  0  0  0  0  0  0  0  0  0  0
   33.9260   21.0716   42.0788 H   0  0  0  0  0  0  0  0  0  0  0  0
   32.7453   20.1468   41.1822 H   0  0  0  0  0  0  0  0  0  0  0  0
   33.0739   21.8054   40.7415 H   0  0  0  0  0  0  0  0  0  0  0  0
   36.2234   21.6013   40.9237 H   0  0  0  0  0  0  0  0  0  0  0  0
   35.2952   22.4018   39.6784 H   0  0  0  0  0  0  0  0  0  0  0  0
   36.4103   21.1257   39.2528 H   0  0  0  0  0  0  0  0  0  0  0  0
   35.0620   16.6242   38.6567 H   0  0  0  0  0  0  0  0  0  0  0  0
   33.1186   17.5699   36.8408 H   0  0  0  0  0  0  0  0  0  0  0  0
   34.6523   14.9796   36.7302 H   0  0  0  0  0  0  0  0  0  0  0  0
   35.2003   16.5112   36.0924 H   0  0  0  0  0  0  0  0  0  0  0  0
   33.8110   15.7187   35.3890 H   0  0  0  0  0  0  0  0  0  0  0  0
   33.2209   14.6304   38.8845 H   0  0  0  0  0  0  0  0  0  0  0  0
   30.8141   13.5091   37.9522 H   0  0  0  0  0  0  0  0  0  0  0  0
   30.7937   12.2532   40.0813 H   0  0  0  0  0  0  0  0  0  0  0  0
   32.1939   13.2485   40.5772 H   0  0  0  0  0  0  0  0  0  0  0  0
   33.5026   12.3400   38.8526 H   0  0  0  0  0  0  0  0  0  0  0  0
   32.1085   11.3750   38.3062 H   0  0  0  0  0  0  0  0  0  0  0  0
   31.4627   15.7744   40.5929 H   0  0  0  0  0  0  0  0  0  0  0  0
   28.5469   16.3434   40.7578 H   0  0  0  0  0  0  0  0  0  0  0  0
   29.7664   17.5925   40.8315 H   0  0  0  0  0  0  0  0  0  0  0  0
   29.6155   16.4408   42.1368 H   0  0  0  0  0  0  0  0  0  0  0  0
  1  2  1  0  0  0  0
  1 33  1  0  0  0  0
  1 34  1  0  0  0  0
  1 35  1  0  0  0  0
  2  4  1  0  0  0  0
  3  2  2  0  0  0  0
  4  5  1  0  0  0  0
  4 36  1  0  0  0  0
  5  8  1  0  0  0  0
  5 37  1  6  0  0  0
  6  7  2  0  0  0  0
  6  5  1  0  0  0  0
  8 38  1  0  0  0  0
  8 39  1  0  0  0  0
  8 40  1  0  0  0  0
  9  6  1  0  0  0  0
  9 41  1  0  0  0  0
 10  9  1  0  0  0  0
 10 42  1  1  0  0  0
 11 10  1  0  0  0  0
 12 11  2  0  0  0  0
 13 10  1  0  0  0  0
 13 43  1  0  0  0  0
 13 44  1  0  0  0  0
 14 13  1  0  0  0  0
 14 15  1  0  0  0  0
 14 45  1  0  0  0  0
 15 46  1  0  0  0  0
 15 47  1  0  0  0  0
 15 48  1  0  0  0  0
 16 14  1  0  0  0  0
 16 49  1  0  0  0  0
 16 50  1  0  0  0  0
 16 51  1  0  0  0  0
 17 11  1  0  0  0  0
 17 52  1  0  0  0  0
 18 19  1  0  0  0  0
 18 17  1  0  0  0  0
 18 53  1  6  0  0  0
 19 22  1  0  0  0  0
 20 19  2  0  0  0  0
 21 18  1  0  0  0  0
 21 54  1  0  0  0  0
 21 55  1  0  0  0  0
 21 56  1  0  0  0  0
 22 23  1  0  0  0  0
 22 57  1  0  0  0  0
 23 24  1  0  0  0  0
 23 26  1  0  0  0  0
 23 58  1  6  0  0  0
 24 31  1  0  0  0  0
 25 24  2  0  0  0  0
 26 59  1  0  0  0  0
 26 60  1  0  0  0  0
 27 26  1  0  0  0  0
 27 28  1  0  0  0  0
 27 61  1  0  0  0  0
 27 62  1  0  0  0  0
 28 29  1  0  0  0  0
 30 28  2  0  0  0  0
 31 32  1  0  0  0  0
 31 63  1  0  0  0  0
 32 64  1  0  0  0  0
 32 65  1  0  0  0  0
 32 66  1  0  0  0  0
M  CHG  1  29  -1
M  END
>  <MODEL>
       0

$$$$
selected_4mers/ALAE/116_noH.pdb
 OpenBabel03042517503D

 66 65  0  0  1  0  0  0  0  0999 V2000
    6.4500   28.8030    5.0700 C   0  0  0  0  0  0  0  0  0  0  0  0
    5.9390   29.8080    4.0300 C   0  0  0  0  0  0  0  0  0  0  0  0
    5.0150   29.5200    3.2720 O   0  0  0  0  0  0  0  0  0  0  0  0
    6.5490   30.9830    3.9890 N   0  0  0  0  0  0  0  0  0  0  0  0
    6.1680   31.9990    3.0280 C   0  0  2  0  0  0  0  0  0  0  0  0
    6.5410   31.5560    1.6150 C   0  0  0  0  0  0  0  0  0  0  0  0
    5.7760   31.7380    0.6610 O   0  0  0  0  0  0  0  0  0  0  0  0
    6.8480   33.3040    3.3810 C   0  0  0  0  0  0  0  0  0  0  0  0
    7.6960   30.9070    1.4880 N   0  0  0  0  0  0  0  0  0  0  0  0
    8.1620   30.4510    0.1860 C   0  0  2  0  0  0  0  0  0  0  0  0
    7.2130   29.4280   -0.4570 C   0  0  0  0  0  0  0  0  0  0  0  0
    6.9770   29.4630   -1.6780 O   0  0  0  0  0  0  0  0  0  0  0  0
    9.5560   29.8380    0.3230 C   0  0  0  0  0  0  0  0  0  0  0  0
   10.1610   29.2990   -0.9670 C   0  0  0  0  0  0  0  0  0  0  0  0
   10.2000   30.4250   -2.0220 C   0  0  0  0  0  0  0  0  0  0  0  0
   11.5700   28.7570   -0.7030 C   0  0  0  0  0  0  0  0  0  0  0  0
    6.6900   28.5180    0.3580 N   0  0  0  0  0  0  0  0  0  0  0  0
    5.8780   27.3940   -0.1220 C   0  0  2  0  0  0  0  0  0  0  0  0
    4.7300   27.8250   -1.0270 C   0  0  0  0  0  0  0  0  0  0  0  0
    4.3880   27.1130   -1.9820 O   0  0  0  0  0  0  0  0  0  0  0  0
    5.3130   26.5860    1.0550 C   0  0  0  0  0  0  0  0  0  0  0  0
    4.1200   28.9630   -0.6930 N   0  0  0  0  0  0  0  0  0  0  0  0
    2.9280   29.4570   -1.3890 C   0  0  2  0  0  0  0  0  0  0  0  0
    3.2530   30.2400   -2.6550 C   0  0  0  0  0  0  0  0  0  0  0  0
    2.3610   30.4920   -3.4690 O   0  0  0  0  0  0  0  0  0  0  0  0
    2.0910   30.3250   -0.4570 C   0  0  0  0  0  0  0  0  0  0  0  0
    1.5420   29.5420    0.7410 C   0  0  0  0  0  0  0  0  0  0  0  0
    0.2470   30.1350    1.3100 C   0  0  0  0  0  0  0  0  0  0  0  0
    0.0560   31.3740    1.2080 O   0  0  0  0  0  0  0  0  0  0  0  0
   -0.5730   29.3500    1.8620 O   0  0  0  0  0  0  0  0  0  0  0  0
    4.5230   30.6250   -2.8100 N   0  0  0  0  0  0  0  0  0  0  0  0
    4.9320   31.4470   -3.9540 C   0  0  0  0  0  0  0  0  0  0  0  0
    5.8801   27.8998    5.0033 H   0  0  0  0  0  0  0  0  0  0  0  0
    6.3450   29.2194    6.0500 H   0  0  0  0  0  0  0  0  0  0  0  0
    7.4814   28.5887    4.8822 H   0  0  0  0  0  0  0  0  0  0  0  0
    7.2768   31.1703    4.6249 H   0  0  0  0  0  0  0  0  0  0  0  0
    5.1080   32.1416    3.0602 H   0  0  0  0  0  0  0  0  0  0  0  0
    7.9095   33.1724    3.3518 H   0  0  0  0  0  0  0  0  0  0  0  0
    6.5529   33.6054    4.3644 H   0  0  0  0  0  0  0  0  0  0  0  0
    6.5624   34.0570    2.6765 H   0  0  0  0  0  0  0  0  0  0  0  0
    8.2440   30.7325    2.2870 H   0  0  0  0  0  0  0  0  0  0  0  0
    8.1915   31.3066   -0.4558 H   0  0  0  0  0  0  0  0  0  0  0  0
   10.2121   30.5915    0.7060 H   0  0  0  0  0  0  0  0  0  0  0  0
    9.4454   28.9947    0.9723 H   0  0  0  0  0  0  0  0  0  0  0  0
    9.5583   28.4958   -1.3364 H   0  0  0  0  0  0  0  0  0  0  0  0
   10.8013   31.2325   -1.6597 H   0  0  0  0  0  0  0  0  0  0  0  0
    9.2060   30.7754   -2.2066 H   0  0  0  0  0  0  0  0  0  0  0  0
   10.6198   30.0477   -2.9310 H   0  0  0  0  0  0  0  0  0  0  0  0
   12.1916   29.5450   -0.3320 H   0  0  0  0  0  0  0  0  0  0  0  0
   11.9823   28.3764   -1.6141 H   0  0  0  0  0  0  0  0  0  0  0  0
   11.5199   27.9712    0.0215 H   0  0  0  0  0  0  0  0  0  0  0  0
    6.8543   28.6015    1.3251 H   0  0  0  0  0  0  0  0  0  0  0  0
    6.5388   26.7859   -0.7037 H   0  0  0  0  0  0  0  0  0  0  0  0
    4.6544   27.2042    1.6285 H   0  0  0  0  0  0  0  0  0  0  0  0
    6.1172   26.2498    1.6755 H   0  0  0  0  0  0  0  0  0  0  0  0
    4.7736   25.7409    0.6812 H   0  0  0  0  0  0  0  0  0  0  0  0
    4.4853   29.4933    0.0517 H   0  0  0  0  0  0  0  0  0  0  0  0
    2.3743   28.5907   -1.6854 H   0  0  0  0  0  0  0  0  0  0  0  0
    1.2680   30.7273   -1.0100 H   0  0  0  0  0  0  0  0  0  0  0  0
    2.7254   31.0980   -0.0764 H   0  0  0  0  0  0  0  0  0  0  0  0
    2.2825   29.5392    1.5133 H   0  0  0  0  0  0  0  0  0  0  0  0
    1.3147   28.5544    0.3975 H   0  0  0  0  0  0  0  0  0  0  0  0
    5.1958   30.3523   -2.1450 H   0  0  0  0  0  0  0  0  0  0  0  0
    4.0811   31.6487   -4.5706 H   0  0  0  0  0  0  0  0  0  0  0  0
    5.6696   30.9224   -4.5246 H   0  0  0  0  0  0  0  0  0  0  0  0
    5.3436   32.3695   -3.6013 H   0  0  0  0  0  0  0  0  0  0  0  0
  1  2  1  0  0  0  0
  1 33  1  0  0  0  0
  1 34  1  0  0  0  0
  1 35  1  0  0  0  0
  2  4  1  0  0  0  0
  3  2  2  0  0  0  0
  4  5  1  0  0  0  0
  4 36  1  0  0  0  0
  5  8  1  0  0  0  0
  5 37  1  6  0  0  0
  6  7  2  0  0  0  0
  6  5  1  0  0  0  0
  8 38  1  0  0  0  0
  8 39  1  0  0  0  0
  8 40  1  0  0  0  0
  9  6  1  0  0  0  0
  9 41  1  0  0  0  0
 10  9  1  0  0  0  0
 10 42  1  1  0  0  0
 11 10  1  0  0  0  0
 12 11  2  0  0  0  0
 13 10  1  0  0  0  0
 13 43  1  0  0  0  0
 13 44  1  0  0  0  0
 14 13  1  0  0  0  0
 14 15  1  0  0  0  0
 14 45  1  0  0  0  0
 15 46  1  0  0  0  0
 15 47  1  0  0  0  0
 15 48  1  0  0  0  0
 16 14  1  0  0  0  0
 16 49  1  0  0  0  0
 16 50  1  0  0  0  0
 16 51  1  0  0  0  0
 17 11  1  0  0  0  0
 17 52  1  0  0  0  0
 18 19  1  0  0  0  0
 18 17  1  0  0  0  0
 18 53  1  6  0  0  0
 19 22  1  0  0  0  0
 20 19  2  0  0  0  0
 21 18  1  0  0  0  0
 21 54  1  0  0  0  0
 21 55  1  0  0  0  0
 21 56  1  0  0  0  0
 22 23  1  0  0  0  0
 22 57  1  0  0  0  0
 23 24  1  0  0  0  0
 23 26  1  0  0  0  0
 23 58  1  6  0  0  0
 24 31  1  0  0  0  0
 25 24  2  0  0  0  0
 26 59  1  0  0  0  0
 26 60  1  0  0  0  0
 27 26  1  0  0  0  0
 27 28  1  0  0  0  0
 27 61  1  0  0  0  0
 27 62  1  0  0  0  0
 28 29  1  0  0  0  0
 30 28  2  0  0  0  0
 31 32  1  0  0  0  0
 31 63  1  0  0  0  0
 32 64  1  0  0  0  0
 32 65  1  0  0  0  0
 32 66  1  0  0  0  0
M  CHG  1  29  -1
M  END
>  <MODEL>
       0

$$$$
selected_4mers/ALAE/117_noH.pdb
 OpenBabel03042517503D

 66 65  0  0  1  0  0  0  0  0999 V2000
    9.6110   95.5840    6.6930 C   0  0  0  0  0  0  0  0  0  0  0  0
    8.7490   94.8610    5.6280 C   0  0  0  0  0  0  0  0  0  0  0  0
    7.5460   94.6720    5.8310 O   0  0  0  0  0  0  0  0  0  0  0  0
    9.3760   94.4410    4.5200 N   0  0  0  0  0  0  0  0  0  0  0  0
    8.6870   93.6940    3.4730 C   0  0  2  0  0  0  0  0  0  0  0  0
    8.3480   92.2960    3.9590 C   0  0  0  0  0  0  0  0  0  0  0  0
    7.3600   91.7100    3.5420 O   0  0  0  0  0  0  0  0  0  0  0  0
    9.5440   93.6080    2.2090 C   0  0  0  0  0  0  0  0  0  0  0  0
    9.1720   91.7490    4.8380 N   0  0  0  0  0  0  0  0  0  0  0  0
    8.9170   90.4020    5.3710 C   0  0  2  0  0  0  0  0  0  0  0  0
    8.2710   90.4100    6.7670 C   0  0  0  0  0  0  0  0  0  0  0  0
    8.1810   89.3660    7.4170 O   0  0  0  0  0  0  0  0  0  0  0  0
   10.2370   89.6420    5.4200 C   0  0  0  0  0  0  0  0  0  0  0  0
   10.9180   89.4340    4.0580 C   0  0  0  0  0  0  0  0  0  0  0  0
   12.2580   88.8250    4.2860 C   0  0  0  0  0  0  0  0  0  0  0  0
   10.0020   88.5270    3.2060 C   0  0  0  0  0  0  0  0  0  0  0  0
    7.8110   91.5760    7.2070 N   0  0  0  0  0  0  0  0  0  0  0  0
    7.3170   91.8060    8.5860 C   0  0  2  0  0  0  0  0  0  0  0  0
    6.3180   90.7840    9.0230 C   0  0  0  0  0  0  0  0  0  0  0  0
    6.4090   90.1830   10.1200 O   0  0  0  0  0  0  0  0  0  0  0  0
    6.6970   93.2390    8.7020 C   0  0  0  0  0  0  0  0  0  0  0  0
    5.3490   90.5450    8.1570 N   0  0  0  0  0  0  0  0  0  0  0  0
    4.2830   89.6340    8.5020 C   0  0  2  0  0  0  0  0  0  0  0  0
    4.7660   88.1990    8.6390 C   0  0  0  0  0  0  0  0  0  0  0  0
    4.3600   87.4930    9.5620 O   0  0  0  0  0  0  0  0  0  0  0  0
    3.2120   89.7240    7.4590 C   0  0  0  0  0  0  0  0  0  0  0  0
    2.1640   88.7220    7.6020 C   0  0  0  0  0  0  0  0  0  0  0  0
    0.8810   89.1430    6.9460 C   0  0  0  0  0  0  0  0  0  0  0  0
    0.8690   90.1530    6.2130 O   0  0  0  0  0  0  0  0  0  0  0  0
   -0.1250   88.4650    7.2010 O   0  0  0  0  0  0  0  0  0  0  0  0
    5.6170   87.7610    7.7010 N   0  0  0  0  0  0  0  0  0  0  0  0
    6.1700   86.4130    7.7600 C   0  0  0  0  0  0  0  0  0  0  0  0
   10.6204   95.6566    6.3455 H   0  0  0  0  0  0  0  0  0  0  0  0
    9.5876   95.0290    7.6075 H   0  0  0  0  0  0  0  0  0  0  0  0
    9.2203   96.5658    6.8615 H   0  0  0  0  0  0  0  0  0  0  0  0
   10.3331   94.6433    4.4091 H   0  0  0  0  0  0  0  0  0  0  0  0
    7.7821   94.2139    3.2368 H   0  0  0  0  0  0  0  0  0  0  0  0
   10.4538   93.0899    2.4295 H   0  0  0  0  0  0  0  0  0  0  0  0
    9.7704   94.5951    1.8637 H   0  0  0  0  0  0  0  0  0  0  0  0
    9.0073   93.0788    1.4495 H   0  0  0  0  0  0  0  0  0  0  0  0
    9.9648   92.2493    5.1387 H   0  0  0  0  0  0  0  0  0  0  0  0
    8.2164   89.9245    4.7182 H   0  0  0  0  0  0  0  0  0  0  0  0
   10.9105   90.1868    6.0480 H   0  0  0  0  0  0  0  0  0  0  0  0
   10.0060   88.6653    5.7909 H   0  0  0  0  0  0  0  0  0  0  0  0
   11.0640   90.3561    3.5352 H   0  0  0  0  0  0  0  0  0  0  0  0
   12.1443   87.8983    4.8087 H   0  0  0  0  0  0  0  0  0  0  0  0
   12.8584   89.4919    4.8688 H   0  0  0  0  0  0  0  0  0  0  0  0
   12.7339   88.6473    3.3443 H   0  0  0  0  0  0  0  0  0  0  0  0
    9.8455   87.5990    3.7152 H   0  0  0  0  0  0  0  0  0  0  0  0
   10.4651   88.3408    2.2595 H   0  0  0  0  0  0  0  0  0  0  0  0
    9.0611   89.0131    3.0532 H   0  0  0  0  0  0  0  0  0  0  0  0
    7.7973   92.3340    6.5789 H   0  0  0  0  0  0  0  0  0  0  0  0
    8.1617   91.7179    9.2369 H   0  0  0  0  0  0  0  0  0  0  0  0
    5.8538   93.3168    8.0479 H   0  0  0  0  0  0  0  0  0  0  0  0
    7.4302   93.9682    8.4271 H   0  0  0  0  0  0  0  0  0  0  0  0
    6.3832   93.4113    9.7103 H   0  0  0  0  0  0  0  0  0  0  0  0
    5.3538   90.9875    7.2776 H   0  0  0  0  0  0  0  0  0  0  0  0
    3.8975   89.9202    9.4582 H   0  0  0  0  0  0  0  0  0  0  0  0
    2.7624   90.6930    7.5203 H   0  0  0  0  0  0  0  0  0  0  0  0
    3.6827   89.5490    6.5142 H   0  0  0  0  0  0  0  0  0  0  0  0
    2.4967   87.8094    7.1533 H   0  0  0  0  0  0  0  0  0  0  0  0
    1.9717   88.5958    8.6470 H   0  0  0  0  0  0  0  0  0  0  0  0
    5.8726   88.3581    6.9612 H   0  0  0  0  0  0  0  0  0  0  0  0
    5.7877   85.9081    8.6225 H   0  0  0  0  0  0  0  0  0  0  0  0
    7.2368   86.4675    7.8223 H   0  0  0  0  0  0  0  0  0  0  0  0
    5.8913   85.8742    6.8786 H   0  0  0  0  0  0  0  0  0  0  0  0
  1  2  1  0  0  0  0
  1 33  1  0  0  0  0
  1 34  1  0  0  0  0
  1 35  1  0  0  0  0
  2  4  1  0  0  0  0
  3  2  2  0  0  0  0
  4  5  1  0  0  0  0
  4 36  1  0  0  0  0
  5  8  1  0  0  0  0
  5 37  1  6  0  0  0
  6  7  2  0  0  0  0
  6  5  1  0  0  0  0
  8 38  1  0  0  0  0
  8 39  1  0  0  0  0
  8 40  1  0  0  0  0
  9  6  1  0  0  0  0
  9 41  1  0  0  0  0
 10  9  1  0  0  0  0
 10 42  1  1  0  0  0
 11 10  1  0  0  0  0
 12 11  2  0  0  0  0
 13 10  1  0  0  0  0
 13 43  1  0  0  0  0
 13 44  1  0  0  0  0
 14 13  1  0  0  0  0
 14 15  1  0  0  0  0
 14 45  1  0  0  0  0
 15 46  1  0  0  0  0
 15 47  1  0  0  0  0
 15 48  1  0  0  0  0
 16 14  1  0  0  0  0
 16 49  1  0  0  0  0
 16 50  1  0  0  0  0
 16 51  1  0  0  0  0
 17 11  1  0  0  0  0
 17 52  1  0  0  0  0
 18 19  1  0  0  0  0
 18 17  1  0  0  0  0
 18 53  1  6  0  0  0
 19 22  1  0  0  0  0
 20 19  2  0  0  0  0
 21 18  1  0  0  0  0
 21 54  1  0  0  0  0
 21 55  1  0  0  0  0
 21 56  1  0  0  0  0
 22 23  1  0  0  0  0
 22 57  1  0  0  0  0
 23 24  1  0  0  0  0
 23 26  1  0  0  0  0
 23 58  1  6  0  0  0
 24 31  1  0  0  0  0
 25 24  2  0  0  0  0
 26 59  1  0  0  0  0
 26 60  1  0  0  0  0
 27 26  1  0  0  0  0
 27 28  1  0  0  0  0
 27 61  1  0  0  0  0
 27 62  1  0  0  0  0
 28 29  1  0  0  0  0
 30 28  2  0  0  0  0
 31 32  1  0  0  0  0
 31 63  1  0  0  0  0
 32 64  1  0  0  0  0
 32 65  1  0  0  0  0
 32 66  1  0  0  0  0
M  CHG  1  29  -1
M  END
>  <MODEL>
       0

$$$$
selected_4mers/ALAE/118_noH.pdb
 OpenBabel03042517503D

 66 65  0  0  1  0  0  0  0  0999 V2000
   19.0950  -42.5250   -0.6990 C   0  0  0  0  0  0  0  0  0  0  0  0
   18.0750  -42.5490   -1.8230 C   0  0  0  0  0  0  0  0  0  0  0  0
   17.1530  -41.7440   -1.8370 O   0  0  0  0  0  0  0  0  0  0  0  0
   18.2520  -43.4580   -2.7850 N   0  0  0  0  0  0  0  0  0  0  0  0
   17.3540  -43.5190   -3.9260 C   0  0  2  0  0  0  0  0  0  0  0  0
   16.1320  -44.3250   -3.5260 C   0  0  0  0  0  0  0  0  0  0  0  0
   16.2430  -45.4590   -3.0040 O   0  0  0  0  0  0  0  0  0  0  0  0
   18.0480  -44.1040   -5.1740 C   0  0  0  0  0  0  0  0  0  0  0  0
   14.9580  -43.7340   -3.7540 N   0  0  0  0  0  0  0  0  0  0  0  0
   13.7010  -44.4240   -3.4910 C   0  0  2  0  0  0  0  0  0  0  0  0
   13.2970  -45.3460   -4.6390 C   0  0  0  0  0  0  0  0  0  0  0  0
   13.9510  -45.4020   -5.6660 O   0  0  0  0  0  0  0  0  0  0  0  0
   12.6010  -43.4230   -3.1280 C   0  0  0  0  0  0  0  0  0  0  0  0
   12.9300  -42.4910   -1.9700 C   0  0  0  0  0  0  0  0  0  0  0  0
   11.7290  -41.5110   -1.6790 C   0  0  0  0  0  0  0  0  0  0  0  0
   13.3630  -43.2630   -0.6770 C   0  0  0  0  0  0  0  0  0  0  0  0
   12.2030  -46.0760   -4.4620 N   0  0  0  0  0  0  0  0  0  0  0  0
   11.7880  -47.1060   -5.4310 C   0  0  2  0  0  0  0  0  0  0  0  0
   11.1230  -46.5440   -6.6750 C   0  0  0  0  0  0  0  0  0  0  0  0
   10.5790  -45.3900   -6.6730 O   0  0  0  0  0  0  0  0  0  0  0  0
   10.8730  -48.1010   -4.7570 C   0  0  0  0  0  0  0  0  0  0  0  0
   11.2350  -47.3250   -7.7560 N   0  0  0  0  0  0  0  0  0  0  0  0
   10.4430  -47.1800   -8.9450 C   0  0  2  0  0  0  0  0  0  0  0  0
    9.4760  -48.3590   -9.0410 C   0  0  0  0  0  0  0  0  0  0  0  0
    9.7290  -49.4290   -8.4660 O   0  0  0  0  0  0  0  0  0  0  0  0
   11.3660  -46.9870  -10.1570 C   0  0  0  0  0  0  0  0  0  0  0  0
   12.3750  -45.8190   -9.8160 C   0  0  0  0  0  0  0  0  0  0  0  0
   13.6880  -45.7280  -10.6100 C   0  0  0  0  0  0  0  0  0  0  0  0
   14.7830  -45.5510   -9.9140 O   0  0  0  0  0  0  0  0  0  0  0  0
   13.5780  -45.6890  -11.8790 O   0  0  0  0  0  0  0  0  0  0  0  0
    8.3430  -48.1440   -9.6910 N   0  0  0  0  0  0  0  0  0  0  0  0
    7.3150  -49.1620   -9.8260 C   0  0  0  0  0  0  0  0  0  0  0  0
   19.8188  -43.2969   -0.8577 H   0  0  0  0  0  0  0  0  0  0  0  0
   18.5998  -42.6870    0.2356 H   0  0  0  0  0  0  0  0  0  0  0  0
   19.5854  -41.5741   -0.6826 H   0  0  0  0  0  0  0  0  0  0  0  0
   19.0001  -44.0947   -2.7205 H   0  0  0  0  0  0  0  0  0  0  0  0
   17.0548  -42.5288   -4.1997 H   0  0  0  0  0  0  0  0  0  0  0  0
   18.3743  -45.1016   -4.9660 H   0  0  0  0  0  0  0  0  0  0  0  0
   18.8924  -43.4985   -5.4293 H   0  0  0  0  0  0  0  0  0  0  0  0
   17.3585  -44.1176   -5.9921 H   0  0  0  0  0  0  0  0  0  0  0  0
   14.9401  -42.8149   -4.1064 H   0  0  0  0  0  0  0  0  0  0  0  0
   13.8482  -45.0614   -2.6443 H   0  0  0  0  0  0  0  0  0  0  0  0
   11.7225  -43.9760   -2.8687 H   0  0  0  0  0  0  0  0  0  0  0  0
   12.4737  -42.7970   -3.9864 H   0  0  0  0  0  0  0  0  0  0  0  0
   13.7755  -41.9081   -2.2703 H   0  0  0  0  0  0  0  0  0  0  0  0
   10.8724  -42.0765   -1.3767 H   0  0  0  0  0  0  0  0  0  0  0  0
   11.4968  -40.9583   -2.5653 H   0  0  0  0  0  0  0  0  0  0  0  0
   12.0029  -40.8333   -0.8976 H   0  0  0  0  0  0  0  0  0  0  0  0
   12.5489  -43.8656   -0.3320 H   0  0  0  0  0  0  0  0  0  0  0  0
   13.6344  -42.5610    0.0835 H   0  0  0  0  0  0  0  0  0  0  0  0
   14.2013  -43.8896   -0.8996 H   0  0  0  0  0  0  0  0  0  0  0  0
   11.6525  -45.9251   -3.6599 H   0  0  0  0  0  0  0  0  0  0  0  0
   12.6831  -47.5878   -5.7650 H   0  0  0  0  0  0  0  0  0  0  0  0
    9.9842  -47.6033   -4.4296 H   0  0  0  0  0  0  0  0  0  0  0  0
   11.3724  -48.5306   -3.9138 H   0  0  0  0  0  0  0  0  0  0  0  0
   10.6142  -48.8740   -5.4501 H   0  0  0  0  0  0  0  0  0  0  0  0
   11.9045  -48.0465   -7.7346 H   0  0  0  0  0  0  0  0  0  0  0  0
    9.8321  -46.3020   -8.9167 H   0  0  0  0  0  0  0  0  0  0  0  0
   11.9066  -47.8900  -10.3501 H   0  0  0  0  0  0  0  0  0  0  0  0
   10.7933  -46.7435  -11.0274 H   0  0  0  0  0  0  0  0  0  0  0  0
   11.8523  -44.8971   -9.9635 H   0  0  0  0  0  0  0  0  0  0  0  0
   12.6887  -46.0283   -8.8147 H   0  0  0  0  0  0  0  0  0  0  0  0
    8.1911  -47.2607  -10.0984 H   0  0  0  0  0  0  0  0  0  0  0  0
    7.6317  -50.0565   -9.3315 H   0  0  0  0  0  0  0  0  0  0  0  0
    7.1501  -49.3671  -10.8631 H   0  0  0  0  0  0  0  0  0  0  0  0
    6.4062  -48.8121   -9.3828 H   0  0  0  0  0  0  0  0  0  0  0  0
  1  2  1  0  0  0  0
  1 33  1  0  0  0  0
  1 34  1  0  0  0  0
  1 35  1  0  0  0  0
  2  4  1  0  0  0  0
  3  2  2  0  0  0  0
  4  5  1  0  0  0  0
  4 36  1  0  0  0  0
  5  8  1  0  0  0  0
  5 37  1  6  0  0  0
  6  7  2  0  0  0  0
  6  5  1  0  0  0  0
  8 38  1  0  0  0  0
  8 39  1  0  0  0  0
  8 40  1  0  0  0  0
  9  6  1  0  0  0  0
  9 41  1  0  0  0  0
 10  9  1  0  0  0  0
 10 42  1  1  0  0  0
 11 10  1  0  0  0  0
 12 11  2  0  0  0  0
 13 10  1  0  0  0  0
 13 43  1  0  0  0  0
 13 44  1  0  0  0  0
 14 13  1  0  0  0  0
 14 15  1  0  0  0  0
 14 45  1  0  0  0  0
 15 46  1  0  0  0  0
 15 47  1  0  0  0  0
 15 48  1  0  0  0  0
 16 14  1  0  0  0  0
 16 49  1  0  0  0  0
 16 50  1  0  0  0  0
 16 51  1  0  0  0  0
 17 11  1  0  0  0  0
 17 52  1  0  0  0  0
 18 19  1  0  0  0  0
 18 17  1  0  0  0  0
 18 53  1  6  0  0  0
 19 22  1  0  0  0  0
 20 19  2  0  0  0  0
 21 18  1  0  0  0  0
 21 54  1  0  0  0  0
 21 55  1  0  0  0  0
 21 56  1  0  0  0  0
 22 23  1  0  0  0  0
 22 57  1  0  0  0  0
 23 24  1  0  0  0  0
 23 26  1  0  0  0  0
 23 58  1  6  0  0  0
 24 31  1  0  0  0  0
 25 24  2  0  0  0  0
 26 59  1  0  0  0  0
 26 60  1  0  0  0  0
 27 26  1  0  0  0  0
 27 28  1  0  0  0  0
 27 61  1  0  0  0  0
 27 62  1  0  0  0  0
 28 29  1  0  0  0  0
 30 28  2  0  0  0  0
 31 32  1  0  0  0  0
 31 63  1  0  0  0  0
 32 64  1  0  0  0  0
 32 65  1  0  0  0  0
 32 66  1  0  0  0  0
M  CHG  1  29  -1
M  END
>  <MODEL>
       0

$$$$
selected_4mers/ALAE/119_noH.pdb
 OpenBabel03042517503D

 66 65  0  0  1  0  0  0  0  0999 V2000
   26.0050   58.0490   99.6660 C   0  0  0  0  0  0  0  0  0  0  0  0
   26.7920   56.8250  100.1350 C   0  0  0  0  0  0  0  0  0  0  0  0
   27.2960   56.0430   99.3220 O   0  0  0  0  0  0  0  0  0  0  0  0
   26.8820   56.6710  101.4550 N   0  0  0  0  0  0  0  0  0  0  0  0
   27.5830   55.5570  102.0860 C   0  0  2  0  0  0  0  0  0  0  0  0
   26.8100   54.2330  101.9890 C   0  0  0  0  0  0  0  0  0  0  0  0
   27.3450   53.1700  102.3180 O   0  0  0  0  0  0  0  0  0  0  0  0
   27.8710   55.8950  103.5390 C   0  0  0  0  0  0  0  0  0  0  0  0
   25.5590   54.3040  101.5370 N   0  0  0  0  0  0  0  0  0  0  0  0
   24.7060   53.1220  101.4190 C   0  0  2  0  0  0  0  0  0  0  0  0
   24.1300   52.9580  100.0120 C   0  0  0  0  0  0  0  0  0  0  0  0
   23.3660   52.0200   99.7570 O   0  0  0  0  0  0  0  0  0  0  0  0
   23.5690   53.1760  102.4500 C   0  0  0  0  0  0  0  0  0  0  0  0
   23.9140   53.4710  103.9150 C   0  0  0  0  0  0  0  0  0  0  0  0
   22.6440   53.6010  104.7350 C   0  0  0  0  0  0  0  0  0  0  0  0
   24.8300   52.4110  104.5140 C   0  0  0  0  0  0  0  0  0  0  0  0
   24.4970   53.8750   99.1140 N   0  0  0  0  0  0  0  0  0  0  0  0
   24.0620   53.8360   97.7160 C   0  0  2  0  0  0  0  0  0  0  0  0
   24.6100   52.5990   97.0100 C   0  0  0  0  0  0  0  0  0  0  0  0
   25.7060   52.1270   97.3230 O   0  0  0  0  0  0  0  0  0  0  0  0
   24.5000   55.0940   96.9870 C   0  0  0  0  0  0  0  0  0  0  0  0
   23.8360   52.0770   96.0640 N   0  0  0  0  0  0  0  0  0  0  0  0
   24.2350   50.8950   95.3130 C   0  0  2  0  0  0  0  0  0  0  0  0
   25.5490   51.1270   94.5670 C   0  0  0  0  0  0  0  0  0  0  0  0
   25.7090   52.1180   93.8530 O   0  0  0  0  0  0  0  0  0  0  0  0
   23.1340   50.4780   94.3430 C   0  0  0  0  0  0  0  0  0  0  0  0
   23.3000   49.0660   93.8080 C   0  0  0  0  0  0  0  0  0  0  0  0
   22.1080   48.6000   93.0040 C   0  0  0  0  0  0  0  0  0  0  0  0
   21.2950   49.4540   92.5750 O   0  0  0  0  0  0  0  0  0  0  0  0
   21.9850   47.3790   92.7910 O   0  0  0  0  0  0  0  0  0  0  0  0
   26.4830   50.2020   94.7610 N   0  0  0  0  0  0  0  0  0  0  0  0
   27.7820   50.2320   94.1110 C   0  0  0  0  0  0  0  0  0  0  0  0
   25.9941   58.0777   98.5964 H   0  0  0  0  0  0  0  0  0  0  0  0
   26.4690   58.9369  100.0419 H   0  0  0  0  0  0  0  0  0  0  0  0
   25.0011   57.9891  100.0314 H   0  0  0  0  0  0  0  0  0  0  0  0
   26.4542   57.3424  102.0342 H   0  0  0  0  0  0  0  0  0  0  0  0
   28.5001   55.4140  101.5536 H   0  0  0  0  0  0  0  0  0  0  0  0
   26.9483   56.0359  104.0621 H   0  0  0  0  0  0  0  0  0  0  0  0
   28.4497   56.7937  103.5882 H   0  0  0  0  0  0  0  0  0  0  0  0
   28.4179   55.0935  103.9900 H   0  0  0  0  0  0  0  0  0  0  0  0
   25.1968   55.1808  101.2738 H   0  0  0  0  0  0  0  0  0  0  0  0
   25.3236   52.2702  101.6135 H   0  0  0  0  0  0  0  0  0  0  0  0
   23.0787   52.2252  102.4276 H   0  0  0  0  0  0  0  0  0  0  0  0
   22.9844   54.0193  102.1468 H   0  0  0  0  0  0  0  0  0  0  0  0
   24.4467   54.3986  103.9400 H   0  0  0  0  0  0  0  0  0  0  0  0
   22.1085   52.6749  104.7123 H   0  0  0  0  0  0  0  0  0  0  0  0
   22.0322   54.3770  104.3245 H   0  0  0  0  0  0  0  0  0  0  0  0
   22.8957   53.8428  105.7465 H   0  0  0  0  0  0  0  0  0  0  0  0
   24.3319   51.4641  104.5073 H   0  0  0  0  0  0  0  0  0  0  0  0
   25.0742   52.6784  105.5209 H   0  0  0  0  0  0  0  0  0  0  0  0
   25.7272   52.3462  103.9345 H   0  0  0  0  0  0  0  0  0  0  0  0
   25.0854   54.6091   99.4039 H   0  0  0  0  0  0  0  0  0  0  0  0
   22.9933   53.7856   97.7026 H   0  0  0  0  0  0  0  0  0  0  0  0
   25.5682   55.1562   96.9933 H   0  0  0  0  0  0  0  0  0  0  0  0
   24.0899   55.9518   97.4778 H   0  0  0  0  0  0  0  0  0  0  0  0
   24.1506   55.0604   95.9762 H   0  0  0  0  0  0  0  0  0  0  0  0
   22.9698   52.5008   95.8657 H   0  0  0  0  0  0  0  0  0  0  0  0
   24.3917   50.1009   96.0128 H   0  0  0  0  0  0  0  0  0  0  0  0
   22.1942   50.5394   94.8509 H   0  0  0  0  0  0  0  0  0  0  0  0
   23.1863   51.1403   93.5043 H   0  0  0  0  0  0  0  0  0  0  0  0
   24.1670   49.0376   93.1816 H   0  0  0  0  0  0  0  0  0  0  0  0
   23.3964   48.4121   94.6494 H   0  0  0  0  0  0  0  0  0  0  0  0
   26.2849   49.4592   95.3760 H   0  0  0  0  0  0  0  0  0  0  0  0
   27.8448   51.0931   93.4790 H   0  0  0  0  0  0  0  0  0  0  0  0
   27.9066   49.3474   93.5220 H   0  0  0  0  0  0  0  0  0  0  0  0
   28.5513   50.2776   94.8533 H   0  0  0  0  0  0  0  0  0  0  0  0
  1  2  1  0  0  0  0
  1 33  1  0  0  0  0
  1 34  1  0  0  0  0
  1 35  1  0  0  0  0
  2  4  1  0  0  0  0
  3  2  2  0  0  0  0
  4  5  1  0  0  0  0
  4 36  1  0  0  0  0
  5  8  1  0  0  0  0
  5 37  1  6  0  0  0
  6  7  2  0  0  0  0
  6  5  1  0  0  0  0
  8 38  1  0  0  0  0
  8 39  1  0  0  0  0
  8 40  1  0  0  0  0
  9  6  1  0  0  0  0
  9 41  1  0  0  0  0
 10  9  1  0  0  0  0
 10 42  1  1  0  0  0
 11 10  1  0  0  0  0
 12 11  2  0  0  0  0
 13 10  1  0  0  0  0
 13 43  1  0  0  0  0
 13 44  1  0  0  0  0
 14 13  1  0  0  0  0
 14 15  1  0  0  0  0
 14 45  1  0  0  0  0
 15 46  1  0  0  0  0
 15 47  1  0  0  0  0
 15 48  1  0  0  0  0
 16 14  1  0  0  0  0
 16 49  1  0  0  0  0
 16 50  1  0  0  0  0
 16 51  1  0  0  0  0
 17 11  1  0  0  0  0
 17 52  1  0  0  0  0
 18 19  1  0  0  0  0
 18 17  1  0  0  0  0
 18 53  1  6  0  0  0
 19 22  1  0  0  0  0
 20 19  2  0  0  0  0
 21 18  1  0  0  0  0
 21 54  1  0  0  0  0
 21 55  1  0  0  0  0
 21 56  1  0  0  0  0
 22 23  1  0  0  0  0
 22 57  1  0  0  0  0
 23 24  1  0  0  0  0
 23 26  1  0  0  0  0
 23 58  1  6  0  0  0
 24 31  1  0  0  0  0
 25 24  2  0  0  0  0
 26 59  1  0  0  0  0
 26 60  1  0  0  0  0
 27 26  1  0  0  0  0
 27 28  1  0  0  0  0
 27 61  1  0  0  0  0
 27 62  1  0  0  0  0
 28 29  1  0  0  0  0
 30 28  2  0  0  0  0
 31 32  1  0  0  0  0
 31 63  1  0  0  0  0
 32 64  1  0  0  0  0
 32 65  1  0  0  0  0
 32 66  1  0  0  0  0
M  CHG  1  29  -1
M  END
>  <MODEL>
       0

$$$$
