selected_4mers/ALAL/70_noH.pdb
 OpenBabel03042517503D

 70 69  0  0  1  0  0  0  0  0999 V2000
   19.2930   29.3270   48.6720 C   0  0  0  0  0  0  0  0  0  0  0  0
   20.1380   29.5160   47.4130 C   0  0  0  0  0  0  0  0  0  0  0  0
   19.6150   29.8870   46.3620 O   0  0  0  0  0  0  0  0  0  0  0  0
   21.4380   29.2450   47.5210 N   0  0  0  0  0  0  0  0  0  0  0  0
   22.3270   29.3310   46.3630 C   0  0  2  0  0  0  0  0  0  0  0  0
   21.9490   28.2990   45.2950 C   0  0  0  0  0  0  0  0  0  0  0  0
   21.9600   28.6100   44.1020 O   0  0  0  0  0  0  0  0  0  0  0  0
   23.7850   29.1800   46.7800 C   0  0  0  0  0  0  0  0  0  0  0  0
   21.5940   27.0810   45.7100 N   0  0  0  0  0  0  0  0  0  0  0  0
   21.1520   26.0730   44.7420 C   0  0  2  0  0  0  0  0  0  0  0  0
   19.8370   26.4730   44.0740 C   0  0  0  0  0  0  0  0  0  0  0  0
   19.6540   26.2450   42.8790 O   0  0  0  0  0  0  0  0  0  0  0  0
   21.0340   24.6820   45.3770 C   0  0  0  0  0  0  0  0  0  0  0  0
   20.6440   23.5510   44.4150 C   0  0  0  0  0  0  0  0  0  0  0  0
   21.7170   23.3230   43.3530 C   0  0  0  0  0  0  0  0  0  0  0  0
   20.3660   22.2590   45.1660 C   0  0  0  0  0  0  0  0  0  0  0  0
   18.9260   27.0680   44.8420 N   0  0  0  0  0  0  0  0  0  0  0  0
   17.6620   27.5590   44.2860 C   0  0  2  0  0  0  0  0  0  0  0  0
   17.9250   28.5300   43.1340 C   0  0  0  0  0  0  0  0  0  0  0  0
   17.1530   28.6060   42.1800 O   0  0  0  0  0  0  0  0  0  0  0  0
   16.8150   28.2210   45.3660 C   0  0  0  0  0  0  0  0  0  0  0  0
   19.0320   29.2590   43.2320 N   0  0  0  0  0  0  0  0  0  0  0  0
   19.4530   30.1830   42.1940 C   0  0  2  0  0  0  0  0  0  0  0  0
   20.1770   29.5290   41.0200 C   0  0  0  0  0  0  0  0  0  0  0  0
   19.8530   29.7890   39.8590 O   0  0  0  0  0  0  0  0  0  0  0  0
   20.3630   31.2490   42.8000 C   0  0  0  0  0  0  0  0  0  0  0  0
   19.6520   32.5270   43.1980 C   0  0  0  0  0  0  0  0  0  0  0  0
   20.5350   33.3450   44.1220 C   0  0  0  0  0  0  0  0  0  0  0  0
   19.2800   33.3040   41.9380 C   0  0  0  0  0  0  0  0  0  0  0  0
   21.1590   28.6860   41.3360 N   0  0  0  0  0  0  0  0  0  0  0  0
   22.1040   28.1000   40.3720 C   0  0  0  0  0  0  0  0  0  0  0  0
   18.2743   29.5748   48.4583 H   0  0  0  0  0  0  0  0  0  0  0  0
   19.6605   29.9662   49.4475 H   0  0  0  0  0  0  0  0  0  0  0  0
   19.3526   28.3077   48.9918 H   0  0  0  0  0  0  0  0  0  0  0  0
   21.8065   28.9824   48.3954 H   0  0  0  0  0  0  0  0  0  0  0  0
   22.2075   30.3031   45.9320 H   0  0  0  0  0  0  0  0  0  0  0  0
   23.9332   28.2139   47.2155 H   0  0  0  0  0  0  0  0  0  0  0  0
   24.0312   29.9357   47.4964 H   0  0  0  0  0  0  0  0  0  0  0  0
   24.4143   29.2843   45.9209 H   0  0  0  0  0  0  0  0  0  0  0  0
   21.6291   26.8592   46.6685 H   0  0  0  0  0  0  0  0  0  0  0  0
   21.9069   26.0226   43.9854 H   0  0  0  0  0  0  0  0  0  0  0  0
   21.9807   24.4353   45.8103 H   0  0  0  0  0  0  0  0  0  0  0  0
   20.2396   24.7497   46.0906 H   0  0  0  0  0  0  0  0  0  0  0  0
   19.7451   23.8560   43.9212 H   0  0  0  0  0  0  0  0  0  0  0  0
   22.6269   23.0166   43.8253 H   0  0  0  0  0  0  0  0  0  0  0  0
   21.8837   24.2319   42.8135 H   0  0  0  0  0  0  0  0  0  0  0  0
   21.3924   22.5608   42.6759 H   0  0  0  0  0  0  0  0  0  0  0  0
   21.2558   21.9389   45.6667 H   0  0  0  0  0  0  0  0  0  0  0  0
   20.0548   21.5043   44.4743 H   0  0  0  0  0  0  0  0  0  0  0  0
   19.5917   22.4243   45.8857 H   0  0  0  0  0  0  0  0  0  0  0  0
   19.1055   27.1804   45.8035 H   0  0  0  0  0  0  0  0  0  0  0  0
   17.1162   26.7216   43.9041 H   0  0  0  0  0  0  0  0  0  0  0  0
   17.3403   29.0636   45.7648 H   0  0  0  0  0  0  0  0  0  0  0  0
   16.6221   27.5177   46.1490 H   0  0  0  0  0  0  0  0  0  0  0  0
   15.8878   28.5465   44.9426 H   0  0  0  0  0  0  0  0  0  0  0  0
   19.5880   29.1690   44.0395 H   0  0  0  0  0  0  0  0  0  0  0  0
   18.5530   30.6059   41.7988 H   0  0  0  0  0  0  0  0  0  0  0  0
   21.1156   31.4950   42.0803 H   0  0  0  0  0  0  0  0  0  0  0  0
   20.7659   30.8312   43.6989 H   0  0  0  0  0  0  0  0  0  0  0  0
   18.7530   32.2988   43.7316 H   0  0  0  0  0  0  0  0  0  0  0  0
   21.4463   33.5917   43.6185 H   0  0  0  0  0  0  0  0  0  0  0  0
   20.7558   32.7757   45.0007 H   0  0  0  0  0  0  0  0  0  0  0  0
   20.0255   34.2444   44.3984 H   0  0  0  0  0  0  0  0  0  0  0  0
   20.1680   33.5416   41.3903 H   0  0  0  0  0  0  0  0  0  0  0  0
   18.7773   34.2080   42.2118 H   0  0  0  0  0  0  0  0  0  0  0  0
   18.6340   32.7072   41.3286 H   0  0  0  0  0  0  0  0  0  0  0  0
   21.2598   28.4370   42.2831 H   0  0  0  0  0  0  0  0  0  0  0  0
   21.8774   28.4562   39.3888 H   0  0  0  0  0  0  0  0  0  0  0  0
   22.0197   27.0335   40.3932 H   0  0  0  0  0  0  0  0  0  0  0  0
   23.1020   28.3842   40.6331 H   0  0  0  0  0  0  0  0  0  0  0  0
  1 32  1  0  0  0  0
  1 33  1  0  0  0  0
  1 34  1  0  0  0  0
  2  4  1  0  0  0  0
  2  1  1  0  0  0  0
  3  2  2  0  0  0  0
  4 35  1  0  0  0  0
  5  8  1  0  0  0  0
  5  4  1  0  0  0  0
  5 36  1  6  0  0  0
  6  9  1  0  0  0  0
  6  5  1  0  0  0  0
  7  6  2  0  0  0  0
  8 37  1  0  0  0  0
  8 38  1  0  0  0  0
  8 39  1  0  0  0  0
  9 40  1  0  0  0  0
 10 13  1  0  0  0  0
 10  9  1  0  0  0  0
 10 41  1  6  0  0  0
 11 10  1  0  0  0  0
 11 17  1  0  0  0  0
 12 11  2  0  0  0  0
 13 42  1  0  0  0  0
 13 43  1  0  0  0  0
 14 16  1  0  0  0  0
 14 13  1  0  0  0  0
 14 44  1  0  0  0  0
 15 14  1  0  0  0  0
 15 45  1  0  0  0  0
 15 46  1  0  0  0  0
 15 47  1  0  0  0  0
 16 48  1  0  0  0  0
 16 49  1  0  0  0  0
 16 50  1  0  0  0  0
 17 51  1  0  0  0  0
 18 17  1  0  0  0  0
 18 21  1  0  0  0  0
 18 52  1  6  0  0  0
 19 22  1  0  0  0  0
 19 18  1  0  0  0  0
 20 19  2  0  0  0  0
 21 53  1  0  0  0  0
 21 54  1  0  0  0  0
 21 55  1  0  0  0  0
 22 56  1  0  0  0  0
 23 26  1  0  0  0  0
 23 22  1  0  0  0  0
 23 57  1  6  0  0  0
 24 30  1  0  0  0  0
 24 23  1  0  0  0  0
 25 24  2  0  0  0  0
 26 27  1  0  0  0  0
 26 58  1  0  0  0  0
 26 59  1  0  0  0  0
 27 28  1  0  0  0  0
 27 60  1  0  0  0  0
 28 61  1  0  0  0  0
 28 62  1  0  0  0  0
 28 63  1  0  0  0  0
 29 27  1  0  0  0  0
 29 64  1  0  0  0  0
 29 65  1  0  0  0  0
 29 66  1  0  0  0  0
 30 67  1  0  0  0  0
 31 30  1  0  0  0  0
 31 68  1  0  0  0  0
 31 69  1  0  0  0  0
 31 70  1  0  0  0  0
M  END
>  <MODEL>
       0

$$$$
selected_4mers/ALAL/71_noH.pdb
 OpenBabel03042517503D

 70 69  0  0  1  0  0  0  0  0999 V2000
   35.5300  -61.2990   23.0230 C   0  0  0  0  0  0  0  0  0  0  0  0
   34.1430  -60.9550   23.5620 C   0  0  0  0  0  0  0  0  0  0  0  0
   33.2060  -61.7460   23.4320 O   0  0  0  0  0  0  0  0  0  0  0  0
   34.0100  -59.7780   24.1650 N   0  0  0  0  0  0  0  0  0  0  0  0
   32.7240  -59.3570   24.7220 C   0  0  2  0  0  0  0  0  0  0  0  0
   31.6580  -59.2490   23.6410 C   0  0  0  0  0  0  0  0  0  0  0  0
   30.4680  -59.4110   23.9120 O   0  0  0  0  0  0  0  0  0  0  0  0
   32.8700  -58.0240   25.4360 C   0  0  0  0  0  0  0  0  0  0  0  0
   32.0910  -58.9750   22.4160 N   0  0  0  0  0  0  0  0  0  0  0  0
   31.1760  -58.8450   21.2890 C   0  0  2  0  0  0  0  0  0  0  0  0
   30.5500  -60.1810   20.9060 C   0  0  0  0  0  0  0  0  0  0  0  0
   29.5410  -60.2190   20.2010 O   0  0  0  0  0  0  0  0  0  0  0  0
   31.9120  -58.2570   20.0840 C   0  0  0  0  0  0  0  0  0  0  0  0
   32.3380  -56.7940   20.2220 C   0  0  0  0  0  0  0  0  0  0  0  0
   33.2840  -56.4320   19.0830 C   0  0  0  0  0  0  0  0  0  0  0  0
   31.1030  -55.8970   20.2120 C   0  0  0  0  0  0  0  0  0  0  0  0
   31.1440  -61.2720   21.3830 N   0  0  0  0  0  0  0  0  0  0  0  0
   30.6440  -62.6100   21.0820 C   0  0  2  0  0  0  0  0  0  0  0  0
   29.6180  -63.0710   22.1090 C   0  0  0  0  0  0  0  0  0  0  0  0
   29.0070  -64.1310   21.9610 O   0  0  0  0  0  0  0  0  0  0  0  0
   31.8090  -63.6000   21.0260 C   0  0  0  0  0  0  0  0  0  0  0  0
   29.4270  -62.2710   23.1510 N   0  0  0  0  0  0  0  0  0  0  0  0
   28.4700  -62.6060   24.1980 C   0  0  2  0  0  0  0  0  0  0  0  0
   27.0580  -62.2600   23.7450 C   0  0  0  0  0  0  0  0  0  0  0  0
   26.8570  -61.3130   22.9870 O   0  0  0  0  0  0  0  0  0  0  0  0
   28.8060  -61.8420   25.4790 C   0  0  0  0  0  0  0  0  0  0  0  0
   30.1610  -62.1790   26.1070 C   0  0  0  0  0  0  0  0  0  0  0  0
   30.4510  -61.2280   27.2520 C   0  0  0  0  0  0  0  0  0  0  0  0
   30.1470  -63.6250   26.5880 C   0  0  0  0  0  0  0  0  0  0  0  0
   26.0800  -63.0370   24.2000 N   0  0  0  0  0  0  0  0  0  0  0  0
   24.6920  -62.7850   23.8320 C   0  0  0  0  0  0  0  0  0  0  0  0
   35.5048  -62.2653   22.5641 H   0  0  0  0  0  0  0  0  0  0  0  0
   36.2343  -61.3050   23.8285 H   0  0  0  0  0  0  0  0  0  0  0  0
   35.8227  -60.5678   22.2988 H   0  0  0  0  0  0  0  0  0  0  0  0
   34.7888  -59.1802   24.2380 H   0  0  0  0  0  0  0  0  0  0  0  0
   32.4139  -60.1033   25.4233 H   0  0  0  0  0  0  0  0  0  0  0  0
   33.1801  -57.2765   24.7360 H   0  0  0  0  0  0  0  0  0  0  0  0
   33.6025  -58.1128   26.2109 H   0  0  0  0  0  0  0  0  0  0  0  0
   31.9302  -57.7438   25.8640 H   0  0  0  0  0  0  0  0  0  0  0  0
   33.0566  -58.8564   22.2649 H   0  0  0  0  0  0  0  0  0  0  0  0
   30.3867  -58.1880   21.5895 H   0  0  0  0  0  0  0  0  0  0  0  0
   32.7921  -58.8423   19.9175 H   0  0  0  0  0  0  0  0  0  0  0  0
   31.2155  -58.2848   19.2722 H   0  0  0  0  0  0  0  0  0  0  0  0
   32.8512  -56.6499   21.1498 H   0  0  0  0  0  0  0  0  0  0  0  0
   32.7848  -56.5710   18.1469 H   0  0  0  0  0  0  0  0  0  0  0  0
   34.1482  -57.0617   19.1233 H   0  0  0  0  0  0  0  0  0  0  0  0
   33.5832  -55.4092   19.1792 H   0  0  0  0  0  0  0  0  0  0  0  0
   30.5752  -56.0270   19.2903 H   0  0  0  0  0  0  0  0  0  0  0  0
   31.4038  -54.8748   20.3096 H   0  0  0  0  0  0  0  0  0  0  0  0
   30.4642  -56.1604   21.0290 H   0  0  0  0  0  0  0  0  0  0  0  0
   31.9406  -61.1744   21.9532 H   0  0  0  0  0  0  0  0  0  0  0  0
   30.1581  -62.5725   20.1294 H   0  0  0  0  0  0  0  0  0  0  0  0
   32.2930  -63.6355   21.9796 H   0  0  0  0  0  0  0  0  0  0  0  0
   32.5099  -63.2842   20.2818 H   0  0  0  0  0  0  0  0  0  0  0  0
   31.4389  -64.5727   20.7774 H   0  0  0  0  0  0  0  0  0  0  0  0
   29.9421  -61.4347   23.2179 H   0  0  0  0  0  0  0  0  0  0  0  0
   28.5259  -63.6565   24.3934 H   0  0  0  0  0  0  0  0  0  0  0  0
   28.0452  -62.0559   26.2004 H   0  0  0  0  0  0  0  0  0  0  0  0
   28.8573  -60.8097   25.2023 H   0  0  0  0  0  0  0  0  0  0  0  0
   30.9365  -62.0669   25.3784 H   0  0  0  0  0  0  0  0  0  0  0  0
   29.6873  -61.3217   27.9956 H   0  0  0  0  0  0  0  0  0  0  0  0
   30.4701  -60.2231   26.8849 H   0  0  0  0  0  0  0  0  0  0  0  0
   31.4003  -61.4682   27.6834 H   0  0  0  0  0  0  0  0  0  0  0  0
   29.3749  -63.7506   27.3180 H   0  0  0  0  0  0  0  0  0  0  0  0
   31.0937  -63.8646   27.0253 H   0  0  0  0  0  0  0  0  0  0  0  0
   29.9626  -64.2751   25.7584 H   0  0  0  0  0  0  0  0  0  0  0  0
   26.2958  -63.7925   24.7932 H   0  0  0  0  0  0  0  0  0  0  0  0
   24.6431  -61.9322   23.1876 H   0  0  0  0  0  0  0  0  0  0  0  0
   24.1172  -62.5983   24.7150 H   0  0  0  0  0  0  0  0  0  0  0  0
   24.2971  -63.6396   23.3234 H   0  0  0  0  0  0  0  0  0  0  0  0
  1  2  1  0  0  0  0
  1 32  1  0  0  0  0
  1 33  1  0  0  0  0
  1 34  1  0  0  0  0
  2  4  1  0  0  0  0
  3  2  2  0  0  0  0
  4  5  1  0  0  0  0
  4 35  1  0  0  0  0
  5  8  1  0  0  0  0
  5 36  1  1  0  0  0
  6  7  2  0  0  0  0
  6  5  1  0  0  0  0
  8 37  1  0  0  0  0
  8 38  1  0  0  0  0
  8 39  1  0  0  0  0
  9  6  1  0  0  0  0
  9 40  1  0  0  0  0
 10  9  1  0  0  0  0
 10 41  1  1  0  0  0
 11 10  1  0  0  0  0
 11 17  1  0  0  0  0
 12 11  2  0  0  0  0
 13 14  1  0  0  0  0
 13 10  1  0  0  0  0
 13 42  1  0  0  0  0
 13 43  1  0  0  0  0
 14 44  1  0  0  0  0
 15 14  1  0  0  0  0
 15 45  1  0  0  0  0
 15 46  1  0  0  0  0
 15 47  1  0  0  0  0
 16 14  1  0  0  0  0
 16 48  1  0  0  0  0
 16 49  1  0  0  0  0
 16 50  1  0  0  0  0
 17 51  1  0  0  0  0
 18 17  1  0  0  0  0
 18 19  1  0  0  0  0
 18 52  1  6  0  0  0
 19 22  1  0  0  0  0
 20 19  2  0  0  0  0
 21 18  1  0  0  0  0
 21 53  1  0  0  0  0
 21 54  1  0  0  0  0
 21 55  1  0  0  0  0
 22 23  1  0  0  0  0
 22 56  1  0  0  0  0
 23 26  1  0  0  0  0
 23 57  1  1  0  0  0
 24 23  1  0  0  0  0
 24 30  1  0  0  0  0
 25 24  2  0  0  0  0
 26 27  1  0  0  0  0
 26 58  1  0  0  0  0
 26 59  1  0  0  0  0
 27 29  1  0  0  0  0
 27 28  1  0  0  0  0
 27 60  1  0  0  0  0
 28 61  1  0  0  0  0
 28 62  1  0  0  0  0
 28 63  1  0  0  0  0
 29 64  1  0  0  0  0
 29 65  1  0  0  0  0
 29 66  1  0  0  0  0
 30 67  1  0  0  0  0
 31 30  1  0  0  0  0
 31 68  1  0  0  0  0
 31 69  1  0  0  0  0
 31 70  1  0  0  0  0
M  END
>  <MODEL>
       0

$$$$
selected_4mers/ALAL/72_noH.pdb
 OpenBabel03042517503D

 70 69  0  0  1  0  0  0  0  0999 V2000
   55.0120   68.1180    8.6140 C   0  0  0  0  0  0  0  0  0  0  0  0
   54.7370   67.4680    9.9740 C   0  0  0  0  0  0  0  0  0  0  0  0
   55.5160   66.6280   10.4260 O   0  0  0  0  0  0  0  0  0  0  0  0
   53.6160   67.8410   10.6030 N   0  0  0  0  0  0  0  0  0  0  0  0
   53.2310   67.2900   11.9160 C   0  0  2  0  0  0  0  0  0  0  0  0
   53.0750   65.7670   11.8470 C   0  0  0  0  0  0  0  0  0  0  0  0
   53.5460   65.0390   12.7350 O   0  0  0  0  0  0  0  0  0  0  0  0
   51.9110   67.9470   12.4140 C   0  0  0  0  0  0  0  0  0  0  0  0
   52.4140   65.2830   10.8000 N   0  0  0  0  0  0  0  0  0  0  0  0
   52.2420   63.8450   10.6170 C   0  0  2  0  0  0  0  0  0  0  0  0
   53.5900   63.1340   10.4230 C   0  0  0  0  0  0  0  0  0  0  0  0
   53.8450   62.0620   11.0060 O   0  0  0  0  0  0  0  0  0  0  0  0
   51.2910   63.5680    9.4350 C   0  0  0  0  0  0  0  0  0  0  0  0
   51.1280   62.1030    9.0490 C   0  0  0  0  0  0  0  0  0  0  0  0
   50.3740   61.3630   10.1520 C   0  0  0  0  0  0  0  0  0  0  0  0
   50.3770   61.9890    7.7400 C   0  0  0  0  0  0  0  0  0  0  0  0
   54.4510   63.7240    9.5870 N   0  0  0  0  0  0  0  0  0  0  0  0
   55.7900   63.1580    9.3560 C   0  0  2  0  0  0  0  0  0  0  0  0
   56.5870   63.1020   10.6650 C   0  0  0  0  0  0  0  0  0  0  0  0
   57.2020   62.0690   10.9720 O   0  0  0  0  0  0  0  0  0  0  0  0
   56.5390   63.9430    8.2790 C   0  0  0  0  0  0  0  0  0  0  0  0
   56.5440   64.1750   11.4530 N   0  0  0  0  0  0  0  0  0  0  0  0
   57.2130   64.1900   12.7650 C   0  0  2  0  0  0  0  0  0  0  0  0
   56.6520   63.1150   13.6990 C   0  0  0  0  0  0  0  0  0  0  0  0
   57.3990   62.3820   14.3610 O   0  0  0  0  0  0  0  0  0  0  0  0
   57.0820   65.5720   13.4260 C   0  0  0  0  0  0  0  0  0  0  0  0
   57.9280   66.6830   12.7660 C   0  0  0  0  0  0  0  0  0  0  0  0
   57.4570   68.1010   13.1440 C   0  0  0  0  0  0  0  0  0  0  0  0
   59.4290   66.4860   13.0870 C   0  0  0  0  0  0  0  0  0  0  0  0
   55.3230   63.0370   13.7610 N   0  0  0  0  0  0  0  0  0  0  0  0
   54.6680   62.0370   14.5950 C   0  0  0  0  0  0  0  0  0  0  0  0
   55.9307   67.7394    8.2170 H   0  0  0  0  0  0  0  0  0  0  0  0
   55.0855   69.1787    8.7340 H   0  0  0  0  0  0  0  0  0  0  0  0
   54.2118   67.8898    7.9413 H   0  0  0  0  0  0  0  0  0  0  0  0
   53.0288   68.5053   10.1750 H   0  0  0  0  0  0  0  0  0  0  0  0
   54.0114   67.5144   12.6128 H   0  0  0  0  0  0  0  0  0  0  0  0
   51.1221   67.7295   11.7246 H   0  0  0  0  0  0  0  0  0  0  0  0
   52.0434   69.0066   12.4817 H   0  0  0  0  0  0  0  0  0  0  0  0
   51.6599   67.5566   13.3781 H   0  0  0  0  0  0  0  0  0  0  0  0
   52.0344   65.9044   10.1374 H   0  0  0  0  0  0  0  0  0  0  0  0
   51.8025   63.4472   11.5078 H   0  0  0  0  0  0  0  0  0  0  0  0
   50.3253   63.9495    9.6933 H   0  0  0  0  0  0  0  0  0  0  0  0
   51.7330   64.0464    8.5861 H   0  0  0  0  0  0  0  0  0  0  0  0
   52.0957   61.6628    8.9278 H   0  0  0  0  0  0  0  0  0  0  0  0
   49.4053   61.7999   10.2768 H   0  0  0  0  0  0  0  0  0  0  0  0
   50.9199   61.4378   11.0692 H   0  0  0  0  0  0  0  0  0  0  0  0
   50.2686   60.3328    9.8827 H   0  0  0  0  0  0  0  0  0  0  0  0
   49.4061   62.4258    7.8466 H   0  0  0  0  0  0  0  0  0  0  0  0
   50.2768   60.9572    7.4750 H   0  0  0  0  0  0  0  0  0  0  0  0
   50.9172   62.5034    6.9729 H   0  0  0  0  0  0  0  0  0  0  0  0
   54.1855   64.5487    9.1194 H   0  0  0  0  0  0  0  0  0  0  0  0
   55.6737   62.1557    9.0000 H   0  0  0  0  0  0  0  0  0  0  0  0
   56.6733   64.9539    8.6030 H   0  0  0  0  0  0  0  0  0  0  0  0
   55.9731   63.9317    7.3709 H   0  0  0  0  0  0  0  0  0  0  0  0
   57.4948   63.4929    8.1093 H   0  0  0  0  0  0  0  0  0  0  0  0
   56.0549   64.9747   11.1522 H   0  0  0  0  0  0  0  0  0  0  0  0
   58.2477   63.9772   12.5945 H   0  0  0  0  0  0  0  0  0  0  0  0
   57.3863   65.4834   14.4480 H   0  0  0  0  0  0  0  0  0  0  0  0
   56.0586   65.8647   13.3168 H   0  0  0  0  0  0  0  0  0  0  0  0
   57.7879   66.5948   11.7089 H   0  0  0  0  0  0  0  0  0  0  0  0
   57.5748   68.2470   14.1974 H   0  0  0  0  0  0  0  0  0  0  0  0
   56.4263   68.2164   12.8810 H   0  0  0  0  0  0  0  0  0  0  0  0
   58.0430   68.8240   12.6160 H   0  0  0  0  0  0  0  0  0  0  0  0
   59.5823   66.5720   14.1425 H   0  0  0  0  0  0  0  0  0  0  0  0
   60.0031   67.2339   12.5811 H   0  0  0  0  0  0  0  0  0  0  0  0
   59.7395   65.5159   12.7594 H   0  0  0  0  0  0  0  0  0  0  0  0
   54.7754   63.6642   13.2356 H   0  0  0  0  0  0  0  0  0  0  0  0
   55.4089   61.4455   15.0910 H   0  0  0  0  0  0  0  0  0  0  0  0
   54.0587   61.4055   13.9827 H   0  0  0  0  0  0  0  0  0  0  0  0
   54.0555   62.5259   15.3235 H   0  0  0  0  0  0  0  0  0  0  0  0
  1  2  1  0  0  0  0
  1 32  1  0  0  0  0
  1 33  1  0  0  0  0
  1 34  1  0  0  0  0
  2  3  2  0  0  0  0
  2  4  1  0  0  0  0
  4  5  1  0  0  0  0
  4 35  1  0  0  0  0
  5  8  1  0  0  0  0
  5 36  1  1  0  0  0
  6  5  1  0  0  0  0
  6  7  2  0  0  0  0
  8 37  1  0  0  0  0
  8 38  1  0  0  0  0
  8 39  1  0  0  0  0
  9  6  1  0  0  0  0
  9 40  1  0  0  0  0
 10  9  1  0  0  0  0
 10 41  1  1  0  0  0
 11 10  1  0  0  0  0
 11 12  2  0  0  0  0
 13 10  1  0  0  0  0
 13 42  1  0  0  0  0
 13 43  1  0  0  0  0
 14 13  1  0  0  0  0
 14 15  1  0  0  0  0
 14 44  1  0  0  0  0
 15 45  1  0  0  0  0
 15 46  1  0  0  0  0
 15 47  1  0  0  0  0
 16 14  1  0  0  0  0
 16 48  1  0  0  0  0
 16 49  1  0  0  0  0
 16 50  1  0  0  0  0
 17 11  1  0  0  0  0
 17 51  1  0  0  0  0
 18 17  1  0  0  0  0
 18 19  1  0  0  0  0
 18 52  1  6  0  0  0
 19 20  2  0  0  0  0
 19 22  1  0  0  0  0
 21 18  1  0  0  0  0
 21 53  1  0  0  0  0
 21 54  1  0  0  0  0
 21 55  1  0  0  0  0
 22 23  1  0  0  0  0
 22 56  1  0  0  0  0
 23 26  1  0  0  0  0
 23 24  1  0  0  0  0
 23 57  1  6  0  0  0
 24 30  1  0  0  0  0
 24 25  2  0  0  0  0
 26 58  1  0  0  0  0
 26 59  1  0  0  0  0
 27 29  1  0  0  0  0
 27 28  1  0  0  0  0
 27 26  1  0  0  0  0
 27 60  1  0  0  0  0
 28 61  1  0  0  0  0
 28 62  1  0  0  0  0
 28 63  1  0  0  0  0
 29 64  1  0  0  0  0
 29 65  1  0  0  0  0
 29 66  1  0  0  0  0
 30 31  1  0  0  0  0
 30 67  1  0  0  0  0
 31 68  1  0  0  0  0
 31 69  1  0  0  0  0
 31 70  1  0  0  0  0
M  END
>  <MODEL>
       0

$$$$
selected_4mers/ALAL/73_noH.pdb
 OpenBabel03042517503D

 70 69  0  0  1  0  0  0  0  0999 V2000
   42.2360   61.8240   18.1190 C   0  0  0  0  0  0  0  0  0  0  0  0
   41.9460   63.3000   18.0460 C   0  0  0  0  0  0  0  0  0  0  0  0
   41.8760   63.8600   16.9560 O   0  0  0  0  0  0  0  0  0  0  0  0
   41.8220   63.9720   19.1790 N   0  0  0  0  0  0  0  0  0  0  0  0
   41.2420   65.3340   19.1580 C   0  0  2  0  0  0  0  0  0  0  0  0
   42.1130   66.3560   18.4220 C   0  0  0  0  0  0  0  0  0  0  0  0
   41.6300   67.0370   17.4960 O   0  0  0  0  0  0  0  0  0  0  0  0
   40.9070   65.8110   20.5430 C   0  0  0  0  0  0  0  0  0  0  0  0
   43.3720   66.5140   18.8490 N   0  0  0  0  0  0  0  0  0  0  0  0
   44.2400   67.4840   18.1290 C   0  0  2  0  0  0  0  0  0  0  0  0
   44.5550   67.0100   16.7000 C   0  0  0  0  0  0  0  0  0  0  0  0
   44.6750   67.8190   15.7790 O   0  0  0  0  0  0  0  0  0  0  0  0
   45.5140   67.7700   18.9090 C   0  0  0  0  0  0  0  0  0  0  0  0
   45.3100   68.7300   20.0810 C   0  0  0  0  0  0  0  0  0  0  0  0
   46.5460   68.7280   20.9880 C   0  0  0  0  0  0  0  0  0  0  0  0
   45.0190   70.1320   19.5780 C   0  0  0  0  0  0  0  0  0  0  0  0
   44.6890   65.7020   16.5020 N   0  0  0  0  0  0  0  0  0  0  0  0
   44.9220   65.1580   15.1410 C   0  0  2  0  0  0  0  0  0  0  0  0
   43.8190   65.5700   14.1770 C   0  0  0  0  0  0  0  0  0  0  0  0
   44.0890   65.8970   13.0150 O   0  0  0  0  0  0  0  0  0  0  0  0
   44.9880   63.6480   15.2150 C   0  0  0  0  0  0  0  0  0  0  0  0
   42.5670   65.5160   14.6240 N   0  0  0  0  0  0  0  0  0  0  0  0
   41.4290   65.9190   13.7650 C   0  0  2  0  0  0  0  0  0  0  0  0
   41.4350   67.4330   13.5100 C   0  0  0  0  0  0  0  0  0  0  0  0
   41.1060   67.8700   12.4070 O   0  0  0  0  0  0  0  0  0  0  0  0
   40.1080   65.4980   14.3730 C   0  0  0  0  0  0  0  0  0  0  0  0
   39.7800   64.0100   14.2730 C   0  0  0  0  0  0  0  0  0  0  0  0
   38.6500   63.6260   15.2450 C   0  0  0  0  0  0  0  0  0  0  0  0
   39.4240   63.7160   12.8070 C   0  0  0  0  0  0  0  0  0  0  0  0
   41.7660   68.2300   14.5230 N   0  0  0  0  0  0  0  0  0  0  0  0
   41.9120   69.6570   14.3240 C   0  0  0  0  0  0  0  0  0  0  0  0
   42.3074   61.4251   17.1287 H   0  0  0  0  0  0  0  0  0  0  0  0
   41.4460   61.3309   18.6460 H   0  0  0  0  0  0  0  0  0  0  0  0
   43.1606   61.6672   18.6342 H   0  0  0  0  0  0  0  0  0  0  0  0
   42.1130   63.5696   20.0291 H   0  0  0  0  0  0  0  0  0  0  0  0
   40.3340   65.2541   18.5976 H   0  0  0  0  0  0  0  0  0  0  0  0
   41.8054   65.8965   21.1178 H   0  0  0  0  0  0  0  0  0  0  0  0
   40.2488   65.1100   21.0122 H   0  0  0  0  0  0  0  0  0  0  0  0
   40.4283   66.7662   20.4852 H   0  0  0  0  0  0  0  0  0  0  0  0
   43.7137   66.0027   19.6178 H   0  0  0  0  0  0  0  0  0  0  0  0
   43.6949   68.4012   18.0484 H   0  0  0  0  0  0  0  0  0  0  0  0
   46.2309   68.1992   18.2407 H   0  0  0  0  0  0  0  0  0  0  0  0
   45.8470   66.8395   19.3191 H   0  0  0  0  0  0  0  0  0  0  0  0
   44.4677   68.3983   20.6514 H   0  0  0  0  0  0  0  0  0  0  0  0
   47.3978   69.0579   20.4308 H   0  0  0  0  0  0  0  0  0  0  0  0
   46.7198   67.7369   21.3518 H   0  0  0  0  0  0  0  0  0  0  0  0
   46.3830   69.3878   21.8144 H   0  0  0  0  0  0  0  0  0  0  0  0
   45.8501   70.4845   19.0035 H   0  0  0  0  0  0  0  0  0  0  0  0
   44.8593   70.7839   20.4113 H   0  0  0  0  0  0  0  0  0  0  0  0
   44.1425   70.1161   18.9645 H   0  0  0  0  0  0  0  0  0  0  0  0
   44.6329   65.0864   17.2682 H   0  0  0  0  0  0  0  0  0  0  0  0
   45.8455   65.5553   14.7747 H   0  0  0  0  0  0  0  0  0  0  0  0
   44.0578   63.2679   15.5826 H   0  0  0  0  0  0  0  0  0  0  0  0
   45.7780   63.3575   15.8755 H   0  0  0  0  0  0  0  0  0  0  0  0
   45.1748   63.2509   14.2391 H   0  0  0  0  0  0  0  0  0  0  0  0
   42.3938   65.2029   15.5412 H   0  0  0  0  0  0  0  0  0  0  0  0
   41.5448   65.4173   12.8270 H   0  0  0  0  0  0  0  0  0  0  0  0
   39.3299   66.0406   13.8779 H   0  0  0  0  0  0  0  0  0  0  0  0
   40.1860   65.7109   15.4187 H   0  0  0  0  0  0  0  0  0  0  0  0
   40.6201   63.4129   14.5603 H   0  0  0  0  0  0  0  0  0  0  0  0
   37.7718   64.1912   15.0121 H   0  0  0  0  0  0  0  0  0  0  0  0
   38.9551   63.8383   16.2484 H   0  0  0  0  0  0  0  0  0  0  0  0
   38.4376   62.5816   15.1502 H   0  0  0  0  0  0  0  0  0  0  0  0
   38.5839   64.3121   12.5175 H   0  0  0  0  0  0  0  0  0  0  0  0
   39.1797   62.6797   12.7002 H   0  0  0  0  0  0  0  0  0  0  0  0
   40.2605   63.9515   12.1827 H   0  0  0  0  0  0  0  0  0  0  0  0
   41.9132   67.8454   15.4172 H   0  0  0  0  0  0  0  0  0  0  0  0
   41.7165   69.8961   13.2995 H   0  0  0  0  0  0  0  0  0  0  0  0
   42.9095   69.9519   14.5750 H   0  0  0  0  0  0  0  0  0  0  0  0
   41.2179   70.1773   14.9504 H   0  0  0  0  0  0  0  0  0  0  0  0
  1 32  1  0  0  0  0
  1 33  1  0  0  0  0
  1 34  1  0  0  0  0
  2  1  1  0  0  0  0
  2  4  1  0  0  0  0
  3  2  2  0  0  0  0
  4 35  1  0  0  0  0
  5  4  1  0  0  0  0
  5  8  1  0  0  0  0
  5 36  1  6  0  0  0
  6  9  1  0  0  0  0
  6  5  1  0  0  0  0
  7  6  2  0  0  0  0
  8 37  1  0  0  0  0
  8 38  1  0  0  0  0
  8 39  1  0  0  0  0
  9 40  1  0  0  0  0
 10  9  1  0  0  0  0
 10 13  1  0  0  0  0
 10 41  1  6  0  0  0
 11 10  1  0  0  0  0
 12 11  2  0  0  0  0
 13 14  1  0  0  0  0
 13 42  1  0  0  0  0
 13 43  1  0  0  0  0
 14 15  1  0  0  0  0
 14 44  1  0  0  0  0
 15 45  1  0  0  0  0
 15 46  1  0  0  0  0
 15 47  1  0  0  0  0
 16 14  1  0  0  0  0
 16 48  1  0  0  0  0
 16 49  1  0  0  0  0
 16 50  1  0  0  0  0
 17 11  1  0  0  0  0
 17 51  1  0  0  0  0
 18 21  1  0  0  0  0
 18 17  1  0  0  0  0
 18 52  1  6  0  0  0
 19 22  1  0  0  0  0
 19 18  1  0  0  0  0
 20 19  2  0  0  0  0
 21 53  1  0  0  0  0
 21 54  1  0  0  0  0
 21 55  1  0  0  0  0
 22 56  1  0  0  0  0
 23 26  1  0  0  0  0
 23 22  1  0  0  0  0
 23 57  1  6  0  0  0
 24 23  1  0  0  0  0
 24 30  1  0  0  0  0
 25 24  2  0  0  0  0
 26 58  1  0  0  0  0
 26 59  1  0  0  0  0
 27 26  1  0  0  0  0
 27 28  1  0  0  0  0
 27 60  1  0  0  0  0
 28 61  1  0  0  0  0
 28 62  1  0  0  0  0
 28 63  1  0  0  0  0
 29 27  1  0  0  0  0
 29 64  1  0  0  0  0
 29 65  1  0  0  0  0
 29 66  1  0  0  0  0
 30 67  1  0  0  0  0
 31 30  1  0  0  0  0
 31 68  1  0  0  0  0
 31 69  1  0  0  0  0
 31 70  1  0  0  0  0
M  END
>  <MODEL>
       0

$$$$
selected_4mers/ALAL/74_noH.pdb
 OpenBabel03042517503D

 70 69  0  0  1  0  0  0  0  0999 V2000
   18.1490   16.4780   35.0140 C   0  0  0  0  0  0  0  0  0  0  0  0
   16.8160   16.9370   35.6160 C   0  0  0  0  0  0  0  0  0  0  0  0
   15.7820   16.2610   35.4830 O   0  0  0  0  0  0  0  0  0  0  0  0
   16.8340   18.1010   36.2520 N   0  0  0  0  0  0  0  0  0  0  0  0
   15.6110   18.6940   36.8110 C   0  0  2  0  0  0  0  0  0  0  0  0
   14.5920   19.0420   35.7030 C   0  0  0  0  0  0  0  0  0  0  0  0
   13.3790   18.8360   35.8950 O   0  0  0  0  0  0  0  0  0  0  0  0
   15.9370   19.9300   37.6930 C   0  0  0  0  0  0  0  0  0  0  0  0
   15.0600   19.5510   34.5530 N   0  0  0  0  0  0  0  0  0  0  0  0
   14.1620   19.8910   33.4640 C   0  0  2  0  0  0  0  0  0  0  0  0
   13.5460   18.6450   32.8530 C   0  0  0  0  0  0  0  0  0  0  0  0
   12.3360   18.6290   32.5530 O   0  0  0  0  0  0  0  0  0  0  0  0
   14.8910   20.6810   32.3700 C   0  0  0  0  0  0  0  0  0  0  0  0
   14.0700   21.1840   31.1830 C   0  0  0  0  0  0  0  0  0  0  0  0
   12.8040   21.8900   31.6860 C   0  0  0  0  0  0  0  0  0  0  0  0
   14.9290   22.0860   30.2760 C   0  0  0  0  0  0  0  0  0  0  0  0
   14.3770   17.6230   32.6260 N   0  0  0  0  0  0  0  0  0  0  0  0
   13.8710   16.3240   32.1680 C   0  0  2  0  0  0  0  0  0  0  0  0
   12.7860   15.7950   33.0910 C   0  0  0  0  0  0  0  0  0  0  0  0
   11.7080   15.3760   32.6360 O   0  0  0  0  0  0  0  0  0  0  0  0
   15.0170   15.3090   32.0720 C   0  0  0  0  0  0  0  0  0  0  0  0
   13.0740   15.8260   34.3980 N   0  0  0  0  0  0  0  0  0  0  0  0
   12.1240   15.3690   35.4050 C   0  0  2  0  0  0  0  0  0  0  0  0
   10.8160   16.1670   35.3850 C   0  0  0  0  0  0  0  0  0  0  0  0
    9.7390   15.5880   35.4060 O   0  0  0  0  0  0  0  0  0  0  0  0
   12.7560   15.4470   36.8010 C   0  0  0  0  0  0  0  0  0  0  0  0
   12.0620   14.7070   37.9180 C   0  0  0  0  0  0  0  0  0  0  0  0
   12.0190   13.2020   37.6540 C   0  0  0  0  0  0  0  0  0  0  0  0
   12.8080   15.0060   39.2140 C   0  0  0  0  0  0  0  0  0  0  0  0
   10.9180   17.4900   35.3380 N   0  0  0  0  0  0  0  0  0  0  0  0
    9.7500   18.3690   35.2390 C   0  0  0  0  0  0  0  0  0  0  0  0
   18.0150   15.5336   34.5292 H   0  0  0  0  0  0  0  0  0  0  0  0
   18.8767   16.3794   35.7922 H   0  0  0  0  0  0  0  0  0  0  0  0
   18.4857   17.2006   34.3003 H   0  0  0  0  0  0  0  0  0  0  0  0
   17.6884   18.5798   36.3521 H   0  0  0  0  0  0  0  0  0  0  0  0
   15.1557   17.9589   37.4413 H   0  0  0  0  0  0  0  0  0  0  0  0
   16.3951   20.6868   37.0911 H   0  0  0  0  0  0  0  0  0  0  0  0
   16.6073   19.6426   38.4760 H   0  0  0  0  0  0  0  0  0  0  0  0
   15.0332   20.3121   38.1196 H   0  0  0  0  0  0  0  0  0  0  0  0
   16.0278   19.6962   34.4460 H   0  0  0  0  0  0  0  0  0  0  0  0
   13.3853   20.5003   33.8767 H   0  0  0  0  0  0  0  0  0  0  0  0
   15.3340   21.5362   32.8361 H   0  0  0  0  0  0  0  0  0  0  0  0
   15.5764   19.9786   31.9436 H   0  0  0  0  0  0  0  0  0  0  0  0
   13.7575   20.3535   30.5851 H   0  0  0  0  0  0  0  0  0  0  0  0
   13.0797   22.7291   32.2900 H   0  0  0  0  0  0  0  0  0  0  0  0
   12.2223   21.2068   32.2688 H   0  0  0  0  0  0  0  0  0  0  0  0
   12.2272   22.2265   30.8499 H   0  0  0  0  0  0  0  0  0  0  0  0
   15.2662   22.9347   30.8335 H   0  0  0  0  0  0  0  0  0  0  0  0
   14.3433   22.4159   29.4435 H   0  0  0  0  0  0  0  0  0  0  0  0
   15.7740   21.5337   29.9211 H   0  0  0  0  0  0  0  0  0  0  0  0
   15.3437   17.7437   32.7683 H   0  0  0  0  0  0  0  0  0  0  0  0
   13.4430   16.4651   31.1975 H   0  0  0  0  0  0  0  0  0  0  0  0
   15.4479   15.1649   33.0407 H   0  0  0  0  0  0  0  0  0  0  0  0
   15.7642   15.6772   31.4004 H   0  0  0  0  0  0  0  0  0  0  0  0
   14.6383   14.3769   31.7079 H   0  0  0  0  0  0  0  0  0  0  0  0
   13.9513   16.1667   34.6870 H   0  0  0  0  0  0  0  0  0  0  0  0
   11.8832   14.3536   35.1686 H   0  0  0  0  0  0  0  0  0  0  0  0
   12.7980   16.4798   37.0774 H   0  0  0  0  0  0  0  0  0  0  0  0
   13.7052   14.9636   36.6998 H   0  0  0  0  0  0  0  0  0  0  0  0
   11.0462   15.0358   37.9876 H   0  0  0  0  0  0  0  0  0  0  0  0
   13.0173   12.8249   37.5761 H   0  0  0  0  0  0  0  0  0  0  0  0
   11.4948   13.0150   36.7401 H   0  0  0  0  0  0  0  0  0  0  0  0
   11.5148   12.7126   38.4610 H   0  0  0  0  0  0  0  0  0  0  0  0
   13.8207   14.6715   39.1279 H   0  0  0  0  0  0  0  0  0  0  0  0
   12.3318   14.4963   40.0254 H   0  0  0  0  0  0  0  0  0  0  0  0
   12.7949   16.0600   39.3981 H   0  0  0  0  0  0  0  0  0  0  0  0
   11.8141   17.8965   35.3710 H   0  0  0  0  0  0  0  0  0  0  0  0
    8.8591   17.7769   35.2137 H   0  0  0  0  0  0  0  0  0  0  0  0
    9.8167   18.9514   34.3439 H   0  0  0  0  0  0  0  0  0  0  0  0
    9.7211   19.0207   36.0872 H   0  0  0  0  0  0  0  0  0  0  0  0
  1  2  1  0  0  0  0
  1 32  1  0  0  0  0
  1 33  1  0  0  0  0
  1 34  1  0  0  0  0
  2  4  1  0  0  0  0
  3  2  2  0  0  0  0
  4  5  1  0  0  0  0
  4 35  1  0  0  0  0
  5  8  1  0  0  0  0
  5 36  1  1  0  0  0
  6  7  2  0  0  0  0
  6  5  1  0  0  0  0
  8 37  1  0  0  0  0
  8 38  1  0  0  0  0
  8 39  1  0  0  0  0
  9  6  1  0  0  0  0
  9 40  1  0  0  0  0
 10  9  1  0  0  0  0
 10 41  1  1  0  0  0
 11 10  1  0  0  0  0
 12 11  2  0  0  0  0
 13 10  1  0  0  0  0
 13 42  1  0  0  0  0
 13 43  1  0  0  0  0
 14 15  1  0  0  0  0
 14 13  1  0  0  0  0
 14 44  1  0  0  0  0
 15 45  1  0  0  0  0
 15 46  1  0  0  0  0
 15 47  1  0  0  0  0
 16 14  1  0  0  0  0
 16 48  1  0  0  0  0
 16 49  1  0  0  0  0
 16 50  1  0  0  0  0
 17 11  1  0  0  0  0
 17 51  1  0  0  0  0
 18 17  1  0  0  0  0
 18 19  1  0  0  0  0
 18 52  1  6  0  0  0
 19 22  1  0  0  0  0
 20 19  2  0  0  0  0
 21 18  1  0  0  0  0
 21 53  1  0  0  0  0
 21 54  1  0  0  0  0
 21 55  1  0  0  0  0
 22 23  1  0  0  0  0
 22 56  1  0  0  0  0
 23 26  1  0  0  0  0
 23 57  1  6  0  0  0
 24 23  1  0  0  0  0
 24 25  2  0  0  0  0
 26 27  1  0  0  0  0
 26 58  1  0  0  0  0
 26 59  1  0  0  0  0
 27 29  1  0  0  0  0
 27 60  1  0  0  0  0
 28 27  1  0  0  0  0
 28 61  1  0  0  0  0
 28 62  1  0  0  0  0
 28 63  1  0  0  0  0
 29 64  1  0  0  0  0
 29 65  1  0  0  0  0
 29 66  1  0  0  0  0
 30 24  1  0  0  0  0
 30 67  1  0  0  0  0
 31 30  1  0  0  0  0
 31 68  1  0  0  0  0
 31 69  1  0  0  0  0
 31 70  1  0  0  0  0
M  END
>  <MODEL>
       0

$$$$
