selected_4mers/ALAP/260_noH.pdb
 OpenBabel03042517503D

 65 65  0  0  1  0  0  0  0  0999 V2000
   60.9430   31.3420   40.8680 C   0  0  0  0  0  0  0  0  0  0  0  0
   61.0770   29.8440   41.0350 C   0  0  0  0  0  0  0  0  0  0  0  0
   62.0350   29.3830   41.6440 O   0  0  0  0  0  0  0  0  0  0  0  0
   60.1530   29.0950   40.4290 N   0  0  0  0  0  0  0  0  0  0  0  0
   60.2930   27.6670   40.2240 C   0  0  2  0  0  0  0  0  0  0  0  0
   61.0980   27.4850   38.9380 C   0  0  0  0  0  0  0  0  0  0  0  0
   60.8000   28.1420   37.9180 O   0  0  0  0  0  0  0  0  0  0  0  0
   58.9000   26.9820   40.1050 C   0  0  0  0  0  0  0  0  0  0  0  0
   62.1120   26.6100   38.9940 N   0  0  0  0  0  0  0  0  0  0  0  0
   63.0800   26.4280   37.8770 C   0  0  2  0  0  0  0  0  0  0  0  0
   63.0680   25.0100   37.3570 C   0  0  0  0  0  0  0  0  0  0  0  0
   62.7600   24.0570   38.0940 O   0  0  0  0  0  0  0  0  0  0  0  0
   64.5280   26.8070   38.2910 C   0  0  0  0  0  0  0  0  0  0  0  0
   64.7530   28.2040   38.8630 C   0  0  0  0  0  0  0  0  0  0  0  0
   66.2540   28.4320   39.2110 C   0  0  0  0  0  0  0  0  0  0  0  0
   64.2680   29.2350   37.8640 C   0  0  0  0  0  0  0  0  0  0  0  0
   63.3060   24.8820   36.0570 N   0  0  0  0  0  0  0  0  0  0  0  0
   63.3660   23.6020   35.4020 C   0  0  2  0  0  0  0  0  0  0  0  0
   64.6480   22.9150   35.8670 C   0  0  0  0  0  0  0  0  0  0  0  0
   65.6240   23.6010   36.1570 O   0  0  0  0  0  0  0  0  0  0  0  0
   63.4420   23.8330   33.8940 C   0  0  0  0  0  0  0  0  0  0  0  0
   64.6630   21.5710   35.8620 N   0  0  0  0  0  0  0  0  0  0  0  0
   65.9020   20.8340   36.1300 C   0  0  2  0  0  0  0  0  0  0  0  0
   66.8470   20.9390   34.9310 C   0  0  0  0  0  0  0  0  0  0  0  0
   66.4030   21.1880   33.8150 O   0  0  0  0  0  0  0  0  0  0  0  0
   65.4210   19.4040   36.3120 C   0  0  0  0  0  0  0  0  0  0  0  0
   64.1900   19.2720   35.3980 C   0  0  0  0  0  0  0  0  0  0  0  0
   63.5360   20.6790   35.5320 C   0  0  0  0  0  0  0  0  0  0  0  0
   68.1330   20.7800   35.1740 N   0  0  0  0  0  0  0  0  0  0  0  0
   69.1300   20.8690   34.1180 C   0  0  0  0  0  0  0  0  0  0  0  0
   60.0538   31.5611   40.3146 H   0  0  0  0  0  0  0  0  0  0  0  0
   61.7937   31.7195   40.3401 H   0  0  0  0  0  0  0  0  0  0  0  0
   60.8868   31.8046   41.8312 H   0  0  0  0  0  0  0  0  0  0  0  0
   59.3343   29.5352   40.1046 H   0  0  0  0  0  0  0  0  0  0  0  0
   60.7899   27.2111   41.0548 H   0  0  0  0  0  0  0  0  0  0  0  0
   58.3626   27.4070   39.2831 H   0  0  0  0  0  0  0  0  0  0  0  0
   58.3487   27.1354   41.0091 H   0  0  0  0  0  0  0  0  0  0  0  0
   59.0313   25.9328   39.9410 H   0  0  0  0  0  0  0  0  0  0  0  0
   62.2213   26.0654   39.8068 H   0  0  0  0  0  0  0  0  0  0  0  0
   62.7624   27.0905   37.0991 H   0  0  0  0  0  0  0  0  0  0  0  0
   65.1451   26.7130   37.4220 H   0  0  0  0  0  0  0  0  0  0  0  0
   64.7656   26.1413   39.0943 H   0  0  0  0  0  0  0  0  0  0  0  0
   64.1968   28.3033   39.7717 H   0  0  0  0  0  0  0  0  0  0  0  0
   66.8439   28.3401   38.3231 H   0  0  0  0  0  0  0  0  0  0  0  0
   66.5694   27.7011   39.9259 H   0  0  0  0  0  0  0  0  0  0  0  0
   66.3798   29.4114   39.6231 H   0  0  0  0  0  0  0  0  0  0  0  0
   64.8225   29.1383   36.9540 H   0  0  0  0  0  0  0  0  0  0  0  0
   64.4110   30.2162   38.2662 H   0  0  0  0  0  0  0  0  0  0  0  0
   63.2281   29.0786   37.6664 H   0  0  0  0  0  0  0  0  0  0  0  0
   63.4470   25.6950   35.5199 H   0  0  0  0  0  0  0  0  0  0  0  0
   62.5087   23.0045   35.6322 H   0  0  0  0  0  0  0  0  0  0  0  0
   64.3002   24.4306   33.6675 H   0  0  0  0  0  0  0  0  0  0  0  0
   62.5582   24.3390   33.5657 H   0  0  0  0  0  0  0  0  0  0  0  0
   63.5208   22.8911   33.3924 H   0  0  0  0  0  0  0  0  0  0  0  0
   66.4449   21.2031   36.9749 H   0  0  0  0  0  0  0  0  0  0  0  0
   66.1823   18.7119   36.0181 H   0  0  0  0  0  0  0  0  0  0  0  0
   65.1853   19.1886   37.3333 H   0  0  0  0  0  0  0  0  0  0  0  0
   64.4762   19.0709   34.3868 H   0  0  0  0  0  0  0  0  0  0  0  0
   63.5387   18.4660   35.6646 H   0  0  0  0  0  0  0  0  0  0  0  0
   62.8055   20.6852   36.3138 H   0  0  0  0  0  0  0  0  0  0  0  0
   63.0224   20.9789   34.6425 H   0  0  0  0  0  0  0  0  0  0  0  0
   68.4268   20.5960   36.0954 H   0  0  0  0  0  0  0  0  0  0  0  0
   68.6452   21.0723   33.1860 H   0  0  0  0  0  0  0  0  0  0  0  0
   69.6606   19.9423   34.0494 H   0  0  0  0  0  0  0  0  0  0  0  0
   69.8174   21.6578   34.3420 H   0  0  0  0  0  0  0  0  0  0  0  0
  1  2  1  0  0  0  0
  1 31  1  0  0  0  0
  1 32  1  0  0  0  0
  1 33  1  0  0  0  0
  2  3  2  0  0  0  0
  4  2  1  0  0  0  0
  4 34  1  0  0  0  0
  5  4  1  0  0  0  0
  5 35  1  1  0  0  0
  6  9  1  0  0  0  0
  6  5  1  0  0  0  0
  7  6  2  0  0  0  0
  8  5  1  0  0  0  0
  8 36  1  0  0  0  0
  8 37  1  0  0  0  0
  8 38  1  0  0  0  0
  9 39  1  0  0  0  0
 10 13  1  0  0  0  0
 10  9  1  0  0  0  0
 10 40  1  6  0  0  0
 11 10  1  0  0  0  0
 11 12  2  0  0  0  0
 13 14  1  0  0  0  0
 13 41  1  0  0  0  0
 13 42  1  0  0  0  0
 14 15  1  0  0  0  0
 14 43  1  0  0  0  0
 15 44  1  0  0  0  0
 15 45  1  0  0  0  0
 15 46  1  0  0  0  0
 16 14  1  0  0  0  0
 16 47  1  0  0  0  0
 16 48  1  0  0  0  0
 16 49  1  0  0  0  0
 17 11  1  0  0  0  0
 17 50  1  0  0  0  0
 18 19  1  0  0  0  0
 18 17  1  0  0  0  0
 18 51  1  1  0  0  0
 19 20  2  0  0  0  0
 21 18  1  0  0  0  0
 21 52  1  0  0  0  0
 21 53  1  0  0  0  0
 21 54  1  0  0  0  0
 22 19  1  0  0  0  0
 22 23  1  0  0  0  0
 23 26  1  0  0  0  0
 23 55  1  1  0  0  0
 24 29  1  0  0  0  0
 24 23  1  0  0  0  0
 25 24  2  0  0  0  0
 26 56  1  0  0  0  0
 26 57  1  0  0  0  0
 27 28  1  0  0  0  0
 27 26  1  0  0  0  0
 27 58  1  0  0  0  0
 27 59  1  0  0  0  0
 28 22  1  0  0  0  0
 28 60  1  0  0  0  0
 28 61  1  0  0  0  0
 29 62  1  0  0  0  0
 30 29  1  0  0  0  0
 30 63  1  0  0  0  0
 30 64  1  0  0  0  0
 30 65  1  0  0  0  0
M  END
>  <MODEL>
       0

$$$$
selected_4mers/ALAP/261_noH.pdb
 OpenBabel03042517503D

 65 65  0  0  1  0  0  0  0  0999 V2000
   31.6060   30.3170   28.6070 C   0  0  0  0  0  0  0  0  0  0  0  0
   30.5740   29.3620   29.2010 C   0  0  0  0  0  0  0  0  0  0  0  0
   30.2800   29.4620   30.3990 O   0  0  0  0  0  0  0  0  0  0  0  0
   29.9680   28.5080   28.3800 N   0  0  0  0  0  0  0  0  0  0  0  0
   28.8450   27.6940   28.8280 C   0  0  2  0  0  0  0  0  0  0  0  0
   29.2180   26.2460   29.1310 C   0  0  0  0  0  0  0  0  0  0  0  0
   28.3490   25.4830   29.5660 O   0  0  0  0  0  0  0  0  0  0  0  0
   27.7160   27.7020   27.7960 C   0  0  0  0  0  0  0  0  0  0  0  0
   30.4840   25.8710   28.9490 N   0  0  0  0  0  0  0  0  0  0  0  0
   30.8760   24.4810   29.1520 C   0  0  2  0  0  0  0  0  0  0  0  0
   30.8590   24.0740   30.6280 C   0  0  0  0  0  0  0  0  0  0  0  0
   31.4550   24.7490   31.4560 O   0  0  0  0  0  0  0  0  0  0  0  0
   32.2820   24.1870   28.6310 C   0  0  0  0  0  0  0  0  0  0  0  0
   32.5770   24.4450   27.1650 C   0  0  0  0  0  0  0  0  0  0  0  0
   33.9960   23.9890   26.8400 C   0  0  0  0  0  0  0  0  0  0  0  0
   31.5950   23.7360   26.2460 C   0  0  0  0  0  0  0  0  0  0  0  0
   30.2570   22.9140   30.8930 N   0  0  0  0  0  0  0  0  0  0  0  0
   30.3060   22.3350   32.2270 C   0  0  2  0  0  0  0  0  0  0  0  0
   31.7160   21.8090   32.4910 C   0  0  0  0  0  0  0  0  0  0  0  0
   32.4290   21.4190   31.5710 O   0  0  0  0  0  0  0  0  0  0  0  0
   29.3120   21.1760   32.3170 C   0  0  0  0  0  0  0  0  0  0  0  0
   32.1120   21.7520   33.7600 N   0  0  0  0  0  0  0  0  0  0  0  0
   33.4700   21.3010   34.0770 C   0  0  2  0  0  0  0  0  0  0  0  0
   33.7850   19.9120   33.5440 C   0  0  0  0  0  0  0  0  0  0  0  0
   34.9110   19.6200   33.1460 O   0  0  0  0  0  0  0  0  0  0  0  0
   33.5170   21.3290   35.5960 C   0  0  0  0  0  0  0  0  0  0  0  0
   32.2540   21.8960   36.0890 C   0  0  0  0  0  0  0  0  0  0  0  0
   31.3520   22.2010   34.9420 C   0  0  0  0  0  0  0  0  0  0  0  0
   32.7940   19.0290   33.5450 N   0  0  0  0  0  0  0  0  0  0  0  0
   33.0560   17.6580   33.1110 C   0  0  0  0  0  0  0  0  0  0  0  0
   31.7414   30.0951   27.5691 H   0  0  0  0  0  0  0  0  0  0  0  0
   32.5372   30.2006   29.1211 H   0  0  0  0  0  0  0  0  0  0  0  0
   31.2628   31.3248   28.7145 H   0  0  0  0  0  0  0  0  0  0  0  0
   30.2845   28.4243   27.4515 H   0  0  0  0  0  0  0  0  0  0  0  0
   28.5216   28.1442   29.7432 H   0  0  0  0  0  0  0  0  0  0  0  0
   28.0583   27.2484   26.8894 H   0  0  0  0  0  0  0  0  0  0  0  0
   27.4191   28.7111   27.6000 H   0  0  0  0  0  0  0  0  0  0  0  0
   26.8808   27.1520   28.1767 H   0  0  0  0  0  0  0  0  0  0  0  0
   31.1575   26.5353   28.6763 H   0  0  0  0  0  0  0  0  0  0  0  0
   30.1494   23.9194   28.6029 H   0  0  0  0  0  0  0  0  0  0  0  0
   32.9620   24.7854   29.2006 H   0  0  0  0  0  0  0  0  0  0  0  0
   32.3858   23.1274   28.7377 H   0  0  0  0  0  0  0  0  0  0  0  0
   32.4759   25.4970   26.9979 H   0  0  0  0  0  0  0  0  0  0  0  0
   34.0805   22.9363   27.0120 H   0  0  0  0  0  0  0  0  0  0  0  0
   34.6901   24.5096   27.4661 H   0  0  0  0  0  0  0  0  0  0  0  0
   34.2126   24.2012   25.8139 H   0  0  0  0  0  0  0  0  0  0  0  0
   31.6719   22.6785   26.3897 H   0  0  0  0  0  0  0  0  0  0  0  0
   31.8226   23.9752   25.2282 H   0  0  0  0  0  0  0  0  0  0  0  0
   30.5994   24.0554   26.4734 H   0  0  0  0  0  0  0  0  0  0  0  0
   29.7730   22.4431   30.1766 H   0  0  0  0  0  0  0  0  0  0  0  0
   30.0528   23.0801   32.9520 H   0  0  0  0  0  0  0  0  0  0  0  0
   29.5658   20.4314   31.5917 H   0  0  0  0  0  0  0  0  0  0  0  0
   28.3235   21.5382   32.1255 H   0  0  0  0  0  0  0  0  0  0  0  0
   29.3513   20.7477   33.2967 H   0  0  0  0  0  0  0  0  0  0  0  0
   34.2045   21.9275   33.6155 H   0  0  0  0  0  0  0  0  0  0  0  0
   34.3570   21.9370   35.9330 H   0  0  0  0  0  0  0  0  0  0  0  0
   33.6410   20.3160   35.9800 H   0  0  0  0  0  0  0  0  0  0  0  0
   32.4630   22.8160   36.6350 H   0  0  0  0  0  0  0  0  0  0  0  0
   31.7690   21.1780   36.7500 H   0  0  0  0  0  0  0  0  0  0  0  0
   30.4312   21.6629   35.0289 H   0  0  0  0  0  0  0  0  0  0  0  0
   31.0863   23.2362   34.8915 H   0  0  0  0  0  0  0  0  0  0  0  0
   31.8915   19.2948   33.8351 H   0  0  0  0  0  0  0  0  0  0  0  0
   34.0855   17.5616   32.8359 H   0  0  0  0  0  0  0  0  0  0  0  0
   32.4385   17.4264   32.2684 H   0  0  0  0  0  0  0  0  0  0  0  0
   32.8358   16.9824   33.9110 H   0  0  0  0  0  0  0  0  0  0  0  0
  1  2  1  0  0  0  0
  1 31  1  0  0  0  0
  1 32  1  0  0  0  0
  1 33  1  0  0  0  0
  2  3  2  0  0  0  0
  4  5  1  0  0  0  0
  4  2  1  0  0  0  0
  4 34  1  0  0  0  0
  5  6  1  0  0  0  0
  5 35  1  1  0  0  0
  6  7  2  0  0  0  0
  8  5  1  0  0  0  0
  8 36  1  0  0  0  0
  8 37  1  0  0  0  0
  8 38  1  0  0  0  0
  9  6  1  0  0  0  0
  9 10  1  0  0  0  0
  9 39  1  0  0  0  0
 10 11  1  0  0  0  0
 10 40  1  6  0  0  0
 11 17  1  0  0  0  0
 11 12  2  0  0  0  0
 13 10  1  0  0  0  0
 13 41  1  0  0  0  0
 13 42  1  0  0  0  0
 14 13  1  0  0  0  0
 14 43  1  0  0  0  0
 15 14  1  0  0  0  0
 15 44  1  0  0  0  0
 15 45  1  0  0  0  0
 15 46  1  0  0  0  0
 16 14  1  0  0  0  0
 16 47  1  0  0  0  0
 16 48  1  0  0  0  0
 16 49  1  0  0  0  0
 17 18  1  0  0  0  0
 17 50  1  0  0  0  0
 18 21  1  0  0  0  0
 18 19  1  0  0  0  0
 18 51  1  1  0  0  0
 19 22  1  0  0  0  0
 20 19  2  0  0  0  0
 21 52  1  0  0  0  0
 21 53  1  0  0  0  0
 21 54  1  0  0  0  0
 22 23  1  0  0  0  0
 22 28  1  0  0  0  0
 23 26  1  0  0  0  0
 23 55  1  6  0  0  0
 24 29  1  0  0  0  0
 24 23  1  0  0  0  0
 25 24  2  0  0  0  0
 26 27  1  0  0  0  0
 26 56  1  0  0  0  0
 26 57  1  0  0  0  0 
 27 58  1  0  0  0  0
 27 59  1  0  0  0  0 
 28 27  1  0  0  0  0
 28 60  1  0  0  0  0
 28 61  1  0  0  0  0
 29 62  1  0  0  0  0
 30 29  1  0  0  0  0
 30 63  1  0  0  0  0
 30 64  1  0  0  0  0
 30 65  1  0  0  0  0
M  END
>  <MODEL>
       0

$$$$
selected_4mers/ALAP/262_noH.pdb
 OpenBabel03042517503D

 65 65  0  0  1  0  0  0  0  0999 V2000
   21.1620   32.0620    1.5170 C   0  0  0  0  0  0  0  0  0  0  0  0
   21.8770   33.1030    0.6660 C   0  0  0  0  0  0  0  0  0  0  0  0
   22.2860   34.1560    1.1670 O   0  0  0  0  0  0  0  0  0  0  0  0
   22.0820   32.7700   -0.6080 N   0  0  0  0  0  0  0  0  0  0  0  0
   22.5840   33.7340   -1.5760 C   0  0  2  0  0  0  0  0  0  0  0  0
   21.6380   34.9270   -1.6600 C   0  0  0  0  0  0  0  0  0  0  0  0
   20.4240   34.7970   -1.4590 O   0  0  0  0  0  0  0  0  0  0  0  0
   22.7180   33.0820   -2.9480 C   0  0  0  0  0  0  0  0  0  0  0  0
   22.2020   36.0840   -1.9870 N   0  0  0  0  0  0  0  0  0  0  0  0
   21.4630   37.3320   -1.9960 C   0  0  2  0  0  0  0  0  0  0  0  0
   20.8370   37.6150   -3.3600 C   0  0  0  0  0  0  0  0  0  0  0  0
   21.5480   37.8370   -4.3210 O   0  0  0  0  0  0  0  0  0  0  0  0
   22.4050   38.4830   -1.6070 C   0  0  0  0  0  0  0  0  0  0  0  0
   21.8280   39.9030   -1.6280 C   0  0  0  0  0  0  0  0  0  0  0  0
   20.5980   40.0030   -0.7070 C   0  0  0  0  0  0  0  0  0  0  0  0
   22.8990   40.9130   -1.2420 C   0  0  0  0  0  0  0  0  0  0  0  0
   19.5080   37.6200   -3.4390 N   0  0  0  0  0  0  0  0  0  0  0  0
   18.8150   37.9830   -4.6830 C   0  0  2  0  0  0  0  0  0  0  0  0
   18.6680   39.5130   -4.8030 C   0  0  0  0  0  0  0  0  0  0  0  0
   18.5520   40.2090   -3.7760 O   0  0  0  0  0  0  0  0  0  0  0  0
   17.4380   37.3030   -4.7280 C   0  0  0  0  0  0  0  0  0  0  0  0
   18.6600   40.0490   -6.0410 N   0  0  0  0  0  0  0  0  0  0  0  0
   18.5180   41.4970   -6.2200 C   0  0  2  0  0  0  0  0  0  0  0  0
   17.2780   42.0790   -5.5190 C   0  0  0  0  0  0  0  0  0  0  0  0
   17.3580   43.1810   -4.9830 O   0  0  0  0  0  0  0  0  0  0  0  0
   18.4240   41.6470   -7.7450 C   0  0  0  0  0  0  0  0  0  0  0  0
   19.2550   40.5120   -8.2460 C   0  0  0  0  0  0  0  0  0  0  0  0
   18.9130   39.3750   -7.3340 C   0  0  0  0  0  0  0  0  0  0  0  0
   16.1620   41.3470   -5.5010 N   0  0  0  0  0  0  0  0  0  0  0  0
   14.9550   41.8400   -4.8330 C   0  0  0  0  0  0  0  0  0  0  0  0
   20.8878   31.2282    0.9050 H   0  0  0  0  0  0  0  0  0  0  0  0
   20.2821   32.4947    1.9453 H   0  0  0  0  0  0  0  0  0  0  0  0
   21.8137   31.7316    2.2987 H   0  0  0  0  0  0  0  0  0  0  0  0
   21.8893   31.8502   -0.9013 H   0  0  0  0  0  0  0  0  0  0  0  0
   23.5481   34.0719   -1.2577 H   0  0  0  0  0  0  0  0  0  0  0  0
   21.7585   32.7403   -3.2757 H   0  0  0  0  0  0  0  0  0  0  0  0
   23.3897   32.2515   -2.8842 H   0  0  0  0  0  0  0  0  0  0  0  0
   23.0999   33.7967   -3.6468 H   0  0  0  0  0  0  0  0  0  0  0  0
   23.1555   36.0950   -2.2320 H   0  0  0  0  0  0  0  0  0  0  0  0
   20.6660   37.2497   -1.2868 H   0  0  0  0  0  0  0  0  0  0  0  0
   23.2333   38.4629   -2.2840 H   0  0  0  0  0  0  0  0  0  0  0  0
   22.6502   38.3019   -0.5813 H   0  0  0  0  0  0  0  0  0  0  0  0
   21.5047   40.1302   -2.6224 H   0  0  0  0  0  0  0  0  0  0  0  0
   20.8868   39.7809    0.2991 H   0  0  0  0  0  0  0  0  0  0  0  0
   19.8546   39.3033   -1.0275 H   0  0  0  0  0  0  0  0  0  0  0  0
   20.1979   40.9943   -0.7526 H   0  0  0  0  0  0  0  0  0  0  0  0
   23.2410   40.7083   -0.2490 H   0  0  0  0  0  0  0  0  0  0  0  0
   22.4888   41.9005   -1.2815 H   0  0  0  0  0  0  0  0  0  0  0  0
   23.7202   40.8403   -1.9241 H   0  0  0  0  0  0  0  0  0  0  0  0
   18.9778   37.3751   -2.6465 H   0  0  0  0  0  0  0  0  0  0  0  0
   19.3987   37.6431   -5.5129 H   0  0  0  0  0  0  0  0  0  0  0  0
   16.8477   37.6378   -3.9007 H   0  0  0  0  0  0  0  0  0  0  0  0
   17.5623   36.2418   -4.6712 H   0  0  0  0  0  0  0  0  0  0  0  0
   16.9451   37.5559   -5.6434 H   0  0  0  0  0  0  0  0  0  0  0  0
   19.3308   42.0372   -5.7813 H   0  0  0  0  0  0  0  0  0  0  0  0
   17.4111   41.5585   -8.0784 H   0  0  0  0  0  0  0  0  0  0  0  0
   18.7576   42.6011   -8.0962 H   0  0  0  0  0  0  0  0  0  0  0  0
   20.2968   40.7481   -8.1837 H   0  0  0  0  0  0  0  0  0  0  0  0
   19.0617   40.2852   -9.2737 H   0  0  0  0  0  0  0  0  0  0  0  0
   19.7283   38.6864   -7.2556 H   0  0  0  0  0  0  0  0  0  0  0  0
   18.0816   38.7952   -7.6768 H   0  0  0  0  0  0  0  0  0  0  0  0
   16.1499   40.4665   -5.9413 H   0  0  0  0  0  0  0  0  0  0  0  0
   15.1486   42.8049   -4.4131 H   0  0  0  0  0  0  0  0  0  0  0  0
   14.6761   41.1615   -4.0541 H   0  0  0  0  0  0  0  0  0  0  0  0
   14.1587   41.9136   -5.5439 H   0  0  0  0  0  0  0  0  0  0  0  0
  1 31  1  0  0  0  0
  1 32  1  0  0  0  0
  1 33  1  0  0  0  0
  2  3  2  0  0  0  0
  2  1  1  0  0  0  0
  4  2  1  0  0  0  0
  4 34  1  0  0  0  0
  5  4  1  0  0  0  0
  5 35  1  1  0  0  0
  6  5  1  0  0  0  0
  6  7  2  0  0  0  0
  8  5  1  0  0  0  0
  8 36  1  0  0  0  0
  8 37  1  0  0  0  0
  8 38  1  0  0  0  0
  9  6  1  0  0  0  0
  9 39  1  0  0  0  0
 10  9  1  0  0  0  0
 10 13  1  0  0  0  0
 10 40  1  1  0  0  0
 11 10  1  0  0  0  0
 12 11  2  0  0  0  0
 13 41  1  0  0  0  0
 13 42  1  0  0  0  0
 14 13  1  0  0  0  0
 14 16  1  0  0  0  0
 14 15  1  0  0  0  0
 14 43  1  0  0  0  0
 15 44  1  0  0  0  0
 15 45  1  0  0  0  0
 15 46  1  0  0  0  0
 16 47  1  0  0  0  0
 16 48  1  0  0  0  0
 16 49  1  0  0  0  0
 17 11  1  0  0  0  0
 17 50  1  0  0  0  0
 18 17  1  0  0  0  0
 18 51  1  6  0  0  0
 19 18  1  0  0  0  0
 19 20  2  0  0  0  0
 21 18  1  0  0  0  0
 21 52  1  0  0  0  0
 21 53  1  0  0  0  0
 21 54  1  0  0  0  0
 22 19  1  0  0  0  0
 23 22  1  0  0  0  0
 23 24  1  0  0  0  0
 23 55  1  1  0  0  0
 24 29  1  0  0  0  0
 24 25  2  0  0  0  0
 26 23  1  0  0  0  0
 26 56  1  0  0  0  0
 26 57  1  0  0  0  0
 27 26  1  0  0  0  0
 27 28  1  0  0  0  0
 27 58  1  0  0  0  0
 27 59  1  0  0  0  0
 28 22  1  0  0  0  0
 28 60  1  0  0  0  0
 28 61  1  0  0  0  0
 29 30  1  0  0  0  0
 29 62  1  0  0  0  0
 30 63  1  0  0  0  0
 30 64  1  0  0  0  0
 30 65  1  0  0  0  0
M  END
>  <MODEL>
       0

$$$$
selected_4mers/ALAP/263_noH.pdb
 OpenBabel03042517503D

 65 65  0  0  1  0  0  0  0  0999 V2000
   34.3190   -2.1460   14.5200 C   0  0  0  0  0  0  0  0  0  0  0  0
   35.1320   -1.1990   13.6270 C   0  0  0  0  0  0  0  0  0  0  0  0
   34.6360   -0.1510   13.2180 O   0  0  0  0  0  0  0  0  0  0  0  0
   36.3660   -1.5820   13.3040 N   0  0  0  0  0  0  0  0  0  0  0  0
   37.2240   -0.7660   12.4470 C   0  0  2  0  0  0  0  0  0  0  0  0
   36.7740   -0.6870   10.9800 C   0  0  0  0  0  0  0  0  0  0  0  0
   37.2420    0.1780   10.2440 O   0  0  0  0  0  0  0  0  0  0  0  0
   38.6810   -1.2350   12.5410 C   0  0  0  0  0  0  0  0  0  0  0  0
   35.8810   -1.5790   10.5600 N   0  0  0  0  0  0  0  0  0  0  0  0
   35.3400   -1.5520    9.2030 C   0  0  2  0  0  0  0  0  0  0  0  0
   34.2250   -0.5200    9.0200 C   0  0  0  0  0  0  0  0  0  0  0  0
   33.9970   -0.0280    7.9120 O   0  0  0  0  0  0  0  0  0  0  0  0
   34.8290   -2.9450    8.8210 C   0  0  0  0  0  0  0  0  0  0  0  0
   34.3590   -3.1500    7.3850 C   0  0  0  0  0  0  0  0  0  0  0  0
   35.4770   -2.8750    6.3790 C   0  0  0  0  0  0  0  0  0  0  0  0
   33.8380   -4.5690    7.2090 C   0  0  0  0  0  0  0  0  0  0  0  0
   33.5360   -0.2000   10.1110 N   0  0  0  0  0  0  0  0  0  0  0  0
   32.3520    0.6610   10.0510 C   0  0  2  0  0  0  0  0  0  0  0  0
   32.5530    2.0350    9.3810 C   0  0  0  0  0  0  0  0  0  0  0  0
   31.6520    2.4790    8.6610 O   0  0  0  0  0  0  0  0  0  0  0  0
   31.7280    0.8110   11.4330 C   0  0  0  0  0  0  0  0  0  0  0  0
   33.6980    2.7220    9.6190 N   0  0  0  0  0  0  0  0  0  0  0  0
   33.9110    4.0100    8.9320 C   0  0  2  0  0  0  0  0  0  0  0  0
   33.8370    3.9530    7.4050 C   0  0  0  0  0  0  0  0  0  0  0  0
   33.4760    4.9520    6.7720 O   0  0  0  0  0  0  0  0  0  0  0  0
   35.3160    4.4230    9.3900 C   0  0  0  0  0  0  0  0  0  0  0  0
   35.4990    3.7560   10.7030 C   0  0  0  0  0  0  0  0  0  0  0  0
   34.8040    2.4260   10.5540 C   0  0  0  0  0  0  0  0  0  0  0  0
   34.1640    2.8020    6.8220 N   0  0  0  0  0  0  0  0  0  0  0  0
   34.0530    2.6090    5.3740 C   0  0  0  0  0  0  0  0  0  0  0  0
   33.3534   -1.7228   14.7027 H   0  0  0  0  0  0  0  0  0  0  0  0
   34.8293   -2.2850   15.4502 H   0  0  0  0  0  0  0  0  0  0  0  0
   34.2075   -3.0905   14.0298 H   0  0  0  0  0  0  0  0  0  0  0  0
   36.7092   -2.4368   13.6515 H   0  0  0  0  0  0  0  0  0  0  0  0
   37.1378    0.2316   12.8241 H   0  0  0  0  0  0  0  0  0  0  0  0
   38.7597   -2.2327   12.1625 H   0  0  0  0  0  0  0  0  0  0  0  0
   38.9968   -1.2154   13.5632 H   0  0  0  0  0  0  0  0  0  0  0  0
   39.3032   -0.5841   11.9630 H   0  0  0  0  0  0  0  0  0  0  0  0
   35.5755   -2.2782   11.1821 H   0  0  0  0  0  0  0  0  0  0  0  0
   36.1400   -1.2591    8.5556 H   0  0  0  0  0  0  0  0  0  0  0  0
   35.6234   -3.6389    9.0010 H   0  0  0  0  0  0  0  0  0  0  0  0
   33.9534   -3.0890    9.4189 H   0  0  0  0  0  0  0  0  0  0  0  0
   33.5711   -2.4514    7.1950 H   0  0  0  0  0  0  0  0  0  0  0  0
   36.2820   -3.5602    6.5443 H   0  0  0  0  0  0  0  0  0  0  0  0
   35.8304   -1.8728    6.5036 H   0  0  0  0  0  0  0  0  0  0  0  0
   35.1010   -2.9996    5.3850 H   0  0  0  0  0  0  0  0  0  0  0  0
   34.6279   -5.2652    7.3996 H   0  0  0  0  0  0  0  0  0  0  0  0
   33.4835   -4.6972    6.2076 H   0  0  0  0  0  0  0  0  0  0  0  0
   33.0363   -4.7424    7.8961 H   0  0  0  0  0  0  0  0  0  0  0  0
   33.8293   -0.5510   10.9828 H   0  0  0  0  0  0  0  0  0  0  0  0
   31.6779    0.1487    9.3967 H   0  0  0  0  0  0  0  0  0  0  0  0
   32.4099    1.3241   12.0785 H   0  0  0  0  0  0  0  0  0  0  0  0
   31.5159   -0.1574   11.8356 H   0  0  0  0  0  0  0  0  0  0  0  0
   30.8200    1.3717   11.3554 H   0  0  0  0  0  0  0  0  0  0  0  0
   33.1330    4.7001    9.1838 H   0  0  0  0  0  0  0  0  0  0  0  0
   35.3808    5.4859    9.4950 H   0  0  0  0  0  0  0  0  0  0  0  0
   36.0697    4.1401    8.6851 H   0  0  0  0  0  0  0  0  0  0  0  0
   35.0495    4.3316   11.4850 H   0  0  0  0  0  0  0  0  0  0  0  0
   36.5313    3.6476   10.9628 H   0  0  0  0  0  0  0  0  0  0  0  0
   35.4658    1.6917   10.1445 H   0  0  0  0  0  0  0  0  0  0  0  0
   34.4671    2.0233   11.4863 H   0  0  0  0  0  0  0  0  0  0  0  0
   34.4898    2.0591    7.3798 H   0  0  0  0  0  0  0  0  0  0  0  0
   33.6865    3.5067    4.9216 H   0  0  0  0  0  0  0  0  0  0  0  0
   33.3756    1.8057    5.1721 H   0  0  0  0  0  0  0  0  0  0  0  0
   35.0157    2.3736    4.9707 H   0  0  0  0  0  0  0  0  0  0  0  0
  1 31  1  0  0  0  0
  1 32  1  0  0  0  0
  1 33  1  0  0  0  0
  2  1  1  0  0  0  0
  3  2  2  0  0  0  0
  4  2  1  0  0  0  0
  4 34  1  0  0  0  0
  5  8  1  0  0  0  0
  5  4  1  0  0  0  0
  5 35  1  1  0  0  0
  6  5  1  0  0  0  0
  7  6  2  0  0  0  0
  8 36  1  0  0  0  0
  8 37  1  0  0  0  0
  8 38  1  0  0  0  0
  9  6  1  0  0  0  0
  9 39  1  0  0  0  0
 10  9  1  0  0  0  0
 10 40  1  6  0  0  0
 11 10  1  0  0  0  0
 11 17  1  0  0  0  0
 12 11  2  0  0  0  0
 13 10  1  0  0  0  0
 13 41  1  0  0  0  0
 13 42  1  0  0  0  0
 14 13  1  0  0  0  0
 14 43  1  0  0  0  0
 15 14  1  0  0  0  0
 15 44  1  0  0  0  0
 15 45  1  0  0  0  0
 15 46  1  0  0  0  0
 16 14  1  0  0  0  0
 16 47  1  0  0  0  0
 16 48  1  0  0  0  0
 16 49  1  0  0  0  0
 17 50  1  0  0  0  0
 18 17  1  0  0  0  0
 18 21  1  0  0  0  0
 18 51  1  6  0  0  0
 19 22  1  0  0  0  0
 19 18  1  0  0  0  0
 20 19  2  0  0  0  0
 21 52  1  0  0  0  0
 21 53  1  0  0  0  0
 21 54  1  0  0  0  0
 22 28  1  0  0  0  0
 23 26  1  0  0  0  0
 23 22  1  0  0  0  0
 23 55  1  1  0  0  0
 24 23  1  0  0  0  0
 25 24  2  0  0  0  0
 26 27  1  0  0  0  0
 26 56  1  0  0  0  0
 26 57  1  0  0  0  0
 27 58  1  0  0  0  0
 27 59  1  0  0  0  0
 28 27  1  0  0  0  0
 28 60  1  0  0  0  0
 28 61  1  0  0  0  0
 29 24  1  0  0  0  0
 29 62  1  0  0  0  0
 30 29  1  0  0  0  0
 30 63  1  0  0  0  0
 30 64  1  0  0  0  0
 30 65  1  0  0  0  0
M  END
>  <MODEL>
       0

$$$$
selected_4mers/ALAP/264_noH.pdb
 OpenBabel03042517503D

 65 65  0  0  1  0  0  0  0  0999 V2000
  -37.1750   36.7290   -7.7630 C   0  0  0  0  0  0  0  0  0  0  0  0
  -36.7110   36.6500   -9.2170 C   0  0  0  0  0  0  0  0  0  0  0  0
  -35.5770   36.2720   -9.5000 O   0  0  0  0  0  0  0  0  0  0  0  0
  -37.6170   36.9780  -10.1360 N   0  0  0  0  0  0  0  0  0  0  0  0
  -37.3000   36.9750  -11.5600 C   0  0  2  0  0  0  0  0  0  0  0  0
  -36.3470   38.1380  -11.8930 C   0  0  0  0  0  0  0  0  0  0  0  0
  -36.1540   39.0520  -11.0930 O   0  0  0  0  0  0  0  0  0  0  0  0
  -38.5780   37.0540  -12.3920 C   0  0  0  0  0  0  0  0  0  0  0  0
  -35.7560   38.0930  -13.0800 N   0  0  0  0  0  0  0  0  0  0  0  0
  -34.7910   39.1140  -13.5000 C   0  0  2  0  0  0  0  0  0  0  0  0
  -35.3490   40.5490  -13.5000 C   0  0  0  0  0  0  0  0  0  0  0  0
  -34.7100   41.4730  -12.9800 O   0  0  0  0  0  0  0  0  0  0  0  0
  -34.2510   38.7550  -14.8810 C   0  0  0  0  0  0  0  0  0  0  0  0
  -33.0390   39.5240  -15.3890 C   0  0  0  0  0  0  0  0  0  0  0  0
  -31.8960   39.4400  -14.3890 C   0  0  0  0  0  0  0  0  0  0  0  0
  -32.6190   38.9540  -16.7470 C   0  0  0  0  0  0  0  0  0  0  0  0
  -36.5390   40.7290  -14.0710 N   0  0  0  0  0  0  0  0  0  0  0  0
  -37.1760   42.0560  -14.1600 C   0  0  2  0  0  0  0  0  0  0  0  0
  -37.2790   42.7700  -12.8010 C   0  0  0  0  0  0  0  0  0  0  0  0
  -36.7500   43.8780  -12.6460 O   0  0  0  0  0  0  0  0  0  0  0  0
  -38.5530   41.9510  -14.8140 C   0  0  0  0  0  0  0  0  0  0  0  0
  -37.9480   42.1380  -11.8160 N   0  0  0  0  0  0  0  0  0  0  0  0
  -38.0680   42.7560  -10.4830 C   0  0  2  0  0  0  0  0  0  0  0  0
  -36.7100   43.0410   -9.8160 C   0  0  0  0  0  0  0  0  0  0  0  0
  -36.5330   44.1050   -9.2010 O   0  0  0  0  0  0  0  0  0  0  0  0
  -38.8900   41.7320   -9.6800 C   0  0  0  0  0  0  0  0  0  0  0  0
  -38.8880   40.4750  -10.4790 C   0  0  0  0  0  0  0  0  0  0  0  0
  -38.7060   40.8720  -11.9070 C   0  0  0  0  0  0  0  0  0  0  0  0
  -35.7900   42.0840   -9.9220 N   0  0  0  0  0  0  0  0  0  0  0  0
  -34.4140   42.2220   -9.4260 C   0  0  0  0  0  0  0  0  0  0  0  0
  -38.1858   37.0783   -7.7297 H   0  0  0  0  0  0  0  0  0  0  0  0
  -36.5457   37.4061   -7.2241 H   0  0  0  0  0  0  0  0  0  0  0  0
  -37.1183   35.7579   -7.3173 H   0  0  0  0  0  0  0  0  0  0  0  0
  -38.5241   37.2290   -9.8471 H   0  0  0  0  0  0  0  0  0  0  0  0
  -36.8062   36.0576  -11.8038 H   0  0  0  0  0  0  0  0  0  0  0  0
  -39.0938   37.9643  -12.1679 H   0  0  0  0  0  0  0  0  0  0  0  0
  -39.2074   36.2207  -12.1589 H   0  0  0  0  0  0  0  0  0  0  0  0
  -38.3283   37.0323  -13.4322 H   0  0  0  0  0  0  0  0  0  0  0  0
  -35.9710   37.3548  -13.6949 H   0  0  0  0  0  0  0  0  0  0  0  0
  -34.0068   39.1135  -12.7721 H   0  0  0  0  0  0  0  0  0  0  0  0
  -33.9864   37.7184  -14.8611 H   0  0  0  0  0  0  0  0  0  0  0  0
  -35.0392   39.0162  -15.5558 H   0  0  0  0  0  0  0  0  0  0  0  0
  -33.2934   40.5569  -15.5046 H   0  0  0  0  0  0  0  0  0  0  0  0
  -31.6173   38.4162  -14.2510 H   0  0  0  0  0  0  0  0  0  0  0  0
  -32.2096   39.8535  -13.4533 H   0  0  0  0  0  0  0  0  0  0  0  0
  -31.0570   39.9913  -14.7592 H   0  0  0  0  0  0  0  0  0  0  0  0
  -32.3635   37.9208  -16.6365 H   0  0  0  0  0  0  0  0  0  0  0  0
  -31.7711   39.4939  -17.1136 H   0  0  0  0  0  0  0  0  0  0  0  0
  -33.4290   39.0490  -17.4396 H   0  0  0  0  0  0  0  0  0  0  0  0
  -37.0091   39.9497  -14.4463 H   0  0  0  0  0  0  0  0  0  0  0  0
  -36.5377   42.6566  -14.7738 H   0  0  0  0  0  0  0  0  0  0  0  0
  -39.1936   41.3508  -14.2022 H   0  0  0  0  0  0  0  0  0  0  0  0
  -38.4559   41.4995  -15.7792 H   0  0  0  0  0  0  0  0  0  0  0  0
  -38.9737   42.9292  -14.9186 H   0  0  0  0  0  0  0  0  0  0  0  0
  -38.5284   43.7203  -10.5374 H   0  0  0  0  0  0  0  0  0  0  0  0
  -39.8915   42.0842   -9.5460 H   0  0  0  0  0  0  0  0  0  0  0  0
  -38.4724   41.5751   -8.7074 H   0  0  0  0  0  0  0  0  0  0  0  0
  -38.0838   39.8417  -10.1673 H   0  0  0  0  0  0  0  0  0  0  0  0
  -39.8007   39.9330  -10.3444 H   0  0  0  0  0  0  0  0  0  0  0  0
  -38.1507   40.1308  -12.4428 H   0  0  0  0  0  0  0  0  0  0  0  0
  -39.6319   40.9760  -12.4332 H   0  0  0  0  0  0  0  0  0  0  0  0
  -36.0458   41.2383  -10.3562 H   0  0  0  0  0  0  0  0  0  0  0  0
  -34.2896   43.1882   -8.9834 H   0  0  0  0  0  0  0  0  0  0  0  0
  -33.7286   42.1118  -10.2403 H   0  0  0  0  0  0  0  0  0  0  0  0
  -34.2216   41.4665   -8.6931 H   0  0  0  0  0  0  0  0  0  0  0  0
  1 31  1  0  0  0  0
  1 32  1  0  0  0  0
  1 33  1  0  0  0  0
  2  1  1  0  0  0  0
  3  2  2  0  0  0  0
  4  2  1  0  0  0  0
  4 34  1  0  0  0  0
  5  4  1  0  0  0  0
  5 35  1  6  0  0  0
  6  5  1  0  0  0  0
  6  7  2  0  0  0  0
  8  5  1  0  0  0  0
  8 36  1  0  0  0  0
  8 37  1  0  0  0  0
  8 38  1  0  0  0  0
  9  6  1  0  0  0  0
  9 39  1  0  0  0  0
 10  9  1  0  0  0  0
 10 40  1  1  0  0  0
 11 10  1  0  0  0  0
 11 12  2  0  0  0  0
 13 10  1  0  0  0  0
 13 41  1  0  0  0  0
 13 42  1  0  0  0  0
 14 13  1  0  0  0  0
 14 15  1  0  0  0  0
 14 43  1  0  0  0  0
 15 44  1  0  0  0  0
 15 45  1  0  0  0  0
 15 46  1  0  0  0  0
 16 14  1  0  0  0  0
 16 47  1  0  0  0  0
 16 48  1  0  0  0  0
 16 49  1  0  0  0  0
 17 11  1  0  0  0  0
 17 50  1  0  0  0  0
 18 17  1  0  0  0  0
 18 19  1  0  0  0  0
 18 51  1  6  0  0  0
 19 20  2  0  0  0  0
 19 22  1  0  0  0  0
 21 18  1  0  0  0  0
 21 52  1  0  0  0  0
 21 53  1  0  0  0  0
 21 54  1  0  0  0  0
 22 23  1  0  0  0  0
 23 24  1  0  0  0  0
 23 26  1  0  0  0  0
 23 55  1  6  0  0  0
 24 25  2  0  0  0  0
 26 56  1  0  0  0  0
 26 57  1  0  0  0  0
 27 26  1  0  0  0  0
 27 58  1  0  0  0  0
 27 59  1  0  0  0  0
 28 22  1  0  0  0  0
 28 27  1  0  0  0  0
 28 60  1  0  0  0  0
 28 61  1  0  0  0  0
 29 24  1  0  0  0  0
 29 30  1  0  0  0  0
 29 62  1  0  0  0  0
 30 63  1  0  0  0  0
 30 64  1  0  0  0  0
 30 65  1  0  0  0  0
M  END
>  <MODEL>
       0

$$$$
