selected_4mers/ALAT/300_noH.pdb
 OpenBabel03042517593D

 65 64  0  0  1  0  0  0  0  0999 V2000
  -15.8450   11.7990  -27.3000 C   0  0  0  0  0  0  0  0  0  0  0  0
  -16.4340   12.0880  -25.9270 C   0  0  0  0  0  0  0  0  0  0  0  0
  -16.8350   13.2080  -25.6430 O   0  0  0  0  0  0  0  0  0  0  0  0
  -16.5150   11.0690  -25.0550 N   0  0  0  0  0  0  0  0  0  0  0  0
  -17.0140   11.2970  -23.7190 C   0  0  2  0  0  0  0  0  0  0  0  0
  -16.1210   12.2840  -23.0110 C   0  0  0  0  0  0  0  0  0  0  0  0
  -16.6090   13.2350  -22.3930 O   0  0  0  0  0  0  0  0  0  0  0  0
  -17.0840    9.9830  -22.9500 C   0  0  0  0  0  0  0  0  0  0  0  0
  -14.7940   12.1150  -23.0900 N   0  0  0  0  0  0  0  0  0  0  0  0
  -13.8870   13.0510  -22.4300 C   0  0  2  0  0  0  0  0  0  0  0  0
  -13.9680   14.4540  -23.0210 C   0  0  0  0  0  0  0  0  0  0  0  0
  -13.9130   15.4390  -22.2850 O   0  0  0  0  0  0  0  0  0  0  0  0
  -12.4310   12.5720  -22.5090 C   0  0  0  0  0  0  0  0  0  0  0  0
  -12.0780   11.2830  -21.7730 C   0  0  0  0  0  0  0  0  0  0  0  0
  -10.5810   11.0480  -21.9770 C   0  0  0  0  0  0  0  0  0  0  0  0
  -12.4140   11.2890  -20.2960 C   0  0  0  0  0  0  0  0  0  0  0  0
  -14.1140   14.5290  -24.3550 N   0  0  0  0  0  0  0  0  0  0  0  0
  -14.2180   15.8710  -24.9610 C   0  0  2  0  0  0  0  0  0  0  0  0
  -15.4740   16.5620  -24.4290 C   0  0  0  0  0  0  0  0  0  0  0  0
  -15.4320   17.7420  -24.1680 O   0  0  0  0  0  0  0  0  0  0  0  0
  -14.3130   15.7190  -26.4650 C   0  0  0  0  0  0  0  0  0  0  0  0
  -16.5620   15.8000  -24.2730 N   0  0  0  0  0  0  0  0  0  0  0  0
  -17.7830   16.4060  -23.7400 C   0  0  2  0  0  0  0  0  0  0  0  0
  -17.5630   16.8680  -22.3120 C   0  0  0  0  0  0  0  0  0  0  0  0
  -18.0230   17.9240  -21.9250 O   0  0  0  0  0  0  0  0  0  0  0  0
  -18.8930   15.3480  -23.8380 C   0  0  2  0  0  0  0  0  0  0  0  0
  -19.1490   15.1590  -25.2300 O   0  0  0  0  0  0  0  0  0  0  0  0
  -20.1640   15.7910  -23.1830 C   0  0  0  0  0  0  0  0  0  0  0  0
  -16.8550   16.0750  -21.5340 N   0  0  0  0  0  0  0  0  0  0  0  0
  -16.5540   16.4940  -20.1480 C   0  0  0  0  0  0  0  0  0  0  0  0
  -15.8433   12.6960  -27.8834 H   0  0  0  0  0  0  0  0  0  0  0  0
  -16.4356   11.0547  -27.7920 H   0  0  0  0  0  0  0  0  0  0  0  0
  -14.8419   11.4431  -27.1901 H   0  0  0  0  0  0  0  0  0  0  0  0
  -16.2338   10.1656  -25.3272 H   0  0  0  0  0  0  0  0  0  0  0  0
  -18.0029   11.7021  -23.7735 H   0  0  0  0  0  0  0  0  0  0  0  0
  -16.1048    9.5571  -22.8818 H   0  0  0  0  0  0  0  0  0  0  0  0
  -17.7333    9.3041  -23.4622 H   0  0  0  0  0  0  0  0  0  0  0  0
  -17.4630   10.1653  -21.9661 H   0  0  0  0  0  0  0  0  0  0  0  0
  -14.4276   11.3545  -23.5965 H   0  0  0  0  0  0  0  0  0  0  0  0
  -14.2021   13.0883  -21.4081 H   0  0  0  0  0  0  0  0  0  0  0  0
  -11.8145   13.3497  -22.1090 H   0  0  0  0  0  0  0  0  0  0  0  0
  -12.2701   12.3508  -23.5434 H   0  0  0  0  0  0  0  0  0  0  0  0
  -12.6749   10.4941  -22.1808 H   0  0  0  0  0  0  0  0  0  0  0  0
  -10.0311   11.8621  -21.5530 H   0  0  0  0  0  0  0  0  0  0  0  0
  -10.3698   10.9818  -23.0238 H   0  0  0  0  0  0  0  0  0  0  0  0
  -10.2945   10.1357  -21.4969 H   0  0  0  0  0  0  0  0  0  0  0  0
  -11.8539   12.0577  -19.8059 H   0  0  0  0  0  0  0  0  0  0  0  0
  -12.1653   10.3396  -19.8698 H   0  0  0  0  0  0  0  0  0  0  0  0
  -13.4602   11.4739  -20.1690 H   0  0  0  0  0  0  0  0  0  0  0  0
  -14.1504   13.7162  -24.9093 H   0  0  0  0  0  0  0  0  0  0  0  0
  -13.3593   16.4594  -24.7135 H   0  0  0  0  0  0  0  0  0  0  0  0
  -15.1722   15.1304  -26.7104 H   0  0  0  0  0  0  0  0  0  0  0  0
  -13.4321   15.2341  -26.8308 H   0  0  0  0  0  0  0  0  0  0  0  0
  -14.4018   16.6851  -26.9162 H   0  0  0  0  0  0  0  0  0  0  0  0
  -16.5419   14.8455  -24.5132 H   0  0  0  0  0  0  0  0  0  0  0  0
  -18.0626   17.2746  -24.2988 H   0  0  0  0  0  0  0  0  0  0  0  0
  -18.5726   14.4556  -23.3421 H   0  0  0  0  0  0  0  0  0  0  0  0
  -19.4346   15.9985  -25.6231 H   0  0  0  0  0  0  0  0  0  0  0  0
  -20.5156   16.6847  -23.6547 H   0  0  0  0  0  0  0  0  0  0  0  0
  -19.9829   15.9826  -22.1460 H   0  0  0  0  0  0  0  0  0  0  0  0
  -20.9020   15.0224  -23.2801 H   0  0  0  0  0  0  0  0  0  0  0  0
  -16.5288   15.2101  -21.8726 H   0  0  0  0  0  0  0  0  0  0  0  0
  -16.9882   17.4544  -19.9635 H   0  0  0  0  0  0  0  0  0  0  0  0
  -15.4938   16.5503  -20.0147 H   0  0  0  0  0  0  0  0  0  0  0  0
  -16.9622   15.7805  -19.4631 H   0  0  0  0  0  0  0  0  0  0  0  0
  1  2  1  0  0  0  0
  1 31  1  0  0  0  0
  1 32  1  0  0  0  0
  1 33  1  0  0  0  0
  2  3  2  0  0  0  0
  2  4  1  0  0  0  0
  4  5  1  0  0  0  0
  4 34  1  0  0  0  0
  5  6  1  0  0  0  0
  5  8  1  0  0  0  0
  5 35  1  6  0  0  0
  6  7  2  0  0  0  0
  8 36  1  0  0  0  0
  8 37  1  0  0  0  0
  8 38  1  0  0  0  0
  9  6  1  0  0  0  0
  9 10  1  0  0  0  0
  9 39  1  0  0  0  0
 10 40  1  1  0  0  0
 11 10  1  0  0  0  0
 11 12  2  0  0  0  0
 13 10  1  0  0  0  0
 13 14  1  0  0  0  0
 13 41  1  0  0  0  0
 13 42  1  0  0  0  0
 14 16  1  0  0  0  0
 14 43  1  0  0  0  0
 15 14  1  0  0  0  0
 15 44  1  0  0  0  0
 15 45  1  0  0  0  0
 15 46  1  0  0  0  0
 16 47  1  0  0  0  0
 16 48  1  0  0  0  0
 16 49  1  0  0  0  0
 17 11  1  0  0  0  0
 17 50  1  0  0  0  0
 18 19  1  0  0  0  0
 18 17  1  0  0  0  0
 18 51  1  1  0  0  0
 19 22  1  0  0  0  0
 19 20  2  0  0  0  0
 21 18  1  0  0  0  0
 21 52  1  0  0  0  0
 21 53  1  0  0  0  0
 21 54  1  0  0  0  0
 22 23  1  0  0  0  0
 22 55  1  0  0  0  0
 23 24  1  0  0  0  0
 23 56  1  6  0  0  0
 24 25  2  0  0  0  0
 24 29  1  0  0  0  0
 26 23  1  0  0  0  0
 26 28  1  0  0  0  0
 26 57  1  1  0  0  0
 27 26  1  0  0  0  0
 27 58  1  0  0  0  0
 28 59  1  0  0  0  0
 28 60  1  0  0  0  0
 28 61  1  0  0  0  0
 29 30  1  0  0  0  0
 29 62  1  0  0  0  0
 30 63  1  0  0  0  0
 30 64  1  0  0  0  0
 30 65  1  0  0  0  0
M  END
>  <MODEL>
       0

$$$$
selected_4mers/ALAT/301_noH.pdb
 OpenBabel03042517593D

 65 64  0  0  1  0  0  0  0  0999 V2000
   63.6270    3.2360    2.5490 C   0  0  0  0  0  0  0  0  0  0  0  0
   63.6540    1.8290    3.0910 C   0  0  0  0  0  0  0  0  0  0  0  0
   62.6230    1.2410    3.4000 O   0  0  0  0  0  0  0  0  0  0  0  0
   64.8620    1.2720    3.1510 N   0  0  0  0  0  0  0  0  0  0  0  0
   65.0730   -0.0890    3.6910 C   0  0  2  0  0  0  0  0  0  0  0  0
   64.6760   -0.1500    5.1550 C   0  0  0  0  0  0  0  0  0  0  0  0
   63.9640   -1.0580    5.6010 O   0  0  0  0  0  0  0  0  0  0  0  0
   66.5500   -0.5490    3.4850 C   0  0  0  0  0  0  0  0  0  0  0  0
   65.0820    0.8690    5.9020 N   0  0  0  0  0  0  0  0  0  0  0  0
   64.7940    0.9310    7.3500 C   0  0  2  0  0  0  0  0  0  0  0  0
   63.3110    1.2840    7.5780 C   0  0  0  0  0  0  0  0  0  0  0  0
   62.6570    0.7020    8.4410 O   0  0  0  0  0  0  0  0  0  0  0  0
   65.7170    1.9190    8.0790 C   0  0  0  0  0  0  0  0  0  0  0  0
   67.2190    1.5350    8.1280 C   0  0  0  0  0  0  0  0  0  0  0  0
   67.9880    2.4970    9.0630 C   0  0  0  0  0  0  0  0  0  0  0  0
   67.4340    0.0890    8.5430 C   0  0  0  0  0  0  0  0  0  0  0  0
   62.7720    2.1760    6.7510 N   0  0  0  0  0  0  0  0  0  0  0  0
   61.3470    2.4800    6.8190 C   0  0  2  0  0  0  0  0  0  0  0  0
   60.5590    1.1780    6.6560 C   0  0  0  0  0  0  0  0  0  0  0  0
   59.5830    0.9400    7.3300 O   0  0  0  0  0  0  0  0  0  0  0  0
   60.9330    3.5200    5.7510 C   0  0  0  0  0  0  0  0  0  0  0  0
   60.9970    0.3280    5.7290 N   0  0  0  0  0  0  0  0  0  0  0  0
   60.2970   -0.9450    5.4990 C   0  0  2  0  0  0  0  0  0  0  0  0
   60.3880   -1.8190    6.7440 C   0  0  0  0  0  0  0  0  0  0  0  0
   59.3910   -2.3240    7.2520 O   0  0  0  0  0  0  0  0  0  0  0  0
   60.8380   -1.6660    4.2390 C   0  0  2  0  0  0  0  0  0  0  0  0
   60.5720   -0.8380    3.1030 O   0  0  0  0  0  0  0  0  0  0  0  0
   60.1660   -3.0060    4.0330 C   0  0  0  0  0  0  0  0  0  0  0  0
   61.6000   -1.9910    7.2460 N   0  0  0  0  0  0  0  0  0  0  0  0
   61.8310   -2.9120    8.3900 C   0  0  0  0  0  0  0  0  0  0  0  0
   64.6265    3.5589    2.3450 H   0  0  0  0  0  0  0  0  0  0  0  0
   63.1820    3.8880    3.2713 H   0  0  0  0  0  0  0  0  0  0  0  0
   63.0533    3.2594    1.6461 H   0  0  0  0  0  0  0  0  0  0  0  0
   65.6389    1.7818    2.8259 H   0  0  0  0  0  0  0  0  0  0  0  0
   64.4454   -0.7661    3.1501 H   0  0  0  0  0  0  0  0  0  0  0  0
   67.2059    0.1097    4.0150 H   0  0  0  0  0  0  0  0  0  0  0  0
   66.7884   -0.5267    2.4421 H   0  0  0  0  0  0  0  0  0  0  0  0
   66.6684   -1.5454    3.8567 H   0  0  0  0  0  0  0  0  0  0  0  0
   65.5874    1.6016    5.4811 H   0  0  0  0  0  0  0  0  0  0  0  0
   64.9876   -0.0356    7.7661 H   0  0  0  0  0  0  0  0  0  0  0  0
   65.3690    2.0098    9.0868 H   0  0  0  0  0  0  0  0  0  0  0  0
   65.6693    2.8279    7.5164 H   0  0  0  0  0  0  0  0  0  0  0  0
   67.6058    1.6310    7.1350 H   0  0  0  0  0  0  0  0  0  0  0  0
   67.6070    2.4070   10.0588 H   0  0  0  0  0  0  0  0  0  0  0  0
   67.8609    3.5032    8.7221 H   0  0  0  0  0  0  0  0  0  0  0  0
   69.0282    2.2464    9.0551 H   0  0  0  0  0  0  0  0  0  0  0  0
   67.0609   -0.0566    9.5352 H   0  0  0  0  0  0  0  0  0  0  0  0
   68.4795   -0.1375    8.5183 H   0  0  0  0  0  0  0  0  0  0  0  0
   66.9131   -0.5571    7.8677 H   0  0  0  0  0  0  0  0  0  0  0  0
   63.3387    2.6339    6.0888 H   0  0  0  0  0  0  0  0  0  0  0  0
   61.1275    2.9166    7.7709 H   0  0  0  0  0  0  0  0  0  0  0  0
   61.1337    3.1288    4.7755 H   0  0  0  0  0  0  0  0  0  0  0  0
   61.4912    4.4213    5.8956 H   0  0  0  0  0  0  0  0  0  0  0  0
   59.8877    3.7292    5.8432 H   0  0  0  0  0  0  0  0  0  0  0  0
   61.7931    0.5528    5.1952 H   0  0  0  0  0  0  0  0  0  0  0  0
   59.2631   -0.7423    5.3120 H   0  0  0  0  0  0  0  0  0  0  0  0
   61.8870   -1.8359    4.3642 H   0  0  0  0  0  0  0  0  0  0  0  0
   59.6151   -0.7036    3.0178 H   0  0  0  0  0  0  0  0  0  0  0  0
   59.1136   -2.8613    3.9052 H   0  0  0  0  0  0  0  0  0  0  0  0
   60.3395   -3.6270    4.8869 H   0  0  0  0  0  0  0  0  0  0  0  0
   60.5697   -3.4772    3.1613 H   0  0  0  0  0  0  0  0  0  0  0  0
   62.3602   -1.5018    6.8562 H   0  0  0  0  0  0  0  0  0  0  0  0
   60.9026   -3.3553    8.6841 H   0  0  0  0  0  0  0  0  0  0  0  0
   62.2407   -2.3635    9.2123 H   0  0  0  0  0  0  0  0  0  0  0  0
   62.5159   -3.6800    8.0969 H   0  0  0  0  0  0  0  0  0  0  0  0
  1  2  1  0  0  0  0
  1 31  1  0  0  0  0
  1 32  1  0  0  0  0
  1 33  1  0  0  0  0
  2  4  1  0  0  0  0
  2  3  2  0  0  0  0
  4  5  1  0  0  0  0
  4 34  1  0  0  0  0
  5  6  1  0  0  0  0
  5 35  1  6  0  0  0
  6  7  2  0  0  0  0
  6  9  1  0  0  0  0
  8  5  1  0  0  0  0
  8 36  1  0  0  0  0
  8 37  1  0  0  0  0
  8 38  1  0  0  0  0
  9 10  1  0  0  0  0
  9 39  1  0  0  0  0
 10 11  1  0  0  0  0
 10 13  1  0  0  0  0
 10 40  1  1  0  0  0
 11 12  2  0  0  0  0
 13 14  1  0  0  0  0
 13 41  1  0  0  0  0
 13 42  1  0  0  0  0
 14 16  1  0  0  0  0
 14 15  1  0  0  0  0
 14 43  1  0  0  0  0
 15 44  1  0  0  0  0
 15 45  1  0  0  0  0
 15 46  1  0  0  0  0
 16 47  1  0  0  0  0
 16 48  1  0  0  0  0
 16 49  1  0  0  0  0
 17 18  1  0  0  0  0
 17 11  1  0  0  0  0
 17 50  1  0  0  0  0
 18 51  1  1  0  0  0
 19 18  1  0  0  0  0
 19 20  2  0  0  0  0
 21 18  1  0  0  0  0
 21 52  1  0  0  0  0
 21 53  1  0  0  0  0
 21 54  1  0  0  0  0
 22 19  1  0  0  0  0
 22 55  1  0  0  0  0
 23 22  1  0  0  0  0
 23 24  1  0  0  0  0
 23 56  1  6  0  0  0
 24 29  1  0  0  0  0
 24 25  2  0  0  0  0
 26 23  1  0  0  0  0
 26 57  1  1  0  0  0
 27 26  1  0  0  0  0
 27 58  1  0  0  0  0
 28 26  1  0  0  0  0
 28 59  1  0  0  0  0
 28 60  1  0  0  0  0
 28 61  1  0  0  0  0
 29 30  1  0  0  0  0
 29 62  1  0  0  0  0
 30 63  1  0  0  0  0
 30 64  1  0  0  0  0
 30 65  1  0  0  0  0
M  END
>  <MODEL>
       0

$$$$
selected_4mers/ALAT/302_noH.pdb
 OpenBabel03042517593D

 65 64  0  0  1  0  0  0  0  0999 V2000
    8.2550   61.4150   78.2580 C   0  0  0  0  0  0  0  0  0  0  0  0
    8.7850   62.8460   78.1130 C   0  0  0  0  0  0  0  0  0  0  0  0
    8.0200   63.7970   78.1590 O   0  0  0  0  0  0  0  0  0  0  0  0
   10.1180   62.9960   77.9220 N   0  0  0  0  0  0  0  0  0  0  0  0
   10.6670   64.3360   77.6660 C   0  0  2  0  0  0  0  0  0  0  0  0
   10.4420   64.6150   76.1690 C   0  0  0  0  0  0  0  0  0  0  0  0
   11.1560   64.0870   75.3610 O   0  0  0  0  0  0  0  0  0  0  0  0
   12.2440   64.3990   78.0030 C   0  0  0  0  0  0  0  0  0  0  0  0
    9.4690   65.4580   75.8510 N   0  0  0  0  0  0  0  0  0  0  0  0
    8.9970   65.6730   74.4710 C   0  0  2  0  0  0  0  0  0  0  0  0
    9.5110   66.9620   73.8570 C   0  0  0  0  0  0  0  0  0  0  0  0
    9.3710   68.0380   74.4050 O   0  0  0  0  0  0  0  0  0  0  0  0
    7.4450   65.6590   74.4620 C   0  0  0  0  0  0  0  0  0  0  0  0
    6.8910   65.9950   73.0230 C   0  0  0  0  0  0  0  0  0  0  0  0
    6.9040   64.7190   72.1720 C   0  0  0  0  0  0  0  0  0  0  0  0
    5.4740   66.5070   73.3220 C   0  0  0  0  0  0  0  0  0  0  0  0
   10.1880   66.8090   72.7030 N   0  0  0  0  0  0  0  0  0  0  0  0
   10.6960   67.8860   71.9030 C   0  0  2  0  0  0  0  0  0  0  0  0
    9.8200   68.1880   70.6900 C   0  0  0  0  0  0  0  0  0  0  0  0
    9.4350   67.2280   69.9870 O   0  0  0  0  0  0  0  0  0  0  0  0
   12.1400   67.5050   71.4070 C   0  0  0  0  0  0  0  0  0  0  0  0
    9.5250   69.4850   70.5030 N   0  0  0  0  0  0  0  0  0  0  0  0
    8.8920   70.0330   69.2950 C   0  0  2  0  0  0  0  0  0  0  0  0
    9.7570   71.1310   68.7700 C   0  0  0  0  0  0  0  0  0  0  0  0
   10.7480   71.4990   69.4350 O   0  0  0  0  0  0  0  0  0  0  0  0
    7.4790   70.4580   69.6050 C   0  0  2  0  0  0  0  0  0  0  0  0
    7.5070   71.3770   70.7040 O   0  0  0  0  0  0  0  0  0  0  0  0
    6.6380   69.1650   70.1220 C   0  0  0  0  0  0  0  0  0  0  0  0
    9.4670   71.6450   67.5420 N   0  0  0  0  0  0  0  0  0  0  0  0
   10.3980   72.5680   66.9050 C   0  0  0  0  0  0  0  0  0  0  0  0
    9.0697   60.7245   78.1916 H   0  0  0  0  0  0  0  0  0  0  0  0
    7.5524   61.2140   77.4764 H   0  0  0  0  0  0  0  0  0  0  0  0
    7.7730   61.3077   79.2072 H   0  0  0  0  0  0  0  0  0  0  0  0
   10.7147   62.2136   77.9544 H   0  0  0  0  0  0  0  0  0  0  0  0
   10.1855   65.0629   78.2863 H   0  0  0  0  0  0  0  0  0  0  0  0
   12.7661   63.6843   77.4017 H   0  0  0  0  0  0  0  0  0  0  0  0
   12.3969   64.1739   79.0378 H   0  0  0  0  0  0  0  0  0  0  0  0
   12.6147   65.3805   77.7930 H   0  0  0  0  0  0  0  0  0  0  0  0
    9.0388   65.9676   76.5752 H   0  0  0  0  0  0  0  0  0  0  0  0
    9.3871   64.8785   73.8697 H   0  0  0  0  0  0  0  0  0  0  0  0
    7.1011   64.6884   74.7527 H   0  0  0  0  0  0  0  0  0  0  0  0
    7.0909   66.3999   75.1480 H   0  0  0  0  0  0  0  0  0  0  0  0
    7.4583   66.7120   72.4671 H   0  0  0  0  0  0  0  0  0  0  0  0
    6.3500   63.9517   72.6712 H   0  0  0  0  0  0  0  0  0  0  0  0
    7.9139   64.3951   72.0303 H   0  0  0  0  0  0  0  0  0  0  0  0
    6.4571   64.9201   71.2208 H   0  0  0  0  0  0  0  0  0  0  0  0
    4.9370   65.7666   73.8774 H   0  0  0  0  0  0  0  0  0  0  0  0
    4.9638   66.7023   72.4020 H   0  0  0  0  0  0  0  0  0  0  0  0
    5.5341   67.4087   73.8949 H   0  0  0  0  0  0  0  0  0  0  0  0
   10.3459   65.8907   72.3850 H   0  0  0  0  0  0  0  0  0  0  0  0
   10.7075   68.7648   72.5134 H   0  0  0  0  0  0  0  0  0  0  0  0
   12.0884   66.6242   70.8016 H   0  0  0  0  0  0  0  0  0  0  0  0
   12.7702   67.3207   72.2518 H   0  0  0  0  0  0  0  0  0  0  0  0
   12.5433   68.3110   70.8303 H   0  0  0  0  0  0  0  0  0  0  0  0
    9.7488   70.1136   71.2269 H   0  0  0  0  0  0  0  0  0  0  0  0
    8.8088   69.2969   68.5229 H   0  0  0  0  0  0  0  0  0  0  0  0
    7.0414   70.8913   68.7300 H   0  0  0  0  0  0  0  0  0  0  0  0
    7.9097   70.9472   71.4747 H   0  0  0  0  0  0  0  0  0  0  0  0
    7.1057   68.7614   70.9956 H   0  0  0  0  0  0  0  0  0  0  0  0
    6.6179   68.4217   69.3526 H   0  0  0  0  0  0  0  0  0  0  0  0
    5.6373   69.4614   70.3578 H   0  0  0  0  0  0  0  0  0  0  0  0
    8.6312   71.3938   67.0863 H   0  0  0  0  0  0  0  0  0  0  0  0
   11.2422   72.7211   67.5444 H   0  0  0  0  0  0  0  0  0  0  0  0
    9.9090   73.5035   66.7297 H   0  0  0  0  0  0  0  0  0  0  0  0
   10.7263   72.1571   65.9732 H   0  0  0  0  0  0  0  0  0  0  0  0
  1 31  1  0  0  0  0
  1 32  1  0  0  0  0
  1 33  1  0  0  0  0
  2  3  2  0  0  0  0
  2  1  1  0  0  0  0
  4  2  1  0  0  0  0
  4 34  1  0  0  0  0
  5  4  1  0  0  0  0
  5  8  1  0  0  0  0
  5 35  1  1  0  0  0
  6  5  1  0  0  0  0
  7  6  2  0  0  0  0
  8 36  1  0  0  0  0
  8 37  1  0  0  0  0
  8 38  1  0  0  0  0
  9  6  1  0  0  0  0
  9 39  1  0  0  0  0
 10  9  1  0  0  0  0
 10 40  1  6  0  0  0
 11 12  2  0  0  0  0
 11 10  1  0  0  0  0
 13 10  1  0  0  0  0
 13 41  1  0  0  0  0
 13 42  1  0  0  0  0
 14 16  1  0  0  0  0
 14 13  1  0  0  0  0
 14 43  1  0  0  0  0
 15 14  1  0  0  0  0
 15 44  1  0  0  0  0
 15 45  1  0  0  0  0
 15 46  1  0  0  0  0
 16 47  1  0  0  0  0
 16 48  1  0  0  0  0
 16 49  1  0  0  0  0
 17 11  1  0  0  0  0
 17 50  1  0  0  0  0
 18 17  1  0  0  0  0
 18 51  1  1  0  0  0
 19 18  1  0  0  0  0
 20 19  2  0  0  0  0
 21 18  1  0  0  0  0
 21 52  1  0  0  0  0
 21 53  1  0  0  0  0
 21 54  1  0  0  0  0
 22 19  1  0  0  0  0
 22 55  1  0  0  0  0
 23 26  1  0  0  0  0
 23 22  1  0  0  0  0
 23 56  1  6  0  0  0
 24 23  1  0  0  0  0
 24 25  2  0  0  0  0
 26 28  1  0  0  0  0
 26 27  1  0  0  0  0
 26 57  1  6  0  0  0
 27 58  1  0  0  0  0
 28 59  1  0  0  0  0
 28 60  1  0  0  0  0
 28 61  1  0  0  0  0
 29 24  1  0  0  0  0
 29 62  1  0  0  0  0
 30 29  1  0  0  0  0
 30 63  1  0  0  0  0
 30 64  1  0  0  0  0
 30 65  1  0  0  0  0
M  END
>  <MODEL>
       0

$$$$
selected_4mers/ALAT/303_noH.pdb
 OpenBabel03042517593D

 65 64  0  0  1  0  0  0  0  0999 V2000
  -21.1110   13.6140    1.7130 C   0  0  0  0  0  0  0  0  0  0  0  0
  -20.3730   14.5450    0.7430 C   0  0  0  0  0  0  0  0  0  0  0  0
  -19.1360   14.6190    0.7720 O   0  0  0  0  0  0  0  0  0  0  0  0
  -21.1200   15.2530   -0.1160 N   0  0  0  0  0  0  0  0  0  0  0  0
  -20.5250   16.2020   -1.0800 C   0  0  2  0  0  0  0  0  0  0  0  0
  -19.9740   17.4510   -0.3860 C   0  0  0  0  0  0  0  0  0  0  0  0
  -20.6580   18.0590    0.4850 O   0  0  0  0  0  0  0  0  0  0  0  0
  -21.5550   16.5990   -2.1320 C   0  0  0  0  0  0  0  0  0  0  0  0
  -18.7720   17.8670   -0.7840 N   0  0  0  0  0  0  0  0  0  0  0  0
  -18.1160   19.0280   -0.1580 C   0  0  2  0  0  0  0  0  0  0  0  0
  -18.6230   20.3260   -0.7390 C   0  0  0  0  0  0  0  0  0  0  0  0
  -18.5960   21.3600   -0.0790 O   0  0  0  0  0  0  0  0  0  0  0  0
  -16.6170   18.9710   -0.3680 C   0  0  0  0  0  0  0  0  0  0  0  0
  -15.9070   17.7650    0.2440 C   0  0  0  0  0  0  0  0  0  0  0  0
  -14.4410   17.9830    0.0450 C   0  0  0  0  0  0  0  0  0  0  0  0
  -16.2400   17.6120    1.7220 C   0  0  0  0  0  0  0  0  0  0  0  0
  -19.0580   20.2680   -2.0010 N   0  0  0  0  0  0  0  0  0  0  0  0
  -19.6740   21.4130   -2.6640 C   0  0  2  0  0  0  0  0  0  0  0  0
  -20.5780   20.8480   -3.7540 C   0  0  0  0  0  0  0  0  0  0  0  0
  -20.4200   19.6920   -4.1340 O   0  0  0  0  0  0  0  0  0  0  0  0
  -18.6130   22.3050   -3.2750 C   0  0  0  0  0  0  0  0  0  0  0  0
  -21.5080   21.6720   -4.2300 N   0  0  0  0  0  0  0  0  0  0  0  0
  -22.4570   21.3070   -5.2820 C   0  0  2  0  0  0  0  0  0  0  0  0
  -22.3610   22.3070   -6.4380 C   0  0  0  0  0  0  0  0  0  0  0  0
  -22.4270   23.5350   -6.2210 O   0  0  0  0  0  0  0  0  0  0  0  0
  -23.8560   21.3930   -4.6730 C   0  0  2  0  0  0  0  0  0  0  0  0
  -23.9800   20.3340   -3.7230 O   0  0  0  0  0  0  0  0  0  0  0  0
  -24.9580   21.2420   -5.7680 C   0  0  0  0  0  0  0  0  0  0  0  0
  -22.2230   21.8010   -7.6700 N   0  0  0  0  0  0  0  0  0  0  0  0
  -22.1430   22.6980   -8.8290 C   0  0  0  0  0  0  0  0  0  0  0  0
  -22.1649   13.6830    1.5413 H   0  0  0  0  0  0  0  0  0  0  0  0
  -20.8940   13.9035    2.7200 H   0  0  0  0  0  0  0  0  0  0  0  0
  -20.7890   12.6060    1.5544 H   0  0  0  0  0  0  0  0  0  0  0  0
  -22.0976   15.1369   -0.1042 H   0  0  0  0  0  0  0  0  0  0  0  0
  -19.7042   15.7063   -1.5549 H   0  0  0  0  0  0  0  0  0  0  0  0
  -22.3762   17.0948   -1.6579 H   0  0  0  0  0  0  0  0  0  0  0  0
  -21.9089   15.7224   -2.6333 H   0  0  0  0  0  0  0  0  0  0  0  0
  -21.1027   17.2584   -2.8430 H   0  0  0  0  0  0  0  0  0  0  0  0
  -18.3129   17.3884   -1.5116 H   0  0  0  0  0  0  0  0  0  0  0  0
  -18.3456   18.9906    0.8864 H   0  0  0  0  0  0  0  0  0  0  0  0
  -16.1915   19.8547    0.0596 H   0  0  0  0  0  0  0  0  0  0  0  0
  -16.4739   18.8877   -1.4251 H   0  0  0  0  0  0  0  0  0  0  0  0
  -16.2285   16.8608   -0.2292 H   0  0  0  0  0  0  0  0  0  0  0  0
  -14.1469   18.8918    0.5271 H   0  0  0  0  0  0  0  0  0  0  0  0
  -14.2292   18.0498   -1.0017 H   0  0  0  0  0  0  0  0  0  0  0  0
  -13.8980   17.1634    0.4672 H   0  0  0  0  0  0  0  0  0  0  0  0
  -15.9384   18.4932    2.2486 H   0  0  0  0  0  0  0  0  0  0  0  0
  -15.7212   16.7644    2.1186 H   0  0  0  0  0  0  0  0  0  0  0  0
  -17.2944   17.4709    1.8373 H   0  0  0  0  0  0  0  0  0  0  0  0
  -18.9598   19.4251   -2.5001 H   0  0  0  0  0  0  0  0  0  0  0  0
  -20.2291   22.0066   -1.9680 H   0  0  0  0  0  0  0  0  0  0  0  0
  -18.0362   21.7424   -3.9790 H   0  0  0  0  0  0  0  0  0  0  0  0
  -17.9711   22.6758   -2.5034 H   0  0  0  0  0  0  0  0  0  0  0  0
  -19.0822   23.1269   -3.7742 H   0  0  0  0  0  0  0  0  0  0  0  0
  -21.5606   22.5797   -3.8525 H   0  0  0  0  0  0  0  0  0  0  0  0
  -22.2480   20.3255   -5.6534 H   0  0  0  0  0  0  0  0  0  0  0  0
  -23.9869   22.3481   -4.2088 H   0  0  0  0  0  0  0  0  0  0  0  0
  -23.8571   19.4822   -4.1705 H   0  0  0  0  0  0  0  0  0  0  0  0
  -24.8527   20.2933   -6.2516 H   0  0  0  0  0  0  0  0  0  0  0  0
  -24.8525   22.0242   -6.4904 H   0  0  0  0  0  0  0  0  0  0  0  0
  -25.9242   21.3049   -5.3127 H   0  0  0  0  0  0  0  0  0  0  0  0
  -22.1751   20.8261   -7.7986 H   0  0  0  0  0  0  0  0  0  0  0  0
  -22.2119   23.7136   -8.4994 H   0  0  0  0  0  0  0  0  0  0  0  0
  -22.9484   22.4856   -9.5007 H   0  0  0  0  0  0  0  0  0  0  0  0
  -21.2104   22.5487   -9.3319 H   0  0  0  0  0  0  0  0  0  0  0  0
  1 31  1  0  0  0  0
  1 32  1  0  0  0  0
  1 33  1  0  0  0  0
  2  3  2  0  0  0  0
  2  1  1  0  0  0  0
  4  2  1  0  0  0  0
  4 34  1  0  0  0  0
  5  6  1  0  0  0  0
  5  4  1  0  0  0  0
  5 35  1  6  0  0  0
  6  7  2  0  0  0  0
  8  5  1  0  0  0  0
  8 36  1  0  0  0  0
  8 37  1  0  0  0  0
  8 38  1  0  0  0  0
  9  6  1  0  0  0  0
  9 10  1  0  0  0  0
  9 39  1  0  0  0  0
 10 40  1  1  0  0  0
 11 10  1  0  0  0  0
 11 12  2  0  0  0  0
 13 10  1  0  0  0  0
 13 14  1  0  0  0  0
 13 41  1  0  0  0  0
 13 42  1  0  0  0  0
 14 16  1  0  0  0  0
 14 43  1  0  0  0  0
 15 14  1  0  0  0  0
 15 44  1  0  0  0  0
 15 45  1  0  0  0  0
 15 46  1  0  0  0  0
 16 47  1  0  0  0  0
 16 48  1  0  0  0  0
 16 49  1  0  0  0  0
 17 11  1  0  0  0  0
 17 50  1  0  0  0  0
 18 17  1  0  0  0  0
 18 51  1  1  0  0  0
 19 18  1  0  0  0  0
 20 19  2  0  0  0  0
 21 18  1  0  0  0  0
 21 52  1  0  0  0  0
 21 53  1  0  0  0  0
 21 54  1  0  0  0  0
 22 19  1  0  0  0  0
 22 55  1  0  0  0  0
 23 26  1  0  0  0  0
 23 22  1  0  0  0  0
 23 56  1  6  0  0  0
 24 25  2  0  0  0  0
 24 23  1  0  0  0  0
 26 27  1  0  0  0  0
 26 57  1  1  0  0  0
 27 58  1  0  0  0  0
 28 26  1  0  0  0  0
 28 59  1  0  0  0  0
 28 60  1  0  0  0  0
 28 61  1  0  0  0  0
 29 24  1  0  0  0  0
 29 62  1  0  0  0  0
 30 29  1  0  0  0  0
 30 63  1  0  0  0  0
 30 64  1  0  0  0  0
 30 65  1  0  0  0  0
M  END
>  <MODEL>
       0

$$$$
selected_4mers/ALAT/304_noH.pdb
 OpenBabel03042517593D

 65 64  0  0  1  0  0  0  0  0999 V2000
   55.5820   23.6820   -6.5180 C   0  0  0  0  0  0  0  0  0  0  0  0
   56.1050   22.9350   -7.7390 C   0  0  0  0  0  0  0  0  0  0  0  0
   56.9490   22.0700   -7.5930 O   0  0  0  0  0  0  0  0  0  0  0  0
   55.6710   23.3500   -8.9330 N   0  0  0  0  0  0  0  0  0  0  0  0
   56.1780   22.7130  -10.1650 C   0  0  2  0  0  0  0  0  0  0  0  0
   57.6690   23.0220  -10.3690 C   0  0  0  0  0  0  0  0  0  0  0  0
   58.4060   22.1220  -10.7680 O   0  0  0  0  0  0  0  0  0  0  0  0
   55.3940   23.1710  -11.3850 C   0  0  0  0  0  0  0  0  0  0  0  0
   58.1160   24.2440  -10.0460 N   0  0  0  0  0  0  0  0  0  0  0  0
   59.5490   24.5510  -10.1920 C   0  0  2  0  0  0  0  0  0  0  0  0
   60.4060   23.7280   -9.2450 C   0  0  0  0  0  0  0  0  0  0  0  0
   61.4610   23.1820   -9.6400 O   0  0  0  0  0  0  0  0  0  0  0  0
   59.8170   26.0330  -10.0280 C   0  0  0  0  0  0  0  0  0  0  0  0
   59.3440   26.9300  -11.1750 C   0  0  0  0  0  0  0  0  0  0  0  0
   59.3120   28.3250  -10.6440 C   0  0  0  0  0  0  0  0  0  0  0  0
   60.3090   26.7980  -12.3280 C   0  0  0  0  0  0  0  0  0  0  0  0
   59.9790   23.6180   -7.9920 N   0  0  0  0  0  0  0  0  0  0  0  0
   60.7100   22.7630   -7.0600 C   0  0  2  0  0  0  0  0  0  0  0  0
   60.7500   21.3160   -7.5520 C   0  0  0  0  0  0  0  0  0  0  0  0
   61.7810   20.6340   -7.4460 O   0  0  0  0  0  0  0  0  0  0  0  0
   60.0700   22.8360   -5.6630 C   0  0  0  0  0  0  0  0  0  0  0  0
   59.6040   20.8530   -8.0680 N   0  0  0  0  0  0  0  0  0  0  0  0
   59.5210   19.5120   -8.6240 C   0  0  2  0  0  0  0  0  0  0  0  0
   60.4630   19.3290   -9.8250 C   0  0  0  0  0  0  0  0  0  0  0  0
   61.1480   18.2950   -9.9030 O   0  0  0  0  0  0  0  0  0  0  0  0
   58.0950   19.1880   -9.0280 C   0  0  2  0  0  0  0  0  0  0  0  0
   57.2950   19.2050   -7.8320 O   0  0  0  0  0  0  0  0  0  0  0  0
   57.9890   17.7920   -9.6590 C   0  0  0  0  0  0  0  0  0  0  0  0
   60.4950   20.3310  -10.7120 N   0  0  0  0  0  0  0  0  0  0  0  0
   61.3920   20.2620  -11.8780 C   0  0  0  0  0  0  0  0  0  0  0  0
   54.8519   24.4012   -6.8256 H   0  0  0  0  0  0  0  0  0  0  0  0
   56.3930   24.1827   -6.0318 H   0  0  0  0  0  0  0  0  0  0  0  0
   55.1339   22.9866   -5.8394 H   0  0  0  0  0  0  0  0  0  0  0  0
   55.0134   24.0803   -8.9912 H   0  0  0  0  0  0  0  0  0  0  0  0
   56.0517   21.6566  -10.0511 H   0  0  0  0  0  0  0  0  0  0  0  0
   55.5128   24.2271  -11.5095 H   0  0  0  0  0  0  0  0  0  0  0  0
   54.3576   22.9421  -11.2495 H   0  0  0  0  0  0  0  0  0  0  0  0
   55.7601   22.6660  -12.2544 H   0  0  0  0  0  0  0  0  0  0  0  0
   57.4922   24.9297   -9.7143 H   0  0  0  0  0  0  0  0  0  0  0  0
   59.8273   24.2774  -11.1883 H   0  0  0  0  0  0  0  0  0  0  0  0
   59.3263   26.3578   -9.1343 H   0  0  0  0  0  0  0  0  0  0  0  0
   60.8820   26.1332  -10.0029 H   0  0  0  0  0  0  0  0  0  0  0  0
   58.3731   26.6566  -11.5321 H   0  0  0  0  0  0  0  0  0  0  0  0
   60.2847   28.5936  -10.2883 H   0  0  0  0  0  0  0  0  0  0  0  0
   58.6090   28.3844   -9.8395 H   0  0  0  0  0  0  0  0  0  0  0  0
   59.0193   28.9968  -11.4237 H   0  0  0  0  0  0  0  0  0  0  0  0
   61.2925   27.0653  -12.0023 H   0  0  0  0  0  0  0  0  0  0  0  0
   60.0071   27.4486  -13.1220 H   0  0  0  0  0  0  0  0  0  0  0  0
   60.3115   25.7865  -12.6770 H   0  0  0  0  0  0  0  0  0  0  0  0
   59.1783   24.1075   -7.6946 H   0  0  0  0  0  0  0  0  0  0  0  0
   61.7177   23.1181   -7.0015 H   0  0  0  0  0  0  0  0  0  0  0  0
   59.0615   22.4822   -5.7138 H   0  0  0  0  0  0  0  0  0  0  0  0
   60.0756   23.8497   -5.3207 H   0  0  0  0  0  0  0  0  0  0  0  0
   60.6278   22.2268   -4.9829 H   0  0  0  0  0  0  0  0  0  0  0  0
   58.8058   21.4293   -8.0709 H   0  0  0  0  0  0  0  0  0  0  0  0
   59.8321   18.8329   -7.8579 H   0  0  0  0  0  0  0  0  0  0  0  0
   57.7642   19.9060   -9.7490 H   0  0  0  0  0  0  0  0  0  0  0  0
   57.6300   18.5408   -7.2095 H   0  0  0  0  0  0  0  0  0  0  0  0
   58.3155   17.0562   -8.9541 H   0  0  0  0  0  0  0  0  0  0  0  0
   58.6056   17.7476  -10.5323 H   0  0  0  0  0  0  0  0  0  0  0  0
   56.9720   17.5995   -9.9303 H   0  0  0  0  0  0  0  0  0  0  0  0
   59.9165   21.1173  -10.5844 H   0  0  0  0  0  0  0  0  0  0  0  0
   61.9400   19.3433  -11.8526 H   0  0  0  0  0  0  0  0  0  0  0  0
   62.0748   21.0854  -11.8519 H   0  0  0  0  0  0  0  0  0  0  0  0
   60.8129   20.3071  -12.7766 H   0  0  0  0  0  0  0  0  0  0  0  0
  1 31  1  0  0  0  0
  1 32  1  0  0  0  0
  1 33  1  0  0  0  0
  2  3  2  0  0  0  0
  2  1  1  0  0  0  0
  4  2  1  0  0  0  0
  4 34  1  0  0  0  0
  5  4  1  0  0  0  0
  5 35  1  1  0  0  0
  6  5  1  0  0  0  0
  6  9  1  0  0  0  0
  7  6  2  0  0  0  0
  8  5  1  0  0  0  0
  8 36  1  0  0  0  0
  8 37  1  0  0  0  0
  8 38  1  0  0  0  0
  9 39  1  0  0  0  0
 10  9  1  0  0  0  0
 10 13  1  0  0  0  0
 10 11  1  0  0  0  0
 10 40  1  6  0  0  0
 11 17  1  0  0  0  0
 12 11  2  0  0  0  0
 13 41  1  0  0  0  0
 13 42  1  0  0  0  0
 14 15  1  0  0  0  0
 14 13  1  0  0  0  0
 14 43  1  0  0  0  0
 15 44  1  0  0  0  0
 15 45  1  0  0  0  0
 15 46  1  0  0  0  0
 16 14  1  0  0  0  0
 16 47  1  0  0  0  0
 16 48  1  0  0  0  0
 16 49  1  0  0  0  0
 17 18  1  0  0  0  0
 17 50  1  0  0  0  0
 18 21  1  0  0  0  0
 18 51  1  1  0  0  0
 19 20  2  0  0  0  0
 19 18  1  0  0  0  0
 21 52  1  0  0  0  0
 21 53  1  0  0  0  0
 21 54  1  0  0  0  0
 22 19  1  0  0  0  0
 22 55  1  0  0  0  0
 23 22  1  0  0  0  0
 23 56  1  1  0  0  0
 24 23  1  0  0  0  0
 25 24  2  0  0  0  0
 26 23  1  0  0  0  0
 26 27  1  0  0  0  0
 26 57  1  6  0  0  0
 27 58  1  0  0  0  0
 28 26  1  0  0  0  0
 28 59  1  0  0  0  0
 28 60  1  0  0  0  0
 28 61  1  0  0  0  0
 29 24  1  0  0  0  0
 29 62  1  0  0  0  0
 30 29  1  0  0  0  0
 30 63  1  0  0  0  0
 30 64  1  0  0  0  0
 30 65  1  0  0  0  0
M  END
>  <MODEL>
       0

$$$$
