selected_4mers/ALEA/75_noH.pdb
 OpenBabel03042517503D

 66 65  0  0  1  0  0  0  0  0999 V2000
   94.2700   20.1280   22.7680 C   0  0  0  0  0  0  0  0  0  0  0  0
   94.0670   19.5370   21.3760 C   0  0  0  0  0  0  0  0  0  0  0  0
   94.9160   18.7060   20.9380 O   0  0  0  0  0  0  0  0  0  0  0  0
   92.9670   19.8920   20.7130 N   0  0  0  0  0  0  0  0  0  0  0  0
   92.7100   19.3180   19.3640 C   0  0  2  0  0  0  0  0  0  0  0  0
   93.7550   19.8320   18.4020 C   0  0  0  0  0  0  0  0  0  0  0  0
   94.3010   19.0910   17.5630 O   0  0  0  0  0  0  0  0  0  0  0  0
   91.3040   19.6710   18.9000 C   0  0  0  0  0  0  0  0  0  0  0  0
   94.0540   21.1380   18.5140 N   0  0  0  0  0  0  0  0  0  0  0  0
   95.0950   21.7120   17.6110 C   0  0  2  0  0  0  0  0  0  0  0  0
   96.4420   21.0610   17.7940 C   0  0  0  0  0  0  0  0  0  0  0  0
   97.1570   20.7870   16.8340 O   0  0  0  0  0  0  0  0  0  0  0  0
   95.2570   23.1850   17.8740 C   0  0  0  0  0  0  0  0  0  0  0  0
   94.1400   24.0200   17.3440 C   0  0  0  0  0  0  0  0  0  0  0  0
   94.1480   25.3840   18.0560 C   0  0  0  0  0  0  0  0  0  0  0  0
   94.2660   24.1780   15.7990 C   0  0  0  0  0  0  0  0  0  0  0  0
   96.8350   20.7840   19.0470 N   0  0  0  0  0  0  0  0  0  0  0  0
   98.0680   20.0960   19.3060 C   0  0  2  0  0  0  0  0  0  0  0  0
   98.1190   18.6940   18.7040 C   0  0  0  0  0  0  0  0  0  0  0  0
   99.1350   18.3240   18.1200 O   0  0  0  0  0  0  0  0  0  0  0  0
   98.4530   20.1190   20.8160 C   0  0  0  0  0  0  0  0  0  0  0  0
   99.8360   19.5160   21.0310 C   0  0  0  0  0  0  0  0  0  0  0  0
   99.9040   18.0190   21.2290 C   0  0  0  0  0  0  0  0  0  0  0  0
   98.9990   17.4240   21.8020 O   0  0  0  0  0  0  0  0  0  0  0  0
  100.9320   17.4030   20.8440 O   0  0  0  0  0  0  0  0  0  0  0  0
   97.0150   17.9510   18.8170 N   0  0  0  0  0  0  0  0  0  0  0  0
   96.9560   16.6230   18.2060 C   0  0  2  0  0  0  0  0  0  0  0  0
   97.0280   16.7090   16.6780 C   0  0  0  0  0  0  0  0  0  0  0  0
   97.7150   15.8890   16.0840 O   0  0  0  0  0  0  0  0  0  0  0  0
   95.6710   15.9520   18.6140 C   0  0  0  0  0  0  0  0  0  0  0  0
   96.3830   17.7220   16.1000 N   0  0  0  0  0  0  0  0  0  0  0  0
   96.4240   17.9050   14.6260 C   0  0  0  0  0  0  0  0  0  0  0  0
   93.4726   20.8070   22.9870 H   0  0  0  0  0  0  0  0  0  0  0  0
   95.2029   20.6510   22.8009 H   0  0  0  0  0  0  0  0  0  0  0  0
   94.2769   19.3405   23.4923 H   0  0  0  0  0  0  0  0  0  0  0  0
   92.3301   20.5281   21.1118 H   0  0  0  0  0  0  0  0  0  0  0  0
   92.7760   18.2508   19.4034 H   0  0  0  0  0  0  0  0  0  0  0  0
   91.2019   20.7349   18.8489 H   0  0  0  0  0  0  0  0  0  0  0  0
   90.5903   19.2771   19.5930 H   0  0  0  0  0  0  0  0  0  0  0  0
   91.1315   19.2492   17.9319 H   0  0  0  0  0  0  0  0  0  0  0  0
   93.5963   21.7036   19.1772 H   0  0  0  0  0  0  0  0  0  0  0  0
   94.7578   21.5320   16.6116 H   0  0  0  0  0  0  0  0  0  0  0  0
   95.3163   23.3338   18.9319 H   0  0  0  0  0  0  0  0  0  0  0  0
   96.1455   23.4955   17.3651 H   0  0  0  0  0  0  0  0  0  0  0  0
   93.2038   23.5398   17.5387 H   0  0  0  0  0  0  0  0  0  0  0  0
   95.0791   25.8776   17.8708 H   0  0  0  0  0  0  0  0  0  0  0  0
   94.0252   25.2375   19.1088 H   0  0  0  0  0  0  0  0  0  0  0  0
   93.3452   25.9855   17.6836 H   0  0  0  0  0  0  0  0  0  0  0  0
   95.1937   24.6565   15.5639 H   0  0  0  0  0  0  0  0  0  0  0  0
   93.4552   24.7732   15.4340 H   0  0  0  0  0  0  0  0  0  0  0  0
   94.2356   23.2128   15.3381 H   0  0  0  0  0  0  0  0  0  0  0  0
   96.2668   21.0579   19.8029 H   0  0  0  0  0  0  0  0  0  0  0  0
   98.8242   20.6507   18.7908 H   0  0  0  0  0  0  0  0  0  0  0  0
   97.7335   19.5531   21.3701 H   0  0  0  0  0  0  0  0  0  0  0  0
   98.4659   21.1350   21.1513 H   0  0  0  0  0  0  0  0  0  0  0  0
  100.2585   19.9768   21.8993 H   0  0  0  0  0  0  0  0  0  0  0  0
  100.3670   19.7023   20.1209 H   0  0  0  0  0  0  0  0  0  0  0  0
   96.2385   18.2980   19.3129 H   0  0  0  0  0  0  0  0  0  0  0  0
   97.7966   16.0542   18.5448 H   0  0  0  0  0  0  0  0  0  0  0  0
   94.8406   16.5317   18.2686 H   0  0  0  0  0  0  0  0  0  0  0  0
   95.6324   15.8739   19.6804 H   0  0  0  0  0  0  0  0  0  0  0  0
   95.6270   14.9737   18.1829 H   0  0  0  0  0  0  0  0  0  0  0  0
   95.8740   18.3557   16.6555 H   0  0  0  0  0  0  0  0  0  0  0  0
   97.0181   17.1310   14.1869 H   0  0  0  0  0  0  0  0  0  0  0  0
   96.8535   18.8578   14.3967 H   0  0  0  0  0  0  0  0  0  0  0  0
   95.4299   17.8580   14.2330 H   0  0  0  0  0  0  0  0  0  0  0  0
  1 33  1  0  0  0  0
  1 34  1  0  0  0  0
  1 35  1  0  0  0  0
  2  1  1  0  0  0  0
  3  2  2  0  0  0  0
  4  2  1  0  0  0  0
  4 36  1  0  0  0  0
  5  4  1  0  0  0  0
  5 37  1  1  0  0  0
  6  9  1  0  0  0  0
  6  5  1  0  0  0  0
  7  6  2  0  0  0  0
  8  5  1  0  0  0  0
  8 38  1  0  0  0  0
  8 39  1  0  0  0  0
  8 40  1  0  0  0  0
  9 41  1  0  0  0  0
 10 11  1  0  0  0  0
 10 13  1  0  0  0  0
 10  9  1  0  0  0  0
 10 42  1  6  0  0  0
 11 17  1  0  0  0  0
 12 11  2  0  0  0  0
 13 43  1  0  0  0  0
 13 44  1  0  0  0  0
 14 13  1  0  0  0  0
 14 15  1  0  0  0  0
 14 45  1  0  0  0  0
 15 46  1  0  0  0  0
 15 47  1  0  0  0  0
 15 48  1  0  0  0  0
 16 14  1  0  0  0  0
 16 49  1  0  0  0  0
 16 50  1  0  0  0  0
 16 51  1  0  0  0  0
 17 18  1  0  0  0  0
 17 52  1  0  0  0  0
 18 21  1  0  0  0  0
 18 53  1  6  0  0  0
 19 26  1  0  0  0  0
 19 18  1  0  0  0  0
 20 19  2  0  0  0  0
 21 22  1  0  0  0  0
 21 54  1  0  0  0  0
 21 55  1  0  0  0  0
 22 23  1  0  0  0  0
 22 56  1  0  0  0  0
 22 57  1  0  0  0  0
 23 24  1  0  0  0  0
 25 23  2  0  0  0  0
 26 58  1  0  0  0  0
 27 30  1  0  0  0  0
 27 26  1  0  0  0  0
 27 59  1  1  0  0  0
 28 27  1  0  0  0  0
 29 28  2  0  0  0  0
 30 60  1  0  0  0  0
 30 61  1  0  0  0  0
 30 62  1  0  0  0  0
 31 28  1  0  0  0  0
 31 63  1  0  0  0  0
 32 31  1  0  0  0  0
 32 64  1  0  0  0  0
 32 65  1  0  0  0  0
 32 66  1  0  0  0  0
M  CHG  1  24  -1
M  END
>  <MODEL>
       0

$$$$
selected_4mers/ALEA/76_noH.pdb
 OpenBabel03042517503D

 66 65  0  0  1  0  0  0  0  0999 V2000
   31.6040   28.7650   84.5520 C   0  0  0  0  0  0  0  0  0  0  0  0
   30.3750   28.3810   83.7470 C   0  0  0  0  0  0  0  0  0  0  0  0
   30.2540   28.7490   82.5780 O   0  0  0  0  0  0  0  0  0  0  0  0
   29.4590   27.6470   84.3740 N   0  0  0  0  0  0  0  0  0  0  0  0
   28.2410   27.2050   83.7060 C   0  0  2  0  0  0  0  0  0  0  0  0
   27.3380   28.3470   83.2410 C   0  0  0  0  0  0  0  0  0  0  0  0
   26.4840   28.1520   82.3780 O   0  0  0  0  0  0  0  0  0  0  0  0
   27.4550   26.2760   84.6250 C   0  0  0  0  0  0  0  0  0  0  0  0
   27.5210   29.5360   83.8070 N   0  0  0  0  0  0  0  0  0  0  0  0
   26.6870   30.6740   83.4330 C   0  0  2  0  0  0  0  0  0  0  0  0
   27.4040   31.7010   82.5590 C   0  0  0  0  0  0  0  0  0  0  0  0
   26.9000   32.8030   82.3440 O   0  0  0  0  0  0  0  0  0  0  0  0
   26.1500   31.3570   84.6950 C   0  0  0  0  0  0  0  0  0  0  0  0
   25.3270   30.4600   85.6260 C   0  0  0  0  0  0  0  0  0  0  0  0
   24.9040   31.2350   86.8760 C   0  0  0  0  0  0  0  0  0  0  0  0
   24.1060   29.9480   84.8740 C   0  0  0  0  0  0  0  0  0  0  0  0
   28.5700   31.3310   82.0430 N   0  0  0  0  0  0  0  0  0  0  0  0
   29.3570   32.2290   81.2040 C   0  0  2  0  0  0  0  0  0  0  0  0
   28.5730   32.7770   80.0100 C   0  0  0  0  0  0  0  0  0  0  0  0
   27.9490   32.0250   79.2630 O   0  0  0  0  0  0  0  0  0  0  0  0
   30.6180   31.5100   80.7150 C   0  0  0  0  0  0  0  0  0  0  0  0
   31.4770   32.3200   79.7600 C   0  0  0  0  0  0  0  0  0  0  0  0
   32.7730   31.6080   79.4050 C   0  0  0  0  0  0  0  0  0  0  0  0
   33.6140   31.4140   80.3110 O   0  0  0  0  0  0  0  0  0  0  0  0
   32.9470   31.2380   78.2230 O   0  0  0  0  0  0  0  0  0  0  0  0
   28.6070   34.0970   79.8550 N   0  0  0  0  0  0  0  0  0  0  0  0
   27.9350   34.7910   78.7570 C   0  0  2  0  0  0  0  0  0  0  0  0
   26.4240   34.5920   78.6930 C   0  0  0  0  0  0  0  0  0  0  0  0
   25.7990   34.8980   77.6770 O   0  0  0  0  0  0  0  0  0  0  0  0
   28.5680   34.3830   77.4220 C   0  0  0  0  0  0  0  0  0  0  0  0
   25.8270   34.0960   79.7690 N   0  0  0  0  0  0  0  0  0  0  0  0
   24.3870   33.8750   79.7750 C   0  0  0  0  0  0  0  0  0  0  0  0
   32.2611   29.3497   83.9427 H   0  0  0  0  0  0  0  0  0  0  0  0
   32.1103   27.8792   84.8743 H   0  0  0  0  0  0  0  0  0  0  0  0
   31.3066   29.3366   85.4062 H   0  0  0  0  0  0  0  0  0  0  0  0
   29.6079   27.3958   85.3142 H   0  0  0  0  0  0  0  0  0  0  0  0
   28.5570   26.6900   82.8229 H   0  0  0  0  0  0  0  0  0  0  0  0
   27.1506   26.8128   85.4991 H   0  0  0  0  0  0  0  0  0  0  0  0
   28.0728   25.4503   84.9105 H   0  0  0  0  0  0  0  0  0  0  0  0
   26.5901   25.9130   84.1102 H   0  0  0  0  0  0  0  0  0  0  0  0
   28.2258   29.6500   84.4849 H   0  0  0  0  0  0  0  0  0  0  0  0
   25.8853   30.2808   82.8434 H   0  0  0  0  0  0  0  0  0  0  0  0
   25.5300   32.1741   84.3902 H   0  0  0  0  0  0  0  0  0  0  0  0
   27.0095   31.6571   85.2572 H   0  0  0  0  0  0  0  0  0  0  0  0
   25.9229   29.6283   85.9393 H   0  0  0  0  0  0  0  0  0  0  0  0
   24.3052   32.0743   86.5897 H   0  0  0  0  0  0  0  0  0  0  0  0
   25.7748   31.5784   87.3944 H   0  0  0  0  0  0  0  0  0  0  0  0
   24.3363   30.5942   87.5178 H   0  0  0  0  0  0  0  0  0  0  0  0
   23.5075   30.7772   84.5590 H   0  0  0  0  0  0  0  0  0  0  0  0
   23.5299   29.3163   85.5174 H   0  0  0  0  0  0  0  0  0  0  0  0
   24.4226   29.3908   84.0172 H   0  0  0  0  0  0  0  0  0  0  0  0
   28.9126   30.4274   82.2313 H   0  0  0  0  0  0  0  0  0  0  0  0
   29.6213   33.0695   81.8111 H   0  0  0  0  0  0  0  0  0  0  0  0
   31.2125   31.2607   81.5690 H   0  0  0  0  0  0  0  0  0  0  0  0
   30.2856   30.6513   80.1701 H   0  0  0  0  0  0  0  0  0  0  0  0
   30.9226   32.4939   78.8615 H   0  0  0  0  0  0  0  0  0  0  0  0
   31.7306   33.2387   80.2464 H   0  0  0  0  0  0  0  0  0  0  0  0
   29.1087   34.6331   80.5109 H   0  0  0  0  0  0  0  0  0  0  0  0
   28.0763   35.8337   78.9511 H   0  0  0  0  0  0  0  0  0  0  0  0
   28.4101   33.3376   77.2571 H   0  0  0  0  0  0  0  0  0  0  0  0
   29.6184   34.5852   77.4488 H   0  0  0  0  0  0  0  0  0  0  0  0
   28.1174   34.9414   76.6282 H   0  0  0  0  0  0  0  0  0  0  0  0
   26.3597   33.8762   80.5673 H   0  0  0  0  0  0  0  0  0  0  0  0
   23.9772   34.1683   78.8311 H   0  0  0  0  0  0  0  0  0  0  0  0
   23.9401   34.4566   80.5541 H   0  0  0  0  0  0  0  0  0  0  0  0
   24.1860   32.8378   79.9443 H   0  0  0  0  0  0  0  0  0  0  0  0
  1 33  1  0  0  0  0
  1 34  1  0  0  0  0
  1 35  1  0  0  0  0
  2  1  1  0  0  0  0
  3  2  2  0  0  0  0
  4  2  1  0  0  0  0
  4 36  1  0  0  0  0
  5  4  1  0  0  0  0
  5 37  1  1  0  0  0
  6  9  1  0  0  0  0
  6  5  1  0  0  0  0
  7  6  2  0  0  0  0
  8  5  1  0  0  0  0
  8 38  1  0  0  0  0
  8 39  1  0  0  0  0
  8 40  1  0  0  0  0
  9 41  1  0  0  0  0
 10 11  1  0  0  0  0
 10 13  1  0  0  0  0
 10  9  1  0  0  0  0
 10 42  1  6  0  0  0
 11 17  1  0  0  0  0
 12 11  2  0  0  0  0
 13 43  1  0  0  0  0
 13 44  1  0  0  0  0
 14 13  1  0  0  0  0
 14 15  1  0  0  0  0
 14 45  1  0  0  0  0
 15 46  1  0  0  0  0
 15 47  1  0  0  0  0
 15 48  1  0  0  0  0
 16 14  1  0  0  0  0
 16 49  1  0  0  0  0
 16 50  1  0  0  0  0
 16 51  1  0  0  0  0
 17 18  1  0  0  0  0
 17 52  1  0  0  0  0
 18 21  1  0  0  0  0
 18 53  1  6  0  0  0
 19 26  1  0  0  0  0
 19 18  1  0  0  0  0
 20 19  2  0  0  0  0
 21 22  1  0  0  0  0
 21 54  1  0  0  0  0
 21 55  1  0  0  0  0
 22 23  1  0  0  0  0
 22 56  1  0  0  0  0
 22 57  1  0  0  0  0
 23 24  1  0  0  0  0
 25 23  2  0  0  0  0
 26 58  1  0  0  0  0
 27 30  1  0  0  0  0
 27 26  1  0  0  0  0
 27 59  1  1  0  0  0
 28 27  1  0  0  0  0
 29 28  2  0  0  0  0
 30 60  1  0  0  0  0
 30 61  1  0  0  0  0
 30 62  1  0  0  0  0
 31 28  1  0  0  0  0
 31 63  1  0  0  0  0
 32 31  1  0  0  0  0
 32 64  1  0  0  0  0
 32 65  1  0  0  0  0
 32 66  1  0  0  0  0
M  CHG  1  24  -1
M  END
>  <MODEL>
       0

$$$$
selected_4mers/ALEA/77_noH.pdb
 OpenBabel03042517503D

 66 65  0  0  1  0  0  0  0  0999 V2000
    7.8400   -3.7040    0.1980 C   0  0  0  0  0  0  0  0  0  0  0  0
    7.4200   -2.8210    1.3760 C   0  0  0  0  0  0  0  0  0  0  0  0
    6.3640   -3.0490    1.9720 O   0  0  0  0  0  0  0  0  0  0  0  0
    8.2180   -1.8140    1.7160 N   0  0  0  0  0  0  0  0  0  0  0  0
    7.8520   -0.9520    2.8370 C   0  0  2  0  0  0  0  0  0  0  0  0
    6.5360   -0.2240    2.5640 C   0  0  0  0  0  0  0  0  0  0  0  0
    5.7240   -0.0380    3.4760 O   0  0  0  0  0  0  0  0  0  0  0  0
    8.9630    0.0560    3.1190 C   0  0  0  0  0  0  0  0  0  0  0  0
    6.3270    0.1840    1.3120 N   0  0  0  0  0  0  0  0  0  0  0  0
    5.1060    0.8950    0.9400 C   0  0  2  0  0  0  0  0  0  0  0  0
    3.8930   -0.0200    1.1200 C   0  0  0  0  0  0  0  0  0  0  0  0
    2.8630    0.4000    1.6530 O   0  0  0  0  0  0  0  0  0  0  0  0
    5.1930    1.3860   -0.5100 C   0  0  0  0  0  0  0  0  0  0  0  0
    4.0810    2.3530   -0.9280 C   0  0  0  0  0  0  0  0  0  0  0  0
    4.2090    3.6500   -0.1480 C   0  0  0  0  0  0  0  0  0  0  0  0
    4.1680    2.6270   -2.4280 C   0  0  0  0  0  0  0  0  0  0  0  0
    4.0120   -1.2690    0.6770 N   0  0  0  0  0  0  0  0  0  0  0  0
    2.9180   -2.2310    0.8310 C   0  0  2  0  0  0  0  0  0  0  0  0
    2.6420   -2.4770    2.3120 C   0  0  0  0  0  0  0  0  0  0  0  0
    1.4900   -2.5140    2.7430 O   0  0  0  0  0  0  0  0  0  0  0  0
    3.2660   -3.5750    0.1810 C   0  0  0  0  0  0  0  0  0  0  0  0
    3.2270   -3.5920   -1.3330 C   0  0  0  0  0  0  0  0  0  0  0  0
    3.5340   -4.9710   -1.8840 C   0  0  0  0  0  0  0  0  0  0  0  0
    4.6270   -5.5070   -1.5900 O   0  0  0  0  0  0  0  0  0  0  0  0
    2.6810   -5.5240   -2.6090 O   0  0  0  0  0  0  0  0  0  0  0  0
    3.7090   -2.6510    3.0860 N   0  0  0  0  0  0  0  0  0  0  0  0
    3.5780   -2.9070    4.5180 C   0  0  2  0  0  0  0  0  0  0  0  0
    2.7690   -1.8060    5.2020 C   0  0  0  0  0  0  0  0  0  0  0  0
    1.8750   -2.0880    6.0000 O   0  0  0  0  0  0  0  0  0  0  0  0
    4.9660   -3.0230    5.1590 C   0  0  0  0  0  0  0  0  0  0  0  0
    3.0850   -0.5540    4.8830 N   0  0  0  0  0  0  0  0  0  0  0  0
    2.3860    0.5870    5.4680 C   0  0  0  0  0  0  0  0  0  0  0  0
    8.7750   -3.3586   -0.1910 H   0  0  0  0  0  0  0  0  0  0  0  0
    7.0948   -3.6546   -0.5682 H   0  0  0  0  0  0  0  0  0  0  0  0
    7.9437   -4.7159    0.5300 H   0  0  0  0  0  0  0  0  0  0  0  0
    9.0500   -1.6502    1.2158 H   0  0  0  0  0  0  0  0  0  0  0  0
    7.7189   -1.5712    3.6995 H   0  0  0  0  0  0  0  0  0  0  0  0
    9.1040    0.6806    2.2617 H   0  0  0  0  0  0  0  0  0  0  0  0
    9.8721   -0.4659    3.3334 H   0  0  0  0  0  0  0  0  0  0  0  0
    8.6917    0.6600    3.9596 H   0  0  0  0  0  0  0  0  0  0  0  0
    7.0085    0.0027    0.6250 H   0  0  0  0  0  0  0  0  0  0  0  0
    4.9950    1.7464    1.5786 H   0  0  0  0  0  0  0  0  0  0  0  0
    6.1319    1.8832   -0.6374 H   0  0  0  0  0  0  0  0  0  0  0  0
    5.0871    0.5194   -1.1286 H   0  0  0  0  0  0  0  0  0  0  0  0
    3.1300    1.9121   -0.7134 H   0  0  0  0  0  0  0  0  0  0  0  0
    5.1576    4.0991   -0.3560 H   0  0  0  0  0  0  0  0  0  0  0  0
    4.1333    3.4452    0.8995 H   0  0  0  0  0  0  0  0  0  0  0  0
    3.4262    4.3194   -0.4380 H   0  0  0  0  0  0  0  0  0  0  0  0
    5.1157    3.0685   -2.6555 H   0  0  0  0  0  0  0  0  0  0  0  0
    3.3844    3.2971   -2.7142 H   0  0  0  0  0  0  0  0  0  0  0  0
    4.0648    1.7074   -2.9651 H   0  0  0  0  0  0  0  0  0  0  0  0
    4.8476   -1.5508    0.2393 H   0  0  0  0  0  0  0  0  0  0  0  0
    2.0559   -1.8166    0.3515 H   0  0  0  0  0  0  0  0  0  0  0  0
    4.2545   -3.8449    0.4891 H   0  0  0  0  0  0  0  0  0  0  0  0
    2.5129   -4.2632    0.5038 H   0  0  0  0  0  0  0  0  0  0  0  0
    2.2512   -3.2974   -1.6585 H   0  0  0  0  0  0  0  0  0  0  0  0
    3.9715   -2.9138   -1.6945 H   0  0  0  0  0  0  0  0  0  0  0  0
    4.6071   -2.6063    2.6851 H   0  0  0  0  0  0  0  0  0  0  0  0
    3.0537   -3.8308    4.6472 H   0  0  0  0  0  0  0  0  0  0  0  0
    5.4952   -2.1016    5.0329 H   0  0  0  0  0  0  0  0  0  0  0  0
    5.5110   -3.8146    4.6887 H   0  0  0  0  0  0  0  0  0  0  0  0
    4.8604   -3.2337    6.2027 H   0  0  0  0  0  0  0  0  0  0  0  0
    3.8089   -0.3923    4.2357 H   0  0  0  0  0  0  0  0  0  0  0  0
    1.6352    0.2364    6.1450 H   0  0  0  0  0  0  0  0  0  0  0  0
    1.9257    1.1601    4.6905 H   0  0  0  0  0  0  0  0  0  0  0  0
    3.0850    1.2004    5.9971 H   0  0  0  0  0  0  0  0  0  0  0  0
  1 33  1  0  0  0  0
  1 34  1  0  0  0  0
  1 35  1  0  0  0  0
  2  1  1  0  0  0  0
  3  2  2  0  0  0  0
  4  2  1  0  0  0  0
  4 36  1  0  0  0  0
  5  4  1  0  0  0  0
  5 37  1  1  0  0  0
  6  9  1  0  0  0  0
  6  5  1  0  0  0  0
  7  6  2  0  0  0  0
  8  5  1  0  0  0  0
  8 38  1  0  0  0  0
  8 39  1  0  0  0  0
  8 40  1  0  0  0  0
  9 41  1  0  0  0  0
 10 11  1  0  0  0  0
 10 13  1  0  0  0  0
 10  9  1  0  0  0  0
 10 42  1  6  0  0  0
 11 17  1  0  0  0  0
 12 11  2  0  0  0  0
 13 43  1  0  0  0  0
 13 44  1  0  0  0  0
 14 13  1  0  0  0  0
 14 15  1  0  0  0  0
 14 45  1  0  0  0  0
 15 46  1  0  0  0  0
 15 47  1  0  0  0  0
 15 48  1  0  0  0  0
 16 14  1  0  0  0  0
 16 49  1  0  0  0  0
 16 50  1  0  0  0  0
 16 51  1  0  0  0  0
 17 18  1  0  0  0  0
 17 52  1  0  0  0  0
 18 21  1  0  0  0  0
 18 53  1  6  0  0  0
 19 26  1  0  0  0  0
 19 18  1  0  0  0  0
 20 19  2  0  0  0  0
 21 22  1  0  0  0  0
 21 54  1  0  0  0  0
 21 55  1  0  0  0  0
 22 23  1  0  0  0  0
 22 56  1  0  0  0  0
 22 57  1  0  0  0  0
 23 24  1  0  0  0  0
 25 23  2  0  0  0  0
 26 58  1  0  0  0  0
 27 30  1  0  0  0  0
 27 26  1  0  0  0  0
 27 59  1  1  0  0  0
 28 27  1  0  0  0  0
 29 28  2  0  0  0  0
 30 60  1  0  0  0  0
 30 61  1  0  0  0  0
 30 62  1  0  0  0  0
 31 28  1  0  0  0  0
 31 63  1  0  0  0  0
 32 31  1  0  0  0  0
 32 64  1  0  0  0  0
 32 65  1  0  0  0  0
 32 66  1  0  0  0  0
M  CHG  1  24  -1
M  END
>  <MODEL>
       0

$$$$
selected_4mers/ALEA/78_noH.pdb
 OpenBabel03042517503D

 66 65  0  0  1  0  0  0  0  0999 V2000
   20.6270   12.7010   -6.1350 C   0  0  0  0  0  0  0  0  0  0  0  0
   20.3950   12.2680   -4.6840 C   0  0  0  0  0  0  0  0  0  0  0  0
   19.8340   13.0330   -3.8960 O   0  0  0  0  0  0  0  0  0  0  0  0
   20.7450   11.0440   -4.3440 N   0  0  0  0  0  0  0  0  0  0  0  0
   20.6010   10.5300   -2.9880 C   0  0  2  0  0  0  0  0  0  0  0  0
   21.8460   10.9270   -2.2110 C   0  0  0  0  0  0  0  0  0  0  0  0
   22.9810   10.6980   -2.6790 O   0  0  0  0  0  0  0  0  0  0  0  0
   20.5250    9.0100   -2.9270 C   0  0  0  0  0  0  0  0  0  0  0  0
   21.5760   11.4410   -1.0350 N   0  0  0  0  0  0  0  0  0  0  0  0
   22.6260   11.9230   -0.1720 C   0  0  2  0  0  0  0  0  0  0  0  0
   22.7060   11.0090    1.0520 C   0  0  0  0  0  0  0  0  0  0  0  0
   21.6740   10.5750    1.5770 O   0  0  0  0  0  0  0  0  0  0  0  0
   22.3490   13.3490    0.2990 C   0  0  0  0  0  0  0  0  0  0  0  0
   22.0740   14.4140   -0.7730 C   0  0  0  0  0  0  0  0  0  0  0  0
   21.8260   15.7670   -0.1080 C   0  0  0  0  0  0  0  0  0  0  0  0
   23.2230   14.5280   -1.7450 C   0  0  0  0  0  0  0  0  0  0  0  0
   23.9610   10.8260    1.4030 N   0  0  0  0  0  0  0  0  0  0  0  0
   24.3340    9.9890    2.5160 C   0  0  2  0  0  0  0  0  0  0  0  0
   24.4790   10.8020    3.7870 C   0  0  0  0  0  0  0  0  0  0  0  0
   24.8320   11.9600    3.7550 O   0  0  0  0  0  0  0  0  0  0  0  0
   25.6320    9.2740    2.1290 C   0  0  0  0  0  0  0  0  0  0  0  0
   26.9400   10.0220    2.3430 C   0  0  0  0  0  0  0  0  0  0  0  0
   27.2510   11.1050    1.3280 C   0  0  0  0  0  0  0  0  0  0  0  0
   28.3660   11.6770    1.3880 O   0  0  0  0  0  0  0  0  0  0  0  0
   26.4350   11.4490    0.4440 O   0  0  0  0  0  0  0  0  0  0  0  0
   24.2310   10.1050    4.8980 N   0  0  0  0  0  0  0  0  0  0  0  0
   24.5080   10.6940    6.1890 C   0  0  2  0  0  0  0  0  0  0  0  0
   25.9430   11.1940    6.2060 C   0  0  0  0  0  0  0  0  0  0  0  0
   26.8190   10.4550    5.7840 O   0  0  0  0  0  0  0  0  0  0  0  0
   24.2520    9.7540    7.3530 C   0  0  0  0  0  0  0  0  0  0  0  0
   26.1710   12.4070    6.7090 N   0  0  0  0  0  0  0  0  0  0  0  0
   27.4720   13.0200    6.8040 C   0  0  0  0  0  0  0  0  0  0  0  0
   21.1226   11.9157   -6.6667 H   0  0  0  0  0  0  0  0  0  0  0  0
   21.2345   13.5816   -6.1516 H   0  0  0  0  0  0  0  0  0  0  0  0
   19.6859   12.9081   -6.6002 H   0  0  0  0  0  0  0  0  0  0  0  0
   21.1197   10.4516   -5.0353 H   0  0  0  0  0  0  0  0  0  0  0  0
   19.6925   10.9321   -2.5908 H   0  0  0  0  0  0  0  0  0  0  0  0
   21.4275    8.5917   -3.3212 H   0  0  0  0  0  0  0  0  0  0  0  0
   19.6919    8.6710   -3.5065 H   0  0  0  0  0  0  0  0  0  0  0  0
   20.4022    8.6995   -1.9104 H   0  0  0  0  0  0  0  0  0  0  0  0
   20.6398   11.4988   -0.7361 H   0  0  0  0  0  0  0  0  0  0  0  0
   23.5455   11.9208   -0.7192 H   0  0  0  0  0  0  0  0  0  0  0  0
   21.4935   13.3131    0.9407 H   0  0  0  0  0  0  0  0  0  0  0  0
   23.2604   13.6622    0.7639 H   0  0  0  0  0  0  0  0  0  0  0  0
   21.2043   14.1148   -1.3198 H   0  0  0  0  0  0  0  0  0  0  0  0
   22.6982   16.0616    0.4373 H   0  0  0  0  0  0  0  0  0  0  0  0
   20.9959   15.6880    0.5625 H   0  0  0  0  0  0  0  0  0  0  0  0
   21.6102   16.4989   -0.8581 H   0  0  0  0  0  0  0  0  0  0  0  0
   24.1061   14.8268   -1.2199 H   0  0  0  0  0  0  0  0  0  0  0  0
   22.9877   15.2577   -2.4914 H   0  0  0  0  0  0  0  0  0  0  0  0
   23.3898   13.5803   -2.2129 H   0  0  0  0  0  0  0  0  0  0  0  0
   24.6693   11.2759    0.8881 H   0  0  0  0  0  0  0  0  0  0  0  0
   23.5729    9.2660    2.7230 H   0  0  0  0  0  0  0  0  0  0  0  0
   25.6826    8.3709    2.7007 H   0  0  0  0  0  0  0  0  0  0  0  0
   25.5643    9.1434    1.0692 H   0  0  0  0  0  0  0  0  0  0  0  0
   26.9035   10.4783    3.3101 H   0  0  0  0  0  0  0  0  0  0  0  0
   27.7147    9.2916    2.2373 H   0  0  0  0  0  0  0  0  0  0  0  0
   23.8613    9.1945    4.8387 H   0  0  0  0  0  0  0  0  0  0  0  0
   23.8266   11.5080    6.3231 H   0  0  0  0  0  0  0  0  0  0  0  0
   24.9059    8.9101    7.2804 H   0  0  0  0  0  0  0  0  0  0  0  0
   23.2355    9.4210    7.3256 H   0  0  0  0  0  0  0  0  0  0  0  0
   24.4342   10.2683    8.2735 H   0  0  0  0  0  0  0  0  0  0  0  0
   25.3976   12.9195    7.0383 H   0  0  0  0  0  0  0  0  0  0  0  0
   28.2103   12.3525    6.4112 H   0  0  0  0  0  0  0  0  0  0  0  0
   27.6923   13.2321    7.8294 H   0  0  0  0  0  0  0  0  0  0  0  0
   27.4792   13.9304    6.2419 H   0  0  0  0  0  0  0  0  0  0  0  0
  1 33  1  0  0  0  0
  1 34  1  0  0  0  0
  1 35  1  0  0  0  0
  2  1  1  0  0  0  0
  3  2  2  0  0  0  0
  4  2  1  0  0  0  0
  4 36  1  0  0  0  0
  5  4  1  0  0  0  0
  5 37  1  1  0  0  0
  6  9  1  0  0  0  0
  6  5  1  0  0  0  0
  7  6  2  0  0  0  0
  8  5  1  0  0  0  0
  8 38  1  0  0  0  0
  8 39  1  0  0  0  0
  8 40  1  0  0  0  0
  9 41  1  0  0  0  0
 10 11  1  0  0  0  0
 10 13  1  0  0  0  0
 10  9  1  0  0  0  0
 10 42  1  6  0  0  0
 11 17  1  0  0  0  0
 12 11  2  0  0  0  0
 13 43  1  0  0  0  0
 13 44  1  0  0  0  0
 14 13  1  0  0  0  0
 14 15  1  0  0  0  0
 14 45  1  0  0  0  0
 15 46  1  0  0  0  0
 15 47  1  0  0  0  0
 15 48  1  0  0  0  0
 16 14  1  0  0  0  0
 16 49  1  0  0  0  0
 16 50  1  0  0  0  0
 16 51  1  0  0  0  0
 17 18  1  0  0  0  0
 17 52  1  0  0  0  0
 18 21  1  0  0  0  0
 18 53  1  6  0  0  0
 19 26  1  0  0  0  0
 19 18  1  0  0  0  0
 20 19  2  0  0  0  0
 21 22  1  0  0  0  0
 21 54  1  0  0  0  0
 21 55  1  0  0  0  0
 22 23  1  0  0  0  0
 22 56  1  0  0  0  0
 22 57  1  0  0  0  0
 23 24  1  0  0  0  0
 25 23  2  0  0  0  0
 26 58  1  0  0  0  0
 27 30  1  0  0  0  0
 27 26  1  0  0  0  0
 27 59  1  1  0  0  0
 28 27  1  0  0  0  0
 29 28  2  0  0  0  0
 30 60  1  0  0  0  0
 30 61  1  0  0  0  0
 30 62  1  0  0  0  0
 31 28  1  0  0  0  0
 31 63  1  0  0  0  0
 32 31  1  0  0  0  0
 32 64  1  0  0  0  0
 32 65  1  0  0  0  0
 32 66  1  0  0  0  0
M  CHG  1  24  -1
M  END
>  <MODEL>
       0

$$$$
selected_4mers/ALEA/79_noH.pdb
 OpenBabel03042517503D

 66 65  0  0  1  0  0  0  0  0999 V2000
   -8.7970   -9.9800   10.4410 C   0  0  0  0  0  0  0  0  0  0  0  0
   -8.1670   -9.4140   11.7060 C   0  0  0  0  0  0  0  0  0  0  0  0
   -8.5060   -9.8400   12.8070 O   0  0  0  0  0  0  0  0  0  0  0  0
   -7.2320   -8.4810   11.5350 N   0  0  0  0  0  0  0  0  0  0  0  0
   -6.4160   -7.9730   12.6390 C   0  0  2  0  0  0  0  0  0  0  0  0
   -6.8740   -6.6220   13.1680 C   0  0  0  0  0  0  0  0  0  0  0  0
   -6.1670   -5.9910   13.9490 O   0  0  0  0  0  0  0  0  0  0  0  0
   -4.9400   -7.9000   12.2270 C   0  0  0  0  0  0  0  0  0  0  0  0
   -8.0610   -6.1820   12.7510 N   0  0  0  0  0  0  0  0  0  0  0  0
   -8.5660   -4.8720   13.1420 C   0  0  2  0  0  0  0  0  0  0  0  0
   -9.6800   -4.9550   14.1660 C   0  0  0  0  0  0  0  0  0  0  0  0
  -10.5750   -5.7960   14.0390 O   0  0  0  0  0  0  0  0  0  0  0  0
   -9.0730   -4.1070   11.9100 C   0  0  0  0  0  0  0  0  0  0  0  0
   -8.0220   -3.7130   10.8600 C   0  0  0  0  0  0  0  0  0  0  0  0
   -8.7030   -3.1370    9.6340 C   0  0  0  0  0  0  0  0  0  0  0  0
   -6.9910   -2.7350   11.4300 C   0  0  0  0  0  0  0  0  0  0  0  0
   -9.6260   -4.0750   15.1640 N   0  0  0  0  0  0  0  0  0  0  0  0
  -10.7430   -3.8470   16.0920 C   0  0  2  0  0  0  0  0  0  0  0  0
  -11.4790   -2.5420   15.8090 C   0  0  0  0  0  0  0  0  0  0  0  0
  -12.7010   -2.4690   15.9730 O   0  0  0  0  0  0  0  0  0  0  0  0
  -10.2560   -3.8220   17.5440 C   0  0  0  0  0  0  0  0  0  0  0  0
   -9.9460   -5.1890   18.1240 C   0  0  0  0  0  0  0  0  0  0  0  0
   -9.4380   -5.1460   19.5600 C   0  0  0  0  0  0  0  0  0  0  0  0
   -9.3900   -6.2260   20.1760 O   0  0  0  0  0  0  0  0  0  0  0  0
   -9.0730   -4.0580   20.0610 O   0  0  0  0  0  0  0  0  0  0  0  0
  -10.7400   -1.5140   15.4020 N   0  0  0  0  0  0  0  0  0  0  0  0
  -11.3100   -0.2090   15.1070 C   0  0  2  0  0  0  0  0  0  0  0  0
  -10.4090    0.5260   14.1410 C   0  0  0  0  0  0  0  0  0  0  0  0
   -9.1990    0.2790   14.0980 O   0  0  0  0  0  0  0  0  0  0  0  0
  -11.5000    0.6080   16.3760 C   0  0  0  0  0  0  0  0  0  0  0  0
  -10.9980    1.4390   13.3770 N   0  0  0  0  0  0  0  0  0  0  0  0
  -10.2780    2.2200   12.3810 C   0  0  0  0  0  0  0  0  0  0  0  0
   -8.3806   -9.4906    9.5854 H   0  0  0  0  0  0  0  0  0  0  0  0
   -9.8543   -9.8173   10.4655 H   0  0  0  0  0  0  0  0  0  0  0  0
   -8.5989  -11.0299   10.3829 H   0  0  0  0  0  0  0  0  0  0  0  0
   -7.0840   -8.1191   10.6315 H   0  0  0  0  0  0  0  0  0  0  0  0
   -6.5390   -8.6715   13.4402 H   0  0  0  0  0  0  0  0  0  0  0  0
   -4.8275   -7.1996   11.4260 H   0  0  0  0  0  0  0  0  0  0  0  0
   -4.6114   -8.8660   11.9049 H   0  0  0  0  0  0  0  0  0  0  0  0
   -4.3516   -7.5835   13.0628 H   0  0  0  0  0  0  0  0  0  0  0  0
   -8.6085   -6.7543   12.1662 H   0  0  0  0  0  0  0  0  0  0  0  0
   -7.7462   -4.3522   13.5921 H   0  0  0  0  0  0  0  0  0  0  0  0
   -9.8017   -4.7217   11.4242 H   0  0  0  0  0  0  0  0  0  0  0  0
   -9.4506   -3.1809   12.2904 H   0  0  0  0  0  0  0  0  0  0  0  0
   -7.4896   -4.5960   10.5741 H   0  0  0  0  0  0  0  0  0  0  0  0
   -9.2396   -2.2523    9.9066 H   0  0  0  0  0  0  0  0  0  0  0  0
   -9.3842   -3.8579    9.2326 H   0  0  0  0  0  0  0  0  0  0  0  0
   -7.9658   -2.8942    8.8975 H   0  0  0  0  0  0  0  0  0  0  0  0
   -7.4826   -1.8332   11.7301 H   0  0  0  0  0  0  0  0  0  0  0  0
   -6.2602   -2.5107   10.6813 H   0  0  0  0  0  0  0  0  0  0  0  0
   -6.5097   -3.1776   12.2769 H   0  0  0  0  0  0  0  0  0  0  0  0
   -8.8001   -3.5532   15.2859 H   0  0  0  0  0  0  0  0  0  0  0  0
  -11.4197   -4.6624   15.9430 H   0  0  0  0  0  0  0  0  0  0  0  0
  -11.0166   -3.3682   18.1444 H   0  0  0  0  0  0  0  0  0  0  0  0
   -9.3379   -3.2725   17.5490 H   0  0  0  0  0  0  0  0  0  0  0  0
   -9.1980   -5.6523   17.5151 H   0  0  0  0  0  0  0  0  0  0  0  0
  -10.8637   -5.7391   18.1340 H   0  0  0  0  0  0  0  0  0  0  0  0
   -9.7695   -1.6413   15.2963 H   0  0  0  0  0  0  0  0  0  0  0  0
  -12.2732   -0.3496   14.6628 H   0  0  0  0  0  0  0  0  0  0  0  0
  -10.5509    0.7655   16.8442 H   0  0  0  0  0  0  0  0  0  0  0  0
  -12.1454    0.0802   17.0467 H   0  0  0  0  0  0  0  0  0  0  0  0
  -11.9374    1.5529   16.1297 H   0  0  0  0  0  0  0  0  0  0  0  0
  -11.9637    1.5945   13.4890 H   0  0  0  0  0  0  0  0  0  0  0  0
   -9.2466    1.9353   12.3820 H   0  0  0  0  0  0  0  0  0  0  0  0
  -10.3610    3.2607   12.6156 H   0  0  0  0  0  0  0  0  0  0  0  0
  -10.6974    2.0379   11.4136 H   0  0  0  0  0  0  0  0  0  0  0  0
  1 33  1  0  0  0  0
  1 34  1  0  0  0  0
  1 35  1  0  0  0  0
  2  1  1  0  0  0  0
  3  2  2  0  0  0  0
  4  2  1  0  0  0  0
  4 36  1  0  0  0  0
  5  4  1  0  0  0  0
  5 37  1  1  0  0  0
  6  9  1  0  0  0  0
  6  5  1  0  0  0  0
  7  6  2  0  0  0  0
  8  5  1  0  0  0  0
  8 38  1  0  0  0  0
  8 39  1  0  0  0  0
  8 40  1  0  0  0  0
  9 41  1  0  0  0  0
 10 11  1  0  0  0  0
 10 13  1  0  0  0  0
 10  9  1  0  0  0  0
 10 42  1  6  0  0  0
 11 17  1  0  0  0  0
 12 11  2  0  0  0  0
 13 43  1  0  0  0  0
 13 44  1  0  0  0  0
 14 13  1  0  0  0  0
 14 15  1  0  0  0  0
 14 45  1  0  0  0  0
 15 46  1  0  0  0  0
 15 47  1  0  0  0  0
 15 48  1  0  0  0  0
 16 14  1  0  0  0  0
 16 49  1  0  0  0  0
 16 50  1  0  0  0  0
 16 51  1  0  0  0  0
 17 18  1  0  0  0  0
 17 52  1  0  0  0  0
 18 21  1  0  0  0  0
 18 53  1  6  0  0  0
 19 26  1  0  0  0  0
 19 18  1  0  0  0  0
 20 19  2  0  0  0  0
 21 22  1  0  0  0  0
 21 54  1  0  0  0  0
 21 55  1  0  0  0  0
 22 23  1  0  0  0  0
 22 56  1  0  0  0  0
 22 57  1  0  0  0  0
 23 24  1  0  0  0  0
 25 23  2  0  0  0  0
 26 58  1  0  0  0  0
 27 30  1  0  0  0  0
 27 26  1  0  0  0  0
 27 59  1  1  0  0  0
 28 27  1  0  0  0  0
 29 28  2  0  0  0  0
 30 60  1  0  0  0  0
 30 61  1  0  0  0  0
 30 62  1  0  0  0  0
 31 28  1  0  0  0  0
 31 63  1  0  0  0  0
 32 31  1  0  0  0  0
 32 64  1  0  0  0  0
 32 65  1  0  0  0  0
 32 66  1  0  0  0  0
M  CHG  1  24  -1
M  END
>  <MODEL>
       0

$$$$
