selected_4mers/ALGA/335_noH.pdb
 OpenBabel03042517593D

 58 57  0  0  1  0  0  0  0  0999 V2000
   71.4520   34.4330   73.6370 C   0  0  0  0  0  0  0  0  0  0  0  0
   72.3530   34.8640   72.4870 C   0  0  0  0  0  0  0  0  0  0  0  0
   73.0710   34.0340   71.9110 O   0  0  0  0  0  0  0  0  0  0  0  0
   72.3120   36.1570   72.1430 N   0  0  0  0  0  0  0  0  0  0  0  0
   73.1850   36.7020   71.0880 C   0  0  2  0  0  0  0  0  0  0  0  0
   73.8730   37.9310   71.6580 C   0  0  0  0  0  0  0  0  0  0  0  0
   73.2610   38.7220   72.3910 O   0  0  0  0  0  0  0  0  0  0  0  0
   72.3750   37.0860   69.8500 C   0  0  0  0  0  0  0  0  0  0  0  0
   75.1480   38.0770   71.3220 N   0  0  0  0  0  0  0  0  0  0  0  0
   75.9380   39.2350   71.7290 C   0  0  2  0  0  0  0  0  0  0  0  0
   76.0210   40.1940   70.5530 C   0  0  0  0  0  0  0  0  0  0  0  0
   76.2970   41.3820   70.7250 O   0  0  0  0  0  0  0  0  0  0  0  0
   77.3410   38.7970   72.1090 C   0  0  0  0  0  0  0  0  0  0  0  0
   77.4400   38.0030   73.4030 C   0  0  0  0  0  0  0  0  0  0  0  0
   78.9210   37.7620   73.7310 C   0  0  0  0  0  0  0  0  0  0  0  0
   76.7430   38.7690   74.5280 C   0  0  0  0  0  0  0  0  0  0  0  0
   75.7780   39.6500   69.3670 N   0  0  0  0  0  0  0  0  0  0  0  0
   75.7800   40.3730   68.1080 C   0  0  0  0  0  0  0  0  0  0  0  0
   75.0970   39.5400   67.0250 C   0  0  0  0  0  0  0  0  0  0  0  0
   75.3490   38.3290   66.9130 O   0  0  0  0  0  0  0  0  0  0  0  0
   74.2390   40.1920   66.2320 N   0  0  0  0  0  0  0  0  0  0  0  0
   73.4670   39.5370   65.1650 C   0  0  2  0  0  0  0  0  0  0  0  0
   74.2820   38.8670   64.0440 C   0  0  0  0  0  0  0  0  0  0  0  0
   75.5110   39.0040   63.9750 O   0  0  0  0  0  0  0  0  0  0  0  0
   72.4430   40.5070   64.5780 C   0  0  0  0  0  0  0  0  0  0  0  0
   73.5800   38.1420   63.1710 N   0  0  0  0  0  0  0  0  0  0  0  0
   74.2040   37.4160   62.0600 C   0  0  0  0  0  0  0  0  0  0  0  0
   71.5757   33.3849   73.8135 H   0  0  0  0  0  0  0  0  0  0  0  0
   70.4317   34.6344   73.3855 H   0  0  0  0  0  0  0  0  0  0  0  0
   71.7157   34.9769   74.5199 H   0  0  0  0  0  0  0  0  0  0  0  0
   71.6841   36.7579   72.6055 H   0  0  0  0  0  0  0  0  0  0  0  0
   73.9000   35.9647   70.7879 H   0  0  0  0  0  0  0  0  0  0  0  0
   71.6475   37.8246   70.1148 H   0  0  0  0  0  0  0  0  0  0  0  0
   71.8796   36.2193   69.4650 H   0  0  0  0  0  0  0  0  0  0  0  0
   73.0309   37.4830   69.1036 H   0  0  0  0  0  0  0  0  0  0  0  0
   75.5775   37.3781   70.7777 H   0  0  0  0  0  0  0  0  0  0  0  0
   75.4785   39.7083   72.5715 H   0  0  0  0  0  0  0  0  0  0  0  0
   77.9460   39.6737   72.2107 H   0  0  0  0  0  0  0  0  0  0  0  0
   77.6699   38.1408   71.3304 H   0  0  0  0  0  0  0  0  0  0  0  0
   76.9548   37.0554   73.2949 H   0  0  0  0  0  0  0  0  0  0  0  0
   79.4193   38.7023   73.8420 H   0  0  0  0  0  0  0  0  0  0  0  0
   79.3767   37.2084   72.9368 H   0  0  0  0  0  0  0  0  0  0  0  0
   78.9987   37.2074   74.6427 H   0  0  0  0  0  0  0  0  0  0  0  0
   77.2123   39.7222   74.6545 H   0  0  0  0  0  0  0  0  0  0  0  0
   76.8169   38.2114   75.4382 H   0  0  0  0  0  0  0  0  0  0  0  0
   75.7120   38.9094   74.2785 H   0  0  0  0  0  0  0  0  0  0  0  0
   75.5821   38.6856   69.3390 H   0  0  0  0  0  0  0  0  0  0  0  0
   75.2535   41.2966   68.2291 H   0  0  0  0  0  0  0  0  0  0  0  0
   76.7911   40.5666   67.8162 H   0  0  0  0  0  0  0  0  0  0  0  0
   74.1182   41.1593   66.3697 H   0  0  0  0  0  0  0  0  0  0  0  0
   72.9805   38.7198   65.6553 H   0  0  0  0  0  0  0  0  0  0  0  0
   72.9526   41.3138   64.0940 H   0  0  0  0  0  0  0  0  0  0  0  0
   71.8273   40.8938   65.3630 H   0  0  0  0  0  0  0  0  0  0  0  0
   71.8319   39.9928   63.8659 H   0  0  0  0  0  0  0  0  0  0  0  0
   72.6025   38.0924   63.2771 H   0  0  0  0  0  0  0  0  0  0  0  0
   75.2626   37.5700   62.0831 H   0  0  0  0  0  0  0  0  0  0  0  0
   73.8112   37.7772   61.1326 H   0  0  0  0  0  0  0  0  0  0  0  0
   73.9934   36.3711   62.1537 H   0  0  0  0  0  0  0  0  0  0  0  0
  1 28  1  0  0  0  0
  1 29  1  0  0  0  0
  1 30  1  0  0  0  0
  2  1  1  0  0  0  0
  3  2  2  0  0  0  0
  4  2  1  0  0  0  0
  4 31  1  0  0  0  0
  5  6  1  0  0  0  0
  5  4  1  0  0  0  0
  5 32  1  6  0  0  0
  6  7  2  0  0  0  0
  8  5  1  0  0  0  0
  8 33  1  0  0  0  0
  8 34  1  0  0  0  0
  8 35  1  0  0  0  0
  9  6  1  0  0  0  0
  9 10  1  0  0  0  0
  9 36  1  0  0  0  0
 10 13  1  0  0  0  0
 10 37  1  1  0  0  0
 11 12  2  0  0  0  0
 11 10  1  0  0  0  0
 13 14  1  0  0  0  0
 13 38  1  0  0  0  0
 13 39  1  0  0  0  0
 14 15  1  0  0  0  0
 14 16  1  0  0  0  0
 14 40  1  0  0  0  0
 15 41  1  0  0  0  0
 15 42  1  0  0  0  0
 15 43  1  0  0  0  0
 16 44  1  0  0  0  0
 16 45  1  0  0  0  0
 16 46  1  0  0  0  0
 17 11  1  0  0  0  0
 17 47  1  0  0  0  0
 18 17  1  0  0  0  0
 18 48  1  0  0  0  0
 18 49  1  0  0  0  0
 19 18  1  0  0  0  0
 20 19  2  0  0  0  0
 21 19  1  0  0  0  0
 21 50  1  0  0  0  0
 22 21  1  0  0  0  0
 22 51  1  1  0  0  0
 23 22  1  0  0  0  0
 24 23  2  0  0  0  0
 25 22  1  0  0  0  0
 25 52  1  0  0  0  0
 25 53  1  0  0  0  0
 25 54  1  0  0  0  0
 26 23  1  0  0  0  0
 26 55  1  0  0  0  0
 27 26  1  0  0  0  0
 27 56  1  0  0  0  0
 27 57  1  0  0  0  0
 27 58  1  0  0  0  0
M  END
>  <MODEL>
       0

$$$$
selected_4mers/ALGA/336_noH.pdb
 OpenBabel03042517593D

 58 57  0  0  1  0  0  0  0  0999 V2000
   49.0740   27.7200   73.6730 C   0  0  0  0  0  0  0  0  0  0  0  0
   49.1820   26.3680   72.9860 C   0  0  0  0  0  0  0  0  0  0  0  0
   50.0500   25.5580   73.2880 O   0  0  0  0  0  0  0  0  0  0  0  0
   48.2760   26.1560   72.0510 N   0  0  0  0  0  0  0  0  0  0  0  0
   48.1870   24.9420   71.2930 C   0  0  2  0  0  0  0  0  0  0  0  0
   48.9100   25.2370   69.9840 C   0  0  0  0  0  0  0  0  0  0  0  0
   48.4340   26.0470   69.1610 O   0  0  0  0  0  0  0  0  0  0  0  0
   46.7530   24.6300   71.0300 C   0  0  0  0  0  0  0  0  0  0  0  0
   50.0540   24.6030   69.8010 N   0  0  0  0  0  0  0  0  0  0  0  0
   50.9160   24.8280   68.6230 C   0  0  2  0  0  0  0  0  0  0  0  0
   50.5670   23.7540   67.6040 C   0  0  0  0  0  0  0  0  0  0  0  0
   50.9620   22.6040   67.7430 O   0  0  0  0  0  0  0  0  0  0  0  0
   52.3640   24.6880   69.0390 C   0  0  0  0  0  0  0  0  0  0  0  0
   52.8720   25.6990   70.0830 C   0  0  0  0  0  0  0  0  0  0  0  0
   54.2200   25.3230   70.5920 C   0  0  0  0  0  0  0  0  0  0  0  0
   52.8980   27.0990   69.5210 C   0  0  0  0  0  0  0  0  0  0  0  0
   49.7640   24.1320   66.6300 N   0  0  0  0  0  0  0  0  0  0  0  0
   49.4400   23.2770   65.5120 C   0  0  0  0  0  0  0  0  0  0  0  0
   48.1190   22.5680   65.6770 C   0  0  0  0  0  0  0  0  0  0  0  0
   47.4410   22.6590   66.7170 O   0  0  0  0  0  0  0  0  0  0  0  0
   47.7400   21.8800   64.5960 N   0  0  0  0  0  0  0  0  0  0  0  0
   46.4170   21.3090   64.4570 C   0  0  2  0  0  0  0  0  0  0  0  0
   46.2000   20.1390   65.4190 C   0  0  0  0  0  0  0  0  0  0  0  0
   45.1230   20.0230   65.9830 O   0  0  0  0  0  0  0  0  0  0  0  0
   46.1450   20.8770   62.9850 C   0  0  0  0  0  0  0  0  0  0  0  0
   47.2100   19.3130   65.6480 N   0  0  0  0  0  0  0  0  0  0  0  0
   47.0600   18.2020   66.5790 C   0  0  0  0  0  0  0  0  0  0  0  0
   48.2521   28.2658   73.2590 H   0  0  0  0  0  0  0  0  0  0  0  0
   49.9794   28.2699   73.5224 H   0  0  0  0  0  0  0  0  0  0  0  0
   48.9145   27.5757   74.7212 H   0  0  0  0  0  0  0  0  0  0  0  0
   47.6252   26.8705   71.8633 H   0  0  0  0  0  0  0  0  0  0  0  0
   48.6156   24.1049   71.8034 H   0  0  0  0  0  0  0  0  0  0  0  0
   46.2971   25.4520   70.5188 H   0  0  0  0  0  0  0  0  0  0  0  0
   46.2482   24.4632   71.9586 H   0  0  0  0  0  0  0  0  0  0  0  0
   46.6846   23.7509   70.4239 H   0  0  0  0  0  0  0  0  0  0  0  0
   50.3450   23.9518   70.4796 H   0  0  0  0  0  0  0  0  0  0  0  0
   50.7683   25.8039   68.2098 H   0  0  0  0  0  0  0  0  0  0  0  0
   52.9674   24.7936   68.1617 H   0  0  0  0  0  0  0  0  0  0  0  0
   52.4353   23.7298   69.5099 H   0  0  0  0  0  0  0  0  0  0  0  0
   52.1859   25.6774   70.9038 H   0  0  0  0  0  0  0  0  0  0  0  0
   54.9229   25.3384   69.7854 H   0  0  0  0  0  0  0  0  0  0  0  0
   54.1810   24.3398   71.0124 H   0  0  0  0  0  0  0  0  0  0  0  0
   54.5247   26.0206   71.3439 H   0  0  0  0  0  0  0  0  0  0  0  0
   53.5800   27.1402   68.6976 H   0  0  0  0  0  0  0  0  0  0  0  0
   53.2146   27.7826   70.2809 H   0  0  0  0  0  0  0  0  0  0  0  0
   51.9178   27.3671   69.1860 H   0  0  0  0  0  0  0  0  0  0  0  0
   49.3692   25.0332   66.6658 H   0  0  0  0  0  0  0  0  0  0  0  0
   49.3977   23.8754   64.6260 H   0  0  0  0  0  0  0  0  0  0  0  0
   50.2008   22.5271   65.4510 H   0  0  0  0  0  0  0  0  0  0  0  0
   48.3869   21.7564   63.8642 H   0  0  0  0  0  0  0  0  0  0  0  0
   45.7130   22.0719   64.7163 H   0  0  0  0  0  0  0  0  0  0  0  0
   46.8391   20.1129   62.7035 H   0  0  0  0  0  0  0  0  0  0  0  0
   46.2621   21.7212   62.3381 H   0  0  0  0  0  0  0  0  0  0  0  0
   45.1469   20.5002   62.9025 H   0  0  0  0  0  0  0  0  0  0  0  0
   48.0683   19.4507   65.1858 H   0  0  0  0  0  0  0  0  0  0  0  0
   46.0696   18.2072   66.9839 H   0  0  0  0  0  0  0  0  0  0  0  0
   47.7704   18.3034   67.3727 H   0  0  0  0  0  0  0  0  0  0  0  0
   47.2299   17.2796   66.0639 H   0  0  0  0  0  0  0  0  0  0  0  0
  1 28  1  0  0  0  0
  1 29  1  0  0  0  0
  1 30  1  0  0  0  0
  2  3  2  0  0  0  0
  2  1  1  0  0  0  0
  4  2  1  0  0  0  0
  4 31  1  0  0  0  0
  5  4  1  0  0  0  0
  5 32  1  1  0  0  0
  6  5  1  0  0  0  0
  7  6  2  0  0  0  0
  8  5  1  0  0  0  0
  8 33  1  0  0  0  0
  8 34  1  0  0  0  0
  8 35  1  0  0  0  0
  9  6  1  0  0  0  0
  9 36  1  0  0  0  0
 10 13  1  0  0  0  0
 10  9  1  0  0  0  0
 10 37  1  6  0  0  0
 11 12  2  0  0  0  0
 11 10  1  0  0  0  0
 13 14  1  0  0  0  0
 13 38  1  0  0  0  0
 13 39  1  0  0  0  0
 14 15  1  0  0  0  0
 14 40  1  0  0  0  0
 15 41  1  0  0  0  0
 15 42  1  0  0  0  0
 15 43  1  0  0  0  0
 16 14  1  0  0  0  0
 16 44  1  0  0  0  0
 16 45  1  0  0  0  0
 16 46  1  0  0  0  0
 17 11  1  0  0  0  0
 17 47  1  0  0  0  0
 18 19  1  0  0  0  0
 18 17  1  0  0  0  0
 18 48  1  0  0  0  0
 18 49  1  0  0  0  0
 19 20  2  0  0  0  0
 21 19  1  0  0  0  0
 21 50  1  0  0  0  0
 22 21  1  0  0  0  0
 22 23  1  0  0  0  0
 22 51  1  1  0  0  0
 23 26  1  0  0  0  0
 23 24  2  0  0  0  0
 25 22  1  0  0  0  0
 25 52  1  0  0  0  0
 25 53  1  0  0  0  0
 25 54  1  0  0  0  0
 26 27  1  0  0  0  0
 26 55  1  0  0  0  0
 27 56  1  0  0  0  0
 27 57  1  0  0  0  0
 27 58  1  0  0  0  0
M  END
>  <MODEL>
       0

$$$$
selected_4mers/ALGA/337_noH.pdb
 OpenBabel03042517593D

 58 57  0  0  1  0  0  0  0  0999 V2000
   33.2340   48.7910  164.4110 C   0  0  0  0  0  0  0  0  0  0  0  0
   32.3980   50.0540  164.1670 C   0  0  0  0  0  0  0  0  0  0  0  0
   31.1540   50.0010  164.1120 O   0  0  0  0  0  0  0  0  0  0  0  0
   33.0730   51.1910  164.0310 N   0  0  0  0  0  0  0  0  0  0  0  0
   32.4020   52.4640  163.7910 C   0  0  2  0  0  0  0  0  0  0  0  0
   31.7350   52.4910  162.4180 C   0  0  0  0  0  0  0  0  0  0  0  0
   30.9050   53.3600  162.1390 O   0  0  0  0  0  0  0  0  0  0  0  0
   33.3950   53.6120  163.9220 C   0  0  0  0  0  0  0  0  0  0  0  0
   32.1080   51.5480  161.5540 N   0  0  0  0  0  0  0  0  0  0  0  0
   31.5100   51.4620  160.2210 C   0  0  2  0  0  0  0  0  0  0  0  0
   30.3920   50.4350  160.2100 C   0  0  0  0  0  0  0  0  0  0  0  0
   29.7550   50.2050  159.1780 O   0  0  0  0  0  0  0  0  0  0  0  0
   32.5660   51.0800  159.1750 C   0  0  0  0  0  0  0  0  0  0  0  0
   33.6380   52.1350  158.9160 C   0  0  0  0  0  0  0  0  0  0  0  0
   34.7000   51.5470  157.9860 C   0  0  0  0  0  0  0  0  0  0  0  0
   33.0070   53.3810  158.2970 C   0  0  0  0  0  0  0  0  0  0  0  0
   30.1620   49.8030  161.3610 N   0  0  0  0  0  0  0  0  0  0  0  0
   29.0940   48.8330  161.4610 C   0  0  0  0  0  0  0  0  0  0  0  0
   29.4950   47.3840  161.5900 C   0  0  0  0  0  0  0  0  0  0  0  0
   28.6330   46.5030  161.6540 O   0  0  0  0  0  0  0  0  0  0  0  0
   30.7960   47.1100  161.6400 N   0  0  0  0  0  0  0  0  0  0  0  0
   31.2320   45.7230  161.7360 C   0  0  2  0  0  0  0  0  0  0  0  0
   30.9700   45.1170  163.1070 C   0  0  0  0  0  0  0  0  0  0  0  0
   30.9610   45.8240  164.1210 O   0  0  0  0  0  0  0  0  0  0  0  0
   32.7310   45.6210  161.4040 C   0  0  0  0  0  0  0  0  0  0  0  0
   30.7310   43.8100  163.1160 N   0  0  0  0  0  0  0  0  0  0  0  0
   30.5290   43.0650  164.3520 C   0  0  0  0  0  0  0  0  0  0  0  0
   34.2727   49.0476  164.4231 H   0  0  0  0  0  0  0  0  0  0  0  0
   33.0501   48.0849  163.6284 H   0  0  0  0  0  0  0  0  0  0  0  0
   32.9622   48.3596  165.3517 H   0  0  0  0  0  0  0  0  0  0  0  0
   34.0553   51.1735  164.0941 H   0  0  0  0  0  0  0  0  0  0  0  0
   31.6352   52.5792  164.5283 H   0  0  0  0  0  0  0  0  0  0  0  0
   34.1651   53.5031  163.1872 H   0  0  0  0  0  0  0  0  0  0  0  0
   33.8301   53.5975  164.8995 H   0  0  0  0  0  0  0  0  0  0  0  0
   32.8872   54.5417  163.7714 H   0  0  0  0  0  0  0  0  0  0  0  0
   32.7984   50.8972  161.8170 H   0  0  0  0  0  0  0  0  0  0  0  0
   31.1103   52.4235  159.9747 H   0  0  0  0  0  0  0  0  0  0  0  0
   33.0537   50.1878  159.5081 H   0  0  0  0  0  0  0  0  0  0  0  0
   32.0386   50.9607  158.2516 H   0  0  0  0  0  0  0  0  0  0  0  0
   34.0985   52.4196  159.8389 H   0  0  0  0  0  0  0  0  0  0  0  0
   34.2449   51.2605  157.0610 H   0  0  0  0  0  0  0  0  0  0  0  0
   35.1420   50.6885  158.4470 H   0  0  0  0  0  0  0  0  0  0  0  0
   35.4562   52.2806  157.7993 H   0  0  0  0  0  0  0  0  0  0  0  0
   32.5390   53.1210  157.3706 H   0  0  0  0  0  0  0  0  0  0  0  0
   33.7656   54.1145  158.1199 H   0  0  0  0  0  0  0  0  0  0  0  0
   32.2745   53.7802  158.9670 H   0  0  0  0  0  0  0  0  0  0  0  0
   30.7220   49.9976  162.1470 H   0  0  0  0  0  0  0  0  0  0  0  0
   28.4916   48.9242  160.5814 H   0  0  0  0  0  0  0  0  0  0  0  0
   28.5923   49.0653  162.3771 H   0  0  0  0  0  0  0  0  0  0  0  0
   31.4582   47.8380  161.6124 H   0  0  0  0  0  0  0  0  0  0  0  0
   30.6565   45.1652  161.0271 H   0  0  0  0  0  0  0  0  0  0  0  0
   33.2939   46.1827  162.1199 H   0  0  0  0  0  0  0  0  0  0  0  0
   32.9069   46.0138  160.4244 H   0  0  0  0  0  0  0  0  0  0  0  0
   33.0346   44.5955  161.4368 H   0  0  0  0  0  0  0  0  0  0  0  0
   30.6889   43.3285  162.2583 H   0  0  0  0  0  0  0  0  0  0  0  0
   30.6059   43.7306  165.1863 H   0  0  0  0  0  0  0  0  0  0  0  0
   31.2747   42.3021  164.4345 H   0  0  0  0  0  0  0  0  0  0  0  0
   29.5581   42.6153  164.3428 H   0  0  0  0  0  0  0  0  0  0  0  0
  1 28  1  0  0  0  0
  1 29  1  0  0  0  0
  1 30  1  0  0  0  0
  2  1  1  0  0  0  0
  3  2  2  0  0  0  0
  4  2  1  0  0  0  0
  4 31  1  0  0  0  0
  5  8  1  0  0  0  0
  5  4  1  0  0  0  0
  5 32  1  1  0  0  0
  6  5  1  0  0  0  0
  7  6  2  0  0  0  0
  8 33  1  0  0  0  0
  8 34  1  0  0  0  0
  8 35  1  0  0  0  0
  9  6  1  0  0  0  0
  9 36  1  0  0  0  0
 10  9  1  0  0  0  0
 10 37  1  6  0  0  0
 11 10  1  0  0  0  0
 11 17  1  0  0  0  0
 12 11  2  0  0  0  0
 13 10  1  0  0  0  0
 13 38  1  0  0  0  0
 13 39  1  0  0  0  0
 14 13  1  0  0  0  0
 14 40  1  0  0  0  0
 15 14  1  0  0  0  0
 15 41  1  0  0  0  0
 15 42  1  0  0  0  0
 15 43  1  0  0  0  0
 16 14  1  0  0  0  0
 16 44  1  0  0  0  0
 16 45  1  0  0  0  0
 16 46  1  0  0  0  0
 17 18  1  0  0  0  0
 17 47  1  0  0  0  0
 18 19  1  0  0  0  0
 18 48  1  0  0  0  0
 18 49  1  0  0  0  0
 19 21  1  0  0  0  0
 19 20  2  0  0  0  0
 21 22  1  0  0  0  0
 21 50  1  0  0  0  0
 22 23  1  0  0  0  0
 22 51  1  6  0  0  0
 23 26  1  0  0  0  0
 23 24  2  0  0  0  0
 25 22  1  0  0  0  0
 25 52  1  0  0  0  0
 25 53  1  0  0  0  0
 25 54  1  0  0  0  0
 26 27  1  0  0  0  0
 26 55  1  0  0  0  0
 27 56  1  0  0  0  0
 27 57  1  0  0  0  0
 27 58  1  0  0  0  0
M  END
>  <MODEL>
       0

$$$$
selected_4mers/ALGA/338_noH.pdb
 OpenBabel03042517593D

 58 57  0  0  1  0  0  0  0  0999 V2000
  -10.6360    5.2170   19.9560 C   0  0  0  0  0  0  0  0  0  0  0  0
  -10.7650    5.5850   18.4810 C   0  0  0  0  0  0  0  0  0  0  0  0
  -11.8490    5.4770   17.8970 O   0  0  0  0  0  0  0  0  0  0  0  0
   -9.6490    5.9890   17.8590 N   0  0  0  0  0  0  0  0  0  0  0  0
   -9.6950    6.3170   16.4300 C   0  0  2  0  0  0  0  0  0  0  0  0
  -10.0020    5.0620   15.6120 C   0  0  0  0  0  0  0  0  0  0  0  0
  -10.8520    5.1180   14.6840 O   0  0  0  0  0  0  0  0  0  0  0  0
   -8.4080    6.9470   16.0110 C   0  0  0  0  0  0  0  0  0  0  0  0
   -9.3810    3.9190   15.9340 N   0  0  0  0  0  0  0  0  0  0  0  0
   -9.6550    2.7260   15.1650 C   0  0  2  0  0  0  0  0  0  0  0  0
  -11.0970    2.2550   15.3560 C   0  0  0  0  0  0  0  0  0  0  0  0
  -11.7360    1.8480   14.3770 O   0  0  0  0  0  0  0  0  0  0  0  0
   -8.6540    1.6200   15.5990 C   0  0  0  0  0  0  0  0  0  0  0  0
   -8.8270    0.3070   14.8210 C   0  0  0  0  0  0  0  0  0  0  0  0
   -8.6250    0.4800   13.3290 C   0  0  0  0  0  0  0  0  0  0  0  0
   -7.8030   -0.6930   15.3390 C   0  0  0  0  0  0  0  0  0  0  0  0
  -11.6310    2.3090   16.5760 N   0  0  0  0  0  0  0  0  0  0  0  0
  -13.0160    1.8780   16.7750 C   0  0  0  0  0  0  0  0  0  0  0  0
  -13.9900    2.7310   15.9580 C   0  0  0  0  0  0  0  0  0  0  0  0
  -14.9420    2.2240   15.3840 O   0  0  0  0  0  0  0  0  0  0  0  0
  -13.7490    4.0460   15.8910 N   0  0  0  0  0  0  0  0  0  0  0  0
  -14.6410    4.9450   15.1230 C   0  0  2  0  0  0  0  0  0  0  0  0
  -14.5870    4.5310   13.6310 C   0  0  0  0  0  0  0  0  0  0  0  0
  -15.5970    4.5510   12.9460 O   0  0  0  0  0  0  0  0  0  0  0  0
  -14.2220    6.4090   15.3430 C   0  0  0  0  0  0  0  0  0  0  0  0
  -13.3800    4.1610   13.1460 N   0  0  0  0  0  0  0  0  0  0  0  0
  -13.2280    3.6920   11.7570 C   0  0  0  0  0  0  0  0  0  0  0  0
   -9.6280    5.3777   20.2768 H   0  0  0  0  0  0  0  0  0  0  0  0
  -10.8933    4.1871   20.0905 H   0  0  0  0  0  0  0  0  0  0  0  0
  -11.2963    5.8281   20.5351 H   0  0  0  0  0  0  0  0  0  0  0  0
   -8.8037    6.0652   18.3579 H   0  0  0  0  0  0  0  0  0  0  0  0
  -10.4796    7.0220   16.2503 H   0  0  0  0  0  0  0  0  0  0  0  0
   -7.6038    6.2618   16.1802 H   0  0  0  0  0  0  0  0  0  0  0  0
   -8.2442    7.8372   16.5817 H   0  0  0  0  0  0  0  0  0  0  0  0
   -8.4536    7.1936   14.9708 H   0  0  0  0  0  0  0  0  0  0  0  0
   -8.7456    3.8921   16.6855 H   0  0  0  0  0  0  0  0  0  0  0  0
   -9.5335    2.9424   14.1242 H   0  0  0  0  0  0  0  0  0  0  0  0
   -7.6592    1.9806   15.4403 H   0  0  0  0  0  0  0  0  0  0  0  0
   -8.8447    1.4058   16.6299 H   0  0  0  0  0  0  0  0  0  0  0  0
   -9.8301   -0.0337   14.9713 H   0  0  0  0  0  0  0  0  0  0  0  0
   -7.6284    0.8212   13.1412 H   0  0  0  0  0  0  0  0  0  0  0  0
   -9.3244    1.1985   12.9553 H   0  0  0  0  0  0  0  0  0  0  0  0
   -8.7796   -0.4575   12.8371 H   0  0  0  0  0  0  0  0  0  0  0  0
   -6.8169   -0.3140   15.1693 H   0  0  0  0  0  0  0  0  0  0  0  0
   -7.9210   -1.6235   14.8240 H   0  0  0  0  0  0  0  0  0  0  0  0
   -7.9513   -0.8445   16.3878 H   0  0  0  0  0  0  0  0  0  0  0  0
  -11.0986    2.6359   17.3369 H   0  0  0  0  0  0  0  0  0  0  0  0
  -13.1095    0.8562   16.4717 H   0  0  0  0  0  0  0  0  0  0  0  0
  -13.2578    1.9905   17.8112 H   0  0  0  0  0  0  0  0  0  0  0  0
  -12.9680    4.4208   16.3587 H   0  0  0  0  0  0  0  0  0  0  0  0
  -15.6534    4.8589   15.4586 H   0  0  0  0  0  0  0  0  0  0  0  0
  -13.2108    6.5430   15.0198 H   0  0  0  0  0  0  0  0  0  0  0  0
  -14.2990    6.6496   16.3827 H   0  0  0  0  0  0  0  0  0  0  0  0
  -14.8648    7.0525   14.7794 H   0  0  0  0  0  0  0  0  0  0  0  0
  -12.5893    4.2057   13.7308 H   0  0  0  0  0  0  0  0  0  0  0  0
  -14.1802    3.7070   11.2693 H   0  0  0  0  0  0  0  0  0  0  0  0
  -12.8434    2.6935   11.7578 H   0  0  0  0  0  0  0  0  0  0  0  0
  -12.5500    4.3350   11.2356 H   0  0  0  0  0  0  0  0  0  0  0  0
  1 28  1  0  0  0  0
  1 29  1  0  0  0  0
  1 30  1  0  0  0  0
  2  1  1  0  0  0  0
  3  2  2  0  0  0  0
  4  2  1  0  0  0  0
  4 31  1  0  0  0  0
  5  4  1  0  0  0  0
  5 32  1  6  0  0  0
  6  9  1  0  0  0  0
  6  5  1  0  0  0  0
  7  6  2  0  0  0  0
  8  5  1  0  0  0  0
  8 33  1  0  0  0  0
  8 34  1  0  0  0  0
  8 35  1  0  0  0  0
  9 36  1  0  0  0  0
 10 11  1  0  0  0  0
 10 13  1  0  0  0  0
 10  9  1  0  0  0  0
 10 37  1  6  0  0  0
 11 17  1  0  0  0  0
 12 11  2  0  0  0  0
 13 38  1  0  0  0  0
 13 39  1  0  0  0  0
 14 16  1  0  0  0  0
 14 13  1  0  0  0  0
 14 40  1  0  0  0  0
 15 14  1  0  0  0  0
 15 41  1  0  0  0  0
 15 42  1  0  0  0  0
 15 43  1  0  0  0  0
 16 44  1  0  0  0  0
 16 45  1  0  0  0  0
 16 46  1  0  0  0  0
 17 18  1  0  0  0  0
 17 47  1  0  0  0  0
 18 48  1  0  0  0  0
 18 49  1  0  0  0  0
 19 18  1  0  0  0  0
 20 19  2  0  0  0  0
 21 19  1  0  0  0  0
 21 50  1  0  0  0  0
 22 25  1  0  0  0  0
 22 21  1  0  0  0  0
 22 51  1  1  0  0  0
 23 22  1  0  0  0  0
 24 23  2  0  0  0  0
 25 52  1  0  0  0  0
 25 53  1  0  0  0  0
 25 54  1  0  0  0  0
 26 23  1  0  0  0  0
 26 55  1  0  0  0  0
 27 26  1  0  0  0  0
 27 56  1  0  0  0  0
 27 57  1  0  0  0  0
 27 58  1  0  0  0  0
M  END
>  <MODEL>
       0

$$$$
selected_4mers/ALGA/339_noH.pdb
 OpenBabel03042517593D

 58 57  0  0  1  0  0  0  0  0999 V2000
   34.2460   71.1210   40.9970 C   0  0  0  0  0  0  0  0  0  0  0  0
   33.7910   70.6170   42.3650 C   0  0  0  0  0  0  0  0  0  0  0  0
   33.6830   69.4350   42.6270 O   0  0  0  0  0  0  0  0  0  0  0  0
   33.5040   71.5810   43.2700 N   0  0  0  0  0  0  0  0  0  0  0  0
   33.0550   71.2140   44.5970 C   0  0  2  0  0  0  0  0  0  0  0  0
   31.7330   70.4480   44.5360 C   0  0  0  0  0  0  0  0  0  0  0  0
   31.5210   69.5960   45.4150 O   0  0  0  0  0  0  0  0  0  0  0  0
   32.8780   72.4210   45.5120 C   0  0  0  0  0  0  0  0  0  0  0  0
   30.9150   70.6540   43.5440 N   0  0  0  0  0  0  0  0  0  0  0  0
   29.6500   69.9580   43.3950 C   0  0  2  0  0  0  0  0  0  0  0  0
   29.7860   68.5980   42.7590 C   0  0  0  0  0  0  0  0  0  0  0  0
   28.8130   67.8300   42.6210 O   0  0  0  0  0  0  0  0  0  0  0  0
   28.6810   70.8500   42.6370 C   0  0  0  0  0  0  0  0  0  0  0  0
   28.3080   72.1700   43.3340 C   0  0  0  0  0  0  0  0  0  0  0  0
   27.4600   73.0000   42.4250 C   0  0  0  0  0  0  0  0  0  0  0  0
   27.6430   71.9010   44.6670 C   0  0  0  0  0  0  0  0  0  0  0  0
   30.9790   68.1950   42.3630 N   0  0  0  0  0  0  0  0  0  0  0  0
   31.3250   66.9410   41.7950 C   0  0  0  0  0  0  0  0  0  0  0  0
   31.0920   66.8540   40.2970 C   0  0  0  0  0  0  0  0  0  0  0  0
   30.9730   65.7450   39.7750 O   0  0  0  0  0  0  0  0  0  0  0  0
   31.1020   67.9780   39.6010 N   0  0  0  0  0  0  0  0  0  0  0  0
   30.8440   68.0300   38.1710 C   0  0  2  0  0  0  0  0  0  0  0  0
   32.0450   67.6060   37.3620 C   0  0  0  0  0  0  0  0  0  0  0  0
   33.1530   68.0930   37.5780 O   0  0  0  0  0  0  0  0  0  0  0  0
   30.3860   69.4190   37.7470 C   0  0  0  0  0  0  0  0  0  0  0  0
   31.8460   66.7050   36.4190 N   0  0  0  0  0  0  0  0  0  0  0  0
   32.8970   66.2560   35.5320 C   0  0  0  0  0  0  0  0  0  0  0  0
   34.4469   70.2865   40.3582 H   0  0  0  0  0  0  0  0  0  0  0  0
   35.1349   71.7059   41.1099 H   0  0  0  0  0  0  0  0  0  0  0  0
   33.4750   71.7238   40.5645 H   0  0  0  0  0  0  0  0  0  0  0  0
   33.6002   72.5301   43.0268 H   0  0  0  0  0  0  0  0  0  0  0  0
   33.8232   70.5908   45.0050 H   0  0  0  0  0  0  0  0  0  0  0  0
   32.1123   73.0570   45.1194 H   0  0  0  0  0  0  0  0  0  0  0  0
   33.7984   72.9638   45.5684 H   0  0  0  0  0  0  0  0  0  0  0  0
   32.5991   72.0891   46.4903 H   0  0  0  0  0  0  0  0  0  0  0  0
   31.1675   71.3156   42.8601 H   0  0  0  0  0  0  0  0  0  0  0  0
   29.2626   69.7615   44.3729 H   0  0  0  0  0  0  0  0  0  0  0  0
   29.1241   71.0900   41.6931 H   0  0  0  0  0  0  0  0  0  0  0  0
   27.7707   70.2931   42.5587 H   0  0  0  0  0  0  0  0  0  0  0  0
   29.1963   72.7284   43.5439 H   0  0  0  0  0  0  0  0  0  0  0  0
   26.5599   72.4696   42.1939 H   0  0  0  0  0  0  0  0  0  0  0  0
   27.9970   73.2017   41.5218 H   0  0  0  0  0  0  0  0  0  0  0  0
   27.2161   73.9228   42.9086 H   0  0  0  0  0  0  0  0  0  0  0  0
   26.7443   71.3417   44.5108 H   0  0  0  0  0  0  0  0  0  0  0  0
   27.4068   72.8304   45.1417 H   0  0  0  0  0  0  0  0  0  0  0  0
   28.3079   71.3408   45.2907 H   0  0  0  0  0  0  0  0  0  0  0  0
   31.7148   68.8395   42.4747 H   0  0  0  0  0  0  0  0  0  0  0  0
   32.3625   66.7608   41.9848 H   0  0  0  0  0  0  0  0  0  0  0  0
   30.6890   66.2102   42.2493 H   0  0  0  0  0  0  0  0  0  0  0  0
   31.2933   68.8202   40.0736 H   0  0  0  0  0  0  0  0  0  0  0  0
   30.0566   67.3330   37.9733 H   0  0  0  0  0  0  0  0  0  0  0  0
   31.1657   70.1260   37.9399 H   0  0  0  0  0  0  0  0  0  0  0  0
   29.5124   69.6913   38.3017 H   0  0  0  0  0  0  0  0  0  0  0  0
   30.1581   69.4157   36.7016 H   0  0  0  0  0  0  0  0  0  0  0  0
   30.9449   66.3224   36.3146 H   0  0  0  0  0  0  0  0  0  0  0  0
   33.8079   66.7630   35.7730 H   0  0  0  0  0  0  0  0  0  0  0  0
   32.6258   66.4717   34.5197 H   0  0  0  0  0  0  0  0  0  0  0  0
   33.0347   65.2012   35.6473 H   0  0  0  0  0  0  0  0  0  0  0  0
  1  2  1  0  0  0  0
  1 28  1  0  0  0  0
  1 29  1  0  0  0  0
  1 30  1  0  0  0  0
  2  3  2  0  0  0  0
  2  4  1  0  0  0  0
  4  5  1  0  0  0  0
  4 31  1  0  0  0  0
  5  8  1  0  0  0  0
  5 32  1  1  0  0  0
  6  5  1  0  0  0  0
  6  7  2  0  0  0  0
  8 33  1  0  0  0  0
  8 34  1  0  0  0  0
  8 35  1  0  0  0  0
  9  6  1  0  0  0  0
  9 36  1  0  0  0  0
 10  9  1  0  0  0  0
 10 37  1  1  0  0  0
 11 10  1  0  0  0  0
 12 11  2  0  0  0  0
 13 14  1  0  0  0  0
 13 10  1  0  0  0  0
 13 38  1  0  0  0  0
 13 39  1  0  0  0  0
 14 16  1  0  0  0  0
 14 40  1  0  0  0  0
 15 14  1  0  0  0  0
 15 41  1  0  0  0  0
 15 42  1  0  0  0  0
 15 43  1  0  0  0  0
 16 44  1  0  0  0  0
 16 45  1  0  0  0  0
 16 46  1  0  0  0  0
 17 11  1  0  0  0  0
 17 47  1  0  0  0  0
 18 17  1  0  0  0  0
 18 48  1  0  0  0  0
 18 49  1  0  0  0  0
 19 18  1  0  0  0  0
 20 19  2  0  0  0  0
 21 19  1  0  0  0  0
 21 50  1  0  0  0  0
 22 21  1  0  0  0  0
 22 51  1  6  0  0  0
 23 24  2  0  0  0  0
 23 22  1  0  0  0  0
 25 22  1  0  0  0  0
 25 52  1  0  0  0  0
 25 53  1  0  0  0  0
 25 54  1  0  0  0  0
 26 23  1  0  0  0  0
 26 55  1  0  0  0  0
 27 26  1  0  0  0  0
 27 56  1  0  0  0  0
 27 57  1  0  0  0  0
 27 58  1  0  0  0  0
M  END
>  <MODEL>
       0

$$$$
