selected_4mers/ALGL/325_noH.pdb
 OpenBabel03042517593D

 67 66  0  0  1  0  0  0  0  0999 V2000
    7.3020   33.0390   11.7690 C   0  0  0  0  0  0  0  0  0  0  0  0
    8.3270   34.0760   11.3930 C   0  0  0  0  0  0  0  0  0  0  0  0
    8.0090   35.0720   10.7450 O   0  0  0  0  0  0  0  0  0  0  0  0
    9.5620   33.8430   11.8040 N   0  0  0  0  0  0  0  0  0  0  0  0
   10.6410   34.8030   11.6000 C   0  0  2  0  0  0  0  0  0  0  0  0
   10.9180   34.9890   10.1180 C   0  0  0  0  0  0  0  0  0  0  0  0
   11.2990   36.0810    9.6970 O   0  0  0  0  0  0  0  0  0  0  0  0
   11.8860   34.3460   12.3180 C   0  0  0  0  0  0  0  0  0  0  0  0
   10.6710   33.9440    9.3310 N   0  0  0  0  0  0  0  0  0  0  0  0
   10.8700   33.9750    7.8870 C   0  0  2  0  0  0  0  0  0  0  0  0
    9.6480   34.4170    7.0710 C   0  0  0  0  0  0  0  0  0  0  0  0
    9.7330   34.5390    5.8580 O   0  0  0  0  0  0  0  0  0  0  0  0
   11.2980   32.5990    7.3880 C   0  0  0  0  0  0  0  0  0  0  0  0
   12.6660   32.0810    7.8100 C   0  0  0  0  0  0  0  0  0  0  0  0
   12.9100   30.7200    7.1480 C   0  0  0  0  0  0  0  0  0  0  0  0
   13.7560   33.0850    7.4600 C   0  0  0  0  0  0  0  0  0  0  0  0
    8.5040   34.6090    7.7210 N   0  0  0  0  0  0  0  0  0  0  0  0
    7.2880   35.0290    7.0170 C   0  0  0  0  0  0  0  0  0  0  0  0
    6.8300   34.0590    5.9460 C   0  0  0  0  0  0  0  0  0  0  0  0
    6.2890   34.4520    4.9080 O   0  0  0  0  0  0  0  0  0  0  0  0
    7.0440   32.7700    6.1950 N   0  0  0  0  0  0  0  0  0  0  0  0
    6.6010   31.7460    5.2590 C   0  0  2  0  0  0  0  0  0  0  0  0
    5.0990   31.7690    4.9640 C   0  0  0  0  0  0  0  0  0  0  0  0
    4.6670   31.2680    3.9390 O   0  0  0  0  0  0  0  0  0  0  0  0
    7.0730   30.3730    5.7140 C   0  0  0  0  0  0  0  0  0  0  0  0
    8.5940   30.2580    5.6410 C   0  0  0  0  0  0  0  0  0  0  0  0
    9.0130   28.8760    6.0880 C   0  0  0  0  0  0  0  0  0  0  0  0
    9.0990   30.5100    4.2210 C   0  0  0  0  0  0  0  0  0  0  0  0
    4.3140   32.3300    5.8800 N   0  0  0  0  0  0  0  0  0  0  0  0
    2.8960   32.5370    5.6390 C   0  0  0  0  0  0  0  0  0  0  0  0
    6.3452   33.3283   11.3872 H   0  0  0  0  0  0  0  0  0  0  0  0
    7.2510   32.9579   12.8347 H   0  0  0  0  0  0  0  0  0  0  0  0
    7.5814   32.0939   11.3523 H   0  0  0  0  0  0  0  0  0  0  0  0
    9.7595   32.9944   12.2624 H   0  0  0  0  0  0  0  0  0  0  0  0
   10.3394   35.7465   12.0046 H   0  0  0  0  0  0  0  0  0  0  0  0
   12.1994   33.4022   11.9231 H   0  0  0  0  0  0  0  0  0  0  0  0
   11.6782   34.2442   13.3627 H   0  0  0  0  0  0  0  0  0  0  0  0
   12.6637   35.0673   12.1777 H   0  0  0  0  0  0  0  0  0  0  0  0
   10.3392   33.1134    9.7424 H   0  0  0  0  0  0  0  0  0  0  0  0
   11.6285   34.7141    7.7342 H   0  0  0  0  0  0  0  0  0  0  0  0
   10.5703   31.8945    7.7332 H   0  0  0  0  0  0  0  0  0  0  0  0
   11.3692   32.7093    6.3261 H   0  0  0  0  0  0  0  0  0  0  0  0
   12.6927   31.9545    8.8722 H   0  0  0  0  0  0  0  0  0  0  0  0
   12.8861   30.8315    6.0841 H   0  0  0  0  0  0  0  0  0  0  0  0
   12.1474   30.0337    7.4520 H   0  0  0  0  0  0  0  0  0  0  0  0
   13.8668   30.3449    7.4459 H   0  0  0  0  0  0  0  0  0  0  0  0
   13.7677   33.2444    6.4020 H   0  0  0  0  0  0  0  0  0  0  0  0
   14.7055   32.7045    7.7738 H   0  0  0  0  0  0  0  0  0  0  0  0
   13.5608   34.0116    7.9582 H   0  0  0  0  0  0  0  0  0  0  0  0
    8.4727   34.4663    8.6946 H   0  0  0  0  0  0  0  0  0  0  0  0
    6.5020   35.1327    7.7355 H   0  0  0  0  0  0  0  0  0  0  0  0
    7.5185   35.9497    6.5230 H   0  0  0  0  0  0  0  0  0  0  0  0
    7.5075   32.5050    7.0221 H   0  0  0  0  0  0  0  0  0  0  0  0
    7.0604   31.9768    4.3206 H   0  0  0  0  0  0  0  0  0  0  0  0
    6.6362   29.6273    5.0831 H   0  0  0  0  0  0  0  0  0  0  0  0
    6.7716   30.2316    6.7309 H   0  0  0  0  0  0  0  0  0  0  0  0
    9.0207   30.9986    6.2847 H   0  0  0  0  0  0  0  0  0  0  0  0
    8.5808   28.1445    5.4377 H   0  0  0  0  0  0  0  0  0  0  0  0
    8.6752   28.7073    7.0892 H   0  0  0  0  0  0  0  0  0  0  0  0
   10.0796   28.7981    6.0536 H   0  0  0  0  0  0  0  0  0  0  0  0
    8.6833   29.7788    3.5596 H   0  0  0  0  0  0  0  0  0  0  0  0
   10.1666   30.4400    4.2044 H   0  0  0  0  0  0  0  0  0  0  0  0
    8.8007   31.4877    3.9046 H   0  0  0  0  0  0  0  0  0  0  0  0
    4.7023   32.6110    6.7399 H   0  0  0  0  0  0  0  0  0  0  0  0
    2.6438   32.1771    4.6634 H   0  0  0  0  0  0  0  0  0  0  0  0
    2.6721   33.5814    5.7028 H   0  0  0  0  0  0  0  0  0  0  0  0
    2.3280   32.0050    6.3733 H   0  0  0  0  0  0  0  0  0  0  0  0
  1 31  1  0  0  0  0
  1 32  1  0  0  0  0
  1 33  1  0  0  0  0
  2  1  1  0  0  0  0
  2  4  1  0  0  0  0
  3  2  2  0  0  0  0
  4 34  1  0  0  0  0
  5  4  1  0  0  0  0
  5  8  1  0  0  0  0
  5 35  1  1  0  0  0
  6  5  1  0  0  0  0
  7  6  2  0  0  0  0
  8 36  1  0  0  0  0
  8 37  1  0  0  0  0
  8 38  1  0  0  0  0
  9  6  1  0  0  0  0
  9 39  1  0  0  0  0
 10  9  1  0  0  0  0
 10 40  1  6  0  0  0
 11 17  1  0  0  0  0
 11 10  1  0  0  0  0
 12 11  2  0  0  0  0
 13 14  1  0  0  0  0
 13 10  1  0  0  0  0
 13 41  1  0  0  0  0
 13 42  1  0  0  0  0
 14 43  1  0  0  0  0
 15 14  1  0  0  0  0
 15 44  1  0  0  0  0
 15 45  1  0  0  0  0
 15 46  1  0  0  0  0
 16 14  1  0  0  0  0
 16 47  1  0  0  0  0
 16 48  1  0  0  0  0
 16 49  1  0  0  0  0
 17 50  1  0  0  0  0
 18 17  1  0  0  0  0
 18 51  1  0  0  0  0
 18 52  1  0  0  0  0
 19 21  1  0  0  0  0
 19 18  1  0  0  0  0
 20 19  2  0  0  0  0
 21 53  1  0  0  0  0
 22 25  1  0  0  0  0
 22 21  1  0  0  0  0
 22 54  1  6  0  0  0
 23 22  1  0  0  0  0
 23 29  1  0  0  0  0
 24 23  2  0  0  0  0
 25 55  1  0  0  0  0
 25 56  1  0  0  0  0
 26 25  1  0  0  0  0
 26 27  1  0  0  0  0
 26 57  1  0  0  0  0
 27 58  1  0  0  0  0
 27 59  1  0  0  0  0
 27 60  1  0  0  0  0
 28 26  1  0  0  0  0
 28 61  1  0  0  0  0
 28 62  1  0  0  0  0
 28 63  1  0  0  0  0
 29 64  1  0  0  0  0
 30 29  1  0  0  0  0
 30 65  1  0  0  0  0
 30 66  1  0  0  0  0
 30 67  1  0  0  0  0
M  END
>  <MODEL>
       0

$$$$
selected_4mers/ALGL/326_noH.pdb
 OpenBabel03042517593D

 67 66  0  0  1  0  0  0  0  0999 V2000
   53.0630    7.8340   23.4290 C   0  0  0  0  0  0  0  0  0  0  0  0
   52.3140    8.1400   22.1490 C   0  0  0  0  0  0  0  0  0  0  0  0
   52.1030    9.3080   21.7880 O   0  0  0  0  0  0  0  0  0  0  0  0
   51.8700    7.0860   21.4590 N   0  0  0  0  0  0  0  0  0  0  0  0
   51.0780    7.2600   20.2620 C   0  0  2  0  0  0  0  0  0  0  0  0
   49.7510    6.5890   20.4650 C   0  0  0  0  0  0  0  0  0  0  0  0
   49.6830    5.4100   20.8050 O   0  0  0  0  0  0  0  0  0  0  0  0
   51.8430    6.7380   19.0080 C   0  0  0  0  0  0  0  0  0  0  0  0
   48.6920    7.3680   20.3150 N   0  0  0  0  0  0  0  0  0  0  0  0
   47.3450    6.9670   20.6260 C   0  0  2  0  0  0  0  0  0  0  0  0
   46.4810    6.8250   19.3710 C   0  0  0  0  0  0  0  0  0  0  0  0
   46.6360    7.5900   18.4380 O   0  0  0  0  0  0  0  0  0  0  0  0
   46.7300    8.0530   21.5200 C   0  0  0  0  0  0  0  0  0  0  0  0
   47.5120    8.2640   22.8270 C   0  0  0  0  0  0  0  0  0  0  0  0
   47.0480    9.5690   23.4980 C   0  0  0  0  0  0  0  0  0  0  0  0
   47.3530    7.0850   23.7390 C   0  0  0  0  0  0  0  0  0  0  0  0
   45.5760    5.8370   19.3650 N   0  0  0  0  0  0  0  0  0  0  0  0
   44.5920    5.6770   18.3270 C   0  0  0  0  0  0  0  0  0  0  0  0
   45.0010    4.7650   17.1800 C   0  0  0  0  0  0  0  0  0  0  0  0
   44.3320    4.7670   16.1440 O   0  0  0  0  0  0  0  0  0  0  0  0
   46.1040    4.0360   17.3400 N   0  0  0  0  0  0  0  0  0  0  0  0
   46.6370    3.2310   16.2180 C   0  0  2  0  0  0  0  0  0  0  0  0
   45.7420    2.0450   15.9270 C   0  0  0  0  0  0  0  0  0  0  0  0
   45.2130    1.4320   16.8370 O   0  0  0  0  0  0  0  0  0  0  0  0
   48.0410    2.7210   16.5210 C   0  0  0  0  0  0  0  0  0  0  0  0
   49.1450    3.7800   16.4950 C   0  0  0  0  0  0  0  0  0  0  0  0
   50.3320    3.3600   17.2990 C   0  0  0  0  0  0  0  0  0  0  0  0
   49.5290    4.1230   15.0620 C   0  0  0  0  0  0  0  0  0  0  0  0
   45.6090    1.6940   14.6470 N   0  0  0  0  0  0  0  0  0  0  0  0
   44.9020    0.4740   14.2920 C   0  0  0  0  0  0  0  0  0  0  0  0
   53.1363    6.7739   23.5546 H   0  0  0  0  0  0  0  0  0  0  0  0
   52.5370    8.2561   24.2597 H   0  0  0  0  0  0  0  0  0  0  0  0
   54.0450    8.2558   23.3771 H   0  0  0  0  0  0  0  0  0  0  0  0
   52.0853    6.1771   21.7702 H   0  0  0  0  0  0  0  0  0  0  0  0
   50.9003    8.2992   20.0791 H   0  0  0  0  0  0  0  0  0  0  0  0
   52.0536    5.6957   19.1270 H   0  0  0  0  0  0  0  0  0  0  0  0
   52.7608    7.2773   18.9000 H   0  0  0  0  0  0  0  0  0  0  0  0
   51.2396    6.8827   18.1363 H   0  0  0  0  0  0  0  0  0  0  0  0
   48.8342    8.2787   19.9691 H   0  0  0  0  0  0  0  0  0  0  0  0
   47.3764    6.0135   21.1105 H   0  0  0  0  0  0  0  0  0  0  0  0
   45.7279    7.7679   21.7637 H   0  0  0  0  0  0  0  0  0  0  0  0
   46.7601    8.9733   20.9750 H   0  0  0  0  0  0  0  0  0  0  0  0
   48.5553    8.3503   22.6056 H   0  0  0  0  0  0  0  0  0  0  0  0
   46.0050    9.5010   23.7271 H   0  0  0  0  0  0  0  0  0  0  0  0
   47.2143   10.3906   22.8331 H   0  0  0  0  0  0  0  0  0  0  0  0
   47.6021    9.7227   24.4004 H   0  0  0  0  0  0  0  0  0  0  0  0
   46.3192    6.9623   23.9864 H   0  0  0  0  0  0  0  0  0  0  0  0
   47.9170    7.2475   24.6337 H   0  0  0  0  0  0  0  0  0  0  0  0
   47.7093    6.2036   23.2480 H   0  0  0  0  0  0  0  0  0  0  0  0
   45.5845    5.1893   20.1064 H   0  0  0  0  0  0  0  0  0  0  0  0
   43.7058    5.2735   18.7706 H   0  0  0  0  0  0  0  0  0  0  0  0
   44.4525    6.6476   17.8987 H   0  0  0  0  0  0  0  0  0  0  0  0
   46.5671    4.0325   18.2088 H   0  0  0  0  0  0  0  0  0  0  0  0
   46.6706    3.8731   15.3628 H   0  0  0  0  0  0  0  0  0  0  0  0
   48.2841    1.9732   15.7954 H   0  0  0  0  0  0  0  0  0  0  0  0
   48.0100    2.3527   17.5252 H   0  0  0  0  0  0  0  0  0  0  0  0
   48.7594    4.6670   16.9526 H   0  0  0  0  0  0  0  0  0  0  0  0
   50.7530    2.4718   16.8762 H   0  0  0  0  0  0  0  0  0  0  0  0
   50.0297    3.1665   18.3070 H   0  0  0  0  0  0  0  0  0  0  0  0
   51.0635    4.1408   17.2897 H   0  0  0  0  0  0  0  0  0  0  0  0
   49.9189    3.2515   14.5789 H   0  0  0  0  0  0  0  0  0  0  0  0
   50.2735    4.8915   15.0665 H   0  0  0  0  0  0  0  0  0  0  0  0
   48.6644    4.4670   14.5337 H   0  0  0  0  0  0  0  0  0  0  0  0
   45.9909    2.2630   13.9401 H   0  0  0  0  0  0  0  0  0  0  0  0
   44.5591   -0.0113   15.1818 H   0  0  0  0  0  0  0  0  0  0  0  0
   45.5625   -0.1794   13.7612 H   0  0  0  0  0  0  0  0  0  0  0  0
   44.0641    0.7150   13.6717 H   0  0  0  0  0  0  0  0  0  0  0  0
  1 31  1  0  0  0  0
  1 32  1  0  0  0  0
  1 33  1  0  0  0  0
  2  1  1  0  0  0  0
  3  2  2  0  0  0  0
  4  2  1  0  0  0  0
  4 34  1  0  0  0  0
  5  6  1  0  0  0  0
  5  4  1  0  0  0  0
  5 35  1  6  0  0  0
  6  7  2  0  0  0  0
  8  5  1  0  0  0  0
  8 36  1  0  0  0  0
  8 37  1  0  0  0  0
  8 38  1  0  0  0  0
  9  6  1  0  0  0  0
  9 10  1  0  0  0  0
  9 39  1  0  0  0  0
 10 13  1  0  0  0  0
 10 40  1  1  0  0  0
 11 10  1  0  0  0  0
 12 11  2  0  0  0  0
 13 14  1  0  0  0  0
 13 41  1  0  0  0  0
 13 42  1  0  0  0  0
 14 15  1  0  0  0  0
 14 16  1  0  0  0  0
 14 43  1  0  0  0  0
 15 44  1  0  0  0  0
 15 45  1  0  0  0  0
 15 46  1  0  0  0  0
 16 47  1  0  0  0  0
 16 48  1  0  0  0  0
 16 49  1  0  0  0  0
 17 11  1  0  0  0  0
 17 50  1  0  0  0  0
 18 17  1  0  0  0  0
 18 51  1  0  0  0  0
 18 52  1  0  0  0  0
 19 21  1  0  0  0  0
 19 18  1  0  0  0  0
 20 19  2  0  0  0  0
 21 53  1  0  0  0  0
 22 25  1  0  0  0  0
 22 21  1  0  0  0  0
 22 54  1  6  0  0  0
 23 22  1  0  0  0  0
 23 24  2  0  0  0  0
 25 55  1  0  0  0  0
 25 56  1  0  0  0  0
 26 25  1  0  0  0  0
 26 27  1  0  0  0  0
 26 57  1  0  0  0  0
 27 58  1  0  0  0  0
 27 59  1  0  0  0  0
 27 60  1  0  0  0  0
 28 26  1  0  0  0  0
 28 61  1  0  0  0  0
 28 62  1  0  0  0  0
 28 63  1  0  0  0  0
 29 23  1  0  0  0  0
 29 64  1  0  0  0  0
 30 29  1  0  0  0  0
 30 65  1  0  0  0  0
 30 66  1  0  0  0  0
 30 67  1  0  0  0  0
M  END
>  <MODEL>
       0

$$$$
selected_4mers/ALGL/327_noH.pdb
 OpenBabel03042517593D

 67 66  0  0  1  0  0  0  0  0999 V2000
   37.9020   23.3360   29.3210 C   0  0  0  0  0  0  0  0  0  0  0  0
   38.5460   22.4120   28.3190 C   0  0  0  0  0  0  0  0  0  0  0  0
   38.6150   22.7070   27.1290 O   0  0  0  0  0  0  0  0  0  0  0  0
   38.9750   21.2670   28.8350 N   0  0  0  0  0  0  0  0  0  0  0  0
   39.6060   20.2600   28.0180 C   0  0  2  0  0  0  0  0  0  0  0  0
   38.6540   19.6650   26.9880 C   0  0  0  0  0  0  0  0  0  0  0  0
   39.1100   19.0960   25.9980 O   0  0  0  0  0  0  0  0  0  0  0  0
   40.1130   19.1480   28.8970 C   0  0  0  0  0  0  0  0  0  0  0  0
   37.3360   19.6990   27.1860 N   0  0  0  0  0  0  0  0  0  0  0  0
   36.4130   19.1810   26.2070 C   0  0  2  0  0  0  0  0  0  0  0  0
   35.9730   20.2960   25.2760 C   0  0  0  0  0  0  0  0  0  0  0  0
   35.2320   20.0500   24.3280 O   0  0  0  0  0  0  0  0  0  0  0  0
   35.2150   18.5710   26.9200 C   0  0  0  0  0  0  0  0  0  0  0  0
   35.4640   17.4030   27.8260 C   0  0  0  0  0  0  0  0  0  0  0  0
   34.1330   16.9640   28.3700 C   0  0  0  0  0  0  0  0  0  0  0  0
   36.0980   16.2430   27.0900 C   0  0  0  0  0  0  0  0  0  0  0  0
   36.3920   21.5290   25.5670 N   0  0  0  0  0  0  0  0  0  0  0  0
   36.1040   22.7200   24.7850 C   0  0  0  0  0  0  0  0  0  0  0  0
   34.6820   23.1920   24.9060 C   0  0  0  0  0  0  0  0  0  0  0  0
   34.2060   23.9410   24.0630 O   0  0  0  0  0  0  0  0  0  0  0  0
   33.9780   22.7780   25.9460 N   0  0  0  0  0  0  0  0  0  0  0  0
   32.5930   23.1690   26.1720 C   0  0  2  0  0  0  0  0  0  0  0  0
   32.5910   24.4500   26.9980 C   0  0  0  0  0  0  0  0  0  0  0  0
   33.0420   24.4960   28.1480 O   0  0  0  0  0  0  0  0  0  0  0  0
   31.8800   22.0210   26.8830 C   0  0  0  0  0  0  0  0  0  0  0  0
   31.7680   20.7580   26.0330 C   0  0  0  0  0  0  0  0  0  0  0  0
   31.0610   19.6600   26.7900 C   0  0  0  0  0  0  0  0  0  0  0  0
   30.9300   21.0460   24.8220 C   0  0  0  0  0  0  0  0  0  0  0  0
   32.1510   25.5220   26.3610 N   0  0  0  0  0  0  0  0  0  0  0  0
   32.1680   26.8470   26.9360 C   0  0  0  0  0  0  0  0  0  0  0  0
   37.5852   24.2314   28.8283 H   0  0  0  0  0  0  0  0  0  0  0  0
   38.6088   23.5808   30.0861 H   0  0  0  0  0  0  0  0  0  0  0  0
   37.0548   22.8516   29.7598 H   0  0  0  0  0  0  0  0  0  0  0  0
   38.8597   21.1011   29.7986 H   0  0  0  0  0  0  0  0  0  0  0  0
   40.4080   20.7363   27.4937 H   0  0  0  0  0  0  0  0  0  0  0  0
   39.2897   18.6926   29.4065 H   0  0  0  0  0  0  0  0  0  0  0  0
   40.8005   19.5455   29.6141 H   0  0  0  0  0  0  0  0  0  0  0  0
   40.6092   18.4156   28.2951 H   0  0  0  0  0  0  0  0  0  0  0  0
   36.9849   20.0868   28.0200 H   0  0  0  0  0  0  0  0  0  0  0  0
   36.8910   18.4228   25.6226 H   0  0  0  0  0  0  0  0  0  0  0  0
   34.5246   18.2506   26.1679 H   0  0  0  0  0  0  0  0  0  0  0  0
   34.8627   19.3459   27.5683 H   0  0  0  0  0  0  0  0  0  0  0  0
   36.1375   17.7007   28.6023 H   0  0  0  0  0  0  0  0  0  0  0  0
   33.4943   16.6765   27.5611 H   0  0  0  0  0  0  0  0  0  0  0  0
   33.6840   17.7719   28.9091 H   0  0  0  0  0  0  0  0  0  0  0  0
   34.2733   16.1312   29.0270 H   0  0  0  0  0  0  0  0  0  0  0  0
   35.4471   15.9206   26.3043 H   0  0  0  0  0  0  0  0  0  0  0  0
   36.2618   15.4347   27.7718 H   0  0  0  0  0  0  0  0  0  0  0  0
   37.0334   16.5534   26.6734 H   0  0  0  0  0  0  0  0  0  0  0  0
   36.9405   21.6411   26.3768 H   0  0  0  0  0  0  0  0  0  0  0  0
   36.7503   23.5060   25.1158 H   0  0  0  0  0  0  0  0  0  0  0  0
   36.2633   22.4662   23.7578 H   0  0  0  0  0  0  0  0  0  0  0  0
   34.4093   22.1785   26.5969 H   0  0  0  0  0  0  0  0  0  0  0  0
   32.0746   23.3621   25.2561 H   0  0  0  0  0  0  0  0  0  0  0  0
   32.4238   21.7835   27.7734 H   0  0  0  0  0  0  0  0  0  0  0  0
   30.8837   22.3497   27.0933 H   0  0  0  0  0  0  0  0  0  0  0  0
   32.7601   20.4543   25.7715 H   0  0  0  0  0  0  0  0  0  0  0  0
   30.0720   19.9808   27.0428 H   0  0  0  0  0  0  0  0  0  0  0  0
   31.6035   19.4374   27.6850 H   0  0  0  0  0  0  0  0  0  0  0  0
   31.0063   18.7835   26.1788 H   0  0  0  0  0  0  0  0  0  0  0  0
   29.9497   21.3450   25.1295 H   0  0  0  0  0  0  0  0  0  0  0  0
   30.8613   20.1653   24.2182 H   0  0  0  0  0  0  0  0  0  0  0  0
   31.3815   21.8330   24.2548 H   0  0  0  0  0  0  0  0  0  0  0  0
   31.7943   25.4116   25.4501 H   0  0  0  0  0  0  0  0  0  0  0  0
   32.5813   26.8026   27.9220 H   0  0  0  0  0  0  0  0  0  0  0  0
   31.1691   27.2275   26.9847 H   0  0  0  0  0  0  0  0  0  0  0  0
   32.7662   27.4923   26.3272 H   0  0  0  0  0  0  0  0  0  0  0  0
  1 31  1  0  0  0  0
  1 32  1  0  0  0  0
  1 33  1  0  0  0  0
  2  4  1  0  0  0  0
  2  1  1  0  0  0  0
  3  2  2  0  0  0  0
  4 34  1  0  0  0  0
  5  4  1  0  0  0  0
  5  8  1  0  0  0  0
  5 35  1  6  0  0  0
  6  9  1  0  0  0  0
  6  5  1  0  0  0  0
  7  6  2  0  0  0  0
  8 36  1  0  0  0  0
  8 37  1  0  0  0  0
  8 38  1  0  0  0  0
  9 39  1  0  0  0  0
 10 13  1  0  0  0  0
 10  9  1  0  0  0  0
 10 40  1  6  0  0  0
 11 17  1  0  0  0  0
 11 10  1  0  0  0  0
 12 11  2  0  0  0  0
 13 14  1  0  0  0  0
 13 41  1  0  0  0  0
 13 42  1  0  0  0  0
 14 15  1  0  0  0  0
 14 43  1  0  0  0  0
 15 44  1  0  0  0  0
 15 45  1  0  0  0  0
 15 46  1  0  0  0  0
 16 14  1  0  0  0  0
 16 47  1  0  0  0  0
 16 48  1  0  0  0  0
 16 49  1  0  0  0  0
 17 50  1  0  0  0  0
 18 19  1  0  0  0  0
 18 17  1  0  0  0  0
 18 51  1  0  0  0  0
 18 52  1  0  0  0  0
 19 21  1  0  0  0  0
 20 19  2  0  0  0  0
 21 22  1  0  0  0  0
 21 53  1  0  0  0  0
 22 25  1  0  0  0  0
 22 23  1  0  0  0  0
 22 54  1  6  0  0  0
 23 24  2  0  0  0  0
 25 55  1  0  0  0  0
 25 56  1  0  0  0  0
 26 27  1  0  0  0  0
 26 25  1  0  0  0  0
 26 57  1  0  0  0  0
 27 58  1  0  0  0  0
 27 59  1  0  0  0  0
 27 60  1  0  0  0  0
 28 26  1  0  0  0  0
 28 61  1  0  0  0  0
 28 62  1  0  0  0  0
 28 63  1  0  0  0  0
 29 30  1  0  0  0  0
 29 23  1  0  0  0  0
 29 64  1  0  0  0  0
 30 65  1  0  0  0  0
 30 66  1  0  0  0  0
 30 67  1  0  0  0  0
M  END
>  <MODEL>
       0

$$$$
selected_4mers/ALGL/328_noH.pdb
 OpenBabel03042517593D

 67 66  0  0  1  0  0  0  0  0999 V2000
   12.6600   23.7150   47.6650 C   0  0  0  0  0  0  0  0  0  0  0  0
   13.8370   24.0500   46.7670 C   0  0  0  0  0  0  0  0  0  0  0  0
   13.8120   25.0450   46.0340 O   0  0  0  0  0  0  0  0  0  0  0  0
   14.8710   23.2150   46.8410 N   0  0  0  0  0  0  0  0  0  0  0  0
   16.0430   23.3700   46.0040 C   0  0  2  0  0  0  0  0  0  0  0  0
   15.7610   22.4360   44.8170 C   0  0  0  0  0  0  0  0  0  0  0  0
   15.1540   21.3690   44.9950 O   0  0  0  0  0  0  0  0  0  0  0  0
   17.3060   22.9320   46.7620 C   0  0  0  0  0  0  0  0  0  0  0  0
   16.1960   22.8350   43.6250 N   0  0  0  0  0  0  0  0  0  0  0  0
   15.9350   22.0640   42.4080 C   0  0  2  0  0  0  0  0  0  0  0  0
   17.1280   21.5390   41.6150 C   0  0  0  0  0  0  0  0  0  0  0  0
   18.1510   22.2150   41.4720 O   0  0  0  0  0  0  0  0  0  0  0  0
   15.0770   22.9010   41.4370 C   0  0  0  0  0  0  0  0  0  0  0  0
   13.5750   23.0540   41.6990 C   0  0  0  0  0  0  0  0  0  0  0  0
   13.3570   23.5870   43.0900 C   0  0  0  0  0  0  0  0  0  0  0  0
   12.9560   24.0140   40.6660 C   0  0  0  0  0  0  0  0  0  0  0  0
   16.9630   20.3200   41.0960 N   0  0  0  0  0  0  0  0  0  0  0  0
   17.9490   19.6930   40.2330 C   0  0  0  0  0  0  0  0  0  0  0  0
   17.2220   19.4320   38.9070 C   0  0  0  0  0  0  0  0  0  0  0  0
   16.0330   19.1020   38.9070 O   0  0  0  0  0  0  0  0  0  0  0  0
   17.9170   19.5850   37.7820 N   0  0  0  0  0  0  0  0  0  0  0  0
   17.3040   19.3930   36.4700 C   0  0  2  0  0  0  0  0  0  0  0  0
   18.1260   18.4550   35.5900 C   0  0  0  0  0  0  0  0  0  0  0  0
   19.3290   18.6260   35.4780 O   0  0  0  0  0  0  0  0  0  0  0  0
   17.1880   20.7470   35.7570 C   0  0  0  0  0  0  0  0  0  0  0  0
   16.5690   20.8060   34.3530 C   0  0  0  0  0  0  0  0  0  0  0  0
   15.0720   20.6620   34.4410 C   0  0  0  0  0  0  0  0  0  0  0  0
   16.8980   22.1590   33.7050 C   0  0  0  0  0  0  0  0  0  0  0  0
   17.4800   17.4760   34.9570 N   0  0  0  0  0  0  0  0  0  0  0  0
   18.1980   16.5700   34.0600 C   0  0  0  0  0  0  0  0  0  0  0  0
   11.8886   24.4439   47.5288 H   0  0  0  0  0  0  0  0  0  0  0  0
   12.9783   23.7191   48.6866 H   0  0  0  0  0  0  0  0  0  0  0  0
   12.2834   22.7458   47.4127 H   0  0  0  0  0  0  0  0  0  0  0  0
   14.8382   22.4699   47.4837 H   0  0  0  0  0  0  0  0  0  0  0  0
   16.2158   24.3818   45.7019 H   0  0  0  0  0  0  0  0  0  0  0  0
   17.1915   21.9204   47.0914 H   0  0  0  0  0  0  0  0  0  0  0  0
   17.4521   23.5686   47.6095 H   0  0  0  0  0  0  0  0  0  0  0  0
   18.1538   23.0020   46.1129 H   0  0  0  0  0  0  0  0  0  0  0  0
   16.7083   23.6731   43.5592 H   0  0  0  0  0  0  0  0  0  0  0  0
   15.4487   21.1912   42.7908 H   0  0  0  0  0  0  0  0  0  0  0  0
   15.4929   23.8868   41.4245 H   0  0  0  0  0  0  0  0  0  0  0  0
   15.1179   22.3464   40.5229 H   0  0  0  0  0  0  0  0  0  0  0  0
   13.1028   22.0980   41.6094 H   0  0  0  0  0  0  0  0  0  0  0  0
   13.8280   24.5432   43.1834 H   0  0  0  0  0  0  0  0  0  0  0  0
   13.7805   22.9097   43.8019 H   0  0  0  0  0  0  0  0  0  0  0  0
   12.3076   23.6869   43.2733 H   0  0  0  0  0  0  0  0  0  0  0  0
   13.4217   24.9739   40.7473 H   0  0  0  0  0  0  0  0  0  0  0  0
   11.9067   24.1098   40.8520 H   0  0  0  0  0  0  0  0  0  0  0  0
   13.1096   23.6253   39.6810 H   0  0  0  0  0  0  0  0  0  0  0  0
   16.1384   19.8253   41.3071 H   0  0  0  0  0  0  0  0  0  0  0  0
   18.7827   20.3462   40.0807 H   0  0  0  0  0  0  0  0  0  0  0  0
   18.3352   18.7909   40.6596 H   0  0  0  0  0  0  0  0  0  0  0  0
   18.8680   19.8338   37.8355 H   0  0  0  0  0  0  0  0  0  0  0  0
   16.3395   18.9567   36.6263 H   0  0  0  0  0  0  0  0  0  0  0  0
   16.5980   21.3811   36.3852 H   0  0  0  0  0  0  0  0  0  0  0  0
   18.2054   21.0378   35.5980 H   0  0  0  0  0  0  0  0  0  0  0  0
   16.9711   20.0080   33.7645 H   0  0  0  0  0  0  0  0  0  0  0  0
   14.6709   21.4604   35.0296 H   0  0  0  0  0  0  0  0  0  0  0  0
   14.8300   19.7254   34.8982 H   0  0  0  0  0  0  0  0  0  0  0  0
   14.6518   20.6979   33.4576 H   0  0  0  0  0  0  0  0  0  0  0  0
   16.4913   22.9486   34.3017 H   0  0  0  0  0  0  0  0  0  0  0  0
   16.4722   22.1976   32.7241 H   0  0  0  0  0  0  0  0  0  0  0  0
   17.9597   22.2735   33.6377 H   0  0  0  0  0  0  0  0  0  0  0  0
   16.5118   17.3615   35.0941 H   0  0  0  0  0  0  0  0  0  0  0  0
   19.2328   16.8410   34.0328 H   0  0  0  0  0  0  0  0  0  0  0  0
   17.7847   16.6410   33.0756 H   0  0  0  0  0  0  0  0  0  0  0  0
   18.1016   15.5655   34.4157 H   0  0  0  0  0  0  0  0  0  0  0  0
  1 31  1  0  0  0  0
  1 32  1  0  0  0  0
  1 33  1  0  0  0  0
  2  4  1  0  0  0  0
  2  1  1  0  0  0  0
  3  2  2  0  0  0  0
  4 34  1  0  0  0  0
  5  8  1  0  0  0  0
  5  4  1  0  0  0  0
  5 35  1  6  0  0  0
  6  7  2  0  0  0  0
  6  5  1  0  0  0  0
  8 36  1  0  0  0  0
  8 37  1  0  0  0  0
  8 38  1  0  0  0  0
  9  6  1  0  0  0  0
  9 39  1  0  0  0  0
 10  9  1  0  0  0  0
 10 40  1  1  0  0  0
 11 10  1  0  0  0  0
 12 11  2  0  0  0  0
 13 14  1  0  0  0  0
 13 10  1  0  0  0  0
 13 41  1  0  0  0  0
 13 42  1  0  0  0  0
 14 15  1  0  0  0  0
 14 43  1  0  0  0  0
 15 44  1  0  0  0  0
 15 45  1  0  0  0  0
 15 46  1  0  0  0  0
 16 14  1  0  0  0  0
 16 47  1  0  0  0  0
 16 48  1  0  0  0  0
 16 49  1  0  0  0  0
 17 11  1  0  0  0  0
 17 50  1  0  0  0  0
 18 17  1  0  0  0  0
 18 51  1  0  0  0  0
 18 52  1  0  0  0  0
 19 18  1  0  0  0  0
 20 19  2  0  0  0  0
 21 19  1  0  0  0  0
 21 53  1  0  0  0  0
 22 21  1  0  0  0  0
 22 54  1  1  0  0  0
 23 22  1  0  0  0  0
 24 23  2  0  0  0  0
 25 22  1  0  0  0  0
 25 55  1  0  0  0  0
 25 56  1  0  0  0  0
 26 27  1  0  0  0  0
 26 25  1  0  0  0  0
 26 57  1  0  0  0  0
 27 58  1  0  0  0  0
 27 59  1  0  0  0  0
 27 60  1  0  0  0  0
 28 26  1  0  0  0  0
 28 61  1  0  0  0  0
 28 62  1  0  0  0  0
 28 63  1  0  0  0  0
 29 23  1  0  0  0  0
 29 64  1  0  0  0  0
 30 29  1  0  0  0  0
 30 65  1  0  0  0  0
 30 66  1  0  0  0  0
 30 67  1  0  0  0  0
M  END
>  <MODEL>
       0

$$$$
selected_4mers/ALGL/329_noH.pdb
 OpenBabel03042517593D

 67 66  0  0  1  0  0  0  0  0999 V2000
  -14.2040   49.6970   26.9900 C   0  0  0  0  0  0  0  0  0  0  0  0
  -14.4460   48.3760   26.2530 C   0  0  0  0  0  0  0  0  0  0  0  0
  -15.2270   47.5320   26.7030 O   0  0  0  0  0  0  0  0  0  0  0  0
  -13.7620   48.1940   25.1260 N   0  0  0  0  0  0  0  0  0  0  0  0
  -13.9270   47.0060   24.2920 C   0  0  2  0  0  0  0  0  0  0  0  0
  -13.3270   45.7800   24.9820 C   0  0  0  0  0  0  0  0  0  0  0  0
  -12.1220   45.7290   25.2400 O   0  0  0  0  0  0  0  0  0  0  0  0
  -13.2380   47.2090   22.9100 C   0  0  0  0  0  0  0  0  0  0  0  0
  -14.1510   44.7670   25.2230 N   0  0  0  0  0  0  0  0  0  0  0  0
  -13.6710   43.5610   25.9190 C   0  0  2  0  0  0  0  0  0  0  0  0
  -12.8070   42.6660   25.0140 C   0  0  0  0  0  0  0  0  0  0  0  0
  -11.7200   42.1820   25.3910 O   0  0  0  0  0  0  0  0  0  0  0  0
  -14.8580   42.7450   26.4160 C   0  0  0  0  0  0  0  0  0  0  0  0
  -14.4730   41.4370   27.1110 C   0  0  0  0  0  0  0  0  0  0  0  0
  -13.5400   41.6840   28.3070 C   0  0  0  0  0  0  0  0  0  0  0  0
  -15.7400   40.6370   27.5470 C   0  0  0  0  0  0  0  0  0  0  0  0
  -13.3310   42.4500   23.8120 N   0  0  0  0  0  0  0  0  0  0  0  0
  -12.8250   41.4100   22.8930 C   0  0  0  0  0  0  0  0  0  0  0  0
  -13.8390   40.2680   22.7830 C   0  0  0  0  0  0  0  0  0  0  0  0
  -14.8020   40.2050   23.5250 O   0  0  0  0  0  0  0  0  0  0  0  0
  -13.5690   39.3530   21.8660 N   0  0  0  0  0  0  0  0  0  0  0  0
  -14.5530   38.3560   21.4180 C   0  0  2  0  0  0  0  0  0  0  0  0
  -14.0330   36.9230   21.5080 C   0  0  0  0  0  0  0  0  0  0  0  0
  -12.8260   36.6740   21.3790 O   0  0  0  0  0  0  0  0  0  0  0  0
  -14.9260   38.6120   19.9640 C   0  0  0  0  0  0  0  0  0  0  0  0
  -15.6890   39.8750   19.5950 C   0  0  0  0  0  0  0  0  0  0  0  0
  -15.8610   39.9260   18.0340 C   0  0  0  0  0  0  0  0  0  0  0  0
  -17.0310   39.9460   20.3600 C   0  0  0  0  0  0  0  0  0  0  0  0
  -14.9610   35.9910   21.7160 N   0  0  0  0  0  0  0  0  0  0  0  0
  -14.7040   34.5680   21.5000 C   0  0  0  0  0  0  0  0  0  0  0  0
  -13.4993   50.2871   26.4422 H   0  0  0  0  0  0  0  0  0  0  0  0
  -13.8169   49.4947   27.9668 H   0  0  0  0  0  0  0  0  0  0  0  0
  -15.1268   50.2318   27.0758 H   0  0  0  0  0  0  0  0  0  0  0  0
  -13.1209   48.8858   24.8438 H   0  0  0  0  0  0  0  0  0  0  0  0
  -14.9749   46.8490   24.1430 H   0  0  0  0  0  0  0  0  0  0  0  0
  -12.1895   47.3664   23.0539 H   0  0  0  0  0  0  0  0  0  0  0  0
  -13.6628   48.0609   22.4214 H   0  0  0  0  0  0  0  0  0  0  0  0
  -13.3884   46.3392   22.3053 H   0  0  0  0  0  0  0  0  0  0  0  0
  -15.0905   44.8225   24.9341 H   0  0  0  0  0  0  0  0  0  0  0  0
  -13.0663   43.8933   26.7368 H   0  0  0  0  0  0  0  0  0  0  0  0
  -15.4781   42.5091   25.5765 H   0  0  0  0  0  0  0  0  0  0  0  0
  -15.3596   43.3451   27.1462 H   0  0  0  0  0  0  0  0  0  0  0  0
  -13.9355   40.8448   26.4002 H   0  0  0  0  0  0  0  0  0  0  0  0
  -14.0482   42.2756   29.0396 H   0  0  0  0  0  0  0  0  0  0  0  0
  -12.6644   42.2018   27.9753 H   0  0  0  0  0  0  0  0  0  0  0  0
  -13.2579   40.7465   28.7388 H   0  0  0  0  0  0  0  0  0  0  0  0
  -16.2958   41.2098   28.2597 H   0  0  0  0  0  0  0  0  0  0  0  0
  -15.4415   39.7097   27.9896 H   0  0  0  0  0  0  0  0  0  0  0  0
  -16.3515   40.4429   26.6906 H   0  0  0  0  0  0  0  0  0  0  0  0
  -14.0890   43.0070   23.5215 H   0  0  0  0  0  0  0  0  0  0  0  0
  -12.6680   41.8386   21.9252 H   0  0  0  0  0  0  0  0  0  0  0  0
  -11.9024   41.0243   23.2738 H   0  0  0  0  0  0  0  0  0  0  0  0
  -12.6696   39.3390   21.4659 H   0  0  0  0  0  0  0  0  0  0  0  0
  -15.3956   38.4578   22.0696 H   0  0  0  0  0  0  0  0  0  0  0  0
  -14.0126   38.6269   19.4069 H   0  0  0  0  0  0  0  0  0  0  0  0
  -15.6187   37.8274   19.7417 H   0  0  0  0  0  0  0  0  0  0  0  0
  -15.1393   40.7440   19.8910 H   0  0  0  0  0  0  0  0  0  0  0  0
  -16.4088   39.0669   17.7073 H   0  0  0  0  0  0  0  0  0  0  0  0
  -14.8973   39.9326   17.5690 H   0  0  0  0  0  0  0  0  0  0  0  0
  -16.3940   40.8133   17.7627 H   0  0  0  0  0  0  0  0  0  0  0  0
  -17.6319   39.0980   20.1056 H   0  0  0  0  0  0  0  0  0  0  0  0
  -17.5481   40.8432   20.0906 H   0  0  0  0  0  0  0  0  0  0  0  0
  -16.8417   39.9459   21.4131 H   0  0  0  0  0  0  0  0  0  0  0  0
  -15.8525   36.2703   22.0265 H   0  0  0  0  0  0  0  0  0  0  0  0
  -13.6963   34.4342   21.1662 H   0  0  0  0  0  0  0  0  0  0  0  0
  -15.3781   34.1923   20.7588 H   0  0  0  0  0  0  0  0  0  0  0  0
  -14.8496   34.0361   22.4169 H   0  0  0  0  0  0  0  0  0  0  0  0
  1 31  1  0  0  0  0
  1 32  1  0  0  0  0
  1 33  1  0  0  0  0
  2  3  2  0  0  0  0
  2  1  1  0  0  0  0
  4  2  1  0  0  0  0
  4 34  1  0  0  0  0
  5  6  1  0  0  0  0
  5  4  1  0  0  0  0
  5 35  1  6  0  0  0
  6  9  1  0  0  0  0
  6  7  2  0  0  0  0
  8  5  1  0  0  0  0
  8 36  1  0  0  0  0
  8 37  1  0  0  0  0
  8 38  1  0  0  0  0
  9 10  1  0  0  0  0
  9 39  1  0  0  0  0
 10 13  1  0  0  0  0
 10 40  1  1  0  0  0
 11 12  2  0  0  0  0
 11 10  1  0  0  0  0
 13 14  1  0  0  0  0
 13 41  1  0  0  0  0
 13 42  1  0  0  0  0
 14 16  1  0  0  0  0
 14 15  1  0  0  0  0
 14 43  1  0  0  0  0
 15 44  1  0  0  0  0
 15 45  1  0  0  0  0
 15 46  1  0  0  0  0
 16 47  1  0  0  0  0
 16 48  1  0  0  0  0
 16 49  1  0  0  0  0
 17 11  1  0  0  0  0
 17 50  1  0  0  0  0
 18 17  1  0  0  0  0
 18 51  1  0  0  0  0
 18 52  1  0  0  0  0
 19 18  1  0  0  0  0
 19 20  2  0  0  0  0
 21 19  1  0  0  0  0
 21 53  1  0  0  0  0
 22 23  1  0  0  0  0
 22 21  1  0  0  0  0
 22 54  1  1  0  0  0
 23 29  1  0  0  0  0
 24 23  2  0  0  0  0
 25 22  1  0  0  0  0
 25 55  1  0  0  0  0
 25 56  1  0  0  0  0
 26 25  1  0  0  0  0
 26 28  1  0  0  0  0
 26 57  1  0  0  0  0
 27 26  1  0  0  0  0
 27 58  1  0  0  0  0
 27 59  1  0  0  0  0
 27 60  1  0  0  0  0
 28 61  1  0  0  0  0
 28 62  1  0  0  0  0
 28 63  1  0  0  0  0
 29 64  1  0  0  0  0
 30 29  1  0  0  0  0
 30 65  1  0  0  0  0
 30 66  1  0  0  0  0
 30 67  1  0  0  0  0
M  END
>  <MODEL>
       0

$$$$
